
     RDKit          3D

 36 37  0  0  0  0  0  0  0  0999 V2000
    1.1365    0.9950   -1.5770 C   0  0  0  0  0  0  0  0  0  0  0  0
    1.1957   -0.1553   -0.5694 C   0  0  0  0  0  0  0  0  0  0  0  0
    0.2124    0.0872    0.4882 N   0  0  0  0  0  0  0  0  0  0  0  0
   -1.0088   -0.2970    0.3789 C   0  0  0  0  0  0  0  0  0  0  0  0
   -1.8961    0.0118    1.5793 C   0  0  0  0  0  0  0  0  0  0  0  0
   -2.8591    1.1503    1.2594 C   0  0  0  0  0  0  0  0  0  0  0  0
   -4.0895    0.7046    0.4691 C   0  0  0  0  0  0  0  0  0  0  0  0
   -3.7902    0.1305   -0.9170 C   0  0  0  0  0  0  0  0  0  0  0  0
   -2.9945   -1.1703   -0.8777 C   0  0  0  0  0  0  0  0  0  0  0  0
   -1.5802   -0.9222   -0.7016 N   0  0  0  0  0  0  0  0  0  0  0  0
    2.6054   -0.2682   -0.0061 C   0  0  0  0  0  0  0  0  0  0  0  0
    3.5242   -1.1629   -0.5777 C   0  0  0  0  0  0  0  0  0  0  0  0
    4.8280   -1.2564   -0.0858 C   0  0  0  0  0  0  0  0  0  0  0  0
    5.2317   -0.4548    0.9800 C   0  0  0  0  0  0  0  0  0  0  0  0
    4.3330    0.4414    1.5545 C   0  0  0  0  0  0  0  0  0  0  0  0
    3.0297    0.5358    1.0632 C   0  0  0  0  0  0  0  0  0  0  0  0
    1.8615    0.8507   -2.3857 H   0  0  0  0  0  0  0  0  0  0  0  0
    1.3548    1.9576   -1.1000 H   0  0  0  0  0  0  0  0  0  0  0  0
    0.1421    1.0745   -2.0286 H   0  0  0  0  0  0  0  0  0  0  0  0
    0.9776   -1.1007   -1.0814 H   0  0  0  0  0  0  0  0  0  0  0  0
   -2.4265   -0.8933    1.8934 H   0  0  0  0  0  0  0  0  0  0  0  0
   -1.2541    0.3127    2.4166 H   0  0  0  0  0  0  0  0  0  0  0  0
   -3.2071    1.5854    2.2043 H   0  0  0  0  0  0  0  0  0  0  0  0
   -2.3414    1.9488    0.7139 H   0  0  0  0  0  0  0  0  0  0  0  0
   -4.7505    1.5716    0.3464 H   0  0  0  0  0  0  0  0  0  0  0  0
   -4.6534   -0.0316    1.0556 H   0  0  0  0  0  0  0  0  0  0  0  0
   -3.2761    0.8810   -1.5300 H   0  0  0  0  0  0  0  0  0  0  0  0
   -4.7521   -0.0716   -1.4045 H   0  0  0  0  0  0  0  0  0  0  0  0
   -3.3692   -1.8468   -0.1016 H   0  0  0  0  0  0  0  0  0  0  0  0
   -3.1251   -1.6918   -1.8330 H   0  0  0  0  0  0  0  0  0  0  0  0
   -1.0385   -0.9413   -1.5555 H   0  0  0  0  0  0  0  0  0  0  0  0
    3.2280   -1.7948   -1.4114 H   0  0  0  0  0  0  0  0  0  0  0  0
    5.5283   -1.9556   -0.5346 H   0  0  0  0  0  0  0  0  0  0  0  0
    6.2454   -0.5287    1.3637 H   0  0  0  0  0  0  0  0  0  0  0  0
    4.6431    1.0672    2.3867 H   0  0  0  0  0  0  0  0  0  0  0  0
    2.3351    1.2377    1.5207 H   0  0  0  0  0  0  0  0  0  0  0  0
  1  2  1  0
  2  3  1  0
  3  4  2  3
  4  5  1  0
  5  6  1  0
  6  7  1  0
  7  8  1  0
  8  9  1  0
  9 10  1  0
  2 11  1  0
 11 12  2  0
 12 13  1  0
 13 14  2  0
 14 15  1  0
 15 16  2  0
 10  4  1  0
 16 11  1  0
  1 17  1  0
  1 18  1  0
  1 19  1  0
  2 20  1  0
  5 21  1  0
  5 22  1  0
  6 23  1  0
  6 24  1  0
  7 25  1  0
  7 26  1  0
  8 27  1  0
  8 28  1  0
  9 29  1  0
  9 30  1  0
 10 31  1  0
 12 32  1  0
 13 33  1  0
 14 34  1  0
 15 35  1  0
 16 36  1  0
M  END
$$$$
