
     RDKit          3D

 37 40  0  0  0  0  0  0  0  0999 V2000
    1.9922    1.9513   -0.9269 O   0  0  0  0  0  0  0  0  0  0  0  0
    1.8750    0.8620   -0.3839 C   0  0  0  0  0  0  0  0  0  0  0  0
    2.7701    0.2070    0.4259 N   0  0  0  0  0  0  0  0  0  0  0  0
    4.0349    0.6152    0.7598 C   0  0  0  0  0  0  0  0  0  0  0  0
    4.7825   -0.1058    1.5634 N   0  0  0  0  0  0  0  0  0  0  0  0
    6.0044    0.5161    1.7360 C   0  0  0  0  0  0  0  0  0  0  0  0
    6.1670    1.7015    1.0532 C   0  0  0  0  0  0  0  0  0  0  0  0
    4.7421    2.0467    0.1668 S   0  0  0  0  0  0  0  0  0  0  0  0
    0.5864    0.1488   -0.5430 C   0  0  0  0  0  0  0  0  0  0  0  0
   -0.5517    0.8349   -0.1146 C   0  0  0  0  0  0  0  0  0  0  0  0
   -1.7765    0.1953   -0.1852 C   0  0  0  0  0  0  0  0  0  0  0  0
   -3.0445    0.8194    0.2525 C   0  0  0  0  0  0  0  0  0  0  0  0
   -4.2667    0.4527   -0.3434 C   0  0  0  0  0  0  0  0  0  0  0  0
   -5.4774    1.0315    0.0495 C   0  0  0  0  0  0  0  0  0  0  0  0
   -5.4949    1.9918    1.0553 C   0  0  0  0  0  0  0  0  0  0  0  0
   -4.3045    2.3687    1.6693 C   0  0  0  0  0  0  0  0  0  0  0  0
   -3.0944    1.7876    1.2733 C   0  0  0  0  0  0  0  0  0  0  0  0
   -1.8791   -1.0675   -0.6714 N   0  0  0  0  0  0  0  0  0  0  0  0
   -0.7881   -1.7146   -1.1143 C   0  0  0  0  0  0  0  0  0  0  0  0
   -0.9463   -2.9966   -1.6234 C   0  0  0  0  0  0  0  0  0  0  0  0
    0.1298   -3.7336   -2.1225 C   0  0  0  0  0  0  0  0  0  0  0  0
    1.4004   -3.1778   -2.1238 C   0  0  0  0  0  0  0  0  0  0  0  0
    1.5870   -1.8939   -1.6153 C   0  0  0  0  0  0  0  0  0  0  0  0
    0.4989   -1.1502   -1.0876 C   0  0  0  0  0  0  0  0  0  0  0  0
    2.5099   -0.6655    0.8663 H   0  0  0  0  0  0  0  0  0  0  0  0
    6.7481    0.0573    2.3762 H   0  0  0  0  0  0  0  0  0  0  0  0
    7.0238    2.3590    1.0318 H   0  0  0  0  0  0  0  0  0  0  0  0
   -0.4630    1.8519    0.2542 H   0  0  0  0  0  0  0  0  0  0  0  0
   -4.2791   -0.2973   -1.1333 H   0  0  0  0  0  0  0  0  0  0  0  0
   -6.4031    0.7281   -0.4323 H   0  0  0  0  0  0  0  0  0  0  0  0
   -6.4348    2.4421    1.3631 H   0  0  0  0  0  0  0  0  0  0  0  0
   -4.3148    3.1131    2.4615 H   0  0  0  0  0  0  0  0  0  0  0  0
   -2.1901    2.0964    1.7924 H   0  0  0  0  0  0  0  0  0  0  0  0
   -1.9424   -3.4347   -1.6377 H   0  0  0  0  0  0  0  0  0  0  0  0
   -0.0335   -4.7330   -2.5176 H   0  0  0  0  0  0  0  0  0  0  0  0
    2.2425   -3.7359   -2.5259 H   0  0  0  0  0  0  0  0  0  0  0  0
    2.5895   -1.4720   -1.6543 H   0  0  0  0  0  0  0  0  0  0  0  0
  1  2  2  0
  2  3  1  0
  3  4  1  0
  4  5  2  0
  5  6  1  0
  6  7  2  0
  7  8  1  0
  2  9  1  0
  9 10  2  0
 10 11  1  0
 11 12  1  0
 12 13  2  0
 13 14  1  0
 14 15  2  0
 15 16  1  0
 16 17  2  0
 11 18  2  0
 18 19  1  0
 19 20  2  0
 20 21  1  0
 21 22  2  0
 22 23  1  0
 23 24  2  0
  8  4  1  0
 24  9  1  0
 17 12  1  0
 24 19  1  0
  3 25  1  0
  6 26  1  0
  7 27  1  0
 10 28  1  0
 13 29  1  0
 14 30  1  0
 15 31  1  0
 16 32  1  0
 17 33  1  0
 20 34  1  0
 21 35  1  0
 22 36  1  0
 23 37  1  0
M  END
$$$$
