
     RDKit          3D

 36 37  0  0  0  0  0  0  0  0999 V2000
    5.6976   -1.1972   -0.5690 C   0  0  0  0  0  0  0  0  0  0  0  0
    4.3368   -0.7939   -0.2636 N   0  0  0  0  0  0  0  0  0  0  0  0
    3.3792   -0.4219   -1.1908 C   0  0  0  0  0  0  0  0  0  0  0  0
    3.6876   -0.3669   -2.8442 S   0  0  0  0  0  0  0  0  0  0  0  0
    2.1447   -0.0808   -0.6108 N   0  0  0  0  0  0  0  0  0  0  0  0
    1.9934    0.1944    0.8285 C   0  0  0  0  0  0  0  0  0  0  0  0
    0.8949    1.2060    1.1527 C   0  0  0  0  0  0  0  0  0  0  0  0
   -0.4062    0.7442    0.5625 C   0  0  0  0  0  0  0  0  0  0  0  0
   -1.6254    0.9426    1.2224 C   0  0  0  0  0  0  0  0  0  0  0  0
   -2.8231    0.5107    0.6421 C   0  0  0  0  0  0  0  0  0  0  0  0
   -4.0609    0.6534    1.2199 O   0  0  0  0  0  0  0  0  0  0  0  0
   -4.1312    1.3062    2.4787 C   0  0  0  0  0  0  0  0  0  0  0  0
   -2.7987   -0.1160   -0.6201 C   0  0  0  0  0  0  0  0  0  0  0  0
   -4.0161   -0.5062   -1.1223 O   0  0  0  0  0  0  0  0  0  0  0  0
   -4.0316   -1.1657   -2.3797 C   0  0  0  0  0  0  0  0  0  0  0  0
   -1.5773   -0.2928   -1.2816 C   0  0  0  0  0  0  0  0  0  0  0  0
   -0.3754    0.1286   -0.6938 C   0  0  0  0  0  0  0  0  0  0  0  0
    0.9292    0.0004   -1.4461 C   0  0  0  0  0  0  0  0  0  0  0  0
    6.1877   -0.4402   -1.1863 H   0  0  0  0  0  0  0  0  0  0  0  0
    5.6798   -2.1571   -1.0921 H   0  0  0  0  0  0  0  0  0  0  0  0
    6.2403   -1.3042    0.3735 H   0  0  0  0  0  0  0  0  0  0  0  0
    3.9650   -1.1993    0.5824 H   0  0  0  0  0  0  0  0  0  0  0  0
    2.9378    0.5689    1.2379 H   0  0  0  0  0  0  0  0  0  0  0  0
    1.7782   -0.7680    1.3103 H   0  0  0  0  0  0  0  0  0  0  0  0
    1.1431    2.1896    0.7365 H   0  0  0  0  0  0  0  0  0  0  0  0
    0.8124    1.3096    2.2405 H   0  0  0  0  0  0  0  0  0  0  0  0
   -1.6145    1.4342    2.1894 H   0  0  0  0  0  0  0  0  0  0  0  0
   -3.7715    2.3381    2.4100 H   0  0  0  0  0  0  0  0  0  0  0  0
   -5.1829    1.3411    2.7792 H   0  0  0  0  0  0  0  0  0  0  0  0
   -3.5858    0.7460    3.2452 H   0  0  0  0  0  0  0  0  0  0  0  0
   -5.0705   -1.4201   -2.6112 H   0  0  0  0  0  0  0  0  0  0  0  0
   -3.4614   -2.0998   -2.3442 H   0  0  0  0  0  0  0  0  0  0  0  0
   -3.6664   -0.5076   -3.1749 H   0  0  0  0  0  0  0  0  0  0  0  0
   -1.5342   -0.7516   -2.2644 H   0  0  0  0  0  0  0  0  0  0  0  0
    0.8944   -0.9002   -2.0707 H   0  0  0  0  0  0  0  0  0  0  0  0
    1.0309    0.8756   -2.0994 H   0  0  0  0  0  0  0  0  0  0  0  0
  1  2  1  0
  2  3  1  0
  3  4  2  0
  3  5  1  0
  5  6  1  0
  6  7  1  0
  7  8  1  0
  8  9  2  0
  9 10  1  0
 10 11  1  0
 11 12  1  0
 10 13  2  0
 13 14  1  0
 14 15  1  0
 13 16  1  0
 16 17  2  0
 17 18  1  0
 18  5  1  0
 17  8  1  0
  1 19  1  0
  1 20  1  0
  1 21  1  0
  2 22  1  0
  6 23  1  0
  6 24  1  0
  7 25  1  0
  7 26  1  0
  9 27  1  0
 12 28  1  0
 12 29  1  0
 12 30  1  0
 15 31  1  0
 15 32  1  0
 15 33  1  0
 16 34  1  0
 18 35  1  0
 18 36  1  0
M  END
$$$$
