
     RDKit          3D

 46 48  0  0  0  0  0  0  0  0999 V2000
   -5.7280    1.7223   -2.7650 C   0  0  0  0  0  0  0  0  0  0  0  0
   -4.7647    0.6735   -2.2945 C   0  0  0  0  0  0  0  0  0  0  0  0
   -4.7318   -0.5879   -2.8950 C   0  0  0  0  0  0  0  0  0  0  0  0
   -3.8157   -1.5421   -2.4639 C   0  0  0  0  0  0  0  0  0  0  0  0
   -2.9278   -1.2386   -1.4304 C   0  0  0  0  0  0  0  0  0  0  0  0
   -2.9497    0.0150   -0.8094 C   0  0  0  0  0  0  0  0  0  0  0  0
   -2.0217    0.2253    0.2330 N   0  0  0  0  0  0  0  0  0  0  0  0
   -1.8995    1.3154    1.0654 C   0  0  0  0  0  0  0  0  0  0  0  0
   -2.6240    2.3045    1.0298 O   0  0  0  0  0  0  0  0  0  0  0  0
   -0.8449    1.2556    2.0596 C   0  0  0  0  0  0  0  0  0  0  0  0
   -0.7388    2.2507    3.0159 N   0  0  0  0  0  0  0  0  0  0  0  0
    0.3364    1.9945    3.8059 C   0  0  0  0  0  0  0  0  0  0  0  0
    0.9509    0.9024    3.4290 N   0  0  0  0  0  0  0  0  0  0  0  0
    0.2165    0.4082    2.3503 C   0  0  0  0  0  0  0  0  0  0  0  0
    0.6394   -0.8082    1.6647 C   0  0  0  0  0  0  0  0  0  0  0  0
   -0.0493   -1.3769    0.8262 O   0  0  0  0  0  0  0  0  0  0  0  0
    1.9120   -1.2050    2.0200 N   0  0  0  0  0  0  0  0  0  0  0  0
    2.7439   -1.9342    1.0810 C   0  0  0  0  0  0  0  0  0  0  0  0
    3.6755   -2.8921    1.8267 C   0  0  0  0  0  0  0  0  0  0  0  0
    3.4606   -0.9338    0.1862 C   0  0  0  0  0  0  0  0  0  0  0  0
    4.7098   -0.3875    0.5103 C   0  0  0  0  0  0  0  0  0  0  0  0
    5.3017    0.5823   -0.3069 C   0  0  0  0  0  0  0  0  0  0  0  0
    4.6495    1.0235   -1.4546 C   0  0  0  0  0  0  0  0  0  0  0  0
    3.4063    0.4965   -1.7891 C   0  0  0  0  0  0  0  0  0  0  0  0
    2.8165   -0.4738   -0.9758 C   0  0  0  0  0  0  0  0  0  0  0  0
   -3.8674    0.9675   -1.2532 C   0  0  0  0  0  0  0  0  0  0  0  0
   -5.1859    2.5409   -3.2476 H   0  0  0  0  0  0  0  0  0  0  0  0
   -6.4432    1.3153   -3.4871 H   0  0  0  0  0  0  0  0  0  0  0  0
   -6.2995    2.1168   -1.9190 H   0  0  0  0  0  0  0  0  0  0  0  0
   -5.4171   -0.8347   -3.7032 H   0  0  0  0  0  0  0  0  0  0  0  0
   -3.7940   -2.5236   -2.9292 H   0  0  0  0  0  0  0  0  0  0  0  0
   -2.2231   -2.0000   -1.1081 H   0  0  0  0  0  0  0  0  0  0  0  0
   -1.3947   -0.5599    0.4073 H   0  0  0  0  0  0  0  0  0  0  0  0
   -1.3556    3.0465    3.0731 H   0  0  0  0  0  0  0  0  0  0  0  0
    0.6211    2.6325    4.6316 H   0  0  0  0  0  0  0  0  0  0  0  0
    2.3781   -0.5369    2.6267 H   0  0  0  0  0  0  0  0  0  0  0  0
    2.1009   -2.5539    0.4428 H   0  0  0  0  0  0  0  0  0  0  0  0
    4.3929   -3.3570    1.1406 H   0  0  0  0  0  0  0  0  0  0  0  0
    4.2358   -2.3899    2.6253 H   0  0  0  0  0  0  0  0  0  0  0  0
    3.0957   -3.6947    2.2993 H   0  0  0  0  0  0  0  0  0  0  0  0
    5.2384   -0.6906    1.4099 H   0  0  0  0  0  0  0  0  0  0  0  0
    6.2696    1.0015   -0.0419 H   0  0  0  0  0  0  0  0  0  0  0  0
    5.1072    1.7875   -2.0821 H   0  0  0  0  0  0  0  0  0  0  0  0
    2.8878    0.8462   -2.6767 H   0  0  0  0  0  0  0  0  0  0  0  0
    1.8321   -0.8611   -1.2433 H   0  0  0  0  0  0  0  0  0  0  0  0
   -3.9020    1.9578   -0.8128 H   0  0  0  0  0  0  0  0  0  0  0  0
  1  2  1  0
  2  3  2  0
  3  4  1  0
  4  5  2  0
  5  6  1  0
  6  7  1  0
  7  8  1  0
  8  9  2  0
  8 10  1  0
 10 11  1  0
 11 12  1  0
 12 13  2  0
 13 14  1  0
 14 15  1  0
 15 16  2  0
 15 17  1  0
 17 18  1  0
 18 19  1  0
 18 20  1  0
 20 21  2  0
 21 22  1  0
 22 23  2  0
 23 24  1  0
 24 25  2  0
  6 26  2  0
 26  2  1  0
 14 10  2  0
 25 20  1  0
  1 27  1  0
  1 28  1  0
  1 29  1  0
  3 30  1  0
  4 31  1  0
  5 32  1  0
  7 33  1  0
 11 34  1  0
 12 35  1  0
 17 36  1  0
 18 37  1  0
 19 38  1  0
 19 39  1  0
 19 40  1  0
 21 41  1  0
 22 42  1  0
 23 43  1  0
 24 44  1  0
 25 45  1  0
 26 46  1  0
M  END
$$$$
