
     RDKit          3D

 55 56  0  0  0  0  0  0  0  0999 V2000
   -5.1298   -0.1364    1.8799 C   0  0  0  0  0  0  0  0  0  0  0  0
   -4.9425    0.3998    0.4569 C   0  0  0  0  0  0  0  0  0  0  0  0
   -3.6006    0.9206    0.2506 N   0  0  0  0  0  0  0  0  0  0  0  0
   -2.4977    0.1047    0.1529 C   0  0  0  0  0  0  0  0  0  0  0  0
   -2.5440   -1.1149    0.2693 O   0  0  0  0  0  0  0  0  0  0  0  0
   -1.2181    0.8719   -0.1052 C   0  0  0  0  0  0  0  0  0  0  0  0
   -0.0191   -0.0662   -0.1396 C   0  0  0  0  0  0  0  0  0  0  0  0
    1.5288    0.8447   -0.4869 S   0  0  0  0  0  0  0  0  0  0  0  0
    1.9045    1.5157    1.1776 C   0  0  0  0  0  0  0  0  0  0  0  0
    2.5165    0.4880    2.1200 C   0  0  0  0  0  0  0  0  0  0  0  0
    3.9691    0.2244    1.7868 C   0  0  0  0  0  0  0  0  0  0  0  0
    4.8798    0.8493    2.3183 O   0  0  0  0  0  0  0  0  0  0  0  0
    4.1523   -0.7537    0.8381 N   0  0  0  0  0  0  0  0  0  0  0  0
    5.4622   -1.0521    0.2801 C   0  0  0  0  0  0  0  0  0  0  0  0
    6.3826   -1.7324    1.2993 C   0  0  0  0  0  0  0  0  0  0  0  0
    5.2906   -1.8988   -0.9705 C   0  0  0  0  0  0  0  0  0  0  0  0
    4.8015   -3.2146   -0.9034 C   0  0  0  0  0  0  0  0  0  0  0  0
    4.6266   -3.9700   -2.0647 C   0  0  0  0  0  0  0  0  0  0  0  0
    4.9315   -3.4194   -3.3081 C   0  0  0  0  0  0  0  0  0  0  0  0
    5.4075   -2.1126   -3.3921 C   0  0  0  0  0  0  0  0  0  0  0  0
    5.5834   -1.3555   -2.2314 C   0  0  0  0  0  0  0  0  0  0  0  0
   -5.9538    1.4758    0.0997 C   0  0  0  0  0  0  0  0  0  0  0  0
   -6.2124    2.5633    0.9515 C   0  0  0  0  0  0  0  0  0  0  0  0
   -7.1277    3.5533    0.5872 C   0  0  0  0  0  0  0  0  0  0  0  0
   -7.7894    3.4760   -0.6363 C   0  0  0  0  0  0  0  0  0  0  0  0
   -7.5341    2.4111   -1.4986 C   0  0  0  0  0  0  0  0  0  0  0  0
   -6.6195    1.4203   -1.1356 C   0  0  0  0  0  0  0  0  0  0  0  0
   -4.8692    0.6124    2.6363 H   0  0  0  0  0  0  0  0  0  0  0  0
   -4.4885   -1.0063    2.0601 H   0  0  0  0  0  0  0  0  0  0  0  0
   -6.1672   -0.4472    2.0511 H   0  0  0  0  0  0  0  0  0  0  0  0
   -5.0687   -0.4495   -0.2263 H   0  0  0  0  0  0  0  0  0  0  0  0
   -3.4992    1.9183    0.1075 H   0  0  0  0  0  0  0  0  0  0  0  0
   -1.1096    1.6215    0.6864 H   0  0  0  0  0  0  0  0  0  0  0  0
   -1.3247    1.3909   -1.0643 H   0  0  0  0  0  0  0  0  0  0  0  0
    0.0763   -0.6289    0.7951 H   0  0  0  0  0  0  0  0  0  0  0  0
   -0.1450   -0.8036   -0.9411 H   0  0  0  0  0  0  0  0  0  0  0  0
    2.5945    2.3566    1.0361 H   0  0  0  0  0  0  0  0  0  0  0  0
    0.9871    1.9257    1.6118 H   0  0  0  0  0  0  0  0  0  0  0  0
    2.4901    0.8733    3.1470 H   0  0  0  0  0  0  0  0  0  0  0  0
    1.9583   -0.4540    2.1341 H   0  0  0  0  0  0  0  0  0  0  0  0
    3.3542   -0.9645    0.2462 H   0  0  0  0  0  0  0  0  0  0  0  0
    5.9203   -0.0927    0.0062 H   0  0  0  0  0  0  0  0  0  0  0  0
    5.9293   -2.6369    1.7205 H   0  0  0  0  0  0  0  0  0  0  0  0
    7.3366   -2.0135    0.8400 H   0  0  0  0  0  0  0  0  0  0  0  0
    6.6042   -1.0659    2.1389 H   0  0  0  0  0  0  0  0  0  0  0  0
    4.5472   -3.6585    0.0572 H   0  0  0  0  0  0  0  0  0  0  0  0
    4.2493   -4.9875   -1.9986 H   0  0  0  0  0  0  0  0  0  0  0  0
    4.7936   -4.0068   -4.2122 H   0  0  0  0  0  0  0  0  0  0  0  0
    5.6392   -1.6802   -4.3631 H   0  0  0  0  0  0  0  0  0  0  0  0
    5.9481   -0.3338   -2.3197 H   0  0  0  0  0  0  0  0  0  0  0  0
   -5.7025    2.6526    1.9079 H   0  0  0  0  0  0  0  0  0  0  0  0
   -7.3239    4.3865    1.2590 H   0  0  0  0  0  0  0  0  0  0  0  0
   -8.5023    4.2465   -0.9189 H   0  0  0  0  0  0  0  0  0  0  0  0
   -8.0467    2.3523   -2.4559 H   0  0  0  0  0  0  0  0  0  0  0  0
   -6.4287    0.6009   -1.8271 H   0  0  0  0  0  0  0  0  0  0  0  0
  1  2  1  0
  2  3  1  0
  3  4  1  0
  4  5  2  0
  4  6  1  0
  6  7  1  0
  7  8  1  0
  8  9  1  0
  9 10  1  0
 10 11  1  0
 11 12  2  0
 11 13  1  0
 13 14  1  0
 14 15  1  0
 14 16  1  0
 16 17  2  0
 17 18  1  0
 18 19  2  0
 19 20  1  0
 20 21  2  0
  2 22  1  0
 22 23  2  0
 23 24  1  0
 24 25  2  0
 25 26  1  0
 26 27  2  0
 21 16  1  0
 27 22  1  0
  1 28  1  0
  1 29  1  0
  1 30  1  0
  2 31  1  0
  3 32  1  0
  6 33  1  0
  6 34  1  0
  7 35  1  0
  7 36  1  0
  9 37  1  0
  9 38  1  0
 10 39  1  0
 10 40  1  0
 13 41  1  0
 14 42  1  0
 15 43  1  0
 15 44  1  0
 15 45  1  0
 17 46  1  0
 18 47  1  0
 19 48  1  0
 20 49  1  0
 21 50  1  0
 23 51  1  0
 24 52  1  0
 25 53  1  0
 26 54  1  0
 27 55  1  0
M  END
$$$$
