
     RDKit          3D

 52 54  0  0  0  0  0  0  0  0999 V2000
   -7.0229    1.7188    0.6015 C   0  0  0  0  0  0  0  0  0  0  0  0
   -6.7333    0.5306    1.5195 C   0  0  0  0  0  0  0  0  0  0  0  0
   -8.0492   -0.0589    2.0328 C   0  0  0  0  0  0  0  0  0  0  0  0
   -5.9093   -0.5632    0.8207 C   0  0  0  0  0  0  0  0  0  0  0  0
   -4.5153   -0.1055    0.3914 C   0  0  0  0  0  0  0  0  0  0  0  0
   -3.8275   -1.2433   -0.1326 O   0  0  0  0  0  0  0  0  0  0  0  0
   -2.5508   -1.0498   -0.5825 C   0  0  0  0  0  0  0  0  0  0  0  0
   -1.9433   -2.1919   -1.1152 C   0  0  0  0  0  0  0  0  0  0  0  0
   -0.6391   -2.1400   -1.6111 C   0  0  0  0  0  0  0  0  0  0  0  0
    0.0708   -0.9395   -1.5573 C   0  0  0  0  0  0  0  0  0  0  0  0
    1.4472   -0.8976   -2.1011 C   0  0  0  0  0  0  0  0  0  0  0  0
    1.6228   -1.2958   -3.2500 O   0  0  0  0  0  0  0  0  0  0  0  0
    2.4721   -0.4144   -1.2953 N   0  0  0  0  0  0  0  0  0  0  0  0
    3.8134   -0.3056   -1.8740 C   0  0  0  0  0  0  0  0  0  0  0  0
    4.7173    0.6994   -1.1376 C   0  0  0  0  0  0  0  0  0  0  0  0
    4.7328    0.4634    0.3088 N   0  0  0  0  0  0  0  0  0  0  0  0
    5.9206    0.6336    0.9880 C   0  0  0  0  0  0  0  0  0  0  0  0
    6.0514    0.0913    2.2116 N   0  0  0  0  0  0  0  0  0  0  0  0
    7.2130    0.2857    2.8645 C   0  0  0  0  0  0  0  0  0  0  0  0
    8.2596    1.0049    2.3509 C   0  0  0  0  0  0  0  0  0  0  0  0
    8.0427    1.5256    1.1028 C   0  0  0  0  0  0  0  0  0  0  0  0
    6.8985    1.3556    0.4139 N   0  0  0  0  0  0  0  0  0  0  0  0
    3.7298   -0.4291    0.8828 C   0  0  0  0  0  0  0  0  0  0  0  0
    2.3786   -0.2552    0.1642 C   0  0  0  0  0  0  0  0  0  0  0  0
   -0.5360    0.2131   -1.0487 C   0  0  0  0  0  0  0  0  0  0  0  0
   -1.8441    0.1548   -0.5553 C   0  0  0  0  0  0  0  0  0  0  0  0
   -7.5286    1.3982   -0.3155 H   0  0  0  0  0  0  0  0  0  0  0  0
   -7.6659    2.4498    1.1038 H   0  0  0  0  0  0  0  0  0  0  0  0
   -6.1020    2.2385    0.3201 H   0  0  0  0  0  0  0  0  0  0  0  0
   -6.1687    0.8964    2.3864 H   0  0  0  0  0  0  0  0  0  0  0  0
   -8.6322    0.6977    2.5685 H   0  0  0  0  0  0  0  0  0  0  0  0
   -8.6627   -0.4393    1.2090 H   0  0  0  0  0  0  0  0  0  0  0  0
   -7.8613   -0.8858    2.7260 H   0  0  0  0  0  0  0  0  0  0  0  0
   -6.4479   -0.9455   -0.0564 H   0  0  0  0  0  0  0  0  0  0  0  0
   -5.7998   -1.4247    1.4930 H   0  0  0  0  0  0  0  0  0  0  0  0
   -3.9771    0.2893    1.2613 H   0  0  0  0  0  0  0  0  0  0  0  0
   -4.5963    0.6628   -0.3852 H   0  0  0  0  0  0  0  0  0  0  0  0
   -2.4955   -3.1282   -1.1516 H   0  0  0  0  0  0  0  0  0  0  0  0
   -0.1818   -3.0291   -2.0384 H   0  0  0  0  0  0  0  0  0  0  0  0
    3.7380   -0.0302   -2.9320 H   0  0  0  0  0  0  0  0  0  0  0  0
    4.2577   -1.3080   -1.8292 H   0  0  0  0  0  0  0  0  0  0  0  0
    4.3457    1.7162   -1.3132 H   0  0  0  0  0  0  0  0  0  0  0  0
    5.7151    0.6290   -1.5871 H   0  0  0  0  0  0  0  0  0  0  0  0
    7.2725   -0.1718    3.8473 H   0  0  0  0  0  0  0  0  0  0  0  0
    9.1841    1.1517    2.8894 H   0  0  0  0  0  0  0  0  0  0  0  0
    8.8019    2.1153    0.5982 H   0  0  0  0  0  0  0  0  0  0  0  0
    4.0643   -1.4702    0.7894 H   0  0  0  0  0  0  0  0  0  0  0  0
    3.5696   -0.2169    1.9469 H   0  0  0  0  0  0  0  0  0  0  0  0
    2.0022    0.7585    0.3449 H   0  0  0  0  0  0  0  0  0  0  0  0
    1.6544   -0.9677    0.5716 H   0  0  0  0  0  0  0  0  0  0  0  0
   -0.0023    1.1600   -1.0493 H   0  0  0  0  0  0  0  0  0  0  0  0
   -2.2834    1.0673   -0.1663 H   0  0  0  0  0  0  0  0  0  0  0  0
  1  2  1  0
  2  3  1  0
  2  4  1  0
  4  5  1  0
  5  6  1  0
  6  7  1  0
  7  8  2  0
  8  9  1  0
  9 10  2  0
 10 11  1  0
 11 12  2  0
 11 13  1  0
 13 14  1  0
 14 15  1  0
 15 16  1  0
 16 17  1  0
 17 18  2  0
 18 19  1  0
 19 20  2  0
 20 21  1  0
 21 22  2  0
 16 23  1  0
 23 24  1  0
 10 25  1  0
 25 26  2  0
 26  7  1  0
 24 13  1  0
 22 17  1  0
  1 27  1  0
  1 28  1  0
  1 29  1  0
  2 30  1  0
  3 31  1  0
  3 32  1  0
  3 33  1  0
  4 34  1  0
  4 35  1  0
  5 36  1  0
  5 37  1  0
  8 38  1  0
  9 39  1  0
 14 40  1  0
 14 41  1  0
 15 42  1  0
 15 43  1  0
 19 44  1  0
 20 45  1  0
 21 46  1  0
 23 47  1  0
 23 48  1  0
 24 49  1  0
 24 50  1  0
 25 51  1  0
 26 52  1  0
M  END
$$$$
