
     RDKit          3D

 43 45  0  0  0  0  0  0  0  0999 V2000
   -5.5056    2.5474   -0.0975 C   0  0  0  0  0  0  0  0  0  0  0  0
   -4.0556    2.9843   -0.1708 C   0  0  0  0  0  0  0  0  0  0  0  0
   -3.2353    1.8118   -0.1094 O   0  0  0  0  0  0  0  0  0  0  0  0
   -1.8956    2.0540   -0.1656 C   0  0  0  0  0  0  0  0  0  0  0  0
   -1.4102    3.1768   -0.2652 O   0  0  0  0  0  0  0  0  0  0  0  0
   -1.0760    0.8361   -0.1152 C   0  0  0  0  0  0  0  0  0  0  0  0
    0.3100    0.8808   -0.2636 C   0  0  0  0  0  0  0  0  0  0  0  0
    1.0701    2.0288   -0.4531 N   0  0  0  0  0  0  0  0  0  0  0  0
    2.4112    2.2678   -0.5994 C   0  0  0  0  0  0  0  0  0  0  0  0
    2.8295    3.8583   -0.9230 S   0  0  0  0  0  0  0  0  0  0  0  0
    3.2829    1.2173   -0.4552 N   0  0  0  0  0  0  0  0  0  0  0  0
    4.6735    1.1556   -0.5622 C   0  0  0  0  0  0  0  0  0  0  0  0
    5.3851    2.0236   -1.0546 O   0  0  0  0  0  0  0  0  0  0  0  0
    5.2200   -0.0970   -0.0722 C   0  0  0  0  0  0  0  0  0  0  0  0
    6.5186   -0.5691   -0.0344 C   0  0  0  0  0  0  0  0  0  0  0  0
    6.4691   -1.8550    0.5545 C   0  0  0  0  0  0  0  0  0  0  0  0
    5.1464   -2.0928    0.8425 C   0  0  0  0  0  0  0  0  0  0  0  0
    4.3795   -1.0364    0.4686 O   0  0  0  0  0  0  0  0  0  0  0  0
    1.0119   -0.6615   -0.2297 S   0  0  0  0  0  0  0  0  0  0  0  0
   -0.4768   -1.4244    0.0112 C   0  0  0  0  0  0  0  0  0  0  0  0
   -1.5277   -0.5298    0.0822 C   0  0  0  0  0  0  0  0  0  0  0  0
   -2.9398   -1.0088    0.2982 C   0  0  0  0  0  0  0  0  0  0  0  0
   -2.9996   -2.4714    0.7670 C   0  0  0  0  0  0  0  0  0  0  0  0
   -2.0383   -3.3645   -0.0246 C   0  0  0  0  0  0  0  0  0  0  0  0
   -0.5835   -2.9119    0.1545 C   0  0  0  0  0  0  0  0  0  0  0  0
   -5.6953    1.9957    0.8292 H   0  0  0  0  0  0  0  0  0  0  0  0
   -6.1761    3.4103   -0.1391 H   0  0  0  0  0  0  0  0  0  0  0  0
   -5.7464    1.8715   -0.9248 H   0  0  0  0  0  0  0  0  0  0  0  0
   -3.8242    3.6427    0.6739 H   0  0  0  0  0  0  0  0  0  0  0  0
   -3.8758    3.5132   -1.1134 H   0  0  0  0  0  0  0  0  0  0  0  0
    0.5176    2.8887   -0.5161 H   0  0  0  0  0  0  0  0  0  0  0  0
    2.8686    0.3689   -0.0927 H   0  0  0  0  0  0  0  0  0  0  0  0
    7.3889   -0.0354   -0.3934 H   0  0  0  0  0  0  0  0  0  0  0  0
    7.2958   -2.5249    0.7464 H   0  0  0  0  0  0  0  0  0  0  0  0
    4.6159   -2.9215    1.2911 H   0  0  0  0  0  0  0  0  0  0  0  0
   -3.4891   -0.9103   -0.6462 H   0  0  0  0  0  0  0  0  0  0  0  0
   -3.4438   -0.3891    1.0477 H   0  0  0  0  0  0  0  0  0  0  0  0
   -4.0256   -2.8439    0.6690 H   0  0  0  0  0  0  0  0  0  0  0  0
   -2.7416   -2.5245    1.8327 H   0  0  0  0  0  0  0  0  0  0  0  0
   -2.3083   -3.3309   -1.0880 H   0  0  0  0  0  0  0  0  0  0  0  0
   -2.1400   -4.4062    0.2996 H   0  0  0  0  0  0  0  0  0  0  0  0
    0.0494   -3.4257   -0.5780 H   0  0  0  0  0  0  0  0  0  0  0  0
   -0.2334   -3.1984    1.1541 H   0  0  0  0  0  0  0  0  0  0  0  0
  1  2  1  0
  2  3  1  0
  3  4  1  0
  4  5  2  0
  4  6  1  0
  6  7  2  0
  7  8  1  0
  8  9  1  0
  9 10  2  0
  9 11  1  0
 11 12  1  0
 12 13  2  0
 12 14  1  0
 14 15  2  0
 15 16  1  0
 16 17  2  0
 17 18  1  0
  7 19  1  0
 19 20  1  0
 20 21  2  0
 21 22  1  0
 22 23  1  0
 23 24  1  0
 24 25  1  0
 21  6  1  0
 18 14  1  0
 25 20  1  0
  1 26  1  0
  1 27  1  0
  1 28  1  0
  2 29  1  0
  2 30  1  0
  8 31  1  0
 11 32  1  0
 15 33  1  0
 16 34  1  0
 17 35  1  0
 22 36  1  0
 22 37  1  0
 23 38  1  0
 23 39  1  0
 24 40  1  0
 24 41  1  0
 25 42  1  0
 25 43  1  0
M  END
$$$$
