
     RDKit          3D

 40 42  0  0  0  0  0  0  0  0999 V2000
    6.9700    0.2174   -2.0520 C   0  0  0  0  0  0  0  0  0  0  0  0
    5.5537    0.1210   -2.1180 O   0  0  0  0  0  0  0  0  0  0  0  0
    4.8606    0.3145   -0.9534 C   0  0  0  0  0  0  0  0  0  0  0  0
    5.4233    0.5796    0.2947 C   0  0  0  0  0  0  0  0  0  0  0  0
    4.5991    0.7521    1.4070 C   0  0  0  0  0  0  0  0  0  0  0  0
    3.2127    0.6612    1.2736 C   0  0  0  0  0  0  0  0  0  0  0  0
    2.6330    0.3998    0.0267 C   0  0  0  0  0  0  0  0  0  0  0  0
    1.2250    0.3171   -0.0216 N   0  0  0  0  0  0  0  0  0  0  0  0
    0.4301    0.1512   -1.1415 C   0  0  0  0  0  0  0  0  0  0  0  0
    0.7969    0.1177   -2.3093 O   0  0  0  0  0  0  0  0  0  0  0  0
   -1.0293    0.0505   -0.8566 C   0  0  0  0  0  0  0  0  0  0  0  0
   -1.9273    0.6378   -1.7562 C   0  0  0  0  0  0  0  0  0  0  0  0
   -3.3019    0.5632   -1.5268 C   0  0  0  0  0  0  0  0  0  0  0  0
   -3.7853   -0.0974   -0.3942 C   0  0  0  0  0  0  0  0  0  0  0  0
   -2.8887   -0.7066    0.5013 C   0  0  0  0  0  0  0  0  0  0  0  0
   -1.5117   -0.6418    0.2628 C   0  0  0  0  0  0  0  0  0  0  0  0
   -3.4599   -1.4784    1.6611 C   0  0  0  0  0  0  0  0  0  0  0  0
   -4.6093   -0.7166    2.3240 C   0  0  0  0  0  0  0  0  0  0  0  0
   -5.5769   -0.0264    1.3506 C   0  0  0  0  0  0  0  0  0  0  0  0
   -5.2611   -0.2412   -0.1304 C   0  0  0  0  0  0  0  0  0  0  0  0
    3.4675    0.2252   -1.0794 C   0  0  0  0  0  0  0  0  0  0  0  0
    7.2839    1.2179   -1.7367 H   0  0  0  0  0  0  0  0  0  0  0  0
    7.3879   -0.5537   -1.3964 H   0  0  0  0  0  0  0  0  0  0  0  0
    7.3641    0.0471   -3.0586 H   0  0  0  0  0  0  0  0  0  0  0  0
    6.4960    0.6563    0.4350 H   0  0  0  0  0  0  0  0  0  0  0  0
    5.0384    0.9580    2.3798 H   0  0  0  0  0  0  0  0  0  0  0  0
    2.5959    0.8006    2.1573 H   0  0  0  0  0  0  0  0  0  0  0  0
    0.7473    0.4652    0.8573 H   0  0  0  0  0  0  0  0  0  0  0  0
   -1.5546    1.1504   -2.6411 H   0  0  0  0  0  0  0  0  0  0  0  0
   -3.9875    1.0166   -2.2388 H   0  0  0  0  0  0  0  0  0  0  0  0
   -0.8273   -1.1583    0.9304 H   0  0  0  0  0  0  0  0  0  0  0  0
   -3.8164   -2.4475    1.2906 H   0  0  0  0  0  0  0  0  0  0  0  0
   -2.6872   -1.6847    2.4109 H   0  0  0  0  0  0  0  0  0  0  0  0
   -4.1872    0.0531    2.9842 H   0  0  0  0  0  0  0  0  0  0  0  0
   -5.1643   -1.3978    2.9802 H   0  0  0  0  0  0  0  0  0  0  0  0
   -5.5571    1.0516    1.5609 H   0  0  0  0  0  0  0  0  0  0  0  0
   -6.6045   -0.3501    1.5552 H   0  0  0  0  0  0  0  0  0  0  0  0
   -5.5749   -1.2454   -0.4411 H   0  0  0  0  0  0  0  0  0  0  0  0
   -5.8355    0.4767   -0.7273 H   0  0  0  0  0  0  0  0  0  0  0  0
    3.0624    0.0118   -2.0640 H   0  0  0  0  0  0  0  0  0  0  0  0
  1  2  1  0
  2  3  1  0
  3  4  2  0
  4  5  1  0
  5  6  2  0
  6  7  1  0
  7  8  1  0
  8  9  1  0
  9 10  2  0
  9 11  1  0
 11 12  2  0
 12 13  1  0
 13 14  2  0
 14 15  1  0
 15 16  2  0
 15 17  1  0
 17 18  1  0
 18 19  1  0
 19 20  1  0
  7 21  2  0
 21  3  1  0
 16 11  1  0
 20 14  1  0
  1 22  1  0
  1 23  1  0
  1 24  1  0
  4 25  1  0
  5 26  1  0
  6 27  1  0
  8 28  1  0
 12 29  1  0
 13 30  1  0
 16 31  1  0
 17 32  1  0
 17 33  1  0
 18 34  1  0
 18 35  1  0
 19 36  1  0
 19 37  1  0
 20 38  1  0
 20 39  1  0
 21 40  1  0
M  END
$$$$
