
     RDKit          3D

 35 37  0  0  0  0  0  0  0  0999 V2000
    0.8998    0.9026   -2.6749 O   0  0  0  0  0  0  0  0  0  0  0  0
    1.7619    0.6144   -1.7071 C   0  0  0  0  0  0  0  0  0  0  0  0
    3.0871    0.8989   -1.8640 N   0  0  0  0  0  0  0  0  0  0  0  0
    3.7929    0.5186   -0.7465 C   0  0  0  0  0  0  0  0  0  0  0  0
    5.1612    0.6175   -0.4679 C   0  0  0  0  0  0  0  0  0  0  0  0
    5.6067    0.1415    0.7682 C   0  0  0  0  0  0  0  0  0  0  0  0
    4.7178   -0.4109    1.6868 C   0  0  0  0  0  0  0  0  0  0  0  0
    3.3520   -0.5026    1.3930 C   0  0  0  0  0  0  0  0  0  0  0  0
    2.8739   -0.0295    0.1523 C   0  0  0  0  0  0  0  0  0  0  0  0
    1.5837    0.0353   -0.4649 C   0  0  0  0  0  0  0  0  0  0  0  0
    0.3153   -0.4063    0.0748 C   0  0  0  0  0  0  0  0  0  0  0  0
   -0.7461   -0.2592   -0.6549 N   0  0  0  0  0  0  0  0  0  0  0  0
   -1.9619   -0.6512   -0.1365 N   0  0  0  0  0  0  0  0  0  0  0  0
   -3.0791   -0.5775   -1.0854 C   0  0  0  0  0  0  0  0  0  0  0  0
   -4.0533    0.5269   -0.6990 C   0  0  0  0  0  0  0  0  0  0  0  0
   -4.6316    0.3065    0.7025 C   0  0  0  0  0  0  0  0  0  0  0  0
   -3.7638   -0.6040    1.5746 C   0  0  0  0  0  0  0  0  0  0  0  0
   -2.2783   -0.4190    1.2804 C   0  0  0  0  0  0  0  0  0  0  0  0
    0.0242    0.6029   -2.3391 H   0  0  0  0  0  0  0  0  0  0  0  0
    3.4794    1.3271   -2.6892 H   0  0  0  0  0  0  0  0  0  0  0  0
    5.8563    1.0470   -1.1821 H   0  0  0  0  0  0  0  0  0  0  0  0
    6.6644    0.2037    1.0145 H   0  0  0  0  0  0  0  0  0  0  0  0
    5.0873   -0.7758    2.6421 H   0  0  0  0  0  0  0  0  0  0  0  0
    2.6739   -0.9375    2.1211 H   0  0  0  0  0  0  0  0  0  0  0  0
    0.3160   -0.8579    1.0789 H   0  0  0  0  0  0  0  0  0  0  0  0
   -3.5785   -1.5531   -1.0757 H   0  0  0  0  0  0  0  0  0  0  0  0
   -2.6894   -0.4187   -2.0973 H   0  0  0  0  0  0  0  0  0  0  0  0
   -3.5297    1.4913   -0.7195 H   0  0  0  0  0  0  0  0  0  0  0  0
   -4.8667    0.5935   -1.4299 H   0  0  0  0  0  0  0  0  0  0  0  0
   -4.7569    1.2807    1.1904 H   0  0  0  0  0  0  0  0  0  0  0  0
   -5.6351   -0.1291    0.6270 H   0  0  0  0  0  0  0  0  0  0  0  0
   -3.9699   -0.4118    2.6334 H   0  0  0  0  0  0  0  0  0  0  0  0
   -4.0406   -1.6491    1.3850 H   0  0  0  0  0  0  0  0  0  0  0  0
   -1.6957   -1.1200    1.8858 H   0  0  0  0  0  0  0  0  0  0  0  0
   -1.9772    0.6049    1.5316 H   0  0  0  0  0  0  0  0  0  0  0  0
  1  2  1  0
  2  3  1  0
  3  4  1  0
  4  5  2  0
  5  6  1  0
  6  7  2  0
  7  8  1  0
  8  9  2  0
  9 10  1  0
 10 11  1  0
 11 12  2  3
 12 13  1  0
 13 14  1  0
 14 15  1  0
 15 16  1  0
 16 17  1  0
 17 18  1  0
 10  2  2  0
 18 13  1  0
  9  4  1  0
  1 19  1  0
  3 20  1  0
  5 21  1  0
  6 22  1  0
  7 23  1  0
  8 24  1  0
 11 25  1  0
 14 26  1  0
 14 27  1  0
 15 28  1  0
 15 29  1  0
 16 30  1  0
 16 31  1  0
 17 32  1  0
 17 33  1  0
 18 34  1  0
 18 35  1  0
M  END
$$$$
