
     RDKit          3D

 35 36  0  0  0  0  0  0  0  0999 V2000
    5.9259   -0.1267   -2.3215 C   0  0  0  0  0  0  0  0  0  0  0  0
    4.5733   -0.2327   -1.6832 C   0  0  0  0  0  0  0  0  0  0  0  0
    4.3489    0.2750   -0.4016 C   0  0  0  0  0  0  0  0  0  0  0  0
    3.0939    0.1425    0.2018 C   0  0  0  0  0  0  0  0  0  0  0  0
    2.0470   -0.5224   -0.4502 C   0  0  0  0  0  0  0  0  0  0  0  0
    0.8083   -0.5833    0.2270 N   0  0  0  0  0  0  0  0  0  0  0  0
   -0.2816   -1.4009    0.0563 C   0  0  0  0  0  0  0  0  0  0  0  0
   -0.3898   -2.8488   -0.7679 S   0  0  0  0  0  0  0  0  0  0  0  0
   -1.4241   -0.9736    0.6761 N   0  0  0  0  0  0  0  0  0  0  0  0
   -1.6703    0.2889    1.3370 C   0  0  0  0  0  0  0  0  0  0  0  0
   -3.1405    0.4751    1.4480 C   0  0  0  0  0  0  0  0  0  0  0  0
   -3.9694    0.2868    2.5406 C   0  0  0  0  0  0  0  0  0  0  0  0
   -5.2897    0.5978    2.1438 C   0  0  0  0  0  0  0  0  0  0  0  0
   -5.2412    0.9666    0.8192 C   0  0  0  0  0  0  0  0  0  0  0  0
   -3.9379    0.8886    0.4012 N   0  0  0  0  0  0  0  0  0  0  0  0
   -3.4915    1.1843   -0.9440 C   0  0  0  0  0  0  0  0  0  0  0  0
    2.2718   -1.0188   -1.7333 C   0  0  0  0  0  0  0  0  0  0  0  0
    3.5273   -0.8868   -2.3400 C   0  0  0  0  0  0  0  0  0  0  0  0
    6.5314   -1.0007   -2.0625 H   0  0  0  0  0  0  0  0  0  0  0  0
    5.8398   -0.0657   -3.4115 H   0  0  0  0  0  0  0  0  0  0  0  0
    6.4466    0.7765   -1.9863 H   0  0  0  0  0  0  0  0  0  0  0  0
    5.1485    0.7774    0.1379 H   0  0  0  0  0  0  0  0  0  0  0  0
    2.9566    0.5530    1.1987 H   0  0  0  0  0  0  0  0  0  0  0  0
    0.7844   -0.0555    1.0878 H   0  0  0  0  0  0  0  0  0  0  0  0
   -2.2081   -1.6136    0.6014 H   0  0  0  0  0  0  0  0  0  0  0  0
   -1.1980    1.1023    0.7772 H   0  0  0  0  0  0  0  0  0  0  0  0
   -1.2038    0.2437    2.3269 H   0  0  0  0  0  0  0  0  0  0  0  0
   -3.6535   -0.0427    3.5225 H   0  0  0  0  0  0  0  0  0  0  0  0
   -6.1811    0.5552    2.7562 H   0  0  0  0  0  0  0  0  0  0  0  0
   -6.0308    1.2729    0.1452 H   0  0  0  0  0  0  0  0  0  0  0  0
   -2.7433    1.9791   -0.8948 H   0  0  0  0  0  0  0  0  0  0  0  0
   -4.3411    1.5177   -1.5454 H   0  0  0  0  0  0  0  0  0  0  0  0
   -3.0684    0.2750   -1.3772 H   0  0  0  0  0  0  0  0  0  0  0  0
    1.4851   -1.4908   -2.3104 H   0  0  0  0  0  0  0  0  0  0  0  0
    3.6750   -1.2954   -3.3376 H   0  0  0  0  0  0  0  0  0  0  0  0
  1  2  1  0
  2  3  2  0
  3  4  1  0
  4  5  2  0
  5  6  1  0
  6  7  1  0
  7  8  2  0
  7  9  1  0
  9 10  1  0
 10 11  1  0
 11 12  2  0
 12 13  1  0
 13 14  2  0
 14 15  1  0
 15 16  1  0
  5 17  1  0
 17 18  2  0
 18  2  1  0
 15 11  1  0
  1 19  1  0
  1 20  1  0
  1 21  1  0
  3 22  1  0
  4 23  1  0
  6 24  1  0
  9 25  1  0
 10 26  1  0
 10 27  1  0
 12 28  1  0
 13 29  1  0
 14 30  1  0
 16 31  1  0
 16 32  1  0
 16 33  1  0
 17 34  1  0
 18 35  1  0
M  END
$$$$
