
     RDKit          3D

 73 76  0  0  0  0  0  0  0  0999 V2000
    6.6051    1.4208    1.9113 C   0  0  0  0  0  0  0  0  0  0  0  0
    5.3959    1.2173    0.9996 C   0  0  0  0  0  0  0  0  0  0  0  0
    4.8508    2.5688    0.5218 C   0  0  0  0  0  0  0  0  0  0  0  0
    3.5438    2.4147   -0.2659 C   0  0  0  0  0  0  0  0  0  0  0  0
    3.7890    1.8443   -1.6668 C   0  0  0  0  0  0  0  0  0  0  0  0
    2.5458    1.5554    0.5278 C   0  0  0  0  0  0  0  0  0  0  0  0
    3.1121    0.2368    0.8710 N   0  0  0  0  0  0  0  0  0  0  0  0
    2.0856   -0.5799    1.5455 C   0  0  0  0  0  0  0  0  0  0  0  0
    2.4390   -2.0702    1.6504 C   0  0  0  0  0  0  0  0  0  0  0  0
    2.8933   -2.7073    0.3348 C   0  0  0  0  0  0  0  0  0  0  0  0
    2.0185   -2.4083   -0.7815 N   0  0  0  0  0  0  0  0  0  0  0  0
    0.7848   -3.0127   -0.9221 C   0  0  0  0  0  0  0  0  0  0  0  0
    0.4009   -3.9212   -0.1908 O   0  0  0  0  0  0  0  0  0  0  0  0
   -0.0418   -2.4386   -2.0816 C   0  0  0  0  0  0  0  0  0  0  0  0
   -1.4474   -2.8612   -2.0303 N   0  0  0  0  0  0  0  0  0  0  0  0
   -1.7980   -3.9296   -2.8604 C   0  0  0  0  0  0  0  0  0  0  0  0
   -0.9943   -4.4567   -3.6362 O   0  0  0  0  0  0  0  0  0  0  0  0
   -3.2522   -4.3332   -2.9185 C   0  0  0  0  0  0  0  0  0  0  0  0
   -3.9483   -4.6014   -1.2887 S   0  0  0  0  0  0  0  0  0  0  0  0
   -3.4604   -3.0441   -0.5801 C   0  0  0  0  0  0  0  0  0  0  0  0
   -4.2508   -2.5617    0.4770 C   0  0  0  0  0  0  0  0  0  0  0  0
   -3.9312   -1.3683    1.1168 C   0  0  0  0  0  0  0  0  0  0  0  0
   -2.8223   -0.6475    0.6852 C   0  0  0  0  0  0  0  0  0  0  0  0
   -2.3964    0.8807    1.4992 S   0  0  0  0  0  6  0  0  0  0  0  0
   -2.8864    0.7970    2.8582 O   0  0  0  0  0  0  0  0  0  0  0  0
   -0.9997    1.1447    1.2199 O   0  0  0  0  0  0  0  0  0  0  0  0
   -3.3216    2.0278    0.6618 N   0  0  0  0  0  0  0  0  0  0  0  0
   -2.9242    2.3790   -0.7216 C   0  0  0  0  0  0  0  0  0  0  0  0
   -4.0747    2.1631   -1.6964 C   0  0  0  0  0  0  0  0  0  0  0  0
   -5.2986    2.9994   -1.3262 C   0  0  0  0  0  0  0  0  0  0  0  0
   -5.4171    3.2307    0.1794 C   0  0  0  0  0  0  0  0  0  0  0  0
   -4.7674    2.1027    0.9726 C   0  0  0  0  0  0  0  0  0  0  0  0
   -2.0016   -1.1406   -0.3399 C   0  0  0  0  0  0  0  0  0  0  0  0
   -2.3084   -2.3451   -0.9975 C   0  0  0  0  0  0  0  0  0  0  0  0
    4.3038    0.4083    1.7213 C   0  0  0  0  0  0  0  0  0  0  0  0
    6.3340    1.9751    2.8165 H   0  0  0  0  0  0  0  0  0  0  0  0
    7.0262    0.4577    2.2193 H   0  0  0  0  0  0  0  0  0  0  0  0
    7.3919    1.9800    1.3938 H   0  0  0  0  0  0  0  0  0  0  0  0
    5.7352    0.6441    0.1274 H   0  0  0  0  0  0  0  0  0  0  0  0
    4.6584    3.2107    1.3919 H   0  0  0  0  0  0  0  0  0  0  0  0
    5.6024    3.0870   -0.0862 H   0  0  0  0  0  0  0  0  0  0  0  0
    3.1070    3.4135   -0.3956 H   0  0  0  0  0  0  0  0  0  0  0  0
    4.4934    2.4728   -2.2214 H   0  0  0  0  0  0  0  0  0  0  0  0
    2.8534    1.8141   -2.2357 H   0  0  0  0  0  0  0  0  0  0  0  0
    4.1938    0.8280   -1.6407 H   0  0  0  0  0  0  0  0  0  0  0  0
    2.2408    2.0913    1.4376 H   0  0  0  0  0  0  0  0  0  0  0  0
    1.6438    1.4264   -0.0845 H   0  0  0  0  0  0  0  0  0  0  0  0
    1.8618   -0.1850    2.5451 H   0  0  0  0  0  0  0  0  0  0  0  0
    1.1489   -0.5175    0.9779 H   0  0  0  0  0  0  0  0  0  0  0  0
    1.5500   -2.5988    2.0167 H   0  0  0  0  0  0  0  0  0  0  0  0
    3.2169   -2.2263    2.4068 H   0  0  0  0  0  0  0  0  0  0  0  0
    3.8926   -2.3533    0.0601 H   0  0  0  0  0  0  0  0  0  0  0  0
    2.9484   -3.7950    0.4559 H   0  0  0  0  0  0  0  0  0  0  0  0
    2.2033   -1.5339   -1.2583 H   0  0  0  0  0  0  0  0  0  0  0  0
    0.0226   -1.3466   -2.1028 H   0  0  0  0  0  0  0  0  0  0  0  0
    0.4320   -2.7812   -3.0088 H   0  0  0  0  0  0  0  0  0  0  0  0
   -3.8132   -3.5599   -3.4548 H   0  0  0  0  0  0  0  0  0  0  0  0
   -3.3374   -5.2667   -3.4839 H   0  0  0  0  0  0  0  0  0  0  0  0
   -5.1171   -3.1272    0.8176 H   0  0  0  0  0  0  0  0  0  0  0  0
   -4.5419   -1.0184    1.9461 H   0  0  0  0  0  0  0  0  0  0  0  0
   -2.6089    3.4289   -0.7303 H   0  0  0  0  0  0  0  0  0  0  0  0
   -2.0633    1.7911   -1.0535 H   0  0  0  0  0  0  0  0  0  0  0  0
   -3.7586    2.4040   -2.7177 H   0  0  0  0  0  0  0  0  0  0  0  0
   -4.3539    1.1017   -1.6976 H   0  0  0  0  0  0  0  0  0  0  0  0
   -5.2575    3.9709   -1.8323 H   0  0  0  0  0  0  0  0  0  0  0  0
   -6.1978    2.4955   -1.7002 H   0  0  0  0  0  0  0  0  0  0  0  0
   -4.9305    4.1806    0.4359 H   0  0  0  0  0  0  0  0  0  0  0  0
   -6.4729    3.3342    0.4557 H   0  0  0  0  0  0  0  0  0  0  0  0
   -4.8982    2.3066    2.0402 H   0  0  0  0  0  0  0  0  0  0  0  0
   -5.2621    1.1557    0.7379 H   0  0  0  0  0  0  0  0  0  0  0  0
   -1.1307   -0.5539   -0.6097 H   0  0  0  0  0  0  0  0  0  0  0  0
    4.7265   -0.5693    1.9761 H   0  0  0  0  0  0  0  0  0  0  0  0
    4.0350    0.8995    2.6656 H   0  0  0  0  0  0  0  0  0  0  0  0
  1  2  1  0
  2  3  1  0
  3  4  1  0
  4  5  1  0
  4  6  1  0
  6  7  1  0
  7  8  1  0
  8  9  1  0
  9 10  1  0
 10 11  1  0
 11 12  1  0
 12 13  2  0
 12 14  1  0
 14 15  1  0
 15 16  1  0
 16 17  2  0
 16 18  1  0
 18 19  1  0
 19 20  1  0
 20 21  2  0
 21 22  1  0
 22 23  2  0
 23 24  1  0
 24 25  2  0
 24 26  2  0
 24 27  1  0
 27 28  1  0
 28 29  1  0
 29 30  1  0
 30 31  1  0
 31 32  1  0
 23 33  1  0
 33 34  2  0
  7 35  1  0
 35  2  1  0
 34 15  1  0
 34 20  1  0
 32 27  1  0
  1 36  1  0
  1 37  1  0
  1 38  1  0
  2 39  1  0
  3 40  1  0
  3 41  1  0
  4 42  1  0
  5 43  1  0
  5 44  1  0
  5 45  1  0
  6 46  1  0
  6 47  1  0
  8 48  1  0
  8 49  1  0
  9 50  1  0
  9 51  1  0
 10 52  1  0
 10 53  1  0
 11 54  1  0
 14 55  1  0
 14 56  1  0
 18 57  1  0
 18 58  1  0
 21 59  1  0
 22 60  1  0
 28 61  1  0
 28 62  1  0
 29 63  1  0
 29 64  1  0
 30 65  1  0
 30 66  1  0
 31 67  1  0
 31 68  1  0
 32 69  1  0
 32 70  1  0
 33 71  1  0
 35 72  1  0
 35 73  1  0
M  END
$$$$
