
     RDKit          3D

 53 56  0  0  0  0  0  0  0  0999 V2000
    7.3420    2.5596    0.5831 C   0  0  0  0  0  0  0  0  0  0  0  0
    6.9501    2.2113   -0.8460 C   0  0  0  0  0  0  0  0  0  0  0  0
    5.8320    1.1723   -0.9056 C   0  0  0  0  0  0  0  0  0  0  0  0
    4.6555    1.7273   -0.3187 O   0  0  0  0  0  0  0  0  0  0  0  0
    3.5470    0.9297   -0.2719 C   0  0  0  0  0  0  0  0  0  0  0  0
    2.4348    1.5094    0.3364 C   0  0  0  0  0  0  0  0  0  0  0  0
    1.2319    0.8020    0.4509 C   0  0  0  0  0  0  0  0  0  0  0  0
    1.1003   -0.5084   -0.0410 C   0  0  0  0  0  0  0  0  0  0  0  0
   -0.1680   -1.2597    0.0755 C   0  0  0  0  0  0  0  0  0  0  0  0
   -1.2393   -0.6123    0.5644 N   0  0  0  0  0  0  0  0  0  0  0  0
   -2.3966   -1.2916    0.6575 C   0  0  0  0  0  0  0  0  0  0  0  0
   -3.5457   -0.6131    1.1199 N   0  0  0  0  0  0  0  0  0  0  0  0
   -4.4814   -0.2625    0.0250 C   0  0  0  0  0  0  0  0  0  0  0  0
   -4.0823    1.0422   -0.7015 C   0  0  0  0  0  0  0  0  0  0  0  0
   -3.9694    2.1839    0.2303 N   0  0  0  0  0  0  0  0  0  0  0  0
   -3.5801    3.3964   -0.4870 C   0  0  0  0  0  0  0  0  0  0  0  0
   -2.9690    1.8536    1.2700 C   0  0  0  0  0  0  0  0  0  0  0  0
   -3.2805    0.5341    2.0170 C   0  0  0  0  0  0  0  0  0  0  0  0
   -2.4810   -2.6553    0.3091 C   0  0  0  0  0  0  0  0  0  0  0  0
   -3.6357   -3.4681    0.4559 C   0  0  0  0  0  0  0  0  0  0  0  0
   -3.6268   -4.8085    0.0776 C   0  0  0  0  0  0  0  0  0  0  0  0
   -2.4646   -5.3575   -0.4436 C   0  0  0  0  0  0  0  0  0  0  0  0
   -1.3212   -4.5641   -0.5702 C   0  0  0  0  0  0  0  0  0  0  0  0
   -1.3071   -3.2255   -0.1947 C   0  0  0  0  0  0  0  0  0  0  0  0
   -0.1692   -2.5416   -0.3249 N   0  0  0  0  0  0  0  0  0  0  0  0
    2.2377   -1.0729   -0.6502 C   0  0  0  0  0  0  0  0  0  0  0  0
    3.4447   -0.3672   -0.7665 C   0  0  0  0  0  0  0  0  0  0  0  0
    8.1620    3.2847    0.5830 H   0  0  0  0  0  0  0  0  0  0  0  0
    6.5032    3.0006    1.1305 H   0  0  0  0  0  0  0  0  0  0  0  0
    7.6765    1.6693    1.1250 H   0  0  0  0  0  0  0  0  0  0  0  0
    6.6259    3.1289   -1.3506 H   0  0  0  0  0  0  0  0  0  0  0  0
    7.8285    1.8297   -1.3781 H   0  0  0  0  0  0  0  0  0  0  0  0
    5.6414    0.9250   -1.9568 H   0  0  0  0  0  0  0  0  0  0  0  0
    6.1414    0.2707   -0.3631 H   0  0  0  0  0  0  0  0  0  0  0  0
    2.5015    2.5213    0.7285 H   0  0  0  0  0  0  0  0  0  0  0  0
    0.3900    1.2892    0.9378 H   0  0  0  0  0  0  0  0  0  0  0  0
   -4.5774   -1.0698   -0.7107 H   0  0  0  0  0  0  0  0  0  0  0  0
   -5.4787   -0.1341    0.4656 H   0  0  0  0  0  0  0  0  0  0  0  0
   -3.1385    0.8886   -1.2414 H   0  0  0  0  0  0  0  0  0  0  0  0
   -4.8535    1.2612   -1.4500 H   0  0  0  0  0  0  0  0  0  0  0  0
   -4.3350    3.6563   -1.2372 H   0  0  0  0  0  0  0  0  0  0  0  0
   -2.6140    3.2901   -0.9935 H   0  0  0  0  0  0  0  0  0  0  0  0
   -3.5159    4.2453    0.2027 H   0  0  0  0  0  0  0  0  0  0  0  0
   -2.9434    2.6609    2.0123 H   0  0  0  0  0  0  0  0  0  0  0  0
   -1.9693    1.8041    0.8249 H   0  0  0  0  0  0  0  0  0  0  0  0
   -2.4795    0.3015    2.7304 H   0  0  0  0  0  0  0  0  0  0  0  0
   -4.1837    0.6873    2.6223 H   0  0  0  0  0  0  0  0  0  0  0  0
   -4.5431   -3.0466    0.8841 H   0  0  0  0  0  0  0  0  0  0  0  0
   -4.5191   -5.4173    0.1964 H   0  0  0  0  0  0  0  0  0  0  0  0
   -2.4368   -6.4020   -0.7427 H   0  0  0  0  0  0  0  0  0  0  0  0
   -0.4101   -5.0072   -0.9670 H   0  0  0  0  0  0  0  0  0  0  0  0
    2.1914   -2.0862   -1.0478 H   0  0  0  0  0  0  0  0  0  0  0  0
    4.2784   -0.8653   -1.2494 H   0  0  0  0  0  0  0  0  0  0  0  0
  1  2  1  0
  2  3  1  0
  3  4  1  0
  4  5  1  0
  5  6  2  0
  6  7  1  0
  7  8  2  0
  8  9  1  0
  9 10  2  0
 10 11  1  0
 11 12  1  0
 12 13  1  0
 13 14  1  0
 14 15  1  0
 15 16  1  0
 15 17  1  0
 17 18  1  0
 11 19  2  0
 19 20  1  0
 20 21  2  0
 21 22  1  0
 22 23  2  0
 23 24  1  0
 24 25  2  0
  8 26  1  0
 26 27  2  0
 27  5  1  0
 25  9  1  0
 18 12  1  0
 24 19  1  0
  1 28  1  0
  1 29  1  0
  1 30  1  0
  2 31  1  0
  2 32  1  0
  3 33  1  0
  3 34  1  0
  6 35  1  0
  7 36  1  0
 13 37  1  0
 13 38  1  0
 14 39  1  0
 14 40  1  0
 16 41  1  0
 16 42  1  0
 16 43  1  0
 17 44  1  0
 17 45  1  0
 18 46  1  0
 18 47  1  0
 20 48  1  0
 21 49  1  0
 22 50  1  0
 23 51  1  0
 26 52  1  0
 27 53  1  0
M  END
$$$$
