
     RDKit          3D

 45 46  0  0  0  0  0  0  0  0999 V2000
    2.1108   -2.8257    1.7808 C   0  0  0  0  0  0  0  0  0  0  0  0
    3.0886   -1.7335    2.1806 C   0  0  0  0  0  0  0  0  0  0  0  0
    2.7810   -0.4612    1.5530 N   0  0  0  0  0  0  0  0  0  0  0  0
    3.2338   -0.2287    0.3063 N   0  0  0  0  0  0  0  0  0  0  0  0
    2.7983    0.9999    0.0308 C   0  0  0  0  0  0  0  0  0  0  0  0
    2.0270    1.5522    1.0754 C   0  0  0  0  0  0  0  0  0  0  0  0
    1.3878    2.8460    1.1609 C   0  0  0  0  0  0  0  0  0  0  0  0
    0.7089    3.4321    0.2211 N   0  0  0  0  0  0  0  0  0  0  0  0
    0.4549    2.7591   -0.9374 N   0  0  0  0  0  0  0  0  0  0  0  0
   -0.3779    3.3122   -1.8988 C   0  0  0  0  0  0  0  0  0  0  0  0
   -0.8299    4.4551   -1.8840 O   0  0  0  0  0  0  0  0  0  0  0  0
   -0.6732    2.3485   -3.0523 C   0  0  0  0  0  0  0  0  0  0  0  0
   -0.3425    0.9856   -2.8121 O   0  0  0  0  0  0  0  0  0  0  0  0
   -1.1883    0.2310   -2.0461 C   0  0  0  0  0  0  0  0  0  0  0  0
   -0.7600   -1.0839   -1.8416 C   0  0  0  0  0  0  0  0  0  0  0  0
   -1.4967   -1.9667   -1.0450 C   0  0  0  0  0  0  0  0  0  0  0  0
   -1.0362   -3.3815   -0.8595 C   0  0  0  0  0  0  0  0  0  0  0  0
   -2.6941   -1.5249   -0.4734 C   0  0  0  0  0  0  0  0  0  0  0  0
   -3.1439   -0.2147   -0.6786 C   0  0  0  0  0  0  0  0  0  0  0  0
   -4.4086    0.2593   -0.0246 C   0  0  0  0  0  0  0  0  0  0  0  0
   -2.3744    0.6652   -1.4550 C   0  0  0  0  0  0  0  0  0  0  0  0
    2.0558    0.5859    2.0705 C   0  0  0  0  0  0  0  0  0  0  0  0
    1.4465    0.5615    3.4253 C   0  0  0  0  0  0  0  0  0  0  0  0
    2.1221   -2.9839    0.6984 H   0  0  0  0  0  0  0  0  0  0  0  0
    2.3754   -3.7700    2.2677 H   0  0  0  0  0  0  0  0  0  0  0  0
    1.0871   -2.5656    2.0694 H   0  0  0  0  0  0  0  0  0  0  0  0
    3.0845   -1.5913    3.2652 H   0  0  0  0  0  0  0  0  0  0  0  0
    4.1090   -2.0048    1.8916 H   0  0  0  0  0  0  0  0  0  0  0  0
    3.0663    1.4472   -0.9179 H   0  0  0  0  0  0  0  0  0  0  0  0
    1.4807    3.3753    2.1241 H   0  0  0  0  0  0  0  0  0  0  0  0
    0.6131    1.7552   -0.9788 H   0  0  0  0  0  0  0  0  0  0  0  0
   -0.0452    2.6763   -3.8896 H   0  0  0  0  0  0  0  0  0  0  0  0
   -1.7135    2.4578   -3.3791 H   0  0  0  0  0  0  0  0  0  0  0  0
    0.1669   -1.4167   -2.3045 H   0  0  0  0  0  0  0  0  0  0  0  0
   -1.3945   -4.0027   -1.6865 H   0  0  0  0  0  0  0  0  0  0  0  0
   -1.4115   -3.7959    0.0808 H   0  0  0  0  0  0  0  0  0  0  0  0
    0.0567   -3.4338   -0.8248 H   0  0  0  0  0  0  0  0  0  0  0  0
   -3.2848   -2.2062    0.1358 H   0  0  0  0  0  0  0  0  0  0  0  0
   -4.1978    0.6053    0.9931 H   0  0  0  0  0  0  0  0  0  0  0  0
   -5.1459   -0.5475    0.0207 H   0  0  0  0  0  0  0  0  0  0  0  0
   -4.8596    1.0805   -0.5898 H   0  0  0  0  0  0  0  0  0  0  0  0
   -2.7312    1.6837   -1.5760 H   0  0  0  0  0  0  0  0  0  0  0  0
    0.8858   -0.3654    3.5860 H   0  0  0  0  0  0  0  0  0  0  0  0
    0.7476    1.3916    3.5655 H   0  0  0  0  0  0  0  0  0  0  0  0
    2.2212    0.6381    4.1942 H   0  0  0  0  0  0  0  0  0  0  0  0
  1  2  1  0
  2  3  1  0
  3  4  1  0
  4  5  2  0
  5  6  1  0
  6  7  1  0
  7  8  2  3
  8  9  1  0
  9 10  1  0
 10 11  2  0
 10 12  1  0
 12 13  1  0
 13 14  1  0
 14 15  2  0
 15 16  1  0
 16 17  1  0
 16 18  2  0
 18 19  1  0
 19 20  1  0
 19 21  2  0
  6 22  2  0
 22 23  1  0
 22  3  1  0
 21 14  1  0
  1 24  1  0
  1 25  1  0
  1 26  1  0
  2 27  1  0
  2 28  1  0
  5 29  1  0
  7 30  1  0
  9 31  1  0
 12 32  1  0
 12 33  1  0
 15 34  1  0
 17 35  1  0
 17 36  1  0
 17 37  1  0
 18 38  1  0
 20 39  1  0
 20 40  1  0
 20 41  1  0
 21 42  1  0
 23 43  1  0
 23 44  1  0
 23 45  1  0
M  END
$$$$
