
     RDKit          3D

 62 66  0  0  0  0  0  0  0  0999 V2000
   -8.9425   -1.2844   -3.7747 C   0  0  0  0  0  0  0  0  0  0  0  0
   -8.3253   -0.8449   -2.4704 C   0  0  0  0  0  0  0  0  0  0  0  0
   -9.1158   -0.4432   -1.4581 C   0  0  0  0  0  0  0  0  0  0  0  0
   -8.5641   -0.0027   -0.1718 C   0  0  0  0  0  0  0  0  0  0  0  0
   -9.4335    0.4140    0.8451 C   0  0  0  0  0  0  0  0  0  0  0  0
   -8.9269    0.8352    2.0725 C   0  0  0  0  0  0  0  0  0  0  0  0
   -7.5511    0.8395    2.2874 C   0  0  0  0  0  0  0  0  0  0  0  0
   -6.6720    0.4259    1.2797 C   0  0  0  0  0  0  0  0  0  0  0  0
   -7.1715    0.0034    0.0448 C   0  0  0  0  0  0  0  0  0  0  0  0
   -6.3663   -0.4347   -1.0452 N   0  0  0  0  0  0  0  0  0  0  0  0
   -5.0032   -0.5878   -1.2377 C   0  0  0  0  0  0  0  0  0  0  0  0
   -3.7339   -0.2546   -0.1091 S   0  0  0  0  0  0  0  0  0  0  0  0
   -2.3920   -1.2462   -0.8230 C   0  0  0  0  0  0  0  0  0  0  0  0
   -1.1480   -1.0837    0.0353 C   0  0  0  0  0  0  0  0  0  0  0  0
   -1.0050   -1.7340    1.0670 O   0  0  0  0  0  0  0  0  0  0  0  0
   -0.2565   -0.1511   -0.4764 N   0  0  0  0  0  0  0  0  0  0  0  0
    0.9794    0.2467    0.0737 C   0  0  0  0  0  0  0  0  0  0  0  0
    1.4702   -0.2035    1.3030 C   0  0  0  0  0  0  0  0  0  0  0  0
    2.7105    0.2358    1.7773 C   0  0  0  0  0  0  0  0  0  0  0  0
    3.4676    1.1242    1.0118 C   0  0  0  0  0  0  0  0  0  0  0  0
    5.0577    1.6455    1.6074 S   0  0  0  0  0  6  0  0  0  0  0  0
    5.7139    2.3855    0.5493 O   0  0  0  0  0  0  0  0  0  0  0  0
    4.8411    2.2365    2.9103 O   0  0  0  0  0  0  0  0  0  0  0  0
    5.8881    0.1729    1.8111 N   0  0  0  0  0  0  0  0  0  0  0  0
    6.1096   -0.6782    0.6158 C   0  0  0  0  0  0  0  0  0  0  0  0
    7.3653   -0.2812   -0.1500 C   0  0  0  0  0  0  0  0  0  0  0  0
    8.5966   -0.2271    0.7610 C   0  0  0  0  0  0  0  0  0  0  0  0
    9.8214    0.2630   -0.0082 C   0  0  0  0  0  0  0  0  0  0  0  0
    8.3171    0.6682    1.9725 C   0  0  0  0  0  0  0  0  0  0  0  0
    7.0655    0.2121    2.7128 C   0  0  0  0  0  0  0  0  0  0  0  0
    2.9898    1.5912   -0.2122 C   0  0  0  0  0  0  0  0  0  0  0  0
    1.7464    1.1523   -0.6751 C   0  0  0  0  0  0  0  0  0  0  0  0
   -4.7606   -1.0319   -2.4515 N   0  0  0  0  0  0  0  0  0  0  0  0
   -5.9525   -1.1920   -3.0929 N   0  0  0  0  0  0  0  0  0  0  0  0
   -6.9126   -0.8425   -2.2628 C   0  0  0  0  0  0  0  0  0  0  0  0
  -10.0386   -1.2621   -3.7478 H   0  0  0  0  0  0  0  0  0  0  0  0
   -8.6139   -0.6264   -4.5878 H   0  0  0  0  0  0  0  0  0  0  0  0
   -8.6361   -2.3091   -4.0117 H   0  0  0  0  0  0  0  0  0  0  0  0
  -10.1962   -0.4322   -1.5671 H   0  0  0  0  0  0  0  0  0  0  0  0
  -10.5101    0.4137    0.6925 H   0  0  0  0  0  0  0  0  0  0  0  0
   -9.6029    1.1597    2.8612 H   0  0  0  0  0  0  0  0  0  0  0  0
   -7.1546    1.1657    3.2472 H   0  0  0  0  0  0  0  0  0  0  0  0
   -5.6174    0.4573    1.5208 H   0  0  0  0  0  0  0  0  0  0  0  0
   -2.6610   -2.3078   -0.8421 H   0  0  0  0  0  0  0  0  0  0  0  0
   -2.1857   -0.9325   -1.8519 H   0  0  0  0  0  0  0  0  0  0  0  0
   -0.5106    0.2907   -1.3518 H   0  0  0  0  0  0  0  0  0  0  0  0
    0.9070   -0.8916    1.9265 H   0  0  0  0  0  0  0  0  0  0  0  0
    3.0789   -0.1187    2.7380 H   0  0  0  0  0  0  0  0  0  0  0  0
    5.2442   -0.6518   -0.0514 H   0  0  0  0  0  0  0  0  0  0  0  0
    6.1920   -1.7174    0.9545 H   0  0  0  0  0  0  0  0  0  0  0  0
    7.2185    0.6915   -0.6305 H   0  0  0  0  0  0  0  0  0  0  0  0
    7.5331   -1.0025   -0.9578 H   0  0  0  0  0  0  0  0  0  0  0  0
    8.8062   -1.2430    1.1202 H   0  0  0  0  0  0  0  0  0  0  0  0
   10.7057    0.2789    0.6384 H   0  0  0  0  0  0  0  0  0  0  0  0
   10.0377   -0.3981   -0.8542 H   0  0  0  0  0  0  0  0  0  0  0  0
    9.6700    1.2745   -0.3997 H   0  0  0  0  0  0  0  0  0  0  0  0
    8.2012    1.7100    1.6504 H   0  0  0  0  0  0  0  0  0  0  0  0
    9.1723    0.6417    2.6579 H   0  0  0  0  0  0  0  0  0  0  0  0
    6.8755    0.8602    3.5745 H   0  0  0  0  0  0  0  0  0  0  0  0
    7.2141   -0.7947    3.1230 H   0  0  0  0  0  0  0  0  0  0  0  0
    3.5728    2.2906   -0.8077 H   0  0  0  0  0  0  0  0  0  0  0  0
    1.3911    1.5251   -1.6324 H   0  0  0  0  0  0  0  0  0  0  0  0
  1  2  1  0
  2  3  2  0
  3  4  1  0
  4  5  2  0
  5  6  1  0
  6  7  2  0
  7  8  1  0
  8  9  2  0
  9 10  1  0
 10 11  1  0
 11 12  1  0
 12 13  1  0
 13 14  1  0
 14 15  2  0
 14 16  1  0
 16 17  1  0
 17 18  2  0
 18 19  1  0
 19 20  2  0
 20 21  1  0
 21 22  2  0
 21 23  2  0
 21 24  1  0
 24 25  1  0
 25 26  1  0
 26 27  1  0
 27 28  1  0
 27 29  1  0
 29 30  1  0
 20 31  1  0
 31 32  2  0
 11 33  2  0
 33 34  1  0
 34 35  2  0
 35  2  1  0
  9  4  1  0
 35 10  1  0
 32 17  1  0
 30 24  1  0
  1 36  1  0
  1 37  1  0
  1 38  1  0
  3 39  1  0
  5 40  1  0
  6 41  1  0
  7 42  1  0
  8 43  1  0
 13 44  1  0
 13 45  1  0
 16 46  1  0
 18 47  1  0
 19 48  1  0
 25 49  1  0
 25 50  1  0
 26 51  1  0
 26 52  1  0
 27 53  1  0
 28 54  1  0
 28 55  1  0
 28 56  1  0
 29 57  1  0
 29 58  1  0
 30 59  1  0
 30 60  1  0
 31 61  1  0
 32 62  1  0
M  END
$$$$
