
     RDKit          3D

 46 49  0  0  0  0  0  0  0  0999 V2000
    0.2614    0.9109    2.1775 O   0  0  0  0  0  0  0  0  0  0  0  0
    0.6236    0.8224    1.0100 C   0  0  0  0  0  0  0  0  0  0  0  0
    2.0908    0.8175    0.6192 C   0  0  0  0  0  0  0  0  0  0  0  0
    2.5788   -0.8787    0.1644 S   0  0  0  0  0  0  0  0  0  0  0  0
    4.3128   -0.6283   -0.1912 C   0  0  0  0  0  0  0  0  0  0  0  0
    4.6753    0.6556   -0.4667 N   0  0  0  0  0  0  0  0  0  0  0  0
    5.9837    0.9134   -0.6969 C   0  0  0  0  0  0  0  0  0  0  0  0
    6.9740   -0.0510   -0.6660 C   0  0  0  0  0  0  0  0  0  0  0  0
    6.5993   -1.3623   -0.3910 C   0  0  0  0  0  0  0  0  0  0  0  0
    5.2490   -1.6618   -0.1687 C   0  0  0  0  0  0  0  0  0  0  0  0
    4.9125   -3.0574    0.1307 C   0  0  0  0  0  0  0  0  0  0  0  0
    5.4331   -3.7372    0.9964 O   0  0  0  0  0  0  0  0  0  0  0  0
    4.0338   -3.5625   -0.7509 O   0  0  0  0  0  0  0  0  0  0  0  0
   -0.2358    0.7390   -0.0717 N   0  0  0  0  0  0  0  0  0  0  0  0
   -1.6939    0.6140    0.0281 C   0  0  0  0  0  0  0  0  0  0  0  0
   -2.0989   -0.7337    0.6738 C   0  0  0  0  0  0  0  0  0  0  0  0
   -3.6310   -0.8789    0.7058 C   0  0  0  0  0  0  0  0  0  0  0  0
   -4.2334    0.2820    1.5166 C   0  0  0  0  0  0  0  0  0  0  0  0
   -3.8674    1.6287    0.8671 C   0  0  0  0  0  0  0  0  0  0  0  0
   -4.4128    1.6654   -0.5689 C   0  0  0  0  0  0  0  0  0  0  0  0
   -3.8099    0.5132   -1.3874 C   0  0  0  0  0  0  0  0  0  0  0  0
   -4.1777   -0.8280   -0.7308 C   0  0  0  0  0  0  0  0  0  0  0  0
   -2.2805    0.6588   -1.4099 C   0  0  0  0  0  0  0  0  0  0  0  0
   -2.3351    1.7744    0.8334 C   0  0  0  0  0  0  0  0  0  0  0  0
    2.2292    1.5044   -0.2235 H   0  0  0  0  0  0  0  0  0  0  0  0
    2.6838    1.1770    1.4683 H   0  0  0  0  0  0  0  0  0  0  0  0
    6.2206    1.9536   -0.9085 H   0  0  0  0  0  0  0  0  0  0  0  0
    8.0111    0.2114   -0.8458 H   0  0  0  0  0  0  0  0  0  0  0  0
    7.3506   -2.1483   -0.3505 H   0  0  0  0  0  0  0  0  0  0  0  0
    3.9017   -4.4894   -0.4600 H   0  0  0  0  0  0  0  0  0  0  0  0
    0.1870    0.3761   -0.9178 H   0  0  0  0  0  0  0  0  0  0  0  0
   -1.6566   -1.5687    0.1140 H   0  0  0  0  0  0  0  0  0  0  0  0
   -1.7062   -0.8071    1.6954 H   0  0  0  0  0  0  0  0  0  0  0  0
   -3.9015   -1.8341    1.1704 H   0  0  0  0  0  0  0  0  0  0  0  0
   -5.3241    0.1756    1.5669 H   0  0  0  0  0  0  0  0  0  0  0  0
   -3.8624    0.2499    2.5494 H   0  0  0  0  0  0  0  0  0  0  0  0
   -4.3024    2.4493    1.4489 H   0  0  0  0  0  0  0  0  0  0  0  0
   -4.1685    2.6278   -1.0361 H   0  0  0  0  0  0  0  0  0  0  0  0
   -5.5068    1.5845   -0.5574 H   0  0  0  0  0  0  0  0  0  0  0  0
   -4.1999    0.5423   -2.4111 H   0  0  0  0  0  0  0  0  0  0  0  0
   -3.7663   -1.6592   -1.3185 H   0  0  0  0  0  0  0  0  0  0  0  0
   -5.2675   -0.9537   -0.7217 H   0  0  0  0  0  0  0  0  0  0  0  0
   -2.0040    1.6027   -1.9004 H   0  0  0  0  0  0  0  0  0  0  0  0
   -1.8447   -0.1430   -2.0229 H   0  0  0  0  0  0  0  0  0  0  0  0
   -2.0583    2.7412    0.3909 H   0  0  0  0  0  0  0  0  0  0  0  0
   -1.9664    1.7923    1.8653 H   0  0  0  0  0  0  0  0  0  0  0  0
  1  2  2  0
  2  3  1  0
  3  4  1  0
  4  5  1  0
  5  6  2  0
  6  7  1  0
  7  8  2  0
  8  9  1  0
  9 10  2  0
 10 11  1  0
 11 12  2  0
 11 13  1  0
  2 14  1  0
 14 15  1  0
 15 16  1  0
 16 17  1  0
 17 18  1  0
 18 19  1  0
 19 20  1  0
 20 21  1  0
 21 22  1  0
 21 23  1  0
 19 24  1  0
 10  5  1  0
 23 15  1  0
 24 15  1  0
 22 17  1  0
  3 25  1  0
  3 26  1  0
  7 27  1  0
  8 28  1  0
  9 29  1  0
 13 30  1  0
 14 31  1  0
 16 32  1  0
 16 33  1  0
 17 34  1  0
 18 35  1  0
 18 36  1  0
 19 37  1  0
 20 38  1  0
 20 39  1  0
 21 40  1  0
 22 41  1  0
 22 42  1  0
 23 43  1  0
 23 44  1  0
 24 45  1  0
 24 46  1  0
M  END
$$$$
