
     RDKit          3D

 39 41  0  0  0  0  0  0  0  0999 V2000
    6.4184    2.0859    0.0614 C   0  0  0  0  0  0  0  0  0  0  0  0
    5.1509    1.4654   -0.4606 C   0  0  0  0  0  0  0  0  0  0  0  0
    4.9478    0.0855   -0.3060 C   0  0  0  0  0  0  0  0  0  0  0  0
    3.7868   -0.5225   -0.7857 C   0  0  0  0  0  0  0  0  0  0  0  0
    2.8053    0.2373   -1.4186 C   0  0  0  0  0  0  0  0  0  0  0  0
    1.6325   -0.3696   -1.8845 N   0  0  0  0  0  0  0  0  0  0  0  0
    0.6102   -0.4274   -1.1024 C   0  0  0  0  0  0  0  0  0  0  0  0
    0.5127    0.0409    0.1680 N   0  0  0  0  0  0  0  0  0  0  0  0
   -0.6742   -0.1261    0.8220 C   0  0  0  0  0  0  0  0  0  0  0  0
   -0.8732    0.2559    1.9642 O   0  0  0  0  0  0  0  0  0  0  0  0
   -1.6506   -0.8281   -0.0634 C   0  0  0  0  0  0  0  0  0  0  0  0
   -2.9190   -1.1798    0.1987 C   0  0  0  0  0  0  0  0  0  0  0  0
   -3.6499   -0.9545    1.4303 C   0  0  0  0  0  0  0  0  0  0  0  0
   -4.9149   -1.2841    1.7402 C   0  0  0  0  0  0  0  0  0  0  0  0
   -5.8602   -1.9494    0.9079 C   0  0  0  0  0  0  0  0  0  0  0  0
   -7.1704   -2.2978    1.2287 C   0  0  0  0  0  0  0  0  0  0  0  0
   -7.7462   -2.9412    0.1081 C   0  0  0  0  0  0  0  0  0  0  0  0
   -6.7676   -2.9600   -0.8501 C   0  0  0  0  0  0  0  0  0  0  0  0
   -5.6409   -2.3720   -0.3844 O   0  0  0  0  0  0  0  0  0  0  0  0
   -0.8917   -1.1615   -1.5923 S   0  0  0  0  0  0  0  0  0  0  0  0
    3.0109    1.6073   -1.5980 C   0  0  0  0  0  0  0  0  0  0  0  0
    4.1737    2.2360   -1.1221 C   0  0  0  0  0  0  0  0  0  0  0  0
    4.3509    3.7142   -1.3364 C   0  0  0  0  0  0  0  0  0  0  0  0
    6.1873    2.8877    0.7697 H   0  0  0  0  0  0  0  0  0  0  0  0
    7.0121    2.4877   -0.7657 H   0  0  0  0  0  0  0  0  0  0  0  0
    7.0371    1.3523    0.5891 H   0  0  0  0  0  0  0  0  0  0  0  0
    5.6990   -0.5304    0.1843 H   0  0  0  0  0  0  0  0  0  0  0  0
    3.6497   -1.5942   -0.6695 H   0  0  0  0  0  0  0  0  0  0  0  0
    1.2801    0.5005    0.6311 H   0  0  0  0  0  0  0  0  0  0  0  0
   -3.4624   -1.6891   -0.5929 H   0  0  0  0  0  0  0  0  0  0  0  0
   -3.0996   -0.4459    2.2217 H   0  0  0  0  0  0  0  0  0  0  0  0
   -5.2635   -1.0164    2.7360 H   0  0  0  0  0  0  0  0  0  0  0  0
   -7.6524   -2.1033    2.1773 H   0  0  0  0  0  0  0  0  0  0  0  0
   -8.7462   -3.3394    0.0131 H   0  0  0  0  0  0  0  0  0  0  0  0
   -6.7154   -3.3345   -1.8628 H   0  0  0  0  0  0  0  0  0  0  0  0
    2.2524    2.1849   -2.1220 H   0  0  0  0  0  0  0  0  0  0  0  0
    3.5050    4.1459   -1.8818 H   0  0  0  0  0  0  0  0  0  0  0  0
    5.2541    3.9081   -1.9235 H   0  0  0  0  0  0  0  0  0  0  0  0
    4.4214    4.2317   -0.3745 H   0  0  0  0  0  0  0  0  0  0  0  0
  1  2  1  0
  2  3  2  0
  3  4  1  0
  4  5  2  0
  5  6  1  0
  6  7  2  3
  7  8  1  0
  8  9  1  0
  9 10  2  0
  9 11  1  0
 11 12  2  3
 12 13  1  0
 13 14  2  3
 14 15  1  0
 15 16  2  0
 16 17  1  0
 17 18  2  0
 18 19  1  0
 11 20  1  0
  5 21  1  0
 21 22  2  0
 22 23  1  0
 22  2  1  0
 20  7  1  0
 19 15  1  0
  1 24  1  0
  1 25  1  0
  1 26  1  0
  3 27  1  0
  4 28  1  0
  8 29  1  0
 12 30  1  0
 13 31  1  0
 14 32  1  0
 16 33  1  0
 17 34  1  0
 18 35  1  0
 21 36  1  0
 23 37  1  0
 23 38  1  0
 23 39  1  0
M  END
$$$$
