
     RDKit          3D

 28 30  0  0  0  0  0  0  0  0999 V2000
    1.1561    3.9610   -0.5496 S   0  0  0  0  0  0  0  0  0  0  0  0
   -0.1794    3.0461   -0.1812 C   0  0  0  0  0  0  0  0  0  0  0  0
   -1.4679    3.5767   -0.1481 N   0  0  0  0  0  0  0  0  0  0  0  0
   -2.3951    2.5814   -0.0149 N   0  0  0  0  0  0  0  0  0  0  0  0
   -1.6905    1.4871    0.1136 C   0  0  0  0  0  0  0  0  0  0  0  0
   -2.3057    0.1571    0.2589 C   0  0  0  0  0  0  0  0  0  0  0  0
   -1.7154   -0.8993    0.9539 C   0  0  0  0  0  0  0  0  0  0  0  0
   -2.3875   -2.1171    1.0531 C   0  0  0  0  0  0  0  0  0  0  0  0
   -3.6350   -2.2333    0.4612 C   0  0  0  0  0  0  0  0  0  0  0  0
   -4.2435   -1.2288   -0.2039 N   0  0  0  0  0  0  0  0  0  0  0  0
   -3.5681   -0.0543   -0.2839 C   0  0  0  0  0  0  0  0  0  0  0  0
   -0.3319    1.6929    0.0950 N   0  0  0  0  0  0  0  0  0  0  0  0
    0.5778    0.6961   -0.1267 N   0  0  0  0  0  0  0  0  0  0  0  0
    1.7439    0.8342    0.4213 C   0  0  0  0  0  0  0  0  0  0  0  0
    2.7658   -0.1593    0.2023 C   0  0  0  0  0  0  0  0  0  0  0  0
    2.7242   -1.2942   -0.5863 C   0  0  0  0  0  0  0  0  0  0  0  0
    3.9471   -2.0293   -0.5397 C   0  0  0  0  0  0  0  0  0  0  0  0
    4.8594   -1.4182    0.2824 C   0  0  0  0  0  0  0  0  0  0  0  0
    6.6149   -2.1014    0.6027 Br  0  0  0  0  0  0  0  0  0  0  0  0
    4.2769    0.0068    0.9893 S   0  0  0  0  0  0  0  0  0  0  0  0
   -1.7324    4.5234   -0.3953 H   0  0  0  0  0  0  0  0  0  0  0  0
   -0.7488   -0.7904    1.4341 H   0  0  0  0  0  0  0  0  0  0  0  0
   -1.9498   -2.9547    1.5853 H   0  0  0  0  0  0  0  0  0  0  0  0
   -4.1961   -3.1624    0.5123 H   0  0  0  0  0  0  0  0  0  0  0  0
   -4.0931    0.7321   -0.8210 H   0  0  0  0  0  0  0  0  0  0  0  0
    1.9818    1.6764    1.0956 H   0  0  0  0  0  0  0  0  0  0  0  0
    1.8582   -1.5811   -1.1726 H   0  0  0  0  0  0  0  0  0  0  0  0
    4.1340   -2.9476   -1.0828 H   0  0  0  0  0  0  0  0  0  0  0  0
  1  2  2  0
  2  3  1  0
  3  4  1  0
  4  5  2  0
  5  6  1  0
  6  7  2  0
  7  8  1  0
  8  9  2  0
  9 10  1  0
 10 11  2  0
  5 12  1  0
 12 13  1  0
 13 14  2  3
 14 15  1  0
 15 16  2  0
 16 17  1  0
 17 18  2  0
 18 19  1  0
 18 20  1  0
 12  2  1  0
 20 15  1  0
 11  6  1  0
  3 21  1  0
  7 22  1  0
  8 23  1  0
  9 24  1  0
 11 25  1  0
 14 26  1  0
 16 27  1  0
 17 28  1  0
M  END
$$$$
