
     RDKit          3D

 75 77  0  0  0  0  0  0  0  0999 V2000
   -3.5950    5.6245    3.7526 C   0  0  0  0  0  0  0  0  0  0  0  0
   -3.0348    4.3867    3.0754 C   0  0  0  0  0  0  0  0  0  0  0  0
   -4.1342    3.5772    2.6594 O   0  0  0  0  0  0  0  0  0  0  0  0
   -3.8383    2.3957    2.0335 C   0  0  0  0  0  0  0  0  0  0  0  0
   -4.9480    1.6395    1.6767 C   0  0  0  0  0  0  0  0  0  0  0  0
   -4.7762    0.4362    1.0072 C   0  0  0  0  0  0  0  0  0  0  0  0
   -3.4894   -0.0246    0.7046 C   0  0  0  0  0  0  0  0  0  0  0  0
   -2.3384    0.6868    1.0753 C   0  0  0  0  0  0  0  0  0  0  0  0
   -0.9914    0.2178    0.7571 N   0  0  0  0  0  0  0  0  0  0  0  0
    0.1357    0.8405    1.3292 C   0  0  0  0  0  0  0  0  0  0  0  0
    0.1249    1.4610    2.3956 O   0  0  0  0  0  0  0  0  0  0  0  0
    1.4593    0.7032    0.5874 C   0  0  0  0  0  0  0  0  0  0  0  0
    2.4739    1.7454    1.0535 C   0  0  0  0  0  0  0  0  0  0  0  0
    3.7903    1.6062    0.3161 C   0  0  0  0  0  0  0  0  0  0  0  0
    3.9740    0.7417   -0.5349 O   0  0  0  0  0  0  0  0  0  0  0  0
    4.7075    2.5463    0.7259 N   0  0  0  0  0  0  0  0  0  0  0  0
    5.9913    2.6714    0.2430 C   0  0  0  0  0  0  0  0  0  0  0  0
    6.6613    1.9115   -0.7408 C   0  0  0  0  0  0  0  0  0  0  0  0
    7.9113    2.4734   -0.8196 C   0  0  0  0  0  0  0  0  0  0  0  0
    9.1183    2.1979   -1.6182 C   0  0  0  0  0  0  0  0  0  0  0  0
    7.9902    3.5056    0.0606 O   0  0  0  0  0  0  0  0  0  0  0  0
    6.7854    3.6333    0.7264 N   0  0  0  0  0  0  0  0  0  0  0  0
   -0.8063   -0.9464   -0.1606 C   0  0  0  0  0  0  0  0  0  0  0  0
   -1.1823   -0.6402   -1.6404 C   0  0  0  0  0  0  0  0  0  0  0  0
   -1.9269    0.2760   -1.9770 O   0  0  0  0  0  0  0  0  0  0  0  0
   -0.5793   -1.4874   -2.5632 N   0  0  0  0  0  0  0  0  0  0  0  0
   -0.7706   -1.4199   -4.0212 C   0  0  0  0  0  0  0  0  0  0  0  0
   -0.3070   -0.0647   -4.5795 C   0  0  0  0  0  0  0  0  0  0  0  0
   -2.2412   -1.6711   -4.3924 C   0  0  0  0  0  0  0  0  0  0  0  0
    0.0878   -2.5257   -4.6630 C   0  0  0  0  0  0  0  0  0  0  0  0
   -1.2694   -2.2935    0.4175 C   0  0  0  0  0  0  0  0  0  0  0  0
   -2.0774   -3.1958   -0.2920 C   0  0  0  0  0  0  0  0  0  0  0  0
   -2.4256   -4.4315    0.2641 C   0  0  0  0  0  0  0  0  0  0  0  0
   -1.9809   -4.7987    1.5352 C   0  0  0  0  0  0  0  0  0  0  0  0
   -2.3923   -6.0342    1.9518 O   0  0  0  0  0  0  0  0  0  0  0  0
   -2.0325   -6.4187    3.2746 C   0  0  0  0  0  0  0  0  0  0  0  0
   -1.1804   -3.9135    2.2527 C   0  0  0  0  0  0  0  0  0  0  0  0
   -0.8276   -2.6761    1.6987 C   0  0  0  0  0  0  0  0  0  0  0  0
   -2.5544    1.9210    1.7255 C   0  0  0  0  0  0  0  0  0  0  0  0
   -4.2345    5.3488    4.5968 H   0  0  0  0  0  0  0  0  0  0  0  0
   -2.7884    6.2690    4.1123 H   0  0  0  0  0  0  0  0  0  0  0  0
   -4.2181    6.1944    3.0567 H   0  0  0  0  0  0  0  0  0  0  0  0
   -2.4072    3.8396    3.7906 H   0  0  0  0  0  0  0  0  0  0  0  0
   -2.4398    4.6982    2.2077 H   0  0  0  0  0  0  0  0  0  0  0  0
   -5.9473    1.9984    1.9077 H   0  0  0  0  0  0  0  0  0  0  0  0
   -5.6429   -0.1469    0.7093 H   0  0  0  0  0  0  0  0  0  0  0  0
   -3.4458   -0.9550    0.1574 H   0  0  0  0  0  0  0  0  0  0  0  0
    1.8659   -0.2959    0.7837 H   0  0  0  0  0  0  0  0  0  0  0  0
    1.2903    0.8245   -0.4887 H   0  0  0  0  0  0  0  0  0  0  0  0
    2.0795    2.7553    0.8827 H   0  0  0  0  0  0  0  0  0  0  0  0
    2.6698    1.6323    2.1274 H   0  0  0  0  0  0  0  0  0  0  0  0
    4.4695    3.2242    1.4375 H   0  0  0  0  0  0  0  0  0  0  0  0
    6.2924    1.0741   -1.3139 H   0  0  0  0  0  0  0  0  0  0  0  0
    9.4282    3.0900   -2.1717 H   0  0  0  0  0  0  0  0  0  0  0  0
    8.9371    1.3951   -2.3395 H   0  0  0  0  0  0  0  0  0  0  0  0
    9.9452    1.8916   -0.9698 H   0  0  0  0  0  0  0  0  0  0  0  0
    0.2702   -1.1281   -0.2423 H   0  0  0  0  0  0  0  0  0  0  0  0
   -0.0299   -2.2608   -2.2085 H   0  0  0  0  0  0  0  0  0  0  0  0
   -0.9186    0.7631   -4.2083 H   0  0  0  0  0  0  0  0  0  0  0  0
   -0.3701   -0.0461   -5.6745 H   0  0  0  0  0  0  0  0  0  0  0  0
    0.7328    0.1445   -4.2994 H   0  0  0  0  0  0  0  0  0  0  0  0
   -2.5938   -2.6242   -3.9810 H   0  0  0  0  0  0  0  0  0  0  0  0
   -2.3736   -1.7052   -5.4791 H   0  0  0  0  0  0  0  0  0  0  0  0
   -2.9013   -0.8865   -4.0081 H   0  0  0  0  0  0  0  0  0  0  0  0
   -0.0069   -2.5240   -5.7540 H   0  0  0  0  0  0  0  0  0  0  0  0
    1.1478   -2.3961   -4.4151 H   0  0  0  0  0  0  0  0  0  0  0  0
   -0.2126   -3.5166   -4.3014 H   0  0  0  0  0  0  0  0  0  0  0  0
   -2.4681   -2.9583   -1.2795 H   0  0  0  0  0  0  0  0  0  0  0  0
   -3.0577   -5.1156   -0.2996 H   0  0  0  0  0  0  0  0  0  0  0  0
   -2.4750   -7.4003    3.4701 H   0  0  0  0  0  0  0  0  0  0  0  0
   -0.9457   -6.5144    3.3741 H   0  0  0  0  0  0  0  0  0  0  0  0
   -2.4363   -5.7225    4.0165 H   0  0  0  0  0  0  0  0  0  0  0  0
   -0.8115   -4.1494    3.2454 H   0  0  0  0  0  0  0  0  0  0  0  0
   -0.2028   -2.0065    2.2893 H   0  0  0  0  0  0  0  0  0  0  0  0
   -1.7123    2.5524    1.9723 H   0  0  0  0  0  0  0  0  0  0  0  0
  1  2  1  0
  2  3  1  0
  3  4  1  0
  4  5  2  0
  5  6  1  0
  6  7  2  0
  7  8  1  0
  8  9  1  0
  9 10  1  0
 10 11  2  0
 10 12  1  0
 12 13  1  0
 13 14  1  0
 14 15  2  0
 14 16  1  0
 16 17  1  0
 17 18  1  0
 18 19  2  0
 19 20  1  0
 19 21  1  0
 21 22  1  0
  9 23  1  0
 23 24  1  0
 24 25  2  0
 24 26  1  0
 26 27  1  0
 27 28  1  0
 27 29  1  0
 27 30  1  0
 23 31  1  0
 31 32  2  0
 32 33  1  0
 33 34  2  0
 34 35  1  0
 35 36  1  0
 34 37  1  0
 37 38  2  0
  8 39  2  0
 39  4  1  0
 22 17  2  0
 38 31  1  0
  1 40  1  0
  1 41  1  0
  1 42  1  0
  2 43  1  0
  2 44  1  0
  5 45  1  0
  6 46  1  0
  7 47  1  0
 12 48  1  0
 12 49  1  0
 13 50  1  0
 13 51  1  0
 16 52  1  0
 18 53  1  0
 20 54  1  0
 20 55  1  0
 20 56  1  0
 23 57  1  0
 26 58  1  0
 28 59  1  0
 28 60  1  0
 28 61  1  0
 29 62  1  0
 29 63  1  0
 29 64  1  0
 30 65  1  0
 30 66  1  0
 30 67  1  0
 32 68  1  0
 33 69  1  0
 36 70  1  0
 36 71  1  0
 36 72  1  0
 37 73  1  0
 38 74  1  0
 39 75  1  0
M  END
$$$$
