
     RDKit          3D

 30 33  0  0  0  0  0  0  0  0999 V2000
    1.0172   -2.3799    1.7763 O   0  0  0  0  0  0  0  0  0  0  0  0
    1.0177   -1.3445    1.1360 C   0  0  0  0  0  0  0  0  0  0  0  0
    2.1702   -0.5001    0.6836 C   0  0  0  0  0  0  0  0  0  0  0  0
    3.4139   -0.9034    0.9759 C   0  0  0  0  0  0  0  0  0  0  0  0
    4.6268   -0.2512    0.6199 C   0  0  0  0  0  0  0  0  0  0  0  0
    4.9577    1.0877    0.4331 C   0  0  0  0  0  0  0  0  0  0  0  0
    6.3336    1.1626    0.1056 C   0  0  0  0  0  0  0  0  0  0  0  0
    6.7909   -0.1279    0.1226 C   0  0  0  0  0  0  0  0  0  0  0  0
    5.7865   -0.9777    0.4393 O   0  0  0  0  0  0  0  0  0  0  0  0
    1.6470    0.9009   -0.2304 S   0  0  0  0  0  0  0  0  0  0  0  0
    0.0145    0.4247   -0.0253 C   0  0  0  0  0  0  0  0  0  0  0  0
   -1.1425    0.8939   -0.3911 N   0  0  0  0  0  0  0  0  0  0  0  0
   -2.0160   -0.0359    0.1684 C   0  0  0  0  0  0  0  0  0  0  0  0
   -3.4570    0.0763   -0.0173 C   0  0  0  0  0  0  0  0  0  0  0  0
   -3.9260    0.4020   -1.3038 C   0  0  0  0  0  0  0  0  0  0  0  0
   -5.2933    0.5108   -1.5663 C   0  0  0  0  0  0  0  0  0  0  0  0
   -6.2135    0.3019   -0.5443 C   0  0  0  0  0  0  0  0  0  0  0  0
   -5.7665   -0.0055    0.7408 C   0  0  0  0  0  0  0  0  0  0  0  0
   -4.3945   -0.1145    1.0101 C   0  0  0  0  0  0  0  0  0  0  0  0
   -3.9140   -0.4541    2.8201 Br  0  0  0  0  0  0  0  0  0  0  0  0
   -1.4095   -1.0602    0.8063 N   0  0  0  0  0  0  0  0  0  0  0  0
   -0.1189   -0.7148    0.6779 N   0  0  0  0  0  0  0  0  0  0  0  0
    3.5463   -1.8464    1.5063 H   0  0  0  0  0  0  0  0  0  0  0  0
    4.2900    1.9315    0.5350 H   0  0  0  0  0  0  0  0  0  0  0  0
    6.9169    2.0479   -0.1045 H   0  0  0  0  0  0  0  0  0  0  0  0
    7.7546   -0.5857   -0.0522 H   0  0  0  0  0  0  0  0  0  0  0  0
   -3.2190    0.5685   -2.1155 H   0  0  0  0  0  0  0  0  0  0  0  0
   -5.6364    0.7581   -2.5680 H   0  0  0  0  0  0  0  0  0  0  0  0
   -7.2790    0.3858   -0.7440 H   0  0  0  0  0  0  0  0  0  0  0  0
   -6.4977   -0.1511    1.5329 H   0  0  0  0  0  0  0  0  0  0  0  0
  1  2  2  0
  2  3  1  0
  3  4  2  3
  4  5  1  0
  5  6  2  0
  6  7  1  0
  7  8  2  0
  8  9  1  0
  3 10  1  0
 10 11  1  0
 11 12  2  0
 12 13  1  0
 13 14  1  0
 14 15  2  0
 15 16  1  0
 16 17  2  0
 17 18  1  0
 18 19  2  0
 19 20  1  0
 13 21  2  0
 21 22  1  0
 22  2  1  0
  9  5  1  0
 22 11  1  0
 19 14  1  0
  4 23  1  0
  6 24  1  0
  7 25  1  0
  8 26  1  0
 15 27  1  0
 16 28  1  0
 17 29  1  0
 18 30  1  0
M  END
$$$$
