
     RDKit          3D

 51 54  0  0  0  0  0  0  0  0999 V2000
    5.6656    0.8993    1.8000 C   0  0  0  0  0  0  0  0  0  0  0  0
    4.2334    1.4026    1.8074 C   0  0  0  0  0  0  0  0  0  0  0  0
    3.3904    0.3210    2.2221 O   0  0  0  0  0  0  0  0  0  0  0  0
    2.0798    0.5632    1.8922 C   0  0  0  0  0  0  0  0  0  0  0  0
    1.5429   -0.2334    0.8763 C   0  0  0  0  0  0  0  0  0  0  0  0
    0.2050   -0.0844    0.4827 C   0  0  0  0  0  0  0  0  0  0  0  0
   -0.3531   -0.9975   -0.6102 C   0  0  0  0  0  0  0  0  0  0  0  0
   -1.1785   -2.1250    0.0173 C   0  0  0  0  0  0  0  0  0  0  0  0
   -0.8622   -3.5039   -0.5366 C   0  0  0  0  0  0  0  0  0  0  0  0
    0.0900   -3.7199   -1.2813 O   0  0  0  0  0  0  0  0  0  0  0  0
   -1.7239   -4.6412   -0.0017 C   0  0  0  0  0  0  0  0  0  0  0  0
   -3.2152   -4.2961   -0.0357 C   0  0  0  0  0  0  0  0  0  0  0  0
   -3.5169   -2.9482    0.6206 C   0  0  0  0  0  0  0  0  0  0  0  0
   -2.6750   -1.9221   -0.1034 C   0  0  0  0  0  0  0  0  0  0  0  0
   -3.2674   -1.0450   -0.8484 N   0  0  0  0  0  0  0  0  0  0  0  0
   -2.4996   -0.2555   -1.6340 C   0  0  0  0  0  0  0  0  0  0  0  0
   -2.8648    0.5888   -2.5699 N   0  0  0  0  0  0  0  0  0  0  0  0
   -1.6772    1.0864   -3.0863 C   0  0  0  0  0  0  0  0  0  0  0  0
   -1.6338    2.0706   -4.1864 C   0  0  0  0  0  0  0  0  0  0  0  0
   -2.6331    2.5315   -4.7328 O   0  0  0  0  0  0  0  0  0  0  0  0
   -0.3549    2.4202   -4.5385 O   0  0  0  0  0  0  0  0  0  0  0  0
   -0.2811    3.3628   -5.6054 C   0  0  0  0  0  0  0  0  0  0  0  0
   -0.5824    0.5762   -2.4830 N   0  0  0  0  0  0  0  0  0  0  0  0
   -1.1348   -0.2390   -1.5704 N   0  0  0  0  0  0  0  0  0  0  0  0
   -0.5833    0.8631    1.1558 C   0  0  0  0  0  0  0  0  0  0  0  0
   -0.0459    1.6456    2.1872 C   0  0  0  0  0  0  0  0  0  0  0  0
    1.2884    1.4986    2.5733 C   0  0  0  0  0  0  0  0  0  0  0  0
    1.8890    2.1885    3.5915 O   0  0  0  0  0  0  0  0  0  0  0  0
    1.1157    3.1720    4.2650 C   0  0  0  0  0  0  0  0  0  0  0  0
    5.7708    0.0492    1.1175 H   0  0  0  0  0  0  0  0  0  0  0  0
    5.9551    0.5464    2.7953 H   0  0  0  0  0  0  0  0  0  0  0  0
    6.3553    1.6894    1.4904 H   0  0  0  0  0  0  0  0  0  0  0  0
    3.9675    1.7479    0.8003 H   0  0  0  0  0  0  0  0  0  0  0  0
    4.1523    2.2385    2.5098 H   0  0  0  0  0  0  0  0  0  0  0  0
    2.1875   -0.9662    0.3938 H   0  0  0  0  0  0  0  0  0  0  0  0
    0.4942   -1.3889   -1.1866 H   0  0  0  0  0  0  0  0  0  0  0  0
   -0.9470   -2.2047    1.0894 H   0  0  0  0  0  0  0  0  0  0  0  0
   -1.4017   -4.8494    1.0244 H   0  0  0  0  0  0  0  0  0  0  0  0
   -1.5405   -5.5376   -0.6038 H   0  0  0  0  0  0  0  0  0  0  0  0
   -3.7860   -5.0865    0.4643 H   0  0  0  0  0  0  0  0  0  0  0  0
   -3.5478   -4.2688   -1.0813 H   0  0  0  0  0  0  0  0  0  0  0  0
   -3.2454   -2.9544    1.6810 H   0  0  0  0  0  0  0  0  0  0  0  0
   -4.5801   -2.7032    0.5330 H   0  0  0  0  0  0  0  0  0  0  0  0
   -0.7793    4.2975   -5.3293 H   0  0  0  0  0  0  0  0  0  0  0  0
   -0.7181    2.9448   -6.5174 H   0  0  0  0  0  0  0  0  0  0  0  0
    0.7740    3.5781   -5.7951 H   0  0  0  0  0  0  0  0  0  0  0  0
   -1.6296    1.0151    0.8938 H   0  0  0  0  0  0  0  0  0  0  0  0
   -0.7046    2.3585    2.6732 H   0  0  0  0  0  0  0  0  0  0  0  0
    0.7904    3.9589    3.5763 H   0  0  0  0  0  0  0  0  0  0  0  0
    0.2628    2.7190    4.7805 H   0  0  0  0  0  0  0  0  0  0  0  0
    1.7534    3.6369    5.0231 H   0  0  0  0  0  0  0  0  0  0  0  0
  1  2  1  0
  2  3  1  0
  3  4  1  0
  4  5  2  0
  5  6  1  0
  6  7  1  0
  7  8  1  0
  8  9  1  0
  9 10  2  0
  9 11  1  0
 11 12  1  0
 12 13  1  0
 13 14  1  0
 14 15  2  0
 15 16  1  0
 16 17  2  0
 17 18  1  0
 18 19  1  0
 19 20  2  0
 19 21  1  0
 21 22  1  0
 18 23  2  0
 23 24  1  0
  6 25  2  0
 25 26  1  0
 26 27  2  0
 27 28  1  0
 28 29  1  0
 27  4  1  0
 24  7  1  0
 14  8  1  0
 24 16  1  0
  1 30  1  0
  1 31  1  0
  1 32  1  0
  2 33  1  0
  2 34  1  0
  5 35  1  0
  7 36  1  0
  8 37  1  0
 11 38  1  0
 11 39  1  0
 12 40  1  0
 12 41  1  0
 13 42  1  0
 13 43  1  0
 22 44  1  0
 22 45  1  0
 22 46  1  0
 25 47  1  0
 26 48  1  0
 29 49  1  0
 29 50  1  0
 29 51  1  0
M  END
$$$$
