
     RDKit          3D

 46 48  0  0  0  0  0  0  0  0999 V2000
    8.3263    0.4315   -0.2440 C   0  0  0  0  0  0  0  0  0  0  0  0
    7.5747   -0.7141    0.1380 O   0  0  0  0  0  0  0  0  0  0  0  0
    6.1785   -0.4463    0.2730 C   0  0  0  0  0  0  0  0  0  0  0  0
    5.4532   -0.5524   -1.0732 C   0  0  0  0  0  0  0  0  0  0  0  0
    4.0358   -0.2054   -0.9664 N   0  0  0  0  0  0  0  0  0  0  0  0
    3.1368   -1.1933   -0.6044 C   0  0  0  0  0  0  0  0  0  0  0  0
    3.4117   -2.3593   -0.3578 O   0  0  0  0  0  0  0  0  0  0  0  0
    1.7622   -0.6351   -0.5275 C   0  0  0  0  0  0  0  0  0  0  0  0
    0.7081   -1.3976   -0.2097 C   0  0  0  0  0  0  0  0  0  0  0  0
   -0.6761   -0.9237   -0.0967 C   0  0  0  0  0  0  0  0  0  0  0  0
   -1.4250   -0.7359   -1.2601 C   0  0  0  0  0  0  0  0  0  0  0  0
   -2.7482   -0.2826   -1.1910 C   0  0  0  0  0  0  0  0  0  0  0  0
   -3.3758   -0.0011    0.0295 C   0  0  0  0  0  0  0  0  0  0  0  0
   -4.6750    0.4444    0.0919 N   0  0  0  0  0  0  0  0  0  0  0  0
   -5.4728    0.8174   -1.0740 C   0  0  0  0  0  0  0  0  0  0  0  0
   -6.6831    1.5327   -0.4787 C   0  0  0  0  0  0  0  0  0  0  0  0
   -6.8615    0.8456    0.8634 C   0  0  0  0  0  0  0  0  0  0  0  0
   -5.4249    0.6289    1.3320 C   0  0  0  0  0  0  0  0  0  0  0  0
   -2.6022   -0.2018    1.1853 C   0  0  0  0  0  0  0  0  0  0  0  0
   -1.2682   -0.6596    1.1462 C   0  0  0  0  0  0  0  0  0  0  0  0
   -0.5131   -0.8349    2.4356 C   0  0  0  0  0  0  0  0  0  0  0  0
    1.7857    1.0465   -0.8726 S   0  0  0  0  0  0  0  0  0  0  0  0
    3.5267    1.0675   -1.1187 C   0  0  0  0  0  0  0  0  0  0  0  0
    4.3578    2.4701   -1.4736 S   0  0  0  0  0  0  0  0  0  0  0  0
    8.2310    1.2198    0.5089 H   0  0  0  0  0  0  0  0  0  0  0  0
    8.0072    0.8032   -1.2212 H   0  0  0  0  0  0  0  0  0  0  0  0
    9.3787    0.1425   -0.3113 H   0  0  0  0  0  0  0  0  0  0  0  0
    6.0197    0.5290    0.7482 H   0  0  0  0  0  0  0  0  0  0  0  0
    5.7732   -1.1978    0.9598 H   0  0  0  0  0  0  0  0  0  0  0  0
    5.5476   -1.5791   -1.4482 H   0  0  0  0  0  0  0  0  0  0  0  0
    5.9333    0.0811   -1.8248 H   0  0  0  0  0  0  0  0  0  0  0  0
    0.8429   -2.4568    0.0025 H   0  0  0  0  0  0  0  0  0  0  0  0
   -0.9916   -0.9397   -2.2364 H   0  0  0  0  0  0  0  0  0  0  0  0
   -3.2846   -0.1620   -2.1276 H   0  0  0  0  0  0  0  0  0  0  0  0
   -4.9383    1.4872   -1.7562 H   0  0  0  0  0  0  0  0  0  0  0  0
   -5.7867   -0.0810   -1.6178 H   0  0  0  0  0  0  0  0  0  0  0  0
   -6.4552    2.5947   -0.3270 H   0  0  0  0  0  0  0  0  0  0  0  0
   -7.5682    1.4598   -1.1168 H   0  0  0  0  0  0  0  0  0  0  0  0
   -7.4482    1.4373    1.5714 H   0  0  0  0  0  0  0  0  0  0  0  0
   -7.3620   -0.1205    0.7247 H   0  0  0  0  0  0  0  0  0  0  0  0
   -5.0582    1.5128    1.8662 H   0  0  0  0  0  0  0  0  0  0  0  0
   -5.3715   -0.2435    1.9920 H   0  0  0  0  0  0  0  0  0  0  0  0
   -3.0365    0.0111    2.1588 H   0  0  0  0  0  0  0  0  0  0  0  0
   -0.1421   -1.8610    2.5256 H   0  0  0  0  0  0  0  0  0  0  0  0
    0.3284   -0.1362    2.4806 H   0  0  0  0  0  0  0  0  0  0  0  0
   -1.1504   -0.6425    3.3052 H   0  0  0  0  0  0  0  0  0  0  0  0
  1  2  1  0
  2  3  1  0
  3  4  1  0
  4  5  1  0
  5  6  1  0
  6  7  2  0
  6  8  1  0
  8  9  2  3
  9 10  1  0
 10 11  2  0
 11 12  1  0
 12 13  2  0
 13 14  1  0
 14 15  1  0
 15 16  1  0
 16 17  1  0
 17 18  1  0
 13 19  1  0
 19 20  2  0
 20 21  1  0
  8 22  1  0
 22 23  1  0
 23 24  2  0
 23  5  1  0
 20 10  1  0
 18 14  1  0
  1 25  1  0
  1 26  1  0
  1 27  1  0
  3 28  1  0
  3 29  1  0
  4 30  1  0
  4 31  1  0
  9 32  1  0
 11 33  1  0
 12 34  1  0
 15 35  1  0
 15 36  1  0
 16 37  1  0
 16 38  1  0
 17 39  1  0
 17 40  1  0
 18 41  1  0
 18 42  1  0
 19 43  1  0
 21 44  1  0
 21 45  1  0
 21 46  1  0
M  END
$$$$
