
     RDKit          3D

 50 52  0  0  0  0  0  0  0  0999 V2000
    1.3949   -1.6861   -2.7613 O   0  0  0  0  0  0  0  0  0  0  0  0
    2.0154   -0.4085   -2.5468 C   0  0  0  0  0  0  0  0  0  0  0  0
    3.5360   -0.6182   -2.5639 C   0  0  0  0  0  0  0  0  0  0  0  0
    3.8785   -1.5602   -1.5363 O   0  0  0  0  0  0  0  0  0  0  0  0
    5.2887   -1.6312   -1.3136 C   0  0  0  0  0  0  0  0  0  0  0  0
    5.6313   -0.6214   -0.2637 C   0  0  0  0  0  0  0  0  0  0  0  0
    5.1662   -0.5509    1.0347 C   0  0  0  0  0  0  0  0  0  0  0  0
    5.7137    0.5522    1.7482 C   0  0  0  0  0  0  0  0  0  0  0  0
    6.5813    1.2869    0.9728 C   0  0  0  0  0  0  0  0  0  0  0  0
    6.7348    0.6440   -0.6008 S   0  0  0  0  0  0  0  0  0  0  0  0
    1.5598    0.2008   -1.1957 C   0  0  0  0  0  0  0  0  0  0  0  0
    0.2119    0.8075   -1.2203 N   0  0  0  0  0  0  0  0  0  0  0  0
   -0.0951    1.5005    0.0507 C   0  0  0  0  0  0  0  0  0  0  0  0
   -0.9971    0.7267    1.0404 C   0  0  0  0  0  0  0  0  0  0  0  0
   -2.2718    0.3495    0.4095 N   0  0  0  0  0  0  0  0  0  0  0  0
   -3.4317    0.1967    1.1468 C   0  0  0  0  0  0  0  0  0  0  0  0
   -3.4035   -0.0648    2.5247 C   0  0  0  0  0  0  0  0  0  0  0  0
   -4.5726   -0.2199    3.2773 C   0  0  0  0  0  0  0  0  0  0  0  0
   -5.8150   -0.1161    2.6646 C   0  0  0  0  0  0  0  0  0  0  0  0
   -5.8935    0.1365    1.2934 C   0  0  0  0  0  0  0  0  0  0  0  0
   -7.2269    0.2835    0.6077 C   0  0  0  0  0  0  0  0  0  0  0  0
   -8.2495   -0.3138    1.2819 F   0  0  0  0  0  0  0  0  0  0  0  0
   -7.5928    1.5864    0.4569 F   0  0  0  0  0  0  0  0  0  0  0  0
   -7.2451   -0.2568   -0.6439 F   0  0  0  0  0  0  0  0  0  0  0  0
   -4.7022    0.2930    0.5577 C   0  0  0  0  0  0  0  0  0  0  0  0
   -2.2531    0.2030   -1.0565 C   0  0  0  0  0  0  0  0  0  0  0  0
   -0.8387   -0.1828   -1.5514 C   0  0  0  0  0  0  0  0  0  0  0  0
    1.8313   -2.2934   -2.1336 H   0  0  0  0  0  0  0  0  0  0  0  0
    1.7333    0.2498   -3.3757 H   0  0  0  0  0  0  0  0  0  0  0  0
    3.8426   -1.0446   -3.5257 H   0  0  0  0  0  0  0  0  0  0  0  0
    4.0505    0.3360   -2.4115 H   0  0  0  0  0  0  0  0  0  0  0  0
    5.5097   -2.6330   -0.9272 H   0  0  0  0  0  0  0  0  0  0  0  0
    5.8451   -1.5062   -2.2489 H   0  0  0  0  0  0  0  0  0  0  0  0
    4.4591   -1.2604    1.4475 H   0  0  0  0  0  0  0  0  0  0  0  0
    5.4832    0.7945    2.7775 H   0  0  0  0  0  0  0  0  0  0  0  0
    7.1364    2.1707    1.2560 H   0  0  0  0  0  0  0  0  0  0  0  0
    2.2728    0.9940   -0.9369 H   0  0  0  0  0  0  0  0  0  0  0  0
    1.6071   -0.5595   -0.4056 H   0  0  0  0  0  0  0  0  0  0  0  0
    0.8199    1.8178    0.5655 H   0  0  0  0  0  0  0  0  0  0  0  0
   -0.6136    2.4308   -0.2176 H   0  0  0  0  0  0  0  0  0  0  0  0
   -0.4805   -0.1750    1.3911 H   0  0  0  0  0  0  0  0  0  0  0  0
   -1.1667    1.3808    1.9045 H   0  0  0  0  0  0  0  0  0  0  0  0
   -2.4556   -0.1775    3.0426 H   0  0  0  0  0  0  0  0  0  0  0  0
   -4.5053   -0.4262    4.3416 H   0  0  0  0  0  0  0  0  0  0  0  0
   -6.7193   -0.2341    3.2583 H   0  0  0  0  0  0  0  0  0  0  0  0
   -4.7893    0.5201   -0.5023 H   0  0  0  0  0  0  0  0  0  0  0  0
   -2.5739    1.1400   -1.5266 H   0  0  0  0  0  0  0  0  0  0  0  0
   -2.9387   -0.5919   -1.3737 H   0  0  0  0  0  0  0  0  0  0  0  0
   -0.5954   -1.1578   -1.1058 H   0  0  0  0  0  0  0  0  0  0  0  0
   -0.8767   -0.3116   -2.6394 H   0  0  0  0  0  0  0  0  0  0  0  0
  1  2  1  0
  2  3  1  0
  3  4  1  0
  4  5  1  0
  5  6  1  0
  6  7  2  0
  7  8  1  0
  8  9  2  0
  9 10  1  0
  2 11  1  0
 11 12  1  0
 12 13  1  0
 13 14  1  0
 14 15  1  0
 15 16  1  0
 16 17  2  0
 17 18  1  0
 18 19  2  0
 19 20  1  0
 20 21  1  0
 21 22  1  0
 21 23  1  0
 21 24  1  0
 20 25  2  0
 15 26  1  0
 26 27  1  0
 10  6  1  0
 27 12  1  0
 25 16  1  0
  1 28  1  0
  2 29  1  0
  3 30  1  0
  3 31  1  0
  5 32  1  0
  5 33  1  0
  7 34  1  0
  8 35  1  0
  9 36  1  0
 11 37  1  0
 11 38  1  0
 13 39  1  0
 13 40  1  0
 14 41  1  0
 14 42  1  0
 17 43  1  0
 18 44  1  0
 19 45  1  0
 25 46  1  0
 26 47  1  0
 26 48  1  0
 27 49  1  0
 27 50  1  0
M  END
$$$$
