
     RDKit          3D

 50 53  0  0  0  0  0  0  0  0999 V2000
   -1.5636   -1.5150   -3.6956 C   0  0  0  0  0  0  0  0  0  0  0  0
   -1.0655   -1.7717   -2.3819 O   0  0  0  0  0  0  0  0  0  0  0  0
   -0.4472   -0.7105   -1.8179 C   0  0  0  0  0  0  0  0  0  0  0  0
   -0.2456    0.3891   -2.3180 O   0  0  0  0  0  0  0  0  0  0  0  0
   -0.0065   -1.0872   -0.4665 C   0  0  0  0  0  0  0  0  0  0  0  0
   -0.7182   -0.8027    0.6515 C   0  0  0  0  0  0  0  0  0  0  0  0
   -2.0151   -0.1105    0.6327 C   0  0  0  0  0  0  0  0  0  0  0  0
   -2.1350    1.1712    1.1815 C   0  0  0  0  0  0  0  0  0  0  0  0
   -3.3575    1.8451    1.1522 C   0  0  0  0  0  0  0  0  0  0  0  0
   -4.4715    1.2437    0.5690 C   0  0  0  0  0  0  0  0  0  0  0  0
   -4.3649   -0.0361    0.0181 C   0  0  0  0  0  0  0  0  0  0  0  0
   -5.5051   -0.6534   -0.5916 C   0  0  0  0  0  0  0  0  0  0  0  0
   -6.4236   -1.1557   -1.0917 N   0  0  0  0  0  0  0  0  0  0  0  0
   -3.1398   -0.7131    0.0563 C   0  0  0  0  0  0  0  0  0  0  0  0
   -0.1297   -1.1303    2.0270 C   0  0  0  0  0  0  0  0  0  0  0  0
    1.2314   -1.8766    1.9191 C   0  0  0  0  0  0  0  0  0  0  0  0
    1.0475   -3.3198    1.4198 C   0  0  0  0  0  0  0  0  0  0  0  0
    1.2001   -3.2345   -0.1107 C   0  0  0  0  0  0  0  0  0  0  0  0
    1.3562   -1.7382   -0.3984 C   0  0  0  0  0  0  0  0  0  0  0  0
    1.9744   -1.2580    0.8304 N   0  0  0  0  0  0  0  0  0  0  0  0
    2.6616   -0.0875    1.0342 C   0  0  0  0  0  0  0  0  0  0  0  0
    2.9840    0.2899    2.1560 O   0  0  0  0  0  0  0  0  0  0  0  0
    2.9582    0.6158   -0.1052 N   0  0  0  0  0  0  0  0  0  0  0  0
    3.5967    1.9098   -0.0267 C   0  0  0  0  0  0  0  0  0  0  0  0
    2.5745    2.9622    0.2585 C   0  0  0  0  0  0  0  0  0  0  0  0
    1.5135    3.3169   -0.7576 C   0  0  0  0  0  0  0  0  0  0  0  0
    2.6211    4.2902   -0.4561 C   0  0  0  0  0  0  0  0  0  0  0  0
   -2.3990   -0.8106   -3.6474 H   0  0  0  0  0  0  0  0  0  0  0  0
   -0.7678   -1.1372   -4.3529 H   0  0  0  0  0  0  0  0  0  0  0  0
   -1.9334   -2.4637   -4.1072 H   0  0  0  0  0  0  0  0  0  0  0  0
   -1.2712    1.6653    1.6222 H   0  0  0  0  0  0  0  0  0  0  0  0
   -3.4374    2.8430    1.5763 H   0  0  0  0  0  0  0  0  0  0  0  0
   -5.4182    1.7800    0.5441 H   0  0  0  0  0  0  0  0  0  0  0  0
   -3.0650   -1.7130   -0.3672 H   0  0  0  0  0  0  0  0  0  0  0  0
    0.0372   -0.1910    2.5695 H   0  0  0  0  0  0  0  0  0  0  0  0
   -0.8387   -1.7268    2.6139 H   0  0  0  0  0  0  0  0  0  0  0  0
    1.7718   -1.8326    2.8704 H   0  0  0  0  0  0  0  0  0  0  0  0
    0.0887   -3.7570    1.7203 H   0  0  0  0  0  0  0  0  0  0  0  0
    1.8422   -3.9622    1.8221 H   0  0  0  0  0  0  0  0  0  0  0  0
    0.3584   -3.6974   -0.6365 H   0  0  0  0  0  0  0  0  0  0  0  0
    2.1090   -3.7708   -0.4070 H   0  0  0  0  0  0  0  0  0  0  0  0
    1.9761   -1.5349   -1.2759 H   0  0  0  0  0  0  0  0  0  0  0  0
    2.2930    0.5370   -0.8555 H   0  0  0  0  0  0  0  0  0  0  0  0
    4.0874    2.0763   -0.9913 H   0  0  0  0  0  0  0  0  0  0  0  0
    4.3645    1.9037    0.7532 H   0  0  0  0  0  0  0  0  0  0  0  0
    2.2837    2.9602    1.3041 H   0  0  0  0  0  0  0  0  0  0  0  0
    0.5150    3.5441   -0.3904 H   0  0  0  0  0  0  0  0  0  0  0  0
    1.5227    2.8217   -1.7223 H   0  0  0  0  0  0  0  0  0  0  0  0
    3.3733    4.4513   -1.2238 H   0  0  0  0  0  0  0  0  0  0  0  0
    2.3770    5.1815    0.1145 H   0  0  0  0  0  0  0  0  0  0  0  0
  1  2  1  0
  2  3  1  0
  3  4  2  0
  3  5  1  0
  5  6  2  0
  6  7  1  0
  7  8  2  0
  8  9  1  0
  9 10  2  0
 10 11  1  0
 11 12  1  0
 12 13  3  0
 11 14  2  0
  6 15  1  0
 15 16  1  0
 16 17  1  0
 17 18  1  0
 18 19  1  0
 19 20  1  0
 20 21  1  0
 21 22  2  0
 21 23  1  0
 23 24  1  0
 24 25  1  0
 25 26  1  0
 26 27  1  0
 19  5  1  0
 27 25  1  0
 14  7  1  0
 20 16  1  0
  1 28  1  0
  1 29  1  0
  1 30  1  0
  8 31  1  0
  9 32  1  0
 10 33  1  0
 14 34  1  0
 15 35  1  0
 15 36  1  0
 16 37  1  0
 17 38  1  0
 17 39  1  0
 18 40  1  0
 18 41  1  0
 19 42  1  0
 23 43  1  0
 24 44  1  0
 24 45  1  0
 25 46  1  0
 26 47  1  0
 26 48  1  0
 27 49  1  0
 27 50  1  0
M  END
$$$$
