
     RDKit          3D

 49 51  0  0  0  0  0  0  0  0999 V2000
   -8.2199   -0.7760    1.2337 C   0  0  0  0  0  0  0  0  0  0  0  0
   -7.5098   -0.5469   -0.0763 C   0  0  0  0  0  0  0  0  0  0  0  0
   -8.1316   -0.6173   -1.1365 O   0  0  0  0  0  0  0  0  0  0  0  0
   -6.1482   -0.2805   -0.0205 N   0  0  0  0  0  0  0  0  0  0  0  0
   -5.4567    0.1466    1.2037 C   0  0  0  0  0  0  0  0  0  0  0  0
   -3.9492   -0.1688    1.1777 C   0  0  0  0  0  0  0  0  0  0  0  0
   -3.3290    0.3589   -0.0538 N   0  0  0  0  0  0  0  0  0  0  0  0
   -1.9274    0.3719   -0.1291 C   0  0  0  0  0  0  0  0  0  0  0  0
   -1.0941   -0.3559    0.7244 C   0  0  0  0  0  0  0  0  0  0  0  0
    0.3026   -0.2972    0.6042 C   0  0  0  0  0  0  0  0  0  0  0  0
    0.9203    0.5005   -0.3668 C   0  0  0  0  0  0  0  0  0  0  0  0
    2.3312    0.4706   -0.3871 N   0  0  0  0  0  0  0  0  0  0  0  0
    3.2898    1.1062   -1.1392 C   0  0  0  0  0  0  0  0  0  0  0  0
    3.1357    2.2314   -2.3626 S   0  0  0  0  0  0  0  0  0  0  0  0
    4.5961    0.7477   -0.8276 N   0  0  0  0  0  0  0  0  0  0  0  0
    5.0577   -0.1423    0.1341 C   0  0  0  0  0  0  0  0  0  0  0  0
    4.3254   -0.7074    0.9421 O   0  0  0  0  0  0  0  0  0  0  0  0
    6.5290   -0.3567    0.1774 C   0  0  0  0  0  0  0  0  0  0  0  0
    7.1194   -0.6536    1.4123 C   0  0  0  0  0  0  0  0  0  0  0  0
    8.4968   -0.8608    1.4990 C   0  0  0  0  0  0  0  0  0  0  0  0
    9.2866   -0.7826    0.3526 C   0  0  0  0  0  0  0  0  0  0  0  0
    8.7014   -0.5060   -0.8830 C   0  0  0  0  0  0  0  0  0  0  0  0
    7.3232   -0.2968   -0.9756 C   0  0  0  0  0  0  0  0  0  0  0  0
    0.1025    1.2384   -1.2125 C   0  0  0  0  0  0  0  0  0  0  0  0
   -1.2954    1.1749   -1.0898 C   0  0  0  0  0  0  0  0  0  0  0  0
   -3.9768   -0.1738   -1.2795 C   0  0  0  0  0  0  0  0  0  0  0  0
   -5.4872    0.1211   -1.2682 C   0  0  0  0  0  0  0  0  0  0  0  0
   -9.2641   -1.0389    1.0379 H   0  0  0  0  0  0  0  0  0  0  0  0
   -7.7578   -1.6060    1.7745 H   0  0  0  0  0  0  0  0  0  0  0  0
   -8.2048    0.1354    1.8369 H   0  0  0  0  0  0  0  0  0  0  0  0
   -5.9013   -0.3246    2.0840 H   0  0  0  0  0  0  0  0  0  0  0  0
   -5.6143    1.2285    1.2942 H   0  0  0  0  0  0  0  0  0  0  0  0
   -3.8128   -1.2567    1.2312 H   0  0  0  0  0  0  0  0  0  0  0  0
   -3.4919    0.2844    2.0657 H   0  0  0  0  0  0  0  0  0  0  0  0
   -1.5023   -1.0028    1.4940 H   0  0  0  0  0  0  0  0  0  0  0  0
    0.9013   -0.8928    1.2908 H   0  0  0  0  0  0  0  0  0  0  0  0
    2.7381   -0.1443    0.3206 H   0  0  0  0  0  0  0  0  0  0  0  0
    5.2776    1.2517   -1.3781 H   0  0  0  0  0  0  0  0  0  0  0  0
    6.5089   -0.7217    2.3108 H   0  0  0  0  0  0  0  0  0  0  0  0
    8.9527   -1.0870    2.4600 H   0  0  0  0  0  0  0  0  0  0  0  0
   10.3595   -0.9481    0.4210 H   0  0  0  0  0  0  0  0  0  0  0  0
    9.3201   -0.4641   -1.7767 H   0  0  0  0  0  0  0  0  0  0  0  0
    6.8905   -0.1203   -1.9563 H   0  0  0  0  0  0  0  0  0  0  0  0
    0.4919    1.8863   -1.9850 H   0  0  0  0  0  0  0  0  0  0  0  0
   -1.8953    1.7945   -1.7530 H   0  0  0  0  0  0  0  0  0  0  0  0
   -3.5562    0.2644   -2.1916 H   0  0  0  0  0  0  0  0  0  0  0  0
   -3.8174   -1.2592   -1.3286 H   0  0  0  0  0  0  0  0  0  0  0  0
   -5.9577   -0.3761   -2.1235 H   0  0  0  0  0  0  0  0  0  0  0  0
   -5.6568    1.1993   -1.3817 H   0  0  0  0  0  0  0  0  0  0  0  0
  1  2  1  0
  2  3  2  0
  2  4  1  0
  4  5  1  0
  5  6  1  0
  6  7  1  0
  7  8  1  0
  8  9  2  0
  9 10  1  0
 10 11  2  0
 11 12  1  0
 12 13  1  0
 13 14  2  0
 13 15  1  0
 15 16  1  0
 16 17  2  0
 16 18  1  0
 18 19  2  0
 19 20  1  0
 20 21  2  0
 21 22  1  0
 22 23  2  0
 11 24  1  0
 24 25  2  0
  7 26  1  0
 26 27  1  0
 27  4  1  0
 25  8  1  0
 23 18  1  0
  1 28  1  0
  1 29  1  0
  1 30  1  0
  5 31  1  0
  5 32  1  0
  6 33  1  0
  6 34  1  0
  9 35  1  0
 10 36  1  0
 12 37  1  0
 15 38  1  0
 19 39  1  0
 20 40  1  0
 21 41  1  0
 22 42  1  0
 23 43  1  0
 24 44  1  0
 25 45  1  0
 26 46  1  0
 26 47  1  0
 27 48  1  0
 27 49  1  0
M  END
$$$$
