
     RDKit          3D

 66 70  0  0  0  0  0  0  0  0999 V2000
    3.4321    0.7311    1.8160 C   0  0  0  0  0  0  0  0  0  0  0  0
    3.3572   -0.5218    1.0218 C   0  0  0  0  0  0  0  0  0  0  0  0
    2.2671   -1.0318    0.3380 C   0  0  0  0  0  0  0  0  0  0  0  0
    0.8742   -0.4913    0.1920 C   0  0  0  0  0  0  0  0  0  0  0  0
    0.7721    0.5383   -0.9352 C   0  0  0  0  0  0  0  0  0  0  0  0
   -0.5892    0.9545   -1.1117 O   0  0  0  0  0  0  0  0  0  0  0  0
   -1.3448    0.1243   -1.8874 C   0  0  0  0  0  0  0  0  0  0  0  0
   -0.9364   -0.9142   -2.3894 O   0  0  0  0  0  0  0  0  0  0  0  0
   -2.7580    0.6408   -2.0086 C   0  0  0  0  0  0  0  0  0  0  0  0
   -3.7509    0.0190   -1.0062 C   0  0  0  0  0  0  0  0  0  0  0  0
   -3.3401    0.3016    0.4607 C   0  0  0  0  0  0  0  0  0  0  0  0
   -4.3739   -0.2849    1.4378 C   0  0  0  0  0  0  0  0  0  0  0  0
   -4.4719   -1.8033    1.2216 C   0  0  0  0  0  0  0  0  0  0  0  0
   -4.9086   -2.1019   -0.2214 C   0  0  0  0  0  0  0  0  0  0  0  0
   -6.2796   -1.4586   -0.4815 C   0  0  0  0  0  0  0  0  0  0  0  0
   -6.2033    0.0706   -0.2731 C   0  0  0  0  0  0  0  0  0  0  0  0
   -7.5714    0.7091   -0.5306 C   0  0  0  0  0  0  0  0  0  0  0  0
   -5.7458    0.3549    1.1750 C   0  0  0  0  0  0  0  0  0  0  0  0
   -5.1504    0.6500   -1.2458 C   0  0  0  0  0  0  0  0  0  0  0  0
   -3.8751   -1.5137   -1.1971 C   0  0  0  0  0  0  0  0  0  0  0  0
    2.6866   -2.5189   -0.4161 S   0  0  0  0  0  0  0  0  0  0  0  0
    4.2824   -2.4391    0.1794 C   0  0  0  0  0  0  0  0  0  0  0  0
    4.4814   -1.3369    0.8846 N   0  0  0  0  0  4  0  0  0  0  0  0
    5.7975   -1.0715    1.4838 C   0  0  0  0  0  0  0  0  0  0  0  0
    6.5258    0.0198    0.7266 C   0  0  0  0  0  0  0  0  0  0  0  0
    6.7810   -0.0941   -0.6522 C   0  0  0  0  0  0  0  0  0  0  0  0
    7.4784    0.9085   -1.3359 C   0  0  0  0  0  0  0  0  0  0  0  0
    7.9347    2.0344   -0.6405 C   0  0  0  0  0  0  0  0  0  0  0  0
    8.6729    3.0837   -1.3560 N   0  0  0  0  0  4  0  0  0  0  0  0
    9.0259    2.8418   -2.5188 O   0  0  0  0  0  0  0  0  0  0  0  0
    8.8902    4.1412   -0.7501 O   0  0  0  0  0  1  0  0  0  0  0  0
    7.6966    2.1613    0.7336 C   0  0  0  0  0  0  0  0  0  0  0  0
    7.0013    1.1539    1.4116 C   0  0  0  0  0  0  0  0  0  0  0  0
    3.8969    0.5614    2.7911 H   0  0  0  0  0  0  0  0  0  0  0  0
    3.9978    1.4960    1.2760 H   0  0  0  0  0  0  0  0  0  0  0  0
    2.4349    1.1392    2.0090 H   0  0  0  0  0  0  0  0  0  0  0  0
    0.5503   -0.0293    1.1327 H   0  0  0  0  0  0  0  0  0  0  0  0
    0.1618   -1.3089    0.0266 H   0  0  0  0  0  0  0  0  0  0  0  0
    1.1900    0.1640   -1.8788 H   0  0  0  0  0  0  0  0  0  0  0  0
    1.3494    1.4340   -0.6781 H   0  0  0  0  0  0  0  0  0  0  0  0
   -2.7372    1.7339   -1.9038 H   0  0  0  0  0  0  0  0  0  0  0  0
   -3.0803    0.4522   -3.0411 H   0  0  0  0  0  0  0  0  0  0  0  0
   -2.3590   -0.1381    0.6782 H   0  0  0  0  0  0  0  0  0  0  0  0
   -3.2462    1.3829    0.6263 H   0  0  0  0  0  0  0  0  0  0  0  0
   -4.0634   -0.0797    2.4688 H   0  0  0  0  0  0  0  0  0  0  0  0
   -3.5022   -2.2740    1.4263 H   0  0  0  0  0  0  0  0  0  0  0  0
   -5.1911   -2.2373    1.9268 H   0  0  0  0  0  0  0  0  0  0  0  0
   -4.9772   -3.1863   -0.3678 H   0  0  0  0  0  0  0  0  0  0  0  0
   -7.0262   -1.8972    0.1934 H   0  0  0  0  0  0  0  0  0  0  0  0
   -6.6071   -1.6884   -1.5044 H   0  0  0  0  0  0  0  0  0  0  0  0
   -8.3304    0.3092    0.1508 H   0  0  0  0  0  0  0  0  0  0  0  0
   -7.9084    0.5182   -1.5560 H   0  0  0  0  0  0  0  0  0  0  0  0
   -7.5345    1.7950   -0.3878 H   0  0  0  0  0  0  0  0  0  0  0  0
   -6.4795   -0.0406    1.8891 H   0  0  0  0  0  0  0  0  0  0  0  0
   -5.6879    1.4373    1.3501 H   0  0  0  0  0  0  0  0  0  0  0  0
   -5.0915    1.7403   -1.1220 H   0  0  0  0  0  0  0  0  0  0  0  0
   -5.4660    0.4721   -2.2831 H   0  0  0  0  0  0  0  0  0  0  0  0
   -2.9099   -2.0053   -1.0252 H   0  0  0  0  0  0  0  0  0  0  0  0
   -4.1679   -1.7431   -2.2296 H   0  0  0  0  0  0  0  0  0  0  0  0
    5.0278   -3.2009   -0.0172 H   0  0  0  0  0  0  0  0  0  0  0  0
    6.4106   -1.9815    1.4694 H   0  0  0  0  0  0  0  0  0  0  0  0
    5.6592   -0.8106    2.5390 H   0  0  0  0  0  0  0  0  0  0  0  0
    6.4576   -0.9642   -1.2222 H   0  0  0  0  0  0  0  0  0  0  0  0
    7.6677    0.7942   -2.4044 H   0  0  0  0  0  0  0  0  0  0  0  0
    8.0578    3.0270    1.2885 H   0  0  0  0  0  0  0  0  0  0  0  0
    6.8460    1.2719    2.4850 H   0  0  0  0  0  0  0  0  0  0  0  0
  1  2  1  0
  2  3  2  0
  3  4  1  0
  4  5  1  0
  5  6  1  0
  6  7  1  0
  7  8  2  0
  7  9  1  0
  9 10  1  0
 10 11  1  0
 11 12  1  0
 12 13  1  0
 13 14  1  0
 14 15  1  0
 15 16  1  0
 16 17  1  0
 16 18  1  0
 16 19  1  0
 14 20  1  0
  3 21  1  0
 21 22  1  0
 22 23  2  0
 23 24  1  0
 24 25  1  0
 25 26  2  0
 26 27  1  0
 27 28  2  0
 28 29  1  0
 29 30  2  0
 29 31  1  0
 28 32  1  0
 32 33  2  0
 23  2  1  0
 33 25  1  0
 19 10  1  0
 20 10  1  0
 18 12  1  0
  1 34  1  0
  1 35  1  0
  1 36  1  0
  4 37  1  0
  4 38  1  0
  5 39  1  0
  5 40  1  0
  9 41  1  0
  9 42  1  0
 11 43  1  0
 11 44  1  0
 12 45  1  0
 13 46  1  0
 13 47  1  0
 14 48  1  0
 15 49  1  0
 15 50  1  0
 17 51  1  0
 17 52  1  0
 17 53  1  0
 18 54  1  0
 18 55  1  0
 19 56  1  0
 19 57  1  0
 20 58  1  0
 20 59  1  0
 22 60  1  0
 24 61  1  0
 24 62  1  0
 26 63  1  0
 27 64  1  0
 32 65  1  0
 33 66  1  0
M  CHG  3  23   1  29   1  31  -1
M  END
$$$$
