
     RDKit          3D

 45 47  0  0  0  0  0  0  0  0999 V2000
    8.5106   -2.1142    2.3788 N   0  0  0  0  0  0  0  0  0  0  0  0
    7.5774   -1.5396    1.9979 C   0  0  0  0  0  0  0  0  0  0  0  0
    6.4239   -0.8331    1.5226 C   0  0  0  0  0  0  0  0  0  0  0  0
    5.3138   -0.6591    2.3524 C   0  0  0  0  0  0  0  0  0  0  0  0
    4.1930    0.0298    1.8812 C   0  0  0  0  0  0  0  0  0  0  0  0
    4.1665    0.5471    0.5826 C   0  0  0  0  0  0  0  0  0  0  0  0
    3.0098    1.1956    0.2542 O   0  0  0  0  0  0  0  0  0  0  0  0
    2.8890    1.6770   -1.0773 C   0  0  0  0  0  0  0  0  0  0  0  0
    1.5312    2.3494   -1.3059 C   0  0  0  0  0  0  0  0  0  0  0  0
    1.4814    3.4990   -1.7524 O   0  0  0  0  0  0  0  0  0  0  0  0
    0.3825    1.6166   -1.0470 N   0  0  0  0  0  0  0  0  0  0  0  0
    0.3698    0.2205   -0.5899 C   0  0  0  0  0  0  0  0  0  0  0  0
   -0.9966   -0.4630   -0.7790 C   0  0  0  0  0  0  0  0  0  0  0  0
   -2.0527    0.3080   -0.1057 N   0  0  0  0  0  0  0  0  0  0  0  0
   -3.3042   -0.2953   -0.0486 C   0  0  0  0  0  0  0  0  0  0  0  0
   -4.3432    0.2690    0.6924 C   0  0  0  0  0  0  0  0  0  0  0  0
   -5.5880   -0.3607    0.7525 C   0  0  0  0  0  0  0  0  0  0  0  0
   -5.7866   -1.5591    0.0717 C   0  0  0  0  0  0  0  0  0  0  0  0
   -7.0842   -2.3007    0.1159 C   0  0  0  0  0  0  0  0  0  0  0  0
   -8.1662   -1.4742    0.1603 F   0  0  0  0  0  0  0  0  0  0  0  0
   -7.2801   -3.1093   -0.9631 F   0  0  0  0  0  0  0  0  0  0  0  0
   -7.1853   -3.1061    1.2088 F   0  0  0  0  0  0  0  0  0  0  0  0
   -4.7048   -2.0712   -0.6208 C   0  0  0  0  0  0  0  0  0  0  0  0
   -3.4917   -1.4712   -0.6882 N   0  0  0  0  0  0  0  0  0  0  0  0
   -1.9818    1.7768   -0.2202 C   0  0  0  0  0  0  0  0  0  0  0  0
   -0.9274    2.2422   -1.2428 C   0  0  0  0  0  0  0  0  0  0  0  0
    5.2764    0.3736   -0.2456 C   0  0  0  0  0  0  0  0  0  0  0  0
    6.4020   -0.3153    0.2234 C   0  0  0  0  0  0  0  0  0  0  0  0
    5.3109   -1.0538    3.3670 H   0  0  0  0  0  0  0  0  0  0  0  0
    3.3316    0.1645    2.5331 H   0  0  0  0  0  0  0  0  0  0  0  0
    3.6591    2.4351   -1.2666 H   0  0  0  0  0  0  0  0  0  0  0  0
    2.9882    0.8652   -1.8076 H   0  0  0  0  0  0  0  0  0  0  0  0
    1.1430   -0.3446   -1.1191 H   0  0  0  0  0  0  0  0  0  0  0  0
    0.6245    0.2336    0.4763 H   0  0  0  0  0  0  0  0  0  0  0  0
   -0.9288   -1.4748   -0.3599 H   0  0  0  0  0  0  0  0  0  0  0  0
   -1.2169   -0.5479   -1.8512 H   0  0  0  0  0  0  0  0  0  0  0  0
   -4.1888    1.1855    1.2519 H   0  0  0  0  0  0  0  0  0  0  0  0
   -6.3899    0.0858    1.3374 H   0  0  0  0  0  0  0  0  0  0  0  0
   -4.7709   -3.0121   -1.1634 H   0  0  0  0  0  0  0  0  0  0  0  0
   -1.7256    2.1782    0.7677 H   0  0  0  0  0  0  0  0  0  0  0  0
   -2.9430    2.2135   -0.5179 H   0  0  0  0  0  0  0  0  0  0  0  0
   -0.8424    3.3335   -1.2073 H   0  0  0  0  0  0  0  0  0  0  0  0
   -1.2513    1.9747   -2.2564 H   0  0  0  0  0  0  0  0  0  0  0  0
    5.3048    0.7625   -1.2584 H   0  0  0  0  0  0  0  0  0  0  0  0
    7.2609   -0.4420   -0.4341 H   0  0  0  0  0  0  0  0  0  0  0  0
  1  2  3  0
  2  3  1  0
  3  4  2  0
  4  5  1  0
  5  6  2  0
  6  7  1  0
  7  8  1  0
  8  9  1  0
  9 10  2  0
  9 11  1  0
 11 12  1  0
 12 13  1  0
 13 14  1  0
 14 15  1  0
 15 16  2  0
 16 17  1  0
 17 18  2  0
 18 19  1  0
 19 20  1  0
 19 21  1  0
 19 22  1  0
 18 23  1  0
 23 24  2  0
 14 25  1  0
 25 26  1  0
  6 27  1  0
 27 28  2  0
 28  3  1  0
 26 11  1  0
 24 15  1  0
  4 29  1  0
  5 30  1  0
  8 31  1  0
  8 32  1  0
 12 33  1  0
 12 34  1  0
 13 35  1  0
 13 36  1  0
 16 37  1  0
 17 38  1  0
 23 39  1  0
 25 40  1  0
 25 41  1  0
 26 42  1  0
 26 43  1  0
 27 44  1  0
 28 45  1  0
M  END
$$$$
