
     RDKit          3D

 45 48  0  0  0  0  0  0  0  0999 V2000
    0.9228   -2.1922   -1.2894 O   0  0  0  0  0  0  0  0  0  0  0  0
   -0.1933   -2.0977   -0.7868 C   0  0  0  0  0  0  0  0  0  0  0  0
   -0.8881   -0.9236   -0.7525 N   0  0  0  0  0  0  0  0  0  0  0  0
   -0.5442   -0.0300    0.1056 C   0  0  0  0  0  0  0  0  0  0  0  0
    0.4647   -0.1368    1.0123 N   0  0  0  0  0  0  0  0  0  0  0  0
    1.6724    0.0214    0.5840 C   0  0  0  0  0  0  0  0  0  0  0  0
    2.1494    0.2089   -0.7024 N   0  0  0  0  0  0  0  0  0  0  0  0
    3.5288    0.1548   -0.5892 C   0  0  0  0  0  0  0  0  0  0  0  0
    4.5103    0.2196   -1.5507 C   0  0  0  0  0  0  0  0  0  0  0  0
    5.8415    0.1890   -1.1198 C   0  0  0  0  0  0  0  0  0  0  0  0
    6.1557    0.1035    0.2510 C   0  0  0  0  0  0  0  0  0  0  0  0
    5.1431    0.0471    1.2116 C   0  0  0  0  0  0  0  0  0  0  0  0
    3.8435    0.0784    0.7559 C   0  0  0  0  0  0  0  0  0  0  0  0
    2.7024    0.0075    1.5396 O   0  0  0  0  0  0  0  0  0  0  0  0
   -1.2186    1.1558    0.2342 N   0  0  0  0  0  0  0  0  0  0  0  0
   -2.3477    1.5701   -0.4501 C   0  0  0  0  0  0  0  0  0  0  0  0
   -3.0593    0.8695   -1.1594 O   0  0  0  0  0  0  0  0  0  0  0  0
   -2.7458    2.9847   -0.2024 C   0  0  0  0  0  0  0  0  0  0  0  0
   -1.7966    3.9918    0.0216 C   0  0  0  0  0  0  0  0  0  0  0  0
   -2.2147    5.3049    0.2505 C   0  0  0  0  0  0  0  0  0  0  0  0
   -3.5743    5.6172    0.2479 C   0  0  0  0  0  0  0  0  0  0  0  0
   -4.5206    4.6218    0.0070 C   0  0  0  0  0  0  0  0  0  0  0  0
   -4.1083    3.3085   -0.2231 C   0  0  0  0  0  0  0  0  0  0  0  0
   -0.8761   -3.2993   -0.2238 C   0  0  0  0  0  0  0  0  0  0  0  0
   -0.1545   -4.4922   -0.0835 C   0  0  0  0  0  0  0  0  0  0  0  0
   -0.7725   -5.6275    0.4444 C   0  0  0  0  0  0  0  0  0  0  0  0
   -2.1118   -5.5766    0.8307 C   0  0  0  0  0  0  0  0  0  0  0  0
   -2.8368   -4.3935    0.6890 C   0  0  0  0  0  0  0  0  0  0  0  0
   -2.2226   -3.2552    0.1624 C   0  0  0  0  0  0  0  0  0  0  0  0
    1.7511   -0.4283   -1.3945 H   0  0  0  0  0  0  0  0  0  0  0  0
    4.2668    0.2954   -2.6045 H   0  0  0  0  0  0  0  0  0  0  0  0
    6.6453    0.2343   -1.8517 H   0  0  0  0  0  0  0  0  0  0  0  0
    7.1977    0.0798    0.5626 H   0  0  0  0  0  0  0  0  0  0  0  0
    5.3678   -0.0241    2.2691 H   0  0  0  0  0  0  0  0  0  0  0  0
   -0.8396    1.7483    0.9552 H   0  0  0  0  0  0  0  0  0  0  0  0
   -0.7309    3.7821   -0.0084 H   0  0  0  0  0  0  0  0  0  0  0  0
   -1.4802    6.0890    0.4197 H   0  0  0  0  0  0  0  0  0  0  0  0
   -3.8972    6.6411    0.4221 H   0  0  0  0  0  0  0  0  0  0  0  0
   -5.5796    4.8681   -0.0072 H   0  0  0  0  0  0  0  0  0  0  0  0
   -4.8511    2.5370   -0.4182 H   0  0  0  0  0  0  0  0  0  0  0  0
    0.8902   -4.5406   -0.3830 H   0  0  0  0  0  0  0  0  0  0  0  0
   -0.2095   -6.5511    0.5528 H   0  0  0  0  0  0  0  0  0  0  0  0
   -2.5928   -6.4618    1.2400 H   0  0  0  0  0  0  0  0  0  0  0  0
   -3.8825   -4.3565    0.9846 H   0  0  0  0  0  0  0  0  0  0  0  0
   -2.8044   -2.3428    0.0466 H   0  0  0  0  0  0  0  0  0  0  0  0
  1  2  2  0
  2  3  1  0
  3  4  2  3
  4  5  1  0
  5  6  2  3
  6  7  1  0
  7  8  1  0
  8  9  2  0
  9 10  1  0
 10 11  2  0
 11 12  1  0
 12 13  2  0
 13 14  1  0
  4 15  1  0
 15 16  1  0
 16 17  2  0
 16 18  1  0
 18 19  2  0
 19 20  1  0
 20 21  2  0
 21 22  1  0
 22 23  2  0
  2 24  1  0
 24 25  2  0
 25 26  1  0
 26 27  2  0
 27 28  1  0
 28 29  2  0
 14  6  1  0
 23 18  1  0
 29 24  1  0
 13  8  1  0
  7 30  1  0
  9 31  1  0
 10 32  1  0
 11 33  1  0
 12 34  1  0
 15 35  1  0
 19 36  1  0
 20 37  1  0
 21 38  1  0
 22 39  1  0
 23 40  1  0
 25 41  1  0
 26 42  1  0
 27 43  1  0
 28 44  1  0
 29 45  1  0
M  END
$$$$
