
     RDKit          3D

 34 36  0  0  0  0  0  0  0  0999 V2000
   -2.2418    1.9895    3.1888 C   0  0  0  0  0  0  0  0  0  0  0  0
   -2.6635    1.0669    2.1833 O   0  0  0  0  0  0  0  0  0  0  0  0
   -1.8549    1.0310    1.0941 C   0  0  0  0  0  0  0  0  0  0  0  0
   -0.8607    1.7237    0.9245 O   0  0  0  0  0  0  0  0  0  0  0  0
   -2.3208    0.0064    0.1131 C   0  0  0  0  0  0  0  0  0  0  0  0
   -3.5984   -0.5680    0.2384 C   0  0  0  0  0  0  0  0  0  0  0  0
   -4.0378   -1.5297   -0.6726 C   0  0  0  0  0  0  0  0  0  0  0  0
   -3.2094   -1.9264   -1.7173 C   0  0  0  0  0  0  0  0  0  0  0  0
   -1.9397   -1.3636   -1.8537 C   0  0  0  0  0  0  0  0  0  0  0  0
   -1.4770   -0.3902   -0.9522 C   0  0  0  0  0  0  0  0  0  0  0  0
   -0.1590    0.1123   -1.1212 N   0  0  0  0  0  0  0  0  0  0  0  0
    0.8644   -0.8377   -0.7078 C   0  0  0  0  0  0  0  0  0  0  0  0
    0.7874   -1.1000    0.7053 O   0  0  0  0  0  0  0  0  0  0  0  0
    1.9453   -0.7745    1.3479 C   0  0  0  0  0  0  0  0  0  0  0  0
    2.1843   -0.9249    2.5293 O   0  0  0  0  0  0  0  0  0  0  0  0
    2.8476   -0.2256    0.3472 C   0  0  0  0  0  0  0  0  0  0  0  0
    4.1327    0.2599    0.5150 C   0  0  0  0  0  0  0  0  0  0  0  0
    4.7916    0.7431   -0.6163 C   0  0  0  0  0  0  0  0  0  0  0  0
    4.1557    0.7300   -1.8700 C   0  0  0  0  0  0  0  0  0  0  0  0
    2.8558    0.2317   -2.0071 C   0  0  0  0  0  0  0  0  0  0  0  0
    2.2134   -0.2472   -0.8763 C   0  0  0  0  0  0  0  0  0  0  0  0
   -1.2493    1.7205    3.5642 H   0  0  0  0  0  0  0  0  0  0  0  0
   -2.9521    1.9344    4.0182 H   0  0  0  0  0  0  0  0  0  0  0  0
   -2.2450    3.0114    2.7969 H   0  0  0  0  0  0  0  0  0  0  0  0
   -4.2659   -0.2735    1.0449 H   0  0  0  0  0  0  0  0  0  0  0  0
   -5.0276   -1.9673   -0.5660 H   0  0  0  0  0  0  0  0  0  0  0  0
   -3.5510   -2.6731   -2.4301 H   0  0  0  0  0  0  0  0  0  0  0  0
   -1.3107   -1.6757   -2.6843 H   0  0  0  0  0  0  0  0  0  0  0  0
   -0.0590    0.9542   -0.5375 H   0  0  0  0  0  0  0  0  0  0  0  0
    0.7994   -1.7901   -1.2476 H   0  0  0  0  0  0  0  0  0  0  0  0
    4.6046    0.2670    1.4925 H   0  0  0  0  0  0  0  0  0  0  0  0
    5.8016    1.1377   -0.5280 H   0  0  0  0  0  0  0  0  0  0  0  0
    4.6799    1.1170   -2.7417 H   0  0  0  0  0  0  0  0  0  0  0  0
    2.3600    0.2305   -2.9739 H   0  0  0  0  0  0  0  0  0  0  0  0
  1  2  1  0
  2  3  1  0
  3  4  2  0
  3  5  1  0
  5  6  2  0
  6  7  1  0
  7  8  2  0
  8  9  1  0
  9 10  2  0
 10 11  1  0
 11 12  1  0
 12 13  1  0
 13 14  1  0
 14 15  2  0
 14 16  1  0
 16 17  2  0
 17 18  1  0
 18 19  2  0
 19 20  1  0
 20 21  2  0
 10  5  1  0
 21 12  1  0
 21 16  1  0
  1 22  1  0
  1 23  1  0
  1 24  1  0
  6 25  1  0
  7 26  1  0
  8 27  1  0
  9 28  1  0
 11 29  1  0
 12 30  1  0
 17 31  1  0
 18 32  1  0
 19 33  1  0
 20 34  1  0
M  END
$$$$
