
     RDKit          3D

 46 48  0  0  0  0  0  0  0  0999 V2000
    6.4053    1.6726    3.6236 C   0  0  0  0  0  0  0  0  0  0  0  0
    5.7120    2.0719    2.3574 C   0  0  0  0  0  0  0  0  0  0  0  0
    5.7903    3.1776    1.8414 O   0  0  0  0  0  0  0  0  0  0  0  0
    4.9822    1.0283    1.8743 O   0  0  0  0  0  0  0  0  0  0  0  0
    4.2802    1.3201    0.6587 C   0  0  0  0  0  0  0  0  0  0  0  0
    3.4835    0.0836    0.2635 C   0  0  0  0  0  0  0  0  0  0  0  0
    2.6854    0.3269   -1.0132 C   0  0  0  0  0  0  0  0  0  0  0  0
    1.9582   -0.8739   -1.4251 N   0  0  0  0  0  0  0  0  0  0  0  0
    0.8319   -1.3676   -0.7468 C   0  0  0  0  0  0  0  0  0  0  0  0
    0.0613   -0.5265    0.1102 C   0  0  0  0  0  0  0  0  0  0  0  0
   -1.1202   -0.9233    0.7863 C   0  0  0  0  0  0  0  0  0  0  0  0
   -2.0173    0.1576    1.8543 S   0  0  0  0  0  0  0  0  0  0  0  0
   -3.3685    0.6075    0.7809 C   0  0  0  0  0  0  0  0  0  0  0  0
   -3.2012    1.5933   -0.1958 C   0  0  0  0  0  0  0  0  0  0  0  0
   -4.2615    1.9376   -1.0390 C   0  0  0  0  0  0  0  0  0  0  0  0
   -5.4999    1.2960   -0.9190 C   0  0  0  0  0  0  0  0  0  0  0  0
   -6.6478    1.6876   -1.8021 C   0  0  0  0  0  0  0  0  0  0  0  0
   -5.6700    0.3261    0.0755 C   0  0  0  0  0  0  0  0  0  0  0  0
   -4.6101   -0.0177    0.9188 C   0  0  0  0  0  0  0  0  0  0  0  0
   -1.5360   -2.2551    0.5626 C   0  0  0  0  0  0  0  0  0  0  0  0
   -2.5726   -2.9432    1.0626 N   0  0  0  0  0  0  0  0  0  0  0  0
   -2.5069   -4.2024    0.5023 O   0  0  0  0  0  0  0  0  0  0  0  0
   -1.4228   -4.3265   -0.3433 N   0  0  0  0  0  0  0  0  0  0  0  0
   -0.8045   -3.1367   -0.3390 C   0  0  0  0  0  0  0  0  0  0  0  0
    0.3480   -2.6781   -1.0050 C   0  0  0  0  0  0  0  0  0  0  0  0
    1.0069   -3.5846   -1.9036 N   0  0  0  0  0  4  0  0  0  0  0  0
    0.3278   -4.1188   -2.7889 O   0  0  0  0  0  0  0  0  0  0  0  0
    2.2293   -3.7342   -1.7500 O   0  0  0  0  0  1  0  0  0  0  0  0
    7.0105    2.5093    3.9845 H   0  0  0  0  0  0  0  0  0  0  0  0
    5.6648    1.4217    4.3872 H   0  0  0  0  0  0  0  0  0  0  0  0
    7.0658    0.8227    3.4332 H   0  0  0  0  0  0  0  0  0  0  0  0
    3.6027    2.1667    0.8218 H   0  0  0  0  0  0  0  0  0  0  0  0
    5.0023    1.5725   -0.1275 H   0  0  0  0  0  0  0  0  0  0  0  0
    4.1663   -0.7655    0.1302 H   0  0  0  0  0  0  0  0  0  0  0  0
    2.8250   -0.2012    1.0930 H   0  0  0  0  0  0  0  0  0  0  0  0
    3.3798    0.5805   -1.8234 H   0  0  0  0  0  0  0  0  0  0  0  0
    2.0155    1.1878   -0.9167 H   0  0  0  0  0  0  0  0  0  0  0  0
    2.6024   -1.6165   -1.7215 H   0  0  0  0  0  0  0  0  0  0  0  0
    0.3823    0.5015    0.2746 H   0  0  0  0  0  0  0  0  0  0  0  0
   -2.2493    2.1060   -0.3083 H   0  0  0  0  0  0  0  0  0  0  0  0
   -4.1150    2.7108   -1.7905 H   0  0  0  0  0  0  0  0  0  0  0  0
   -7.3291    0.8440   -1.9554 H   0  0  0  0  0  0  0  0  0  0  0  0
   -7.2042    2.5133   -1.3482 H   0  0  0  0  0  0  0  0  0  0  0  0
   -6.2909    2.0003   -2.7888 H   0  0  0  0  0  0  0  0  0  0  0  0
   -6.6292   -0.1712    0.2009 H   0  0  0  0  0  0  0  0  0  0  0  0
   -4.7628   -0.7808    1.6794 H   0  0  0  0  0  0  0  0  0  0  0  0
  1  2  1  0
  2  3  2  0
  2  4  1  0
  4  5  1  0
  5  6  1  0
  6  7  1  0
  7  8  1  0
  8  9  1  0
  9 10  1  0
 10 11  2  0
 11 12  1  0
 12 13  1  0
 13 14  2  0
 14 15  1  0
 15 16  2  0
 16 17  1  0
 16 18  1  0
 18 19  2  0
 11 20  1  0
 20 21  2  0
 21 22  1  0
 22 23  1  0
 23 24  2  0
 24 25  1  0
 25 26  1  0
 26 27  2  0
 26 28  1  0
 25  9  2  0
 19 13  1  0
 24 20  1  0
  1 29  1  0
  1 30  1  0
  1 31  1  0
  5 32  1  0
  5 33  1  0
  6 34  1  0
  6 35  1  0
  7 36  1  0
  7 37  1  0
  8 38  1  0
 10 39  1  0
 14 40  1  0
 15 41  1  0
 17 42  1  0
 17 43  1  0
 17 44  1  0
 18 45  1  0
 19 46  1  0
M  CHG  2  26   1  28  -1
M  END
$$$$
