
     RDKit          3D

 61 64  0  0  0  0  0  0  0  0999 V2000
   -5.1141   -6.1005    0.9546 C   0  0  0  0  0  0  0  0  0  0  0  0
   -4.4884   -4.8396    1.2000 O   0  0  0  0  0  0  0  0  0  0  0  0
   -4.4941   -3.9989    0.1280 C   0  0  0  0  0  0  0  0  0  0  0  0
   -4.9816   -4.2563   -0.9624 O   0  0  0  0  0  0  0  0  0  0  0  0
   -3.8113   -2.7047    0.4974 C   0  0  0  0  0  0  0  0  0  0  0  0
   -3.7053   -1.7726   -0.7072 C   0  0  0  0  0  0  0  0  0  0  0  0
   -3.0318   -0.4734   -0.3486 C   0  0  0  0  0  0  0  0  0  0  0  0
   -1.7210   -0.1427   -0.4205 C   0  0  0  0  0  0  0  0  0  0  0  0
   -0.7423   -1.1384   -0.8978 C   0  0  0  0  0  0  0  0  0  0  0  0
    0.5593   -0.8459   -1.0935 C   0  0  0  0  0  0  0  0  0  0  0  0
    1.5361   -1.8732   -1.5830 C   0  0  0  0  0  0  0  0  0  0  0  0
    2.8691   -1.5978   -0.9248 C   0  0  0  0  0  0  0  0  0  0  0  0
    3.3677   -2.4046   -0.1389 O   0  0  0  0  0  0  0  0  0  0  0  0
    3.4917   -0.2305   -1.2489 C   0  0  0  0  0  0  0  0  0  0  0  0
    3.8124   -0.0800   -2.7441 C   0  0  0  0  0  0  0  0  0  0  0  0
    4.6427    0.0366   -0.4262 O   0  0  0  0  0  0  0  0  0  0  0  0
    5.7515   -0.7373   -0.5853 C   0  0  0  0  0  0  0  0  0  0  0  0
    5.8778   -1.5805   -1.4660 O   0  0  0  0  0  0  0  0  0  0  0  0
    6.7685   -0.4245    0.4031 C   0  0  0  0  0  0  0  0  0  0  0  0
    7.9967   -1.0477    0.5411 C   0  0  0  0  0  0  0  0  0  0  0  0
    8.7690   -0.5133    1.6117 C   0  0  0  0  0  0  0  0  0  0  0  0
    8.1092    0.5062    2.2592 C   0  0  0  0  0  0  0  0  0  0  0  0
    6.5733    0.8098    1.5777 S   0  0  0  0  0  0  0  0  0  0  0  0
    2.4875    0.8801   -0.9090 C   0  0  0  0  0  0  0  0  0  0  0  0
    2.8322    2.0565   -0.7740 O   0  0  0  0  0  0  0  0  0  0  0  0
    1.0420    0.4956   -0.7897 C   0  0  0  0  0  0  0  0  0  0  0  0
    0.1681    1.3991   -0.3148 C   0  0  0  0  0  0  0  0  0  0  0  0
   -1.1889    1.1356   -0.0961 N   0  0  0  0  0  0  0  0  0  0  0  0
   -1.9737    2.1599    0.5221 C   0  0  0  0  0  0  0  0  0  0  0  0
   -2.5732    1.9568    1.7732 C   0  0  0  0  0  0  0  0  0  0  0  0
   -3.3306    2.9678    2.3717 C   0  0  0  0  0  0  0  0  0  0  0  0
   -3.4963    4.2018    1.7403 C   0  0  0  0  0  0  0  0  0  0  0  0
   -4.2615    5.0995    2.4313 O   0  0  0  0  0  0  0  0  0  0  0  0
   -4.3709    6.4058    1.8802 C   0  0  0  0  0  0  0  0  0  0  0  0
   -2.8962    4.4187    0.5002 C   0  0  0  0  0  0  0  0  0  0  0  0
   -2.1374    3.4070   -0.1008 C   0  0  0  0  0  0  0  0  0  0  0  0
   -5.0289   -6.7060    1.8609 H   0  0  0  0  0  0  0  0  0  0  0  0
   -6.1765   -5.9601    0.7280 H   0  0  0  0  0  0  0  0  0  0  0  0
   -4.6084   -6.6281    0.1379 H   0  0  0  0  0  0  0  0  0  0  0  0
   -2.8095   -2.9425    0.8750 H   0  0  0  0  0  0  0  0  0  0  0  0
   -4.3897   -2.2279    1.2973 H   0  0  0  0  0  0  0  0  0  0  0  0
   -4.7100   -1.5407   -1.0842 H   0  0  0  0  0  0  0  0  0  0  0  0
   -3.2010   -2.2691   -1.5428 H   0  0  0  0  0  0  0  0  0  0  0  0
   -3.7421    0.2850   -0.0235 H   0  0  0  0  0  0  0  0  0  0  0  0
   -1.0901   -2.1440   -1.1081 H   0  0  0  0  0  0  0  0  0  0  0  0
    1.6511   -1.8277   -2.6701 H   0  0  0  0  0  0  0  0  0  0  0  0
    1.2205   -2.8899   -1.3231 H   0  0  0  0  0  0  0  0  0  0  0  0
    4.5494    0.7145   -2.9093 H   0  0  0  0  0  0  0  0  0  0  0  0
    4.2212   -1.0036   -3.1673 H   0  0  0  0  0  0  0  0  0  0  0  0
    2.9206    0.1644   -3.3345 H   0  0  0  0  0  0  0  0  0  0  0  0
    8.3199   -1.8585   -0.1025 H   0  0  0  0  0  0  0  0  0  0  0  0
    9.7558   -0.8597    1.8921 H   0  0  0  0  0  0  0  0  0  0  0  0
    8.4538    1.0893    3.1019 H   0  0  0  0  0  0  0  0  0  0  0  0
    0.4861    2.4000   -0.0283 H   0  0  0  0  0  0  0  0  0  0  0  0
   -2.4400    1.0120    2.2940 H   0  0  0  0  0  0  0  0  0  0  0  0
   -3.7880    2.7945    3.3426 H   0  0  0  0  0  0  0  0  0  0  0  0
   -4.8963    6.3853    0.9214 H   0  0  0  0  0  0  0  0  0  0  0  0
   -3.3871    6.8782    1.7824 H   0  0  0  0  0  0  0  0  0  0  0  0
   -4.9635    7.0104    2.5721 H   0  0  0  0  0  0  0  0  0  0  0  0
   -2.9999    5.3593   -0.0304 H   0  0  0  0  0  0  0  0  0  0  0  0
   -1.6832    3.5903   -1.0722 H   0  0  0  0  0  0  0  0  0  0  0  0
  1  2  1  0
  2  3  1  0
  3  4  2  0
  3  5  1  0
  5  6  1  0
  6  7  1  0
  7  8  2  3
  8  9  1  0
  9 10  2  0
 10 11  1  0
 11 12  1  0
 12 13  2  0
 12 14  1  0
 14 15  1  0
 14 16  1  0
 16 17  1  0
 17 18  2  0
 17 19  1  0
 19 20  2  0
 20 21  1  0
 21 22  2  0
 22 23  1  0
 14 24  1  0
 24 25  2  0
 24 26  1  0
 26 27  2  0
 27 28  1  0
 28 29  1  0
 29 30  2  0
 30 31  1  0
 31 32  2  0
 32 33  1  0
 33 34  1  0
 32 35  1  0
 35 36  2  0
 28  8  1  0
 36 29  1  0
 26 10  1  0
 23 19  1  0
  1 37  1  0
  1 38  1  0
  1 39  1  0
  5 40  1  0
  5 41  1  0
  6 42  1  0
  6 43  1  0
  7 44  1  0
  9 45  1  0
 11 46  1  0
 11 47  1  0
 15 48  1  0
 15 49  1  0
 15 50  1  0
 20 51  1  0
 21 52  1  0
 22 53  1  0
 27 54  1  0
 30 55  1  0
 31 56  1  0
 34 57  1  0
 34 58  1  0
 34 59  1  0
 35 60  1  0
 36 61  1  0
M  END
$$$$
