
     RDKit          3D

 54 58  0  0  0  0  0  0  0  0999 V2000
   -4.9968   -2.7123   -1.4314 C   0  0  0  0  0  0  0  0  0  0  0  0
   -5.1333   -2.0343   -0.0756 C   0  0  0  0  0  0  0  0  0  0  0  0
   -3.9168   -2.1595    0.8655 C   0  0  0  0  0  0  0  0  0  0  0  0
   -3.6234   -3.6085    1.2699 C   0  0  0  0  0  0  0  0  0  0  0  0
   -2.7398   -1.4327    0.3597 N   0  0  0  0  0  0  0  0  0  0  0  0
   -1.8634   -2.0138   -0.5510 C   0  0  0  0  0  0  0  0  0  0  0  0
   -0.8303   -1.4481   -1.1005 N   0  0  0  0  0  0  0  0  0  0  0  0
   -0.6538   -0.1660   -0.7086 C   0  0  0  0  0  0  0  0  0  0  0  0
   -1.4573    0.5613    0.1432 C   0  0  0  0  0  0  0  0  0  0  0  0
   -2.6169   -0.0744    0.7148 C   0  0  0  0  0  0  0  0  0  0  0  0
   -3.4244    0.5180    1.4244 O   0  0  0  0  0  0  0  0  0  0  0  0
   -0.9129    1.8553    0.2450 C   0  0  0  0  0  0  0  0  0  0  0  0
   -1.3151    2.9501    0.9358 N   0  0  0  0  0  0  0  0  0  0  0  0
   -0.5324    4.0291    0.7799 C   0  0  0  0  0  0  0  0  0  0  0  0
   -0.8750    5.1916    1.4583 C   0  0  0  0  0  0  0  0  0  0  0  0
   -0.1129    6.3553    1.3473 C   0  0  0  0  0  0  0  0  0  0  0  0
    1.0163    6.3583    0.5408 C   0  0  0  0  0  0  0  0  0  0  0  0
    1.3728    5.1974   -0.1473 C   0  0  0  0  0  0  0  0  0  0  0  0
    0.6244    4.0315   -0.0466 C   0  0  0  0  0  0  0  0  0  0  0  0
    1.0303    2.9528   -0.7390 N   0  0  0  0  0  0  0  0  0  0  0  0
    0.2278    1.8840   -0.5544 C   0  0  0  0  0  0  0  0  0  0  0  0
    0.3842    0.6376   -1.1114 N   0  0  0  0  0  0  0  0  0  0  0  0
    1.4556    0.2598   -2.0161 C   0  0  0  0  0  0  0  0  0  0  0  0
    2.6348   -0.3121   -1.2687 C   0  0  0  0  0  0  0  0  0  0  0  0
    2.7305   -1.6901   -1.0313 C   0  0  0  0  0  0  0  0  0  0  0  0
    3.8170   -2.2221   -0.3274 C   0  0  0  0  0  0  0  0  0  0  0  0
    4.8207   -1.3819    0.1536 C   0  0  0  0  0  0  0  0  0  0  0  0
    5.9303   -1.7702    0.8526 O   0  0  0  0  0  0  0  0  0  0  0  0
    6.0636   -3.1592    1.1250 C   0  0  0  0  0  0  0  0  0  0  0  0
    4.7247   -0.0075   -0.0733 C   0  0  0  0  0  0  0  0  0  0  0  0
    3.6416    0.5265   -0.7752 C   0  0  0  0  0  0  0  0  0  0  0  0
   -5.9274   -2.5979   -1.9974 H   0  0  0  0  0  0  0  0  0  0  0  0
   -4.8020   -3.7835   -1.3319 H   0  0  0  0  0  0  0  0  0  0  0  0
   -4.1970   -2.2632   -2.0265 H   0  0  0  0  0  0  0  0  0  0  0  0
   -6.0116   -2.4548    0.4303 H   0  0  0  0  0  0  0  0  0  0  0  0
   -5.3524   -0.9723   -0.2432 H   0  0  0  0  0  0  0  0  0  0  0  0
   -4.2145   -1.6639    1.7995 H   0  0  0  0  0  0  0  0  0  0  0  0
   -2.7783   -3.6484    1.9659 H   0  0  0  0  0  0  0  0  0  0  0  0
   -3.3813   -4.2506    0.4190 H   0  0  0  0  0  0  0  0  0  0  0  0
   -4.4926   -4.0467    1.7725 H   0  0  0  0  0  0  0  0  0  0  0  0
   -2.0916   -3.0564   -0.8128 H   0  0  0  0  0  0  0  0  0  0  0  0
   -1.7604    5.1887    2.0906 H   0  0  0  0  0  0  0  0  0  0  0  0
   -0.4044    7.2508    1.8903 H   0  0  0  0  0  0  0  0  0  0  0  0
    1.6205    7.2567    0.4443 H   0  0  0  0  0  0  0  0  0  0  0  0
    2.2584    5.2018   -0.7785 H   0  0  0  0  0  0  0  0  0  0  0  0
    1.0600   -0.4631   -2.7392 H   0  0  0  0  0  0  0  0  0  0  0  0
    1.7509    1.1433   -2.5943 H   0  0  0  0  0  0  0  0  0  0  0  0
    1.9509   -2.3608   -1.3886 H   0  0  0  0  0  0  0  0  0  0  0  0
    3.8444   -3.2948   -0.1702 H   0  0  0  0  0  0  0  0  0  0  0  0
    6.1470   -3.7370    0.1985 H   0  0  0  0  0  0  0  0  0  0  0  0
    5.2368   -3.5215    1.7448 H   0  0  0  0  0  0  0  0  0  0  0  0
    6.9899   -3.3016    1.6900 H   0  0  0  0  0  0  0  0  0  0  0  0
    5.4986    0.6558    0.3052 H   0  0  0  0  0  0  0  0  0  0  0  0
    3.5858    1.6031   -0.9263 H   0  0  0  0  0  0  0  0  0  0  0  0
  1  2  1  0
  2  3  1  0
  3  4  1  0
  3  5  1  0
  5  6  1  0
  6  7  2  0
  7  8  1  0
  8  9  2  0
  9 10  1  0
 10 11  2  0
  9 12  1  0
 12 13  2  0
 13 14  1  0
 14 15  2  0
 15 16  1  0
 16 17  2  0
 17 18  1  0
 18 19  2  0
 19 20  1  0
 20 21  2  0
 21 22  1  0
 22 23  1  0
 23 24  1  0
 24 25  2  0
 25 26  1  0
 26 27  2  0
 27 28  1  0
 28 29  1  0
 27 30  1  0
 30 31  2  0
 10  5  1  0
 21 12  1  0
 31 24  1  0
 22  8  1  0
 19 14  1  0
  1 32  1  0
  1 33  1  0
  1 34  1  0
  2 35  1  0
  2 36  1  0
  3 37  1  0
  4 38  1  0
  4 39  1  0
  4 40  1  0
  6 41  1  0
 15 42  1  0
 16 43  1  0
 17 44  1  0
 18 45  1  0
 23 46  1  0
 23 47  1  0
 25 48  1  0
 26 49  1  0
 29 50  1  0
 29 51  1  0
 29 52  1  0
 30 53  1  0
 31 54  1  0
M  END
$$$$
