
     RDKit          3D

 42 44  0  0  0  0  0  0  0  0999 V2000
   -6.3391    1.6736    0.1901 C   0  0  0  0  0  0  0  0  0  0  0  0
   -5.7767    0.4735    0.8076 N   0  0  0  0  0  0  0  0  0  0  0  0
   -6.7080   -0.6406    0.9786 C   0  0  0  0  0  0  0  0  0  0  0  0
   -4.4155    0.1956    0.6296 C   0  0  0  0  0  0  0  0  0  0  0  0
   -3.8599   -1.0568    0.9462 C   0  0  0  0  0  0  0  0  0  0  0  0
   -2.4937   -1.3375    0.7841 C   0  0  0  0  0  0  0  0  0  0  0  0
   -1.6234   -0.3636    0.2987 C   0  0  0  0  0  0  0  0  0  0  0  0
   -0.1853   -0.6056    0.1430 C   0  0  0  0  0  0  0  0  0  0  0  0
    0.2999   -1.6894   -0.4810 C   0  0  0  0  0  0  0  0  0  0  0  0
    1.7437   -1.9970   -0.6360 C   0  0  0  0  0  0  0  0  0  0  0  0
    2.0970   -3.1793   -0.6373 O   0  0  0  0  0  0  0  0  0  0  0  0
    2.7570   -0.9122   -0.7087 C   0  0  0  0  0  0  0  0  0  0  0  0
    3.9425   -1.1369   -0.1094 C   0  0  0  0  0  0  0  0  0  0  0  0
    4.2880   -2.3128    0.5351 O   0  0  0  0  0  0  0  0  0  0  0  0
    4.9699   -0.0961   -0.0884 C   0  0  0  0  0  0  0  0  0  0  0  0
    6.2108   -0.2527    0.5402 C   0  0  0  0  0  0  0  0  0  0  0  0
    7.1464    0.7877    0.5368 C   0  0  0  0  0  0  0  0  0  0  0  0
    6.8506    1.9962   -0.0945 C   0  0  0  0  0  0  0  0  0  0  0  0
    5.6203    2.1654   -0.7243 C   0  0  0  0  0  0  0  0  0  0  0  0
    4.7003    1.1175   -0.7118 C   0  0  0  0  0  0  0  0  0  0  0  0
    3.4796    1.3325   -1.3719 O   0  0  0  0  0  0  0  0  0  0  0  0
    2.5130    0.3389   -1.4555 C   0  0  0  0  0  0  0  0  0  0  0  0
    1.5066    0.5102   -2.1349 O   0  0  0  0  0  0  0  0  0  0  0  0
   -2.1391    0.8963    0.0047 C   0  0  0  0  0  0  0  0  0  0  0  0
   -3.5071    1.1650    0.1691 C   0  0  0  0  0  0  0  0  0  0  0  0
   -5.8770    2.5811    0.5933 H   0  0  0  0  0  0  0  0  0  0  0  0
   -6.2191    1.6502   -0.8987 H   0  0  0  0  0  0  0  0  0  0  0  0
   -7.4104    1.7646    0.4026 H   0  0  0  0  0  0  0  0  0  0  0  0
   -6.4872   -1.2060    1.8902 H   0  0  0  0  0  0  0  0  0  0  0  0
   -6.6835   -1.3116    0.1127 H   0  0  0  0  0  0  0  0  0  0  0  0
   -7.7381   -0.2838    1.0906 H   0  0  0  0  0  0  0  0  0  0  0  0
   -4.4774   -1.8582    1.3398 H   0  0  0  0  0  0  0  0  0  0  0  0
   -2.1281   -2.3240    1.0585 H   0  0  0  0  0  0  0  0  0  0  0  0
    0.4579    0.1669    0.5536 H   0  0  0  0  0  0  0  0  0  0  0  0
   -0.3580   -2.4650   -0.8626 H   0  0  0  0  0  0  0  0  0  0  0  0
    3.6405   -3.0114    0.2891 H   0  0  0  0  0  0  0  0  0  0  0  0
    6.4609   -1.1861    1.0410 H   0  0  0  0  0  0  0  0  0  0  0  0
    8.1066    0.6520    1.0292 H   0  0  0  0  0  0  0  0  0  0  0  0
    7.5799    2.8025   -0.0958 H   0  0  0  0  0  0  0  0  0  0  0  0
    5.3824    3.1011   -1.2219 H   0  0  0  0  0  0  0  0  0  0  0  0
   -1.4898    1.6866   -0.3663 H   0  0  0  0  0  0  0  0  0  0  0  0
   -3.8375    2.1693   -0.0771 H   0  0  0  0  0  0  0  0  0  0  0  0
  1  2  1  0
  2  3  1  0
  2  4  1  0
  4  5  2  0
  5  6  1  0
  6  7  2  0
  7  8  1  0
  8  9  2  3
  9 10  1  0
 10 11  2  0
 10 12  1  0
 12 13  2  0
 13 14  1  0
 13 15  1  0
 15 16  2  0
 16 17  1  0
 17 18  2  0
 18 19  1  0
 19 20  2  0
 20 21  1  0
 21 22  1  0
 22 23  2  0
  7 24  1  0
 24 25  2  0
 25  4  1  0
 22 12  1  0
 20 15  1  0
  1 26  1  0
  1 27  1  0
  1 28  1  0
  3 29  1  0
  3 30  1  0
  3 31  1  0
  5 32  1  0
  6 33  1  0
  8 34  1  0
  9 35  1  0
 14 36  1  0
 16 37  1  0
 17 38  1  0
 18 39  1  0
 19 40  1  0
 24 41  1  0
 25 42  1  0
M  END
$$$$
