
     RDKit          3D

 92 93  0  0  0  0  0  0  0  0999 V2000
   14.0178    0.5700    1.9231 C   0  0  0  0  0  0  0  0  0  0  0  0
   12.9140   -0.2344    1.2543 C   0  0  0  0  0  0  0  0  0  0  0  0
   11.6123    0.5627    1.1692 C   0  0  0  0  0  0  0  0  0  0  0  0
   10.5090   -0.2471    0.4843 C   0  0  0  0  0  0  0  0  0  0  0  0
    9.2119    0.5579    0.3717 C   0  0  0  0  0  0  0  0  0  0  0  0
    8.1068   -0.2585   -0.3024 C   0  0  0  0  0  0  0  0  0  0  0  0
    6.8380    0.5493   -0.5970 C   0  0  0  0  0  0  0  0  0  0  0  0
    6.1117    1.0300    0.6614 C   0  0  0  0  0  0  0  0  0  0  0  0
    4.8625    1.8648    0.3572 C   0  0  0  0  0  0  0  0  0  0  0  0
    3.7351    1.1433   -0.3899 C   0  0  0  0  0  0  0  0  0  0  0  0
    3.1264   -0.0178    0.4025 C   0  0  0  0  0  0  0  0  0  0  0  0
    1.9796   -0.7274   -0.3277 C   0  0  0  0  0  0  0  0  0  0  0  0
    0.7514    0.1610   -0.5556 C   0  0  0  0  0  0  0  0  0  0  0  0
   -0.4130   -0.5900   -1.2156 C   0  0  0  0  0  0  0  0  0  0  0  0
   -1.2160   -1.4422   -0.2326 C   0  0  0  0  0  0  0  0  0  0  0  0
   -2.0692   -2.5612   -0.8441 C   0  0  0  0  0  0  0  0  0  0  0  0
   -3.2470   -2.1576   -1.7595 N   0  0  0  0  0  4  0  0  0  0  0  0
   -2.7707   -1.6169   -3.0977 C   0  0  0  0  0  0  0  0  0  0  0  0
   -4.0285   -3.4625   -2.0272 C   0  0  0  0  0  0  0  0  0  0  0  0
   -4.1916   -1.1636   -1.0322 C   0  0  0  0  0  0  0  0  0  0  0  0
   -5.3555   -0.6190   -1.8999 C   0  0  0  0  0  0  0  0  0  0  0  0
   -6.4804   -0.2225   -1.0613 N   0  0  0  0  0  0  0  0  0  0  0  0
   -7.0553    1.1116   -1.2434 C   0  0  0  0  0  0  0  0  0  0  0  0
   -7.3095    1.8045    0.0789 C   0  0  0  0  0  0  0  0  0  0  0  0
   -6.2837    1.9821    1.0157 C   0  0  0  0  0  0  0  0  0  0  0  0
   -6.5330    2.6454    2.2202 C   0  0  0  0  0  0  0  0  0  0  0  0
   -7.8033    3.1486    2.5089 C   0  0  0  0  0  0  0  0  0  0  0  0
   -7.9086    3.7739    3.7197 O   0  0  0  0  0  0  0  0  0  0  0  0
   -9.1744    4.3368    4.0446 C   0  0  0  0  0  0  0  0  0  0  0  0
   -8.8279    2.9811    1.5798 C   0  0  0  0  0  0  0  0  0  0  0  0
   -8.5817    2.3137    0.3746 C   0  0  0  0  0  0  0  0  0  0  0  0
   -7.3861   -1.2448   -0.7747 C   0  0  0  0  0  0  0  0  0  0  0  0
   -6.9408   -2.5186   -0.8129 N   0  0  0  0  0  0  0  0  0  0  0  0
   -7.8269   -3.4925   -0.5025 C   0  0  0  0  0  0  0  0  0  0  0  0
   -9.1343   -3.2579   -0.1662 C   0  0  0  0  0  0  0  0  0  0  0  0
   -9.4992   -1.9394   -0.1621 C   0  0  0  0  0  0  0  0  0  0  0  0
   -8.6534   -0.9372   -0.4679 N   0  0  0  0  0  0  0  0  0  0  0  0
   13.7362    0.8495    2.9444 H   0  0  0  0  0  0  0  0  0  0  0  0
   14.2314    1.4854    1.3618 H   0  0  0  0  0  0  0  0  0  0  0  0
   14.9395   -0.0186    1.9722 H   0  0  0  0  0  0  0  0  0  0  0  0
   12.7494   -1.1588    1.8201 H   0  0  0  0  0  0  0  0  0  0  0  0
   13.2393   -0.5243    0.2482 H   0  0  0  0  0  0  0  0  0  0  0  0
   11.2888    0.8477    2.1774 H   0  0  0  0  0  0  0  0  0  0  0  0
   11.7864    1.4901    0.6106 H   0  0  0  0  0  0  0  0  0  0  0  0
   10.3230   -1.1673    1.0510 H   0  0  0  0  0  0  0  0  0  0  0  0
   10.8433   -0.5447   -0.5167 H   0  0  0  0  0  0  0  0  0  0  0  0
    9.3980    1.4729   -0.2027 H   0  0  0  0  0  0  0  0  0  0  0  0
    8.8926    0.8611    1.3741 H   0  0  0  0  0  0  0  0  0  0  0  0
    7.8566   -1.1273    0.3186 H   0  0  0  0  0  0  0  0  0  0  0  0
    8.4846   -0.6523   -1.2537 H   0  0  0  0  0  0  0  0  0  0  0  0
    6.1684   -0.0880   -1.1853 H   0  0  0  0  0  0  0  0  0  0  0  0
    7.0930    1.4088   -1.2286 H   0  0  0  0  0  0  0  0  0  0  0  0
    6.7872    1.6587    1.2526 H   0  0  0  0  0  0  0  0  0  0  0  0
    5.8525    0.1747    1.2951 H   0  0  0  0  0  0  0  0  0  0  0  0
    4.4650    2.2515    1.3037 H   0  0  0  0  0  0  0  0  0  0  0  0
    5.1610    2.7414   -0.2313 H   0  0  0  0  0  0  0  0  0  0  0  0
    2.9597    1.8887   -0.5995 H   0  0  0  0  0  0  0  0  0  0  0  0
    4.0886    0.7874   -1.3635 H   0  0  0  0  0  0  0  0  0  0  0  0
    2.7702    0.3449    1.3740 H   0  0  0  0  0  0  0  0  0  0  0  0
    3.9011   -0.7661    0.6069 H   0  0  0  0  0  0  0  0  0  0  0  0
    1.6962   -1.6031    0.2663 H   0  0  0  0  0  0  0  0  0  0  0  0
    2.3416   -1.1067   -1.2908 H   0  0  0  0  0  0  0  0  0  0  0  0
    0.4227    0.6084    0.3903 H   0  0  0  0  0  0  0  0  0  0  0  0
    1.0287    0.9859   -1.2214 H   0  0  0  0  0  0  0  0  0  0  0  0
   -1.0767    0.1682   -1.6420 H   0  0  0  0  0  0  0  0  0  0  0  0
   -0.0314   -1.2022   -2.0400 H   0  0  0  0  0  0  0  0  0  0  0  0
   -0.5177   -1.9390    0.4523 H   0  0  0  0  0  0  0  0  0  0  0  0
   -1.8231   -0.7936    0.4079 H   0  0  0  0  0  0  0  0  0  0  0  0
   -1.4365   -3.2461   -1.4210 H   0  0  0  0  0  0  0  0  0  0  0  0
   -2.5104   -3.1347   -0.0190 H   0  0  0  0  0  0  0  0  0  0  0  0
   -3.5921   -1.6780   -3.8173 H   0  0  0  0  0  0  0  0  0  0  0  0
   -1.9340   -2.2273   -3.4449 H   0  0  0  0  0  0  0  0  0  0  0  0
   -2.4823   -0.5734   -2.9811 H   0  0  0  0  0  0  0  0  0  0  0  0
   -4.8418   -3.2643   -2.7266 H   0  0  0  0  0  0  0  0  0  0  0  0
   -4.4144   -3.8393   -1.0767 H   0  0  0  0  0  0  0  0  0  0  0  0
   -3.3341   -4.1836   -2.4681 H   0  0  0  0  0  0  0  0  0  0  0  0
   -3.5810   -0.3093   -0.7232 H   0  0  0  0  0  0  0  0  0  0  0  0
   -4.5363   -1.6729   -0.1243 H   0  0  0  0  0  0  0  0  0  0  0  0
   -4.9686    0.2470   -2.4530 H   0  0  0  0  0  0  0  0  0  0  0  0
   -5.6833   -1.3201   -2.6743 H   0  0  0  0  0  0  0  0  0  0  0  0
   -6.3543    1.7568   -1.7909 H   0  0  0  0  0  0  0  0  0  0  0  0
   -7.9575    1.0771   -1.8693 H   0  0  0  0  0  0  0  0  0  0  0  0
   -5.2863    1.6040    0.8191 H   0  0  0  0  0  0  0  0  0  0  0  0
   -5.7319    2.7742    2.9435 H   0  0  0  0  0  0  0  0  0  0  0  0
   -9.4514    5.1215    3.3324 H   0  0  0  0  0  0  0  0  0  0  0  0
   -9.0911    4.7994    5.0335 H   0  0  0  0  0  0  0  0  0  0  0  0
   -9.9479    3.5639    4.1017 H   0  0  0  0  0  0  0  0  0  0  0  0
   -9.8317    3.3525    1.7602 H   0  0  0  0  0  0  0  0  0  0  0  0
   -9.3992    2.1849   -0.3314 H   0  0  0  0  0  0  0  0  0  0  0  0
   -7.4408   -4.5062   -0.5373 H   0  0  0  0  0  0  0  0  0  0  0  0
   -9.8270   -4.0507    0.0812 H   0  0  0  0  0  0  0  0  0  0  0  0
  -10.5088   -1.6342    0.0932 H   0  0  0  0  0  0  0  0  0  0  0  0
  1  2  1  0
  2  3  1  0
  3  4  1  0
  4  5  1  0
  5  6  1  0
  6  7  1  0
  7  8  1  0
  8  9  1  0
  9 10  1  0
 10 11  1  0
 11 12  1  0
 12 13  1  0
 13 14  1  0
 14 15  1  0
 15 16  1  0
 16 17  1  0
 17 18  1  0
 17 19  1  0
 17 20  1  0
 20 21  1  0
 21 22  1  0
 22 23  1  0
 23 24  1  0
 24 25  2  0
 25 26  1  0
 26 27  2  0
 27 28  1  0
 28 29  1  0
 27 30  1  0
 30 31  2  0
 22 32  1  0
 32 33  2  0
 33 34  1  0
 34 35  2  0
 35 36  1  0
 36 37  2  0
 31 24  1  0
 37 32  1  0
  1 38  1  0
  1 39  1  0
  1 40  1  0
  2 41  1  0
  2 42  1  0
  3 43  1  0
  3 44  1  0
  4 45  1  0
  4 46  1  0
  5 47  1  0
  5 48  1  0
  6 49  1  0
  6 50  1  0
  7 51  1  0
  7 52  1  0
  8 53  1  0
  8 54  1  0
  9 55  1  0
  9 56  1  0
 10 57  1  0
 10 58  1  0
 11 59  1  0
 11 60  1  0
 12 61  1  0
 12 62  1  0
 13 63  1  0
 13 64  1  0
 14 65  1  0
 14 66  1  0
 15 67  1  0
 15 68  1  0
 16 69  1  0
 16 70  1  0
 18 71  1  0
 18 72  1  0
 18 73  1  0
 19 74  1  0
 19 75  1  0
 19 76  1  0
 20 77  1  0
 20 78  1  0
 21 79  1  0
 21 80  1  0
 23 81  1  0
 23 82  1  0
 25 83  1  0
 26 84  1  0
 29 85  1  0
 29 86  1  0
 29 87  1  0
 30 88  1  0
 31 89  1  0
 34 90  1  0
 35 91  1  0
 36 92  1  0
M  CHG  1  17   1
M  END
$$$$
