
     RDKit          3D

 49 51  0  0  0  0  0  0  0  0999 V2000
   -9.5655    2.7222    2.7743 C   0  0  0  0  0  0  0  0  0  0  0  0
   -9.0754    1.3894    2.6927 O   0  0  0  0  0  0  0  0  0  0  0  0
   -7.7702    1.2343    2.3182 C   0  0  0  0  0  0  0  0  0  0  0  0
   -6.8772    2.2563    2.0034 C   0  0  0  0  0  0  0  0  0  0  0  0
   -5.5578    1.9578    1.6306 C   0  0  0  0  0  0  0  0  0  0  0  0
   -5.1152    0.6360    1.5683 C   0  0  0  0  0  0  0  0  0  0  0  0
   -3.8062    0.2462    1.2023 N   0  0  0  0  0  0  0  0  0  0  0  0
   -2.7547    1.0713    0.8373 C   0  0  0  0  0  0  0  0  0  0  0  0
   -2.8054    2.2971    0.7737 O   0  0  0  0  0  0  0  0  0  0  0  0
   -1.4697    0.3591    0.4950 C   0  0  0  0  0  0  0  0  0  0  0  0
   -1.3895   -1.0550    0.6028 C   0  0  0  0  0  0  0  0  0  0  0  0
   -1.4081   -2.2114    0.6989 N   0  0  0  0  0  0  0  0  0  0  0  0
   -0.4261    1.1196    0.1055 C   0  0  0  0  0  0  0  0  0  0  0  0
    0.9084    0.6297   -0.2607 C   0  0  0  0  0  0  0  0  0  0  0  0
    2.0172    1.0650    0.4695 C   0  0  0  0  0  0  0  0  0  0  0  0
    3.2995    0.6272    0.1279 C   0  0  0  0  0  0  0  0  0  0  0  0
    3.4943   -0.2417   -0.9481 C   0  0  0  0  0  0  0  0  0  0  0  0
    4.7980   -0.5862   -1.1728 O   0  0  0  0  0  0  0  0  0  0  0  0
    5.0589   -1.4795   -2.2580 C   0  0  0  0  0  0  0  0  0  0  0  0
    6.5410   -1.7292   -2.3903 C   0  0  0  0  0  0  0  0  0  0  0  0
    7.5021   -0.7948   -1.9778 C   0  0  0  0  0  0  0  0  0  0  0  0
    8.8649   -1.0516   -2.1552 C   0  0  0  0  0  0  0  0  0  0  0  0
    9.2834   -2.2380   -2.7573 C   0  0  0  0  0  0  0  0  0  0  0  0
    8.3381   -3.1667   -3.1871 C   0  0  0  0  0  0  0  0  0  0  0  0
    6.9828   -2.9040   -3.0063 C   0  0  0  0  0  0  0  0  0  0  0  0
    6.0886   -3.8027   -3.4442 F   0  0  0  0  0  0  0  0  0  0  0  0
    2.3904   -0.6699   -1.6849 C   0  0  0  0  0  0  0  0  0  0  0  0
    1.1040   -0.2314   -1.3461 C   0  0  0  0  0  0  0  0  0  0  0  0
   -6.0163   -0.3866    1.8871 C   0  0  0  0  0  0  0  0  0  0  0  0
   -7.3313   -0.0877    2.2576 C   0  0  0  0  0  0  0  0  0  0  0  0
   -9.5296    3.2168    1.7981 H   0  0  0  0  0  0  0  0  0  0  0  0
  -10.6139    2.6742    3.0843 H   0  0  0  0  0  0  0  0  0  0  0  0
   -9.0207    3.2973    3.5305 H   0  0  0  0  0  0  0  0  0  0  0  0
   -7.1678    3.3012    2.0356 H   0  0  0  0  0  0  0  0  0  0  0  0
   -4.9050    2.7930    1.3970 H   0  0  0  0  0  0  0  0  0  0  0  0
   -3.6572   -0.7567    1.2160 H   0  0  0  0  0  0  0  0  0  0  0  0
   -0.5224    2.2046    0.0633 H   0  0  0  0  0  0  0  0  0  0  0  0
    1.8983    1.7439    1.3111 H   0  0  0  0  0  0  0  0  0  0  0  0
    4.1553    0.9676    0.7065 H   0  0  0  0  0  0  0  0  0  0  0  0
    4.5497   -2.4315   -2.0644 H   0  0  0  0  0  0  0  0  0  0  0  0
    4.7069   -1.0428   -3.2006 H   0  0  0  0  0  0  0  0  0  0  0  0
    7.1956    0.1408   -1.5134 H   0  0  0  0  0  0  0  0  0  0  0  0
    9.6001   -0.3211   -1.8249 H   0  0  0  0  0  0  0  0  0  0  0  0
   10.3434   -2.4347   -2.8952 H   0  0  0  0  0  0  0  0  0  0  0  0
    8.6462   -4.0906   -3.6658 H   0  0  0  0  0  0  0  0  0  0  0  0
    2.4898   -1.3422   -2.5310 H   0  0  0  0  0  0  0  0  0  0  0  0
    0.2631   -0.5693   -1.9481 H   0  0  0  0  0  0  0  0  0  0  0  0
   -5.7162   -1.4309    1.8532 H   0  0  0  0  0  0  0  0  0  0  0  0
   -8.0190   -0.8942    2.5010 H   0  0  0  0  0  0  0  0  0  0  0  0
  1  2  1  0
  2  3  1  0
  3  4  2  0
  4  5  1  0
  5  6  2  0
  6  7  1  0
  7  8  1  0
  8  9  2  0
  8 10  1  0
 10 11  1  0
 11 12  3  0
 10 13  2  3
 13 14  1  0
 14 15  2  0
 15 16  1  0
 16 17  2  0
 17 18  1  0
 18 19  1  0
 19 20  1  0
 20 21  2  0
 21 22  1  0
 22 23  2  0
 23 24  1  0
 24 25  2  0
 25 26  1  0
 17 27  1  0
 27 28  2  0
  6 29  1  0
 29 30  2  0
 30  3  1  0
 28 14  1  0
 25 20  1  0
  1 31  1  0
  1 32  1  0
  1 33  1  0
  4 34  1  0
  5 35  1  0
  7 36  1  0
 13 37  1  0
 15 38  1  0
 16 39  1  0
 19 40  1  0
 19 41  1  0
 21 42  1  0
 22 43  1  0
 23 44  1  0
 24 45  1  0
 27 46  1  0
 28 47  1  0
 29 48  1  0
 30 49  1  0
M  END
$$$$
