
     RDKit          3D

 52 55  0  0  0  0  0  0  0  0999 V2000
   -0.6529   -2.2100   -1.0729 O   0  0  0  0  0  0  0  0  0  0  0  0
   -0.3499   -1.1842   -0.4650 C   0  0  0  0  0  0  0  0  0  0  0  0
   -1.3121   -0.4454    0.2105 N   0  0  0  0  0  0  0  0  0  0  0  0
   -2.6997   -0.8439    0.2433 C   0  0  0  0  0  0  0  0  0  0  0  0
   -2.9853   -1.9033    1.3067 C   0  0  0  0  0  0  0  0  0  0  0  0
   -4.4597   -1.7238    1.6720 C   0  0  0  0  0  0  0  0  0  0  0  0
   -4.9098   -0.4175    1.0215 C   0  0  0  0  0  0  0  0  0  0  0  0
   -3.6250    0.3003    0.6391 C   0  0  0  0  0  0  0  0  0  0  0  0
    1.1222   -0.6908   -0.2484 C   0  0  0  0  0  0  0  0  0  0  0  0
    2.1865   -0.9925   -1.3137 C   0  0  0  0  0  0  0  0  0  0  0  0
    3.3387   -0.1962   -1.4322 C   0  0  0  0  0  0  0  0  0  0  0  0
    4.3068   -0.5211   -2.3742 C   0  0  0  0  0  0  0  0  0  0  0  0
    4.2315   -1.5907   -3.1881 N   0  0  0  0  0  0  0  0  0  0  0  0
    3.1404   -2.3675   -3.0512 C   0  0  0  0  0  0  0  0  0  0  0  0
    2.1184   -2.1199   -2.1429 C   0  0  0  0  0  0  0  0  0  0  0  0
    1.1406    0.7222    0.2570 N   0  0  0  0  0  0  0  0  0  0  0  0
    0.8633    1.8606   -0.5564 C   0  0  0  0  0  0  0  0  0  0  0  0
    1.0614    3.0006   -0.1230 O   0  0  0  0  0  0  0  0  0  0  0  0
    0.3779    1.7337   -1.9284 C   0  0  0  0  0  0  0  0  0  0  0  0
    0.1553    2.7341   -2.8653 C   0  0  0  0  0  0  0  0  0  0  0  0
   -0.3264    2.1108   -4.0406 C   0  0  0  0  0  0  0  0  0  0  0  0
   -0.3768    0.7688   -3.7578 C   0  0  0  0  0  0  0  0  0  0  0  0
    0.0409    0.5370   -2.4882 O   0  0  0  0  0  0  0  0  0  0  0  0
    1.5049    0.9124    1.6482 C   0  0  0  0  0  0  0  0  0  0  0  0
    0.9019    1.9163    2.4222 C   0  0  0  0  0  0  0  0  0  0  0  0
    1.2214    2.0831    3.7739 C   0  0  0  0  0  0  0  0  0  0  0  0
    2.1554    1.2503    4.3791 C   0  0  0  0  0  0  0  0  0  0  0  0
    2.7762    0.2558    3.6297 C   0  0  0  0  0  0  0  0  0  0  0  0
    2.4543    0.0890    2.2777 C   0  0  0  0  0  0  0  0  0  0  0  0
   -0.9886    0.2374    0.8847 H   0  0  0  0  0  0  0  0  0  0  0  0
   -2.9832   -1.2298   -0.7447 H   0  0  0  0  0  0  0  0  0  0  0  0
   -2.3663   -1.7404    2.1985 H   0  0  0  0  0  0  0  0  0  0  0  0
   -2.7716   -2.9145    0.9449 H   0  0  0  0  0  0  0  0  0  0  0  0
   -5.0658   -2.5621    1.3123 H   0  0  0  0  0  0  0  0  0  0  0  0
   -4.5749   -1.6801    2.7608 H   0  0  0  0  0  0  0  0  0  0  0  0
   -5.4953   -0.6379    0.1209 H   0  0  0  0  0  0  0  0  0  0  0  0
   -5.5371    0.1844    1.6863 H   0  0  0  0  0  0  0  0  0  0  0  0
   -3.2287    0.8511    1.5015 H   0  0  0  0  0  0  0  0  0  0  0  0
   -3.7746    1.0169   -0.1746 H   0  0  0  0  0  0  0  0  0  0  0  0
    1.4120   -1.3516    0.5808 H   0  0  0  0  0  0  0  0  0  0  0  0
    3.5028    0.6765   -0.8084 H   0  0  0  0  0  0  0  0  0  0  0  0
    5.1968    0.0902   -2.4961 H   0  0  0  0  0  0  0  0  0  0  0  0
    3.1024   -3.2334   -3.7072 H   0  0  0  0  0  0  0  0  0  0  0  0
    1.2942   -2.8219   -2.1043 H   0  0  0  0  0  0  0  0  0  0  0  0
    0.3240    3.7930   -2.6994 H   0  0  0  0  0  0  0  0  0  0  0  0
   -0.6037    2.5801   -4.9726 H   0  0  0  0  0  0  0  0  0  0  0  0
   -0.6790   -0.1086   -4.3140 H   0  0  0  0  0  0  0  0  0  0  0  0
    0.1549    2.5835    1.9997 H   0  0  0  0  0  0  0  0  0  0  0  0
    0.7400    2.8709    4.3494 H   0  0  0  0  0  0  0  0  0  0  0  0
    2.4097    1.3832    5.4280 H   0  0  0  0  0  0  0  0  0  0  0  0
    3.5242   -0.3849    4.0920 H   0  0  0  0  0  0  0  0  0  0  0  0
    3.0075   -0.6701    1.7292 H   0  0  0  0  0  0  0  0  0  0  0  0
  1  2  2  0
  2  3  1  0
  3  4  1  0
  4  5  1  0
  5  6  1  0
  6  7  1  0
  7  8  1  0
  2  9  1  0
  9 10  1  0
 10 11  2  0
 11 12  1  0
 12 13  2  0
 13 14  1  0
 14 15  2  0
  9 16  1  0
 16 17  1  0
 17 18  2  0
 17 19  1  0
 19 20  2  0
 20 21  1  0
 21 22  2  0
 22 23  1  0
 16 24  1  0
 24 25  2  0
 25 26  1  0
 26 27  2  0
 27 28  1  0
 28 29  2  0
  8  4  1  0
 15 10  1  0
 23 19  1  0
 29 24  1  0
  3 30  1  0
  4 31  1  0
  5 32  1  0
  5 33  1  0
  6 34  1  0
  6 35  1  0
  7 36  1  0
  7 37  1  0
  8 38  1  0
  8 39  1  0
  9 40  1  0
 11 41  1  0
 12 42  1  0
 14 43  1  0
 15 44  1  0
 20 45  1  0
 21 46  1  0
 22 47  1  0
 25 48  1  0
 26 49  1  0
 27 50  1  0
 28 51  1  0
 29 52  1  0
M  END
$$$$
