
     RDKit          3D

 39 41  0  0  0  0  0  0  0  0999 V2000
    1.4696    3.7211   -2.5394 C   0  0  0  0  0  0  0  0  0  0  0  0
    0.1493    4.0375   -1.8575 C   0  0  0  0  0  0  0  0  0  0  0  0
   -1.1430    2.8260   -2.2950 S   0  0  0  0  0  0  0  0  0  0  0  0
   -0.7038    1.4346   -1.2591 C   0  0  0  0  0  0  0  0  0  0  0  0
   -1.3647    0.2397   -1.4538 C   0  0  0  0  0  0  0  0  0  0  0  0
   -1.0207   -0.8211   -0.6417 C   0  0  0  0  0  0  0  0  0  0  0  0
   -1.6131   -2.0583   -0.7773 N   0  0  0  0  0  0  0  0  0  0  0  0
   -1.2611   -3.1163    0.1659 C   0  0  0  0  0  0  0  0  0  0  0  0
   -2.2106   -4.2459   -0.2189 C   0  0  0  0  0  0  0  0  0  0  0  0
   -3.4792   -3.4958   -0.5918 C   0  0  0  0  0  0  0  0  0  0  0  0
   -2.9643   -2.2411   -1.2995 C   0  0  0  0  0  0  0  0  0  0  0  0
   -0.0578   -0.6773    0.2836 N   0  0  0  0  0  0  0  0  0  0  0  0
    0.5158    0.5275    0.4282 C   0  0  0  0  0  0  0  0  0  0  0  0
    1.5812    0.6673    1.4268 C   0  0  0  0  0  0  0  0  0  0  0  0
    2.8024    1.2681    1.0484 C   0  0  0  0  0  0  0  0  0  0  0  0
    3.8599    1.4151    1.9500 C   0  0  0  0  0  0  0  0  0  0  0  0
    3.7204    0.9680    3.2584 C   0  0  0  0  0  0  0  0  0  0  0  0
    2.5225    0.3825    3.6637 C   0  0  0  0  0  0  0  0  0  0  0  0
    1.4594    0.2347    2.7601 C   0  0  0  0  0  0  0  0  0  0  0  0
   -0.0022   -0.4464    3.3959 Cl  0  0  0  0  0  0  0  0  0  0  0  0
    0.2394    1.6026   -0.3238 N   0  0  0  0  0  0  0  0  0  0  0  0
    1.8768    2.7555   -2.2246 H   0  0  0  0  0  0  0  0  0  0  0  0
    2.2097    4.4878   -2.2867 H   0  0  0  0  0  0  0  0  0  0  0  0
    1.3636    3.7125   -3.6295 H   0  0  0  0  0  0  0  0  0  0  0  0
    0.2688    4.1103   -0.7721 H   0  0  0  0  0  0  0  0  0  0  0  0
   -0.1992    5.0170   -2.2020 H   0  0  0  0  0  0  0  0  0  0  0  0
   -2.1122    0.1406   -2.2287 H   0  0  0  0  0  0  0  0  0  0  0  0
   -0.2163   -3.4296    0.0687 H   0  0  0  0  0  0  0  0  0  0  0  0
   -1.4535   -2.8021    1.1993 H   0  0  0  0  0  0  0  0  0  0  0  0
   -1.8244   -4.7866   -1.0913 H   0  0  0  0  0  0  0  0  0  0  0  0
   -2.3626   -4.9621    0.5932 H   0  0  0  0  0  0  0  0  0  0  0  0
   -4.1526   -4.0840   -1.2215 H   0  0  0  0  0  0  0  0  0  0  0  0
   -4.0243   -3.2130    0.3171 H   0  0  0  0  0  0  0  0  0  0  0  0
   -2.9214   -2.3982   -2.3828 H   0  0  0  0  0  0  0  0  0  0  0  0
   -3.6290   -1.3962   -1.0871 H   0  0  0  0  0  0  0  0  0  0  0  0
    2.9330    1.6215    0.0258 H   0  0  0  0  0  0  0  0  0  0  0  0
    4.7892    1.8773    1.6261 H   0  0  0  0  0  0  0  0  0  0  0  0
    4.5391    1.0798    3.9648 H   0  0  0  0  0  0  0  0  0  0  0  0
    2.4159    0.0469    4.6927 H   0  0  0  0  0  0  0  0  0  0  0  0
  1  2  1  0
  2  3  1  0
  3  4  1  0
  4  5  2  0
  5  6  1  0
  6  7  1  0
  7  8  1  0
  8  9  1  0
  9 10  1  0
 10 11  1  0
  6 12  2  0
 12 13  1  0
 13 14  1  0
 14 15  2  0
 15 16  1  0
 16 17  2  0
 17 18  1  0
 18 19  2  0
 19 20  1  0
 13 21  2  0
 21  4  1  0
 11  7  1  0
 19 14  1  0
  1 22  1  0
  1 23  1  0
  1 24  1  0
  2 25  1  0
  2 26  1  0
  5 27  1  0
  8 28  1  0
  8 29  1  0
  9 30  1  0
  9 31  1  0
 10 32  1  0
 10 33  1  0
 11 34  1  0
 11 35  1  0
 15 36  1  0
 16 37  1  0
 17 38  1  0
 18 39  1  0
M  END
$$$$
