
     RDKit          3D

 74 78  0  0  0  0  0  0  0  0999 V2000
   -2.5780    6.3227   -1.3961 C   0  0  0  0  0  0  0  0  0  0  0  0
   -1.7953    5.0832   -1.0776 C   0  0  0  0  0  0  0  0  0  0  0  0
   -1.9118    3.9492   -1.8841 C   0  0  0  0  0  0  0  0  0  0  0  0
   -1.2107    2.7708   -1.5852 C   0  0  0  0  0  0  0  0  0  0  0  0
   -1.3940    1.5858   -2.4947 C   0  0  0  0  0  0  0  0  0  0  0  0
   -0.3572    2.7434   -0.4598 C   0  0  0  0  0  0  0  0  0  0  0  0
    0.3914    1.5646   -0.1897 N   0  0  0  0  0  0  0  0  0  0  0  0
   -0.0102    0.6460    0.7723 C   0  0  0  0  0  0  0  0  0  0  0  0
    0.6195   -0.4015    0.9592 O   0  0  0  0  0  0  0  0  0  0  0  0
   -1.2945    0.9443    1.5649 C   0  0  0  0  0  0  0  0  0  0  0  0
   -1.7588   -0.2729    2.2468 N   0  0  0  0  0  0  0  0  0  0  0  0
   -1.0282   -0.8947    3.2893 C   0  0  0  0  0  0  0  0  0  0  0  0
   -0.2742   -0.3236    4.0538 O   0  0  0  0  0  0  0  0  0  0  0  0
   -1.3069   -2.3422    3.2863 C   0  0  0  0  0  0  0  0  0  0  0  0
   -0.7813   -3.2804    4.1605 C   0  0  0  0  0  0  0  0  0  0  0  0
   -1.1507   -4.6179    3.9871 C   0  0  0  0  0  0  0  0  0  0  0  0
   -2.0329   -4.9953    2.9561 C   0  0  0  0  0  0  0  0  0  0  0  0
   -2.5575   -4.0418    2.0807 C   0  0  0  0  0  0  0  0  0  0  0  0
   -2.1691   -2.7295    2.2698 C   0  0  0  0  0  0  0  0  0  0  0  0
   -2.6699   -1.3555    1.3325 S   0  0  0  0  0  6  0  0  0  0  0  0
   -2.1259   -1.4513   -0.0007 O   0  0  0  0  0  0  0  0  0  0  0  0
   -4.0705   -1.1130    1.5889 O   0  0  0  0  0  0  0  0  0  0  0  0
    1.6503    1.3936   -0.9699 C   0  0  0  0  0  0  0  0  0  0  0  0
    1.7235    0.2109   -1.9823 C   0  0  0  0  0  0  0  0  0  0  0  0
    2.4857    0.2484   -2.9525 O   0  0  0  0  0  0  0  0  0  0  0  0
    0.9636   -0.9067   -1.7149 N   0  0  0  0  0  0  0  0  0  0  0  0
    1.0762   -2.1002   -2.5342 C   0  0  0  0  0  0  0  0  0  0  0  0
   -0.0630   -3.0799   -2.2613 C   0  0  0  0  0  0  0  0  0  0  0  0
   -0.1116   -4.2307   -3.2504 C   0  0  0  0  0  0  0  0  0  0  0  0
   -0.8625   -5.2717   -2.4607 C   0  0  0  0  0  0  0  0  0  0  0  0
   -0.3142   -5.0673   -1.0652 C   0  0  0  0  0  0  0  0  0  0  0  0
    0.0875   -3.6931   -0.9627 O   0  0  0  0  0  0  0  0  0  0  0  0
    2.9127    1.5184   -0.1115 C   0  0  0  0  0  0  0  0  0  0  0  0
    3.4945    2.7848    0.0880 C   0  0  0  0  0  0  0  0  0  0  0  0
    4.6346    2.9316    0.8804 C   0  0  0  0  0  0  0  0  0  0  0  0
    5.2049    1.8135    1.4718 C   0  0  0  0  0  0  0  0  0  0  0  0
    6.2980    1.9538    2.2330 F   0  0  0  0  0  0  0  0  0  0  0  0
    4.6577    0.5527    1.2852 C   0  0  0  0  0  0  0  0  0  0  0  0
    3.5145    0.4046    0.4971 C   0  0  0  0  0  0  0  0  0  0  0  0
   -0.2570    3.8691    0.3847 C   0  0  0  0  0  0  0  0  0  0  0  0
    0.6068    3.9317    1.6154 C   0  0  0  0  0  0  0  0  0  0  0  0
   -0.9832    5.0279    0.0585 C   0  0  0  0  0  0  0  0  0  0  0  0
   -2.0618    7.2152   -1.0266 H   0  0  0  0  0  0  0  0  0  0  0  0
   -2.6937    6.4426   -2.4781 H   0  0  0  0  0  0  0  0  0  0  0  0
   -3.5691    6.2700   -0.9360 H   0  0  0  0  0  0  0  0  0  0  0  0
   -2.5604    3.9826   -2.7585 H   0  0  0  0  0  0  0  0  0  0  0  0
   -2.3183    1.6749   -3.0777 H   0  0  0  0  0  0  0  0  0  0  0  0
   -1.4764    0.6580   -1.9208 H   0  0  0  0  0  0  0  0  0  0  0  0
   -0.5582    1.5164   -3.1971 H   0  0  0  0  0  0  0  0  0  0  0  0
   -1.0871    1.7114    2.3172 H   0  0  0  0  0  0  0  0  0  0  0  0
   -2.0896    1.3128    0.9099 H   0  0  0  0  0  0  0  0  0  0  0  0
   -0.0969   -2.9851    4.9498 H   0  0  0  0  0  0  0  0  0  0  0  0
   -0.7485   -5.3782    4.6551 H   0  0  0  0  0  0  0  0  0  0  0  0
   -2.3035   -6.0434    2.8409 H   0  0  0  0  0  0  0  0  0  0  0  0
   -3.2363   -4.3196    1.2807 H   0  0  0  0  0  0  0  0  0  0  0  0
    1.6842    2.2562   -1.6558 H   0  0  0  0  0  0  0  0  0  0  0  0
    0.7073   -1.0650   -0.7395 H   0  0  0  0  0  0  0  0  0  0  0  0
    2.0459   -2.5553   -2.3025 H   0  0  0  0  0  0  0  0  0  0  0  0
    1.0744   -1.7961   -3.5860 H   0  0  0  0  0  0  0  0  0  0  0  0
   -1.0247   -2.5509   -2.2633 H   0  0  0  0  0  0  0  0  0  0  0  0
   -0.6048   -3.9629   -4.1886 H   0  0  0  0  0  0  0  0  0  0  0  0
    0.8960   -4.5972   -3.4783 H   0  0  0  0  0  0  0  0  0  0  0  0
   -1.9348   -5.0452   -2.4742 H   0  0  0  0  0  0  0  0  0  0  0  0
   -0.7248   -6.2917   -2.8285 H   0  0  0  0  0  0  0  0  0  0  0  0
    0.5676   -5.6904   -0.8818 H   0  0  0  0  0  0  0  0  0  0  0  0
   -1.0594   -5.2900   -0.2976 H   0  0  0  0  0  0  0  0  0  0  0  0
    3.0564    3.6695   -0.3684 H   0  0  0  0  0  0  0  0  0  0  0  0
    5.0777    3.9080    1.0404 H   0  0  0  0  0  0  0  0  0  0  0  0
    5.1180   -0.3101    1.7551 H   0  0  0  0  0  0  0  0  0  0  0  0
    3.0987   -0.5929    0.3722 H   0  0  0  0  0  0  0  0  0  0  0  0
    0.0071    4.2532    2.4733 H   0  0  0  0  0  0  0  0  0  0  0  0
    1.4205    4.6471    1.4632 H   0  0  0  0  0  0  0  0  0  0  0  0
    1.0489    2.9698    1.8829 H   0  0  0  0  0  0  0  0  0  0  0  0
   -0.9065    5.9044    0.7021 H   0  0  0  0  0  0  0  0  0  0  0  0
  1  2  1  0
  2  3  2  0
  3  4  1  0
  4  5  1  0
  4  6  2  0
  6  7  1  0
  7  8  1  0
  8  9  2  0
  8 10  1  0
 10 11  1  0
 11 12  1  0
 12 13  2  0
 12 14  1  0
 14 15  2  0
 15 16  1  0
 16 17  2  0
 17 18  1  0
 18 19  2  0
 19 20  1  0
 20 21  2  0
 20 22  2  0
  7 23  1  0
 23 24  1  0
 24 25  2  0
 24 26  1  0
 26 27  1  0
 27 28  1  0
 28 29  1  0
 29 30  1  0
 30 31  1  0
 31 32  1  0
 23 33  1  0
 33 34  2  0
 34 35  1  0
 35 36  2  0
 36 37  1  0
 36 38  1  0
 38 39  2  0
  6 40  1  0
 40 41  1  0
 40 42  2  0
 42  2  1  0
 20 11  1  0
 32 28  1  0
 39 33  1  0
 19 14  1  0
  1 43  1  0
  1 44  1  0
  1 45  1  0
  3 46  1  0
  5 47  1  0
  5 48  1  0
  5 49  1  0
 10 50  1  0
 10 51  1  0
 15 52  1  0
 16 53  1  0
 17 54  1  0
 18 55  1  0
 23 56  1  0
 26 57  1  0
 27 58  1  0
 27 59  1  0
 28 60  1  0
 29 61  1  0
 29 62  1  0
 30 63  1  0
 30 64  1  0
 31 65  1  0
 31 66  1  0
 34 67  1  0
 35 68  1  0
 38 69  1  0
 39 70  1  0
 41 71  1  0
 41 72  1  0
 41 73  1  0
 42 74  1  0
M  END
$$$$
