
     RDKit          3D

 51 53  0  0  0  0  0  0  0  0999 V2000
   -8.7664   -1.1481    0.2450 C   0  0  0  0  0  0  0  0  0  0  0  0
   -7.2825   -0.9022    0.2320 C   0  0  0  0  0  0  0  0  0  0  0  0
   -6.5533   -1.0515    1.4196 C   0  0  0  0  0  0  0  0  0  0  0  0
   -5.1769   -0.8227    1.4429 C   0  0  0  0  0  0  0  0  0  0  0  0
   -4.5011   -0.4403    0.2855 C   0  0  0  0  0  0  0  0  0  0  0  0
   -3.1556   -0.2552    0.4480 O   0  0  0  0  0  0  0  0  0  0  0  0
   -2.4079    0.1117   -0.7094 C   0  0  0  0  0  0  0  0  0  0  0  0
   -0.9975    0.2384   -0.2782 C   0  0  0  0  0  0  0  0  0  0  0  0
   -0.3466    0.9775    0.6771 C   0  0  0  0  0  0  0  0  0  0  0  0
    1.0270    0.6213    0.5523 C   0  0  0  0  0  0  0  0  0  0  0  0
    2.1248    1.1832    1.3620 C   0  0  0  0  0  0  0  0  0  0  0  0
    1.9002    2.1898    2.0402 O   0  0  0  0  0  0  0  0  0  0  0  0
    3.3995    0.5883    1.3812 N   0  0  0  0  0  0  0  0  0  0  0  0
    4.4132    1.2217    2.2118 C   0  0  0  0  0  0  0  0  0  0  0  0
    3.7174   -0.7587    0.8851 C   0  0  0  0  0  0  0  0  0  0  0  0
    4.2686   -0.7803   -0.5506 C   0  0  0  0  0  0  0  0  0  0  0  0
    5.7018   -0.3155   -0.6641 C   0  0  0  0  0  0  0  0  0  0  0  0
    5.9955    0.9729   -1.1328 C   0  0  0  0  0  0  0  0  0  0  0  0
    7.3185    1.4059   -1.2292 C   0  0  0  0  0  0  0  0  0  0  0  0
    8.3597    0.5573   -0.8582 C   0  0  0  0  0  0  0  0  0  0  0  0
    8.0792   -0.7256   -0.3907 C   0  0  0  0  0  0  0  0  0  0  0  0
    6.7567   -1.1616   -0.2938 C   0  0  0  0  0  0  0  0  0  0  0  0
    1.1762   -0.2627   -0.4485 N   0  0  0  0  0  0  0  0  0  0  0  0
   -0.0841   -0.5062   -0.9526 O   0  0  0  0  0  0  0  0  0  0  0  0
   -5.2194   -0.2811   -0.9005 C   0  0  0  0  0  0  0  0  0  0  0  0
   -6.6098   -0.5017   -0.9395 C   0  0  0  0  0  0  0  0  0  0  0  0
   -7.3472   -0.3192   -2.2398 C   0  0  0  0  0  0  0  0  0  0  0  0
   -9.3061   -0.2061    0.1063 H   0  0  0  0  0  0  0  0  0  0  0  0
   -9.0919   -1.5863    1.1951 H   0  0  0  0  0  0  0  0  0  0  0  0
   -9.0475   -1.8509   -0.5464 H   0  0  0  0  0  0  0  0  0  0  0  0
   -7.0511   -1.3517    2.3396 H   0  0  0  0  0  0  0  0  0  0  0  0
   -4.6278   -0.9473    2.3731 H   0  0  0  0  0  0  0  0  0  0  0  0
   -2.4986   -0.6594   -1.4837 H   0  0  0  0  0  0  0  0  0  0  0  0
   -2.7512    1.0779   -1.0971 H   0  0  0  0  0  0  0  0  0  0  0  0
   -0.7832    1.6752    1.3771 H   0  0  0  0  0  0  0  0  0  0  0  0
    5.4108    1.0323    1.8106 H   0  0  0  0  0  0  0  0  0  0  0  0
    4.3440    0.8011    3.2202 H   0  0  0  0  0  0  0  0  0  0  0  0
    4.2622    2.3034    2.2693 H   0  0  0  0  0  0  0  0  0  0  0  0
    4.4313   -1.2183    1.5810 H   0  0  0  0  0  0  0  0  0  0  0  0
    2.8195   -1.3803    0.9477 H   0  0  0  0  0  0  0  0  0  0  0  0
    3.6451   -0.1779   -1.2207 H   0  0  0  0  0  0  0  0  0  0  0  0
    4.2175   -1.8083   -0.9336 H   0  0  0  0  0  0  0  0  0  0  0  0
    5.1924    1.6480   -1.4216 H   0  0  0  0  0  0  0  0  0  0  0  0
    7.5358    2.4058   -1.5949 H   0  0  0  0  0  0  0  0  0  0  0  0
    9.3897    0.8945   -0.9356 H   0  0  0  0  0  0  0  0  0  0  0  0
    8.8915   -1.3887   -0.1042 H   0  0  0  0  0  0  0  0  0  0  0  0
    6.5547   -2.1680    0.0685 H   0  0  0  0  0  0  0  0  0  0  0  0
   -4.7232    0.0157   -1.8184 H   0  0  0  0  0  0  0  0  0  0  0  0
   -7.7441   -1.2789   -2.5867 H   0  0  0  0  0  0  0  0  0  0  0  0
   -6.6909    0.0725   -3.0247 H   0  0  0  0  0  0  0  0  0  0  0  0
   -8.1687    0.3938   -2.1157 H   0  0  0  0  0  0  0  0  0  0  0  0
  1  2  1  0
  2  3  2  0
  3  4  1  0
  4  5  2  0
  5  6  1  0
  6  7  1  0
  7  8  1  0
  8  9  2  0
  9 10  1  0
 10 11  1  0
 11 12  2  0
 11 13  1  0
 13 14  1  0
 13 15  1  0
 15 16  1  0
 16 17  1  0
 17 18  2  0
 18 19  1  0
 19 20  2  0
 20 21  1  0
 21 22  2  0
 10 23  2  0
 23 24  1  0
  5 25  1  0
 25 26  2  0
 26 27  1  0
 26  2  1  0
 24  8  1  0
 22 17  1  0
  1 28  1  0
  1 29  1  0
  1 30  1  0
  3 31  1  0
  4 32  1  0
  7 33  1  0
  7 34  1  0
  9 35  1  0
 14 36  1  0
 14 37  1  0
 14 38  1  0
 15 39  1  0
 15 40  1  0
 16 41  1  0
 16 42  1  0
 18 43  1  0
 19 44  1  0
 20 45  1  0
 21 46  1  0
 22 47  1  0
 25 48  1  0
 27 49  1  0
 27 50  1  0
 27 51  1  0
M  END
$$$$
