
     RDKit          3D

 41 44  0  0  0  0  0  0  0  0999 V2000
    1.2468   -2.1286   -2.9108 O   0  0  0  0  0  0  0  0  0  0  0  0
    1.2731   -1.3625   -1.9479 C   0  0  0  0  0  0  0  0  0  0  0  0
    2.5186   -0.9670   -1.3275 C   0  0  0  0  0  0  0  0  0  0  0  0
    3.4333   -2.1464   -0.5062 S   0  0  0  0  0  0  0  0  0  0  0  0
    4.6575   -1.0136   -0.0816 C   0  0  0  0  0  0  0  0  0  0  0  0
    5.8184   -1.2726    0.6741 C   0  0  0  0  0  0  0  0  0  0  0  0
    6.7148   -0.2309    0.9191 C   0  0  0  0  0  0  0  0  0  0  0  0
    6.4682    1.0406    0.4240 C   0  0  0  0  0  0  0  0  0  0  0  0
    5.3159    1.2932   -0.3264 C   0  0  0  0  0  0  0  0  0  0  0  0
    4.3800    0.2588   -0.5915 C   0  0  0  0  0  0  0  0  0  0  0  0
    3.1407    0.2610   -1.3255 C   0  0  0  0  0  0  0  0  0  0  0  0
    2.5394    1.6677   -2.1096 Cl  0  0  0  0  0  0  0  0  0  0  0  0
    0.0941   -0.8449   -1.4115 N   0  0  0  0  0  0  0  0  0  0  0  0
   -1.1703   -1.1588   -2.0796 C   0  0  0  0  0  0  0  0  0  0  0  0
   -2.3060   -0.1852   -1.7186 C   0  0  0  0  0  0  0  0  0  0  0  0
   -2.5031   -0.1064   -0.2602 N   0  0  0  0  0  0  0  0  0  0  0  0
   -3.7062    0.3417    0.2764 C   0  0  0  0  0  0  0  0  0  0  0  0
   -4.0474    0.0662    1.6140 C   0  0  0  0  0  0  0  0  0  0  0  0
   -5.2553    0.4966    2.1816 C   0  0  0  0  0  0  0  0  0  0  0  0
   -6.1674    1.2202    1.4227 C   0  0  0  0  0  0  0  0  0  0  0  0
   -5.8690    1.5087    0.0972 C   0  0  0  0  0  0  0  0  0  0  0  0
   -4.6627    1.0740   -0.4589 C   0  0  0  0  0  0  0  0  0  0  0  0
   -4.4313    1.4132   -1.7382 F   0  0  0  0  0  0  0  0  0  0  0  0
   -1.3334   -0.3608    0.5957 C   0  0  0  0  0  0  0  0  0  0  0  0
   -0.0088   -0.1015   -0.1494 C   0  0  0  0  0  0  0  0  0  0  0  0
    6.0178   -2.2694    1.0585 H   0  0  0  0  0  0  0  0  0  0  0  0
    7.6148   -0.4217    1.4994 H   0  0  0  0  0  0  0  0  0  0  0  0
    7.1739    1.8456    0.6159 H   0  0  0  0  0  0  0  0  0  0  0  0
    5.1417    2.2965   -0.7097 H   0  0  0  0  0  0  0  0  0  0  0  0
   -1.0195   -1.1671   -3.1650 H   0  0  0  0  0  0  0  0  0  0  0  0
   -1.4423   -2.1775   -1.7762 H   0  0  0  0  0  0  0  0  0  0  0  0
   -2.0653    0.8130   -2.1042 H   0  0  0  0  0  0  0  0  0  0  0  0
   -3.2148   -0.5443   -2.2156 H   0  0  0  0  0  0  0  0  0  0  0  0
   -3.3829   -0.5215    2.2418 H   0  0  0  0  0  0  0  0  0  0  0  0
   -5.4802    0.2555    3.2178 H   0  0  0  0  0  0  0  0  0  0  0  0
   -7.1041    1.5544    1.8599 H   0  0  0  0  0  0  0  0  0  0  0  0
   -6.5625    2.0747   -0.5165 H   0  0  0  0  0  0  0  0  0  0  0  0
   -1.3647   -1.4035    0.9340 H   0  0  0  0  0  0  0  0  0  0  0  0
   -1.3410    0.2862    1.4811 H   0  0  0  0  0  0  0  0  0  0  0  0
    0.0610    0.9622   -0.4047 H   0  0  0  0  0  0  0  0  0  0  0  0
    0.8284   -0.3459    0.5104 H   0  0  0  0  0  0  0  0  0  0  0  0
  1  2  2  0
  2  3  1  0
  3  4  1  0
  4  5  1  0
  5  6  2  0
  6  7  1  0
  7  8  2  0
  8  9  1  0
  9 10  2  0
 10 11  1  0
 11 12  1  0
  2 13  1  0
 13 14  1  0
 14 15  1  0
 15 16  1  0
 16 17  1  0
 17 18  2  0
 18 19  1  0
 19 20  2  0
 20 21  1  0
 21 22  2  0
 22 23  1  0
 16 24  1  0
 24 25  1  0
 11  3  2  0
 25 13  1  0
 10  5  1  0
 22 17  1  0
  6 26  1  0
  7 27  1  0
  8 28  1  0
  9 29  1  0
 14 30  1  0
 14 31  1  0
 15 32  1  0
 15 33  1  0
 18 34  1  0
 19 35  1  0
 20 36  1  0
 21 37  1  0
 24 38  1  0
 24 39  1  0
 25 40  1  0
 25 41  1  0
M  END
$$$$
