
     RDKit          3D

 34 36  0  0  0  0  0  0  0  0999 V2000
   -5.2271    1.4806    0.2809 C   0  0  0  0  0  0  0  0  0  0  0  0
   -4.0268    0.6414    0.0096 C   0  0  0  0  0  0  0  0  0  0  0  0
   -2.7028    1.0195   -0.0107 C   0  0  0  0  0  0  0  0  0  0  0  0
   -1.8052   -0.0680   -0.3093 C   0  0  0  0  0  0  0  0  0  0  0  0
   -0.2939    0.0612   -0.4065 C   0  0  0  0  0  0  0  0  0  0  0  0
    0.1319    1.1833   -1.3300 C   0  0  0  0  0  0  0  0  0  0  0  0
    1.3838    0.8325   -2.0651 C   0  0  0  0  0  0  0  0  0  0  0  0
    1.4402    0.9882   -3.2904 O   0  0  0  0  0  0  0  0  0  0  0  0
    2.5039    0.3847   -1.4541 N   0  0  0  0  0  0  0  0  0  0  0  0
    2.8911    0.0965   -0.1304 C   0  0  0  0  0  0  0  0  0  0  0  0
    4.2617   -0.2361   -0.0209 C   0  0  0  0  0  0  0  0  0  0  0  0
    4.8622   -0.5311    1.2029 C   0  0  0  0  0  0  0  0  0  0  0  0
    4.1012   -0.5014    2.3566 C   0  0  0  0  0  0  0  0  0  0  0  0
    2.7459   -0.1874    2.2718 C   0  0  0  0  0  0  0  0  0  0  0  0
    2.1138    0.1036    1.0398 C   0  0  0  0  0  0  0  0  0  0  0  0
    0.3726    0.4231    1.2467 S   0  0  0  0  0  0  0  0  0  0  0  0
   -2.5187   -1.2452   -0.4996 C   0  0  0  0  0  0  0  0  0  0  0  0
   -1.9949   -2.6083   -0.8191 C   0  0  0  0  0  0  0  0  0  0  0  0
   -4.2060   -1.0186   -0.3288 S   0  0  0  0  0  0  0  0  0  0  0  0
   -4.9418    2.5195    0.4774 H   0  0  0  0  0  0  0  0  0  0  0  0
   -5.7696    1.1113    1.1574 H   0  0  0  0  0  0  0  0  0  0  0  0
   -5.9062    1.4772   -0.5782 H   0  0  0  0  0  0  0  0  0  0  0  0
   -2.3801    2.0361    0.1850 H   0  0  0  0  0  0  0  0  0  0  0  0
    0.1151   -0.9009   -0.7367 H   0  0  0  0  0  0  0  0  0  0  0  0
   -0.6341    1.3390   -2.1029 H   0  0  0  0  0  0  0  0  0  0  0  0
    0.2653    2.1543   -0.8378 H   0  0  0  0  0  0  0  0  0  0  0  0
    3.2291    0.2717   -2.1557 H   0  0  0  0  0  0  0  0  0  0  0  0
    4.8976   -0.2594   -0.9050 H   0  0  0  0  0  0  0  0  0  0  0  0
    5.9201   -0.7764    1.2490 H   0  0  0  0  0  0  0  0  0  0  0  0
    4.5511   -0.7237    3.3206 H   0  0  0  0  0  0  0  0  0  0  0  0
    2.1708   -0.1803    3.1984 H   0  0  0  0  0  0  0  0  0  0  0  0
   -1.4859   -2.5983   -1.7886 H   0  0  0  0  0  0  0  0  0  0  0  0
   -2.7869   -3.3629   -0.8648 H   0  0  0  0  0  0  0  0  0  0  0  0
   -1.2772   -2.9259   -0.0554 H   0  0  0  0  0  0  0  0  0  0  0  0
  1  2  1  0
  2  3  2  0
  3  4  1  0
  4  5  1  0
  5  6  1  0
  6  7  1  0
  7  8  2  0
  7  9  1  0
  9 10  1  0
 10 11  2  0
 11 12  1  0
 12 13  2  0
 13 14  1  0
 14 15  2  0
 15 16  1  0
  4 17  2  0
 17 18  1  0
 17 19  1  0
 19  2  1  0
 16  5  1  0
 15 10  1  0
  1 20  1  0
  1 21  1  0
  1 22  1  0
  3 23  1  0
  5 24  1  0
  6 25  1  0
  6 26  1  0
  9 27  1  0
 11 28  1  0
 12 29  1  0
 13 30  1  0
 14 31  1  0
 18 32  1  0
 18 33  1  0
 18 34  1  0
M  END
$$$$
