
     RDKit          3D

 42 43  0  0  0  0  0  0  0  0999 V2000
   -1.2785    3.9894   -0.5157 C   0  0  0  0  0  0  0  0  0  0  0  0
   -0.4357    2.9215    0.1240 C   0  0  0  0  0  0  0  0  0  0  0  0
    0.6601    3.3185    0.9137 C   0  0  0  0  0  0  0  0  0  0  0  0
    1.4972    2.3768    1.5175 C   0  0  0  0  0  0  0  0  0  0  0  0
    1.2405    1.0191    1.3399 C   0  0  0  0  0  0  0  0  0  0  0  0
    2.3137   -0.1927    2.0719 S   0  0  0  0  0  6  0  0  0  0  0  0
    1.5284   -0.8532    3.0976 O   0  0  0  0  0  0  0  0  0  0  0  0
    3.5672    0.4629    2.3951 O   0  0  0  0  0  0  0  0  0  0  0  0
    2.6925   -1.3915    0.8108 C   0  0  0  0  0  0  0  0  0  0  0  0
    3.4475   -0.9960   -0.2986 C   0  0  0  0  0  0  0  0  0  0  0  0
    3.7251   -1.9246   -1.3037 C   0  0  0  0  0  0  0  0  0  0  0  0
    3.2547   -3.2340   -1.1893 C   0  0  0  0  0  0  0  0  0  0  0  0
    3.5889   -4.3721   -2.4349 Cl  0  0  0  0  0  0  0  0  0  0  0  0
    2.5128   -3.6283   -0.0748 C   0  0  0  0  0  0  0  0  0  0  0  0
    2.2301   -2.7055    0.9340 C   0  0  0  0  0  0  0  0  0  0  0  0
    0.1541    0.5947    0.5759 C   0  0  0  0  0  0  0  0  0  0  0  0
   -0.6894    1.5446   -0.0216 C   0  0  0  0  0  0  0  0  0  0  0  0
   -2.0621    0.9121   -0.9745 S   0  0  0  0  0  6  0  0  0  0  0  0
   -1.5060    0.4508   -2.2268 O   0  0  0  0  0  0  0  0  0  0  0  0
   -3.1605    1.8524   -0.9332 O   0  0  0  0  0  0  0  0  0  0  0  0
   -2.5648   -0.4426   -0.0617 N   0  0  0  0  0  0  0  0  0  0  0  0
   -3.2731   -0.1313    1.1969 C   0  0  0  0  0  0  0  0  0  0  0  0
   -3.2617   -1.4822   -0.8701 C   0  0  0  0  0  0  0  0  0  0  0  0
   -2.3371   -2.2948   -1.7521 C   0  0  0  0  0  0  0  0  0  0  0  0
   -2.6684   -2.8930   -2.7650 O   0  0  0  0  0  0  0  0  0  0  0  0
   -1.0711   -2.4024   -1.2893 O   0  0  0  0  0  0  0  0  0  0  0  0
   -0.7786    4.9638   -0.4792 H   0  0  0  0  0  0  0  0  0  0  0  0
   -1.4505    3.7690   -1.5737 H   0  0  0  0  0  0  0  0  0  0  0  0
   -2.2323    4.0882    0.0109 H   0  0  0  0  0  0  0  0  0  0  0  0
    0.8765    4.3769    1.0581 H   0  0  0  0  0  0  0  0  0  0  0  0
    2.3410    2.7127    2.1176 H   0  0  0  0  0  0  0  0  0  0  0  0
    3.8231    0.0214   -0.3858 H   0  0  0  0  0  0  0  0  0  0  0  0
    4.3092   -1.6241   -2.1704 H   0  0  0  0  0  0  0  0  0  0  0  0
    2.1552   -4.6513    0.0148 H   0  0  0  0  0  0  0  0  0  0  0  0
    1.6520   -3.0181    1.8014 H   0  0  0  0  0  0  0  0  0  0  0  0
   -0.0431   -0.4676    0.4442 H   0  0  0  0  0  0  0  0  0  0  0  0
   -2.7589    0.6532    1.7588 H   0  0  0  0  0  0  0  0  0  0  0  0
   -4.3031    0.1807    0.9997 H   0  0  0  0  0  0  0  0  0  0  0  0
   -3.2914   -1.0217    1.8337 H   0  0  0  0  0  0  0  0  0  0  0  0
   -3.7619   -2.1945   -0.2040 H   0  0  0  0  0  0  0  0  0  0  0  0
   -4.0273   -1.0090   -1.4951 H   0  0  0  0  0  0  0  0  0  0  0  0
   -0.6143   -2.9039   -1.9974 H   0  0  0  0  0  0  0  0  0  0  0  0
  1  2  1  0
  2  3  2  0
  3  4  1  0
  4  5  2  0
  5  6  1  0
  6  7  2  0
  6  8  2  0
  6  9  1  0
  9 10  2  0
 10 11  1  0
 11 12  2  0
 12 13  1  0
 12 14  1  0
 14 15  2  0
  5 16  1  0
 16 17  2  0
 17 18  1  0
 18 19  2  0
 18 20  2  0
 18 21  1  0
 21 22  1  0
 21 23  1  0
 23 24  1  0
 24 25  2  0
 24 26  1  0
 17  2  1  0
 15  9  1  0
  1 27  1  0
  1 28  1  0
  1 29  1  0
  3 30  1  0
  4 31  1  0
 10 32  1  0
 11 33  1  0
 14 34  1  0
 15 35  1  0
 16 36  1  0
 22 37  1  0
 22 38  1  0
 22 39  1  0
 23 40  1  0
 23 41  1  0
 26 42  1  0
M  END
$$$$
