
     RDKit          3D

 35 37  0  0  0  0  0  0  0  0999 V2000
    1.2320   -1.3470   -2.4748 O   0  0  0  0  0  0  0  0  0  0  0  0
    1.9782   -0.7182   -1.5743 C   0  0  0  0  0  0  0  0  0  0  0  0
    3.3378   -0.7219   -1.6893 N   0  0  0  0  0  0  0  0  0  0  0  0
    3.9066   -0.0155   -0.6553 C   0  0  0  0  0  0  0  0  0  0  0  0
    5.2535    0.2402   -0.3721 C   0  0  0  0  0  0  0  0  0  0  0  0
    5.5436    1.0000    0.7643 C   0  0  0  0  0  0  0  0  0  0  0  0
    4.5261    1.4836    1.5827 C   0  0  0  0  0  0  0  0  0  0  0  0
    3.1837    1.2191    1.2858 C   0  0  0  0  0  0  0  0  0  0  0  0
    2.8614    0.4540    0.1445 C   0  0  0  0  0  0  0  0  0  0  0  0
    1.6375    0.0029   -0.4456 C   0  0  0  0  0  0  0  0  0  0  0  0
    0.2873    0.2333    0.0197 C   0  0  0  0  0  0  0  0  0  0  0  0
   -0.6955   -0.2589   -0.6695 N   0  0  0  0  0  0  0  0  0  0  0  0
   -1.9688   -0.0548   -0.1943 N   0  0  0  0  0  0  0  0  0  0  0  0
   -2.2788   -0.1867    1.2349 C   0  0  0  0  0  0  0  0  0  0  0  0
   -3.5911   -0.9267    1.4768 C   0  0  0  0  0  0  0  0  0  0  0  0
   -4.7584   -0.2949    0.7181 C   0  0  0  0  0  0  0  0  0  0  0  0
   -4.3611    0.2535   -0.6551 C   0  0  0  0  0  0  0  0  0  0  0  0
   -3.0435   -0.3292   -1.1480 C   0  0  0  0  0  0  0  0  0  0  0  0
    0.3016   -1.2014   -2.1875 H   0  0  0  0  0  0  0  0  0  0  0  0
    3.8407   -1.1818   -2.4334 H   0  0  0  0  0  0  0  0  0  0  0  0
    6.0485   -0.1350   -1.0086 H   0  0  0  0  0  0  0  0  0  0  0  0
    6.5806    1.2164    1.0114 H   0  0  0  0  0  0  0  0  0  0  0  0
    4.7755    2.0735    2.4615 H   0  0  0  0  0  0  0  0  0  0  0  0
    2.4035    1.6054    1.9348 H   0  0  0  0  0  0  0  0  0  0  0  0
    0.1493    0.8313    0.9356 H   0  0  0  0  0  0  0  0  0  0  0  0
   -2.3335    0.8279    1.6445 H   0  0  0  0  0  0  0  0  0  0  0  0
   -1.4678   -0.7221    1.7402 H   0  0  0  0  0  0  0  0  0  0  0  0
   -3.8170   -0.9597    2.5484 H   0  0  0  0  0  0  0  0  0  0  0  0
   -3.4785   -1.9682    1.1485 H   0  0  0  0  0  0  0  0  0  0  0  0
   -5.1901    0.5193    1.3127 H   0  0  0  0  0  0  0  0  0  0  0  0
   -5.5522   -1.0429    0.6040 H   0  0  0  0  0  0  0  0  0  0  0  0
   -4.2629    1.3445   -0.5821 H   0  0  0  0  0  0  0  0  0  0  0  0
   -5.1595    0.0591   -1.3798 H   0  0  0  0  0  0  0  0  0  0  0  0
   -2.7709    0.1161   -2.1112 H   0  0  0  0  0  0  0  0  0  0  0  0
   -3.1177   -1.4150   -1.2793 H   0  0  0  0  0  0  0  0  0  0  0  0
  1  2  1  0
  2  3  1  0
  3  4  1  0
  4  5  2  0
  5  6  1  0
  6  7  2  0
  7  8  1  0
  8  9  2  0
  9 10  1  0
 10 11  1  0
 11 12  2  3
 12 13  1  0
 13 14  1  0
 14 15  1  0
 15 16  1  0
 16 17  1  0
 17 18  1  0
 10  2  2  0
 18 13  1  0
  9  4  1  0
  1 19  1  0
  3 20  1  0
  5 21  1  0
  6 22  1  0
  7 23  1  0
  8 24  1  0
 11 25  1  0
 14 26  1  0
 14 27  1  0
 15 28  1  0
 15 29  1  0
 16 30  1  0
 16 31  1  0
 17 32  1  0
 17 33  1  0
 18 34  1  0
 18 35  1  0
M  END
$$$$
