
     RDKit          3D

 48 50  0  0  0  0  0  0  0  0999 V2000
   -3.7535    2.0209    4.8934 C   0  0  0  0  0  0  0  0  0  0  0  0
   -2.5363    2.1494    3.9971 C   0  0  0  0  0  0  0  0  0  0  0  0
   -2.6016    1.1800    2.9398 O   0  0  0  0  0  0  0  0  0  0  0  0
   -3.2519    1.5635    1.8184 C   0  0  0  0  0  0  0  0  0  0  0  0
   -3.8222    2.6289    1.6433 O   0  0  0  0  0  0  0  0  0  0  0  0
   -3.2799    0.4865    0.8224 C   0  0  0  0  0  0  0  0  0  0  0  0
   -4.3216    0.4517   -0.0780 C   0  0  0  0  0  0  0  0  0  0  0  0
   -4.4639   -0.4944   -1.0324 N   0  0  0  0  0  0  0  0  0  0  0  0
   -3.5084   -1.4355   -1.0890 C   0  0  0  0  0  0  0  0  0  0  0  0
   -3.6207   -2.7137   -2.3144 S   0  0  0  0  0  0  0  0  0  0  0  0
   -5.3442   -2.5164   -2.8277 C   0  0  0  0  0  0  0  0  0  0  0  0
   -2.4470   -1.4839   -0.2738 N   0  0  0  0  0  0  0  0  0  0  0  0
   -2.3412   -0.5101    0.6622 C   0  0  0  0  0  0  0  0  0  0  0  0
   -1.2386   -0.5276    1.5087 O   0  0  0  0  0  0  0  0  0  0  0  0
   -0.1415   -1.2249    1.0654 C   0  0  0  0  0  0  0  0  0  0  0  0
    0.0203   -2.5591    1.4322 C   0  0  0  0  0  0  0  0  0  0  0  0
    1.1561   -3.2461    1.0152 C   0  0  0  0  0  0  0  0  0  0  0  0
    2.1268   -2.5899    0.2513 C   0  0  0  0  0  0  0  0  0  0  0  0
    1.9760   -1.2394   -0.0994 C   0  0  0  0  0  0  0  0  0  0  0  0
    3.0134   -0.6510   -0.8546 N   0  0  0  0  0  0  0  0  0  0  0  0
    3.0578    0.6381   -1.3530 C   0  0  0  0  0  0  0  0  0  0  0  0
    2.1816    1.4903   -1.2806 O   0  0  0  0  0  0  0  0  0  0  0  0
    4.3122    0.9830   -2.0786 C   0  0  0  0  0  0  0  0  0  0  0  0
    4.2259    1.8050   -3.2102 C   0  0  0  0  0  0  0  0  0  0  0  0
    5.3817    2.1551   -3.9128 C   0  0  0  0  0  0  0  0  0  0  0  0
    6.6226    1.6925   -3.4769 C   0  0  0  0  0  0  0  0  0  0  0  0
    8.0474    2.1256   -4.3384 Cl  0  0  0  0  0  0  0  0  0  0  0  0
    6.7196    0.8887   -2.3402 C   0  0  0  0  0  0  0  0  0  0  0  0
    5.5649    0.5348   -1.6359 C   0  0  0  0  0  0  0  0  0  0  0  0
    0.8351   -0.5563    0.3219 C   0  0  0  0  0  0  0  0  0  0  0  0
   -3.8377    1.0009    5.2840 H   0  0  0  0  0  0  0  0  0  0  0  0
   -3.6912    2.7164    5.7354 H   0  0  0  0  0  0  0  0  0  0  0  0
   -4.6739    2.2261    4.3372 H   0  0  0  0  0  0  0  0  0  0  0  0
   -1.6296    1.9348    4.5722 H   0  0  0  0  0  0  0  0  0  0  0  0
   -2.4358    3.1669    3.6011 H   0  0  0  0  0  0  0  0  0  0  0  0
   -5.1089    1.2028   -0.0621 H   0  0  0  0  0  0  0  0  0  0  0  0
   -5.5898   -3.2960   -3.5534 H   0  0  0  0  0  0  0  0  0  0  0  0
   -6.0186   -2.6208   -1.9734 H   0  0  0  0  0  0  0  0  0  0  0  0
   -5.5012   -1.5456   -3.3055 H   0  0  0  0  0  0  0  0  0  0  0  0
   -0.7400   -3.0601    2.0241 H   0  0  0  0  0  0  0  0  0  0  0  0
    1.2866   -4.2918    1.2817 H   0  0  0  0  0  0  0  0  0  0  0  0
    3.0026   -3.1522   -0.0626 H   0  0  0  0  0  0  0  0  0  0  0  0
    3.7746   -1.2688   -1.1033 H   0  0  0  0  0  0  0  0  0  0  0  0
    3.2577    2.1745   -3.5440 H   0  0  0  0  0  0  0  0  0  0  0  0
    5.3064    2.7913   -4.7913 H   0  0  0  0  0  0  0  0  0  0  0  0
    7.6911    0.5445   -1.9937 H   0  0  0  0  0  0  0  0  0  0  0  0
    5.6611   -0.0595   -0.7308 H   0  0  0  0  0  0  0  0  0  0  0  0
    0.6779    0.4909    0.0906 H   0  0  0  0  0  0  0  0  0  0  0  0
  1  2  1  0
  2  3  1  0
  3  4  1  0
  4  5  2  0
  4  6  1  0
  6  7  2  0
  7  8  1  0
  8  9  2  0
  9 10  1  0
 10 11  1  0
  9 12  1  0
 12 13  2  0
 13 14  1  0
 14 15  1  0
 15 16  2  0
 16 17  1  0
 17 18  2  0
 18 19  1  0
 19 20  1  0
 20 21  1  0
 21 22  2  0
 21 23  1  0
 23 24  2  0
 24 25  1  0
 25 26  2  0
 26 27  1  0
 26 28  1  0
 28 29  2  0
 19 30  2  0
 13  6  1  0
 30 15  1  0
 29 23  1  0
  1 31  1  0
  1 32  1  0
  1 33  1  0
  2 34  1  0
  2 35  1  0
  7 36  1  0
 11 37  1  0
 11 38  1  0
 11 39  1  0
 16 40  1  0
 17 41  1  0
 18 42  1  0
 20 43  1  0
 24 44  1  0
 25 45  1  0
 28 46  1  0
 29 47  1  0
 30 48  1  0
M  END
$$$$
