
     RDKit          3D

 55 58  0  0  0  0  0  0  0  0999 V2000
   -6.6969   -2.9993    2.1002 C   0  0  0  0  0  0  0  0  0  0  0  0
   -7.3526   -1.9309    1.2331 C   0  0  0  0  0  0  0  0  0  0  0  0
   -8.4504   -1.2082    2.0041 C   0  0  0  0  0  0  0  0  0  0  0  0
   -6.3724   -0.9429    0.8649 O   0  0  0  0  0  0  0  0  0  0  0  0
   -5.6175   -1.2280   -0.2253 C   0  0  0  0  0  0  0  0  0  0  0  0
   -5.7018   -2.2331   -0.9130 O   0  0  0  0  0  0  0  0  0  0  0  0
   -4.6466   -0.1313   -0.4896 C   0  0  0  0  0  0  0  0  0  0  0  0
   -3.8042   -0.2477   -1.6030 C   0  0  0  0  0  0  0  0  0  0  0  0
   -2.8733    0.7532   -1.8928 C   0  0  0  0  0  0  0  0  0  0  0  0
   -2.7754    1.8888   -1.0778 C   0  0  0  0  0  0  0  0  0  0  0  0
   -1.7533    2.9563   -1.3746 C   0  0  0  0  0  0  0  0  0  0  0  0
   -0.4650    2.5152   -0.9311 O   0  0  0  0  0  0  0  0  0  0  0  0
   -0.0958    2.9263    0.3044 C   0  0  0  0  0  0  0  0  0  0  0  0
   -0.7338    3.6601    1.0426 O   0  0  0  0  0  0  0  0  0  0  0  0
    1.2303    2.3545    0.6667 C   0  0  0  0  0  0  0  0  0  0  0  0
    1.7850    2.7057    1.9036 C   0  0  0  0  0  0  0  0  0  0  0  0
    3.0227    2.1929    2.2897 C   0  0  0  0  0  0  0  0  0  0  0  0
    3.7141    1.3246    1.4420 C   0  0  0  0  0  0  0  0  0  0  0  0
    3.1784    0.9573    0.1979 C   0  0  0  0  0  0  0  0  0  0  0  0
    3.8792    0.0531   -0.7057 C   0  0  0  0  0  0  0  0  0  0  0  0
    3.5395   -0.3732   -1.9052 N   0  0  0  0  0  0  0  0  0  0  0  0
    4.5515   -1.2123   -2.3241 N   0  0  0  0  0  0  0  0  0  0  0  0
    5.4411   -1.2427   -1.3517 C   0  0  0  0  0  0  0  0  0  0  0  0
    6.7024   -1.9666   -1.2579 C   0  0  0  0  0  0  0  0  0  0  0  0
    7.5319   -1.8711   -0.1297 C   0  0  0  0  0  0  0  0  0  0  0  0
    8.7365   -2.5777   -0.0671 C   0  0  0  0  0  0  0  0  0  0  0  0
    9.1267   -3.3883   -1.1307 C   0  0  0  0  0  0  0  0  0  0  0  0
    8.3150   -3.4944   -2.2576 C   0  0  0  0  0  0  0  0  0  0  0  0
    7.1111   -2.7880   -2.3203 C   0  0  0  0  0  0  0  0  0  0  0  0
    5.0802   -0.4577   -0.2861 O   0  0  0  0  0  0  0  0  0  0  0  0
    1.9305    1.4812   -0.1794 C   0  0  0  0  0  0  0  0  0  0  0  0
   -3.6100    1.9970    0.0427 C   0  0  0  0  0  0  0  0  0  0  0  0
   -4.5426    0.9969    0.3340 C   0  0  0  0  0  0  0  0  0  0  0  0
   -6.2209   -2.5519    2.9797 H   0  0  0  0  0  0  0  0  0  0  0  0
   -7.4282   -3.7410    2.4355 H   0  0  0  0  0  0  0  0  0  0  0  0
   -5.9075   -3.5195    1.5480 H   0  0  0  0  0  0  0  0  0  0  0  0
   -7.7976   -2.3842    0.3389 H   0  0  0  0  0  0  0  0  0  0  0  0
   -9.2344   -1.9010    2.3242 H   0  0  0  0  0  0  0  0  0  0  0  0
   -8.9050   -0.4316    1.3789 H   0  0  0  0  0  0  0  0  0  0  0  0
   -8.0447   -0.7023    2.8875 H   0  0  0  0  0  0  0  0  0  0  0  0
   -3.8659   -1.1225   -2.2482 H   0  0  0  0  0  0  0  0  0  0  0  0
   -2.2197    0.6381   -2.7556 H   0  0  0  0  0  0  0  0  0  0  0  0
   -1.6928    3.1150   -2.4577 H   0  0  0  0  0  0  0  0  0  0  0  0
   -2.0379    3.9241   -0.9438 H   0  0  0  0  0  0  0  0  0  0  0  0
    1.2529    3.3804    2.5725 H   0  0  0  0  0  0  0  0  0  0  0  0
    3.4484    2.4691    3.2520 H   0  0  0  0  0  0  0  0  0  0  0  0
    4.6784    0.9374    1.7663 H   0  0  0  0  0  0  0  0  0  0  0  0
    7.2502   -1.2455    0.7143 H   0  0  0  0  0  0  0  0  0  0  0  0
    9.3698   -2.4948    0.8128 H   0  0  0  0  0  0  0  0  0  0  0  0
   10.0635   -3.9381   -1.0817 H   0  0  0  0  0  0  0  0  0  0  0  0
    8.6167   -4.1267   -3.0891 H   0  0  0  0  0  0  0  0  0  0  0  0
    6.4889   -2.8832   -3.2094 H   0  0  0  0  0  0  0  0  0  0  0  0
    1.5073    1.1971   -1.1422 H   0  0  0  0  0  0  0  0  0  0  0  0
   -3.5308    2.8599    0.7031 H   0  0  0  0  0  0  0  0  0  0  0  0
   -5.1753    1.1107    1.2109 H   0  0  0  0  0  0  0  0  0  0  0  0
  1  2  1  0
  2  3  1  0
  2  4  1  0
  4  5  1  0
  5  6  2  0
  5  7  1  0
  7  8  2  0
  8  9  1  0
  9 10  2  0
 10 11  1  0
 11 12  1  0
 12 13  1  0
 13 14  2  0
 13 15  1  0
 15 16  2  0
 16 17  1  0
 17 18  2  0
 18 19  1  0
 19 20  1  0
 20 21  2  0
 21 22  1  0
 22 23  2  0
 23 24  1  0
 24 25  2  0
 25 26  1  0
 26 27  2  0
 27 28  1  0
 28 29  2  0
 23 30  1  0
 19 31  2  0
 10 32  1  0
 32 33  2  0
 33  7  1  0
 31 15  1  0
 30 20  1  0
 29 24  1  0
  1 34  1  0
  1 35  1  0
  1 36  1  0
  2 37  1  0
  3 38  1  0
  3 39  1  0
  3 40  1  0
  8 41  1  0
  9 42  1  0
 11 43  1  0
 11 44  1  0
 16 45  1  0
 17 46  1  0
 18 47  1  0
 25 48  1  0
 26 49  1  0
 27 50  1  0
 28 51  1  0
 29 52  1  0
 31 53  1  0
 32 54  1  0
 33 55  1  0
M  END
$$$$
