
     RDKit          3D

 44 46  0  0  0  0  0  0  0  0999 V2000
    2.1627   -3.8845   -0.5788 C   0  0  0  0  0  0  0  0  0  0  0  0
    1.6568   -2.5670   -0.8039 O   0  0  0  0  0  0  0  0  0  0  0  0
    2.3958   -1.5754   -0.2419 C   0  0  0  0  0  0  0  0  0  0  0  0
    3.4165   -1.7493    0.4132 O   0  0  0  0  0  0  0  0  0  0  0  0
    1.7873   -0.2125   -0.4731 C   0  0  0  0  0  0  0  0  0  0  0  0
    1.0998   -0.0924   -1.8162 C   0  0  0  0  0  0  0  0  0  0  0  0
    1.9770    0.1125   -3.0273 C   0  0  0  0  0  0  0  0  0  0  0  0
   -0.1834   -0.1706   -1.9984 N   0  0  0  0  0  0  0  0  0  0  0  0
   -1.0054   -0.3888   -0.9185 C   0  0  0  0  0  0  0  0  0  0  0  0
   -0.5853   -0.2507    0.3441 C   0  0  0  0  0  0  0  0  0  0  0  0
   -1.5192   -0.5273    1.4517 C   0  0  0  0  0  0  0  0  0  0  0  0
   -1.0978   -0.5841    2.6058 O   0  0  0  0  0  0  0  0  0  0  0  0
   -2.8378   -0.7235    1.1037 N   0  0  0  0  0  0  0  0  0  0  0  0
   -3.7975   -0.9442    2.1687 C   0  0  0  0  0  0  0  0  0  0  0  0
   -3.2690   -0.9222   -0.2007 C   0  0  0  0  0  0  0  0  0  0  0  0
   -4.4284   -1.2568   -0.4524 O   0  0  0  0  0  0  0  0  0  0  0  0
   -2.3127   -0.7378   -1.1926 N   0  0  0  0  0  0  0  0  0  0  0  0
   -2.7192   -0.9068   -2.5852 C   0  0  0  0  0  0  0  0  0  0  0  0
    0.8320    0.1222    0.6815 C   0  0  0  0  0  0  0  0  0  0  0  0
    0.9447    1.5920    1.0948 C   0  0  0  0  0  0  0  0  0  0  0  0
    0.6271    2.6424    0.2163 C   0  0  0  0  0  0  0  0  0  0  0  0
    0.7426    3.9733    0.6273 C   0  0  0  0  0  0  0  0  0  0  0  0
    1.1718    4.2672    1.9188 C   0  0  0  0  0  0  0  0  0  0  0  0
    1.3113    5.9063    2.4212 Cl  0  0  0  0  0  0  0  0  0  0  0  0
    1.4839    3.2412    2.8055 C   0  0  0  0  0  0  0  0  0  0  0  0
    1.3696    1.9104    2.3961 C   0  0  0  0  0  0  0  0  0  0  0  0
    2.1955   -4.1049    0.4937 H   0  0  0  0  0  0  0  0  0  0  0  0
    1.4817   -4.5933   -1.0594 H   0  0  0  0  0  0  0  0  0  0  0  0
    3.1545   -3.9937   -1.0316 H   0  0  0  0  0  0  0  0  0  0  0  0
    2.6351    0.4873   -0.4917 H   0  0  0  0  0  0  0  0  0  0  0  0
    2.6878   -0.7144   -3.1075 H   0  0  0  0  0  0  0  0  0  0  0  0
    1.3738    0.1544   -3.9388 H   0  0  0  0  0  0  0  0  0  0  0  0
    2.5268    1.0513   -2.9192 H   0  0  0  0  0  0  0  0  0  0  0  0
   -3.4864   -0.4460    3.0918 H   0  0  0  0  0  0  0  0  0  0  0  0
   -4.7846   -0.5690    1.8817 H   0  0  0  0  0  0  0  0  0  0  0  0
   -3.8676   -2.0215    2.3510 H   0  0  0  0  0  0  0  0  0  0  0  0
   -3.7667   -1.2066   -2.6768 H   0  0  0  0  0  0  0  0  0  0  0  0
   -2.1042   -1.6839   -3.0512 H   0  0  0  0  0  0  0  0  0  0  0  0
   -2.5913    0.0421   -3.1171 H   0  0  0  0  0  0  0  0  0  0  0  0
    1.1418   -0.4832    1.5455 H   0  0  0  0  0  0  0  0  0  0  0  0
    0.2745    2.4460   -0.7942 H   0  0  0  0  0  0  0  0  0  0  0  0
    0.4903    4.7744   -0.0628 H   0  0  0  0  0  0  0  0  0  0  0  0
    1.8108    3.4661    3.8175 H   0  0  0  0  0  0  0  0  0  0  0  0
    1.6051    1.1209    3.1095 H   0  0  0  0  0  0  0  0  0  0  0  0
  1  2  1  0
  2  3  1  0
  3  4  2  0
  3  5  1  0
  5  6  1  0
  6  7  1  0
  6  8  2  0
  8  9  1  0
  9 10  2  0
 10 11  1  0
 11 12  2  0
 11 13  1  0
 13 14  1  0
 13 15  1  0
 15 16  2  0
 15 17  1  0
 17 18  1  0
 10 19  1  0
 19 20  1  0
 20 21  2  0
 21 22  1  0
 22 23  2  0
 23 24  1  0
 23 25  1  0
 25 26  2  0
 19  5  1  0
 26 20  1  0
 17  9  1  0
  1 27  1  0
  1 28  1  0
  1 29  1  0
  5 30  1  0
  7 31  1  0
  7 32  1  0
  7 33  1  0
 14 34  1  0
 14 35  1  0
 14 36  1  0
 18 37  1  0
 18 38  1  0
 18 39  1  0
 19 40  1  0
 21 41  1  0
 22 42  1  0
 25 43  1  0
 26 44  1  0
M  END
$$$$
