
     RDKit          3D

 43 46  0  0  0  0  0  0  0  0999 V2000
   -2.5063    6.2307   -4.8104 N   0  0  0  0  0  0  0  0  0  0  0  0
   -1.9999    5.2915   -4.3557 C   0  0  0  0  0  0  0  0  0  0  0  0
   -1.3769    4.1062   -3.7618 C   0  0  0  0  0  0  0  0  0  0  0  0
   -2.3373    3.4479   -2.7836 C   0  0  0  0  0  0  0  0  0  0  0  0
   -1.7347    2.2966   -2.1398 N   0  0  0  0  0  0  0  0  0  0  0  0
   -1.3650    2.1899   -0.8331 C   0  0  0  0  0  0  0  0  0  0  0  0
   -0.8126    0.9358   -0.6958 C   0  0  0  0  0  0  0  0  0  0  0  0
   -0.2543    0.3698    0.4955 C   0  0  0  0  0  0  0  0  0  0  0  0
    0.4459    0.9819    1.4786 C   0  0  0  0  0  0  0  0  0  0  0  0
    0.7507    2.3767    1.4197 C   0  0  0  0  0  0  0  0  0  0  0  0
    0.9890    3.5126    1.3719 N   0  0  0  0  0  0  0  0  0  0  0  0
    0.9032    0.1707    2.5803 C   0  0  0  0  0  0  0  0  0  0  0  0
    0.6566   -1.1196    2.7404 N   0  0  0  0  0  0  0  0  0  0  0  0
    1.2371   -1.6107    3.8971 C   0  0  0  0  0  0  0  0  0  0  0  0
    1.1677   -2.9413    4.3566 C   0  0  0  0  0  0  0  0  0  0  0  0
    1.8053   -3.2986    5.5492 C   0  0  0  0  0  0  0  0  0  0  0  0
    2.5071   -2.3486    6.2841 C   0  0  0  0  0  0  0  0  0  0  0  0
    2.5893   -1.0226    5.8477 C   0  0  0  0  0  0  0  0  0  0  0  0
    1.9449   -0.6768    4.6483 C   0  0  0  0  0  0  0  0  0  0  0  0
    1.8649    0.8459    3.8617 S   0  0  0  0  0  0  0  0  0  0  0  0
   -0.9441    0.3316   -1.9863 C   0  0  0  0  0  0  0  0  0  0  0  0
   -0.5525   -1.0058   -2.4224 C   0  0  0  0  0  0  0  0  0  0  0  0
    0.3296   -1.1564   -3.5034 C   0  0  0  0  0  0  0  0  0  0  0  0
    0.7131   -2.4302   -3.9280 C   0  0  0  0  0  0  0  0  0  0  0  0
    0.2077   -3.5493   -3.2767 C   0  0  0  0  0  0  0  0  0  0  0  0
    0.5747   -4.7713   -3.6838 F   0  0  0  0  0  0  0  0  0  0  0  0
   -0.6782   -3.4202   -2.2130 C   0  0  0  0  0  0  0  0  0  0  0  0
   -1.0634   -2.1469   -1.7866 C   0  0  0  0  0  0  0  0  0  0  0  0
   -1.4780    1.1978   -2.8635 N   0  0  0  0  0  0  0  0  0  0  0  0
   -1.0926    3.4042   -4.5544 H   0  0  0  0  0  0  0  0  0  0  0  0
   -0.4512    4.3924   -3.2483 H   0  0  0  0  0  0  0  0  0  0  0  0
   -3.2474    3.0972   -3.2856 H   0  0  0  0  0  0  0  0  0  0  0  0
   -2.6443    4.1484   -1.9974 H   0  0  0  0  0  0  0  0  0  0  0  0
   -1.5239    3.0036   -0.1380 H   0  0  0  0  0  0  0  0  0  0  0  0
   -0.3993   -0.7067    0.5883 H   0  0  0  0  0  0  0  0  0  0  0  0
    0.6196   -3.6804    3.7806 H   0  0  0  0  0  0  0  0  0  0  0  0
    1.7506   -4.3263    5.9014 H   0  0  0  0  0  0  0  0  0  0  0  0
    2.9992   -2.6392    7.2103 H   0  0  0  0  0  0  0  0  0  0  0  0
    3.1379   -0.2822    6.4224 H   0  0  0  0  0  0  0  0  0  0  0  0
    0.7163   -0.2794   -4.0183 H   0  0  0  0  0  0  0  0  0  0  0  0
    1.3958   -2.5545   -4.7622 H   0  0  0  0  0  0  0  0  0  0  0  0
   -1.0686   -4.3095   -1.7287 H   0  0  0  0  0  0  0  0  0  0  0  0
   -1.7757   -2.0546   -0.9703 H   0  0  0  0  0  0  0  0  0  0  0  0
  1  2  3  0
  2  3  1  0
  3  4  1  0
  4  5  1  0
  5  6  1  0
  6  7  2  0
  7  8  1  0
  8  9  2  3
  9 10  1  0
 10 11  3  0
  9 12  1  0
 12 13  2  0
 13 14  1  0
 14 15  2  0
 15 16  1  0
 16 17  2  0
 17 18  1  0
 18 19  2  0
 19 20  1  0
  7 21  1  0
 21 22  1  0
 22 23  2  0
 23 24  1  0
 24 25  2  0
 25 26  1  0
 25 27  1  0
 27 28  2  0
 21 29  2  0
 29  5  1  0
 20 12  1  0
 28 22  1  0
 19 14  1  0
  3 30  1  0
  3 31  1  0
  4 32  1  0
  4 33  1  0
  6 34  1  0
  8 35  1  0
 15 36  1  0
 16 37  1  0
 17 38  1  0
 18 39  1  0
 23 40  1  0
 24 41  1  0
 27 42  1  0
 28 43  1  0
M  END
$$$$
