
     RDKit          3D

 46 49  0  0  0  0  0  0  0  0999 V2000
   -2.8524    2.0141   -2.4299 O   0  0  0  0  0  0  0  0  0  0  0  0
   -2.3180    1.0615   -1.8522 C   0  0  0  0  0  0  0  0  0  0  0  0
   -1.0447    1.2173   -1.3645 N   0  0  0  0  0  0  0  0  0  0  0  0
   -0.2336    0.1960   -0.8498 C   0  0  0  0  0  0  0  0  0  0  0  0
    0.9515    0.5605   -0.2051 C   0  0  0  0  0  0  0  0  0  0  0  0
    1.8065   -0.4314    0.2899 C   0  0  0  0  0  0  0  0  0  0  0  0
    3.0485   -0.0672    1.0115 C   0  0  0  0  0  0  0  0  0  0  0  0
    3.2845   -0.6341    2.0749 O   0  0  0  0  0  0  0  0  0  0  0  0
    3.8734    0.9172    0.4649 N   0  0  0  0  0  0  0  0  0  0  0  0
    4.1067    1.0218   -0.9824 C   0  0  0  0  0  0  0  0  0  0  0  0
    5.3628    0.2233   -1.3671 C   0  0  0  0  0  0  0  0  0  0  0  0
    6.5043    0.6545   -0.6067 O   0  0  0  0  0  0  0  0  0  0  0  0
    6.2715    0.4973    0.8065 C   0  0  0  0  0  0  0  0  0  0  0  0
    5.0497    1.3131    1.2437 C   0  0  0  0  0  0  0  0  0  0  0  0
    1.4706   -1.7816    0.1619 C   0  0  0  0  0  0  0  0  0  0  0  0
    0.2995   -2.1438   -0.5057 C   0  0  0  0  0  0  0  0  0  0  0  0
   -0.5559   -1.1596   -1.0155 C   0  0  0  0  0  0  0  0  0  0  0  0
   -1.9829   -1.6669   -1.9519 S   0  0  0  0  0  0  0  0  0  0  0  0
   -3.0859   -0.2538   -1.5590 C   0  0  0  0  0  0  0  0  0  0  0  0
   -3.5886   -0.2775   -0.1543 N   0  0  0  0  0  0  0  0  0  0  0  0
   -4.4788    0.8667    0.1650 C   0  0  0  0  0  0  0  0  0  0  0  0
   -5.9756    0.5430    0.0340 C   0  0  0  0  0  0  0  0  0  0  0  0
   -6.4002   -0.5128    0.9052 O   0  0  0  0  0  0  0  0  0  0  0  0
   -5.3364   -1.4015    1.2684 C   0  0  0  0  0  0  0  0  0  0  0  0
   -4.2960   -1.5499    0.1478 C   0  0  0  0  0  0  0  0  0  0  0  0
   -0.6842    2.1606   -1.4237 H   0  0  0  0  0  0  0  0  0  0  0  0
    1.2065    1.6075   -0.0639 H   0  0  0  0  0  0  0  0  0  0  0  0
    4.2556    2.0849   -1.2032 H   0  0  0  0  0  0  0  0  0  0  0  0
    3.2565    0.6618   -1.5643 H   0  0  0  0  0  0  0  0  0  0  0  0
    5.5919    0.3753   -2.4263 H   0  0  0  0  0  0  0  0  0  0  0  0
    5.2143   -0.8507   -1.2040 H   0  0  0  0  0  0  0  0  0  0  0  0
    6.1441   -0.5687    1.0283 H   0  0  0  0  0  0  0  0  0  0  0  0
    7.1652    0.8488    1.3309 H   0  0  0  0  0  0  0  0  0  0  0  0
    4.8667    1.1951    2.3164 H   0  0  0  0  0  0  0  0  0  0  0  0
    5.2189    2.3772    1.0411 H   0  0  0  0  0  0  0  0  0  0  0  0
    2.1216   -2.5498    0.5746 H   0  0  0  0  0  0  0  0  0  0  0  0
    0.0602   -3.1986   -0.6238 H   0  0  0  0  0  0  0  0  0  0  0  0
   -3.9259   -0.3041   -2.2626 H   0  0  0  0  0  0  0  0  0  0  0  0
   -4.2780    1.1340    1.2107 H   0  0  0  0  0  0  0  0  0  0  0  0
   -4.2497    1.7657   -0.4116 H   0  0  0  0  0  0  0  0  0  0  0  0
   -6.5737    1.4268    0.2785 H   0  0  0  0  0  0  0  0  0  0  0  0
   -6.2223    0.2575   -0.9950 H   0  0  0  0  0  0  0  0  0  0  0  0
   -5.7859   -2.3737    1.4953 H   0  0  0  0  0  0  0  0  0  0  0  0
   -4.8736   -1.0344    2.1921 H   0  0  0  0  0  0  0  0  0  0  0  0
   -3.5648   -2.3078    0.4490 H   0  0  0  0  0  0  0  0  0  0  0  0
   -4.8240   -1.9135   -0.7439 H   0  0  0  0  0  0  0  0  0  0  0  0
  1  2  2  0
  2  3  1  0
  3  4  1  0
  4  5  2  0
  5  6  1  0
  6  7  1  0
  7  8  2  0
  7  9  1  0
  9 10  1  0
 10 11  1  0
 11 12  1  0
 12 13  1  0
 13 14  1  0
  6 15  2  0
 15 16  1  0
 16 17  2  0
 17 18  1  0
 18 19  1  0
 19 20  1  0
 20 21  1  0
 21 22  1  0
 22 23  1  0
 23 24  1  0
 24 25  1  0
 19  2  1  0
 25 20  1  0
 17  4  1  0
 14  9  1  0
  3 26  1  0
  5 27  1  0
 10 28  1  0
 10 29  1  0
 11 30  1  0
 11 31  1  0
 13 32  1  0
 13 33  1  0
 14 34  1  0
 14 35  1  0
 15 36  1  0
 16 37  1  0
 19 38  1  0
 21 39  1  0
 21 40  1  0
 22 41  1  0
 22 42  1  0
 24 43  1  0
 24 44  1  0
 25 45  1  0
 25 46  1  0
M  END
$$$$
