
     RDKit          3D

 55 57  0  0  0  0  0  0  0  0999 V2000
    2.0539    1.5824    3.6254 C   0  0  0  0  0  0  0  0  0  0  0  0
    2.0660    1.8143    2.1090 C   0  0  0  0  0  0  0  0  0  0  0  0
    1.5638    3.2356    1.8218 C   0  0  0  0  0  0  0  0  0  0  0  0
    1.2165    0.7581    1.3658 C   0  0  0  0  0  0  0  0  0  0  0  0
    1.2772    1.0233   -0.0957 N   0  0  0  0  0  0  0  0  0  0  0  0
    0.1498    0.2485   -1.0765 S   0  0  0  0  0  6  0  0  0  0  0  0
    0.6065    0.4114   -2.4384 O   0  0  0  0  0  0  0  0  0  0  0  0
   -0.1091   -1.0535   -0.5058 O   0  0  0  0  0  0  0  0  0  0  0  0
   -1.2835    1.2667   -0.8537 C   0  0  0  0  0  0  0  0  0  0  0  0
   -2.3581    0.7951   -0.0900 C   0  0  0  0  0  0  0  0  0  0  0  0
   -3.4751    1.6110    0.1011 C   0  0  0  0  0  0  0  0  0  0  0  0
   -3.5152    2.8808   -0.4743 C   0  0  0  0  0  0  0  0  0  0  0  0
   -2.4542    3.3258   -1.2742 C   0  0  0  0  0  0  0  0  0  0  0  0
   -1.3277    2.5273   -1.4562 C   0  0  0  0  0  0  0  0  0  0  0  0
   -2.4533    4.5443   -1.9039 O   0  0  0  0  0  0  0  0  0  0  0  0
   -3.7744    5.0985   -1.9574 C   0  0  0  0  0  0  0  0  0  0  0  0
   -4.4465    5.0021   -0.5971 C   0  0  0  0  0  0  0  0  0  0  0  0
   -4.6330    3.6343   -0.2167 O   0  0  0  0  0  0  0  0  0  0  0  0
    1.7474   -0.6523    1.6299 C   0  0  0  0  0  0  0  0  0  0  0  0
    2.7491   -1.1278    1.1089 O   0  0  0  0  0  0  0  0  0  0  0  0
    0.9581   -1.3051    2.5239 O   0  0  0  0  0  0  0  0  0  0  0  0
    1.3221   -2.6634    2.7696 C   0  0  0  0  0  0  0  0  0  0  0  0
    0.8154   -3.6313    1.6921 C   0  0  0  0  0  0  0  0  0  0  0  0
   -0.2035   -4.2929    1.8849 O   0  0  0  0  0  0  0  0  0  0  0  0
    1.6206   -3.6634    0.5677 N   0  0  0  0  0  0  0  0  0  0  0  0
    1.4340   -4.4084   -0.6235 C   0  0  0  0  0  0  0  0  0  0  0  0
    0.3830   -5.3188   -0.7891 C   0  0  0  0  0  0  0  0  0  0  0  0
    0.2329   -6.0307   -1.9829 C   0  0  0  0  0  0  0  0  0  0  0  0
    1.1342   -5.8431   -3.0277 C   0  0  0  0  0  0  0  0  0  0  0  0
    2.1910   -4.9407   -2.8837 C   0  0  0  0  0  0  0  0  0  0  0  0
    3.2799   -4.7748   -4.2194 Cl  0  0  0  0  0  0  0  0  0  0  0  0
    2.3456   -4.2216   -1.6879 C   0  0  0  0  0  0  0  0  0  0  0  0
    3.6664   -3.1037   -1.4944 Cl  0  0  0  0  0  0  0  0  0  0  0  0
    2.5057    0.6193    3.8871 H   0  0  0  0  0  0  0  0  0  0  0  0
    1.0316    1.6003    4.0204 H   0  0  0  0  0  0  0  0  0  0  0  0
    2.6290    2.3585    4.1423 H   0  0  0  0  0  0  0  0  0  0  0  0
    3.1075    1.7480    1.7674 H   0  0  0  0  0  0  0  0  0  0  0  0
    2.1421    3.9743    2.3879 H   0  0  0  0  0  0  0  0  0  0  0  0
    1.6637    3.4885    0.7620 H   0  0  0  0  0  0  0  0  0  0  0  0
    0.5106    3.3467    2.1006 H   0  0  0  0  0  0  0  0  0  0  0  0
    0.1740    0.8272    1.6986 H   0  0  0  0  0  0  0  0  0  0  0  0
    2.2057    1.0124   -0.5251 H   0  0  0  0  0  0  0  0  0  0  0  0
   -2.3341   -0.1957    0.3605 H   0  0  0  0  0  0  0  0  0  0  0  0
   -4.3103    1.2608    0.7033 H   0  0  0  0  0  0  0  0  0  0  0  0
   -0.5014    2.8821   -2.0678 H   0  0  0  0  0  0  0  0  0  0  0  0
   -3.6840    6.1455   -2.2625 H   0  0  0  0  0  0  0  0  0  0  0  0
   -4.3470    4.5649   -2.7274 H   0  0  0  0  0  0  0  0  0  0  0  0
   -3.8530    5.5003    0.1798 H   0  0  0  0  0  0  0  0  0  0  0  0
   -5.4344    5.4741   -0.6281 H   0  0  0  0  0  0  0  0  0  0  0  0
    2.4047   -2.7720    2.9042 H   0  0  0  0  0  0  0  0  0  0  0  0
    0.8666   -2.9562    3.7213 H   0  0  0  0  0  0  0  0  0  0  0  0
    2.3767   -2.9745    0.5246 H   0  0  0  0  0  0  0  0  0  0  0  0
   -0.3478   -5.4960   -0.0069 H   0  0  0  0  0  0  0  0  0  0  0  0
   -0.5936   -6.7313   -2.0932 H   0  0  0  0  0  0  0  0  0  0  0  0
    1.0082   -6.4053   -3.9518 H   0  0  0  0  0  0  0  0  0  0  0  0
  1  2  1  0
  2  3  1  0
  2  4  1  0
  4  5  1  0
  5  6  1  0
  6  7  2  0
  6  8  2  0
  6  9  1  0
  9 10  2  0
 10 11  1  0
 11 12  2  0
 12 13  1  0
 13 14  2  0
 13 15  1  0
 15 16  1  0
 16 17  1  0
 17 18  1  0
  4 19  1  0
 19 20  2  0
 19 21  1  0
 21 22  1  0
 22 23  1  0
 23 24  2  0
 23 25  1  0
 25 26  1  0
 26 27  2  0
 27 28  1  0
 28 29  2  0
 29 30  1  0
 30 31  1  0
 30 32  2  0
 32 33  1  0
 14  9  1  0
 32 26  1  0
 18 12  1  0
  1 34  1  0
  1 35  1  0
  1 36  1  0
  2 37  1  0
  3 38  1  0
  3 39  1  0
  3 40  1  0
  4 41  1  0
  5 42  1  0
 10 43  1  0
 11 44  1  0
 14 45  1  0
 16 46  1  0
 16 47  1  0
 17 48  1  0
 17 49  1  0
 22 50  1  0
 22 51  1  0
 25 52  1  0
 27 53  1  0
 28 54  1  0
 29 55  1  0
M  END
$$$$
