
     RDKit          3D

 46 49  0  0  0  0  0  0  0  0999 V2000
   -3.3692   -1.5912   -2.5429 O   0  0  0  0  0  0  0  0  0  0  0  0
   -2.6150   -1.3391   -1.6007 C   0  0  0  0  0  0  0  0  0  0  0  0
   -1.2631   -1.3319   -1.8653 N   0  0  0  0  0  0  0  0  0  0  0  0
   -0.2323   -1.3110   -0.9156 C   0  0  0  0  0  0  0  0  0  0  0  0
    1.0770   -1.1425   -1.3720 C   0  0  0  0  0  0  0  0  0  0  0  0
    2.1340   -1.1403   -0.4570 C   0  0  0  0  0  0  0  0  0  0  0  0
    3.5108   -0.9839   -0.9679 C   0  0  0  0  0  0  0  0  0  0  0  0
    3.9069   -1.8248   -1.7704 O   0  0  0  0  0  0  0  0  0  0  0  0
    4.2728    0.0972   -0.5428 N   0  0  0  0  0  0  0  0  0  0  0  0
    5.7117    0.0831   -0.8201 C   0  0  0  0  0  0  0  0  0  0  0  0
    6.2516    1.4892   -1.0888 C   0  0  0  0  0  0  0  0  0  0  0  0
    5.8990    2.3888   -0.0267 O   0  0  0  0  0  0  0  0  0  0  0  0
    4.4736    2.4893    0.0851 C   0  0  0  0  0  0  0  0  0  0  0  0
    3.8423    1.1303    0.4072 C   0  0  0  0  0  0  0  0  0  0  0  0
    1.8991   -1.3652    0.9020 C   0  0  0  0  0  0  0  0  0  0  0  0
    0.5912   -1.5543    1.3521 C   0  0  0  0  0  0  0  0  0  0  0  0
   -0.4793   -1.5192    0.4495 C   0  0  0  0  0  0  0  0  0  0  0  0
   -2.1170   -1.8667    1.0511 S   0  0  0  0  0  0  0  0  0  0  0  0
   -3.0712   -0.8819   -0.1733 C   0  0  0  0  0  0  0  0  0  0  0  0
   -4.5482   -0.9864    0.0115 N   0  0  0  0  0  0  0  0  0  0  0  0
   -5.0125   -0.7185    1.3963 C   0  0  0  0  0  0  0  0  0  0  0  0
   -4.8751    0.7504    1.8260 C   0  0  0  0  0  0  0  0  0  0  0  0
   -5.6056    1.6141    0.9487 O   0  0  0  0  0  0  0  0  0  0  0  0
   -5.1970    1.4397   -0.4116 C   0  0  0  0  0  0  0  0  0  0  0  0
   -5.2936   -0.0325   -0.8567 C   0  0  0  0  0  0  0  0  0  0  0  0
   -1.0303   -1.4710   -2.8418 H   0  0  0  0  0  0  0  0  0  0  0  0
    1.2902   -1.0133   -2.4306 H   0  0  0  0  0  0  0  0  0  0  0  0
    6.1898   -0.3310    0.0759 H   0  0  0  0  0  0  0  0  0  0  0  0
    5.9466   -0.5767   -1.6610 H   0  0  0  0  0  0  0  0  0  0  0  0
    7.3436    1.4643   -1.1575 H   0  0  0  0  0  0  0  0  0  0  0  0
    5.8649    1.8856   -2.0352 H   0  0  0  0  0  0  0  0  0  0  0  0
    4.0706    2.8966   -0.8499 H   0  0  0  0  0  0  0  0  0  0  0  0
    4.2489    3.2033    0.8837 H   0  0  0  0  0  0  0  0  0  0  0  0
    4.1683    0.7952    1.3986 H   0  0  0  0  0  0  0  0  0  0  0  0
    2.7540    1.2300    0.4123 H   0  0  0  0  0  0  0  0  0  0  0  0
    2.7276   -1.4218    1.6038 H   0  0  0  0  0  0  0  0  0  0  0  0
    0.4159   -1.7527    2.4079 H   0  0  0  0  0  0  0  0  0  0  0  0
   -2.7505    0.1599   -0.0591 H   0  0  0  0  0  0  0  0  0  0  0  0
   -4.5346   -1.3744    2.1295 H   0  0  0  0  0  0  0  0  0  0  0  0
   -6.0771   -0.9878    1.4368 H   0  0  0  0  0  0  0  0  0  0  0  0
   -3.8280    1.0712    1.8607 H   0  0  0  0  0  0  0  0  0  0  0  0
   -5.2908    0.8794    2.8306 H   0  0  0  0  0  0  0  0  0  0  0  0
   -4.1823    1.8342   -0.5333 H   0  0  0  0  0  0  0  0  0  0  0  0
   -5.8593    2.0524   -1.0319 H   0  0  0  0  0  0  0  0  0  0  0  0
   -6.3506   -0.3298   -0.8252 H   0  0  0  0  0  0  0  0  0  0  0  0
   -5.0078   -0.1064   -1.9078 H   0  0  0  0  0  0  0  0  0  0  0  0
  1  2  2  0
  2  3  1  0
  3  4  1  0
  4  5  2  0
  5  6  1  0
  6  7  1  0
  7  8  2  0
  7  9  1  0
  9 10  1  0
 10 11  1  0
 11 12  1  0
 12 13  1  0
 13 14  1  0
  6 15  2  0
 15 16  1  0
 16 17  2  0
 17 18  1  0
 18 19  1  0
 19 20  1  0
 20 21  1  0
 21 22  1  0
 22 23  1  0
 23 24  1  0
 24 25  1  0
 19  2  1  0
 25 20  1  0
 17  4  1  0
 14  9  1  0
  3 26  1  0
  5 27  1  0
 10 28  1  0
 10 29  1  0
 11 30  1  0
 11 31  1  0
 13 32  1  0
 13 33  1  0
 14 34  1  0
 14 35  1  0
 15 36  1  0
 16 37  1  0
 19 38  1  0
 21 39  1  0
 21 40  1  0
 22 41  1  0
 22 42  1  0
 24 43  1  0
 24 44  1  0
 25 45  1  0
 25 46  1  0
M  END
$$$$
