
     RDKit          3D

 64 68  0  0  0  0  0  0  0  0999 V2000
    1.9376    2.0027    2.5280 O   0  0  0  0  0  0  0  0  0  0  0  0
    1.9610    1.6124    1.3585 C   0  0  0  0  0  0  0  0  0  0  0  0
    0.7645    1.8545    0.4250 C   0  0  0  0  0  0  0  0  0  0  0  0
   -0.2137    2.8608    1.0534 C   0  0  0  0  0  0  0  0  0  0  0  0
   -1.4777    3.0300    0.2157 C   0  0  0  0  0  0  0  0  0  0  0  0
   -2.1789    1.6985   -0.1197 C   0  0  0  0  0  0  0  0  0  0  0  0
   -3.6349    1.7014    0.3877 C   0  0  0  0  0  0  0  0  0  0  0  0
   -4.3699    0.5830   -0.1934 N   0  0  0  0  0  0  0  0  0  0  0  0
   -5.6065    0.1121    0.2346 C   0  0  0  0  0  0  0  0  0  0  0  0
   -5.9458    0.2530    1.5547 N   0  0  0  0  0  0  0  0  0  0  0  0
   -7.1081   -0.1739    2.1380 C   0  0  0  0  0  0  0  0  0  0  0  0
   -7.2924    0.0745    3.7864 S   0  0  0  0  0  0  0  0  0  0  0  0
   -8.0509   -0.7727    1.3533 N   0  0  0  0  0  0  0  0  0  0  0  0
   -7.7718   -0.9297    0.0990 C   0  0  0  0  0  0  0  0  0  0  0  0
   -8.7882   -1.5817   -0.7746 C   0  0  0  0  0  0  0  0  0  0  0  0
   -8.5523   -1.7747   -2.0793 C   0  0  0  0  0  0  0  0  0  0  0  0
   -7.3115   -1.3812   -2.6984 C   0  0  0  0  0  0  0  0  0  0  0  0
   -6.3366   -0.7880   -1.9937 C   0  0  0  0  0  0  0  0  0  0  0  0
   -6.4972   -0.5072   -0.5754 C   0  0  0  0  0  0  0  0  0  0  0  0
   -1.4105    0.4842    0.4275 C   0  0  0  0  0  0  0  0  0  0  0  0
    0.0701    0.5306    0.0567 C   0  0  0  0  0  0  0  0  0  0  0  0
    3.0554    0.9253    0.8536 N   0  0  0  0  0  0  0  0  0  0  0  0
    3.2507    0.5414   -0.5496 C   0  0  0  0  0  0  0  0  0  0  0  0
    4.7201    0.2379   -0.9096 C   0  0  0  0  0  0  0  0  0  0  0  0
    5.2968   -0.7674   -0.0045 N   0  0  0  0  0  0  0  0  0  0  0  0
    6.3810   -1.5510   -0.3737 C   0  0  0  0  0  0  0  0  0  0  0  0
    7.1713   -1.2539   -1.4990 C   0  0  0  0  0  0  0  0  0  0  0  0
    8.2592   -2.0532   -1.8721 C   0  0  0  0  0  0  0  0  0  0  0  0
    8.5742   -3.1734   -1.1215 C   0  0  0  0  0  0  0  0  0  0  0  0
    9.6131   -3.9406   -1.4755 F   0  0  0  0  0  0  0  0  0  0  0  0
    7.8219   -3.5070   -0.0083 C   0  0  0  0  0  0  0  0  0  0  0  0
    6.7369   -2.7017    0.3566 C   0  0  0  0  0  0  0  0  0  0  0  0
    4.8419   -0.7408    1.4006 C   0  0  0  0  0  0  0  0  0  0  0  0
    4.1537    0.5873    1.7637 C   0  0  0  0  0  0  0  0  0  0  0  0
    1.1477    2.3237   -0.4896 H   0  0  0  0  0  0  0  0  0  0  0  0
    0.2805    3.8348    1.1637 H   0  0  0  0  0  0  0  0  0  0  0  0
   -0.4952    2.5479    2.0681 H   0  0  0  0  0  0  0  0  0  0  0  0
   -2.1550    3.7191    0.7342 H   0  0  0  0  0  0  0  0  0  0  0  0
   -1.2104    3.5278   -0.7260 H   0  0  0  0  0  0  0  0  0  0  0  0
   -2.2014    1.6122   -1.2158 H   0  0  0  0  0  0  0  0  0  0  0  0
   -3.6336    1.6582    1.4819 H   0  0  0  0  0  0  0  0  0  0  0  0
   -4.1347    2.6310    0.0921 H   0  0  0  0  0  0  0  0  0  0  0  0
   -4.2618    0.5428   -1.2015 H   0  0  0  0  0  0  0  0  0  0  0  0
   -5.2736    0.6569    2.1877 H   0  0  0  0  0  0  0  0  0  0  0  0
   -9.7162   -1.8839   -0.3038 H   0  0  0  0  0  0  0  0  0  0  0  0
   -9.3004   -2.2516   -2.7059 H   0  0  0  0  0  0  0  0  0  0  0  0
   -7.1848   -1.5905   -3.7571 H   0  0  0  0  0  0  0  0  0  0  0  0
   -5.4150   -0.5227   -2.4969 H   0  0  0  0  0  0  0  0  0  0  0  0
   -1.5090    0.4339    1.5201 H   0  0  0  0  0  0  0  0  0  0  0  0
   -1.8429   -0.4448    0.0356 H   0  0  0  0  0  0  0  0  0  0  0  0
    0.1607    0.3798   -1.0272 H   0  0  0  0  0  0  0  0  0  0  0  0
    0.5654   -0.3283    0.5261 H   0  0  0  0  0  0  0  0  0  0  0  0
    2.8754    1.3321   -1.2043 H   0  0  0  0  0  0  0  0  0  0  0  0
    2.6466   -0.3563   -0.7208 H   0  0  0  0  0  0  0  0  0  0  0  0
    4.7324   -0.1133   -1.9480 H   0  0  0  0  0  0  0  0  0  0  0  0
    5.3141    1.1579   -0.8506 H   0  0  0  0  0  0  0  0  0  0  0  0
    6.9707   -0.3743   -2.1035 H   0  0  0  0  0  0  0  0  0  0  0  0
    8.8587   -1.8014   -2.7407 H   0  0  0  0  0  0  0  0  0  0  0  0
    8.0738   -4.3909    0.5680 H   0  0  0  0  0  0  0  0  0  0  0  0
    6.1541   -3.0101    1.2208 H   0  0  0  0  0  0  0  0  0  0  0  0
    4.1379   -1.5676    1.5549 H   0  0  0  0  0  0  0  0  0  0  0  0
    5.6841   -0.8724    2.0903 H   0  0  0  0  0  0  0  0  0  0  0  0
    4.8750    1.4122    1.7058 H   0  0  0  0  0  0  0  0  0  0  0  0
    3.7943    0.5383    2.7973 H   0  0  0  0  0  0  0  0  0  0  0  0
  1  2  2  0
  2  3  1  0
  3  4  1  0
  4  5  1  0
  5  6  1  0
  6  7  1  0
  7  8  1  0
  8  9  1  0
  9 10  1  0
 10 11  1  0
 11 12  2  0
 11 13  1  0
 13 14  2  0
 14 15  1  0
 15 16  2  0
 16 17  1  0
 17 18  2  0
 18 19  1  0
  6 20  1  0
 20 21  1  0
  2 22  1  0
 22 23  1  0
 23 24  1  0
 24 25  1  0
 25 26  1  0
 26 27  2  0
 27 28  1  0
 28 29  2  0
 29 30  1  0
 29 31  1  0
 31 32  2  0
 25 33  1  0
 33 34  1  0
 21  3  1  0
 34 22  1  0
 19  9  2  0
 32 26  1  0
 19 14  1  0
  3 35  1  0
  4 36  1  0
  4 37  1  0
  5 38  1  0
  5 39  1  0
  6 40  1  0
  7 41  1  0
  7 42  1  0
  8 43  1  0
 10 44  1  0
 15 45  1  0
 16 46  1  0
 17 47  1  0
 18 48  1  0
 20 49  1  0
 20 50  1  0
 21 51  1  0
 21 52  1  0
 23 53  1  0
 23 54  1  0
 24 55  1  0
 24 56  1  0
 27 57  1  0
 28 58  1  0
 31 59  1  0
 32 60  1  0
 33 61  1  0
 33 62  1  0
 34 63  1  0
 34 64  1  0
M  END
$$$$
