
     RDKit          3D

 50 52  0  0  0  0  0  0  0  0999 V2000
    1.1885    0.1924   -1.3355 O   0  0  0  0  0  0  0  0  0  0  0  0
    2.0214    0.5364   -0.2168 C   0  0  0  0  0  0  0  0  0  0  0  0
    2.9408    1.6885   -0.6531 C   0  0  0  0  0  0  0  0  0  0  0  0
    3.6745    1.3129   -1.8258 O   0  0  0  0  0  0  0  0  0  0  0  0
    4.8875    0.6230   -1.5237 C   0  0  0  0  0  0  0  0  0  0  0  0
    5.4200    0.1195   -2.8256 C   0  0  0  0  0  0  0  0  0  0  0  0
    5.9462    0.8500   -3.8741 C   0  0  0  0  0  0  0  0  0  0  0  0
    6.3603    0.0238   -4.9582 C   0  0  0  0  0  0  0  0  0  0  0  0
    6.1355   -1.3102   -4.7034 C   0  0  0  0  0  0  0  0  0  0  0  0
    5.4280   -1.5602   -3.1669 S   0  0  0  0  0  0  0  0  0  0  0  0
    1.1601    0.9553    0.9975 C   0  0  0  0  0  0  0  0  0  0  0  0
    0.5646   -0.1752    1.7402 N   0  0  0  0  0  0  0  0  0  0  0  0
   -0.3554   -0.9711    0.8873 C   0  0  0  0  0  0  0  0  0  0  0  0
   -1.4400   -1.7217    1.6898 C   0  0  0  0  0  0  0  0  0  0  0  0
   -2.3245   -0.7742    2.4034 N   0  0  0  0  0  0  0  0  0  0  0  0
   -3.6279   -0.5498    1.9445 C   0  0  0  0  0  0  0  0  0  0  0  0
   -4.5965   -0.0710    2.8417 C   0  0  0  0  0  0  0  0  0  0  0  0
   -5.9114    0.1790    2.4417 C   0  0  0  0  0  0  0  0  0  0  0  0
   -6.2895   -0.0464    1.1224 C   0  0  0  0  0  0  0  0  0  0  0  0
   -5.3552   -0.5291    0.1984 C   0  0  0  0  0  0  0  0  0  0  0  0
   -5.7408   -0.7513   -1.2416 C   0  0  0  0  0  0  0  0  0  0  0  0
   -7.0696   -1.0059   -1.4091 F   0  0  0  0  0  0  0  0  0  0  0  0
   -5.4680    0.3295   -2.0241 F   0  0  0  0  0  0  0  0  0  0  0  0
   -5.0894   -1.8019   -1.8152 F   0  0  0  0  0  0  0  0  0  0  0  0
   -4.0326   -0.7683    0.6207 C   0  0  0  0  0  0  0  0  0  0  0  0
   -1.6500    0.4677    2.8572 C   0  0  0  0  0  0  0  0  0  0  0  0
   -0.1197    0.2763    2.9754 C   0  0  0  0  0  0  0  0  0  0  0  0
    1.7804    0.1960   -2.1148 H   0  0  0  0  0  0  0  0  0  0  0  0
    2.6175   -0.3498    0.0256 H   0  0  0  0  0  0  0  0  0  0  0  0
    2.3309    2.5518   -0.9414 H   0  0  0  0  0  0  0  0  0  0  0  0
    3.6200    2.0038    0.1471 H   0  0  0  0  0  0  0  0  0  0  0  0
    4.7071   -0.1942   -0.8177 H   0  0  0  0  0  0  0  0  0  0  0  0
    5.5988    1.3242   -1.0726 H   0  0  0  0  0  0  0  0  0  0  0  0
    6.0213    1.9310   -3.8637 H   0  0  0  0  0  0  0  0  0  0  0  0
    6.7967    0.3902   -5.8794 H   0  0  0  0  0  0  0  0  0  0  0  0
    6.3488   -2.1528   -5.3467 H   0  0  0  0  0  0  0  0  0  0  0  0
    0.3722    1.6476    0.6732 H   0  0  0  0  0  0  0  0  0  0  0  0
    1.8135    1.4972    1.6929 H   0  0  0  0  0  0  0  0  0  0  0  0
   -0.8683   -0.3236    0.1645 H   0  0  0  0  0  0  0  0  0  0  0  0
    0.2344   -1.7042    0.3258 H   0  0  0  0  0  0  0  0  0  0  0  0
   -0.9558   -2.3611    2.4397 H   0  0  0  0  0  0  0  0  0  0  0  0
   -1.9940   -2.4102    1.0421 H   0  0  0  0  0  0  0  0  0  0  0  0
   -4.3300    0.0897    3.8840 H   0  0  0  0  0  0  0  0  0  0  0  0
   -6.6366    0.5436    3.1645 H   0  0  0  0  0  0  0  0  0  0  0  0
   -7.3154    0.1527    0.8171 H   0  0  0  0  0  0  0  0  0  0  0  0
   -3.3149   -1.1076   -0.1230 H   0  0  0  0  0  0  0  0  0  0  0  0
   -1.8470    1.2899    2.1559 H   0  0  0  0  0  0  0  0  0  0  0  0
   -2.0392    0.7606    3.8393 H   0  0  0  0  0  0  0  0  0  0  0  0
    0.0688   -0.4880    3.7411 H   0  0  0  0  0  0  0  0  0  0  0  0
    0.3342    1.1951    3.3669 H   0  0  0  0  0  0  0  0  0  0  0  0
  1  2  1  0
  2  3  1  0
  3  4  1  0
  4  5  1  0
  5  6  1  0
  6  7  2  0
  7  8  1  0
  8  9  2  0
  9 10  1  0
  2 11  1  0
 11 12  1  0
 12 13  1  0
 13 14  1  0
 14 15  1  0
 15 16  1  0
 16 17  2  0
 17 18  1  0
 18 19  2  0
 19 20  1  0
 20 21  1  0
 21 22  1  0
 21 23  1  0
 21 24  1  0
 20 25  2  0
 15 26  1  0
 26 27  1  0
 10  6  1  0
 27 12  1  0
 25 16  1  0
  1 28  1  0
  2 29  1  0
  3 30  1  0
  3 31  1  0
  5 32  1  0
  5 33  1  0
  7 34  1  0
  8 35  1  0
  9 36  1  0
 11 37  1  0
 11 38  1  0
 13 39  1  0
 13 40  1  0
 14 41  1  0
 14 42  1  0
 17 43  1  0
 18 44  1  0
 19 45  1  0
 25 46  1  0
 26 47  1  0
 26 48  1  0
 27 49  1  0
 27 50  1  0
M  END
$$$$
