
     RDKit          3D

 52 55  0  0  0  0  0  0  0  0999 V2000
   -8.5639   -0.8791   -0.3614 C   0  0  0  0  0  0  0  0  0  0  0  0
   -7.8378   -0.0838    0.5675 O   0  0  0  0  0  0  0  0  0  0  0  0
   -6.5421   -0.4467    0.8111 C   0  0  0  0  0  0  0  0  0  0  0  0
   -5.8794   -1.5452    0.2636 C   0  0  0  0  0  0  0  0  0  0  0  0
   -4.5444   -1.8016    0.5998 C   0  0  0  0  0  0  0  0  0  0  0  0
   -3.8579   -0.9581    1.4798 C   0  0  0  0  0  0  0  0  0  0  0  0
   -2.4638   -1.2149    1.8543 C   0  0  0  0  0  0  0  0  0  0  0  0
   -1.4004   -1.1572    1.0385 C   0  0  0  0  0  0  0  0  0  0  0  0
   -1.3906   -0.7829   -0.6350 S   0  0  0  0  0  0  0  0  0  0  0  0
    0.3661   -0.7267   -0.6776 C   0  0  0  0  0  0  0  0  0  0  0  0
    1.0026   -0.1601   -1.7295 C   0  0  0  0  0  0  0  0  0  0  0  0
    0.3208    0.2321   -2.9209 C   0  0  0  0  0  0  0  0  0  0  0  0
   -0.2501    0.5604   -3.8771 N   0  0  0  0  0  0  0  0  0  0  0  0
    2.4518    0.1632   -1.7509 C   0  0  0  0  0  0  0  0  0  0  0  0
    3.1735   -0.2517   -2.6508 O   0  0  0  0  0  0  0  0  0  0  0  0
    2.8738    0.9957   -0.7445 N   0  0  0  0  0  0  0  0  0  0  0  0
    4.2309    1.4903   -0.6886 C   0  0  0  0  0  0  0  0  0  0  0  0
    4.2343    2.8712   -1.2252 C   0  0  0  0  0  0  0  0  0  0  0  0
    4.5053    3.4021   -2.4695 C   0  0  0  0  0  0  0  0  0  0  0  0
    4.3188    4.8004   -2.3553 C   0  0  0  0  0  0  0  0  0  0  0  0
    3.9419    5.0322   -1.0533 C   0  0  0  0  0  0  0  0  0  0  0  0
    3.8829    3.8664   -0.3589 O   0  0  0  0  0  0  0  0  0  0  0  0
    0.9071   -1.2224    0.5175 N   0  0  0  0  0  0  0  0  0  0  0  0
    2.2496   -1.6826    0.7246 C   0  0  0  0  0  0  0  0  0  0  0  0
    2.9139   -1.4462    1.9372 C   0  0  0  0  0  0  0  0  0  0  0  0
    4.2234   -1.8925    2.1372 C   0  0  0  0  0  0  0  0  0  0  0  0
    4.8833   -2.5931    1.1320 C   0  0  0  0  0  0  0  0  0  0  0  0
    4.2309   -2.8575   -0.0685 C   0  0  0  0  0  0  0  0  0  0  0  0
    2.9204   -2.4131   -0.2681 C   0  0  0  0  0  0  0  0  0  0  0  0
   -0.0315   -1.4365    1.5476 C   0  0  0  0  0  0  0  0  0  0  0  0
    0.1721   -1.8234    2.6915 O   0  0  0  0  0  0  0  0  0  0  0  0
   -4.5275    0.1342    2.0372 C   0  0  0  0  0  0  0  0  0  0  0  0
   -5.8601    0.3869    1.7004 C   0  0  0  0  0  0  0  0  0  0  0  0
   -8.0936   -0.8624   -1.3500 H   0  0  0  0  0  0  0  0  0  0  0  0
   -8.6801   -1.9045    0.0046 H   0  0  0  0  0  0  0  0  0  0  0  0
   -9.5639   -0.4465   -0.4619 H   0  0  0  0  0  0  0  0  0  0  0  0
   -6.3698   -2.2242   -0.4258 H   0  0  0  0  0  0  0  0  0  0  0  0
   -4.0498   -2.6686    0.1670 H   0  0  0  0  0  0  0  0  0  0  0  0
   -2.3217   -1.4516    2.9084 H   0  0  0  0  0  0  0  0  0  0  0  0
    2.2165    1.4126   -0.0994 H   0  0  0  0  0  0  0  0  0  0  0  0
    4.9056    0.8435   -1.2578 H   0  0  0  0  0  0  0  0  0  0  0  0
    4.5435    1.4803    0.3603 H   0  0  0  0  0  0  0  0  0  0  0  0
    4.7940    2.8422   -3.3492 H   0  0  0  0  0  0  0  0  0  0  0  0
    4.4394    5.5472   -3.1276 H   0  0  0  0  0  0  0  0  0  0  0  0
    3.6911    5.9231   -0.4941 H   0  0  0  0  0  0  0  0  0  0  0  0
    2.4324   -0.8944    2.7416 H   0  0  0  0  0  0  0  0  0  0  0  0
    4.7240   -1.6952    3.0820 H   0  0  0  0  0  0  0  0  0  0  0  0
    5.9006   -2.9434    1.2881 H   0  0  0  0  0  0  0  0  0  0  0  0
    4.7377   -3.4164   -0.8518 H   0  0  0  0  0  0  0  0  0  0  0  0
    2.4346   -2.6728   -1.2055 H   0  0  0  0  0  0  0  0  0  0  0  0
   -4.0225    0.8009    2.7321 H   0  0  0  0  0  0  0  0  0  0  0  0
   -6.3721    1.2423    2.1344 H   0  0  0  0  0  0  0  0  0  0  0  0
  1  2  1  0
  2  3  1  0
  3  4  2  0
  4  5  1  0
  5  6  2  0
  6  7  1  0
  7  8  2  3
  8  9  1  0
  9 10  1  0
 10 11  2  3
 11 12  1  0
 12 13  3  0
 11 14  1  0
 14 15  2  0
 14 16  1  0
 16 17  1  0
 17 18  1  0
 18 19  2  0
 19 20  1  0
 20 21  2  0
 21 22  1  0
 10 23  1  0
 23 24  1  0
 24 25  2  0
 25 26  1  0
 26 27  2  0
 27 28  1  0
 28 29  2  0
 23 30  1  0
 30 31  2  0
  6 32  1  0
 32 33  2  0
 33  3  1  0
 30  8  1  0
 22 18  1  0
 29 24  1  0
  1 34  1  0
  1 35  1  0
  1 36  1  0
  4 37  1  0
  5 38  1  0
  7 39  1  0
 16 40  1  0
 17 41  1  0
 17 42  1  0
 19 43  1  0
 20 44  1  0
 21 45  1  0
 25 46  1  0
 26 47  1  0
 27 48  1  0
 28 49  1  0
 29 50  1  0
 32 51  1  0
 33 52  1  0
M  END
$$$$
