
     RDKit          3D

 42 44  0  0  0  0  0  0  0  0999 V2000
    4.6944    0.6782    0.8987 C   0  0  0  0  0  0  0  0  0  0  0  0
    3.4501   -0.1071    0.5138 C   0  0  0  0  0  0  0  0  0  0  0  0
    2.2866    0.1964    1.4588 C   0  0  0  0  0  0  0  0  0  0  0  0
    1.0238   -0.6097    1.1363 C   0  0  0  0  0  0  0  0  0  0  0  0
    0.3137   -0.2939   -0.2085 C   0  0  0  0  0  0  0  0  0  0  0  0
   -0.7066   -1.3885   -0.4658 C   0  0  0  0  0  0  0  0  0  0  0  0
   -2.0232   -1.1953   -0.2676 C   0  0  0  0  0  0  0  0  0  0  0  0
   -3.0771   -2.2372   -0.5037 C   0  0  0  0  0  0  0  0  0  0  0  0
   -2.6018   -3.3145   -1.4716 C   0  0  0  0  0  0  0  0  0  0  0  0
   -1.2320   -3.8409   -1.0760 C   0  0  0  0  0  0  0  0  0  0  0  0
   -0.2268   -2.7170   -0.9434 C   0  0  0  0  0  0  0  0  0  0  0  0
    0.9673   -2.9048   -1.1670 O   0  0  0  0  0  0  0  0  0  0  0  0
   -2.5255    0.0315    0.1485 O   0  0  0  0  0  0  0  0  0  0  0  0
   -1.7135    1.1533    0.0312 C   0  0  0  0  0  0  0  0  0  0  0  0
   -0.3851    1.0526   -0.1696 C   0  0  0  0  0  0  0  0  0  0  0  0
    0.3821    2.2925   -0.4848 C   0  0  0  0  0  0  0  0  0  0  0  0
    1.5523    2.2259   -0.8557 O   0  0  0  0  0  0  0  0  0  0  0  0
   -0.3295    3.6288   -0.4349 C   0  0  0  0  0  0  0  0  0  0  0  0
   -1.5256    3.6004    0.5003 C   0  0  0  0  0  0  0  0  0  0  0  0
   -2.4590    2.4505    0.1464 C   0  0  0  0  0  0  0  0  0  0  0  0
    5.0169    0.4302    1.9150 H   0  0  0  0  0  0  0  0  0  0  0  0
    4.5080    1.7558    0.8498 H   0  0  0  0  0  0  0  0  0  0  0  0
    5.5166    0.4443    0.2152 H   0  0  0  0  0  0  0  0  0  0  0  0
    3.1867    0.1376   -0.5196 H   0  0  0  0  0  0  0  0  0  0  0  0
    3.6795   -1.1787    0.5419 H   0  0  0  0  0  0  0  0  0  0  0  0
    2.0692    1.2685    1.4759 H   0  0  0  0  0  0  0  0  0  0  0  0
    2.5951   -0.0610    2.4806 H   0  0  0  0  0  0  0  0  0  0  0  0
    1.2960   -1.6726    1.1781 H   0  0  0  0  0  0  0  0  0  0  0  0
    0.3128   -0.4582    1.9612 H   0  0  0  0  0  0  0  0  0  0  0  0
    1.0270   -0.3003   -1.0404 H   0  0  0  0  0  0  0  0  0  0  0  0
   -3.3534   -2.6868    0.4575 H   0  0  0  0  0  0  0  0  0  0  0  0
   -3.9804   -1.7705   -0.9143 H   0  0  0  0  0  0  0  0  0  0  0  0
   -2.5518   -2.8945   -2.4848 H   0  0  0  0  0  0  0  0  0  0  0  0
   -3.3265   -4.1358   -1.5015 H   0  0  0  0  0  0  0  0  0  0  0  0
   -0.8776   -4.5369   -1.8440 H   0  0  0  0  0  0  0  0  0  0  0  0
   -1.2770   -4.3744   -0.1203 H   0  0  0  0  0  0  0  0  0  0  0  0
   -0.6409    3.8846   -1.4538 H   0  0  0  0  0  0  0  0  0  0  0  0
    0.3810    4.3872   -0.0883 H   0  0  0  0  0  0  0  0  0  0  0  0
   -1.1786    3.4837    1.5354 H   0  0  0  0  0  0  0  0  0  0  0  0
   -2.0666    4.5519    0.4495 H   0  0  0  0  0  0  0  0  0  0  0  0
   -2.9716    2.6540   -0.8013 H   0  0  0  0  0  0  0  0  0  0  0  0
   -3.2293    2.3707    0.9225 H   0  0  0  0  0  0  0  0  0  0  0  0
  1  2  1  0
  2  3  1  0
  3  4  1  0
  4  5  1  0
  5  6  1  0
  6  7  2  0
  7  8  1  0
  8  9  1  0
  9 10  1  0
 10 11  1  0
 11 12  2  0
  7 13  1  0
 13 14  1  0
 14 15  2  0
 15 16  1  0
 16 17  2  0
 16 18  1  0
 18 19  1  0
 19 20  1  0
 15  5  1  0
 11  6  1  0
 20 14  1  0
  1 21  1  0
  1 22  1  0
  1 23  1  0
  2 24  1  0
  2 25  1  0
  3 26  1  0
  3 27  1  0
  4 28  1  0
  4 29  1  0
  5 30  1  0
  8 31  1  0
  8 32  1  0
  9 33  1  0
  9 34  1  0
 10 35  1  0
 10 36  1  0
 18 37  1  0
 18 38  1  0
 19 39  1  0
 19 40  1  0
 20 41  1  0
 20 42  1  0
M  END
$$$$
