
     RDKit          3D

 50 53  0  0  0  0  0  0  0  0999 V2000
   -4.3683   -4.3018   -0.0861 C   0  0  0  0  0  0  0  0  0  0  0  0
   -3.8907   -3.7738   -1.3176 O   0  0  0  0  0  0  0  0  0  0  0  0
   -3.0173   -2.7248   -1.2410 C   0  0  0  0  0  0  0  0  0  0  0  0
   -2.5329   -2.1420   -0.0717 C   0  0  0  0  0  0  0  0  0  0  0  0
   -1.6366   -1.0688   -0.1387 C   0  0  0  0  0  0  0  0  0  0  0  0
   -1.2019   -0.5650   -1.3745 C   0  0  0  0  0  0  0  0  0  0  0  0
   -0.2461    0.6148   -1.4809 C   0  0  0  0  0  0  0  0  0  0  0  0
   -1.0035    1.9398   -1.3715 C   0  0  0  0  0  0  0  0  0  0  0  0
   -0.5443    2.3999   -0.0150 C   0  0  0  0  0  0  0  0  0  0  0  0
   -1.1533    3.5693    0.6605 C   0  0  0  0  0  0  0  0  0  0  0  0
   -0.7526    3.8828    1.9651 C   0  0  0  0  0  0  0  0  0  0  0  0
   -1.3173    4.9713    2.6327 C   0  0  0  0  0  0  0  0  0  0  0  0
   -2.2804    5.7540    1.9986 C   0  0  0  0  0  0  0  0  0  0  0  0
   -2.6813    5.4491    0.6986 C   0  0  0  0  0  0  0  0  0  0  0  0
   -2.1213    4.3583    0.0283 C   0  0  0  0  0  0  0  0  0  0  0  0
    0.4332    1.7135    0.4953 N   0  0  0  0  0  0  0  0  0  0  0  0
    0.7126    0.6994   -0.3766 N   0  0  0  0  0  0  0  0  0  0  0  0
    1.8049   -0.1412   -0.1705 C   0  0  0  0  0  0  0  0  0  0  0  0
    2.1011   -1.2177   -1.0241 C   0  0  0  0  0  0  0  0  0  0  0  0
    3.1968   -2.0596   -0.7952 C   0  0  0  0  0  0  0  0  0  0  0  0
    4.0301   -1.8254    0.2973 C   0  0  0  0  0  0  0  0  0  0  0  0
    5.4027   -2.8976    0.5857 S   0  0  0  0  0  6  0  0  0  0  0  0
    6.3827   -2.5907   -0.7455 N   0  0  0  0  0  0  0  0  0  0  0  0
    4.9636   -4.2669    0.4516 O   0  0  0  0  0  0  0  0  0  0  0  0
    6.1549   -2.4296    1.7274 O   0  0  0  0  0  0  0  0  0  0  0  0
    3.7697   -0.7688    1.1646 C   0  0  0  0  0  0  0  0  0  0  0  0
    2.6665    0.0582    0.9252 C   0  0  0  0  0  0  0  0  0  0  0  0
   -1.7017   -1.1545   -2.5454 C   0  0  0  0  0  0  0  0  0  0  0  0
   -2.5972   -2.2250   -2.4749 C   0  0  0  0  0  0  0  0  0  0  0  0
   -4.9318   -3.5475    0.4736 H   0  0  0  0  0  0  0  0  0  0  0  0
   -5.0527   -5.1235   -0.3187 H   0  0  0  0  0  0  0  0  0  0  0  0
   -3.5488   -4.7112    0.5149 H   0  0  0  0  0  0  0  0  0  0  0  0
   -2.8244   -2.4969    0.9111 H   0  0  0  0  0  0  0  0  0  0  0  0
   -1.2683   -0.6339    0.7893 H   0  0  0  0  0  0  0  0  0  0  0  0
    0.2843    0.5767   -2.4415 H   0  0  0  0  0  0  0  0  0  0  0  0
   -2.0910    1.8408   -1.4293 H   0  0  0  0  0  0  0  0  0  0  0  0
   -0.6514    2.6568   -2.1217 H   0  0  0  0  0  0  0  0  0  0  0  0
   -0.0039    3.2776    2.4727 H   0  0  0  0  0  0  0  0  0  0  0  0
   -1.0040    5.2066    3.6466 H   0  0  0  0  0  0  0  0  0  0  0  0
   -2.7201    6.6015    2.5197 H   0  0  0  0  0  0  0  0  0  0  0  0
   -3.4332    6.0619    0.2064 H   0  0  0  0  0  0  0  0  0  0  0  0
   -2.4545    4.1477   -0.9836 H   0  0  0  0  0  0  0  0  0  0  0  0
    1.4732   -1.4352   -1.8832 H   0  0  0  0  0  0  0  0  0  0  0  0
    3.3859   -2.8923   -1.4681 H   0  0  0  0  0  0  0  0  0  0  0  0
    6.5004   -3.4475   -1.2871 H   0  0  0  0  0  0  0  0  0  0  0  0
    7.2607   -2.1742   -0.4338 H   0  0  0  0  0  0  0  0  0  0  0  0
    4.4042   -0.5777    2.0265 H   0  0  0  0  0  0  0  0  0  0  0  0
    2.4740    0.8781    1.6146 H   0  0  0  0  0  0  0  0  0  0  0  0
   -1.3979   -0.7895   -3.5241 H   0  0  0  0  0  0  0  0  0  0  0  0
   -2.9727   -2.6755   -3.3908 H   0  0  0  0  0  0  0  0  0  0  0  0
  1  2  1  0
  2  3  1  0
  3  4  2  0
  4  5  1  0
  5  6  2  0
  6  7  1  0
  7  8  1  0
  8  9  1  0
  9 10  1  0
 10 11  2  0
 11 12  1  0
 12 13  2  0
 13 14  1  0
 14 15  2  0
  9 16  2  0
 16 17  1  0
 17 18  1  0
 18 19  2  0
 19 20  1  0
 20 21  2  0
 21 22  1  0
 22 23  1  0
 22 24  2  0
 22 25  2  0
 21 26  1  0
 26 27  2  0
  6 28  1  0
 28 29  2  0
 29  3  1  0
 17  7  1  0
 27 18  1  0
 15 10  1  0
  1 30  1  0
  1 31  1  0
  1 32  1  0
  4 33  1  0
  5 34  1  0
  7 35  1  0
  8 36  1  0
  8 37  1  0
 11 38  1  0
 12 39  1  0
 13 40  1  0
 14 41  1  0
 15 42  1  0
 19 43  1  0
 20 44  1  0
 23 45  1  0
 23 46  1  0
 26 47  1  0
 27 48  1  0
 28 49  1  0
 29 50  1  0
M  END
$$$$
