
     RDKit          3D

 37 39  0  0  0  0  0  0  0  0999 V2000
    0.6310   -1.0641    0.0032 O   0  0  0  0  0  0  0  0  0  0  0  0
    0.0843   -0.8453    1.0751 C   0  0  0  0  0  0  0  0  0  0  0  0
    0.6627    0.0197    2.1431 C   0  0  0  0  0  0  0  0  0  0  0  0
    1.7857    0.7516    2.0925 C   0  0  0  0  0  0  0  0  0  0  0  0
    2.6853    0.8710    0.9373 C   0  0  0  0  0  0  0  0  0  0  0  0
    2.2383    1.5319   -0.2168 C   0  0  0  0  0  0  0  0  0  0  0  0
    3.0886    1.6599   -1.3255 C   0  0  0  0  0  0  0  0  0  0  0  0
    2.6014    2.3284   -2.5383 N   0  0  0  0  0  4  0  0  0  0  0  0
    1.4342    2.7462   -2.5371 O   0  0  0  0  0  0  0  0  0  0  0  0
    3.3864    2.4405   -3.4905 O   0  0  0  0  0  1  0  0  0  0  0  0
    4.3947    1.1573   -1.2872 C   0  0  0  0  0  0  0  0  0  0  0  0
    4.8459    0.5168   -0.1332 C   0  0  0  0  0  0  0  0  0  0  0  0
    3.9967    0.3723    0.9646 C   0  0  0  0  0  0  0  0  0  0  0  0
    4.5234   -0.2805    2.0447 O   0  0  0  0  0  0  0  0  0  0  0  0
   -0.3452   -0.0327    3.5392 S   0  0  0  0  0  0  0  0  0  0  0  0
   -1.5304   -1.0814    2.7685 C   0  0  0  0  0  0  0  0  0  0  0  0
   -2.8900   -1.6044    3.5808 S   0  0  0  0  0  0  0  0  0  0  0  0
   -1.1311   -1.3695    1.4814 N   0  0  0  0  0  0  0  0  0  0  0  0
   -1.8900   -2.1864    0.5351 C   0  0  0  0  0  0  0  0  0  0  0  0
   -2.8456   -1.3539   -0.2961 C   0  0  0  0  0  0  0  0  0  0  0  0
   -4.2165   -1.3227    0.0016 C   0  0  0  0  0  0  0  0  0  0  0  0
   -5.0910   -0.5373   -0.7544 C   0  0  0  0  0  0  0  0  0  0  0  0
   -4.6020    0.2215   -1.8147 C   0  0  0  0  0  0  0  0  0  0  0  0
   -5.6800    1.1885   -2.7429 Cl  0  0  0  0  0  0  0  0  0  0  0  0
   -3.2458    0.1996   -2.1276 C   0  0  0  0  0  0  0  0  0  0  0  0
   -2.3715   -0.5861   -1.3724 C   0  0  0  0  0  0  0  0  0  0  0  0
    2.0969    1.3367    2.9570 H   0  0  0  0  0  0  0  0  0  0  0  0
    1.2260    1.9307   -0.2532 H   0  0  0  0  0  0  0  0  0  0  0  0
    5.0658    1.2520   -2.1382 H   0  0  0  0  0  0  0  0  0  0  0  0
    5.8579    0.1204   -0.0901 H   0  0  0  0  0  0  0  0  0  0  0  0
    3.8197   -0.4629    2.6877 H   0  0  0  0  0  0  0  0  0  0  0  0
   -2.4384   -2.9695    1.0698 H   0  0  0  0  0  0  0  0  0  0  0  0
   -1.2001   -2.7097   -0.1388 H   0  0  0  0  0  0  0  0  0  0  0  0
   -4.6211   -1.9099    0.8238 H   0  0  0  0  0  0  0  0  0  0  0  0
   -6.1500   -0.5224   -0.5102 H   0  0  0  0  0  0  0  0  0  0  0  0
   -2.8611    0.7889   -2.9564 H   0  0  0  0  0  0  0  0  0  0  0  0
   -1.3152   -0.5953   -1.6379 H   0  0  0  0  0  0  0  0  0  0  0  0
  1  2  2  0
  2  3  1  0
  3  4  2  3
  4  5  1  0
  5  6  2  0
  6  7  1  0
  7  8  1  0
  8  9  2  0
  8 10  1  0
  7 11  2  0
 11 12  1  0
 12 13  2  0
 13 14  1  0
  3 15  1  0
 15 16  1  0
 16 17  2  0
 16 18  1  0
 18 19  1  0
 19 20  1  0
 20 21  2  0
 21 22  1  0
 22 23  2  0
 23 24  1  0
 23 25  1  0
 25 26  2  0
 18  2  1  0
 26 20  1  0
 13  5  1  0
  4 27  1  0
  6 28  1  0
 11 29  1  0
 12 30  1  0
 14 31  1  0
 19 32  1  0
 19 33  1  0
 21 34  1  0
 22 35  1  0
 25 36  1  0
 26 37  1  0
M  CHG  2   8   1  10  -1
M  END
$$$$
