
     RDKit          3D

 48 50  0  0  0  0  0  0  0  0999 V2000
    2.6419    1.9427    0.4605 C   0  0  0  0  0  0  0  0  0  0  0  0
    1.3909    1.4746    0.5879 C   0  0  0  0  0  0  0  0  0  0  0  0
    0.2948    2.1216    1.3107 C   0  0  0  0  0  0  0  0  0  0  0  0
    0.2666    3.3249    2.1544 C   0  0  0  0  0  0  0  0  0  0  0  0
   -0.7855    3.8418    2.5194 O   0  0  0  0  0  0  0  0  0  0  0  0
    1.5021    3.7476    2.5078 O   0  0  0  0  0  0  0  0  0  0  0  0
    1.5102    4.8943    3.3595 C   0  0  0  0  0  0  0  0  0  0  0  0
   -0.8297    1.4078    1.1034 C   0  0  0  0  0  0  0  0  0  0  0  0
   -2.0863    1.6573    1.5802 O   0  0  0  0  0  0  0  0  0  0  0  0
   -0.5392    0.2333    0.2810 C   0  0  0  0  0  0  0  0  0  0  0  0
   -1.3918   -0.7464   -0.0788 C   0  0  0  0  0  0  0  0  0  0  0  0
   -2.8238   -0.8453    0.2156 C   0  0  0  0  0  0  0  0  0  0  0  0
   -3.7513   -0.0366   -0.4531 C   0  0  0  0  0  0  0  0  0  0  0  0
   -5.1172   -0.1597   -0.1860 C   0  0  0  0  0  0  0  0  0  0  0  0
   -5.5493   -1.0989    0.7454 C   0  0  0  0  0  0  0  0  0  0  0  0
   -6.8728   -1.2525    1.0364 O   0  0  0  0  0  0  0  0  0  0  0  0
   -4.6410   -1.9140    1.4107 C   0  0  0  0  0  0  0  0  0  0  0  0
   -3.2761   -1.7890    1.1449 C   0  0  0  0  0  0  0  0  0  0  0  0
    0.8397    0.3190    0.0014 N   0  0  0  0  0  0  0  0  0  0  0  0
    1.5597   -0.5936   -0.8151 C   0  0  0  0  0  0  0  0  0  0  0  0
    1.1928   -0.8069   -2.1530 C   0  0  0  0  0  0  0  0  0  0  0  0
    1.8972   -1.7060   -2.9646 C   0  0  0  0  0  0  0  0  0  0  0  0
    1.5147   -1.8866   -4.4036 C   0  0  0  0  0  0  0  0  0  0  0  0
    2.9989   -2.3860   -2.4319 C   0  0  0  0  0  0  0  0  0  0  0  0
    3.3767   -2.2032   -1.0963 C   0  0  0  0  0  0  0  0  0  0  0  0
    4.5702   -2.9203   -0.5384 C   0  0  0  0  0  0  0  0  0  0  0  0
    2.6590   -1.2992   -0.3019 C   0  0  0  0  0  0  0  0  0  0  0  0
    2.9811    2.8655    0.9128 H   0  0  0  0  0  0  0  0  0  0  0  0
    3.3806    1.4182   -0.1363 H   0  0  0  0  0  0  0  0  0  0  0  0
    2.5517    5.1496    3.5733 H   0  0  0  0  0  0  0  0  0  0  0  0
    1.0065    4.6723    4.3055 H   0  0  0  0  0  0  0  0  0  0  0  0
    1.0401    5.7469    2.8594 H   0  0  0  0  0  0  0  0  0  0  0  0
   -2.0610    2.5023    2.0758 H   0  0  0  0  0  0  0  0  0  0  0  0
   -1.0195   -1.5996   -0.6397 H   0  0  0  0  0  0  0  0  0  0  0  0
   -3.4112    0.7004   -1.1761 H   0  0  0  0  0  0  0  0  0  0  0  0
   -5.8186    0.4821   -0.7086 H   0  0  0  0  0  0  0  0  0  0  0  0
   -7.3761   -0.5976    0.5259 H   0  0  0  0  0  0  0  0  0  0  0  0
   -4.9924   -2.6420    2.1357 H   0  0  0  0  0  0  0  0  0  0  0  0
   -2.5698   -2.4264    1.6706 H   0  0  0  0  0  0  0  0  0  0  0  0
    0.3556   -0.2499   -2.5687 H   0  0  0  0  0  0  0  0  0  0  0  0
    2.0443   -1.1585   -5.0257 H   0  0  0  0  0  0  0  0  0  0  0  0
    0.4365   -1.7525   -4.5407 H   0  0  0  0  0  0  0  0  0  0  0  0
    1.7624   -2.8954   -4.7503 H   0  0  0  0  0  0  0  0  0  0  0  0
    3.5666   -3.0676   -3.0630 H   0  0  0  0  0  0  0  0  0  0  0  0
    4.7052   -3.8920   -1.0249 H   0  0  0  0  0  0  0  0  0  0  0  0
    4.4468   -3.1088    0.5333 H   0  0  0  0  0  0  0  0  0  0  0  0
    5.4722   -2.3197   -0.6909 H   0  0  0  0  0  0  0  0  0  0  0  0
    2.9476   -1.1480    0.7363 H   0  0  0  0  0  0  0  0  0  0  0  0
  1  2  2  0
  2  3  1  0
  3  4  1  0
  4  5  2  0
  4  6  1  0
  6  7  1  0
  3  8  2  0
  8  9  1  0
  8 10  1  0
 10 11  2  3
 11 12  1  0
 12 13  2  0
 13 14  1  0
 14 15  2  0
 15 16  1  0
 15 17  1  0
 17 18  2  0
 10 19  1  0
 19 20  1  0
 20 21  2  0
 21 22  1  0
 22 23  1  0
 22 24  2  0
 24 25  1  0
 25 26  1  0
 25 27  2  0
 19  2  1  0
 27 20  1  0
 18 12  1  0
  1 28  1  0
  1 29  1  0
  7 30  1  0
  7 31  1  0
  7 32  1  0
  9 33  1  0
 11 34  1  0
 13 35  1  0
 14 36  1  0
 16 37  1  0
 17 38  1  0
 18 39  1  0
 21 40  1  0
 23 41  1  0
 23 42  1  0
 23 43  1  0
 24 44  1  0
 26 45  1  0
 26 46  1  0
 26 47  1  0
 27 48  1  0
M  END
$$$$
