
     RDKit          3D

 50 53  0  0  0  0  0  0  0  0999 V2000
   -4.4431   -4.1444   -1.3293 C   0  0  0  0  0  0  0  0  0  0  0  0
   -3.7413   -3.5278   -2.4017 O   0  0  0  0  0  0  0  0  0  0  0  0
   -2.8528   -2.5425   -2.0701 C   0  0  0  0  0  0  0  0  0  0  0  0
   -2.1402   -2.0124   -3.1471 C   0  0  0  0  0  0  0  0  0  0  0  0
   -1.1969   -1.0002   -2.9515 C   0  0  0  0  0  0  0  0  0  0  0  0
   -0.9455   -0.4986   -1.6658 C   0  0  0  0  0  0  0  0  0  0  0  0
    0.0687    0.6213   -1.4845 C   0  0  0  0  0  0  0  0  0  0  0  0
   -0.6226    1.9859   -1.4684 C   0  0  0  0  0  0  0  0  0  0  0  0
   -0.4299    2.3703   -0.0273 C   0  0  0  0  0  0  0  0  0  0  0  0
   -1.0793    3.5682    0.5549 C   0  0  0  0  0  0  0  0  0  0  0  0
   -1.8512    4.4353   -0.2266 C   0  0  0  0  0  0  0  0  0  0  0  0
   -2.4502    5.5558    0.3558 C   0  0  0  0  0  0  0  0  0  0  0  0
   -2.2804    5.8143    1.7154 C   0  0  0  0  0  0  0  0  0  0  0  0
   -1.5114    4.9547    2.4976 C   0  0  0  0  0  0  0  0  0  0  0  0
   -0.9115    3.8344    1.9197 C   0  0  0  0  0  0  0  0  0  0  0  0
    0.3649    1.5950    0.6468 N   0  0  0  0  0  0  0  0  0  0  0  0
    0.7547    0.5884   -0.1903 N   0  0  0  0  0  0  0  0  0  0  0  0
    1.7298   -0.3272    0.2003 C   0  0  0  0  0  0  0  0  0  0  0  0
    2.1841   -1.3534   -0.6456 C   0  0  0  0  0  0  0  0  0  0  0  0
    3.1663   -2.2644   -0.2371 C   0  0  0  0  0  0  0  0  0  0  0  0
    3.7188   -2.1550    1.0376 C   0  0  0  0  0  0  0  0  0  0  0  0
    4.9635   -3.3031    1.5552 S   0  0  0  0  0  6  0  0  0  0  0  0
    6.3688   -2.5147    1.0601 N   0  0  0  0  0  0  0  0  0  0  0  0
    4.8349   -4.5094    0.7730 O   0  0  0  0  0  0  0  0  0  0  0  0
    5.0123   -3.3135    2.9992 O   0  0  0  0  0  0  0  0  0  0  0  0
    3.2841   -1.1617    1.9104 C   0  0  0  0  0  0  0  0  0  0  0  0
    2.3034   -0.2596    1.4849 C   0  0  0  0  0  0  0  0  0  0  0  0
   -1.6763   -1.0285   -0.5910 C   0  0  0  0  0  0  0  0  0  0  0  0
   -2.6184   -2.0445   -0.7900 C   0  0  0  0  0  0  0  0  0  0  0  0
   -5.0899   -3.4248   -0.8165 H   0  0  0  0  0  0  0  0  0  0  0  0
   -5.0837   -4.9236   -1.7536 H   0  0  0  0  0  0  0  0  0  0  0  0
   -3.7526   -4.6260   -0.6289 H   0  0  0  0  0  0  0  0  0  0  0  0
   -2.3210   -2.3949   -4.1489 H   0  0  0  0  0  0  0  0  0  0  0  0
   -0.6608   -0.6110   -3.8143 H   0  0  0  0  0  0  0  0  0  0  0  0
    0.8004    0.5955   -2.3022 H   0  0  0  0  0  0  0  0  0  0  0  0
   -0.0865    2.7046   -2.0976 H   0  0  0  0  0  0  0  0  0  0  0  0
   -1.6787    1.9573   -1.7499 H   0  0  0  0  0  0  0  0  0  0  0  0
   -1.9998    4.2645   -1.2883 H   0  0  0  0  0  0  0  0  0  0  0  0
   -3.0501    6.2291   -0.2519 H   0  0  0  0  0  0  0  0  0  0  0  0
   -2.7475    6.6867    2.1662 H   0  0  0  0  0  0  0  0  0  0  0  0
   -1.3775    5.1548    3.5578 H   0  0  0  0  0  0  0  0  0  0  0  0
   -0.3139    3.1707    2.5414 H   0  0  0  0  0  0  0  0  0  0  0  0
    1.7724   -1.4744   -1.6435 H   0  0  0  0  0  0  0  0  0  0  0  0
    3.4837   -3.0530   -0.9165 H   0  0  0  0  0  0  0  0  0  0  0  0
    6.1828   -1.6995    0.4768 H   0  0  0  0  0  0  0  0  0  0  0  0
    6.9157   -2.2727    1.8881 H   0  0  0  0  0  0  0  0  0  0  0  0
    3.6886   -1.0779    2.9161 H   0  0  0  0  0  0  0  0  0  0  0  0
    1.9722    0.5122    2.1777 H   0  0  0  0  0  0  0  0  0  0  0  0
   -1.5091   -0.6587    0.4202 H   0  0  0  0  0  0  0  0  0  0  0  0
   -3.1477   -2.4216    0.0786 H   0  0  0  0  0  0  0  0  0  0  0  0
  1  2  1  0
  2  3  1  0
  3  4  2  0
  4  5  1  0
  5  6  2  0
  6  7  1  0
  7  8  1  0
  8  9  1  0
  9 10  1  0
 10 11  2  0
 11 12  1  0
 12 13  2  0
 13 14  1  0
 14 15  2  0
  9 16  2  0
 16 17  1  0
 17 18  1  0
 18 19  2  0
 19 20  1  0
 20 21  2  0
 21 22  1  0
 22 23  1  0
 22 24  2  0
 22 25  2  0
 21 26  1  0
 26 27  2  0
  6 28  1  0
 28 29  2  0
 29  3  1  0
 17  7  1  0
 27 18  1  0
 15 10  1  0
  1 30  1  0
  1 31  1  0
  1 32  1  0
  4 33  1  0
  5 34  1  0
  7 35  1  0
  8 36  1  0
  8 37  1  0
 11 38  1  0
 12 39  1  0
 13 40  1  0
 14 41  1  0
 15 42  1  0
 19 43  1  0
 20 44  1  0
 23 45  1  0
 23 46  1  0
 26 47  1  0
 27 48  1  0
 28 49  1  0
 29 50  1  0
M  END
$$$$
