
     RDKit          3D

 53 56  0  0  0  0  0  0  0  0999 V2000
   -0.7219   -4.1446   -1.5010 C   0  0  0  0  0  0  0  0  0  0  0  0
   -0.0603   -3.4064   -0.3436 C   0  0  0  0  0  0  0  0  0  0  0  0
   -0.2924   -1.9581   -0.4210 N   0  0  0  0  0  0  0  0  0  0  0  0
    0.5972   -1.2073   -1.2087 C   0  0  0  0  0  0  0  0  0  0  0  0
    1.3613   -1.7617   -2.0073 O   0  0  0  0  0  0  0  0  0  0  0  0
    0.5957    0.3193   -1.0440 C   0  0  0  0  0  0  0  0  0  0  0  0
    2.2821    0.9989   -1.1912 S   0  0  0  0  0  0  0  0  0  0  0  0
    3.0058    0.3109    0.2219 C   0  0  0  0  0  0  0  0  0  0  0  0
    2.3722   -0.0369    1.3197 N   0  0  0  0  0  0  0  0  0  0  0  0
    3.3043   -0.5337    2.2042 N   0  0  0  0  0  0  0  0  0  0  0  0
    4.4822   -0.4787    1.6197 C   0  0  0  0  0  0  0  0  0  0  0  0
    5.7861   -0.8509    2.0476 C   0  0  0  0  0  0  0  0  0  0  0  0
    6.8333   -0.6775    1.2173 C   0  0  0  0  0  0  0  0  0  0  0  0
    6.6636   -0.1166   -0.1152 C   0  0  0  0  0  0  0  0  0  0  0  0
    5.4321    0.2369   -0.5228 C   0  0  0  0  0  0  0  0  0  0  0  0
    4.3508    0.0566    0.3429 N   0  0  0  0  0  0  0  0  0  0  0  0
   -1.3973   -1.4161    0.2459 C   0  0  0  0  0  0  0  0  0  0  0  0
   -2.3327   -0.6546   -0.3801 C   0  0  0  0  0  0  0  0  0  0  0  0
   -2.3150   -0.5312   -1.7713 N   0  0  0  0  0  0  0  0  0  0  0  0
   -3.3253   -0.0222    0.3669 N   0  0  0  0  0  0  0  0  0  0  0  0
   -4.0972    1.0900   -0.2032 C   0  0  0  0  0  0  0  0  0  0  0  0
   -3.3250    2.3938   -0.1863 C   0  0  0  0  0  0  0  0  0  0  0  0
   -3.2847    3.1812    0.9739 C   0  0  0  0  0  0  0  0  0  0  0  0
   -2.5473    4.3660    1.0033 C   0  0  0  0  0  0  0  0  0  0  0  0
   -1.8396    4.7761   -0.1245 C   0  0  0  0  0  0  0  0  0  0  0  0
   -1.8690    4.0028   -1.2827 C   0  0  0  0  0  0  0  0  0  0  0  0
   -2.6072    2.8184   -1.3141 C   0  0  0  0  0  0  0  0  0  0  0  0
   -3.5082   -0.2649    1.7227 C   0  0  0  0  0  0  0  0  0  0  0  0
   -4.3257    0.3173    2.4334 O   0  0  0  0  0  0  0  0  0  0  0  0
   -2.7108   -1.2198    2.2728 N   0  0  0  0  0  0  0  0  0  0  0  0
   -1.5671   -1.6876    1.7079 C   0  0  0  0  0  0  0  0  0  0  0  0
   -0.7388   -2.2915    2.3820 O   0  0  0  0  0  0  0  0  0  0  0  0
   -0.3475   -3.7941   -2.4678 H   0  0  0  0  0  0  0  0  0  0  0  0
   -0.5237   -5.2184   -1.4280 H   0  0  0  0  0  0  0  0  0  0  0  0
   -1.8067   -3.9958   -1.4902 H   0  0  0  0  0  0  0  0  0  0  0  0
   -0.4380   -3.8187    0.5953 H   0  0  0  0  0  0  0  0  0  0  0  0
    1.0199   -3.5940   -0.3615 H   0  0  0  0  0  0  0  0  0  0  0  0
   -0.0010    0.7538   -1.8500 H   0  0  0  0  0  0  0  0  0  0  0  0
    0.1806    0.6354   -0.0845 H   0  0  0  0  0  0  0  0  0  0  0  0
    5.9078   -1.2698    3.0401 H   0  0  0  0  0  0  0  0  0  0  0  0
    7.8367   -0.9568    1.5258 H   0  0  0  0  0  0  0  0  0  0  0  0
    7.5345    0.0007   -0.7516 H   0  0  0  0  0  0  0  0  0  0  0  0
    5.2335    0.6556   -1.5012 H   0  0  0  0  0  0  0  0  0  0  0  0
   -1.7677   -1.2759   -2.2069 H   0  0  0  0  0  0  0  0  0  0  0  0
   -3.2559   -0.5491   -2.1561 H   0  0  0  0  0  0  0  0  0  0  0  0
   -5.0299    1.2276    0.3590 H   0  0  0  0  0  0  0  0  0  0  0  0
   -4.4245    0.8476   -1.2203 H   0  0  0  0  0  0  0  0  0  0  0  0
   -3.8259    2.8732    1.8672 H   0  0  0  0  0  0  0  0  0  0  0  0
   -2.5219    4.9657    1.9096 H   0  0  0  0  0  0  0  0  0  0  0  0
   -1.2623    5.6965   -0.0986 H   0  0  0  0  0  0  0  0  0  0  0  0
   -1.3125    4.3198   -2.1610 H   0  0  0  0  0  0  0  0  0  0  0  0
   -2.6089    2.2236   -2.2243 H   0  0  0  0  0  0  0  0  0  0  0  0
   -2.7882   -1.3349    3.2720 H   0  0  0  0  0  0  0  0  0  0  0  0
  1  2  1  0
  2  3  1  0
  3  4  1  0
  4  5  2  0
  4  6  1  0
  6  7  1  0
  7  8  1  0
  8  9  2  0
  9 10  1  0
 10 11  2  0
 11 12  1  0
 12 13  2  0
 13 14  1  0
 14 15  2  0
 15 16  1  0
  3 17  1  0
 17 18  2  0
 18 19  1  0
 18 20  1  0
 20 21  1  0
 21 22  1  0
 22 23  2  0
 23 24  1  0
 24 25  2  0
 25 26  1  0
 26 27  2  0
 20 28  1  0
 28 29  2  0
 28 30  1  0
 30 31  1  0
 31 32  2  0
 16  8  1  0
 31 17  1  0
 16 11  1  0
 27 22  1  0
  1 33  1  0
  1 34  1  0
  1 35  1  0
  2 36  1  0
  2 37  1  0
  6 38  1  0
  6 39  1  0
 12 40  1  0
 13 41  1  0
 14 42  1  0
 15 43  1  0
 19 44  1  0
 19 45  1  0
 21 46  1  0
 21 47  1  0
 23 48  1  0
 24 49  1  0
 25 50  1  0
 26 51  1  0
 27 52  1  0
 30 53  1  0
M  END
$$$$
