
     RDKit          3D

 43 44  0  0  0  0  0  0  0  0999 V2000
   -1.2842    2.5945    2.7614 C   0  0  0  0  0  0  0  0  0  0  0  0
   -1.4555    2.5866    1.2541 C   0  0  0  0  0  0  0  0  0  0  0  0
   -1.9627    1.3165    0.8193 O   0  0  0  0  0  0  0  0  0  0  0  0
   -1.0351    0.3460    0.5879 C   0  0  0  0  0  0  0  0  0  0  0  0
    0.1728    0.5031    0.7544 O   0  0  0  0  0  0  0  0  0  0  0  0
   -1.6076   -0.9191    0.1050 C   0  0  0  0  0  0  0  0  0  0  0  0
   -0.7875   -1.9732   -0.2807 C   0  0  0  0  0  0  0  0  0  0  0  0
    0.5974   -1.9757   -0.2488 N   0  0  0  0  0  0  0  0  0  0  0  0
    1.4687   -2.9587   -0.6829 C   0  0  0  0  0  0  0  0  0  0  0  0
    1.1867   -4.0642   -1.1342 O   0  0  0  0  0  0  0  0  0  0  0  0
    2.9361   -2.5524   -0.4849 C   0  0  0  0  0  0  0  0  0  0  0  0
    3.1304   -1.1546   -0.2364 O   0  0  0  0  0  0  0  0  0  0  0  0
    3.2084   -0.3801   -1.3476 C   0  0  0  0  0  0  0  0  0  0  0  0
    3.1408   -0.7764   -2.4987 O   0  0  0  0  0  0  0  0  0  0  0  0
    3.3645    1.0510   -0.9827 C   0  0  0  0  0  0  0  0  0  0  0  0
    3.3467    1.4935    0.3408 C   0  0  0  0  0  0  0  0  0  0  0  0
    3.4791    2.8505    0.5727 C   0  0  0  0  0  0  0  0  0  0  0  0
    3.6272    3.7681   -0.4064 N   0  0  0  0  0  0  0  0  0  0  0  0
    3.6435    3.3134   -1.6775 C   0  0  0  0  0  0  0  0  0  0  0  0
    3.5158    1.9789   -2.0147 C   0  0  0  0  0  0  0  0  0  0  0  0
   -1.6563   -3.3162   -0.8203 S   0  0  0  0  0  0  0  0  0  0  0  0
   -3.1580   -2.5573   -0.5562 C   0  0  0  0  0  0  0  0  0  0  0  0
   -4.4159   -3.3015   -0.8712 C   0  0  0  0  0  0  0  0  0  0  0  0
   -3.0144   -1.2715   -0.0525 C   0  0  0  0  0  0  0  0  0  0  0  0
   -4.1684   -0.3742    0.2799 C   0  0  0  0  0  0  0  0  0  0  0  0
   -0.5479    1.8491    3.0779 H   0  0  0  0  0  0  0  0  0  0  0  0
   -0.9562    3.5782    3.1091 H   0  0  0  0  0  0  0  0  0  0  0  0
   -2.2273    2.3407    3.2566 H   0  0  0  0  0  0  0  0  0  0  0  0
   -0.5202    2.8390    0.7413 H   0  0  0  0  0  0  0  0  0  0  0  0
   -2.1941    3.3410    0.9642 H   0  0  0  0  0  0  0  0  0  0  0  0
    1.0223   -1.1225    0.1135 H   0  0  0  0  0  0  0  0  0  0  0  0
    3.5253   -2.8860   -1.3469 H   0  0  0  0  0  0  0  0  0  0  0  0
    3.3051   -3.0880    0.3963 H   0  0  0  0  0  0  0  0  0  0  0  0
    3.2194    0.8158    1.1771 H   0  0  0  0  0  0  0  0  0  0  0  0
    3.4671    3.2497    1.5832 H   0  0  0  0  0  0  0  0  0  0  0  0
    3.7642    4.0760   -2.4420 H   0  0  0  0  0  0  0  0  0  0  0  0
    3.5310    1.6723   -3.0559 H   0  0  0  0  0  0  0  0  0  0  0  0
   -5.0111   -3.4375    0.0379 H   0  0  0  0  0  0  0  0  0  0  0  0
   -4.2235   -4.2925   -1.2954 H   0  0  0  0  0  0  0  0  0  0  0  0
   -5.0152   -2.7410   -1.5963 H   0  0  0  0  0  0  0  0  0  0  0  0
   -4.1167   -0.0553    1.3259 H   0  0  0  0  0  0  0  0  0  0  0  0
   -4.1631    0.5090   -0.3668 H   0  0  0  0  0  0  0  0  0  0  0  0
   -5.1316   -0.8748    0.1425 H   0  0  0  0  0  0  0  0  0  0  0  0
  1  2  1  0
  2  3  1  0
  3  4  1  0
  4  5  2  0
  4  6  1  0
  6  7  2  0
  7  8  1  0
  8  9  1  0
  9 10  2  0
  9 11  1  0
 11 12  1  0
 12 13  1  0
 13 14  2  0
 13 15  1  0
 15 16  2  0
 16 17  1  0
 17 18  2  0
 18 19  1  0
 19 20  2  0
  7 21  1  0
 21 22  1  0
 22 23  1  0
 22 24  2  0
 24 25  1  0
 24  6  1  0
 20 15  1  0
  1 26  1  0
  1 27  1  0
  1 28  1  0
  2 29  1  0
  2 30  1  0
  8 31  1  0
 11 32  1  0
 11 33  1  0
 16 34  1  0
 17 35  1  0
 19 36  1  0
 20 37  1  0
 23 38  1  0
 23 39  1  0
 23 40  1  0
 25 41  1  0
 25 42  1  0
 25 43  1  0
M  END
$$$$
