
     RDKit          3D

 41 44  0  0  0  0  0  0  0  0999 V2000
    1.2163   -1.5755   -2.0696 O   0  0  0  0  0  0  0  0  0  0  0  0
    0.4107   -2.0457   -1.2831 C   0  0  0  0  0  0  0  0  0  0  0  0
   -0.1875   -3.2291   -1.5633 O   0  0  0  0  0  0  0  0  0  0  0  0
   -0.0330   -1.4463    0.0484 C   0  0  0  0  0  0  0  0  0  0  0  0
    0.9702   -1.8041    1.1490 C   0  0  0  0  0  0  0  0  0  0  0  0
    2.1764   -0.9158    1.1376 C   0  0  0  0  0  0  0  0  0  0  0  0
    3.3962   -1.1898    0.5513 C   0  0  0  0  0  0  0  0  0  0  0  0
    4.2183   -0.1126    0.7460 N   0  0  0  0  0  0  0  0  0  0  0  0
    3.5624    0.8652    1.4561 C   0  0  0  0  0  0  0  0  0  0  0  0
    4.0055    2.1244    1.8785 C   0  0  0  0  0  0  0  0  0  0  0  0
    3.1084    2.9191    2.5982 C   0  0  0  0  0  0  0  0  0  0  0  0
    1.8214    2.4696    2.8829 C   0  0  0  0  0  0  0  0  0  0  0  0
    1.3944    1.2084    2.4519 C   0  0  0  0  0  0  0  0  0  0  0  0
    2.2795    0.3875    1.7230 C   0  0  0  0  0  0  0  0  0  0  0  0
   -1.3675   -2.0022    0.4030 N   0  0  0  0  0  0  0  0  0  0  0  0
   -2.5807   -0.9579    0.8754 S   0  0  0  0  0  6  0  0  0  0  0  0
   -3.7797   -1.7353    1.0829 O   0  0  0  0  0  0  0  0  0  0  0  0
   -2.0290   -0.1286    1.9260 O   0  0  0  0  0  0  0  0  0  0  0  0
   -2.8531    0.0713   -0.5179 C   0  0  0  0  0  0  0  0  0  0  0  0
   -2.8546    1.4771   -0.3843 C   0  0  0  0  0  0  0  0  0  0  0  0
   -3.0684    2.3506   -1.4754 C   0  0  0  0  0  0  0  0  0  0  0  0
   -3.2977    1.8958   -2.7852 C   0  0  0  0  0  0  0  0  0  0  0  0
   -3.3008    0.4921   -2.9716 C   0  0  0  0  0  0  0  0  0  0  0  0
   -3.4951   -0.1398   -4.1381 N   0  0  0  0  0  0  0  0  0  0  0  0
   -3.4075   -1.7641   -3.8172 S   0  0  0  0  0  0  0  0  0  0  0  0
   -3.0835   -1.7397   -2.1894 N   0  0  0  0  0  0  0  0  0  0  0  0
   -3.0695   -0.4495   -1.8127 C   0  0  0  0  0  0  0  0  0  0  0  0
    0.1913   -3.4856   -2.4312 H   0  0  0  0  0  0  0  0  0  0  0  0
   -0.1080   -0.3631   -0.0975 H   0  0  0  0  0  0  0  0  0  0  0  0
    1.2866   -2.8515    1.0541 H   0  0  0  0  0  0  0  0  0  0  0  0
    0.4938   -1.7232    2.1350 H   0  0  0  0  0  0  0  0  0  0  0  0
    3.7467   -2.0535    0.0016 H   0  0  0  0  0  0  0  0  0  0  0  0
    5.1699   -0.0382    0.4145 H   0  0  0  0  0  0  0  0  0  0  0  0
    5.0083    2.4764    1.6606 H   0  0  0  0  0  0  0  0  0  0  0  0
    3.4223    3.9014    2.9435 H   0  0  0  0  0  0  0  0  0  0  0  0
    1.1399    3.0999    3.4489 H   0  0  0  0  0  0  0  0  0  0  0  0
    0.3893    0.8683    2.6872 H   0  0  0  0  0  0  0  0  0  0  0  0
   -1.6862   -2.7790   -0.1887 H   0  0  0  0  0  0  0  0  0  0  0  0
   -2.6883    1.9200    0.6001 H   0  0  0  0  0  0  0  0  0  0  0  0
   -3.0565    3.4262   -1.2919 H   0  0  0  0  0  0  0  0  0  0  0  0
   -3.4614    2.5768   -3.6124 H   0  0  0  0  0  0  0  0  0  0  0  0
  1  2  2  0
  2  3  1  0
  2  4  1  0
  4  5  1  0
  5  6  1  0
  6  7  2  0
  7  8  1  0
  8  9  1  0
  9 10  2  0
 10 11  1  0
 11 12  2  0
 12 13  1  0
 13 14  2  0
  4 15  1  0
 15 16  1  0
 16 17  2  0
 16 18  2  0
 16 19  1  0
 19 20  2  0
 20 21  1  0
 21 22  2  0
 22 23  1  0
 23 24  2  0
 24 25  1  0
 25 26  1  0
 26 27  2  0
 14  6  1  0
 27 19  1  0
 14  9  1  0
 27 23  1  0
  3 28  1  0
  4 29  1  0
  5 30  1  0
  5 31  1  0
  7 32  1  0
  8 33  1  0
 10 34  1  0
 11 35  1  0
 12 36  1  0
 13 37  1  0
 15 38  1  0
 20 39  1  0
 21 40  1  0
 22 41  1  0
M  END
$$$$
