
     RDKit          3D

 45 47  0  0  0  0  0  0  0  0999 V2000
   -2.7847    2.0846    0.4960 O   0  0  0  0  0  0  0  0  0  0  0  0
   -2.3618    0.9426    0.6640 C   0  0  0  0  0  0  0  0  0  0  0  0
   -1.0548    0.6453    1.4051 C   0  0  0  0  0  0  0  0  0  0  0  0
   -0.1646    1.7595    1.4180 O   0  0  0  0  0  0  0  0  0  0  0  0
    0.4164    2.0113    0.2108 C   0  0  0  0  0  0  0  0  0  0  0  0
    0.2738    1.3171   -0.7901 O   0  0  0  0  0  0  0  0  0  0  0  0
    1.2401    3.2757    0.2435 C   0  0  0  0  0  0  0  0  0  0  0  0
    2.6313    3.1767    1.4187 S   0  0  0  0  0  0  0  0  0  0  0  0
    3.4627    1.6929    0.8739 C   0  0  0  0  0  0  0  0  0  0  0  0
    3.8459    0.7598    1.8401 C   0  0  0  0  0  0  0  0  0  0  0  0
    4.5010   -0.4173    1.4690 C   0  0  0  0  0  0  0  0  0  0  0  0
    4.7924   -0.6798    0.1223 C   0  0  0  0  0  0  0  0  0  0  0  0
    5.4505   -1.8573   -0.2690 C   0  0  0  0  0  0  0  0  0  0  0  0
    5.7394   -2.0996   -1.6127 C   0  0  0  0  0  0  0  0  0  0  0  0
    5.3705   -1.1715   -2.5813 C   0  0  0  0  0  0  0  0  0  0  0  0
    4.7143    0.0028   -2.2084 C   0  0  0  0  0  0  0  0  0  0  0  0
    4.4197    0.2648   -0.8604 C   0  0  0  0  0  0  0  0  0  0  0  0
    3.7630    1.4457   -0.4695 C   0  0  0  0  0  0  0  0  0  0  0  0
   -3.0218   -0.1837    0.2144 N   0  0  0  0  0  0  0  0  0  0  0  0
   -4.2845   -0.0900   -0.5006 C   0  0  0  0  0  0  0  0  0  0  0  0
   -4.5897   -1.3749   -1.2690 C   0  0  0  0  0  0  0  0  0  0  0  0
   -5.3086   -2.2898   -0.2746 C   0  0  0  0  0  0  0  0  0  0  0  0
   -5.7066   -1.4142    0.9127 C   0  0  0  0  0  0  0  0  0  0  0  0
   -5.4699    0.0203    0.4560 C   0  0  0  0  0  0  0  0  0  0  0  0
   -1.3140    0.4206    2.4459 H   0  0  0  0  0  0  0  0  0  0  0  0
   -0.5575   -0.2401    0.9899 H   0  0  0  0  0  0  0  0  0  0  0  0
    0.5871    4.1091    0.5229 H   0  0  0  0  0  0  0  0  0  0  0  0
    1.6157    3.4874   -0.7632 H   0  0  0  0  0  0  0  0  0  0  0  0
    3.6376    0.9387    2.8937 H   0  0  0  0  0  0  0  0  0  0  0  0
    4.7856   -1.1265    2.2439 H   0  0  0  0  0  0  0  0  0  0  0  0
    5.7456   -2.5952    0.4737 H   0  0  0  0  0  0  0  0  0  0  0  0
    6.2519   -3.0136   -1.9016 H   0  0  0  0  0  0  0  0  0  0  0  0
    5.5932   -1.3594   -3.6289 H   0  0  0  0  0  0  0  0  0  0  0  0
    4.4334    0.7148   -2.9810 H   0  0  0  0  0  0  0  0  0  0  0  0
    3.4956    2.1745   -1.2305 H   0  0  0  0  0  0  0  0  0  0  0  0
   -2.6390   -1.0997    0.4136 H   0  0  0  0  0  0  0  0  0  0  0  0
   -4.2360    0.7748   -1.1723 H   0  0  0  0  0  0  0  0  0  0  0  0
   -5.2706   -1.1504   -2.1009 H   0  0  0  0  0  0  0  0  0  0  0  0
   -3.6973   -1.8504   -1.6926 H   0  0  0  0  0  0  0  0  0  0  0  0
   -6.1886   -2.7438   -0.7417 H   0  0  0  0  0  0  0  0  0  0  0  0
   -4.6538   -3.1064    0.0559 H   0  0  0  0  0  0  0  0  0  0  0  0
   -5.0695   -1.6476    1.7734 H   0  0  0  0  0  0  0  0  0  0  0  0
   -6.7447   -1.5805    1.2178 H   0  0  0  0  0  0  0  0  0  0  0  0
   -5.2944    0.6954    1.2990 H   0  0  0  0  0  0  0  0  0  0  0  0
   -6.3542    0.3774   -0.0884 H   0  0  0  0  0  0  0  0  0  0  0  0
  1  2  2  0
  2  3  1  0
  3  4  1  0
  4  5  1  0
  5  6  2  0
  5  7  1  0
  7  8  1  0
  8  9  1  0
  9 10  2  0
 10 11  1  0
 11 12  2  0
 12 13  1  0
 13 14  2  0
 14 15  1  0
 15 16  2  0
 16 17  1  0
 17 18  2  0
  2 19  1  0
 19 20  1  0
 20 21  1  0
 21 22  1  0
 22 23  1  0
 23 24  1  0
 18  9  1  0
 24 20  1  0
 17 12  1  0
  3 25  1  0
  3 26  1  0
  7 27  1  0
  7 28  1  0
 10 29  1  0
 11 30  1  0
 13 31  1  0
 14 32  1  0
 15 33  1  0
 16 34  1  0
 18 35  1  0
 19 36  1  0
 20 37  1  0
 21 38  1  0
 21 39  1  0
 22 40  1  0
 22 41  1  0
 23 42  1  0
 23 43  1  0
 24 44  1  0
 24 45  1  0
M  END
$$$$
