
     RDKit          3D

 36 38  0  0  0  0  0  0  0  0999 V2000
    0.1096   -1.3113    0.4946 O   0  0  0  0  0  0  0  0  0  0  0  0
   -0.2139   -0.2462   -0.0183 C   0  0  0  0  0  0  0  0  0  0  0  0
   -1.6415    0.1375   -0.2180 C   0  0  0  0  0  0  0  0  0  0  0  0
   -2.6419   -0.6243    0.2471 C   0  0  0  0  0  0  0  0  0  0  0  0
   -4.0753   -0.3435    0.1171 C   0  0  0  0  0  0  0  0  0  0  0  0
   -4.8330   -0.1022    1.2692 C   0  0  0  0  0  0  0  0  0  0  0  0
   -6.2022    0.1520    1.1695 C   0  0  0  0  0  0  0  0  0  0  0  0
   -6.8128    0.1585   -0.0788 C   0  0  0  0  0  0  0  0  0  0  0  0
   -8.1511    0.4123   -0.1291 O   0  0  0  0  0  0  0  0  0  0  0  0
   -6.0778   -0.0896   -1.2333 C   0  0  0  0  0  0  0  0  0  0  0  0
   -4.7074   -0.3450   -1.1333 C   0  0  0  0  0  0  0  0  0  0  0  0
   -1.7596    1.6225   -1.0732 S   0  0  0  0  0  0  0  0  0  0  0  0
   -0.0135    1.8008   -1.1978 C   0  0  0  0  0  0  0  0  0  0  0  0
    0.6936    3.0866   -2.0006 S   0  0  0  0  0  0  0  0  0  0  0  0
    0.6111    0.7543   -0.5326 N   0  0  0  0  0  0  0  0  0  0  0  0
    1.9945    0.6806   -0.5700 N   0  0  0  0  0  0  0  0  0  0  0  0
    2.6241   -0.0249    0.3129 C   0  0  0  0  0  0  0  0  0  0  0  0
    4.0965   -0.1581    0.2759 C   0  0  0  0  0  0  0  0  0  0  0  0
    4.7241   -0.9550    1.2384 C   0  0  0  0  0  0  0  0  0  0  0  0
    6.1131   -1.0915    1.2220 C   0  0  0  0  0  0  0  0  0  0  0  0
    6.8607   -0.4343    0.2498 C   0  0  0  0  0  0  0  0  0  0  0  0
    8.2138   -0.5975    0.2748 O   0  0  0  0  0  0  0  0  0  0  0  0
    6.2445    0.3607   -0.7126 C   0  0  0  0  0  0  0  0  0  0  0  0
    4.8547    0.4995   -0.6999 C   0  0  0  0  0  0  0  0  0  0  0  0
   -2.4140   -1.5371    0.7967 H   0  0  0  0  0  0  0  0  0  0  0  0
   -4.3663   -0.1047    2.2514 H   0  0  0  0  0  0  0  0  0  0  0  0
   -6.7899    0.3446    2.0626 H   0  0  0  0  0  0  0  0  0  0  0  0
   -8.4351    0.3997   -1.0578 H   0  0  0  0  0  0  0  0  0  0  0  0
   -6.5478   -0.0909   -2.2115 H   0  0  0  0  0  0  0  0  0  0  0  0
   -4.1401   -0.5465   -2.0391 H   0  0  0  0  0  0  0  0  0  0  0  0
    2.1262   -0.5342    1.1538 H   0  0  0  0  0  0  0  0  0  0  0  0
    4.1478   -1.4744    1.9994 H   0  0  0  0  0  0  0  0  0  0  0  0
    6.6124   -1.7090    1.9640 H   0  0  0  0  0  0  0  0  0  0  0  0
    8.6033   -0.0874   -0.4545 H   0  0  0  0  0  0  0  0  0  0  0  0
    6.8219    0.8764   -1.4737 H   0  0  0  0  0  0  0  0  0  0  0  0
    4.3715    1.1217   -1.4502 H   0  0  0  0  0  0  0  0  0  0  0  0
  1  2  2  0
  2  3  1  0
  3  4  2  3
  4  5  1  0
  5  6  2  0
  6  7  1  0
  7  8  2  0
  8  9  1  0
  8 10  1  0
 10 11  2  0
  3 12  1  0
 12 13  1  0
 13 14  2  0
 13 15  1  0
 15 16  1  0
 16 17  2  3
 17 18  1  0
 18 19  2  0
 19 20  1  0
 20 21  2  0
 21 22  1  0
 21 23  1  0
 23 24  2  0
 15  2  1  0
 24 18  1  0
 11  5  1  0
  4 25  1  0
  6 26  1  0
  7 27  1  0
  9 28  1  0
 10 29  1  0
 11 30  1  0
 17 31  1  0
 19 32  1  0
 20 33  1  0
 22 34  1  0
 23 35  1  0
 24 36  1  0
M  END
$$$$
