
     RDKit          3D

 41 42  0  0  0  0  0  0  0  0999 V2000
   -6.2833    0.3116   -2.8155 C   0  0  0  0  0  0  0  0  0  0  0  0
   -4.8509    1.1108   -3.5858 S   0  0  0  0  0  0  0  0  0  0  0  0
   -3.6595    0.9144   -2.2743 C   0  0  0  0  0  0  0  0  0  0  0  0
   -2.4948    0.1819   -2.5117 C   0  0  0  0  0  0  0  0  0  0  0  0
   -1.5409    0.0217   -1.5024 C   0  0  0  0  0  0  0  0  0  0  0  0
   -1.7282    0.6069   -0.2416 C   0  0  0  0  0  0  0  0  0  0  0  0
   -0.6938    0.4355    0.8511 C   0  0  0  0  0  0  0  0  0  0  0  0
    0.3726    1.4576    0.9471 N   0  0  0  0  0  0  0  0  0  0  0  0
   -0.1582    2.7830    1.2647 C   0  0  0  0  0  0  0  0  0  0  0  0
    1.2281    1.5318   -0.2629 C   0  0  0  0  0  0  0  0  0  0  0  0
    2.0669    0.2578   -0.4367 C   0  0  0  0  0  0  0  0  0  0  0  0
    2.2907   -0.2110   -1.5480 O   0  0  0  0  0  0  0  0  0  0  0  0
    2.5391   -0.2184    0.7751 N   0  0  0  0  0  0  0  0  0  0  0  0
    3.3619   -1.3318    1.0156 C   0  0  0  0  0  0  0  0  0  0  0  0
    3.6317   -1.6466    2.3544 C   0  0  0  0  0  0  0  0  0  0  0  0
    4.4411   -2.7370    2.6829 C   0  0  0  0  0  0  0  0  0  0  0  0
    4.9900   -3.5230    1.6730 C   0  0  0  0  0  0  0  0  0  0  0  0
    4.7257   -3.2109    0.3412 C   0  0  0  0  0  0  0  0  0  0  0  0
    5.4748   -4.2782   -1.0301 Br  0  0  0  0  0  0  0  0  0  0  0  0
    3.9172   -2.1215    0.0073 C   0  0  0  0  0  0  0  0  0  0  0  0
   -2.8983    1.3448   -0.0122 C   0  0  0  0  0  0  0  0  0  0  0  0
   -3.8527    1.5018   -1.0218 C   0  0  0  0  0  0  0  0  0  0  0  0
   -6.0347   -0.7083   -2.5089 H   0  0  0  0  0  0  0  0  0  0  0  0
   -6.6267    0.8795   -1.9469 H   0  0  0  0  0  0  0  0  0  0  0  0
   -7.0997    0.2663   -3.5414 H   0  0  0  0  0  0  0  0  0  0  0  0
   -2.3182   -0.2738   -3.4836 H   0  0  0  0  0  0  0  0  0  0  0  0
   -0.6457   -0.5614   -1.7145 H   0  0  0  0  0  0  0  0  0  0  0  0
   -0.2435   -0.5606    0.7512 H   0  0  0  0  0  0  0  0  0  0  0  0
   -1.2133    0.3845    1.8181 H   0  0  0  0  0  0  0  0  0  0  0  0
   -0.7307    3.2200    0.4397 H   0  0  0  0  0  0  0  0  0  0  0  0
   -0.7961    2.7450    2.1547 H   0  0  0  0  0  0  0  0  0  0  0  0
    0.6619    3.4697    1.5033 H   0  0  0  0  0  0  0  0  0  0  0  0
    0.6513    1.7229   -1.1732 H   0  0  0  0  0  0  0  0  0  0  0  0
    1.9531    2.3493   -0.1570 H   0  0  0  0  0  0  0  0  0  0  0  0
    2.1640    0.2771    1.5802 H   0  0  0  0  0  0  0  0  0  0  0  0
    3.2147   -1.0469    3.1599 H   0  0  0  0  0  0  0  0  0  0  0  0
    4.6425   -2.9715    3.7250 H   0  0  0  0  0  0  0  0  0  0  0  0
    5.6194   -4.3705    1.9308 H   0  0  0  0  0  0  0  0  0  0  0  0
    3.7370   -1.9066   -1.0408 H   0  0  0  0  0  0  0  0  0  0  0  0
   -3.0739    1.8083    0.9561 H   0  0  0  0  0  0  0  0  0  0  0  0
   -4.7408    2.0956   -0.8214 H   0  0  0  0  0  0  0  0  0  0  0  0
  1  2  1  0
  2  3  1  0
  3  4  2  0
  4  5  1  0
  5  6  2  0
  6  7  1  0
  7  8  1  0
  8  9  1  0
  8 10  1  0
 10 11  1  0
 11 12  2  0
 11 13  1  0
 13 14  1  0
 14 15  2  0
 15 16  1  0
 16 17  2  0
 17 18  1  0
 18 19  1  0
 18 20  2  0
  6 21  1  0
 21 22  2  0
 22  3  1  0
 20 14  1  0
  1 23  1  0
  1 24  1  0
  1 25  1  0
  4 26  1  0
  5 27  1  0
  7 28  1  0
  7 29  1  0
  9 30  1  0
  9 31  1  0
  9 32  1  0
 10 33  1  0
 10 34  1  0
 13 35  1  0
 15 36  1  0
 16 37  1  0
 17 38  1  0
 20 39  1  0
 21 40  1  0
 22 41  1  0
M  END
$$$$
