
     RDKit          3D

 44 45  0  0  0  0  0  0  0  0999 V2000
    0.4749    0.1115   -4.8848 C   0  0  0  0  0  0  0  0  0  0  0  0
    0.7770    0.3529   -3.4137 C   0  0  0  0  0  0  0  0  0  0  0  0
    2.2640    0.6330   -3.1885 C   0  0  0  0  0  0  0  0  0  0  0  0
    2.6016    1.0038   -1.7400 C   0  0  0  0  0  0  0  0  0  0  0  0
    2.4205   -0.1338   -0.8165 N   0  0  0  0  0  0  0  0  0  0  0  0
    3.4843   -1.1425   -0.9009 C   0  0  0  0  0  0  0  0  0  0  0  0
    1.2456   -0.3486   -0.0712 C   0  0  0  0  0  0  0  0  0  0  0  0
    0.3756    0.6199    0.2832 C   0  0  0  0  0  0  0  0  0  0  0  0
   -0.7986    0.3670    1.0976 C   0  0  0  0  0  0  0  0  0  0  0  0
   -1.2483    1.3010    1.9572 C   0  0  0  0  0  0  0  0  0  0  0  0
   -2.3482    1.0767    2.9025 C   0  0  0  0  0  0  0  0  0  0  0  0
   -2.8017    2.0384    3.7477 C   0  0  0  0  0  0  0  0  0  0  0  0
   -2.2488    3.3528    3.7792 C   0  0  0  0  0  0  0  0  0  0  0  0
   -1.7931    4.4203    3.7972 N   0  0  0  0  0  0  0  0  0  0  0  0
   -3.8834    1.7872    4.6433 C   0  0  0  0  0  0  0  0  0  0  0  0
   -4.7655    1.5672    5.3648 N   0  0  0  0  0  0  0  0  0  0  0  0
   -2.9440   -0.3285    2.8892 C   0  0  0  0  0  0  0  0  0  0  0  0
   -1.9832   -1.4041    2.3696 C   0  0  0  0  0  0  0  0  0  0  0  0
   -1.4407   -0.9973    0.9962 C   0  0  0  0  0  0  0  0  0  0  0  0
   -0.5456   -2.0820    0.3806 C   0  0  0  0  0  0  0  0  0  0  0  0
    0.9460   -1.7587    0.4230 C   0  0  0  0  0  0  0  0  0  0  0  0
    0.7356    0.9869   -5.4881 H   0  0  0  0  0  0  0  0  0  0  0  0
   -0.5916   -0.0912   -5.0241 H   0  0  0  0  0  0  0  0  0  0  0  0
    1.0367   -0.7479   -5.2645 H   0  0  0  0  0  0  0  0  0  0  0  0
    0.4660   -0.5299   -2.8453 H   0  0  0  0  0  0  0  0  0  0  0  0
    0.1789    1.2002   -3.0591 H   0  0  0  0  0  0  0  0  0  0  0  0
    2.5686    1.4686   -3.8312 H   0  0  0  0  0  0  0  0  0  0  0  0
    2.8528   -0.2362   -3.5052 H   0  0  0  0  0  0  0  0  0  0  0  0
    2.0201    1.8804   -1.4394 H   0  0  0  0  0  0  0  0  0  0  0  0
    3.6479    1.3326   -1.6970 H   0  0  0  0  0  0  0  0  0  0  0  0
    4.4309   -0.7026   -1.2337 H   0  0  0  0  0  0  0  0  0  0  0  0
    3.2096   -1.9293   -1.6110 H   0  0  0  0  0  0  0  0  0  0  0  0
    3.6751   -1.5933    0.0790 H   0  0  0  0  0  0  0  0  0  0  0  0
    0.5803    1.6579    0.0455 H   0  0  0  0  0  0  0  0  0  0  0  0
   -0.7327    2.2607    1.9866 H   0  0  0  0  0  0  0  0  0  0  0  0
   -3.8393   -0.3160    2.2533 H   0  0  0  0  0  0  0  0  0  0  0  0
   -3.2643   -0.6333    3.8922 H   0  0  0  0  0  0  0  0  0  0  0  0
   -1.1599   -1.5484    3.0819 H   0  0  0  0  0  0  0  0  0  0  0  0
   -2.5187   -2.3586    2.2996 H   0  0  0  0  0  0  0  0  0  0  0  0
   -2.3058   -0.8973    0.3231 H   0  0  0  0  0  0  0  0  0  0  0  0
   -0.7271   -3.0590    0.8444 H   0  0  0  0  0  0  0  0  0  0  0  0
   -0.8322   -2.1989   -0.6746 H   0  0  0  0  0  0  0  0  0  0  0  0
    1.3321   -1.8690    1.4441 H   0  0  0  0  0  0  0  0  0  0  0  0
    1.4485   -2.5127   -0.1919 H   0  0  0  0  0  0  0  0  0  0  0  0
  1  2  1  0
  2  3  1  0
  3  4  1  0
  4  5  1  0
  5  6  1  0
  5  7  1  0
  7  8  2  0
  8  9  1  0
  9 10  2  0
 10 11  1  0
 11 12  2  3
 12 13  1  0
 13 14  3  0
 12 15  1  0
 15 16  3  0
 11 17  1  0
 17 18  1  0
 18 19  1  0
 19 20  1  0
 20 21  1  0
 21  7  1  0
 19  9  1  0
  1 22  1  0
  1 23  1  0
  1 24  1  0
  2 25  1  0
  2 26  1  0
  3 27  1  0
  3 28  1  0
  4 29  1  0
  4 30  1  0
  6 31  1  0
  6 32  1  0
  6 33  1  0
  8 34  1  0
 10 35  1  0
 17 36  1  0
 17 37  1  0
 18 38  1  0
 18 39  1  0
 19 40  1  0
 20 41  1  0
 20 42  1  0
 21 43  1  0
 21 44  1  0
M  END
$$$$
