
     RDKit          3D

 49 52  0  0  0  0  0  0  0  0999 V2000
    6.2856   -3.7815   -2.3994 C   0  0  0  0  0  0  0  0  0  0  0  0
    5.3578   -2.7400   -1.8478 C   0  0  0  0  0  0  0  0  0  0  0  0
    4.8654   -2.8493   -0.5420 C   0  0  0  0  0  0  0  0  0  0  0  0
    3.9773   -1.8956   -0.0374 C   0  0  0  0  0  0  0  0  0  0  0  0
    3.5592   -0.8285   -0.8369 C   0  0  0  0  0  0  0  0  0  0  0  0
    2.6304    0.1629   -0.2917 C   0  0  0  0  0  0  0  0  0  0  0  0
    1.3521    0.2772   -0.6803 C   0  0  0  0  0  0  0  0  0  0  0  0
    0.6141   -0.5571   -1.7077 C   0  0  0  0  0  0  0  0  0  0  0  0
   -0.8446   -0.0577   -1.6849 C   0  0  0  0  0  0  0  0  0  0  0  0
   -0.8156    1.0539   -0.6922 C   0  0  0  0  0  0  0  0  0  0  0  0
    0.3950    1.2150   -0.1625 C   0  0  0  0  0  0  0  0  0  0  0  0
    0.7214    2.1055    0.8524 O   0  0  0  0  0  0  0  0  0  0  0  0
   -0.2541    2.9693    1.2636 C   0  0  0  0  0  0  0  0  0  0  0  0
   -0.0691    3.5600    2.3988 N   0  0  0  0  0  0  0  0  0  0  0  0
   -1.4052    3.2129    0.3009 C   0  0  0  0  0  0  0  0  0  0  0  0
   -2.4557    4.0699    0.8602 C   0  0  0  0  0  0  0  0  0  0  0  0
   -3.2623    4.7825    1.2944 N   0  0  0  0  0  0  0  0  0  0  0  0
   -1.9718    1.9037   -0.2900 C   0  0  0  0  0  0  0  0  0  0  0  0
   -2.9452    1.1543    0.6105 C   0  0  0  0  0  0  0  0  0  0  0  0
   -2.5415    0.5475    1.8100 C   0  0  0  0  0  0  0  0  0  0  0  0
   -3.4648   -0.1197    2.6198 C   0  0  0  0  0  0  0  0  0  0  0  0
   -4.8089   -0.2048    2.2461 C   0  0  0  0  0  0  0  0  0  0  0  0
   -5.8042   -0.8877    3.1361 C   0  0  0  0  0  0  0  0  0  0  0  0
   -5.2208    0.4087    1.0600 C   0  0  0  0  0  0  0  0  0  0  0  0
   -4.2992    1.0756    0.2485 C   0  0  0  0  0  0  0  0  0  0  0  0
    4.0422   -0.7211   -2.1445 C   0  0  0  0  0  0  0  0  0  0  0  0
    4.9303   -1.6747   -2.6490 C   0  0  0  0  0  0  0  0  0  0  0  0
    5.7094   -4.5873   -2.8642 H   0  0  0  0  0  0  0  0  0  0  0  0
    6.9576   -3.3490   -3.1482 H   0  0  0  0  0  0  0  0  0  0  0  0
    6.9123   -4.2052   -1.6076 H   0  0  0  0  0  0  0  0  0  0  0  0
    5.1713   -3.6775    0.0933 H   0  0  0  0  0  0  0  0  0  0  0  0
    3.6100   -1.9959    0.9813 H   0  0  0  0  0  0  0  0  0  0  0  0
    3.0384    0.8046    0.4861 H   0  0  0  0  0  0  0  0  0  0  0  0
    0.6546   -1.6236   -1.4592 H   0  0  0  0  0  0  0  0  0  0  0  0
    1.0395   -0.4148   -2.7076 H   0  0  0  0  0  0  0  0  0  0  0  0
   -1.1517    0.2973   -2.6740 H   0  0  0  0  0  0  0  0  0  0  0  0
   -1.5247   -0.8563   -1.3710 H   0  0  0  0  0  0  0  0  0  0  0  0
   -0.8206    4.2150    2.6403 H   0  0  0  0  0  0  0  0  0  0  0  0
   -0.9487    3.7821   -0.5248 H   0  0  0  0  0  0  0  0  0  0  0  0
   -2.5064    2.1786   -1.2113 H   0  0  0  0  0  0  0  0  0  0  0  0
   -1.5044    0.5763    2.1382 H   0  0  0  0  0  0  0  0  0  0  0  0
   -3.1242   -0.5735    3.5483 H   0  0  0  0  0  0  0  0  0  0  0  0
   -5.3354   -1.7088    3.6886 H   0  0  0  0  0  0  0  0  0  0  0  0
   -6.2198   -0.1714    3.8514 H   0  0  0  0  0  0  0  0  0  0  0  0
   -6.6228   -1.3175    2.5492 H   0  0  0  0  0  0  0  0  0  0  0  0
   -6.2661    0.3753    0.7605 H   0  0  0  0  0  0  0  0  0  0  0  0
   -4.6586    1.5417   -0.6669 H   0  0  0  0  0  0  0  0  0  0  0  0
    3.7329    0.1063   -2.7782 H   0  0  0  0  0  0  0  0  0  0  0  0
    5.2896   -1.5775   -3.6709 H   0  0  0  0  0  0  0  0  0  0  0  0
  1  2  1  0
  2  3  2  0
  3  4  1  0
  4  5  2  0
  5  6  1  0
  6  7  2  3
  7  8  1  0
  8  9  1  0
  9 10  1  0
 10 11  2  0
 11 12  1  0
 12 13  1  0
 13 14  2  3
 13 15  1  0
 15 16  1  0
 16 17  3  0
 15 18  1  0
 18 19  1  0
 19 20  2  0
 20 21  1  0
 21 22  2  0
 22 23  1  0
 22 24  1  0
 24 25  2  0
  5 26  1  0
 26 27  2  0
 27  2  1  0
 11  7  1  0
 25 19  1  0
 18 10  1  0
  1 28  1  0
  1 29  1  0
  1 30  1  0
  3 31  1  0
  4 32  1  0
  6 33  1  0
  8 34  1  0
  8 35  1  0
  9 36  1  0
  9 37  1  0
 14 38  1  0
 15 39  1  0
 18 40  1  0
 20 41  1  0
 21 42  1  0
 23 43  1  0
 23 44  1  0
 23 45  1  0
 24 46  1  0
 25 47  1  0
 26 48  1  0
 27 49  1  0
M  END
$$$$
