
     RDKit          3D

 42 45  0  0  0  0  0  0  0  0999 V2000
   -3.1494   -0.0574   -2.1922 O   0  0  0  0  0  0  0  0  0  0  0  0
   -3.2242    0.2444   -0.9981 C   0  0  0  0  0  0  0  0  0  0  0  0
   -2.1477    1.0383   -0.3800 C   0  0  0  0  0  0  0  0  0  0  0  0
   -1.0392    1.5996   -1.0748 C   0  0  0  0  0  0  0  0  0  0  0  0
   -0.2911    2.2259   -0.1101 C   0  0  0  0  0  0  0  0  0  0  0  0
    0.9695    3.0004   -0.1057 C   0  0  0  0  0  0  0  0  0  0  0  0
    1.8576    2.4609   -1.0888 O   0  0  0  0  0  0  0  0  0  0  0  0
    2.6949    1.4436   -0.7233 C   0  0  0  0  0  0  0  0  0  0  0  0
    2.6315    0.7051    0.4568 C   0  0  0  0  0  0  0  0  0  0  0  0
    3.5534   -0.3218    0.6953 C   0  0  0  0  0  0  0  0  0  0  0  0
    4.5450   -0.6238   -0.2494 C   0  0  0  0  0  0  0  0  0  0  0  0
    5.4670   -1.6687    0.0165 N   0  0  0  0  0  0  0  0  0  0  0  0
    6.5011   -2.1306   -0.7629 C   0  0  0  0  0  0  0  0  0  0  0  0
    7.1304   -3.1150   -0.1618 N   0  0  0  0  0  0  0  0  0  0  0  0
    6.4435   -3.2356    1.0066 C   0  0  0  0  0  0  0  0  0  0  0  0
    5.4290   -2.3863    1.1683 N   0  0  0  0  0  0  0  0  0  0  0  0
    4.6029    0.1105   -1.4389 C   0  0  0  0  0  0  0  0  0  0  0  0
    3.6776    1.1348   -1.6679 C   0  0  0  0  0  0  0  0  0  0  0  0
   -0.9016    2.0635    1.0917 O   0  0  0  0  0  0  0  0  0  0  0  0
   -2.0513    1.3189    0.9313 N   0  0  0  0  0  0  0  0  0  0  0  0
   -4.3177   -0.1640   -0.2445 N   0  0  0  0  0  0  0  0  0  0  0  0
   -5.3420   -1.0071   -0.8344 C   0  0  0  0  0  0  0  0  0  0  0  0
   -6.1683   -1.4870    0.3485 C   0  0  0  0  0  0  0  0  0  0  0  0
   -6.0808   -0.3143    1.3144 C   0  0  0  0  0  0  0  0  0  0  0  0
   -4.6486    0.1753    1.1330 C   0  0  0  0  0  0  0  0  0  0  0  0
   -0.8256    1.5356   -2.1322 H   0  0  0  0  0  0  0  0  0  0  0  0
    0.7477    4.0293   -0.4109 H   0  0  0  0  0  0  0  0  0  0  0  0
    1.4372    3.0655    0.8831 H   0  0  0  0  0  0  0  0  0  0  0  0
    1.8725    0.8834    1.2120 H   0  0  0  0  0  0  0  0  0  0  0  0
    3.4778   -0.8830    1.6261 H   0  0  0  0  0  0  0  0  0  0  0  0
    6.7486   -1.7287   -1.7334 H   0  0  0  0  0  0  0  0  0  0  0  0
    6.6903   -3.9664    1.7665 H   0  0  0  0  0  0  0  0  0  0  0  0
    5.3440   -0.0804   -2.2089 H   0  0  0  0  0  0  0  0  0  0  0  0
    3.7242    1.7012   -2.5960 H   0  0  0  0  0  0  0  0  0  0  0  0
   -4.8984   -1.8305   -1.4022 H   0  0  0  0  0  0  0  0  0  0  0  0
   -5.9386   -0.3870   -1.5130 H   0  0  0  0  0  0  0  0  0  0  0  0
   -5.7038   -2.3728    0.7981 H   0  0  0  0  0  0  0  0  0  0  0  0
   -7.1954   -1.7394    0.0717 H   0  0  0  0  0  0  0  0  0  0  0  0
   -6.7858    0.4688    1.0098 H   0  0  0  0  0  0  0  0  0  0  0  0
   -6.3033   -0.5914    2.3484 H   0  0  0  0  0  0  0  0  0  0  0  0
   -3.9635   -0.3660    1.7938 H   0  0  0  0  0  0  0  0  0  0  0  0
   -4.5697    1.2518    1.3063 H   0  0  0  0  0  0  0  0  0  0  0  0
  1  2  2  0
  2  3  1  0
  3  4  1  0
  4  5  2  0
  5  6  1  0
  6  7  1  0
  7  8  1  0
  8  9  2  0
  9 10  1  0
 10 11  2  0
 11 12  1  0
 12 13  1  0
 13 14  2  0
 14 15  1  0
 15 16  2  0
 11 17  1  0
 17 18  2  0
  5 19  1  0
 19 20  1  0
  2 21  1  0
 21 22  1  0
 22 23  1  0
 23 24  1  0
 24 25  1  0
 20  3  2  0
 25 21  1  0
 18  8  1  0
 16 12  1  0
  4 26  1  0
  6 27  1  0
  6 28  1  0
  9 29  1  0
 10 30  1  0
 13 31  1  0
 15 32  1  0
 17 33  1  0
 18 34  1  0
 22 35  1  0
 22 36  1  0
 23 37  1  0
 23 38  1  0
 24 39  1  0
 24 40  1  0
 25 41  1  0
 25 42  1  0
M  END
$$$$
