
     RDKit          3D

 55 57  0  0  0  0  0  0  0  0999 V2000
   -5.1417    2.1582    1.8579 C   0  0  0  0  0  0  0  0  0  0  0  0
   -5.1531    1.5843    0.4722 C   0  0  0  0  0  0  0  0  0  0  0  0
   -6.3530    1.1856   -0.1227 C   0  0  0  0  0  0  0  0  0  0  0  0
   -6.3616    0.6335   -1.4070 C   0  0  0  0  0  0  0  0  0  0  0  0
   -5.1696    0.4558   -2.1265 C   0  0  0  0  0  0  0  0  0  0  0  0
   -5.2412   -0.1127   -3.5140 C   0  0  0  0  0  0  0  0  0  0  0  0
   -3.9615    0.8128   -1.5045 C   0  0  0  0  0  0  0  0  0  0  0  0
   -2.6364    0.6207   -2.1385 C   0  0  0  0  0  0  0  0  0  0  0  0
   -1.8867    1.5869   -2.2671 O   0  0  0  0  0  0  0  0  0  0  0  0
   -2.2489   -0.7962   -2.5422 C   0  0  0  0  0  0  0  0  0  0  0  0
   -0.8326   -0.9853   -2.4739 O   0  0  0  0  0  0  0  0  0  0  0  0
   -0.3483   -1.0739   -1.2113 C   0  0  0  0  0  0  0  0  0  0  0  0
   -1.0139   -1.1189   -0.1885 O   0  0  0  0  0  0  0  0  0  0  0  0
    1.1350   -1.1332   -1.2237 C   0  0  0  0  0  0  0  0  0  0  0  0
    1.8867   -0.7171   -2.3228 C   0  0  0  0  0  0  0  0  0  0  0  0
    3.2814   -0.7875   -2.2809 C   0  0  0  0  0  0  0  0  0  0  0  0
    3.9609   -1.2522   -1.1375 C   0  0  0  0  0  0  0  0  0  0  0  0
    5.4594   -1.3485   -1.2166 C   0  0  0  0  0  0  0  0  0  0  0  0
    3.1958   -1.6283   -0.0150 C   0  0  0  0  0  0  0  0  0  0  0  0
    3.9012   -2.2433    1.5178 S   0  0  0  0  0  6  0  0  0  0  0  0
    5.3083   -2.5110    1.3189 O   0  0  0  0  0  0  0  0  0  0  0  0
    3.0156   -3.2839    1.9975 O   0  0  0  0  0  0  0  0  0  0  0  0
    3.7812   -0.9323    2.5734 N   0  0  0  0  0  0  0  0  0  0  0  0
    4.6637    0.2463    2.3723 C   0  0  0  0  0  0  0  0  0  0  0  0
    3.8398    1.5358    2.2910 C   0  0  0  0  0  0  0  0  0  0  0  0
    3.0487    1.7834    3.4618 O   0  0  0  0  0  0  0  0  0  0  0  0
    2.6138    0.5864    4.1235 C   0  0  0  0  0  0  0  0  0  0  0  0
    2.4615   -0.6055    3.1715 C   0  0  0  0  0  0  0  0  0  0  0  0
    1.7905   -1.5956   -0.0786 C   0  0  0  0  0  0  0  0  0  0  0  0
   -3.9564    1.3839   -0.2228 C   0  0  0  0  0  0  0  0  0  0  0  0
   -5.0771    1.3530    2.5965 H   0  0  0  0  0  0  0  0  0  0  0  0
   -4.2895    2.8318    1.9954 H   0  0  0  0  0  0  0  0  0  0  0  0
   -6.0493    2.7409    2.0457 H   0  0  0  0  0  0  0  0  0  0  0  0
   -7.2950    1.3111    0.4076 H   0  0  0  0  0  0  0  0  0  0  0  0
   -7.3167    0.3508   -1.8462 H   0  0  0  0  0  0  0  0  0  0  0  0
   -4.5387    0.3952   -4.1826 H   0  0  0  0  0  0  0  0  0  0  0  0
   -6.2391    0.0241   -3.9453 H   0  0  0  0  0  0  0  0  0  0  0  0
   -5.0222   -1.1849   -3.4949 H   0  0  0  0  0  0  0  0  0  0  0  0
   -2.5353   -0.9454   -3.5874 H   0  0  0  0  0  0  0  0  0  0  0  0
   -2.7670   -1.5459   -1.9334 H   0  0  0  0  0  0  0  0  0  0  0  0
    1.4020   -0.3368   -3.2199 H   0  0  0  0  0  0  0  0  0  0  0  0
    3.8399   -0.4779   -3.1642 H   0  0  0  0  0  0  0  0  0  0  0  0
    5.8338   -0.9667   -2.1736 H   0  0  0  0  0  0  0  0  0  0  0  0
    5.9362   -0.7482   -0.4396 H   0  0  0  0  0  0  0  0  0  0  0  0
    5.7791   -2.3924   -1.1476 H   0  0  0  0  0  0  0  0  0  0  0  0
    5.2707    0.1484    1.4712 H   0  0  0  0  0  0  0  0  0  0  0  0
    5.3470    0.2917    3.2285 H   0  0  0  0  0  0  0  0  0  0  0  0
    4.5026    2.3966    2.1557 H   0  0  0  0  0  0  0  0  0  0  0  0
    3.1628    1.5066    1.4288 H   0  0  0  0  0  0  0  0  0  0  0  0
    1.6573    0.8089    4.6070 H   0  0  0  0  0  0  0  0  0  0  0  0
    3.3371    0.3573    4.9158 H   0  0  0  0  0  0  0  0  0  0  0  0
    1.7484   -0.3413    2.3862 H   0  0  0  0  0  0  0  0  0  0  0  0
    2.0863   -1.4683    3.7299 H   0  0  0  0  0  0  0  0  0  0  0  0
    1.1961   -1.9391    0.7679 H   0  0  0  0  0  0  0  0  0  0  0  0
   -3.0080    1.6628    0.2347 H   0  0  0  0  0  0  0  0  0  0  0  0
  1  2  1  0
  2  3  2  0
  3  4  1  0
  4  5  2  0
  5  6  1  0
  5  7  1  0
  7  8  1  0
  8  9  2  0
  8 10  1  0
 10 11  1  0
 11 12  1  0
 12 13  2  0
 12 14  1  0
 14 15  2  0
 15 16  1  0
 16 17  2  0
 17 18  1  0
 17 19  1  0
 19 20  1  0
 20 21  2  0
 20 22  2  0
 20 23  1  0
 23 24  1  0
 24 25  1  0
 25 26  1  0
 26 27  1  0
 27 28  1  0
 19 29  2  0
  7 30  2  0
 30  2  1  0
 29 14  1  0
 28 23  1  0
  1 31  1  0
  1 32  1  0
  1 33  1  0
  3 34  1  0
  4 35  1  0
  6 36  1  0
  6 37  1  0
  6 38  1  0
 10 39  1  0
 10 40  1  0
 15 41  1  0
 16 42  1  0
 18 43  1  0
 18 44  1  0
 18 45  1  0
 24 46  1  0
 24 47  1  0
 25 48  1  0
 25 49  1  0
 27 50  1  0
 27 51  1  0
 28 52  1  0
 28 53  1  0
 29 54  1  0
 30 55  1  0
M  END
$$$$
