
     RDKit          3D

 33 34  0  0  0  0  0  0  0  0999 V2000
    7.2224   -1.2027    0.5047 C   0  0  0  0  0  0  0  0  0  0  0  0
    6.7782    0.1504   -0.0347 C   0  0  0  0  0  0  0  0  0  0  0  0
    5.3196    0.4904    0.2737 C   0  0  0  0  0  0  0  0  0  0  0  0
    4.1593   -0.5802   -0.6310 S   0  0  0  0  0  0  0  0  0  0  0  0
    2.6274    0.0579   -0.0799 C   0  0  0  0  0  0  0  0  0  0  0  0
    2.5301    1.0456    0.7843 N   0  0  0  0  0  0  0  0  0  0  0  0
    1.2134    1.3608    1.0581 N   0  0  0  0  0  0  0  0  0  0  0  0
    0.3750    0.6081    0.3786 C   0  0  0  0  0  0  0  0  0  0  0  0
   -0.9853    0.7387    0.5139 N   0  0  0  0  0  0  0  0  0  0  0  0
   -1.9544    0.1351   -0.2621 C   0  0  0  0  0  0  0  0  0  0  0  0
   -1.7360   -0.5660   -1.2401 O   0  0  0  0  0  0  0  0  0  0  0  0
   -3.2180    0.4401    0.2286 N   0  0  0  0  0  0  0  0  0  0  0  0
   -4.4671    0.0914   -0.3282 C   0  0  0  0  0  0  0  0  0  0  0  0
   -5.6097    0.4003    0.4231 C   0  0  0  0  0  0  0  0  0  0  0  0
   -6.8858    0.0961   -0.0589 C   0  0  0  0  0  0  0  0  0  0  0  0
   -7.0326   -0.5171   -1.2995 C   0  0  0  0  0  0  0  0  0  0  0  0
   -5.9042   -0.8227   -2.0561 C   0  0  0  0  0  0  0  0  0  0  0  0
   -4.6268   -0.5182   -1.5738 C   0  0  0  0  0  0  0  0  0  0  0  0
    1.1215   -0.5566   -0.6144 S   0  0  0  0  0  0  0  0  0  0  0  0
    7.0422   -1.2734    1.5821 H   0  0  0  0  0  0  0  0  0  0  0  0
    6.7003   -2.0281    0.0121 H   0  0  0  0  0  0  0  0  0  0  0  0
    8.2949   -1.3402    0.3327 H   0  0  0  0  0  0  0  0  0  0  0  0
    6.9645    0.1975   -1.1145 H   0  0  0  0  0  0  0  0  0  0  0  0
    7.4111    0.9211    0.4225 H   0  0  0  0  0  0  0  0  0  0  0  0
    5.1314    1.5297   -0.0171 H   0  0  0  0  0  0  0  0  0  0  0  0
    5.1368    0.4010    1.3502 H   0  0  0  0  0  0  0  0  0  0  0  0
   -1.2526    1.4859    1.1337 H   0  0  0  0  0  0  0  0  0  0  0  0
   -3.2525    0.8614    1.1444 H   0  0  0  0  0  0  0  0  0  0  0  0
   -5.5263    0.8793    1.3948 H   0  0  0  0  0  0  0  0  0  0  0  0
   -7.7638    0.3378    0.5344 H   0  0  0  0  0  0  0  0  0  0  0  0
   -8.0230   -0.7559   -1.6782 H   0  0  0  0  0  0  0  0  0  0  0  0
   -6.0123   -1.2994   -3.0273 H   0  0  0  0  0  0  0  0  0  0  0  0
   -3.7778   -0.7678   -2.2024 H   0  0  0  0  0  0  0  0  0  0  0  0
  1  2  1  0
  2  3  1  0
  3  4  1  0
  4  5  1  0
  5  6  2  0
  6  7  1  0
  7  8  2  0
  8  9  1  0
  9 10  1  0
 10 11  2  0
 10 12  1  0
 12 13  1  0
 13 14  2  0
 14 15  1  0
 15 16  2  0
 16 17  1  0
 17 18  2  0
  8 19  1  0
 19  5  1  0
 18 13  1  0
  1 20  1  0
  1 21  1  0
  1 22  1  0
  2 23  1  0
  2 24  1  0
  3 25  1  0
  3 26  1  0
  9 27  1  0
 12 28  1  0
 14 29  1  0
 15 30  1  0
 16 31  1  0
 17 32  1  0
 18 33  1  0
M  END
$$$$
