
     RDKit          3D

 66 68  0  0  0  0  0  0  0  0999 V2000
   -0.7358    6.7727    2.2193 C   0  0  0  0  0  0  0  0  0  0  0  0
   -1.9436    6.2407    1.6810 O   0  0  0  0  0  0  0  0  0  0  0  0
   -1.8185    4.8479    1.3855 C   0  0  0  0  0  0  0  0  0  0  0  0
   -3.1362    4.3385    0.8056 C   0  0  0  0  0  0  0  0  0  0  0  0
   -3.1638    2.8892    0.6009 N   0  0  0  0  0  0  0  0  0  0  0  0
   -2.5868    2.1926   -0.4483 C   0  0  0  0  0  0  0  0  0  0  0  0
   -1.8052    2.9459   -1.7355 S   0  0  0  0  0  0  0  0  0  0  0  0
   -2.7239    0.7956   -0.3271 N   0  0  0  0  0  0  0  0  0  0  0  0
   -3.7789    0.1687    0.4724 C   0  0  0  0  0  0  0  0  0  0  0  0
   -4.4428   -0.9737   -0.2857 C   0  0  0  0  0  0  0  0  0  0  0  0
   -3.4241   -1.9877   -0.7237 C   0  0  0  0  0  0  0  0  0  0  0  0
   -3.8142   -3.3254   -0.9157 C   0  0  0  0  0  0  0  0  0  0  0  0
   -2.9008   -4.2778   -1.3744 C   0  0  0  0  0  0  0  0  0  0  0  0
   -3.2124   -5.5979   -1.5758 O   0  0  0  0  0  0  0  0  0  0  0  0
   -4.5705   -5.8910   -1.8801 C   0  0  0  0  0  0  0  0  0  0  0  0
   -1.5710   -3.8989   -1.6134 C   0  0  0  0  0  0  0  0  0  0  0  0
   -0.7134   -4.8844   -2.0474 O   0  0  0  0  0  0  0  0  0  0  0  0
    0.6796   -4.6477   -1.8362 C   0  0  0  0  0  0  0  0  0  0  0  0
   -1.1979   -2.5579   -1.4623 C   0  0  0  0  0  0  0  0  0  0  0  0
   -2.1086   -1.5849   -1.0006 C   0  0  0  0  0  0  0  0  0  0  0  0
   -1.6667   -0.1206   -0.8627 C   0  0  0  0  0  0  0  0  0  0  0  0
   -0.3742    0.0027    0.0048 C   0  0  0  0  0  0  0  0  0  0  0  0
    0.7727   -0.2024   -0.8275 O   0  0  0  0  0  0  0  0  0  0  0  0
    2.0057    0.0087   -0.2854 C   0  0  0  0  0  0  0  0  0  0  0  0
    3.0638   -0.2070   -1.1698 C   0  0  0  0  0  0  0  0  0  0  0  0
    4.3854   -0.0237   -0.7608 C   0  0  0  0  0  0  0  0  0  0  0  0
    4.6754    0.3859    0.5460 C   0  0  0  0  0  0  0  0  0  0  0  0
    6.1030    0.5941    1.0257 C   0  0  0  0  0  0  0  0  0  0  0  0
    6.9521    1.3942    0.0265 C   0  0  0  0  0  0  0  0  0  0  0  0
    6.7641   -0.7491    1.3378 C   0  0  0  0  0  0  0  0  0  0  0  0
    3.6060    0.5843    1.4344 C   0  0  0  0  0  0  0  0  0  0  0  0
    2.2803    0.3867    1.0244 C   0  0  0  0  0  0  0  0  0  0  0  0
   -0.5204    6.3348    3.2011 H   0  0  0  0  0  0  0  0  0  0  0  0
    0.1043    6.6047    1.5303 H   0  0  0  0  0  0  0  0  0  0  0  0
   -0.8625    7.8513    2.3478 H   0  0  0  0  0  0  0  0  0  0  0  0
   -0.9832    4.6930    0.6909 H   0  0  0  0  0  0  0  0  0  0  0  0
   -1.5876    4.3081    2.3147 H   0  0  0  0  0  0  0  0  0  0  0  0
   -3.3784    4.8501   -0.1301 H   0  0  0  0  0  0  0  0  0  0  0  0
   -3.9544    4.5715    1.4953 H   0  0  0  0  0  0  0  0  0  0  0  0
   -3.3542    2.3524    1.4348 H   0  0  0  0  0  0  0  0  0  0  0  0
   -4.5582    0.8915    0.7284 H   0  0  0  0  0  0  0  0  0  0  0  0
   -3.3235   -0.1817    1.4064 H   0  0  0  0  0  0  0  0  0  0  0  0
   -4.9590   -0.5911   -1.1762 H   0  0  0  0  0  0  0  0  0  0  0  0
   -5.1852   -1.4418    0.3684 H   0  0  0  0  0  0  0  0  0  0  0  0
   -4.8454   -3.5991   -0.7032 H   0  0  0  0  0  0  0  0  0  0  0  0
   -4.9567   -5.2419   -2.6732 H   0  0  0  0  0  0  0  0  0  0  0  0
   -4.6170   -6.9238   -2.2440 H   0  0  0  0  0  0  0  0  0  0  0  0
   -5.1931   -5.8268   -0.9801 H   0  0  0  0  0  0  0  0  0  0  0  0
    1.2049   -5.5902   -2.0119 H   0  0  0  0  0  0  0  0  0  0  0  0
    0.8873   -4.3343   -0.8037 H   0  0  0  0  0  0  0  0  0  0  0  0
    1.0628   -3.9204   -2.5605 H   0  0  0  0  0  0  0  0  0  0  0  0
   -0.1906   -2.2492   -1.7318 H   0  0  0  0  0  0  0  0  0  0  0  0
   -1.4414    0.2041   -1.8828 H   0  0  0  0  0  0  0  0  0  0  0  0
   -0.3111    1.0044    0.4447 H   0  0  0  0  0  0  0  0  0  0  0  0
   -0.3841   -0.7343    0.8175 H   0  0  0  0  0  0  0  0  0  0  0  0
    2.8589   -0.5319   -2.1881 H   0  0  0  0  0  0  0  0  0  0  0  0
    5.1803   -0.2326   -1.4766 H   0  0  0  0  0  0  0  0  0  0  0  0
    6.0786    1.1832    1.9540 H   0  0  0  0  0  0  0  0  0  0  0  0
    7.1029    0.8476   -0.9149 H   0  0  0  0  0  0  0  0  0  0  0  0
    6.4801    2.3551   -0.2054 H   0  0  0  0  0  0  0  0  0  0  0  0
    7.9443    1.6028    0.4453 H   0  0  0  0  0  0  0  0  0  0  0  0
    6.8569   -1.3732    0.4410 H   0  0  0  0  0  0  0  0  0  0  0  0
    6.1801   -1.3153    2.0724 H   0  0  0  0  0  0  0  0  0  0  0  0
    7.7671   -0.5931    1.7496 H   0  0  0  0  0  0  0  0  0  0  0  0
    3.8007    0.8858    2.4637 H   0  0  0  0  0  0  0  0  0  0  0  0
    1.4978    0.5222    1.7568 H   0  0  0  0  0  0  0  0  0  0  0  0
  1  2  1  0
  2  3  1  0
  3  4  1  0
  4  5  1  0
  5  6  1  0
  6  7  2  0
  6  8  1  0
  8  9  1  0
  9 10  1  0
 10 11  1  0
 11 12  2  0
 12 13  1  0
 13 14  1  0
 14 15  1  0
 13 16  2  0
 16 17  1  0
 17 18  1  0
 16 19  1  0
 19 20  2  0
 20 21  1  0
 21 22  1  0
 22 23  1  0
 23 24  1  0
 24 25  2  0
 25 26  1  0
 26 27  2  0
 27 28  1  0
 28 29  1  0
 28 30  1  0
 27 31  1  0
 31 32  2  0
 21  8  1  0
 32 24  1  0
 20 11  1  0
  1 33  1  0
  1 34  1  0
  1 35  1  0
  3 36  1  0
  3 37  1  0
  4 38  1  0
  4 39  1  0
  5 40  1  0
  9 41  1  0
  9 42  1  0
 10 43  1  0
 10 44  1  0
 12 45  1  0
 15 46  1  0
 15 47  1  0
 15 48  1  0
 18 49  1  0
 18 50  1  0
 18 51  1  0
 19 52  1  0
 21 53  1  0
 22 54  1  0
 22 55  1  0
 25 56  1  0
 26 57  1  0
 28 58  1  0
 29 59  1  0
 29 60  1  0
 29 61  1  0
 30 62  1  0
 30 63  1  0
 30 64  1  0
 31 65  1  0
 32 66  1  0
M  END
$$$$
