
     RDKit          3D

 59 63  0  0  0  0  0  0  0  0999 V2000
    3.7790   -4.0996    3.5657 C   0  0  0  0  0  0  0  0  0  0  0  0
    3.3096   -2.7575    3.5605 O   0  0  0  0  0  0  0  0  0  0  0  0
    3.4812   -2.0471    2.4047 C   0  0  0  0  0  0  0  0  0  0  0  0
    3.0063   -0.7347    2.4502 C   0  0  0  0  0  0  0  0  0  0  0  0
    3.1175    0.1039    1.3376 C   0  0  0  0  0  0  0  0  0  0  0  0
    3.7080   -0.3607    0.1574 C   0  0  0  0  0  0  0  0  0  0  0  0
    3.8097    0.5141   -1.0178 C   0  0  0  0  0  0  0  0  0  0  0  0
    5.3689    0.9288   -1.5896 S   0  0  0  0  0  0  0  0  0  0  0  0
    4.7470    1.9099   -2.8537 C   0  0  0  0  0  0  0  0  0  0  0  0
    5.4941    2.6288   -3.8086 C   0  0  0  0  0  0  0  0  0  0  0  0
    4.8199    3.3750   -4.7769 C   0  0  0  0  0  0  0  0  0  0  0  0
    3.4339    3.4068   -4.8005 C   0  0  0  0  0  0  0  0  0  0  0  0
    2.6977    2.6929   -3.8503 C   0  0  0  0  0  0  0  0  0  0  0  0
    3.3512    1.9285   -2.8476 C   0  0  0  0  0  0  0  0  0  0  0  0
    2.8158    1.1197   -1.7727 C   0  0  0  0  0  0  0  0  0  0  0  0
    1.3988    0.9281   -1.4777 C   0  0  0  0  0  0  0  0  0  0  0  0
    0.6304    2.0014   -1.0133 C   0  0  0  0  0  0  0  0  0  0  0  0
   -0.7283    1.8283   -0.7253 C   0  0  0  0  0  0  0  0  0  0  0  0
   -1.3283    0.5811   -0.9010 C   0  0  0  0  0  0  0  0  0  0  0  0
   -2.6380    0.2759   -0.6559 O   0  0  0  0  0  0  0  0  0  0  0  0
   -3.4625    1.3145   -0.1210 C   0  0  0  0  0  0  0  0  0  0  0  0
   -4.8787    0.7631    0.1384 C   0  0  0  0  0  0  0  0  0  0  0  0
   -5.0904    0.2509    1.5076 N   0  0  0  0  0  0  0  0  0  0  0  0
   -4.3260   -0.9801    1.8080 C   0  0  0  0  0  0  0  0  0  0  0  0
   -5.1588   -2.2661    1.6833 C   0  0  0  0  0  0  0  0  0  0  0  0
   -6.2980   -2.2901    2.5555 O   0  0  0  0  0  0  0  0  0  0  0  0
   -6.7833   -0.9800    2.8800 C   0  0  0  0  0  0  0  0  0  0  0  0
   -6.5352    0.0327    1.7531 C   0  0  0  0  0  0  0  0  0  0  0  0
   -0.5606   -0.4871   -1.3725 C   0  0  0  0  0  0  0  0  0  0  0  0
    0.7955   -0.3187   -1.6620 C   0  0  0  0  0  0  0  0  0  0  0  0
    4.1817   -1.6790    0.1150 C   0  0  0  0  0  0  0  0  0  0  0  0
    4.0704   -2.5172    1.2315 C   0  0  0  0  0  0  0  0  0  0  0  0
    3.2485   -4.7063    2.8244 H   0  0  0  0  0  0  0  0  0  0  0  0
    4.8620   -4.1399    3.4088 H   0  0  0  0  0  0  0  0  0  0  0  0
    3.5701   -4.5230    4.5529 H   0  0  0  0  0  0  0  0  0  0  0  0
    2.5439   -0.3605    3.3603 H   0  0  0  0  0  0  0  0  0  0  0  0
    2.7397    1.1213    1.4022 H   0  0  0  0  0  0  0  0  0  0  0  0
    6.5802    2.6022   -3.7939 H   0  0  0  0  0  0  0  0  0  0  0  0
    5.3882    3.9316   -5.5183 H   0  0  0  0  0  0  0  0  0  0  0  0
    2.9152    3.9861   -5.5603 H   0  0  0  0  0  0  0  0  0  0  0  0
    1.6111    2.7228   -3.8863 H   0  0  0  0  0  0  0  0  0  0  0  0
    1.0858    2.9782   -0.8651 H   0  0  0  0  0  0  0  0  0  0  0  0
   -1.2848    2.6866   -0.3645 H   0  0  0  0  0  0  0  0  0  0  0  0
   -3.5396    2.1191   -0.8629 H   0  0  0  0  0  0  0  0  0  0  0  0
   -3.0382    1.7175    0.8070 H   0  0  0  0  0  0  0  0  0  0  0  0
   -5.5679    1.6057   -0.0033 H   0  0  0  0  0  0  0  0  0  0  0  0
   -5.1329   -0.0031   -0.6048 H   0  0  0  0  0  0  0  0  0  0  0  0
   -3.4174   -1.0710    1.2086 H   0  0  0  0  0  0  0  0  0  0  0  0
   -3.9893   -0.8928    2.8490 H   0  0  0  0  0  0  0  0  0  0  0  0
   -5.5139   -2.3996    0.6548 H   0  0  0  0  0  0  0  0  0  0  0  0
   -4.5429   -3.1372    1.9294 H   0  0  0  0  0  0  0  0  0  0  0  0
   -6.3075   -0.6557    3.8130 H   0  0  0  0  0  0  0  0  0  0  0  0
   -7.8566   -1.0689    3.0768 H   0  0  0  0  0  0  0  0  0  0  0  0
   -7.0004    0.9908    2.0097 H   0  0  0  0  0  0  0  0  0  0  0  0
   -7.0228   -0.3468    0.8450 H   0  0  0  0  0  0  0  0  0  0  0  0
   -1.0216   -1.4616   -1.5131 H   0  0  0  0  0  0  0  0  0  0  0  0
    1.3724   -1.1649   -2.0266 H   0  0  0  0  0  0  0  0  0  0  0  0
    4.6378   -2.0679   -0.7930 H   0  0  0  0  0  0  0  0  0  0  0  0
    4.4525   -3.5289    1.1478 H   0  0  0  0  0  0  0  0  0  0  0  0
  1  2  1  0
  2  3  1  0
  3  4  2  0
  4  5  1  0
  5  6  2  0
  6  7  1  0
  7  8  1  0
  8  9  1  0
  9 10  2  0
 10 11  1  0
 11 12  2  0
 12 13  1  0
 13 14  2  0
 14 15  1  0
 15 16  1  0
 16 17  2  0
 17 18  1  0
 18 19  2  0
 19 20  1  0
 20 21  1  0
 21 22  1  0
 22 23  1  0
 23 24  1  0
 24 25  1  0
 25 26  1  0
 26 27  1  0
 27 28  1  0
 19 29  1  0
 29 30  2  0
  6 31  1  0
 31 32  2  0
 32  3  1  0
 15  7  2  0
 30 16  1  0
 14  9  1  0
 28 23  1  0
  1 33  1  0
  1 34  1  0
  1 35  1  0
  4 36  1  0
  5 37  1  0
 10 38  1  0
 11 39  1  0
 12 40  1  0
 13 41  1  0
 17 42  1  0
 18 43  1  0
 21 44  1  0
 21 45  1  0
 22 46  1  0
 22 47  1  0
 24 48  1  0
 24 49  1  0
 25 50  1  0
 25 51  1  0
 27 52  1  0
 27 53  1  0
 28 54  1  0
 28 55  1  0
 29 56  1  0
 30 57  1  0
 31 58  1  0
 32 59  1  0
M  END
$$$$
