
     RDKit          3D

 66 70  0  0  0  0  0  0  0  0999 V2000
    3.2986    1.3167    1.4058 C   0  0  0  0  0  0  0  0  0  0  0  0
    3.2665   -0.1435    1.1424 C   0  0  0  0  0  0  0  0  0  0  0  0
    2.2169   -0.8931    0.6410 C   0  0  0  0  0  0  0  0  0  0  0  0
    0.8333   -0.4739    0.2394 C   0  0  0  0  0  0  0  0  0  0  0  0
    0.7834    0.0778   -1.1868 C   0  0  0  0  0  0  0  0  0  0  0  0
   -0.5612    0.4383   -1.5331 O   0  0  0  0  0  0  0  0  0  0  0  0
   -1.3422   -0.5967   -1.9582 C   0  0  0  0  0  0  0  0  0  0  0  0
   -0.9639   -1.7559   -2.0501 O   0  0  0  0  0  0  0  0  0  0  0  0
   -2.7449   -0.1203   -2.2489 C   0  0  0  0  0  0  0  0  0  0  0  0
   -3.7322   -0.3136   -1.0802 C   0  0  0  0  0  0  0  0  0  0  0  0
   -3.2493    0.3976    0.2087 C   0  0  0  0  0  0  0  0  0  0  0  0
   -4.2747    0.2261    1.3420 C   0  0  0  0  0  0  0  0  0  0  0  0
   -4.4676   -1.2708    1.6297 C   0  0  0  0  0  0  0  0  0  0  0  0
   -4.9781   -1.9868    0.3696 C   0  0  0  0  0  0  0  0  0  0  0  0
   -6.3189   -1.3700   -0.0577 C   0  0  0  0  0  0  0  0  0  0  0  0
   -6.1465    0.1352   -0.3564 C   0  0  0  0  0  0  0  0  0  0  0  0
   -7.4847    0.7471   -0.7796 C   0  0  0  0  0  0  0  0  0  0  0  0
   -5.6169    0.8379    0.9132 C   0  0  0  0  0  0  0  0  0  0  0  0
   -5.1021    0.2980   -1.4840 C   0  0  0  0  0  0  0  0  0  0  0  0
   -3.9516   -1.8142   -0.7629 C   0  0  0  0  0  0  0  0  0  0  0  0
    2.6800   -2.5438    0.5113 S   0  0  0  0  0  0  0  0  0  0  0  0
    4.2337   -2.2185    1.1351 C   0  0  0  0  0  0  0  0  0  0  0  0
    4.3905   -0.9302    1.3969 N   0  0  0  0  0  4  0  0  0  0  0  0
    5.6586   -0.4389    1.9565 C   0  0  0  0  0  0  0  0  0  0  0  0
    6.4708    0.2821    0.9014 C   0  0  0  0  0  0  0  0  0  0  0  0
    6.8528    1.6214    1.0999 C   0  0  0  0  0  0  0  0  0  0  0  0
    7.6103    2.2997    0.1390 C   0  0  0  0  0  0  0  0  0  0  0  0
    8.0052    1.6347   -1.0279 C   0  0  0  0  0  0  0  0  0  0  0  0
    8.7972    2.3443   -2.0414 N   0  0  0  0  0  4  0  0  0  0  0  0
    8.9333    3.5677   -1.9051 O   0  0  0  0  0  0  0  0  0  0  0  0
    9.2673    1.6742   -2.9704 O   0  0  0  0  0  1  0  0  0  0  0  0
    7.6503    0.2962   -1.2337 C   0  0  0  0  0  0  0  0  0  0  0  0
    6.8895   -0.3752   -0.2705 C   0  0  0  0  0  0  0  0  0  0  0  0
    2.2990    1.7561    1.3292 H   0  0  0  0  0  0  0  0  0  0  0  0
    3.6653    1.5337    2.4135 H   0  0  0  0  0  0  0  0  0  0  0  0
    3.9318    1.8266    0.6739 H   0  0  0  0  0  0  0  0  0  0  0  0
    0.4595    0.2892    0.9331 H   0  0  0  0  0  0  0  0  0  0  0  0
    0.1330   -1.3109    0.3480 H   0  0  0  0  0  0  0  0  0  0  0  0
    1.3856    0.9918   -1.2564 H   0  0  0  0  0  0  0  0  0  0  0  0
    1.2011   -0.6249   -1.9189 H   0  0  0  0  0  0  0  0  0  0  0  0
   -2.6952    0.9364   -2.5411 H   0  0  0  0  0  0  0  0  0  0  0  0
   -3.0893   -0.6549   -3.1429 H   0  0  0  0  0  0  0  0  0  0  0  0
   -3.0870    1.4655    0.0142 H   0  0  0  0  0  0  0  0  0  0  0  0
   -2.2886   -0.0144    0.5397 H   0  0  0  0  0  0  0  0  0  0  0  0
   -3.9122    0.7305    2.2446 H   0  0  0  0  0  0  0  0  0  0  0  0
   -3.5193   -1.7154    1.9561 H   0  0  0  0  0  0  0  0  0  0  0  0
   -5.1811   -1.4053    2.4519 H   0  0  0  0  0  0  0  0  0  0  0  0
   -5.1143   -3.0533    0.5825 H   0  0  0  0  0  0  0  0  0  0  0  0
   -7.0619   -1.5171    0.7369 H   0  0  0  0  0  0  0  0  0  0  0  0
   -6.6994   -1.8926   -0.9449 H   0  0  0  0  0  0  0  0  0  0  0  0
   -7.8622    0.2787   -1.6952 H   0  0  0  0  0  0  0  0  0  0  0  0
   -8.2440    0.6151   -0.0002 H   0  0  0  0  0  0  0  0  0  0  0  0
   -7.3859    1.8216   -0.9705 H   0  0  0  0  0  0  0  0  0  0  0  0
   -6.3425    0.7434    1.7314 H   0  0  0  0  0  0  0  0  0  0  0  0
   -5.4896    1.9123    0.7281 H   0  0  0  0  0  0  0  0  0  0  0  0
   -5.4678   -0.1840   -2.4009 H   0  0  0  0  0  0  0  0  0  0  0  0
   -4.9784    1.3634   -1.7207 H   0  0  0  0  0  0  0  0  0  0  0  0
   -3.0099   -2.2877   -0.4600 H   0  0  0  0  0  0  0  0  0  0  0  0
   -4.2977   -2.3437   -1.6599 H   0  0  0  0  0  0  0  0  0  0  0  0
    4.9864   -2.9853    1.2815 H   0  0  0  0  0  0  0  0  0  0  0  0
    6.2487   -1.2772    2.3485 H   0  0  0  0  0  0  0  0  0  0  0  0
    5.4405    0.2079    2.8136 H   0  0  0  0  0  0  0  0  0  0  0  0
    6.5720    2.1610    2.0055 H   0  0  0  0  0  0  0  0  0  0  0  0
    7.8919    3.3380    0.3159 H   0  0  0  0  0  0  0  0  0  0  0  0
    7.9636   -0.2344   -2.1339 H   0  0  0  0  0  0  0  0  0  0  0  0
    6.6444   -1.4196   -0.4564 H   0  0  0  0  0  0  0  0  0  0  0  0
  1  2  1  0
  2  3  2  0
  3  4  1  0
  4  5  1  0
  5  6  1  0
  6  7  1  0
  7  8  2  0
  7  9  1  0
  9 10  1  0
 10 11  1  0
 11 12  1  0
 12 13  1  0
 13 14  1  0
 14 15  1  0
 15 16  1  0
 16 17  1  0
 16 18  1  0
 16 19  1  0
 14 20  1  0
  3 21  1  0
 21 22  1  0
 22 23  2  0
 23 24  1  0
 24 25  1  0
 25 26  2  0
 26 27  1  0
 27 28  2  0
 28 29  1  0
 29 30  2  0
 29 31  1  0
 28 32  1  0
 32 33  2  0
 23  2  1  0
 33 25  1  0
 19 10  1  0
 20 10  1  0
 18 12  1  0
  1 34  1  0
  1 35  1  0
  1 36  1  0
  4 37  1  0
  4 38  1  0
  5 39  1  0
  5 40  1  0
  9 41  1  0
  9 42  1  0
 11 43  1  0
 11 44  1  0
 12 45  1  0
 13 46  1  0
 13 47  1  0
 14 48  1  0
 15 49  1  0
 15 50  1  0
 17 51  1  0
 17 52  1  0
 17 53  1  0
 18 54  1  0
 18 55  1  0
 19 56  1  0
 19 57  1  0
 20 58  1  0
 20 59  1  0
 22 60  1  0
 24 61  1  0
 24 62  1  0
 26 63  1  0
 27 64  1  0
 32 65  1  0
 33 66  1  0
M  CHG  3  23   1  29   1  31  -1
M  END
$$$$
