
     RDKit          3D

 41 44  0  0  0  0  0  0  0  0999 V2000
    5.1606   -0.1323   -2.9250 C   0  0  0  0  0  0  0  0  0  0  0  0
    5.2222    0.6442   -1.6186 C   0  0  0  0  0  0  0  0  0  0  0  0
    3.8992    0.6298   -0.8957 C   0  0  0  0  0  0  0  0  0  0  0  0
    3.6025   -0.3864    0.0200 C   0  0  0  0  0  0  0  0  0  0  0  0
    2.3709   -0.4079    0.6791 C   0  0  0  0  0  0  0  0  0  0  0  0
    1.4130    0.5807    0.4240 C   0  0  0  0  0  0  0  0  0  0  0  0
    0.1043    0.5240    1.1485 C   0  0  0  0  0  0  0  0  0  0  0  0
    0.0416   -0.1210    2.2777 N   0  0  0  0  0  0  0  0  0  0  0  0
   -1.1404   -0.1446    2.9373 C   0  0  0  0  0  0  0  0  0  0  0  0
   -1.4046   -0.4653    4.1860 N   0  0  0  0  0  0  0  0  0  0  0  0
   -2.7525   -0.2680    4.2984 C   0  0  0  0  0  0  0  0  0  0  0  0
   -3.3648    0.1648    3.1924 N   0  0  0  0  0  0  0  0  0  0  0  0
   -2.3248    0.1910    2.3381 N   0  0  0  0  0  0  0  0  0  0  0  0
   -2.4275    0.6425    0.9625 C   0  0  0  0  0  0  0  0  0  0  0  0
   -2.9999   -0.4622    0.0870 C   0  0  0  0  0  0  0  0  0  0  0  0
   -4.3912   -0.6957    0.1124 C   0  0  0  0  0  0  0  0  0  0  0  0
   -4.9640   -1.7087   -0.6610 C   0  0  0  0  0  0  0  0  0  0  0  0
   -6.8318   -1.9908   -0.6028 Br  0  0  0  0  0  0  0  0  0  0  0  0
   -4.1695   -2.5126   -1.4726 C   0  0  0  0  0  0  0  0  0  0  0  0
   -2.7934   -2.3000   -1.5052 C   0  0  0  0  0  0  0  0  0  0  0  0
   -2.2236   -1.2884   -0.7319 C   0  0  0  0  0  0  0  0  0  0  0  0
   -0.8983   -1.1249   -0.8071 F   0  0  0  0  0  0  0  0  0  0  0  0
   -1.0900    1.2674    0.5488 C   0  0  0  0  0  0  0  0  0  0  0  0
    1.7069    1.6002   -0.4875 C   0  0  0  0  0  0  0  0  0  0  0  0
    2.9408    1.6199   -1.1459 C   0  0  0  0  0  0  0  0  0  0  0  0
    6.1326   -0.1051   -3.4275 H   0  0  0  0  0  0  0  0  0  0  0  0
    4.4149    0.2930   -3.6052 H   0  0  0  0  0  0  0  0  0  0  0  0
    4.8973   -1.1812   -2.7516 H   0  0  0  0  0  0  0  0  0  0  0  0
    6.0008    0.2212   -0.9721 H   0  0  0  0  0  0  0  0  0  0  0  0
    5.5230    1.6802   -1.8168 H   0  0  0  0  0  0  0  0  0  0  0  0
    4.3287   -1.1691    0.2294 H   0  0  0  0  0  0  0  0  0  0  0  0
    2.1645   -1.2060    1.3899 H   0  0  0  0  0  0  0  0  0  0  0  0
   -3.2997   -0.4388    5.2167 H   0  0  0  0  0  0  0  0  0  0  0  0
   -3.1598    1.4629    0.9620 H   0  0  0  0  0  0  0  0  0  0  0  0
   -5.0297   -0.0897    0.7557 H   0  0  0  0  0  0  0  0  0  0  0  0
   -4.6079   -3.3044   -2.0743 H   0  0  0  0  0  0  0  0  0  0  0  0
   -2.1545   -2.9198   -2.1278 H   0  0  0  0  0  0  0  0  0  0  0  0
   -1.0346    2.2887    0.9509 H   0  0  0  0  0  0  0  0  0  0  0  0
   -1.0180    1.3419   -0.5406 H   0  0  0  0  0  0  0  0  0  0  0  0
    1.0034    2.4006   -0.6935 H   0  0  0  0  0  0  0  0  0  0  0  0
    3.1532    2.4184   -1.8542 H   0  0  0  0  0  0  0  0  0  0  0  0
  1  2  1  0
  2  3  1  0
  3  4  2  0
  4  5  1  0
  5  6  2  0
  6  7  1  0
  7  8  2  0
  8  9  1  0
  9 10  2  0
 10 11  1  0
 11 12  2  0
 12 13  1  0
 13 14  1  0
 14 15  1  0
 15 16  2  0
 16 17  1  0
 17 18  1  0
 17 19  2  0
 19 20  1  0
 20 21  2  0
 21 22  1  0
 14 23  1  0
  6 24  1  0
 24 25  2  0
 25  3  1  0
 23  7  1  0
 13  9  1  0
 21 15  1  0
  1 26  1  0
  1 27  1  0
  1 28  1  0
  2 29  1  0
  2 30  1  0
  4 31  1  0
  5 32  1  0
 11 33  1  0
 14 34  1  0
 16 35  1  0
 19 36  1  0
 20 37  1  0
 23 38  1  0
 23 39  1  0
 24 40  1  0
 25 41  1  0
M  END
$$$$
