
     RDKit          3D

 55 57  0  0  0  0  0  0  0  0999 V2000
   -0.0608    1.2039   -4.6674 C   0  0  0  0  0  0  0  0  0  0  0  0
    0.2350    1.9016   -3.3544 C   0  0  0  0  0  0  0  0  0  0  0  0
   -0.5662    1.2970   -2.3410 O   0  0  0  0  0  0  0  0  0  0  0  0
   -0.3901    1.9223   -1.0676 C   0  0  0  0  0  0  0  0  0  0  0  0
    0.9494    1.7756   -0.5748 O   0  0  0  0  0  0  0  0  0  0  0  0
    1.2824    0.4980   -0.1629 C   0  0  0  0  0  0  0  0  0  0  0  0
    2.7526    0.1695   -0.1308 C   0  0  0  0  0  0  0  0  0  0  0  0
    3.4836    0.5820   -1.0240 O   0  0  0  0  0  0  0  0  0  0  0  0
    3.1251   -0.5548    0.9860 N   0  0  0  0  0  0  0  0  0  0  0  0
    4.4111   -1.0340    1.3093 C   0  0  0  0  0  0  0  0  0  0  0  0
    4.5529   -1.7116    2.5280 C   0  0  0  0  0  0  0  0  0  0  0  0
    5.7931   -2.2218    2.9212 C   0  0  0  0  0  0  0  0  0  0  0  0
    6.9040   -2.0605    2.0982 C   0  0  0  0  0  0  0  0  0  0  0  0
    6.7725   -1.3906    0.8844 C   0  0  0  0  0  0  0  0  0  0  0  0
    5.5310   -0.8800    0.4907 C   0  0  0  0  0  0  0  0  0  0  0  0
    0.3680   -0.4471    0.1207 C   0  0  0  0  0  0  0  0  0  0  0  0
   -1.1158   -0.1692    0.0961 C   0  0  0  0  0  0  0  0  0  0  0  0
   -1.8003   -0.7766    1.3154 C   0  0  0  0  0  0  0  0  0  0  0  0
   -1.4981   -0.3495    2.6199 C   0  0  0  0  0  0  0  0  0  0  0  0
   -2.1373   -0.9204    3.7230 C   0  0  0  0  0  0  0  0  0  0  0  0
   -3.0814   -1.9258    3.5311 C   0  0  0  0  0  0  0  0  0  0  0  0
   -3.9458   -2.6987    5.0236 Br  0  0  0  0  0  0  0  0  0  0  0  0
   -3.3914   -2.3666    2.2472 C   0  0  0  0  0  0  0  0  0  0  0  0
   -2.7523   -1.7949    1.1444 C   0  0  0  0  0  0  0  0  0  0  0  0
   -1.3860    1.3500   -0.0430 C   0  0  0  0  0  0  0  0  0  0  0  0
   -2.8635    1.7086   -0.3240 C   0  0  0  0  0  0  0  0  0  0  0  0
   -3.4777    1.1813   -1.6210 C   0  0  0  0  0  0  0  0  0  0  0  0
   -4.9715    1.4867   -1.6889 C   0  0  0  0  0  0  0  0  0  0  0  0
   -5.5014    1.0444   -2.9309 O   0  0  0  0  0  0  0  0  0  0  0  0
   -1.1234    1.2886   -4.9180 H   0  0  0  0  0  0  0  0  0  0  0  0
    0.5296    1.6355   -5.4805 H   0  0  0  0  0  0  0  0  0  0  0  0
    0.1651    0.1349   -4.5949 H   0  0  0  0  0  0  0  0  0  0  0  0
   -0.0106    2.9659   -3.4370 H   0  0  0  0  0  0  0  0  0  0  0  0
    1.2973    1.7938   -3.1122 H   0  0  0  0  0  0  0  0  0  0  0  0
   -0.5761    2.9982   -1.1742 H   0  0  0  0  0  0  0  0  0  0  0  0
    2.4054   -0.7317    1.6737 H   0  0  0  0  0  0  0  0  0  0  0  0
    3.7026   -1.8523    3.1897 H   0  0  0  0  0  0  0  0  0  0  0  0
    5.8908   -2.7445    3.8691 H   0  0  0  0  0  0  0  0  0  0  0  0
    7.8704   -2.4554    2.4001 H   0  0  0  0  0  0  0  0  0  0  0  0
    7.6360   -1.2618    0.2366 H   0  0  0  0  0  0  0  0  0  0  0  0
    5.4743   -0.3675   -0.4645 H   0  0  0  0  0  0  0  0  0  0  0  0
    0.6719   -1.4667    0.3448 H   0  0  0  0  0  0  0  0  0  0  0  0
   -1.4921   -0.6845   -0.7968 H   0  0  0  0  0  0  0  0  0  0  0  0
   -0.7615    0.4330    2.7898 H   0  0  0  0  0  0  0  0  0  0  0  0
   -1.8925   -0.5743    4.7238 H   0  0  0  0  0  0  0  0  0  0  0  0
   -4.1259   -3.1529    2.0935 H   0  0  0  0  0  0  0  0  0  0  0  0
   -3.0049   -2.1531    0.1482 H   0  0  0  0  0  0  0  0  0  0  0  0
   -1.1431    1.8323    0.9160 H   0  0  0  0  0  0  0  0  0  0  0  0
   -3.4716    1.3609    0.5208 H   0  0  0  0  0  0  0  0  0  0  0  0
   -2.9537    2.8031   -0.3209 H   0  0  0  0  0  0  0  0  0  0  0  0
   -2.9948    1.6361   -2.4922 H   0  0  0  0  0  0  0  0  0  0  0  0
   -3.3354    0.1002   -1.7177 H   0  0  0  0  0  0  0  0  0  0  0  0
   -5.1538    2.5629   -1.6099 H   0  0  0  0  0  0  0  0  0  0  0  0
   -5.5159    0.9857   -0.8819 H   0  0  0  0  0  0  0  0  0  0  0  0
   -5.3093    0.0949   -3.0136 H   0  0  0  0  0  0  0  0  0  0  0  0
  1  2  1  0
  2  3  1  0
  3  4  1  0
  4  5  1  0
  5  6  1  0
  6  7  1  0
  7  8  2  0
  7  9  1  0
  9 10  1  0
 10 11  2  0
 11 12  1  0
 12 13  2  0
 13 14  1  0
 14 15  2  0
  6 16  2  0
 16 17  1  0
 17 18  1  0
 18 19  2  0
 19 20  1  0
 20 21  2  0
 21 22  1  0
 21 23  1  0
 23 24  2  0
 17 25  1  0
 25 26  1  0
 26 27  1  0
 27 28  1  0
 28 29  1  0
 25  4  1  0
 15 10  1  0
 24 18  1  0
  1 30  1  0
  1 31  1  0
  1 32  1  0
  2 33  1  0
  2 34  1  0
  4 35  1  0
  9 36  1  0
 11 37  1  0
 12 38  1  0
 13 39  1  0
 14 40  1  0
 15 41  1  0
 16 42  1  0
 17 43  1  0
 19 44  1  0
 20 45  1  0
 23 46  1  0
 24 47  1  0
 25 48  1  0
 26 49  1  0
 26 50  1  0
 27 51  1  0
 27 52  1  0
 28 53  1  0
 28 54  1  0
 29 55  1  0
M  END
$$$$
