
     RDKit          3D

 33 35  0  0  0  0  0  0  0  0999 V2000
    0.4275   -4.4679    1.5139 Cl  0  0  0  0  0  0  0  0  0  0  0  0
    0.0673   -2.8761    1.0056 C   0  0  0  0  0  0  0  0  0  0  0  0
   -1.1697   -2.4639    1.2300 N   0  0  0  0  0  0  0  0  0  0  0  0
   -1.4007   -1.2284    0.8204 C   0  0  0  0  0  0  0  0  0  0  0  0
   -2.6969   -0.7704    1.0454 N   0  0  0  0  0  0  0  0  0  0  0  0
   -3.3687    0.4301    0.7867 C   0  0  0  0  0  0  0  0  0  0  0  0
   -2.7817    1.5401    0.1713 C   0  0  0  0  0  0  0  0  0  0  0  0
   -3.5108    2.7129   -0.0588 C   0  0  0  0  0  0  0  0  0  0  0  0
   -4.8456    2.7951    0.3247 C   0  0  0  0  0  0  0  0  0  0  0  0
   -5.4513    1.7046    0.9383 C   0  0  0  0  0  0  0  0  0  0  0  0
   -4.7181    0.5359    1.1656 C   0  0  0  0  0  0  0  0  0  0  0  0
   -0.4782   -0.4681    0.2369 N   0  0  0  0  0  0  0  0  0  0  0  0
    0.7347   -0.9896    0.0625 C   0  0  0  0  0  0  0  0  0  0  0  0
    1.6520   -0.1416   -0.5536 N   0  0  0  0  0  0  0  0  0  0  0  0
    2.9963   -0.2632   -0.9247 C   0  0  0  0  0  0  0  0  0  0  0  0
    3.7661   -1.4121   -0.7166 C   0  0  0  0  0  0  0  0  0  0  0  0
    5.1078   -1.4683   -1.1124 C   0  0  0  0  0  0  0  0  0  0  0  0
    5.7046   -0.3715   -1.7257 C   0  0  0  0  0  0  0  0  0  0  0  0
    4.9597    0.7820   -1.9434 C   0  0  0  0  0  0  0  0  0  0  0  0
    3.6200    0.8326   -1.5460 C   0  0  0  0  0  0  0  0  0  0  0  0
    1.0581   -2.2124    0.4384 N   0  0  0  0  0  0  0  0  0  0  0  0
   -3.2356   -1.4968    1.4963 H   0  0  0  0  0  0  0  0  0  0  0  0
   -1.7444    1.5222   -0.1446 H   0  0  0  0  0  0  0  0  0  0  0  0
   -3.0302    3.5612   -0.5391 H   0  0  0  0  0  0  0  0  0  0  0  0
   -5.4105    3.7059    0.1456 H   0  0  0  0  0  0  0  0  0  0  0  0
   -6.4936    1.7595    1.2414 H   0  0  0  0  0  0  0  0  0  0  0  0
   -5.2189   -0.3006    1.6475 H   0  0  0  0  0  0  0  0  0  0  0  0
    1.2069    0.7413   -0.7591 H   0  0  0  0  0  0  0  0  0  0  0  0
    3.3450   -2.2928   -0.2422 H   0  0  0  0  0  0  0  0  0  0  0  0
    5.6826   -2.3744   -0.9382 H   0  0  0  0  0  0  0  0  0  0  0  0
    6.7461   -0.4170   -2.0322 H   0  0  0  0  0  0  0  0  0  0  0  0
    5.4175    1.6437   -2.4217 H   0  0  0  0  0  0  0  0  0  0  0  0
    3.0626    1.7482   -1.7293 H   0  0  0  0  0  0  0  0  0  0  0  0
  1  2  1  0
  2  3  2  0
  3  4  1  0
  4  5  1  0
  5  6  1  0
  6  7  2  0
  7  8  1  0
  8  9  2  0
  9 10  1  0
 10 11  2  0
  4 12  2  0
 12 13  1  0
 13 14  1  0
 14 15  1  0
 15 16  2  0
 16 17  1  0
 17 18  2  0
 18 19  1  0
 19 20  2  0
 13 21  2  0
 21  2  1  0
 11  6  1  0
 20 15  1  0
  5 22  1  0
  7 23  1  0
  8 24  1  0
  9 25  1  0
 10 26  1  0
 11 27  1  0
 14 28  1  0
 16 29  1  0
 17 30  1  0
 18 31  1  0
 19 32  1  0
 20 33  1  0
M  END
$$$$
