
     RDKit          3D

 42 44  0  0  0  0  0  0  0  0999 V2000
   -2.7059    2.1444   -1.5424 O   0  0  0  0  0  0  0  0  0  0  0  0
   -2.3039    1.3357   -0.6983 C   0  0  0  0  0  0  0  0  0  0  0  0
   -2.9333   -0.0777   -0.6630 C   0  0  0  0  0  0  0  0  0  0  0  0
   -2.1622   -1.0566   -1.5489 C   0  0  0  0  0  0  0  0  0  0  0  0
   -1.9484   -2.2742   -0.6784 C   0  0  0  0  0  0  0  0  0  0  0  0
   -3.0058   -2.1233    0.3857 C   0  0  0  0  0  0  0  0  0  0  0  0
   -3.1094   -0.7136    0.6033 O   0  0  0  0  0  0  0  0  0  0  0  0
   -1.2518    1.6481    0.1473 N   0  0  0  0  0  0  0  0  0  0  0  0
   -0.6025    2.9564    0.0347 C   0  0  0  0  0  0  0  0  0  0  0  0
    0.9211    2.7997   -0.0255 C   0  0  0  0  0  0  0  0  0  0  0  0
    1.4535    2.0273    1.1321 N   0  0  0  0  0  0  0  0  0  0  0  0
    2.9590    1.2830    0.9485 S   0  0  0  0  0  6  0  0  0  0  0  0
    3.4013    0.8475    2.2565 O   0  0  0  0  0  0  0  0  0  0  0  0
    3.7853    2.1404    0.1252 O   0  0  0  0  0  0  0  0  0  0  0  0
    2.5909   -0.1799    0.0014 C   0  0  0  0  0  0  0  0  0  0  0  0
    2.6153   -0.1289   -1.3955 C   0  0  0  0  0  0  0  0  0  0  0  0
    2.3670   -1.2875   -2.1313 C   0  0  0  0  0  0  0  0  0  0  0  0
    2.1152   -2.4924   -1.4737 C   0  0  0  0  0  0  0  0  0  0  0  0
    2.1192   -2.5465   -0.0791 C   0  0  0  0  0  0  0  0  0  0  0  0
    2.3644   -1.3914    0.6636 C   0  0  0  0  0  0  0  0  0  0  0  0
    0.4346    1.3756    1.9950 C   0  0  0  0  0  0  0  0  0  0  0  0
   -0.7182    0.7616    1.1835 C   0  0  0  0  0  0  0  0  0  0  0  0
   -3.9456    0.0459   -1.0719 H   0  0  0  0  0  0  0  0  0  0  0  0
   -1.2152   -0.6560   -1.9257 H   0  0  0  0  0  0  0  0  0  0  0  0
   -2.7697   -1.3137   -2.4248 H   0  0  0  0  0  0  0  0  0  0  0  0
   -0.9551   -2.2277   -0.2215 H   0  0  0  0  0  0  0  0  0  0  0  0
   -2.0229   -3.2187   -1.2245 H   0  0  0  0  0  0  0  0  0  0  0  0
   -3.9789   -2.4957    0.0465 H   0  0  0  0  0  0  0  0  0  0  0  0
   -2.7393   -2.6264    1.3193 H   0  0  0  0  0  0  0  0  0  0  0  0
   -0.9475    3.4997   -0.8501 H   0  0  0  0  0  0  0  0  0  0  0  0
   -0.8988    3.5434    0.9117 H   0  0  0  0  0  0  0  0  0  0  0  0
    1.3895    3.7896   -0.0278 H   0  0  0  0  0  0  0  0  0  0  0  0
    1.1777    2.2981   -0.9631 H   0  0  0  0  0  0  0  0  0  0  0  0
    2.8435    0.7977   -1.9160 H   0  0  0  0  0  0  0  0  0  0  0  0
    2.3879   -1.2561   -3.2188 H   0  0  0  0  0  0  0  0  0  0  0  0
    1.9375   -3.3972   -2.0509 H   0  0  0  0  0  0  0  0  0  0  0  0
    1.9468   -3.4929    0.4279 H   0  0  0  0  0  0  0  0  0  0  0  0
    2.3911   -1.4466    1.7498 H   0  0  0  0  0  0  0  0  0  0  0  0
    0.8781    0.6109    2.6402 H   0  0  0  0  0  0  0  0  0  0  0  0
    0.0415    2.1464    2.6699 H   0  0  0  0  0  0  0  0  0  0  0  0
   -0.3795   -0.1509    0.6880 H   0  0  0  0  0  0  0  0  0  0  0  0
   -1.5262    0.5027    1.8738 H   0  0  0  0  0  0  0  0  0  0  0  0
  1  2  2  0
  2  3  1  0
  3  4  1  0
  4  5  1  0
  5  6  1  0
  6  7  1  0
  2  8  1  0
  8  9  1  0
  9 10  1  0
 10 11  1  0
 11 12  1  0
 12 13  2  0
 12 14  2  0
 12 15  1  0
 15 16  2  0
 16 17  1  0
 17 18  2  0
 18 19  1  0
 19 20  2  0
 11 21  1  0
 21 22  1  0
  7  3  1  0
 22  8  1  0
 20 15  1  0
  3 23  1  0
  4 24  1  0
  4 25  1  0
  5 26  1  0
  5 27  1  0
  6 28  1  0
  6 29  1  0
  9 30  1  0
  9 31  1  0
 10 32  1  0
 10 33  1  0
 16 34  1  0
 17 35  1  0
 18 36  1  0
 19 37  1  0
 20 38  1  0
 21 39  1  0
 21 40  1  0
 22 41  1  0
 22 42  1  0
M  END
$$$$
