
     RDKit          3D

 52 55  0  0  0  0  0  0  0  0999 V2000
    3.3369    2.5685   -0.0336 O   0  0  0  0  0  0  0  0  0  0  0  0
    3.2935    1.3981    0.3401 C   0  0  0  0  0  0  0  0  0  0  0  0
    2.3642    0.9395    1.2606 N   0  0  0  0  0  0  0  0  0  0  0  0
    1.2835    1.8299    1.5237 N   0  0  0  0  0  0  0  0  0  0  0  0
    0.0548    1.2800    1.0567 C   0  0  0  0  0  0  0  0  0  0  0  0
   -1.0636    2.0853    1.0449 C   0  0  0  0  0  0  0  0  0  0  0  0
   -2.2452    1.5272    0.6145 C   0  0  0  0  0  0  0  0  0  0  0  0
   -3.4108    2.2461    0.5533 N   0  0  0  0  0  0  0  0  0  0  0  0
   -4.6164    1.6640   -0.0246 C   0  0  0  0  0  0  0  0  0  0  0  0
   -5.5026    2.8767   -0.3085 C   0  0  0  0  0  0  0  0  0  0  0  0
   -5.0757    3.8784    0.7531 C   0  0  0  0  0  0  0  0  0  0  0  0
   -3.5668    3.6616    0.8435 C   0  0  0  0  0  0  0  0  0  0  0  0
   -2.2825    0.2351    0.2456 N   0  0  0  0  0  0  0  0  0  0  0  0
   -1.1669   -0.5058    0.3018 C   0  0  0  0  0  0  0  0  0  0  0  0
   -1.2301   -1.8169   -0.0935 N   0  0  0  0  0  0  0  0  0  0  0  0
   -2.5149   -2.4890   -0.2043 C   0  0  0  0  0  0  0  0  0  0  0  0
   -2.1871   -3.9570    0.0804 C   0  0  0  0  0  0  0  0  0  0  0  0
   -0.7116   -4.0739   -0.2736 C   0  0  0  0  0  0  0  0  0  0  0  0
   -0.1482   -2.7354    0.1947 C   0  0  0  0  0  0  0  0  0  0  0  0
    0.0118   -0.0178    0.7034 N   0  0  0  0  0  0  0  0  0  0  0  0
    4.2247    0.3811   -0.2247 C   0  0  0  0  0  0  0  0  0  0  0  0
    4.4977   -0.8280    0.4326 C   0  0  0  0  0  0  0  0  0  0  0  0
    5.3805   -1.7540   -0.1353 C   0  0  0  0  0  0  0  0  0  0  0  0
    5.9960   -1.4656   -1.3614 C   0  0  0  0  0  0  0  0  0  0  0  0
    6.9194   -2.4390   -1.9592 N   0  0  0  0  0  4  0  0  0  0  0  0
    7.4495   -2.1433   -3.0393 O   0  0  0  0  0  0  0  0  0  0  0  0
    7.1110   -3.5000   -1.3482 O   0  0  0  0  0  1  0  0  0  0  0  0
    5.7394   -0.2554   -2.0185 C   0  0  0  0  0  0  0  0  0  0  0  0
    4.8569    0.6651   -1.4449 C   0  0  0  0  0  0  0  0  0  0  0  0
    2.0518   -0.0311    1.2022 H   0  0  0  0  0  0  0  0  0  0  0  0
    1.4569    2.7276    1.0542 H   0  0  0  0  0  0  0  0  0  0  0  0
   -0.9984    3.1156    1.3628 H   0  0  0  0  0  0  0  0  0  0  0  0
   -4.4280    1.1107   -0.9519 H   0  0  0  0  0  0  0  0  0  0  0  0
   -5.0944    0.9968    0.7017 H   0  0  0  0  0  0  0  0  0  0  0  0
   -5.2825    3.2756   -1.3065 H   0  0  0  0  0  0  0  0  0  0  0  0
   -6.5682    2.6361   -0.2637 H   0  0  0  0  0  0  0  0  0  0  0  0
   -5.3364    4.9089    0.4964 H   0  0  0  0  0  0  0  0  0  0  0  0
   -5.5499    3.6312    1.7109 H   0  0  0  0  0  0  0  0  0  0  0  0
   -3.2003    3.9316    1.8395 H   0  0  0  0  0  0  0  0  0  0  0  0
   -3.0469    4.2642    0.0894 H   0  0  0  0  0  0  0  0  0  0  0  0
   -2.9082   -2.3699   -1.2198 H   0  0  0  0  0  0  0  0  0  0  0  0
   -3.2646   -2.1323    0.5112 H   0  0  0  0  0  0  0  0  0  0  0  0
   -2.3296   -4.1697    1.1467 H   0  0  0  0  0  0  0  0  0  0  0  0
   -2.8183   -4.6446   -0.4896 H   0  0  0  0  0  0  0  0  0  0  0  0
   -0.5952   -4.1750   -1.3592 H   0  0  0  0  0  0  0  0  0  0  0  0
   -0.2244   -4.9265    0.2063 H   0  0  0  0  0  0  0  0  0  0  0  0
    0.7709   -2.4834   -0.3447 H   0  0  0  0  0  0  0  0  0  0  0  0
    0.0621   -2.7696    1.2707 H   0  0  0  0  0  0  0  0  0  0  0  0
    4.0517   -1.0590    1.3973 H   0  0  0  0  0  0  0  0  0  0  0  0
    5.5815   -2.6859    0.3909 H   0  0  0  0  0  0  0  0  0  0  0  0
    6.2132   -0.0134   -2.9681 H   0  0  0  0  0  0  0  0  0  0  0  0
    4.6595    1.6066   -1.9560 H   0  0  0  0  0  0  0  0  0  0  0  0
  1  2  2  0
  2  3  1  0
  3  4  1  0
  4  5  1  0
  5  6  2  0
  6  7  1  0
  7  8  1  0
  8  9  1  0
  9 10  1  0
 10 11  1  0
 11 12  1  0
  7 13  2  0
 13 14  1  0
 14 15  1  0
 15 16  1  0
 16 17  1  0
 17 18  1  0
 18 19  1  0
 14 20  2  0
  2 21  1  0
 21 22  2  0
 22 23  1  0
 23 24  2  0
 24 25  1  0
 25 26  2  0
 25 27  1  0
 24 28  1  0
 28 29  2  0
 20  5  1  0
 29 21  1  0
 12  8  1  0
 19 15  1  0
  3 30  1  0
  4 31  1  0
  6 32  1  0
  9 33  1  0
  9 34  1  0
 10 35  1  0
 10 36  1  0
 11 37  1  0
 11 38  1  0
 12 39  1  0
 12 40  1  0
 16 41  1  0
 16 42  1  0
 17 43  1  0
 17 44  1  0
 18 45  1  0
 18 46  1  0
 19 47  1  0
 19 48  1  0
 22 49  1  0
 23 50  1  0
 28 51  1  0
 29 52  1  0
M  CHG  2  25   1  27  -1
M  END
$$$$
