
     RDKit          3D

 61 65  0  0  0  0  0  0  0  0999 V2000
    3.2989   -2.3479   -0.0931 C   0  0  0  0  0  0  0  0  0  0  0  0
    3.4572   -1.3075    0.9548 C   0  0  0  0  0  0  0  0  0  0  0  0
    2.4727   -0.5205    1.5267 C   0  0  0  0  0  0  0  0  0  0  0  0
    0.9939   -0.4834    1.2704 C   0  0  0  0  0  0  0  0  0  0  0  0
    0.6392    0.4243    0.0911 C   0  0  0  0  0  0  0  0  0  0  0  0
   -0.7780    0.4284   -0.1340 O   0  0  0  0  0  0  0  0  0  0  0  0
   -1.4896    1.2887    0.6526 C   0  0  0  0  0  0  0  0  0  0  0  0
   -0.9859    1.9748    1.5318 O   0  0  0  0  0  0  0  0  0  0  0  0
   -2.9786    1.2389    0.3216 C   0  0  0  0  0  0  0  0  0  0  0  0
   -3.2182    1.4336   -1.1930 C   0  0  0  0  0  0  0  0  0  0  0  0
   -4.7218    1.3784   -1.5092 C   0  0  0  0  0  0  0  0  0  0  0  0
   -5.4447    2.4937   -0.7396 C   0  0  0  0  0  0  0  0  0  0  0  0
   -5.2322    2.3115    0.7706 C   0  0  0  0  0  0  0  0  0  0  0  0
   -5.7932    0.9471    1.2032 C   0  0  0  0  0  0  0  0  0  0  0  0
   -5.0769   -0.1950    0.4466 C   0  0  0  0  0  0  0  0  0  0  0  0
   -5.6425   -1.5513    0.8766 C   0  0  0  0  0  0  0  0  0  0  0  0
   -5.2814    0.0137   -1.0724 C   0  0  0  0  0  0  0  0  0  0  0  0
   -3.5630   -0.1236    0.7571 C   0  0  0  0  0  0  0  0  0  0  0  0
   -3.7279    2.3605    1.0804 C   0  0  0  0  0  0  0  0  0  0  0  0
    3.1645    0.5329    2.6954 S   0  0  0  0  0  0  0  0  0  0  0  0
    4.7307   -0.0772    2.4055 C   0  0  0  0  0  0  0  0  0  0  0  0
    4.7200   -1.0100    1.4673 N   0  0  0  0  0  4  0  0  0  0  0  0
    5.9734   -1.6660    1.0649 C   0  0  0  0  0  0  0  0  0  0  0  0
    6.3822   -1.2428   -0.3253 C   0  0  0  0  0  0  0  0  0  0  0  0
    6.6826   -2.2156   -1.2936 C   0  0  0  0  0  0  0  0  0  0  0  0
    7.0657   -1.8404   -2.5819 C   0  0  0  0  0  0  0  0  0  0  0  0
    7.1653   -0.4926   -2.9156 C   0  0  0  0  0  0  0  0  0  0  0  0
    6.8906    0.4829   -1.9606 C   0  0  0  0  0  0  0  0  0  0  0  0
    6.5067    0.1129   -0.6706 C   0  0  0  0  0  0  0  0  0  0  0  0
    2.2497   -2.6383   -0.2082 H   0  0  0  0  0  0  0  0  0  0  0  0
    3.8522   -3.2577    0.1551 H   0  0  0  0  0  0  0  0  0  0  0  0
    3.6394   -1.9712   -1.0618 H   0  0  0  0  0  0  0  0  0  0  0  0
    0.4565   -0.1640    2.1716 H   0  0  0  0  0  0  0  0  0  0  0  0
    0.6222   -1.4961    1.0708 H   0  0  0  0  0  0  0  0  0  0  0  0
    1.0153    1.4462    0.2274 H   0  0  0  0  0  0  0  0  0  0  0  0
    1.1035    0.0458   -0.8268 H   0  0  0  0  0  0  0  0  0  0  0  0
   -2.7001    0.6585   -1.7721 H   0  0  0  0  0  0  0  0  0  0  0  0
   -2.7996    2.3934   -1.5225 H   0  0  0  0  0  0  0  0  0  0  0  0
   -4.8774    1.5128   -2.5854 H   0  0  0  0  0  0  0  0  0  0  0  0
   -5.0660    3.4732   -1.0564 H   0  0  0  0  0  0  0  0  0  0  0  0
   -6.5164    2.4763   -0.9724 H   0  0  0  0  0  0  0  0  0  0  0  0
   -5.7470    3.1113    1.3146 H   0  0  0  0  0  0  0  0  0  0  0  0
   -6.8726    0.9132    1.0069 H   0  0  0  0  0  0  0  0  0  0  0  0
   -5.6666    0.8229    2.2864 H   0  0  0  0  0  0  0  0  0  0  0  0
   -5.1454   -2.3723    0.3482 H   0  0  0  0  0  0  0  0  0  0  0  0
   -6.7150   -1.6180    0.6635 H   0  0  0  0  0  0  0  0  0  0  0  0
   -5.5049   -1.7138    1.9512 H   0  0  0  0  0  0  0  0  0  0  0  0
   -6.3486   -0.0430   -1.3222 H   0  0  0  0  0  0  0  0  0  0  0  0
   -4.7835   -0.7858   -1.6358 H   0  0  0  0  0  0  0  0  0  0  0  0
   -3.3880   -0.2793    1.8304 H   0  0  0  0  0  0  0  0  0  0  0  0
   -3.0395   -0.9417    0.2440 H   0  0  0  0  0  0  0  0  0  0  0  0
   -3.3235    3.3427    0.8024 H   0  0  0  0  0  0  0  0  0  0  0  0
   -3.5726    2.2596    2.1627 H   0  0  0  0  0  0  0  0  0  0  0  0
    5.6121    0.2756    2.9280 H   0  0  0  0  0  0  0  0  0  0  0  0
    6.7786   -1.4090    1.7644 H   0  0  0  0  0  0  0  0  0  0  0  0
    5.8339   -2.7507    1.1366 H   0  0  0  0  0  0  0  0  0  0  0  0
    6.6269   -3.2786   -1.0645 H   0  0  0  0  0  0  0  0  0  0  0  0
    7.2952   -2.5984   -3.3289 H   0  0  0  0  0  0  0  0  0  0  0  0
    7.4694   -0.2021   -3.9194 H   0  0  0  0  0  0  0  0  0  0  0  0
    6.9859    1.5346   -2.2242 H   0  0  0  0  0  0  0  0  0  0  0  0
    6.3165    0.9054    0.0497 H   0  0  0  0  0  0  0  0  0  0  0  0
  1  2  1  0
  2  3  2  0
  3  4  1  0
  4  5  1  0
  5  6  1  0
  6  7  1  0
  7  8  2  0
  7  9  1  0
  9 10  1  0
 10 11  1  0
 11 12  1  0
 12 13  1  0
 13 14  1  0
 14 15  1  0
 15 16  1  0
 15 17  1  0
 15 18  1  0
 13 19  1  0
  3 20  1  0
 20 21  1  0
 21 22  2  0
 22 23  1  0
 23 24  1  0
 24 25  2  0
 25 26  1  0
 26 27  2  0
 27 28  1  0
 28 29  2  0
 22  2  1  0
 29 24  1  0
 18  9  1  0
 19  9  1  0
 17 11  1  0
  1 30  1  0
  1 31  1  0
  1 32  1  0
  4 33  1  0
  4 34  1  0
  5 35  1  0
  5 36  1  0
 10 37  1  0
 10 38  1  0
 11 39  1  0
 12 40  1  0
 12 41  1  0
 13 42  1  0
 14 43  1  0
 14 44  1  0
 16 45  1  0
 16 46  1  0
 16 47  1  0
 17 48  1  0
 17 49  1  0
 18 50  1  0
 18 51  1  0
 19 52  1  0
 19 53  1  0
 21 54  1  0
 23 55  1  0
 23 56  1  0
 25 57  1  0
 26 58  1  0
 27 59  1  0
 28 60  1  0
 29 61  1  0
M  CHG  1  22   1
M  END
$$$$
