
     RDKit          3D

 42 43  0  0  0  0  0  0  0  0999 V2000
   -1.2361    3.0208   -1.4009 C   0  0  0  0  0  0  0  0  0  0  0  0
   -0.3934    2.1800   -0.4812 C   0  0  0  0  0  0  0  0  0  0  0  0
    0.6340    2.8107    0.2449 C   0  0  0  0  0  0  0  0  0  0  0  0
    1.4647    2.0853    1.1013 C   0  0  0  0  0  0  0  0  0  0  0  0
    1.2844    0.7091    1.2279 C   0  0  0  0  0  0  0  0  0  0  0  0
    2.3217   -0.2316    2.3236 S   0  0  0  0  0  6  0  0  0  0  0  0
    1.4446   -1.1280    3.0541 O   0  0  0  0  0  0  0  0  0  0  0  0
    3.1789    0.7003    3.0331 O   0  0  0  0  0  0  0  0  0  0  0  0
    3.3777   -1.2187    1.2863 C   0  0  0  0  0  0  0  0  0  0  0  0
    3.0915   -2.5730    1.0873 C   0  0  0  0  0  0  0  0  0  0  0  0
    3.9320   -3.3392    0.2768 C   0  0  0  0  0  0  0  0  0  0  0  0
    5.0505   -2.7521   -0.3169 C   0  0  0  0  0  0  0  0  0  0  0  0
    6.0837   -3.7004   -1.3131 Cl  0  0  0  0  0  0  0  0  0  0  0  0
    5.3411   -1.4033   -0.1055 C   0  0  0  0  0  0  0  0  0  0  0  0
    4.5050   -0.6304    0.7028 C   0  0  0  0  0  0  0  0  0  0  0  0
    0.2745    0.0533    0.5214 C   0  0  0  0  0  0  0  0  0  0  0  0
   -0.5622    0.7881   -0.3323 C   0  0  0  0  0  0  0  0  0  0  0  0
   -1.8205   -0.1126   -1.2290 S   0  0  0  0  0  6  0  0  0  0  0  0
   -1.8215    0.3655   -2.5933 O   0  0  0  0  0  0  0  0  0  0  0  0
   -1.6529   -1.5223   -0.9435 O   0  0  0  0  0  0  0  0  0  0  0  0
   -3.2648    0.4001   -0.4779 N   0  0  0  0  0  0  0  0  0  0  0  0
   -3.3963    0.0647    0.9573 C   0  0  0  0  0  0  0  0  0  0  0  0
   -4.4836    0.0665   -1.2726 C   0  0  0  0  0  0  0  0  0  0  0  0
   -4.6735   -1.3865   -1.6411 C   0  0  0  0  0  0  0  0  0  0  0  0
   -4.8549   -1.8295   -2.7637 O   0  0  0  0  0  0  0  0  0  0  0  0
   -4.6786   -2.2146   -0.5757 O   0  0  0  0  0  0  0  0  0  0  0  0
   -1.0902    4.0890   -1.2046 H   0  0  0  0  0  0  0  0  0  0  0  0
   -2.3015    2.8240   -1.2565 H   0  0  0  0  0  0  0  0  0  0  0  0
   -0.9594    2.8376   -2.4433 H   0  0  0  0  0  0  0  0  0  0  0  0
    0.7932    3.8845    0.1487 H   0  0  0  0  0  0  0  0  0  0  0  0
    2.2417    2.6039    1.6599 H   0  0  0  0  0  0  0  0  0  0  0  0
    2.2270   -3.0398    1.5553 H   0  0  0  0  0  0  0  0  0  0  0  0
    3.7132   -4.3922    0.1153 H   0  0  0  0  0  0  0  0  0  0  0  0
    6.2188   -0.9526   -0.5625 H   0  0  0  0  0  0  0  0  0  0  0  0
    4.7428    0.4170    0.8763 H   0  0  0  0  0  0  0  0  0  0  0  0
    0.1365   -1.0201    0.6417 H   0  0  0  0  0  0  0  0  0  0  0  0
   -3.2044   -0.9935    1.1511 H   0  0  0  0  0  0  0  0  0  0  0  0
   -2.6989    0.6682    1.5451 H   0  0  0  0  0  0  0  0  0  0  0  0
   -4.4021    0.3030    1.3176 H   0  0  0  0  0  0  0  0  0  0  0  0
   -4.4581    0.6528   -2.1991 H   0  0  0  0  0  0  0  0  0  0  0  0
   -5.3819    0.3994   -0.7396 H   0  0  0  0  0  0  0  0  0  0  0  0
   -4.7226   -3.1093   -0.9757 H   0  0  0  0  0  0  0  0  0  0  0  0
  1  2  1  0
  2  3  2  0
  3  4  1  0
  4  5  2  0
  5  6  1  0
  6  7  2  0
  6  8  2  0
  6  9  1  0
  9 10  2  0
 10 11  1  0
 11 12  2  0
 12 13  1  0
 12 14  1  0
 14 15  2  0
  5 16  1  0
 16 17  2  0
 17 18  1  0
 18 19  2  0
 18 20  2  0
 18 21  1  0
 21 22  1  0
 21 23  1  0
 23 24  1  0
 24 25  2  0
 24 26  1  0
 17  2  1  0
 15  9  1  0
  1 27  1  0
  1 28  1  0
  1 29  1  0
  3 30  1  0
  4 31  1  0
 10 32  1  0
 11 33  1  0
 14 34  1  0
 15 35  1  0
 16 36  1  0
 22 37  1  0
 22 38  1  0
 22 39  1  0
 23 40  1  0
 23 41  1  0
 26 42  1  0
M  END
$$$$
