
     RDKit          3D

 28 29  0  0  0  0  0  0  0  0999 V2000
   -1.8761   -3.3977    0.9938 O   0  0  0  0  0  0  0  0  0  0  0  0
   -1.7196   -2.1834    0.8666 C   0  0  0  0  0  0  0  0  0  0  0  0
   -2.9126   -1.2712    0.7116 C   0  0  0  0  0  0  0  0  0  0  0  0
   -2.7008   -0.2567   -0.2943 N   0  0  0  0  0  0  0  0  0  0  0  0
   -3.1699   -0.2249   -1.5682 C   0  0  0  0  0  0  0  0  0  0  0  0
   -2.7554    0.8739   -2.1562 N   0  0  0  0  0  0  0  0  0  0  0  0
   -2.0260    1.4940   -1.1832 C   0  0  0  0  0  0  0  0  0  0  0  0
   -1.9366    0.8255   -0.0287 N   0  0  0  0  0  0  0  0  0  0  0  0
   -0.4977   -1.5268    0.9070 N   0  0  0  0  0  0  0  0  0  0  0  0
    0.6408   -2.2180    1.1822 N   0  0  0  0  0  0  0  0  0  0  0  0
    1.7871   -1.6171    1.0664 C   0  0  0  0  0  0  0  0  0  0  0  0
    2.0758   -0.2827    0.5109 C   0  0  0  0  0  0  0  0  0  0  0  0
    2.9479    0.5553    1.2102 C   0  0  0  0  0  0  0  0  0  0  0  0
    3.2621    1.8125    0.6880 C   0  0  0  0  0  0  0  0  0  0  0  0
    2.7190    2.2132   -0.5338 C   0  0  0  0  0  0  0  0  0  0  0  0
    3.1072    3.7621   -1.1731 Cl  0  0  0  0  0  0  0  0  0  0  0  0
    1.8695    1.3651   -1.2443 C   0  0  0  0  0  0  0  0  0  0  0  0
    1.5501    0.1092   -0.7242 C   0  0  0  0  0  0  0  0  0  0  0  0
   -3.1258   -0.7752    1.6637 H   0  0  0  0  0  0  0  0  0  0  0  0
   -3.7868   -1.8600    0.4150 H   0  0  0  0  0  0  0  0  0  0  0  0
   -3.7882   -0.9971   -2.0058 H   0  0  0  0  0  0  0  0  0  0  0  0
   -1.5408    2.4521   -1.3231 H   0  0  0  0  0  0  0  0  0  0  0  0
   -0.4665   -0.5086    0.8214 H   0  0  0  0  0  0  0  0  0  0  0  0
    2.6722   -2.1745    1.4206 H   0  0  0  0  0  0  0  0  0  0  0  0
    3.3743    0.2461    2.1615 H   0  0  0  0  0  0  0  0  0  0  0  0
    3.9303    2.4732    1.2351 H   0  0  0  0  0  0  0  0  0  0  0  0
    1.4596    1.6714   -2.2036 H   0  0  0  0  0  0  0  0  0  0  0  0
    0.9069   -0.5596   -1.2923 H   0  0  0  0  0  0  0  0  0  0  0  0
  1  2  2  0
  2  3  1  0
  3  4  1  0
  4  5  1  0
  5  6  2  0
  6  7  1  0
  7  8  2  0
  2  9  1  0
  9 10  1  0
 10 11  2  3
 11 12  1  0
 12 13  2  0
 13 14  1  0
 14 15  2  0
 15 16  1  0
 15 17  1  0
 17 18  2  0
  8  4  1  0
 18 12  1  0
  3 19  1  0
  3 20  1  0
  5 21  1  0
  7 22  1  0
  9 23  1  0
 11 24  1  0
 13 25  1  0
 14 26  1  0
 17 27  1  0
 18 28  1  0
M  END
$$$$
