
     RDKit          3D

 32 34  0  0  0  0  0  0  0  0999 V2000
    3.7639    3.5474    2.2931 O   0  0  0  0  0  0  0  0  0  0  0  0
    4.0001    2.3327    2.3370 N   0  0  0  0  0  4  0  0  0  0  0  0
    4.9392    1.8173    2.9582 O   0  0  0  0  0  1  0  0  0  0  0  0
    3.0973    1.4344    1.6049 C   0  0  0  0  0  0  0  0  0  0  0  0
    1.9781    1.9625    0.9437 C   0  0  0  0  0  0  0  0  0  0  0  0
    1.1152    1.1107    0.2433 C   0  0  0  0  0  0  0  0  0  0  0  0
    1.3511   -0.2697    0.2139 C   0  0  0  0  0  0  0  0  0  0  0  0
    0.5630   -1.1215   -0.5264 O   0  0  0  0  0  0  0  0  0  0  0  0
   -0.8025   -1.0127   -0.3285 C   0  0  0  0  0  0  0  0  0  0  0  0
   -1.3543   -1.5645    0.8352 C   0  0  0  0  0  0  0  0  0  0  0  0
   -2.7278   -1.5124    1.0349 C   0  0  0  0  0  0  0  0  0  0  0  0
   -3.5407   -0.9249    0.0680 C   0  0  0  0  0  0  0  0  0  0  0  0
   -2.9846   -0.3897   -1.1087 C   0  0  0  0  0  0  0  0  0  0  0  0
   -3.7950    0.1953   -2.0912 C   0  0  0  0  0  0  0  0  0  0  0  0
   -3.2227    0.7153   -3.2448 C   0  0  0  0  0  0  0  0  0  0  0  0
   -1.8513    0.6372   -3.3772 C   0  0  0  0  0  0  0  0  0  0  0  0
   -1.0371    0.0878   -2.4503 N   0  0  0  0  0  0  0  0  0  0  0  0
   -1.5904   -0.4310   -1.3293 C   0  0  0  0  0  0  0  0  0  0  0  0
    2.4814   -0.7705    0.8682 C   0  0  0  0  0  0  0  0  0  0  0  0
    2.7609   -2.1920    0.8446 N   0  0  0  0  0  4  0  0  0  0  0  0
    3.8640   -2.5367    0.4009 O   0  0  0  0  0  0  0  0  0  0  0  0
    1.9037   -2.9474    1.3213 O   0  0  0  0  0  1  0  0  0  0  0  0
    3.3641    0.0613    1.5699 C   0  0  0  0  0  0  0  0  0  0  0  0
    1.7696    3.0317    0.9505 H   0  0  0  0  0  0  0  0  0  0  0  0
    0.2753    1.5417   -0.2988 H   0  0  0  0  0  0  0  0  0  0  0  0
   -0.7172   -2.0470    1.5716 H   0  0  0  0  0  0  0  0  0  0  0  0
   -3.1662   -1.9387    1.9338 H   0  0  0  0  0  0  0  0  0  0  0  0
   -4.6161   -0.8943    0.2324 H   0  0  0  0  0  0  0  0  0  0  0  0
   -4.8738    0.2449   -1.9644 H   0  0  0  0  0  0  0  0  0  0  0  0
   -3.8313    1.1672   -4.0196 H   0  0  0  0  0  0  0  0  0  0  0  0
   -1.3504    1.0257   -4.2595 H   0  0  0  0  0  0  0  0  0  0  0  0
    4.2346   -0.3603    2.0700 H   0  0  0  0  0  0  0  0  0  0  0  0
  1  2  2  0
  2  3  1  0
  2  4  1  0
  4  5  2  0
  5  6  1  0
  6  7  2  0
  7  8  1  0
  8  9  1  0
  9 10  2  0
 10 11  1  0
 11 12  2  0
 12 13  1  0
 13 14  2  0
 14 15  1  0
 15 16  2  0
 16 17  1  0
 17 18  2  0
  7 19  1  0
 19 20  1  0
 20 21  2  0
 20 22  1  0
 19 23  2  0
 23  4  1  0
 18  9  1  0
 18 13  1  0
  5 24  1  0
  6 25  1  0
 10 26  1  0
 11 27  1  0
 12 28  1  0
 14 29  1  0
 15 30  1  0
 16 31  1  0
 23 32  1  0
M  CHG  4   2   1   3  -1  20   1  22  -1
M  END
$$$$
