
     RDKit          3D

 45 48  0  0  0  0  0  0  0  0999 V2000
   -4.5617    1.6739    2.6185 C   0  0  0  0  0  0  0  0  0  0  0  0
   -4.3638    1.5308    1.1223 C   0  0  0  0  0  0  0  0  0  0  0  0
   -3.0266    1.0709    0.8915 O   0  0  0  0  0  0  0  0  0  0  0  0
   -2.7144    0.9061   -0.4203 C   0  0  0  0  0  0  0  0  0  0  0  0
   -3.4450    1.1268   -1.3730 O   0  0  0  0  0  0  0  0  0  0  0  0
   -1.3350    0.3787   -0.5387 C   0  0  0  0  0  0  0  0  0  0  0  0
   -1.2756   -0.9659   -1.1509 C   0  0  0  0  0  0  0  0  0  0  0  0
   -0.4480   -1.3303   -1.9762 O   0  0  0  0  0  0  0  0  0  0  0  0
   -2.2726   -1.7392   -0.6469 O   0  0  0  0  0  0  0  0  0  0  0  0
   -2.3263   -3.0686   -1.1787 C   0  0  0  0  0  0  0  0  0  0  0  0
   -3.4920   -3.7891   -0.5307 C   0  0  0  0  0  0  0  0  0  0  0  0
   -0.2630    1.1569   -0.2174 C   0  0  0  0  0  0  0  0  0  0  0  0
   -0.4996    2.6319    0.0518 C   0  0  0  0  0  0  0  0  0  0  0  0
    0.4875    3.5603    0.0808 C   0  0  0  0  0  0  0  0  0  0  0  0
    0.1169    5.3701    0.3607 Br  0  0  0  0  0  0  0  0  0  0  0  0
    1.8469    3.1513   -0.0870 C   0  0  0  0  0  0  0  0  0  0  0  0
    2.9896    3.8457   -0.1086 N   0  0  0  0  0  0  0  0  0  0  0  0
    3.9999    2.8815   -0.1914 O   0  0  0  0  0  0  0  0  0  0  0  0
    3.4423    1.6334   -0.2026 C   0  0  0  0  0  0  0  0  0  0  0  0
    4.0825    0.3897   -0.1965 C   0  0  0  0  0  0  0  0  0  0  0  0
    5.4857    0.2788   -0.2151 C   0  0  0  0  0  0  0  0  0  0  0  0
    6.0693   -0.9836   -0.1657 C   0  0  0  0  0  0  0  0  0  0  0  0
    5.2642   -2.1192   -0.0893 C   0  0  0  0  0  0  0  0  0  0  0  0
    3.8684   -2.0011   -0.0679 C   0  0  0  0  0  0  0  0  0  0  0  0
    3.2345   -0.7430   -0.1290 C   0  0  0  0  0  0  0  0  0  0  0  0
    1.8159   -0.5687   -0.1175 C   0  0  0  0  0  0  0  0  0  0  0  0
    1.0607   -1.7061    0.0199 O   0  0  0  0  0  0  0  0  0  0  0  0
    1.1817    0.6875   -0.2086 C   0  0  0  0  0  0  0  0  0  0  0  0
    2.0767    1.7684   -0.1939 C   0  0  0  0  0  0  0  0  0  0  0  0
   -5.5728    2.0221    2.8470 H   0  0  0  0  0  0  0  0  0  0  0  0
   -3.8401    2.3836    3.0365 H   0  0  0  0  0  0  0  0  0  0  0  0
   -4.3947    0.7163    3.1227 H   0  0  0  0  0  0  0  0  0  0  0  0
   -4.5103    2.5012    0.6349 H   0  0  0  0  0  0  0  0  0  0  0  0
   -5.0785    0.8035    0.7210 H   0  0  0  0  0  0  0  0  0  0  0  0
   -2.4723   -3.0270   -2.2639 H   0  0  0  0  0  0  0  0  0  0  0  0
   -1.3924   -3.5947   -0.9511 H   0  0  0  0  0  0  0  0  0  0  0  0
   -4.4304   -3.2609   -0.7292 H   0  0  0  0  0  0  0  0  0  0  0  0
   -3.3687   -3.8206    0.5570 H   0  0  0  0  0  0  0  0  0  0  0  0
   -3.5759   -4.8126   -0.9065 H   0  0  0  0  0  0  0  0  0  0  0  0
   -1.5187    2.9871    0.1768 H   0  0  0  0  0  0  0  0  0  0  0  0
    6.1160    1.1637   -0.2615 H   0  0  0  0  0  0  0  0  0  0  0  0
    7.1517   -1.0839   -0.1785 H   0  0  0  0  0  0  0  0  0  0  0  0
    5.7219   -3.1047   -0.0417 H   0  0  0  0  0  0  0  0  0  0  0  0
    3.2729   -2.9095    0.0028 H   0  0  0  0  0  0  0  0  0  0  0  0
    0.8933   -1.9917   -0.9059 H   0  0  0  0  0  0  0  0  0  0  0  0
  1  2  1  0
  2  3  1  0
  3  4  1  0
  4  5  2  0
  4  6  1  0
  6  7  1  0
  7  8  2  0
  7  9  1  0
  9 10  1  0
 10 11  1  0
  6 12  2  3
 12 13  1  0
 13 14  2  0
 14 15  1  0
 14 16  1  0
 16 17  2  0
 17 18  1  0
 18 19  1  0
 19 20  1  0
 20 21  2  0
 21 22  1  0
 22 23  2  0
 23 24  1  0
 24 25  2  0
 25 26  1  0
 26 27  1  0
 26 28  2  0
 28 29  1  0
 28 12  1  0
 29 16  1  0
 29 19  2  0
 25 20  1  0
  1 30  1  0
  1 31  1  0
  1 32  1  0
  2 33  1  0
  2 34  1  0
 10 35  1  0
 10 36  1  0
 11 37  1  0
 11 38  1  0
 11 39  1  0
 13 40  1  0
 21 41  1  0
 22 42  1  0
 23 43  1  0
 24 44  1  0
 27 45  1  0
M  END
$$$$
