
     RDKit          3D

 59 62  0  0  0  0  0  0  0  0999 V2000
   -5.9221    3.1490    1.5938 C   0  0  0  0  0  0  0  0  0  0  0  0
   -5.8596    1.6459    1.8032 C   0  0  0  0  0  0  0  0  0  0  0  0
   -5.7868    0.9137    0.5528 N   0  0  0  0  0  0  0  0  0  0  0  0
   -4.6572    0.4374   -0.0868 C   0  0  0  0  0  0  0  0  0  0  0  0
   -3.2938    0.6528    0.3835 C   0  0  0  0  0  0  0  0  0  0  0  0
   -2.9622    1.7128    0.9117 O   0  0  0  0  0  0  0  0  0  0  0  0
   -2.3652   -0.3789    0.1718 N   0  0  0  0  0  0  0  0  0  0  0  0
   -2.7448   -1.7821    0.3452 C   0  0  0  0  0  0  0  0  0  0  0  0
   -1.8249   -2.7044   -0.4459 C   0  0  0  0  0  0  0  0  0  0  0  0
   -0.3583   -2.4535   -0.1038 C   0  0  0  0  0  0  0  0  0  0  0  0
    0.0002   -0.9721   -0.2802 C   0  0  0  0  0  0  0  0  0  0  0  0
    1.4340   -0.7112    0.1580 C   0  0  0  0  0  0  0  0  0  0  0  0
    1.7269   -0.0503    1.1484 O   0  0  0  0  0  0  0  0  0  0  0  0
    2.3798   -1.2989   -0.6564 N   0  0  0  0  0  0  0  0  0  0  0  0
    3.8014   -1.1270   -0.4156 C   0  0  0  0  0  0  0  0  0  0  0  0
    4.3136    0.2266   -0.9132 C   0  0  0  0  0  0  0  0  0  0  0  0
    5.7987    0.3724   -0.6983 C   0  0  0  0  0  0  0  0  0  0  0  0
    6.7041    0.0489   -1.7158 C   0  0  0  0  0  0  0  0  0  0  0  0
    8.0798    0.1671   -1.5032 C   0  0  0  0  0  0  0  0  0  0  0  0
    8.5734    0.5964   -0.2662 C   0  0  0  0  0  0  0  0  0  0  0  0
   10.0487    0.7567   -0.0493 C   0  0  0  0  0  0  0  0  0  0  0  0
    7.6682    0.9296    0.7474 C   0  0  0  0  0  0  0  0  0  0  0  0
    6.2928    0.8120    0.5359 C   0  0  0  0  0  0  0  0  0  0  0  0
   -0.9686   -0.0816    0.5040 C   0  0  0  0  0  0  0  0  0  0  0  0
   -5.0649   -0.1803   -1.2642 C   0  0  0  0  0  0  0  0  0  0  0  0
   -6.4833   -0.1119   -1.2911 C   0  0  0  0  0  0  0  0  0  0  0  0
   -7.8011   -0.6054   -2.2994 S   0  0  0  0  0  0  0  0  0  0  0  0
   -8.9089    0.1015   -1.1898 C   0  0  0  0  0  0  0  0  0  0  0  0
   -8.3134    0.6934   -0.0962 C   0  0  0  0  0  0  0  0  0  0  0  0
   -6.8995    0.5546   -0.1791 C   0  0  0  0  0  0  0  0  0  0  0  0
   -5.9619    3.6644    2.5583 H   0  0  0  0  0  0  0  0  0  0  0  0
   -5.0462    3.5131    1.0475 H   0  0  0  0  0  0  0  0  0  0  0  0
   -6.8113    3.4321    1.0207 H   0  0  0  0  0  0  0  0  0  0  0  0
   -4.9958    1.3724    2.4169 H   0  0  0  0  0  0  0  0  0  0  0  0
   -6.7489    1.2990    2.3416 H   0  0  0  0  0  0  0  0  0  0  0  0
   -2.6761   -2.0039    1.4179 H   0  0  0  0  0  0  0  0  0  0  0  0
   -3.7817   -1.9698    0.0631 H   0  0  0  0  0  0  0  0  0  0  0  0
   -1.9777   -2.5381   -1.5196 H   0  0  0  0  0  0  0  0  0  0  0  0
   -2.0801   -3.7499   -0.2402 H   0  0  0  0  0  0  0  0  0  0  0  0
    0.2737   -3.0836   -0.7405 H   0  0  0  0  0  0  0  0  0  0  0  0
   -0.1636   -2.7640    0.9311 H   0  0  0  0  0  0  0  0  0  0  0  0
   -0.0782   -0.7117   -1.3447 H   0  0  0  0  0  0  0  0  0  0  0  0
    2.0899   -1.7177   -1.5306 H   0  0  0  0  0  0  0  0  0  0  0  0
    4.3127   -1.9485   -0.9300 H   0  0  0  0  0  0  0  0  0  0  0  0
    3.9887   -1.2392    0.6590 H   0  0  0  0  0  0  0  0  0  0  0  0
    3.7906    1.0477   -0.4068 H   0  0  0  0  0  0  0  0  0  0  0  0
    4.0800    0.3456   -1.9792 H   0  0  0  0  0  0  0  0  0  0  0  0
    6.3464   -0.2926   -2.6843 H   0  0  0  0  0  0  0  0  0  0  0  0
    8.7652   -0.0788   -2.3111 H   0  0  0  0  0  0  0  0  0  0  0  0
   10.3587    1.7708   -0.3196 H   0  0  0  0  0  0  0  0  0  0  0  0
   10.3115    0.5728    0.9977 H   0  0  0  0  0  0  0  0  0  0  0  0
   10.6133    0.0407   -0.6558 H   0  0  0  0  0  0  0  0  0  0  0  0
    8.0278    1.2831    1.7112 H   0  0  0  0  0  0  0  0  0  0  0  0
    5.6067    1.0698    1.3409 H   0  0  0  0  0  0  0  0  0  0  0  0
   -0.7533    0.9713    0.2841 H   0  0  0  0  0  0  0  0  0  0  0  0
   -0.8532   -0.2125    1.5879 H   0  0  0  0  0  0  0  0  0  0  0  0
   -4.4216   -0.6216   -2.0133 H   0  0  0  0  0  0  0  0  0  0  0  0
   -9.9670    0.0465   -1.4066 H   0  0  0  0  0  0  0  0  0  0  0  0
   -8.8555    1.1894    0.6981 H   0  0  0  0  0  0  0  0  0  0  0  0
  1  2  1  0
  2  3  1  0
  3  4  1  0
  4  5  1  0
  5  6  2  0
  5  7  1  0
  7  8  1  0
  8  9  1  0
  9 10  1  0
 10 11  1  0
 11 12  1  0
 12 13  2  0
 12 14  1  0
 14 15  1  0
 15 16  1  0
 16 17  1  0
 17 18  2  0
 18 19  1  0
 19 20  2  0
 20 21  1  0
 20 22  1  0
 22 23  2  0
 11 24  1  0
  4 25  2  0
 25 26  1  0
 26 27  1  0
 27 28  1  0
 28 29  2  0
 29 30  1  0
 30  3  1  0
 24  7  1  0
 30 26  2  0
 23 17  1  0
  1 31  1  0
  1 32  1  0
  1 33  1  0
  2 34  1  0
  2 35  1  0
  8 36  1  0
  8 37  1  0
  9 38  1  0
  9 39  1  0
 10 40  1  0
 10 41  1  0
 11 42  1  0
 14 43  1  0
 15 44  1  0
 15 45  1  0
 16 46  1  0
 16 47  1  0
 18 48  1  0
 19 49  1  0
 21 50  1  0
 21 51  1  0
 21 52  1  0
 22 53  1  0
 23 54  1  0
 24 55  1  0
 24 56  1  0
 25 57  1  0
 28 58  1  0
 29 59  1  0
M  END
$$$$
