
     RDKit          3D

 35 37  0  0  0  0  0  0  0  0999 V2000
   -5.7890   -0.7632   -1.1319 C   0  0  0  0  0  0  0  0  0  0  0  0
   -4.5800   -1.2569   -1.6954 O   0  0  0  0  0  0  0  0  0  0  0  0
   -3.4473   -1.0593   -0.8468 C   0  0  0  0  0  0  0  0  0  0  0  0
   -2.8490    0.3426   -1.0187 C   0  0  0  0  0  0  0  0  0  0  0  0
   -1.7326    0.5881   -0.0945 N   0  0  0  0  0  0  0  0  0  0  0  0
   -1.9509    1.1496    1.1786 C   0  0  0  0  0  0  0  0  0  0  0  0
   -3.4301    1.6106    1.8294 S   0  0  0  0  0  0  0  0  0  0  0  0
   -0.8512    1.3434    1.9788 N   0  0  0  0  0  0  0  0  0  0  0  0
    0.3796    0.9734    1.5393 C   0  0  0  0  0  0  0  0  0  0  0  0
    1.7171    1.2217    2.5210 S   0  0  0  0  0  0  0  0  0  0  0  0
    2.7357    0.5449    1.3266 C   0  0  0  0  0  0  0  0  0  0  0  0
    2.0377    0.1241    0.2023 C   0  0  0  0  0  0  0  0  0  0  0  0
    0.6364    0.3954    0.3341 C   0  0  0  0  0  0  0  0  0  0  0  0
   -0.4708    0.1559   -0.5693 C   0  0  0  0  0  0  0  0  0  0  0  0
   -0.3052   -0.3942   -1.6550 O   0  0  0  0  0  0  0  0  0  0  0  0
    2.7321   -0.4948   -0.9760 C   0  0  0  0  0  0  0  0  0  0  0  0
    4.1627   -0.9386   -0.6290 C   0  0  0  0  0  0  0  0  0  0  0  0
    4.9103    0.1256    0.1871 C   0  0  0  0  0  0  0  0  0  0  0  0
    4.2132    0.4083    1.5269 C   0  0  0  0  0  0  0  0  0  0  0  0
   -6.6027   -0.9758   -1.8306 H   0  0  0  0  0  0  0  0  0  0  0  0
   -6.0048   -1.2679   -0.1854 H   0  0  0  0  0  0  0  0  0  0  0  0
   -5.7394    0.3181   -0.9800 H   0  0  0  0  0  0  0  0  0  0  0  0
   -2.7005   -1.8078   -1.1340 H   0  0  0  0  0  0  0  0  0  0  0  0
   -3.7114   -1.2682    0.1965 H   0  0  0  0  0  0  0  0  0  0  0  0
   -2.5064    0.4572   -2.0551 H   0  0  0  0  0  0  0  0  0  0  0  0
   -3.6165    1.1122   -0.8989 H   0  0  0  0  0  0  0  0  0  0  0  0
   -0.9588    1.7560    2.8979 H   0  0  0  0  0  0  0  0  0  0  0  0
    2.7675    0.2440   -1.7861 H   0  0  0  0  0  0  0  0  0  0  0  0
    2.1695   -1.3605   -1.3421 H   0  0  0  0  0  0  0  0  0  0  0  0
    4.7108   -1.1560   -1.5527 H   0  0  0  0  0  0  0  0  0  0  0  0
    4.1266   -1.8714   -0.0514 H   0  0  0  0  0  0  0  0  0  0  0  0
    4.9685    1.0513   -0.3999 H   0  0  0  0  0  0  0  0  0  0  0  0
    5.9399   -0.2002    0.3735 H   0  0  0  0  0  0  0  0  0  0  0  0
    4.4025   -0.4227    2.2175 H   0  0  0  0  0  0  0  0  0  0  0  0
    4.6366    1.3149    1.9737 H   0  0  0  0  0  0  0  0  0  0  0  0
  1  2  1  0
  2  3  1  0
  3  4  1  0
  4  5  1  0
  5  6  1  0
  6  7  2  0
  6  8  1  0
  8  9  1  0
  9 10  1  0
 10 11  1  0
 11 12  2  0
 12 13  1  0
 13 14  1  0
 14 15  2  0
 12 16  1  0
 16 17  1  0
 17 18  1  0
 18 19  1  0
 14  5  1  0
 13  9  2  0
 19 11  1  0
  1 20  1  0
  1 21  1  0
  1 22  1  0
  3 23  1  0
  3 24  1  0
  4 25  1  0
  4 26  1  0
  8 27  1  0
 16 28  1  0
 16 29  1  0
 17 30  1  0
 17 31  1  0
 18 32  1  0
 18 33  1  0
 19 34  1  0
 19 35  1  0
M  END
$$$$
