
     RDKit          3D

 50 53  0  0  0  0  0  0  0  0999 V2000
   -4.2479   -0.6674    2.1288 C   0  0  0  0  0  0  0  0  0  0  0  0
   -4.2694   -0.6124    0.5982 C   0  0  0  0  0  0  0  0  0  0  0  0
   -5.1990    0.5205    0.1330 C   0  0  0  0  0  0  0  0  0  0  0  0
   -4.8613    1.0228   -1.2713 C   0  0  0  0  0  0  0  0  0  0  0  0
   -5.1564   -0.0281   -2.3460 C   0  0  0  0  0  0  0  0  0  0  0  0
   -3.4066    1.5262   -1.3343 C   0  0  0  0  0  0  0  0  0  0  0  0
   -2.5375    0.8677   -0.3543 N   0  0  0  0  0  0  0  0  0  0  0  0
   -1.1884    1.1894   -0.4828 C   0  0  0  0  0  0  0  0  0  0  0  0
   -0.8493    2.3273   -1.1172 N   0  0  0  0  0  0  0  0  0  0  0  0
    0.4606    2.6440   -1.2029 C   0  0  0  0  0  0  0  0  0  0  0  0
    1.4566    1.8607   -0.6791 C   0  0  0  0  0  0  0  0  0  0  0  0
    1.0446    0.7074   -0.0522 C   0  0  0  0  0  0  0  0  0  0  0  0
   -0.2614    0.3720    0.0541 N   0  0  0  0  0  0  0  0  0  0  0  0
    2.0374   -0.2234    0.5892 C   0  0  0  0  0  0  0  0  0  0  0  0
    3.3984   -0.1418   -0.1182 C   0  0  0  0  0  0  0  0  0  0  0  0
    4.4190   -1.0766    0.5077 C   0  0  0  0  0  0  0  0  0  0  0  0
    4.8374   -0.9287    1.8400 C   0  0  0  0  0  0  0  0  0  0  0  0
    5.7770   -1.8031    2.3931 C   0  0  0  0  0  0  0  0  0  0  0  0
    6.3061   -2.8323    1.6195 C   0  0  0  0  0  0  0  0  0  0  0  0
    7.4622   -3.9083    2.3012 Cl  0  0  0  0  0  0  0  0  0  0  0  0
    5.9037   -2.9949    0.2971 C   0  0  0  0  0  0  0  0  0  0  0  0
    4.9642   -2.1210   -0.2563 C   0  0  0  0  0  0  0  0  0  0  0  0
    3.8954    1.3090   -0.1479 C   0  0  0  0  0  0  0  0  0  0  0  0
    2.8764    2.2291   -0.7834 C   0  0  0  0  0  0  0  0  0  0  0  0
    3.1974    3.2791   -1.3310 O   0  0  0  0  0  0  0  0  0  0  0  0
   -2.8423   -0.5059    0.0223 C   0  0  0  0  0  0  0  0  0  0  0  0
   -5.2632   -0.7599    2.5286 H   0  0  0  0  0  0  0  0  0  0  0  0
   -3.6726   -1.5311    2.4788 H   0  0  0  0  0  0  0  0  0  0  0  0
   -3.7947    0.2353    2.5524 H   0  0  0  0  0  0  0  0  0  0  0  0
   -4.6877   -1.5682    0.2548 H   0  0  0  0  0  0  0  0  0  0  0  0
   -5.1258    1.3701    0.8257 H   0  0  0  0  0  0  0  0  0  0  0  0
   -6.2418    0.1825    0.1792 H   0  0  0  0  0  0  0  0  0  0  0  0
   -5.5173    1.8751   -1.4942 H   0  0  0  0  0  0  0  0  0  0  0  0
   -4.5223   -0.9136   -2.2556 H   0  0  0  0  0  0  0  0  0  0  0  0
   -6.2001   -0.3551   -2.2874 H   0  0  0  0  0  0  0  0  0  0  0  0
   -4.9980    0.3922   -3.3451 H   0  0  0  0  0  0  0  0  0  0  0  0
   -3.4225    2.6024   -1.1147 H   0  0  0  0  0  0  0  0  0  0  0  0
   -3.0176    1.4069   -2.3544 H   0  0  0  0  0  0  0  0  0  0  0  0
    0.6777    3.5754   -1.7188 H   0  0  0  0  0  0  0  0  0  0  0  0
    1.6561   -1.2515    0.5469 H   0  0  0  0  0  0  0  0  0  0  0  0
    2.1210    0.0485    1.6486 H   0  0  0  0  0  0  0  0  0  0  0  0
    3.2439   -0.4534   -1.1625 H   0  0  0  0  0  0  0  0  0  0  0  0
    4.4395   -0.1327    2.4658 H   0  0  0  0  0  0  0  0  0  0  0  0
    6.0907   -1.6750    3.4258 H   0  0  0  0  0  0  0  0  0  0  0  0
    6.3158   -3.7978   -0.3086 H   0  0  0  0  0  0  0  0  0  0  0  0
    4.6637   -2.2662   -1.2923 H   0  0  0  0  0  0  0  0  0  0  0  0
    4.1079    1.6927    0.8567 H   0  0  0  0  0  0  0  0  0  0  0  0
    4.8199    1.3675   -0.7351 H   0  0  0  0  0  0  0  0  0  0  0  0
   -2.1396   -0.9058    0.7639 H   0  0  0  0  0  0  0  0  0  0  0  0
   -2.7496   -1.1497   -0.8616 H   0  0  0  0  0  0  0  0  0  0  0  0
  1  2  1  0
  2  3  1  0
  3  4  1  0
  4  5  1  0
  4  6  1  0
  6  7  1  0
  7  8  1  0
  8  9  2  0
  9 10  1  0
 10 11  2  0
 11 12  1  0
 12 13  2  0
 12 14  1  0
 14 15  1  0
 15 16  1  0
 16 17  2  0
 17 18  1  0
 18 19  2  0
 19 20  1  0
 19 21  1  0
 21 22  2  0
 15 23  1  0
 23 24  1  0
 24 25  2  0
  7 26  1  0
 26  2  1  0
 13  8  1  0
 22 16  1  0
 24 11  1  0
  1 27  1  0
  1 28  1  0
  1 29  1  0
  2 30  1  0
  3 31  1  0
  3 32  1  0
  4 33  1  0
  5 34  1  0
  5 35  1  0
  5 36  1  0
  6 37  1  0
  6 38  1  0
 10 39  1  0
 14 40  1  0
 14 41  1  0
 15 42  1  0
 17 43  1  0
 18 44  1  0
 21 45  1  0
 22 46  1  0
 23 47  1  0
 23 48  1  0
 26 49  1  0
 26 50  1  0
M  END
$$$$
