
     RDKit          3D

 42 44  0  0  0  0  0  0  0  0999 V2000
   -7.0843   -0.4189    1.0339 C   0  0  0  0  0  0  0  0  0  0  0  0
   -6.1445    0.2534    0.1383 N   0  0  0  0  0  0  0  0  0  0  0  0
   -6.4638    1.6448   -0.1782 C   0  0  0  0  0  0  0  0  0  0  0  0
   -4.8021   -0.1457    0.1401 C   0  0  0  0  0  0  0  0  0  0  0  0
   -3.7989    0.6027   -0.4992 C   0  0  0  0  0  0  0  0  0  0  0  0
   -2.4522    0.2024   -0.5144 C   0  0  0  0  0  0  0  0  0  0  0  0
   -2.0512   -0.9750    0.1152 C   0  0  0  0  0  0  0  0  0  0  0  0
   -0.6629   -1.4564    0.1047 C   0  0  0  0  0  0  0  0  0  0  0  0
    0.4157   -0.6566    0.1235 C   0  0  0  0  0  0  0  0  0  0  0  0
    1.7768   -1.2586    0.1120 C   0  0  0  0  0  0  0  0  0  0  0  0
    1.9298   -2.4714   -0.0569 O   0  0  0  0  0  0  0  0  0  0  0  0
    2.9679   -0.3628    0.2203 C   0  0  0  0  0  0  0  0  0  0  0  0
    4.1161   -0.7947   -0.3422 C   0  0  0  0  0  0  0  0  0  0  0  0
    4.2715   -2.0113   -0.9862 O   0  0  0  0  0  0  0  0  0  0  0  0
    5.3188    0.0389   -0.3238 C   0  0  0  0  0  0  0  0  0  0  0  0
    6.5330   -0.3480   -0.9039 C   0  0  0  0  0  0  0  0  0  0  0  0
    7.6449    0.5004   -0.8622 C   0  0  0  0  0  0  0  0  0  0  0  0
    7.5546    1.7456   -0.2403 C   0  0  0  0  0  0  0  0  0  0  0  0
    6.3534    2.1429    0.3411 C   0  0  0  0  0  0  0  0  0  0  0  0
    5.2561    1.2836    0.2903 C   0  0  0  0  0  0  0  0  0  0  0  0
    4.0716    1.7241    0.8987 O   0  0  0  0  0  0  0  0  0  0  0  0
    2.9325    0.9310    0.9376 C   0  0  0  0  0  0  0  0  0  0  0  0
    1.9452    1.3101    1.5584 O   0  0  0  0  0  0  0  0  0  0  0  0
   -3.0327   -1.7538    0.7269 C   0  0  0  0  0  0  0  0  0  0  0  0
   -4.3762   -1.3444    0.7364 C   0  0  0  0  0  0  0  0  0  0  0  0
   -8.0963   -0.0128    0.9240 H   0  0  0  0  0  0  0  0  0  0  0  0
   -7.1638   -1.4855    0.7981 H   0  0  0  0  0  0  0  0  0  0  0  0
   -6.7893   -0.2931    2.0816 H   0  0  0  0  0  0  0  0  0  0  0  0
   -7.5421    1.8299   -0.1141 H   0  0  0  0  0  0  0  0  0  0  0  0
   -6.1788    1.8932   -1.2061 H   0  0  0  0  0  0  0  0  0  0  0  0
   -5.9696    2.3313    0.5182 H   0  0  0  0  0  0  0  0  0  0  0  0
   -4.0375    1.5251   -1.0197 H   0  0  0  0  0  0  0  0  0  0  0  0
   -1.7368    0.8268   -1.0426 H   0  0  0  0  0  0  0  0  0  0  0  0
   -0.5433   -2.5390    0.1035 H   0  0  0  0  0  0  0  0  0  0  0  0
    0.3163    0.4205    0.1421 H   0  0  0  0  0  0  0  0  0  0  0  0
    3.4751   -2.5650   -0.8177 H   0  0  0  0  0  0  0  0  0  0  0  0
    6.6251   -1.3143   -1.3962 H   0  0  0  0  0  0  0  0  0  0  0  0
    8.5814    0.1860   -1.3171 H   0  0  0  0  0  0  0  0  0  0  0  0
    8.4200    2.4028   -0.2087 H   0  0  0  0  0  0  0  0  0  0  0  0
    6.2736    3.1093    0.8305 H   0  0  0  0  0  0  0  0  0  0  0  0
   -2.7715   -2.6918    1.2121 H   0  0  0  0  0  0  0  0  0  0  0  0
   -5.0816   -2.0054    1.2302 H   0  0  0  0  0  0  0  0  0  0  0  0
  1  2  1  0
  2  3  1  0
  2  4  1  0
  4  5  2  0
  5  6  1  0
  6  7  2  0
  7  8  1  0
  8  9  2  3
  9 10  1  0
 10 11  2  0
 10 12  1  0
 12 13  2  0
 13 14  1  0
 13 15  1  0
 15 16  2  0
 16 17  1  0
 17 18  2  0
 18 19  1  0
 19 20  2  0
 20 21  1  0
 21 22  1  0
 22 23  2  0
  7 24  1  0
 24 25  2  0
 25  4  1  0
 22 12  1  0
 20 15  1  0
  1 26  1  0
  1 27  1  0
  1 28  1  0
  3 29  1  0
  3 30  1  0
  3 31  1  0
  5 32  1  0
  6 33  1  0
  8 34  1  0
  9 35  1  0
 14 36  1  0
 16 37  1  0
 17 38  1  0
 18 39  1  0
 19 40  1  0
 24 41  1  0
 25 42  1  0
M  END
$$$$
