
     RDKit          3D

 61 63  0  0  0  0  0  0  0  0999 V2000
    1.4315   -0.6145   -2.6925 C   0  0  0  0  0  0  0  0  0  0  0  0
    1.8163   -1.3356   -1.4131 C   0  0  0  0  0  0  0  0  0  0  0  0
    1.4746   -0.5460   -0.2629 O   0  0  0  0  0  0  0  0  0  0  0  0
    0.1752   -0.6409    0.1618 C   0  0  0  0  0  0  0  0  0  0  0  0
   -0.6641   -1.3268   -0.4087 O   0  0  0  0  0  0  0  0  0  0  0  0
   -0.1022    0.1608    1.3610 C   0  0  0  0  0  0  0  0  0  0  0  0
   -1.4118    0.3090    1.9661 C   0  0  0  0  0  0  0  0  0  0  0  0
   -2.6749   -0.2711    1.5384 C   0  0  0  0  0  0  0  0  0  0  0  0
   -3.1132   -1.4761    2.0934 C   0  0  0  0  0  0  0  0  0  0  0  0
   -4.3322   -2.0305    1.6903 C   0  0  0  0  0  0  0  0  0  0  0  0
   -5.1346   -1.3954    0.7272 C   0  0  0  0  0  0  0  0  0  0  0  0
   -6.4153   -1.9844    0.3011 C   0  0  0  0  0  0  0  0  0  0  0  0
   -7.3983   -2.3387    1.2406 C   0  0  0  0  0  0  0  0  0  0  0  0
   -8.6127   -2.8993    0.8361 C   0  0  0  0  0  0  0  0  0  0  0  0
   -8.8653   -3.1165   -0.5161 C   0  0  0  0  0  0  0  0  0  0  0  0
   -7.9042   -2.7750   -1.4639 C   0  0  0  0  0  0  0  0  0  0  0  0
   -6.6903   -2.2140   -1.0576 C   0  0  0  0  0  0  0  0  0  0  0  0
   -4.6768   -0.1845    0.1803 C   0  0  0  0  0  0  0  0  0  0  0  0
   -3.4587    0.3757    0.5807 C   0  0  0  0  0  0  0  0  0  0  0  0
   -1.3861    1.1132    3.0863 C   0  0  0  0  0  0  0  0  0  0  0  0
    0.1801    1.6669    3.4357 S   0  0  0  0  0  0  0  0  0  0  0  0
    0.8505    0.8617    2.0965 C   0  0  0  0  0  0  0  0  0  0  0  0
    2.2097    0.9458    1.8441 N   0  0  0  0  0  0  0  0  0  0  0  0
    3.1897    1.5845    2.5853 C   0  0  0  0  0  0  0  0  0  0  0  0
    3.0578    2.2151    3.6301 O   0  0  0  0  0  0  0  0  0  0  0  0
    4.5865    1.3506    1.9912 C   0  0  0  0  0  0  0  0  0  0  0  0
    4.5529    1.2285    0.5137 N   0  0  0  0  0  0  0  0  0  0  0  0
    4.4133    2.5573   -0.1117 C   0  0  0  0  0  0  0  0  0  0  0  0
    4.3684    2.5157   -1.6609 C   0  0  0  0  0  0  0  0  0  0  0  0
    5.5193    1.9916   -2.4114 N   0  0  0  0  0  0  0  0  0  0  0  0
    5.5119    0.5463   -2.5845 C   0  0  0  0  0  0  0  0  0  0  0  0
    6.8082    2.4903   -1.9540 C   0  0  0  0  0  0  0  0  0  0  0  0
    1.8830    0.3823   -2.7227 H   0  0  0  0  0  0  0  0  0  0  0  0
    0.3480   -0.4729   -2.7592 H   0  0  0  0  0  0  0  0  0  0  0  0
    1.7637   -1.1787   -3.5692 H   0  0  0  0  0  0  0  0  0  0  0  0
    1.3612   -2.3318   -1.3547 H   0  0  0  0  0  0  0  0  0  0  0  0
    2.9025   -1.4776   -1.3873 H   0  0  0  0  0  0  0  0  0  0  0  0
   -2.5101   -1.9950    2.8338 H   0  0  0  0  0  0  0  0  0  0  0  0
   -4.6462   -2.9780    2.1242 H   0  0  0  0  0  0  0  0  0  0  0  0
   -7.2251   -2.1690    2.3015 H   0  0  0  0  0  0  0  0  0  0  0  0
   -9.3596   -3.1675    1.5797 H   0  0  0  0  0  0  0  0  0  0  0  0
   -9.8095   -3.5544   -0.8296 H   0  0  0  0  0  0  0  0  0  0  0  0
   -8.0943   -2.9486   -2.5192 H   0  0  0  0  0  0  0  0  0  0  0  0
   -5.9470   -1.9671   -1.8136 H   0  0  0  0  0  0  0  0  0  0  0  0
   -5.2755    0.3389   -0.5624 H   0  0  0  0  0  0  0  0  0  0  0  0
   -3.1309    1.3133    0.1394 H   0  0  0  0  0  0  0  0  0  0  0  0
   -2.2150    1.3959    3.7226 H   0  0  0  0  0  0  0  0  0  0  0  0
    2.5514    0.5036    0.9896 H   0  0  0  0  0  0  0  0  0  0  0  0
    5.2664    2.1482    2.3111 H   0  0  0  0  0  0  0  0  0  0  0  0
    4.9514    0.4046    2.4087 H   0  0  0  0  0  0  0  0  0  0  0  0
    5.4571    0.8559    0.2196 H   0  0  0  0  0  0  0  0  0  0  0  0
    3.4821    3.0279    0.2264 H   0  0  0  0  0  0  0  0  0  0  0  0
    5.2348    3.2109    0.2088 H   0  0  0  0  0  0  0  0  0  0  0  0
    3.4559    1.9934   -1.9732 H   0  0  0  0  0  0  0  0  0  0  0  0
    4.2202    3.5511   -1.9959 H   0  0  0  0  0  0  0  0  0  0  0  0
    5.6987   -0.0044   -1.6590 H   0  0  0  0  0  0  0  0  0  0  0  0
    4.5573    0.2080   -3.0028 H   0  0  0  0  0  0  0  0  0  0  0  0
    6.2837    0.2510   -3.3053 H   0  0  0  0  0  0  0  0  0  0  0  0
    7.0879    2.0946   -0.9722 H   0  0  0  0  0  0  0  0  0  0  0  0
    6.8050    3.5860   -1.9007 H   0  0  0  0  0  0  0  0  0  0  0  0
    7.5978    2.2159   -2.6634 H   0  0  0  0  0  0  0  0  0  0  0  0
  1  2  1  0
  2  3  1  0
  3  4  1  0
  4  5  2  0
  4  6  1  0
  6  7  1  0
  7  8  1  0
  8  9  2  0
  9 10  1  0
 10 11  2  0
 11 12  1  0
 12 13  2  0
 13 14  1  0
 14 15  2  0
 15 16  1  0
 16 17  2  0
 11 18  1  0
 18 19  2  0
  7 20  2  0
 20 21  1  0
 21 22  1  0
 22 23  1  0
 23 24  1  0
 24 25  2  0
 24 26  1  0
 26 27  1  0
 27 28  1  0
 28 29  1  0
 29 30  1  0
 30 31  1  0
 30 32  1  0
 22  6  2  0
 19  8  1  0
 17 12  1  0
  1 33  1  0
  1 34  1  0
  1 35  1  0
  2 36  1  0
  2 37  1  0
  9 38  1  0
 10 39  1  0
 13 40  1  0
 14 41  1  0
 15 42  1  0
 16 43  1  0
 17 44  1  0
 18 45  1  0
 19 46  1  0
 20 47  1  0
 23 48  1  0
 26 49  1  0
 26 50  1  0
 27 51  1  0
 28 52  1  0
 28 53  1  0
 29 54  1  0
 29 55  1  0
 31 56  1  0
 31 57  1  0
 31 58  1  0
 32 59  1  0
 32 60  1  0
 32 61  1  0
M  END
$$$$
