
     RDKit          3D

 66 68  0  0  0  0  0  0  0  0999 V2000
   -3.9090   -2.5839    2.5327 C   0  0  0  0  0  0  0  0  0  0  0  0
   -3.3996   -2.2178    1.1431 C   0  0  0  0  0  0  0  0  0  0  0  0
   -2.0499   -2.6936    0.7952 N   0  0  0  0  0  0  0  0  0  0  0  0
   -2.0075   -4.1597    0.6717 C   0  0  0  0  0  0  0  0  0  0  0  0
   -0.8410   -4.6368   -0.1895 C   0  0  0  0  0  0  0  0  0  0  0  0
   -0.9859   -2.1839    1.6786 C   0  0  0  0  0  0  0  0  0  0  0  0
   -0.8371   -0.6510    1.7132 C   0  0  0  0  0  0  0  0  0  0  0  0
   -0.5205   -0.0210    0.3305 C   0  0  0  0  0  0  0  0  0  0  0  0
    0.8206   -0.4173   -0.2866 C   0  0  0  0  0  0  0  0  0  0  0  0
    0.9052   -0.6170   -1.6679 C   0  0  0  0  0  0  0  0  0  0  0  0
    2.1170   -0.9731   -2.2800 C   0  0  0  0  0  0  0  0  0  0  0  0
    3.3027   -1.1521   -1.5503 C   0  0  0  0  0  0  0  0  0  0  0  0
    4.5120   -1.4899   -2.1733 N   0  0  0  0  0  0  0  0  0  0  0  0
    4.4552   -2.1820   -3.4602 C   0  0  0  0  0  0  0  0  0  0  0  0
    5.6782   -1.7903   -1.3468 C   0  0  0  0  0  0  0  0  0  0  0  0
    3.2021   -0.9245   -0.1685 C   0  0  0  0  0  0  0  0  0  0  0  0
    1.9926   -0.5720    0.4536 C   0  0  0  0  0  0  0  0  0  0  0  0
   -0.7321    1.5003    0.3156 C   0  0  0  0  0  0  0  0  0  0  0  0
   -1.6013    2.0894   -0.6225 C   0  0  0  0  0  0  0  0  0  0  0  0
   -2.2842    1.2597   -1.4792 O   0  0  0  0  0  0  0  0  0  0  0  0
   -2.2970    1.7017   -2.8354 C   0  0  0  0  0  0  0  0  0  0  0  0
   -1.8257    3.4754   -0.6344 C   0  0  0  0  0  0  0  0  0  0  0  0
   -1.1530    4.3197    0.2533 C   0  0  0  0  0  0  0  0  0  0  0  0
   -1.3139    5.6818    0.3015 O   0  0  0  0  0  0  0  0  0  0  0  0
   -2.1802    6.2804   -0.6571 C   0  0  0  0  0  0  0  0  0  0  0  0
   -0.2536    3.7631    1.1757 C   0  0  0  0  0  0  0  0  0  0  0  0
    0.4977    4.5835    2.1264 C   0  0  0  0  0  0  0  0  0  0  0  0
    1.3516    4.0230    2.9870 C   0  0  0  0  0  0  0  0  0  0  0  0
    1.5717    2.5729    3.0295 C   0  0  0  0  0  0  0  0  0  0  0  0
    2.3571    2.0735    3.8261 O   0  0  0  0  0  0  0  0  0  0  0  0
    0.8395    1.8139    2.1315 O   0  0  0  0  0  0  0  0  0  0  0  0
   -0.0630    2.3733    1.1943 C   0  0  0  0  0  0  0  0  0  0  0  0
   -3.9316   -3.6666    2.6838 H   0  0  0  0  0  0  0  0  0  0  0  0
   -4.9314   -2.2128    2.6614 H   0  0  0  0  0  0  0  0  0  0  0  0
   -3.2979   -2.1353    3.3212 H   0  0  0  0  0  0  0  0  0  0  0  0
   -3.4498   -1.1305    1.0221 H   0  0  0  0  0  0  0  0  0  0  0  0
   -4.1109   -2.6011    0.4007 H   0  0  0  0  0  0  0  0  0  0  0  0
   -1.9679   -4.6458    1.6538 H   0  0  0  0  0  0  0  0  0  0  0  0
   -2.9210   -4.5141    0.1784 H   0  0  0  0  0  0  0  0  0  0  0  0
    0.1245   -4.4760    0.2979 H   0  0  0  0  0  0  0  0  0  0  0  0
   -0.9348   -5.7112   -0.3810 H   0  0  0  0  0  0  0  0  0  0  0  0
   -0.8307   -4.1248   -1.1576 H   0  0  0  0  0  0  0  0  0  0  0  0
   -0.0171   -2.5900    1.3692 H   0  0  0  0  0  0  0  0  0  0  0  0
   -1.1382   -2.5417    2.7042 H   0  0  0  0  0  0  0  0  0  0  0  0
   -0.0569   -0.4203    2.4462 H   0  0  0  0  0  0  0  0  0  0  0  0
   -1.7529   -0.2065    2.1232 H   0  0  0  0  0  0  0  0  0  0  0  0
   -1.2764   -0.4562   -0.3339 H   0  0  0  0  0  0  0  0  0  0  0  0
    0.0202   -0.4992   -2.2884 H   0  0  0  0  0  0  0  0  0  0  0  0
    2.1030   -1.0940   -3.3580 H   0  0  0  0  0  0  0  0  0  0  0  0
    4.0482   -1.5307   -4.2407 H   0  0  0  0  0  0  0  0  0  0  0  0
    5.4544   -2.4728   -3.8040 H   0  0  0  0  0  0  0  0  0  0  0  0
    3.8555   -3.0960   -3.3900 H   0  0  0  0  0  0  0  0  0  0  0  0
    6.5626   -1.9785   -1.9661 H   0  0  0  0  0  0  0  0  0  0  0  0
    5.5084   -2.6813   -0.7321 H   0  0  0  0  0  0  0  0  0  0  0  0
    5.9369   -0.9408   -0.7056 H   0  0  0  0  0  0  0  0  0  0  0  0
    4.0681   -1.0185    0.4784 H   0  0  0  0  0  0  0  0  0  0  0  0
    1.9996   -0.4188    1.5286 H   0  0  0  0  0  0  0  0  0  0  0  0
   -1.3315    2.1229   -3.1413 H   0  0  0  0  0  0  0  0  0  0  0  0
   -3.1046    2.4244   -2.9951 H   0  0  0  0  0  0  0  0  0  0  0  0
   -2.4970    0.8305   -3.4670 H   0  0  0  0  0  0  0  0  0  0  0  0
   -2.5502    3.8751   -1.3327 H   0  0  0  0  0  0  0  0  0  0  0  0
   -2.1683    7.3614   -0.4889 H   0  0  0  0  0  0  0  0  0  0  0  0
   -1.8257    6.0989   -1.6783 H   0  0  0  0  0  0  0  0  0  0  0  0
   -3.2124    5.9362   -0.5256 H   0  0  0  0  0  0  0  0  0  0  0  0
    0.3536    5.6588    2.1134 H   0  0  0  0  0  0  0  0  0  0  0  0
    1.9237    4.6097    3.6957 H   0  0  0  0  0  0  0  0  0  0  0  0
  1  2  1  0
  2  3  1  0
  3  4  1  0
  4  5  1  0
  3  6  1  0
  6  7  1  0
  7  8  1  0
  8  9  1  0
  9 10  2  0
 10 11  1  0
 11 12  2  0
 12 13  1  0
 13 14  1  0
 13 15  1  0
 12 16  1  0
 16 17  2  0
  8 18  1  0
 18 19  2  0
 19 20  1  0
 20 21  1  0
 19 22  1  0
 22 23  2  0
 23 24  1  0
 24 25  1  0
 23 26  1  0
 26 27  1  0
 27 28  2  0
 28 29  1  0
 29 30  2  0
 29 31  1  0
 31 32  1  0
 17  9  1  0
 32 18  1  0
 32 26  2  0
  1 33  1  0
  1 34  1  0
  1 35  1  0
  2 36  1  0
  2 37  1  0
  4 38  1  0
  4 39  1  0
  5 40  1  0
  5 41  1  0
  5 42  1  0
  6 43  1  0
  6 44  1  0
  7 45  1  0
  7 46  1  0
  8 47  1  0
 10 48  1  0
 11 49  1  0
 14 50  1  0
 14 51  1  0
 14 52  1  0
 15 53  1  0
 15 54  1  0
 15 55  1  0
 16 56  1  0
 17 57  1  0
 21 58  1  0
 21 59  1  0
 21 60  1  0
 22 61  1  0
 25 62  1  0
 25 63  1  0
 25 64  1  0
 27 65  1  0
 28 66  1  0
M  END
$$$$
