
     RDKit          3D

 43 45  0  0  0  0  0  0  0  0999 V2000
   -7.3661   -0.1716   -1.1643 C   0  0  0  0  0  0  0  0  0  0  0  0
   -6.9096    0.1369    0.0569 C   0  0  0  0  0  0  0  0  0  0  0  0
   -6.1328   -0.8037    0.9366 C   0  0  0  0  0  0  0  0  0  0  0  0
   -4.7379   -0.3940    0.9485 N   0  0  0  0  0  0  0  0  0  0  0  0
   -4.3526    0.5690    1.8687 C   0  0  0  0  0  0  0  0  0  0  0  0
   -5.1114    1.0876    2.6851 O   0  0  0  0  0  0  0  0  0  0  0  0
   -3.0445    0.9438    1.8437 N   0  0  0  0  0  0  0  0  0  0  0  0
   -2.1111    0.4287    0.9638 C   0  0  0  0  0  0  0  0  0  0  0  0
   -0.8517    0.9026    1.0504 N   0  0  0  0  0  0  0  0  0  0  0  0
    0.0459    0.3865    0.1820 C   0  0  0  0  0  0  0  0  0  0  0  0
    1.3601    0.8276    0.2132 C   0  0  0  0  0  0  0  0  0  0  0  0
    2.3286    0.3157   -0.6560 C   0  0  0  0  0  0  0  0  0  0  0  0
    3.6390    0.8103   -0.5910 N   0  0  0  0  0  0  0  0  0  0  0  0
    4.4315    0.2175    0.2411 C   0  0  0  0  0  0  0  0  0  0  0  0
    5.7533    0.5296    0.4644 N   0  0  0  0  0  0  0  0  0  0  0  0
    6.3008    1.7540   -0.1048 C   0  0  0  0  0  0  0  0  0  0  0  0
    6.4386    0.0071    1.6352 C   0  0  0  0  0  0  0  0  0  0  0  0
    1.9615   -0.6449   -1.6068 C   0  0  0  0  0  0  0  0  0  0  0  0
    2.9683   -1.1976   -2.5754 C   0  0  0  0  0  0  0  0  0  0  0  0
    0.6347   -1.0989   -1.6366 C   0  0  0  0  0  0  0  0  0  0  0  0
   -0.3245   -0.6041   -0.7640 C   0  0  0  0  0  0  0  0  0  0  0  0
   -1.5838   -1.0718   -0.8340 N   0  0  0  0  0  0  0  0  0  0  0  0
   -2.4683   -0.5354    0.0438 C   0  0  0  0  0  0  0  0  0  0  0  0
   -3.8725   -1.0006    0.0303 C   0  0  0  0  0  0  0  0  0  0  0  0
   -4.2198   -1.8832   -0.7520 O   0  0  0  0  0  0  0  0  0  0  0  0
   -7.9300    0.5492   -1.7481 H   0  0  0  0  0  0  0  0  0  0  0  0
   -7.1744   -1.1426   -1.6138 H   0  0  0  0  0  0  0  0  0  0  0  0
   -7.1214    1.1218    0.4688 H   0  0  0  0  0  0  0  0  0  0  0  0
   -6.2237   -1.8377    0.5852 H   0  0  0  0  0  0  0  0  0  0  0  0
   -6.5466   -0.7730    1.9510 H   0  0  0  0  0  0  0  0  0  0  0  0
   -2.7379    1.6494    2.4987 H   0  0  0  0  0  0  0  0  0  0  0  0
    1.6452    1.5941    0.9293 H   0  0  0  0  0  0  0  0  0  0  0  0
    4.0861   -0.6307    0.8634 H   0  0  0  0  0  0  0  0  0  0  0  0
    6.0342    1.8497   -1.1628 H   0  0  0  0  0  0  0  0  0  0  0  0
    7.3945    1.7613   -0.0478 H   0  0  0  0  0  0  0  0  0  0  0  0
    5.9217    2.6281    0.4348 H   0  0  0  0  0  0  0  0  0  0  0  0
    6.1605    0.5796    2.5260 H   0  0  0  0  0  0  0  0  0  0  0  0
    6.1816   -1.0443    1.8027 H   0  0  0  0  0  0  0  0  0  0  0  0
    7.5255    0.0596    1.5124 H   0  0  0  0  0  0  0  0  0  0  0  0
    2.4920   -1.8384   -3.3251 H   0  0  0  0  0  0  0  0  0  0  0  0
    3.4700   -0.3860   -3.1123 H   0  0  0  0  0  0  0  0  0  0  0  0
    3.7135   -1.7985   -2.0446 H   0  0  0  0  0  0  0  0  0  0  0  0
    0.3332   -1.8530   -2.3615 H   0  0  0  0  0  0  0  0  0  0  0  0
  1  2  2  0
  2  3  1  0
  3  4  1  0
  4  5  1  0
  5  6  2  0
  5  7  1  0
  7  8  1  0
  8  9  2  0
  9 10  1  0
 10 11  2  0
 11 12  1  0
 12 13  1  0
 13 14  2  3
 14 15  1  0
 15 16  1  0
 15 17  1  0
 12 18  2  0
 18 19  1  0
 18 20  1  0
 20 21  2  0
 21 22  1  0
 22 23  2  0
 23 24  1  0
 24 25  2  0
 24  4  1  0
 23  8  1  0
 21 10  1  0
  1 26  1  0
  1 27  1  0
  2 28  1  0
  3 29  1  0
  3 30  1  0
  7 31  1  0
 11 32  1  0
 14 33  1  0
 16 34  1  0
 16 35  1  0
 16 36  1  0
 17 37  1  0
 17 38  1  0
 17 39  1  0
 19 40  1  0
 19 41  1  0
 19 42  1  0
 20 43  1  0
M  END
$$$$
