
     RDKit          3D

 32 34  0  0  0  0  0  0  0  0999 V2000
    6.5853   -0.6706   -1.1358 C   0  0  0  0  0  0  0  0  0  0  0  0
    5.3890   -0.1853   -1.7331 O   0  0  0  0  0  0  0  0  0  0  0  0
    4.2421   -0.2735   -0.9899 C   0  0  0  0  0  0  0  0  0  0  0  0
    4.1444   -0.7992    0.2962 C   0  0  0  0  0  0  0  0  0  0  0  0
    2.9096   -0.8364    0.9595 C   0  0  0  0  0  0  0  0  0  0  0  0
    1.7543   -0.3396    0.3263 C   0  0  0  0  0  0  0  0  0  0  0  0
    0.4792   -0.3158    0.8614 N   0  0  0  0  0  0  0  0  0  0  0  0
   -0.3438    0.2182    0.0014 C   0  0  0  0  0  0  0  0  0  0  0  0
   -1.6882    0.4359    0.1034 N   0  0  0  0  0  0  0  0  0  0  0  0
   -2.3963    0.1699    1.2505 C   0  0  0  0  0  0  0  0  0  0  0  0
   -1.9313   -0.2073    2.3186 O   0  0  0  0  0  0  0  0  0  0  0  0
   -3.8289    0.4403    1.1351 C   0  0  0  0  0  0  0  0  0  0  0  0
   -4.6983    0.8027    2.2102 C   0  0  0  0  0  0  0  0  0  0  0  0
   -5.9509    0.9632    1.6743 C   0  0  0  0  0  0  0  0  0  0  0  0
   -5.9288    0.7018    0.3455 O   0  0  0  0  0  0  0  0  0  0  0  0
   -4.6496    0.3592    0.0178 C   0  0  0  0  0  0  0  0  0  0  0  0
   -4.4557   -0.0375   -1.3947 C   0  0  0  0  0  0  0  0  0  0  0  0
    0.3181    0.7134   -1.4900 S   0  0  0  0  0  0  0  0  0  0  0  0
    1.8714    0.1837   -0.9629 C   0  0  0  0  0  0  0  0  0  0  0  0
    3.1032    0.2250   -1.6355 C   0  0  0  0  0  0  0  0  0  0  0  0
    6.5139   -1.7426   -0.9244 H   0  0  0  0  0  0  0  0  0  0  0  0
    6.8332   -0.1039   -0.2322 H   0  0  0  0  0  0  0  0  0  0  0  0
    7.3991   -0.5263   -1.8529 H   0  0  0  0  0  0  0  0  0  0  0  0
    5.0083   -1.1927    0.8222 H   0  0  0  0  0  0  0  0  0  0  0  0
    2.8313   -1.2457    1.9624 H   0  0  0  0  0  0  0  0  0  0  0  0
   -2.1305    0.8819   -0.6820 H   0  0  0  0  0  0  0  0  0  0  0  0
   -4.4221    0.9343    3.2481 H   0  0  0  0  0  0  0  0  0  0  0  0
   -6.9134    1.2366    2.0841 H   0  0  0  0  0  0  0  0  0  0  0  0
   -3.7459   -0.8664   -1.4744 H   0  0  0  0  0  0  0  0  0  0  0  0
   -4.0765    0.8062   -1.9789 H   0  0  0  0  0  0  0  0  0  0  0  0
   -5.3986   -0.3651   -1.8445 H   0  0  0  0  0  0  0  0  0  0  0  0
    3.1765    0.6355   -2.6382 H   0  0  0  0  0  0  0  0  0  0  0  0
  1  2  1  0
  2  3  1  0
  3  4  2  0
  4  5  1  0
  5  6  2  0
  6  7  1  0
  7  8  2  0
  8  9  1  0
  9 10  1  0
 10 11  2  0
 10 12  1  0
 12 13  1  0
 13 14  2  0
 14 15  1  0
 15 16  1  0
 16 17  1  0
  8 18  1  0
 18 19  1  0
 19 20  2  0
 20  3  1  0
 19  6  1  0
 16 12  2  0
  1 21  1  0
  1 22  1  0
  1 23  1  0
  4 24  1  0
  5 25  1  0
  9 26  1  0
 13 27  1  0
 14 28  1  0
 17 29  1  0
 17 30  1  0
 17 31  1  0
 20 32  1  0
M  END
$$$$
