
     RDKit          3D

 57 59  0  0  0  0  0  0  0  0999 V2000
   -5.7117   -1.1445   -1.4130 C   0  0  0  0  0  0  0  0  0  0  0  0
   -4.9148   -1.5710   -0.1915 C   0  0  0  0  0  0  0  0  0  0  0  0
   -3.7550   -0.7014    0.0407 N   0  0  0  0  0  0  0  0  0  0  0  0
   -2.4747   -0.9824   -0.4439 C   0  0  0  0  0  0  0  0  0  0  0  0
   -1.5403   -0.1911   -0.2951 O   0  0  0  0  0  0  0  0  0  0  0  0
   -2.2603   -2.3034   -1.1999 C   0  0  0  0  0  0  0  0  0  0  0  0
   -0.8866   -2.4597   -1.5666 O   0  0  0  0  0  0  0  0  0  0  0  0
   -0.0985   -2.8973   -0.5573 C   0  0  0  0  0  0  0  0  0  0  0  0
   -0.4637   -3.2823    0.5412 O   0  0  0  0  0  0  0  0  0  0  0  0
    1.3157   -2.6900   -0.9157 C   0  0  0  0  0  0  0  0  0  0  0  0
    2.1038   -2.0030    0.0204 C   0  0  0  0  0  0  0  0  0  0  0  0
    3.4482   -1.7212   -0.2619 C   0  0  0  0  0  0  0  0  0  0  0  0
    4.4026   -0.8682    0.9642 S   0  0  0  0  0  6  0  0  0  0  0  0
    3.5348   -0.5660    2.0836 O   0  0  0  0  0  0  0  0  0  0  0  0
    5.6202   -1.6195    1.1704 O   0  0  0  0  0  0  0  0  0  0  0  0
    4.7720    0.6141    0.2142 N   0  0  0  0  0  0  0  0  0  0  0  0
    5.8617    1.3899    0.8997 C   0  0  0  0  0  0  0  0  0  0  0  0
    5.2988    2.6260    1.6078 C   0  0  0  0  0  0  0  0  0  0  0  0
    4.6702    3.5491    0.7055 O   0  0  0  0  0  0  0  0  0  0  0  0
    4.0591    2.9111   -0.4242 C   0  0  0  0  0  0  0  0  0  0  0  0
    3.5960    1.4805   -0.1304 C   0  0  0  0  0  0  0  0  0  0  0  0
    4.0093   -2.1329   -1.4731 C   0  0  0  0  0  0  0  0  0  0  0  0
    5.6331   -1.7999   -1.9516 Cl  0  0  0  0  0  0  0  0  0  0  0  0
    3.2232   -2.8450   -2.3902 C   0  0  0  0  0  0  0  0  0  0  0  0
    1.8820   -3.1317   -2.1144 C   0  0  0  0  0  0  0  0  0  0  0  0
    1.0161   -4.0701   -3.2774 Cl  0  0  0  0  0  0  0  0  0  0  0  0
   -4.0183    0.5855    0.7120 C   0  0  0  0  0  0  0  0  0  0  0  0
   -3.7990    1.8202   -0.1782 C   0  0  0  0  0  0  0  0  0  0  0  0
   -4.0477    3.0279    0.7175 C   0  0  0  0  0  0  0  0  0  0  0  0
   -3.4678    2.5528    2.3400 S   0  0  0  0  0  6  0  0  0  0  0  0
   -4.5792    2.6669    3.2629 O   0  0  0  0  0  0  0  0  0  0  0  0
   -2.1916    3.1884    2.5890 O   0  0  0  0  0  0  0  0  0  0  0  0
   -3.2058    0.8232    1.9875 C   0  0  0  0  0  0  0  0  0  0  0  0
   -5.0880   -1.1456   -2.3121 H   0  0  0  0  0  0  0  0  0  0  0  0
   -6.5505   -1.8289   -1.5745 H   0  0  0  0  0  0  0  0  0  0  0  0
   -6.1192   -0.1364   -1.2896 H   0  0  0  0  0  0  0  0  0  0  0  0
   -4.5966   -2.6058   -0.3190 H   0  0  0  0  0  0  0  0  0  0  0  0
   -5.5472   -1.5540    0.7032 H   0  0  0  0  0  0  0  0  0  0  0  0
   -2.5954   -3.1603   -0.6079 H   0  0  0  0  0  0  0  0  0  0  0  0
   -2.8378   -2.2685   -2.1292 H   0  0  0  0  0  0  0  0  0  0  0  0
    1.6558   -1.6836    0.9627 H   0  0  0  0  0  0  0  0  0  0  0  0
    6.5765    1.6888    0.1232 H   0  0  0  0  0  0  0  0  0  0  0  0
    6.4074    0.7700    1.6183 H   0  0  0  0  0  0  0  0  0  0  0  0
    6.1030    3.1662    2.1183 H   0  0  0  0  0  0  0  0  0  0  0  0
    4.5620    2.3398    2.3675 H   0  0  0  0  0  0  0  0  0  0  0  0
    4.7839    2.9194   -1.2471 H   0  0  0  0  0  0  0  0  0  0  0  0
    3.2093    3.5284   -0.7304 H   0  0  0  0  0  0  0  0  0  0  0  0
    2.8829    1.4975    0.7010 H   0  0  0  0  0  0  0  0  0  0  0  0
    3.1025    1.0720   -1.0171 H   0  0  0  0  0  0  0  0  0  0  0  0
    3.6625   -3.1816   -3.3289 H   0  0  0  0  0  0  0  0  0  0  0  0
   -5.0788    0.5856    1.0019 H   0  0  0  0  0  0  0  0  0  0  0  0
   -4.4666    1.8246   -1.0453 H   0  0  0  0  0  0  0  0  0  0  0  0
   -2.7746    1.8640   -0.5615 H   0  0  0  0  0  0  0  0  0  0  0  0
   -5.1173    3.2441    0.7940 H   0  0  0  0  0  0  0  0  0  0  0  0
   -3.5118    3.9173    0.3779 H   0  0  0  0  0  0  0  0  0  0  0  0
   -3.5617    0.2195    2.8252 H   0  0  0  0  0  0  0  0  0  0  0  0
   -2.1321    0.6723    1.8626 H   0  0  0  0  0  0  0  0  0  0  0  0
  1  2  1  0
  2  3  1  0
  3  4  1  0
  4  5  2  0
  4  6  1  0
  6  7  1  0
  7  8  1  0
  8  9  2  0
  8 10  1  0
 10 11  2  0
 11 12  1  0
 12 13  1  0
 13 14  2  0
 13 15  2  0
 13 16  1  0
 16 17  1  0
 17 18  1  0
 18 19  1  0
 19 20  1  0
 20 21  1  0
 12 22  2  0
 22 23  1  0
 22 24  1  0
 24 25  2  0
 25 26  1  0
  3 27  1  0
 27 28  1  0
 28 29  1  0
 29 30  1  0
 30 31  2  0
 30 32  2  0
 30 33  1  0
 25 10  1  0
 33 27  1  0
 21 16  1  0
  1 34  1  0
  1 35  1  0
  1 36  1  0
  2 37  1  0
  2 38  1  0
  6 39  1  0
  6 40  1  0
 11 41  1  0
 17 42  1  0
 17 43  1  0
 18 44  1  0
 18 45  1  0
 20 46  1  0
 20 47  1  0
 21 48  1  0
 21 49  1  0
 24 50  1  0
 27 51  1  0
 28 52  1  0
 28 53  1  0
 29 54  1  0
 29 55  1  0
 33 56  1  0
 33 57  1  0
M  END
$$$$
