
     RDKit          3D

 36 37  0  0  0  0  0  0  0  0999 V2000
    5.2475   -3.3873   -0.2977 C   0  0  0  0  0  0  0  0  0  0  0  0
    5.0972   -2.2229   -1.1016 O   0  0  0  0  0  0  0  0  0  0  0  0
    4.1072   -1.3489   -0.7471 C   0  0  0  0  0  0  0  0  0  0  0  0
    4.0421   -0.1942   -1.5357 C   0  0  0  0  0  0  0  0  0  0  0  0
    3.0801    0.7865   -1.2876 C   0  0  0  0  0  0  0  0  0  0  0  0
    2.1668    0.5998   -0.2472 C   0  0  0  0  0  0  0  0  0  0  0  0
    0.9510    1.8541    0.0870 S   0  0  0  0  0  6  0  0  0  0  0  0
    0.4989    1.6756    1.4513 O   0  0  0  0  0  0  0  0  0  0  0  0
    1.4727    3.1147   -0.3964 O   0  0  0  0  0  0  0  0  0  0  0  0
   -0.2974    1.3690   -1.0076 N   0  0  0  0  0  0  0  0  0  0  0  0
   -1.7086    1.6387   -0.5658 N   0  0  0  0  0  0  0  0  0  0  0  0
   -2.3082    0.6774    0.0772 C   0  0  0  0  0  0  0  0  0  0  0  0
   -1.6826   -0.6786    0.3313 C   0  0  0  0  0  0  0  0  0  0  0  0
   -3.6877    0.9242    0.5970 C   0  0  0  0  0  0  0  0  0  0  0  0
   -4.2018    0.1999    1.6724 C   0  0  0  0  0  0  0  0  0  0  0  0
   -5.4869    0.4926    2.0977 C   0  0  0  0  0  0  0  0  0  0  0  0
   -6.2687    1.4374    1.5341 N   0  0  0  0  0  0  0  0  0  0  0  0
   -5.7412    2.1342    0.5060 C   0  0  0  0  0  0  0  0  0  0  0  0
   -4.4688    1.9198    0.0075 C   0  0  0  0  0  0  0  0  0  0  0  0
    2.2297   -0.5419    0.5564 C   0  0  0  0  0  0  0  0  0  0  0  0
    3.1987   -1.5181    0.3010 C   0  0  0  0  0  0  0  0  0  0  0  0
    6.0917   -3.9593   -0.6938 H   0  0  0  0  0  0  0  0  0  0  0  0
    5.4805   -3.1253    0.7406 H   0  0  0  0  0  0  0  0  0  0  0  0
    4.3582   -4.0240   -0.3566 H   0  0  0  0  0  0  0  0  0  0  0  0
    4.7553   -0.0576   -2.3472 H   0  0  0  0  0  0  0  0  0  0  0  0
    3.0572    1.6837   -1.9018 H   0  0  0  0  0  0  0  0  0  0  0  0
   -0.1042    1.8792   -1.8782 H   0  0  0  0  0  0  0  0  0  0  0  0
   -1.1075   -0.6462    1.2602 H   0  0  0  0  0  0  0  0  0  0  0  0
   -2.4464   -1.4577    0.4080 H   0  0  0  0  0  0  0  0  0  0  0  0
   -1.0244   -0.9673   -0.4923 H   0  0  0  0  0  0  0  0  0  0  0  0
   -3.6290   -0.5598    2.1910 H   0  0  0  0  0  0  0  0  0  0  0  0
   -5.9338   -0.0363    2.9362 H   0  0  0  0  0  0  0  0  0  0  0  0
   -6.3893    2.8947    0.0786 H   0  0  0  0  0  0  0  0  0  0  0  0
   -4.1030    2.5177   -0.8211 H   0  0  0  0  0  0  0  0  0  0  0  0
    1.5348   -0.6793    1.3822 H   0  0  0  0  0  0  0  0  0  0  0  0
    3.2199   -2.3947    0.9394 H   0  0  0  0  0  0  0  0  0  0  0  0
  1  2  1  0
  2  3  1  0
  3  4  2  0
  4  5  1  0
  5  6  2  0
  6  7  1  0
  7  8  2  0
  7  9  2  0
  7 10  1  0
 10 11  1  0
 11 12  2  3
 12 13  1  0
 12 14  1  0
 14 15  2  0
 15 16  1  0
 16 17  2  0
 17 18  1  0
 18 19  2  0
  6 20  1  0
 20 21  2  0
 21  3  1  0
 19 14  1  0
  1 22  1  0
  1 23  1  0
  1 24  1  0
  4 25  1  0
  5 26  1  0
 10 27  1  0
 13 28  1  0
 13 29  1  0
 13 30  1  0
 15 31  1  0
 16 32  1  0
 18 33  1  0
 19 34  1  0
 20 35  1  0
 21 36  1  0
M  END
$$$$
