
     RDKit          3D

 53 56  0  0  0  0  0  0  0  0999 V2000
    8.1098    0.8796   -0.3235 C   0  0  0  0  0  0  0  0  0  0  0  0
    6.7632    1.3216    0.2214 C   0  0  0  0  0  0  0  0  0  0  0  0
    5.8789    1.9149   -0.8723 C   0  0  0  0  0  0  0  0  0  0  0  0
    4.6384    2.3642   -0.3271 O   0  0  0  0  0  0  0  0  0  0  0  0
    3.5875    1.4934   -0.2781 C   0  0  0  0  0  0  0  0  0  0  0  0
    2.3810    2.0619    0.1282 C   0  0  0  0  0  0  0  0  0  0  0  0
    1.2195    1.2859    0.2287 C   0  0  0  0  0  0  0  0  0  0  0  0
    1.2252   -0.0871   -0.0707 C   0  0  0  0  0  0  0  0  0  0  0  0
    0.0028   -0.9131    0.0334 C   0  0  0  0  0  0  0  0  0  0  0  0
   -1.1309   -0.3137    0.4357 N   0  0  0  0  0  0  0  0  0  0  0  0
   -2.2435   -1.0644    0.5189 C   0  0  0  0  0  0  0  0  0  0  0  0
   -3.4559   -0.4428    0.8978 N   0  0  0  0  0  0  0  0  0  0  0  0
   -4.3520   -0.2063   -0.2578 C   0  0  0  0  0  0  0  0  0  0  0  0
   -4.0518    1.1250   -0.9866 C   0  0  0  0  0  0  0  0  0  0  0  0
   -4.0131    2.3224   -0.1210 N   0  0  0  0  0  0  0  0  0  0  0  0
   -5.3401    2.6907    0.3646 C   0  0  0  0  0  0  0  0  0  0  0  0
   -3.0736    2.0654    0.9927 C   0  0  0  0  0  0  0  0  0  0  0  0
   -3.2968    0.7435    1.7676 C   0  0  0  0  0  0  0  0  0  0  0  0
   -2.2236   -2.4476    0.2450 C   0  0  0  0  0  0  0  0  0  0  0  0
   -3.3302   -3.3263    0.3834 C   0  0  0  0  0  0  0  0  0  0  0  0
   -3.2162   -4.6817    0.0840 C   0  0  0  0  0  0  0  0  0  0  0  0
   -1.9961   -5.1795   -0.3489 C   0  0  0  0  0  0  0  0  0  0  0  0
   -0.9009   -4.3196   -0.4671 C   0  0  0  0  0  0  0  0  0  0  0  0
   -0.9918   -2.9645   -0.1696 C   0  0  0  0  0  0  0  0  0  0  0  0
    0.1047   -2.2141   -0.2857 N   0  0  0  0  0  0  0  0  0  0  0  0
    2.4563   -0.6403   -0.4727 C   0  0  0  0  0  0  0  0  0  0  0  0
    3.6218    0.1347   -0.5744 C   0  0  0  0  0  0  0  0  0  0  0  0
    8.7265    0.4647    0.4799 H   0  0  0  0  0  0  0  0  0  0  0  0
    7.9876    0.1084   -1.0908 H   0  0  0  0  0  0  0  0  0  0  0  0
    8.6503    1.7225   -0.7656 H   0  0  0  0  0  0  0  0  0  0  0  0
    6.9092    2.0648    1.0145 H   0  0  0  0  0  0  0  0  0  0  0  0
    6.2640    0.4710    0.6982 H   0  0  0  0  0  0  0  0  0  0  0  0
    6.3730    2.8047   -1.2805 H   0  0  0  0  0  0  0  0  0  0  0  0
    5.7401    1.2371   -1.7226 H   0  0  0  0  0  0  0  0  0  0  0  0
    2.3384    3.1217    0.3680 H   0  0  0  0  0  0  0  0  0  0  0  0
    0.2998    1.7719    0.5467 H   0  0  0  0  0  0  0  0  0  0  0  0
   -5.3826   -0.1925    0.1170 H   0  0  0  0  0  0  0  0  0  0  0  0
   -4.3126   -1.0263   -0.9851 H   0  0  0  0  0  0  0  0  0  0  0  0
   -3.0802    1.0414   -1.4910 H   0  0  0  0  0  0  0  0  0  0  0  0
   -4.7856    1.2722   -1.7888 H   0  0  0  0  0  0  0  0  0  0  0  0
   -5.8086    1.9199    0.9842 H   0  0  0  0  0  0  0  0  0  0  0  0
   -6.0081    2.9022   -0.4778 H   0  0  0  0  0  0  0  0  0  0  0  0
   -5.2848    3.6119    0.9554 H   0  0  0  0  0  0  0  0  0  0  0  0
   -3.0966    2.9046    1.6994 H   0  0  0  0  0  0  0  0  0  0  0  0
   -2.0620    2.0766    0.5736 H   0  0  0  0  0  0  0  0  0  0  0  0
   -4.2156    0.8357    2.3602 H   0  0  0  0  0  0  0  0  0  0  0  0
   -2.4921    0.5938    2.4992 H   0  0  0  0  0  0  0  0  0  0  0  0
   -4.2834   -2.9437    0.7424 H   0  0  0  0  0  0  0  0  0  0  0  0
   -4.0725   -5.3416    0.1949 H   0  0  0  0  0  0  0  0  0  0  0  0
   -1.8862   -6.2345   -0.5859 H   0  0  0  0  0  0  0  0  0  0  0  0
    0.0555   -4.7215   -0.7949 H   0  0  0  0  0  0  0  0  0  0  0  0
    2.5199   -1.7013   -0.7119 H   0  0  0  0  0  0  0  0  0  0  0  0
    4.5342   -0.3658   -0.8789 H   0  0  0  0  0  0  0  0  0  0  0  0
  1  2  1  0
  2  3  1  0
  3  4  1  0
  4  5  1  0
  5  6  2  0
  6  7  1  0
  7  8  2  0
  8  9  1  0
  9 10  2  0
 10 11  1  0
 11 12  1  0
 12 13  1  0
 13 14  1  0
 14 15  1  0
 15 16  1  0
 15 17  1  0
 17 18  1  0
 11 19  2  0
 19 20  1  0
 20 21  2  0
 21 22  1  0
 22 23  2  0
 23 24  1  0
 24 25  2  0
  8 26  1  0
 26 27  2  0
 27  5  1  0
 25  9  1  0
 18 12  1  0
 24 19  1  0
  1 28  1  0
  1 29  1  0
  1 30  1  0
  2 31  1  0
  2 32  1  0
  3 33  1  0
  3 34  1  0
  6 35  1  0
  7 36  1  0
 13 37  1  0
 13 38  1  0
 14 39  1  0
 14 40  1  0
 16 41  1  0
 16 42  1  0
 16 43  1  0
 17 44  1  0
 17 45  1  0
 18 46  1  0
 18 47  1  0
 20 48  1  0
 21 49  1  0
 22 50  1  0
 23 51  1  0
 26 52  1  0
 27 53  1  0
M  END
$$$$
