
     RDKit          3D

 47 49  0  0  0  0  0  0  0  0999 V2000
    7.1499   -0.7873   -1.0812 C   0  0  0  0  0  0  0  0  0  0  0  0
    5.8709   -0.5617   -0.3227 C   0  0  0  0  0  0  0  0  0  0  0  0
    4.8561   -1.5289   -0.3943 C   0  0  0  0  0  0  0  0  0  0  0  0
    3.6511   -1.3707    0.2932 C   0  0  0  0  0  0  0  0  0  0  0  0
    2.7573   -2.3901    0.1117 O   0  0  0  0  0  0  0  0  0  0  0  0
    1.6222   -2.4654    0.9784 C   0  0  0  0  0  0  0  0  0  0  0  0
    0.5046   -1.6863    0.3983 C   0  0  0  0  0  0  0  0  0  0  0  0
    0.2036   -1.1962   -0.8481 C   0  0  0  0  0  0  0  0  0  0  0  0
   -1.0427   -0.5317   -0.6924 C   0  0  0  0  0  0  0  0  0  0  0  0
   -1.7615    0.2109   -1.7397 C   0  0  0  0  0  0  0  0  0  0  0  0
   -1.1362    0.6290   -2.7164 O   0  0  0  0  0  0  0  0  0  0  0  0
   -3.1371    0.4523   -1.6049 N   0  0  0  0  0  0  0  0  0  0  0  0
   -3.7493    1.3248   -2.5961 C   0  0  0  0  0  0  0  0  0  0  0  0
   -4.0474   -0.4880   -0.9371 C   0  0  0  0  0  0  0  0  0  0  0  0
   -5.0592    0.1845   -0.0345 C   0  0  0  0  0  0  0  0  0  0  0  0
   -4.6560    0.7965    1.1505 C   0  0  0  0  0  0  0  0  0  0  0  0
   -5.6136    1.4149    1.9499 C   0  0  0  0  0  0  0  0  0  0  0  0
   -6.9431    1.4104    1.5476 C   0  0  0  0  0  0  0  0  0  0  0  0
   -7.2620    0.7840    0.3556 C   0  0  0  0  0  0  0  0  0  0  0  0
   -6.3558    0.1760   -0.4417 N   0  0  0  0  0  0  0  0  0  0  0  0
   -1.4448   -0.6016    0.5887 N   0  0  0  0  0  0  0  0  0  0  0  0
   -0.4875   -1.3365    1.2583 O   0  0  0  0  0  0  0  0  0  0  0  0
    3.4450   -0.2201    1.0525 C   0  0  0  0  0  0  0  0  0  0  0  0
    4.4408    0.7697    1.1447 C   0  0  0  0  0  0  0  0  0  0  0  0
    4.1720    1.9990    1.9709 C   0  0  0  0  0  0  0  0  0  0  0  0
    5.6547    0.5898    0.4542 C   0  0  0  0  0  0  0  0  0  0  0  0
    6.8927    1.8015    0.5582 Cl  0  0  0  0  0  0  0  0  0  0  0  0
    8.0015   -0.8199   -0.3937 H   0  0  0  0  0  0  0  0  0  0  0  0
    7.3017    0.0068   -1.8197 H   0  0  0  0  0  0  0  0  0  0  0  0
    7.1325   -1.7390   -1.6238 H   0  0  0  0  0  0  0  0  0  0  0  0
    5.0015   -2.4256   -0.9944 H   0  0  0  0  0  0  0  0  0  0  0  0
    1.8645   -2.1690    2.0052 H   0  0  0  0  0  0  0  0  0  0  0  0
    1.3270   -3.5198    1.0204 H   0  0  0  0  0  0  0  0  0  0  0  0
    0.7949   -1.2863   -1.7487 H   0  0  0  0  0  0  0  0  0  0  0  0
   -4.0455    0.7246   -3.4617 H   0  0  0  0  0  0  0  0  0  0  0  0
   -4.6248    1.8236   -2.1729 H   0  0  0  0  0  0  0  0  0  0  0  0
   -3.0452    2.0952   -2.9242 H   0  0  0  0  0  0  0  0  0  0  0  0
   -3.5236   -1.2660   -0.3794 H   0  0  0  0  0  0  0  0  0  0  0  0
   -4.5770   -1.0274   -1.7342 H   0  0  0  0  0  0  0  0  0  0  0  0
   -3.6126    0.7985    1.4488 H   0  0  0  0  0  0  0  0  0  0  0  0
   -5.3212    1.8976    2.8781 H   0  0  0  0  0  0  0  0  0  0  0  0
   -7.7117    1.8840    2.1479 H   0  0  0  0  0  0  0  0  0  0  0  0
   -8.2871    0.7537   -0.0029 H   0  0  0  0  0  0  0  0  0  0  0  0
    2.5069   -0.0535    1.5734 H   0  0  0  0  0  0  0  0  0  0  0  0
    4.1971    2.8944    1.3413 H   0  0  0  0  0  0  0  0  0  0  0  0
    3.1843    1.9591    2.4432 H   0  0  0  0  0  0  0  0  0  0  0  0
    4.9122    2.0899    2.7728 H   0  0  0  0  0  0  0  0  0  0  0  0
  1  2  1  0
  2  3  2  0
  3  4  1  0
  4  5  1  0
  5  6  1  0
  6  7  1  0
  7  8  2  0
  8  9  1  0
  9 10  1  0
 10 11  2  0
 10 12  1  0
 12 13  1  0
 12 14  1  0
 14 15  1  0
 15 16  2  0
 16 17  1  0
 17 18  2  0
 18 19  1  0
 19 20  2  0
  9 21  2  0
 21 22  1  0
  4 23  2  0
 23 24  1  0
 24 25  1  0
 24 26  2  0
 26 27  1  0
 26  2  1  0
 22  7  1  0
 20 15  1  0
  1 28  1  0
  1 29  1  0
  1 30  1  0
  3 31  1  0
  6 32  1  0
  6 33  1  0
  8 34  1  0
 13 35  1  0
 13 36  1  0
 13 37  1  0
 14 38  1  0
 14 39  1  0
 16 40  1  0
 17 41  1  0
 18 42  1  0
 19 43  1  0
 23 44  1  0
 25 45  1  0
 25 46  1  0
 25 47  1  0
M  END
$$$$
