
     RDKit          3D

 74 78  0  0  0  0  0  0  0  0999 V2000
    0.3682   -3.5142    4.9997 C   0  0  0  0  0  0  0  0  0  0  0  0
   -0.0623   -4.0973    3.6583 C   0  0  0  0  0  0  0  0  0  0  0  0
   -1.1378   -3.2725    3.0054 C   0  0  0  0  0  0  0  0  0  0  0  0
   -2.5985   -3.5591    3.2773 C   0  0  0  0  0  0  0  0  0  0  0  0
   -2.9561   -4.7200    4.1859 C   0  0  0  0  0  0  0  0  0  0  0  0
   -3.5997   -2.9015    2.7658 N   0  0  0  0  0  0  0  0  0  0  0  0
   -3.2969   -1.8779    1.9206 C   0  0  0  0  0  0  0  0  0  0  0  0
   -4.1011   -0.9970    1.2367 C   0  0  0  0  0  0  0  0  0  0  0  0
   -3.2317   -0.1621    0.4962 C   0  0  0  0  0  0  0  0  0  0  0  0
   -3.5804    0.9350   -0.4169 C   0  0  0  0  0  0  0  0  0  0  0  0
   -4.8989    1.3980   -0.5243 C   0  0  0  0  0  0  0  0  0  0  0  0
   -5.2299    2.4336   -1.4047 C   0  0  0  0  0  0  0  0  0  0  0  0
   -6.5536    2.7807   -1.4006 O   0  0  0  0  0  0  0  0  0  0  0  0
   -6.9492    3.8270   -2.2793 C   0  0  0  0  0  0  0  0  0  0  0  0
   -4.2318    3.0156   -2.1851 C   0  0  0  0  0  0  0  0  0  0  0  0
   -2.9079    2.5757   -2.0886 C   0  0  0  0  0  0  0  0  0  0  0  0
   -2.0275    3.2356   -2.9036 O   0  0  0  0  0  0  0  0  0  0  0  0
   -0.6544    2.8782   -2.7943 C   0  0  0  0  0  0  0  0  0  0  0  0
   -2.5884    1.5390   -1.2100 C   0  0  0  0  0  0  0  0  0  0  0  0
   -1.9522   -0.4989    0.7156 N   0  0  0  0  0  0  0  0  0  0  0  0
   -1.9886   -1.5501    1.5840 N   0  0  0  0  0  0  0  0  0  0  0  0
   -0.8903   -2.2670    2.1335 C   0  0  0  0  0  0  0  0  0  0  0  0
    0.4240   -1.8864    1.7694 N   0  0  0  0  0  0  0  0  0  0  0  0
    0.8618   -2.1763    0.3800 C   0  0  0  0  0  0  0  0  0  0  0  0
    2.3446   -1.8125    0.1333 C   0  0  0  0  0  0  0  0  0  0  0  0
    2.7667   -0.4870    0.6172 N   0  0  0  0  0  0  0  0  0  0  0  0
    3.5747    0.2798   -0.3357 C   0  0  0  0  0  0  0  0  0  0  0  0
    2.8324    0.8864   -1.5577 C   0  0  0  0  0  0  0  0  0  0  0  0
    3.6515    1.5939   -2.5568 N   0  0  0  0  0  0  0  0  0  0  0  0
    4.4719    2.6893   -2.0071 C   0  0  0  0  0  0  0  0  0  0  0  0
    5.9640    2.3368   -1.8891 C   0  0  0  0  0  0  0  0  0  0  0  0
    6.5606    1.9593   -3.1395 O   0  0  0  0  0  0  0  0  0  0  0  0
    5.6194    1.4171   -4.0784 C   0  0  0  0  0  0  0  0  0  0  0  0
    4.4597    0.6805   -3.3899 C   0  0  0  0  0  0  0  0  0  0  0  0
    1.6625    0.2581    1.2291 C   0  0  0  0  0  0  0  0  0  0  0  0
    0.9321   -0.5871    2.2939 C   0  0  0  0  0  0  0  0  0  0  0  0
    1.0849   -4.1823    5.4896 H   0  0  0  0  0  0  0  0  0  0  0  0
   -0.4828   -3.3763    5.6744 H   0  0  0  0  0  0  0  0  0  0  0  0
    0.8559   -2.5404    4.8698 H   0  0  0  0  0  0  0  0  0  0  0  0
   -0.3978   -5.1298    3.7957 H   0  0  0  0  0  0  0  0  0  0  0  0
    0.8172   -4.1725    3.0067 H   0  0  0  0  0  0  0  0  0  0  0  0
   -2.3740   -4.6918    5.1082 H   0  0  0  0  0  0  0  0  0  0  0  0
   -2.7722   -5.6602    3.6596 H   0  0  0  0  0  0  0  0  0  0  0  0
   -4.0138   -4.6759    4.4565 H   0  0  0  0  0  0  0  0  0  0  0  0
   -5.1801   -0.9861    1.2703 H   0  0  0  0  0  0  0  0  0  0  0  0
   -5.6950    0.9671    0.0787 H   0  0  0  0  0  0  0  0  0  0  0  0
   -6.4451    4.7654   -2.0287 H   0  0  0  0  0  0  0  0  0  0  0  0
   -8.0257    3.9833   -2.1532 H   0  0  0  0  0  0  0  0  0  0  0  0
   -6.7735    3.5496   -3.3238 H   0  0  0  0  0  0  0  0  0  0  0  0
   -4.4467    3.8206   -2.8801 H   0  0  0  0  0  0  0  0  0  0  0  0
   -0.2826    3.0454   -1.7788 H   0  0  0  0  0  0  0  0  0  0  0  0
   -0.4874    1.8440   -3.1121 H   0  0  0  0  0  0  0  0  0  0  0  0
   -0.0868    3.5331   -3.4650 H   0  0  0  0  0  0  0  0  0  0  0  0
   -1.5684    1.1759   -1.1267 H   0  0  0  0  0  0  0  0  0  0  0  0
    0.2371   -1.6264   -0.3343 H   0  0  0  0  0  0  0  0  0  0  0  0
    0.7254   -3.2450    0.1750 H   0  0  0  0  0  0  0  0  0  0  0  0
    2.5412   -1.9302   -0.9373 H   0  0  0  0  0  0  0  0  0  0  0  0
    2.9744   -2.5519    0.6401 H   0  0  0  0  0  0  0  0  0  0  0  0
    4.0562    1.0871    0.2256 H   0  0  0  0  0  0  0  0  0  0  0  0
    4.3950   -0.3635   -0.6766 H   0  0  0  0  0  0  0  0  0  0  0  0
    2.2586    0.1039   -2.0695 H   0  0  0  0  0  0  0  0  0  0  0  0
    2.0838    1.6028   -1.1978 H   0  0  0  0  0  0  0  0  0  0  0  0
    4.3783    3.5328   -2.7036 H   0  0  0  0  0  0  0  0  0  0  0  0
    4.0811    3.0494   -1.0474 H   0  0  0  0  0  0  0  0  0  0  0  0
    6.1125    1.5115   -1.1868 H   0  0  0  0  0  0  0  0  0  0  0  0
    6.5254    3.1926   -1.5013 H   0  0  0  0  0  0  0  0  0  0  0  0
    5.2494    2.2364   -4.7032 H   0  0  0  0  0  0  0  0  0  0  0  0
    6.1711    0.7295   -4.7292 H   0  0  0  0  0  0  0  0  0  0  0  0
    3.8147    0.2229   -4.1476 H   0  0  0  0  0  0  0  0  0  0  0  0
    4.8918   -0.1253   -2.7856 H   0  0  0  0  0  0  0  0  0  0  0  0
    2.0509    1.1603    1.7164 H   0  0  0  0  0  0  0  0  0  0  0  0
    0.9373    0.5833    0.4745 H   0  0  0  0  0  0  0  0  0  0  0  0
    1.6190   -0.8079    3.1216 H   0  0  0  0  0  0  0  0  0  0  0  0
    0.1139    0.0158    2.7129 H   0  0  0  0  0  0  0  0  0  0  0  0
  1  2  1  0
  2  3  1  0
  3  4  1  0
  4  5  1  0
  4  6  2  0
  6  7  1  0
  7  8  2  0
  8  9  1  0
  9 10  1  0
 10 11  2  0
 11 12  1  0
 12 13  1  0
 13 14  1  0
 12 15  2  0
 15 16  1  0
 16 17  1  0
 17 18  1  0
 16 19  2  0
  9 20  2  0
 20 21  1  0
 21 22  1  0
 22 23  1  0
 23 24  1  0
 24 25  1  0
 25 26  1  0
 26 27  1  0
 27 28  1  0
 28 29  1  0
 29 30  1  0
 30 31  1  0
 31 32  1  0
 32 33  1  0
 33 34  1  0
 26 35  1  0
 35 36  1  0
 22  3  2  0
 36 23  1  0
 21  7  1  0
 34 29  1  0
 19 10  1  0
  1 37  1  0
  1 38  1  0
  1 39  1  0
  2 40  1  0
  2 41  1  0
  5 42  1  0
  5 43  1  0
  5 44  1  0
  8 45  1  0
 11 46  1  0
 14 47  1  0
 14 48  1  0
 14 49  1  0
 15 50  1  0
 18 51  1  0
 18 52  1  0
 18 53  1  0
 19 54  1  0
 24 55  1  0
 24 56  1  0
 25 57  1  0
 25 58  1  0
 27 59  1  0
 27 60  1  0
 28 61  1  0
 28 62  1  0
 30 63  1  0
 30 64  1  0
 31 65  1  0
 31 66  1  0
 33 67  1  0
 33 68  1  0
 34 69  1  0
 34 70  1  0
 35 71  1  0
 35 72  1  0
 36 73  1  0
 36 74  1  0
M  END
$$$$
