
     RDKit          3D

 61 63  0  0  0  0  0  0  0  0999 V2000
    7.9674    0.8763    2.2809 C   0  0  0  0  0  0  0  0  0  0  0  0
    7.1432    0.2886    1.2405 N   0  0  0  0  0  0  0  0  0  0  0  0
    6.0942    1.0530    0.7569 C   0  0  0  0  0  0  0  0  0  0  0  0
    5.7896    2.1633    1.1888 O   0  0  0  0  0  0  0  0  0  0  0  0
    5.2892    0.4632   -0.3226 C   0  0  0  0  0  0  0  0  0  0  0  0
    4.2863    1.2332   -0.9315 C   0  0  0  0  0  0  0  0  0  0  0  0
    3.5079    0.6658   -1.9380 C   0  0  0  0  0  0  0  0  0  0  0  0
    2.2409    1.6223   -2.7348 S   0  0  0  0  0  6  0  0  0  0  0  0
    2.4281    3.0151   -2.3982 O   0  0  0  0  0  0  0  0  0  0  0  0
    2.1625    1.1676   -4.1041 O   0  0  0  0  0  0  0  0  0  0  0  0
    0.8665    1.0542   -1.9550 N   0  0  0  0  0  0  0  0  0  0  0  0
    0.4370    1.7336   -0.7219 C   0  0  0  0  0  0  0  0  0  0  0  0
   -0.5312    0.8480    0.0556 C   0  0  0  0  0  0  0  0  0  0  0  0
   -1.8676    0.7088   -0.6424 C   0  0  0  0  0  0  0  0  0  0  0  0
   -2.0768    1.1175   -1.7794 O   0  0  0  0  0  0  0  0  0  0  0  0
   -2.8110    0.0443    0.1155 N   0  0  0  0  0  0  0  0  0  0  0  0
   -4.2079   -0.0635   -0.3146 C   0  0  0  0  0  0  0  0  0  0  0  0
   -4.7853   -1.4175    0.1233 C   0  0  0  0  0  0  0  0  0  0  0  0
   -5.1909   -1.4893    1.5962 C   0  0  0  0  0  0  0  0  0  0  0  0
   -6.6898   -1.6899    1.8178 C   0  0  0  0  0  0  0  0  0  0  0  0
   -7.6431   -0.8069    1.0084 C   0  0  0  0  0  0  0  0  0  0  0  0
   -7.3489    0.6925    1.0372 C   0  0  0  0  0  0  0  0  0  0  0  0
   -6.4747    1.2038   -0.1165 C   0  0  0  0  0  0  0  0  0  0  0  0
   -4.9701    1.1898    0.1543 C   0  0  0  0  0  0  0  0  0  0  0  0
    3.7347   -0.6477   -2.3488 C   0  0  0  0  0  0  0  0  0  0  0  0
    4.7371   -1.4042   -1.7334 C   0  0  0  0  0  0  0  0  0  0  0  0
    5.5297   -0.8557   -0.7102 C   0  0  0  0  0  0  0  0  0  0  0  0
    6.5502   -1.5997   -0.0618 N   0  0  0  0  0  0  0  0  0  0  0  0
    6.7728   -2.9916   -0.4327 C   0  0  0  0  0  0  0  0  0  0  0  0
    7.3616   -1.0467    0.9265 C   0  0  0  0  0  0  0  0  0  0  0  0
    8.2291   -1.7081    1.5034 O   0  0  0  0  0  0  0  0  0  0  0  0
    8.0389    1.9621    2.1602 H   0  0  0  0  0  0  0  0  0  0  0  0
    8.9772    0.4554    2.2671 H   0  0  0  0  0  0  0  0  0  0  0  0
    7.5052    0.6568    3.2482 H   0  0  0  0  0  0  0  0  0  0  0  0
    4.1202    2.2630   -0.6180 H   0  0  0  0  0  0  0  0  0  0  0  0
    0.1108    0.8406   -2.6198 H   0  0  0  0  0  0  0  0  0  0  0  0
   -0.0377    2.6860   -0.9812 H   0  0  0  0  0  0  0  0  0  0  0  0
    1.3066    1.9343   -0.0876 H   0  0  0  0  0  0  0  0  0  0  0  0
   -0.7083    1.2941    1.0408 H   0  0  0  0  0  0  0  0  0  0  0  0
   -0.1096   -0.1537    0.1983 H   0  0  0  0  0  0  0  0  0  0  0  0
   -2.6052   -0.1359    1.0893 H   0  0  0  0  0  0  0  0  0  0  0  0
   -4.2080   -0.0624   -1.4138 H   0  0  0  0  0  0  0  0  0  0  0  0
   -5.6273   -1.6770   -0.5296 H   0  0  0  0  0  0  0  0  0  0  0  0
   -4.0311   -2.1947   -0.0639 H   0  0  0  0  0  0  0  0  0  0  0  0
   -4.6742   -2.3407    2.0594 H   0  0  0  0  0  0  0  0  0  0  0  0
   -4.8489   -0.6117    2.1555 H   0  0  0  0  0  0  0  0  0  0  0  0
   -6.9400   -2.7379    1.6048 H   0  0  0  0  0  0  0  0  0  0  0  0
   -6.8970   -1.5450    2.8861 H   0  0  0  0  0  0  0  0  0  0  0  0
   -8.6448   -0.9626    1.4318 H   0  0  0  0  0  0  0  0  0  0  0  0
   -7.7147   -1.1613   -0.0268 H   0  0  0  0  0  0  0  0  0  0  0  0
   -6.9472    1.0006    2.0119 H   0  0  0  0  0  0  0  0  0  0  0  0
   -8.3176    1.2015    0.9359 H   0  0  0  0  0  0  0  0  0  0  0  0
   -6.7487    2.2578   -0.2644 H   0  0  0  0  0  0  0  0  0  0  0  0
   -6.7163    0.6974   -1.0601 H   0  0  0  0  0  0  0  0  0  0  0  0
   -4.7739    1.3971    1.2138 H   0  0  0  0  0  0  0  0  0  0  0  0
   -4.5366    2.0461   -0.3806 H   0  0  0  0  0  0  0  0  0  0  0  0
    3.1353   -1.0880   -3.1438 H   0  0  0  0  0  0  0  0  0  0  0  0
    4.8753   -2.4234   -2.0832 H   0  0  0  0  0  0  0  0  0  0  0  0
    5.8614   -3.5687   -0.2407 H   0  0  0  0  0  0  0  0  0  0  0  0
    7.0462   -3.0479   -1.4921 H   0  0  0  0  0  0  0  0  0  0  0  0
    7.5792   -3.4531    0.1430 H   0  0  0  0  0  0  0  0  0  0  0  0
  1  2  1  0
  2  3  1  0
  3  4  2  0
  3  5  1  0
  5  6  2  0
  6  7  1  0
  7  8  1  0
  8  9  2  0
  8 10  2  0
  8 11  1  0
 11 12  1  0
 12 13  1  0
 13 14  1  0
 14 15  2  0
 14 16  1  0
 16 17  1  0
 17 18  1  0
 18 19  1  0
 19 20  1  0
 20 21  1  0
 21 22  1  0
 22 23  1  0
 23 24  1  0
  7 25  2  0
 25 26  1  0
 26 27  2  0
 27 28  1  0
 28 29  1  0
 28 30  1  0
 30 31  2  0
 30  2  1  0
 27  5  1  0
 24 17  1  0
  1 32  1  0
  1 33  1  0
  1 34  1  0
  6 35  1  0
 11 36  1  0
 12 37  1  0
 12 38  1  0
 13 39  1  0
 13 40  1  0
 16 41  1  0
 17 42  1  0
 18 43  1  0
 18 44  1  0
 19 45  1  0
 19 46  1  0
 20 47  1  0
 20 48  1  0
 21 49  1  0
 21 50  1  0
 22 51  1  0
 22 52  1  0
 23 53  1  0
 23 54  1  0
 24 55  1  0
 24 56  1  0
 25 57  1  0
 26 58  1  0
 29 59  1  0
 29 60  1  0
 29 61  1  0
M  END
$$$$
