
     RDKit          3D

 42 44  0  0  0  0  0  0  0  0999 V2000
   -2.9207    2.4335   -1.4587 C   0  0  0  0  0  0  0  0  0  0  0  0
   -1.9498    2.1172   -0.3347 C   0  0  0  0  0  0  0  0  0  0  0  0
   -1.5674    0.7231   -0.3104 N   0  0  0  0  0  0  0  0  0  0  0  0
   -0.5183    0.1388   -0.9679 C   0  0  0  0  0  0  0  0  0  0  0  0
    0.6651    1.0142   -1.8698 S   0  0  0  0  0  0  0  0  0  0  0  0
    1.3716   -0.2753   -2.9247 C   0  0  0  0  0  0  0  0  0  0  0  0
    2.1132   -1.3817   -2.2069 C   0  0  0  0  0  0  0  0  0  0  0  0
    2.0584   -2.5456   -2.6122 O   0  0  0  0  0  0  0  0  0  0  0  0
    3.0186   -1.0864   -1.0663 C   0  0  0  0  0  0  0  0  0  0  0  0
    3.8104    0.0639   -1.0290 C   0  0  0  0  0  0  0  0  0  0  0  0
    4.6539    0.2913    0.0644 C   0  0  0  0  0  0  0  0  0  0  0  0
    4.7356   -0.6394    1.1091 C   0  0  0  0  0  0  0  0  0  0  0  0
    5.6200   -0.3783    2.2924 C   0  0  0  0  0  0  0  0  0  0  0  0
    3.9449   -1.7925    1.0615 C   0  0  0  0  0  0  0  0  0  0  0  0
    3.0972   -2.0200   -0.0255 C   0  0  0  0  0  0  0  0  0  0  0  0
   -0.5635   -1.1596   -0.8095 N   0  0  0  0  0  0  0  0  0  0  0  0
   -1.6544   -1.4453   -0.0282 N   0  0  0  0  0  0  0  0  0  0  0  0
   -2.2475   -0.3106    0.3026 C   0  0  0  0  0  0  0  0  0  0  0  0
   -3.4573   -0.2069    1.1106 C   0  0  0  0  0  0  0  0  0  0  0  0
   -3.4967    0.5475    2.2841 C   0  0  0  0  0  0  0  0  0  0  0  0
   -4.6831    0.5967    2.9942 C   0  0  0  0  0  0  0  0  0  0  0  0
   -5.8069   -0.0491    2.6200 N   0  0  0  0  0  0  0  0  0  0  0  0
   -5.7354   -0.8027    1.5024 C   0  0  0  0  0  0  0  0  0  0  0  0
   -4.5976   -0.9145    0.7269 C   0  0  0  0  0  0  0  0  0  0  0  0
   -2.4868    2.1992   -2.4352 H   0  0  0  0  0  0  0  0  0  0  0  0
   -3.8470    1.8585   -1.3570 H   0  0  0  0  0  0  0  0  0  0  0  0
   -3.1787    3.4975   -1.4459 H   0  0  0  0  0  0  0  0  0  0  0  0
   -1.0468    2.7273   -0.4278 H   0  0  0  0  0  0  0  0  0  0  0  0
   -2.3908    2.3779    0.6310 H   0  0  0  0  0  0  0  0  0  0  0  0
    0.5556   -0.7265   -3.4991 H   0  0  0  0  0  0  0  0  0  0  0  0
    2.0599    0.1879   -3.6389 H   0  0  0  0  0  0  0  0  0  0  0  0
    3.7926    0.7884   -1.8393 H   0  0  0  0  0  0  0  0  0  0  0  0
    5.2565    1.1959    0.0898 H   0  0  0  0  0  0  0  0  0  0  0  0
    6.4954    0.2098    2.0002 H   0  0  0  0  0  0  0  0  0  0  0  0
    5.9882   -1.3175    2.7233 H   0  0  0  0  0  0  0  0  0  0  0  0
    5.0680    0.1678    3.0612 H   0  0  0  0  0  0  0  0  0  0  0  0
    3.9852   -2.5261    1.8661 H   0  0  0  0  0  0  0  0  0  0  0  0
    2.4896   -2.9221   -0.0556 H   0  0  0  0  0  0  0  0  0  0  0  0
   -2.6246    1.0726    2.6561 H   0  0  0  0  0  0  0  0  0  0  0  0
   -4.7628    1.1701    3.9145 H   0  0  0  0  0  0  0  0  0  0  0  0
   -6.6472   -1.3338    1.2395 H   0  0  0  0  0  0  0  0  0  0  0  0
   -4.5967   -1.5456   -0.1566 H   0  0  0  0  0  0  0  0  0  0  0  0
  1  2  1  0
  2  3  1  0
  3  4  1  0
  4  5  1  0
  5  6  1  0
  6  7  1  0
  7  8  2  0
  7  9  1  0
  9 10  2  0
 10 11  1  0
 11 12  2  0
 12 13  1  0
 12 14  1  0
 14 15  2  0
  4 16  2  0
 16 17  1  0
 17 18  2  0
 18 19  1  0
 19 20  2  0
 20 21  1  0
 21 22  2  0
 22 23  1  0
 23 24  2  0
 18  3  1  0
 24 19  1  0
 15  9  1  0
  1 25  1  0
  1 26  1  0
  1 27  1  0
  2 28  1  0
  2 29  1  0
  6 30  1  0
  6 31  1  0
 10 32  1  0
 11 33  1  0
 13 34  1  0
 13 35  1  0
 13 36  1  0
 14 37  1  0
 15 38  1  0
 20 39  1  0
 21 40  1  0
 23 41  1  0
 24 42  1  0
M  END
$$$$
