
     RDKit          3D

 39 41  0  0  0  0  0  0  0  0999 V2000
   -3.2172   -1.9909    1.1178 C   0  0  0  0  0  0  0  0  0  0  0  0
   -2.7986   -0.7220    0.6220 O   0  0  0  0  0  0  0  0  0  0  0  0
   -3.7786    0.0798    0.0957 C   0  0  0  0  0  0  0  0  0  0  0  0
   -4.9891   -0.4056   -0.4126 C   0  0  0  0  0  0  0  0  0  0  0  0
   -5.9289    0.4692   -0.9615 C   0  0  0  0  0  0  0  0  0  0  0  0
   -5.6641    1.8331   -1.0151 C   0  0  0  0  0  0  0  0  0  0  0  0
   -4.4574    2.3242   -0.5207 C   0  0  0  0  0  0  0  0  0  0  0  0
   -3.4995    1.4578    0.0394 C   0  0  0  0  0  0  0  0  0  0  0  0
   -2.2056    2.0414    0.5629 C   0  0  0  0  0  0  0  0  0  0  0  0
   -1.0416    2.4450   -0.7732 S   0  0  0  0  0  0  0  0  0  0  0  0
    0.1063    1.1689   -0.6427 C   0  0  0  0  0  0  0  0  0  0  0  0
    1.4029    1.3023   -0.5142 N   0  0  0  0  0  0  0  0  0  0  0  0
    1.9023    0.0165   -0.4853 C   0  0  0  0  0  0  0  0  0  0  0  0
    3.3220   -0.2754   -0.3452 C   0  0  0  0  0  0  0  0  0  0  0  0
    4.2337    0.7893   -0.2454 C   0  0  0  0  0  0  0  0  0  0  0  0
    5.6063    0.5563   -0.1091 C   0  0  0  0  0  0  0  0  0  0  0  0
    6.0779   -0.7595   -0.0716 C   0  0  0  0  0  0  0  0  0  0  0  0
    7.5162   -1.0157    0.0719 N   0  0  0  0  0  4  0  0  0  0  0  0
    8.2724   -0.0374    0.1563 O   0  0  0  0  0  0  0  0  0  0  0  0
    7.8908   -2.1971    0.1013 O   0  0  0  0  0  1  0  0  0  0  0  0
    5.1870   -1.8354   -0.1697 C   0  0  0  0  0  0  0  0  0  0  0  0
    3.8153   -1.5887   -0.3059 C   0  0  0  0  0  0  0  0  0  0  0  0
    0.8734   -0.8961   -0.6058 C   0  0  0  0  0  0  0  0  0  0  0  0
   -0.2638   -0.1400   -0.7164 N   0  0  0  0  0  0  0  0  0  0  0  0
   -2.3893   -2.4099    1.6978 H   0  0  0  0  0  0  0  0  0  0  0  0
   -3.4259   -2.6788    0.2925 H   0  0  0  0  0  0  0  0  0  0  0  0
   -4.0804   -1.8986    1.7858 H   0  0  0  0  0  0  0  0  0  0  0  0
   -5.2267   -1.4644   -0.4093 H   0  0  0  0  0  0  0  0  0  0  0  0
   -6.8663    0.0833   -1.3545 H   0  0  0  0  0  0  0  0  0  0  0  0
   -6.3928    2.5146   -1.4468 H   0  0  0  0  0  0  0  0  0  0  0  0
   -4.2608    3.3938   -0.5774 H   0  0  0  0  0  0  0  0  0  0  0  0
   -2.4350    2.9743    1.0923 H   0  0  0  0  0  0  0  0  0  0  0  0
   -1.7405    1.3946    1.3148 H   0  0  0  0  0  0  0  0  0  0  0  0
    3.8718    1.8172   -0.2751 H   0  0  0  0  0  0  0  0  0  0  0  0
    6.2812    1.4063   -0.0352 H   0  0  0  0  0  0  0  0  0  0  0  0
    5.5388   -2.8647   -0.1427 H   0  0  0  0  0  0  0  0  0  0  0  0
    3.1437   -2.4400   -0.3806 H   0  0  0  0  0  0  0  0  0  0  0  0
    0.8355   -1.9749   -0.6261 H   0  0  0  0  0  0  0  0  0  0  0  0
   -1.2152   -0.4726   -0.8013 H   0  0  0  0  0  0  0  0  0  0  0  0
  1  2  1  0
  2  3  1  0
  3  4  2  0
  4  5  1  0
  5  6  2  0
  6  7  1  0
  7  8  2  0
  8  9  1  0
  9 10  1  0
 10 11  1  0
 11 12  2  0
 12 13  1  0
 13 14  1  0
 14 15  2  0
 15 16  1  0
 16 17  2  0
 17 18  1  0
 18 19  2  0
 18 20  1  0
 17 21  1  0
 21 22  2  0
 13 23  2  0
 23 24  1  0
  8  3  1  0
 24 11  1  0
 22 14  1  0
  1 25  1  0
  1 26  1  0
  1 27  1  0
  4 28  1  0
  5 29  1  0
  6 30  1  0
  7 31  1  0
  9 32  1  0
  9 33  1  0
 15 34  1  0
 16 35  1  0
 21 36  1  0
 22 37  1  0
 23 38  1  0
 24 39  1  0
M  CHG  2  18   1  20  -1
M  END
$$$$
