
     RDKit          3D

 55 56  0  0  0  0  0  0  0  0999 V2000
   -5.1610    1.8369    3.3618 C   0  0  0  0  0  0  0  0  0  0  0  0
   -4.7122    1.0813    2.1069 C   0  0  0  0  0  0  0  0  0  0  0  0
   -3.5082    1.6570    1.5271 N   0  0  0  0  0  0  0  0  0  0  0  0
   -2.2755    1.4829    2.1157 C   0  0  0  0  0  0  0  0  0  0  0  0
   -2.1139    0.9566    3.2122 O   0  0  0  0  0  0  0  0  0  0  0  0
   -1.1279    2.0710    1.3204 C   0  0  0  0  0  0  0  0  0  0  0  0
    0.0700    1.1302    1.2748 C   0  0  0  0  0  0  0  0  0  0  0  0
   -0.1675   -0.2295    0.0720 S   0  0  0  0  0  0  0  0  0  0  0  0
    0.3156    0.6094   -1.4818 C   0  0  0  0  0  0  0  0  0  0  0  0
    1.8276    0.6896   -1.6537 C   0  0  0  0  0  0  0  0  0  0  0  0
    2.4358   -0.6313   -2.0824 C   0  0  0  0  0  0  0  0  0  0  0  0
    1.8672   -1.4167   -2.8340 O   0  0  0  0  0  0  0  0  0  0  0  0
    3.7152   -0.8223   -1.6108 N   0  0  0  0  0  0  0  0  0  0  0  0
    4.4510   -2.0534   -1.8577 C   0  0  0  0  0  0  0  0  0  0  0  0
    4.9748   -2.1178   -3.2966 C   0  0  0  0  0  0  0  0  0  0  0  0
    5.5616   -2.1822   -0.8266 C   0  0  0  0  0  0  0  0  0  0  0  0
    5.4089   -3.0679    0.2525 C   0  0  0  0  0  0  0  0  0  0  0  0
    6.3980   -3.1766    1.2331 C   0  0  0  0  0  0  0  0  0  0  0  0
    7.5509   -2.3986    1.1524 C   0  0  0  0  0  0  0  0  0  0  0  0
    7.7134   -1.5074    0.0935 C   0  0  0  0  0  0  0  0  0  0  0  0
    6.7245   -1.3953   -0.8869 C   0  0  0  0  0  0  0  0  0  0  0  0
   -5.8120    1.0418    1.0583 C   0  0  0  0  0  0  0  0  0  0  0  0
   -6.3684    2.2185    0.5318 C   0  0  0  0  0  0  0  0  0  0  0  0
   -7.3737    2.1599   -0.4361 C   0  0  0  0  0  0  0  0  0  0  0  0
   -7.8299    0.9270   -0.8956 C   0  0  0  0  0  0  0  0  0  0  0  0
   -7.2794   -0.2483   -0.3925 C   0  0  0  0  0  0  0  0  0  0  0  0
   -6.2736   -0.1924    0.5752 C   0  0  0  0  0  0  0  0  0  0  0  0
   -6.0917    1.4176    3.7591 H   0  0  0  0  0  0  0  0  0  0  0  0
   -4.4066    1.7764    4.1527 H   0  0  0  0  0  0  0  0  0  0  0  0
   -5.3284    2.9002    3.1601 H   0  0  0  0  0  0  0  0  0  0  0  0
   -4.4652    0.0557    2.4087 H   0  0  0  0  0  0  0  0  0  0  0  0
   -3.5356    1.8610    0.5346 H   0  0  0  0  0  0  0  0  0  0  0  0
   -0.8391    2.9908    1.8457 H   0  0  0  0  0  0  0  0  0  0  0  0
   -1.4477    2.3726    0.3172 H   0  0  0  0  0  0  0  0  0  0  0  0
    0.9741    1.6874    1.0125 H   0  0  0  0  0  0  0  0  0  0  0  0
    0.2514    0.6741    2.2537 H   0  0  0  0  0  0  0  0  0  0  0  0
   -0.1161    1.6142   -1.4869 H   0  0  0  0  0  0  0  0  0  0  0  0
   -0.1455    0.0612   -2.3085 H   0  0  0  0  0  0  0  0  0  0  0  0
    2.0553    1.4009   -2.4560 H   0  0  0  0  0  0  0  0  0  0  0  0
    2.3139    1.0669   -0.7497 H   0  0  0  0  0  0  0  0  0  0  0  0
    4.0649   -0.2148   -0.8825 H   0  0  0  0  0  0  0  0  0  0  0  0
    3.7470   -2.8872   -1.7319 H   0  0  0  0  0  0  0  0  0  0  0  0
    5.5908   -1.2466   -3.5495 H   0  0  0  0  0  0  0  0  0  0  0  0
    4.1475   -2.1414   -4.0155 H   0  0  0  0  0  0  0  0  0  0  0  0
    5.5788   -3.0189   -3.4533 H   0  0  0  0  0  0  0  0  0  0  0  0
    4.5118   -3.6792    0.3393 H   0  0  0  0  0  0  0  0  0  0  0  0
    6.2677   -3.8677    2.0629 H   0  0  0  0  0  0  0  0  0  0  0  0
    8.3198   -2.4850    1.9160 H   0  0  0  0  0  0  0  0  0  0  0  0
    8.6107   -0.8969    0.0334 H   0  0  0  0  0  0  0  0  0  0  0  0
    6.8691   -0.6818   -1.6946 H   0  0  0  0  0  0  0  0  0  0  0  0
   -6.0258    3.1912    0.8772 H   0  0  0  0  0  0  0  0  0  0  0  0
   -7.8065    3.0783   -0.8262 H   0  0  0  0  0  0  0  0  0  0  0  0
   -8.6156    0.8828   -1.6460 H   0  0  0  0  0  0  0  0  0  0  0  0
   -7.6351   -1.2110   -0.7493 H   0  0  0  0  0  0  0  0  0  0  0  0
   -5.8553   -1.1230    0.9539 H   0  0  0  0  0  0  0  0  0  0  0  0
  1  2  1  0
  2  3  1  0
  3  4  1  0
  4  5  2  0
  4  6  1  0
  6  7  1  0
  7  8  1  0
  8  9  1  0
  9 10  1  0
 10 11  1  0
 11 12  2  0
 11 13  1  0
 13 14  1  0
 14 15  1  0
 14 16  1  0
 16 17  2  0
 17 18  1  0
 18 19  2  0
 19 20  1  0
 20 21  2  0
  2 22  1  0
 22 23  2  0
 23 24  1  0
 24 25  2  0
 25 26  1  0
 26 27  2  0
 21 16  1  0
 27 22  1  0
  1 28  1  0
  1 29  1  0
  1 30  1  0
  2 31  1  0
  3 32  1  0
  6 33  1  0
  6 34  1  0
  7 35  1  0
  7 36  1  0
  9 37  1  0
  9 38  1  0
 10 39  1  0
 10 40  1  0
 13 41  1  0
 14 42  1  0
 15 43  1  0
 15 44  1  0
 15 45  1  0
 17 46  1  0
 18 47  1  0
 19 48  1  0
 20 49  1  0
 21 50  1  0
 23 51  1  0
 24 52  1  0
 25 53  1  0
 26 54  1  0
 27 55  1  0
M  END
$$$$
