
     RDKit          3D

 56 59  0  0  0  0  0  0  0  0999 V2000
    7.1764   -0.6340   -1.8376 C   0  0  0  0  0  0  0  0  0  0  0  0
    7.3365    0.2337   -0.7202 O   0  0  0  0  0  0  0  0  0  0  0  0
    6.1454    0.5403   -0.0947 C   0  0  0  0  0  0  0  0  0  0  0  0
    6.2279    1.3825    0.9986 C   0  0  0  0  0  0  0  0  0  0  0  0
    5.0504    1.7192    1.6607 C   0  0  0  0  0  0  0  0  0  0  0  0
    3.8228    1.2095    1.2156 C   0  0  0  0  0  0  0  0  0  0  0  0
    2.5970    1.6089    1.9666 C   0  0  0  0  0  0  0  0  0  0  0  0
    2.6991    2.2878    2.9848 O   0  0  0  0  0  0  0  0  0  0  0  0
    1.3800    1.1968    1.4820 N   0  0  0  0  0  0  0  0  0  0  0  0
    0.1377    1.4506    2.1856 C   0  0  0  0  0  0  0  0  0  0  0  0
   -0.0638    0.4369    3.3379 C   0  0  0  0  0  0  0  0  0  0  0  0
   -0.5009   -0.9509    2.8246 C   0  0  0  0  0  0  0  0  0  0  0  0
   -1.8440   -0.8896    2.0702 C   0  0  0  0  0  0  0  0  0  0  0  0
   -1.8528    0.2686    1.1302 C   0  0  0  0  0  0  0  0  0  0  0  0
   -0.9587    1.3225    1.1838 C   0  0  0  0  0  0  0  0  0  0  0  0
   -1.2925    2.1257    0.0892 C   0  0  0  0  0  0  0  0  0  0  0  0
   -2.2927    1.6155   -0.6262 N   0  0  0  0  0  0  0  0  0  0  0  0
   -2.6679    0.4784    0.0250 N   0  0  0  0  0  0  0  0  0  0  0  0
   -3.7934   -0.2788   -0.4325 C   0  0  0  0  0  0  0  0  0  0  0  0
   -4.6059   -0.9130    0.5225 C   0  0  0  0  0  0  0  0  0  0  0  0
   -5.7441   -1.6173    0.1389 C   0  0  0  0  0  0  0  0  0  0  0  0
   -6.1006   -1.6808   -1.2018 C   0  0  0  0  0  0  0  0  0  0  0  0
   -5.3227   -1.0469   -2.1826 C   0  0  0  0  0  0  0  0  0  0  0  0
   -5.7767   -1.1464   -3.6165 C   0  0  0  0  0  0  0  0  0  0  0  0
   -4.1350   -0.3624   -1.8111 C   0  0  0  0  0  0  0  0  0  0  0  0
   -3.2638    0.2425   -2.8889 C   0  0  0  0  0  0  0  0  0  0  0  0
    3.8502    0.3658    0.1027 C   0  0  0  0  0  0  0  0  0  0  0  0
    2.6604   -0.1706   -0.3551 O   0  0  0  0  0  0  0  0  0  0  0  0
    2.7998   -0.9692   -1.5277 C   0  0  0  0  0  0  0  0  0  0  0  0
    4.9875    0.0245   -0.5555 N   0  0  0  0  0  0  0  0  0  0  0  0
    8.1680   -0.8151   -2.2637 H   0  0  0  0  0  0  0  0  0  0  0  0
    6.7633   -1.6018   -1.5325 H   0  0  0  0  0  0  0  0  0  0  0  0
    6.5595   -0.1704   -2.6152 H   0  0  0  0  0  0  0  0  0  0  0  0
    7.1856    1.7692    1.3290 H   0  0  0  0  0  0  0  0  0  0  0  0
    5.0935    2.3813    2.5235 H   0  0  0  0  0  0  0  0  0  0  0  0
    1.3583    0.5618    0.6899 H   0  0  0  0  0  0  0  0  0  0  0  0
    0.1683    2.4661    2.5971 H   0  0  0  0  0  0  0  0  0  0  0  0
    0.8529    0.3357    3.9302 H   0  0  0  0  0  0  0  0  0  0  0  0
   -0.8413    0.8147    4.0150 H   0  0  0  0  0  0  0  0  0  0  0  0
   -0.5914   -1.6456    3.6675 H   0  0  0  0  0  0  0  0  0  0  0  0
    0.2756   -1.3545    2.1623 H   0  0  0  0  0  0  0  0  0  0  0  0
   -2.6412   -0.7633    2.8110 H   0  0  0  0  0  0  0  0  0  0  0  0
   -2.0055   -1.8354    1.5429 H   0  0  0  0  0  0  0  0  0  0  0  0
   -0.8303    3.0489   -0.2373 H   0  0  0  0  0  0  0  0  0  0  0  0
   -4.4165   -0.8212    1.5859 H   0  0  0  0  0  0  0  0  0  0  0  0
   -6.3699   -2.0926    0.8899 H   0  0  0  0  0  0  0  0  0  0  0  0
   -7.0033   -2.2212   -1.4802 H   0  0  0  0  0  0  0  0  0  0  0  0
   -5.7774   -0.1594   -4.0900 H   0  0  0  0  0  0  0  0  0  0  0  0
   -5.1235   -1.8252   -4.1737 H   0  0  0  0  0  0  0  0  0  0  0  0
   -6.7996   -1.5321   -3.6877 H   0  0  0  0  0  0  0  0  0  0  0  0
   -2.2016    0.0975   -2.6663 H   0  0  0  0  0  0  0  0  0  0  0  0
   -3.4100   -0.2415   -3.8590 H   0  0  0  0  0  0  0  0  0  0  0  0
   -3.4868    1.3072   -3.0058 H   0  0  0  0  0  0  0  0  0  0  0  0
    1.8022   -1.3184   -1.8110 H   0  0  0  0  0  0  0  0  0  0  0  0
    3.4188   -1.8520   -1.3342 H   0  0  0  0  0  0  0  0  0  0  0  0
    3.1967   -0.3824   -2.3632 H   0  0  0  0  0  0  0  0  0  0  0  0
  1  2  1  0
  2  3  1  0
  3  4  2  0
  4  5  1  0
  5  6  2  0
  6  7  1  0
  7  8  2  0
  7  9  1  0
  9 10  1  0
 10 11  1  0
 11 12  1  0
 12 13  1  0
 13 14  1  0
 14 15  2  0
 15 16  1  0
 16 17  2  0
 17 18  1  0
 18 19  1  0
 19 20  2  0
 20 21  1  0
 21 22  2  0
 22 23  1  0
 23 24  1  0
 23 25  2  0
 25 26  1  0
  6 27  1  0
 27 28  1  0
 28 29  1  0
 27 30  2  0
 30  3  1  0
 15 10  1  0
 25 19  1  0
 18 14  1  0
  1 31  1  0
  1 32  1  0
  1 33  1  0
  4 34  1  0
  5 35  1  0
  9 36  1  0
 10 37  1  0
 11 38  1  0
 11 39  1  0
 12 40  1  0
 12 41  1  0
 13 42  1  0
 13 43  1  0
 16 44  1  0
 20 45  1  0
 21 46  1  0
 22 47  1  0
 24 48  1  0
 24 49  1  0
 24 50  1  0
 26 51  1  0
 26 52  1  0
 26 53  1  0
 29 54  1  0
 29 55  1  0
 29 56  1  0
M  END
$$$$
