
     RDKit          3D

 45 47  0  0  0  0  0  0  0  0999 V2000
   -3.5640    3.1613   -2.4988 C   0  0  0  0  0  0  0  0  0  0  0  0
   -3.8010    1.7967   -1.9201 C   0  0  0  0  0  0  0  0  0  0  0  0
   -5.0842    1.4094   -1.5247 C   0  0  0  0  0  0  0  0  0  0  0  0
   -5.2979    0.1505   -0.9670 C   0  0  0  0  0  0  0  0  0  0  0  0
   -4.2287   -0.7253   -0.7811 C   0  0  0  0  0  0  0  0  0  0  0  0
   -2.9263   -0.3444   -1.1288 C   0  0  0  0  0  0  0  0  0  0  0  0
   -1.7528   -1.2701   -0.9372 C   0  0  0  0  0  0  0  0  0  0  0  0
   -1.4624   -1.6608    0.7901 S   0  0  0  0  0  6  0  0  0  0  0  0
   -0.1366   -2.2569    0.8750 O   0  0  0  0  0  0  0  0  0  0  0  0
   -2.5949   -2.4350    1.2767 O   0  0  0  0  0  0  0  0  0  0  0  0
   -1.4590   -0.1076    1.6898 C   0  0  0  0  0  0  0  0  0  0  0  0
   -0.5179    0.8671    1.0926 C   0  0  0  0  0  0  0  0  0  0  0  0
   -0.6448    2.1827    0.6978 C   0  0  0  0  0  0  0  0  0  0  0  0
    0.6238    2.5773    0.2044 C   0  0  0  0  0  0  0  0  0  0  0  0
    1.4625    1.4897    0.3485 C   0  0  0  0  0  0  0  0  0  0  0  0
    2.8574    1.2964    0.0111 C   0  0  0  0  0  0  0  0  0  0  0  0
    3.5455    2.1465   -0.5472 O   0  0  0  0  0  0  0  0  0  0  0  0
    3.3415    0.0567    0.3554 N   0  0  0  0  0  0  0  0  0  0  0  0
    4.6768   -0.3579    0.0107 C   0  0  0  0  0  0  0  0  0  0  0  0
    4.9729   -1.6452    0.6811 C   0  0  0  0  0  0  0  0  0  0  0  0
    4.4715   -2.9249    0.5408 C   0  0  0  0  0  0  0  0  0  0  0  0
    5.1603   -3.7285    1.4807 C   0  0  0  0  0  0  0  0  0  0  0  0
    6.0376   -2.8922    2.1307 C   0  0  0  0  0  0  0  0  0  0  0  0
    5.9328   -1.6260    1.6507 O   0  0  0  0  0  0  0  0  0  0  0  0
    0.7641    0.4531    0.9061 O   0  0  0  0  0  0  0  0  0  0  0  0
   -2.7306    0.9165   -1.7178 C   0  0  0  0  0  0  0  0  0  0  0  0
   -2.7027    3.1562   -3.1757 H   0  0  0  0  0  0  0  0  0  0  0  0
   -4.4307    3.4974   -3.0782 H   0  0  0  0  0  0  0  0  0  0  0  0
   -3.3763    3.8789   -1.6928 H   0  0  0  0  0  0  0  0  0  0  0  0
   -5.9285    2.0821   -1.6593 H   0  0  0  0  0  0  0  0  0  0  0  0
   -6.3022   -0.1531   -0.6800 H   0  0  0  0  0  0  0  0  0  0  0  0
   -4.4300   -1.7094   -0.3589 H   0  0  0  0  0  0  0  0  0  0  0  0
   -1.9263   -2.2149   -1.4642 H   0  0  0  0  0  0  0  0  0  0  0  0
   -0.8272   -0.8348   -1.3281 H   0  0  0  0  0  0  0  0  0  0  0  0
   -2.4830    0.2768    1.7001 H   0  0  0  0  0  0  0  0  0  0  0  0
   -1.1692   -0.3406    2.7189 H   0  0  0  0  0  0  0  0  0  0  0  0
   -1.5435    2.7835    0.7493 H   0  0  0  0  0  0  0  0  0  0  0  0
    0.9087    3.5382   -0.2052 H   0  0  0  0  0  0  0  0  0  0  0  0
    2.6908   -0.6112    0.7578 H   0  0  0  0  0  0  0  0  0  0  0  0
    4.7266   -0.4718   -1.0779 H   0  0  0  0  0  0  0  0  0  0  0  0
    5.3859    0.4267    0.3008 H   0  0  0  0  0  0  0  0  0  0  0  0
    3.6973   -3.2348   -0.1483 H   0  0  0  0  0  0  0  0  0  0  0  0
    5.0309   -4.7859    1.6695 H   0  0  0  0  0  0  0  0  0  0  0  0
    6.7650   -3.0349    2.9183 H   0  0  0  0  0  0  0  0  0  0  0  0
   -1.7311    1.2224   -2.0270 H   0  0  0  0  0  0  0  0  0  0  0  0
  1  2  1  0
  2  3  2  0
  3  4  1  0
  4  5  2  0
  5  6  1  0
  6  7  1  0
  7  8  1  0
  8  9  2  0
  8 10  2  0
  8 11  1  0
 11 12  1  0
 12 13  2  0
 13 14  1  0
 14 15  2  0
 15 16  1  0
 16 17  2  0
 16 18  1  0
 18 19  1  0
 19 20  1  0
 20 21  2  0
 21 22  1  0
 22 23  2  0
 23 24  1  0
 15 25  1  0
  6 26  2  0
 26  2  1  0
 25 12  1  0
 24 20  1  0
  1 27  1  0
  1 28  1  0
  1 29  1  0
  3 30  1  0
  4 31  1  0
  5 32  1  0
  7 33  1  0
  7 34  1  0
 11 35  1  0
 11 36  1  0
 13 37  1  0
 14 38  1  0
 18 39  1  0
 19 40  1  0
 19 41  1  0
 21 42  1  0
 22 43  1  0
 23 44  1  0
 26 45  1  0
M  END
$$$$
