
     RDKit          3D

 38 40  0  0  0  0  0  0  0  0999 V2000
   -0.3212    1.5799   -0.5739 O   0  0  0  0  0  0  0  0  0  0  0  0
   -0.6107    0.8076   -1.4765 C   0  0  0  0  0  0  0  0  0  0  0  0
   -1.9553    0.1434   -1.6801 C   0  0  0  0  0  0  0  0  0  0  0  0
   -2.7636    0.0115   -0.4107 C   0  0  0  0  0  0  0  0  0  0  0  0
   -2.6672   -1.1469    0.3718 C   0  0  0  0  0  0  0  0  0  0  0  0
   -3.4019   -1.2669    1.5510 C   0  0  0  0  0  0  0  0  0  0  0  0
   -4.2337   -0.2272    1.9656 C   0  0  0  0  0  0  0  0  0  0  0  0
   -4.3329    0.9499    1.2089 C   0  0  0  0  0  0  0  0  0  0  0  0
   -5.2443    2.0665    1.6544 C   0  0  0  0  0  0  0  0  0  0  0  0
   -6.5346    1.8643    1.2666 F   0  0  0  0  0  0  0  0  0  0  0  0
   -4.8931    3.2848    1.1552 F   0  0  0  0  0  0  0  0  0  0  0  0
   -5.2822    2.2170    3.0083 F   0  0  0  0  0  0  0  0  0  0  0  0
   -3.5965    1.0561    0.0174 C   0  0  0  0  0  0  0  0  0  0  0  0
    0.2312    0.4392   -2.4804 O   0  0  0  0  0  0  0  0  0  0  0  0
    1.5592    0.9632   -2.3863 C   0  0  0  0  0  0  0  0  0  0  0  0
    2.3064    0.3163   -1.3397 N   0  0  0  0  0  0  0  0  0  0  0  0
    3.1958    0.9875   -0.5477 C   0  0  0  0  0  0  0  0  0  0  0  0
    3.4920    2.1668   -0.5483 O   0  0  0  0  0  0  0  0  0  0  0  0
    3.8342   -0.0160    0.3012 C   0  0  0  0  0  0  0  0  0  0  0  0
    4.7675    0.1240    1.3093 C   0  0  0  0  0  0  0  0  0  0  0  0
    5.2139   -1.0459    1.9323 C   0  0  0  0  0  0  0  0  0  0  0  0
    4.7286   -2.3091    1.5330 C   0  0  0  0  0  0  0  0  0  0  0  0
    3.7883   -2.4241    0.5040 C   0  0  0  0  0  0  0  0  0  0  0  0
    3.3589   -1.2540   -0.0909 C   0  0  0  0  0  0  0  0  0  0  0  0
    2.4131   -1.0362   -1.1841 C   0  0  0  0  0  0  0  0  0  0  0  0
    1.8795   -1.9339   -1.8074 O   0  0  0  0  0  0  0  0  0  0  0  0
   -2.5156    0.7231   -2.4229 H   0  0  0  0  0  0  0  0  0  0  0  0
   -1.7988   -0.8570   -2.1026 H   0  0  0  0  0  0  0  0  0  0  0  0
   -2.0180   -1.9662    0.0677 H   0  0  0  0  0  0  0  0  0  0  0  0
   -3.3237   -2.1717    2.1491 H   0  0  0  0  0  0  0  0  0  0  0  0
   -4.8019   -0.3341    2.8885 H   0  0  0  0  0  0  0  0  0  0  0  0
   -3.6660    1.9688   -0.5748 H   0  0  0  0  0  0  0  0  0  0  0  0
    2.0595    0.7425   -3.3353 H   0  0  0  0  0  0  0  0  0  0  0  0
    1.5443    2.0522   -2.2604 H   0  0  0  0  0  0  0  0  0  0  0  0
    5.1362    1.1019    1.6019 H   0  0  0  0  0  0  0  0  0  0  0  0
    5.9476   -0.9830    2.7344 H   0  0  0  0  0  0  0  0  0  0  0  0
    5.0942   -3.2049    2.0323 H   0  0  0  0  0  0  0  0  0  0  0  0
    3.4107   -3.3895    0.1833 H   0  0  0  0  0  0  0  0  0  0  0  0
  1  2  2  0
  2  3  1  0
  3  4  1  0
  4  5  2  0
  5  6  1  0
  6  7  2  0
  7  8  1  0
  8  9  1  0
  9 10  1  0
  9 11  1  0
  9 12  1  0
  8 13  2  0
  2 14  1  0
 14 15  1  0
 15 16  1  0
 16 17  1  0
 17 18  2  0
 17 19  1  0
 19 20  2  0
 20 21  1  0
 21 22  2  0
 22 23  1  0
 23 24  2  0
 24 25  1  0
 25 26  2  0
 13  4  1  0
 25 16  1  0
 24 19  1  0
  3 27  1  0
  3 28  1  0
  5 29  1  0
  6 30  1  0
  7 31  1  0
 13 32  1  0
 15 33  1  0
 15 34  1  0
 20 35  1  0
 21 36  1  0
 22 37  1  0
 23 38  1  0
M  END
$$$$
