
     RDKit          3D

 42 44  0  0  0  0  0  0  0  0999 V2000
    4.9170    1.0380   -1.7741 C   0  0  0  0  0  0  0  0  0  0  0  0
    3.9095   -0.1016   -1.7279 C   0  0  0  0  0  0  0  0  0  0  0  0
    3.9442   -0.8083   -0.3742 C   0  0  0  0  0  0  0  0  0  0  0  0
    2.7482   -2.1866   -0.2991 S   0  0  0  0  0  0  0  0  0  0  0  0
    1.2056   -1.3131   -0.0532 C   0  0  0  0  0  0  0  0  0  0  0  0
    0.0295   -2.0291   -0.1198 C   0  0  0  0  0  0  0  0  0  0  0  0
   -1.1486   -1.3416    0.0822 C   0  0  0  0  0  0  0  0  0  0  0  0
   -2.3719   -1.9680    0.0205 N   0  0  0  0  0  0  0  0  0  0  0  0
   -2.5676   -3.3959    0.2443 C   0  0  0  0  0  0  0  0  0  0  0  0
   -4.0020   -3.5018    0.7642 C   0  0  0  0  0  0  0  0  0  0  0  0
   -4.6819   -2.2669    0.1947 C   0  0  0  0  0  0  0  0  0  0  0  0
   -3.5872   -1.2092    0.2936 C   0  0  0  0  0  0  0  0  0  0  0  0
   -1.1267   -0.0178    0.3128 N   0  0  0  0  0  0  0  0  0  0  0  0
    0.0631    0.6086    0.3662 C   0  0  0  0  0  0  0  0  0  0  0  0
    0.0665    2.0641    0.6228 C   0  0  0  0  0  0  0  0  0  0  0  0
    1.2679    2.7973    0.6934 C   0  0  0  0  0  0  0  0  0  0  0  0
    1.2728    4.1752    0.9348 C   0  0  0  0  0  0  0  0  0  0  0  0
    0.0720    4.8554    1.1119 C   0  0  0  0  0  0  0  0  0  0  0  0
   -1.1313    4.1599    1.0477 C   0  0  0  0  0  0  0  0  0  0  0  0
   -1.1317    2.7820    0.8060 C   0  0  0  0  0  0  0  0  0  0  0  0
    1.2463    0.0007    0.1987 N   0  0  0  0  0  0  0  0  0  0  0  0
    4.8868    1.5313   -2.7506 H   0  0  0  0  0  0  0  0  0  0  0  0
    5.9347    0.6694   -1.6109 H   0  0  0  0  0  0  0  0  0  0  0  0
    4.6951    1.7878   -1.0079 H   0  0  0  0  0  0  0  0  0  0  0  0
    2.9143    0.3069   -1.9349 H   0  0  0  0  0  0  0  0  0  0  0  0
    4.1430   -0.8117   -2.5305 H   0  0  0  0  0  0  0  0  0  0  0  0
    4.9379   -1.2443   -0.2217 H   0  0  0  0  0  0  0  0  0  0  0  0
    3.7794   -0.1103    0.4532 H   0  0  0  0  0  0  0  0  0  0  0  0
    0.0388   -3.0879   -0.3378 H   0  0  0  0  0  0  0  0  0  0  0  0
   -1.8729   -3.8168    0.9797 H   0  0  0  0  0  0  0  0  0  0  0  0
   -2.4581   -3.9364   -0.7023 H   0  0  0  0  0  0  0  0  0  0  0  0
   -4.4882   -4.4337    0.4621 H   0  0  0  0  0  0  0  0  0  0  0  0
   -4.0055   -3.4557    1.8601 H   0  0  0  0  0  0  0  0  0  0  0  0
   -4.9505   -2.4377   -0.8548 H   0  0  0  0  0  0  0  0  0  0  0  0
   -5.5863   -1.9879    0.7422 H   0  0  0  0  0  0  0  0  0  0  0  0
   -3.7506   -0.4065   -0.4334 H   0  0  0  0  0  0  0  0  0  0  0  0
   -3.5632   -0.7850    1.3049 H   0  0  0  0  0  0  0  0  0  0  0  0
    2.2223    2.2909    0.5584 H   0  0  0  0  0  0  0  0  0  0  0  0
    2.2161    4.7127    0.9835 H   0  0  0  0  0  0  0  0  0  0  0  0
    0.0739    5.9258    1.2994 H   0  0  0  0  0  0  0  0  0  0  0  0
   -2.0729    4.6852    1.1844 H   0  0  0  0  0  0  0  0  0  0  0  0
   -2.0877    2.2622    0.7594 H   0  0  0  0  0  0  0  0  0  0  0  0
  1  2  1  0
  2  3  1  0
  3  4  1  0
  4  5  1  0
  5  6  2  0
  6  7  1  0
  7  8  1  0
  8  9  1  0
  9 10  1  0
 10 11  1  0
 11 12  1  0
  7 13  2  0
 13 14  1  0
 14 15  1  0
 15 16  2  0
 16 17  1  0
 17 18  2  0
 18 19  1  0
 19 20  2  0
 14 21  2  0
 21  5  1  0
 12  8  1  0
 20 15  1  0
  1 22  1  0
  1 23  1  0
  1 24  1  0
  2 25  1  0
  2 26  1  0
  3 27  1  0
  3 28  1  0
  6 29  1  0
  9 30  1  0
  9 31  1  0
 10 32  1  0
 10 33  1  0
 11 34  1  0
 11 35  1  0
 12 36  1  0
 12 37  1  0
 16 38  1  0
 17 39  1  0
 18 40  1  0
 19 41  1  0
 20 42  1  0
M  END
$$$$
