
     RDKit          3D

 54 56  0  0  0  0  0  0  0  0999 V2000
    7.0206    1.8259    0.4163 C   0  0  0  0  0  0  0  0  0  0  0  0
    6.1332    1.1714   -0.6375 C   0  0  0  0  0  0  0  0  0  0  0  0
    5.0205    0.4290   -0.0408 N   0  0  0  0  0  0  0  0  0  0  0  0
    4.0376    1.2980    0.6464 C   0  0  0  0  0  0  0  0  0  0  0  0
    2.5405    1.0154    0.3543 C   0  0  0  0  0  0  0  0  0  0  0  0
    2.2599   -0.4251    0.3628 N   0  0  0  0  0  0  0  0  0  0  0  0
    0.9148   -0.7937    0.3550 C   0  0  0  0  0  0  0  0  0  0  0  0
    0.5437   -2.1182    0.4777 C   0  0  0  0  0  0  0  0  0  0  0  0
   -0.8039   -2.4066    0.4727 C   0  0  0  0  0  0  0  0  0  0  0  0
   -1.3057   -4.1165    0.6310 S   0  0  0  0  0  0  0  0  0  0  0  0
   -3.1198   -4.0090    0.3670 C   0  0  0  0  0  0  0  0  0  0  0  0
   -3.4377   -3.8626   -1.1190 C   0  0  0  0  0  0  0  0  0  0  0  0
   -3.7564   -5.2829    0.9213 C   0  0  0  0  0  0  0  0  0  0  0  0
   -1.7488   -1.4646    0.3674 N   0  0  0  0  0  0  0  0  0  0  0  0
   -1.3176   -0.1988    0.2704 C   0  0  0  0  0  0  0  0  0  0  0  0
   -2.3337    0.8682    0.1553 C   0  0  0  0  0  0  0  0  0  0  0  0
   -3.7093    0.5765    0.1249 C   0  0  0  0  0  0  0  0  0  0  0  0
   -4.6689    1.5899    0.0142 C   0  0  0  0  0  0  0  0  0  0  0  0
   -4.2858    2.9277   -0.0689 C   0  0  0  0  0  0  0  0  0  0  0  0
   -5.3197    3.8156   -0.1730 O   0  0  0  0  0  0  0  0  0  0  0  0
   -4.9775    5.1935   -0.2508 C   0  0  0  0  0  0  0  0  0  0  0  0
   -2.9303    3.2438   -0.0407 C   0  0  0  0  0  0  0  0  0  0  0  0
   -1.9711    2.2260    0.0698 C   0  0  0  0  0  0  0  0  0  0  0  0
   -0.0219    0.1654    0.2634 N   0  0  0  0  0  0  0  0  0  0  0  0
    3.2047   -1.2672   -0.3934 C   0  0  0  0  0  0  0  0  0  0  0  0
    4.3601   -0.4484   -1.0183 C   0  0  0  0  0  0  0  0  0  0  0  0
    7.4013    1.0831    1.1255 H   0  0  0  0  0  0  0  0  0  0  0  0
    6.4880    2.5978    0.9801 H   0  0  0  0  0  0  0  0  0  0  0  0
    7.8817    2.3017   -0.0645 H   0  0  0  0  0  0  0  0  0  0  0  0
    5.7698    1.9274   -1.3445 H   0  0  0  0  0  0  0  0  0  0  0  0
    6.7676    0.4810   -1.2074 H   0  0  0  0  0  0  0  0  0  0  0  0
    4.2072    1.1755    1.7234 H   0  0  0  0  0  0  0  0  0  0  0  0
    4.2104    2.3583    0.4224 H   0  0  0  0  0  0  0  0  0  0  0  0
    1.9505    1.5349    1.1201 H   0  0  0  0  0  0  0  0  0  0  0  0
    2.2744    1.4410   -0.6224 H   0  0  0  0  0  0  0  0  0  0  0  0
    1.2796   -2.9021    0.5951 H   0  0  0  0  0  0  0  0  0  0  0  0
   -3.5281   -3.1607    0.9261 H   0  0  0  0  0  0  0  0  0  0  0  0
   -3.0105   -2.9483   -1.5426 H   0  0  0  0  0  0  0  0  0  0  0  0
   -3.0646   -4.7138   -1.6999 H   0  0  0  0  0  0  0  0  0  0  0  0
   -4.5217   -3.8120   -1.2712 H   0  0  0  0  0  0  0  0  0  0  0  0
   -3.3954   -6.1802    0.4056 H   0  0  0  0  0  0  0  0  0  0  0  0
   -4.8448   -5.2487    0.7979 H   0  0  0  0  0  0  0  0  0  0  0  0
   -3.5549   -5.3958    1.9925 H   0  0  0  0  0  0  0  0  0  0  0  0
   -4.0506   -0.4553    0.1881 H   0  0  0  0  0  0  0  0  0  0  0  0
   -5.7243    1.3292   -0.0062 H   0  0  0  0  0  0  0  0  0  0  0  0
   -5.9076    5.7654   -0.3242 H   0  0  0  0  0  0  0  0  0  0  0  0
   -4.4549    5.5225    0.6535 H   0  0  0  0  0  0  0  0  0  0  0  0
   -4.3861    5.4032   -1.1483 H   0  0  0  0  0  0  0  0  0  0  0  0
   -2.5785    4.2680   -0.1019 H   0  0  0  0  0  0  0  0  0  0  0  0
   -0.9188    2.5065    0.0901 H   0  0  0  0  0  0  0  0  0  0  0  0
    3.6220   -2.0185    0.2882 H   0  0  0  0  0  0  0  0  0  0  0  0
    2.7007   -1.7988   -1.2108 H   0  0  0  0  0  0  0  0  0  0  0  0
    3.9731    0.1432   -1.8589 H   0  0  0  0  0  0  0  0  0  0  0  0
    5.0870   -1.1572   -1.4333 H   0  0  0  0  0  0  0  0  0  0  0  0
  1  2  1  0
  2  3  1  0
  3  4  1  0
  4  5  1  0
  5  6  1  0
  6  7  1  0
  7  8  2  0
  8  9  1  0
  9 10  1  0
 10 11  1  0
 11 12  1  0
 11 13  1  0
  9 14  2  0
 14 15  1  0
 15 16  1  0
 16 17  2  0
 17 18  1  0
 18 19  2  0
 19 20  1  0
 20 21  1  0
 19 22  1  0
 22 23  2  0
 15 24  2  0
  6 25  1  0
 25 26  1  0
 26  3  1  0
 24  7  1  0
 23 16  1  0
  1 27  1  0
  1 28  1  0
  1 29  1  0
  2 30  1  0
  2 31  1  0
  4 32  1  0
  4 33  1  0
  5 34  1  0
  5 35  1  0
  8 36  1  0
 11 37  1  0
 12 38  1  0
 12 39  1  0
 12 40  1  0
 13 41  1  0
 13 42  1  0
 13 43  1  0
 17 44  1  0
 18 45  1  0
 21 46  1  0
 21 47  1  0
 21 48  1  0
 22 49  1  0
 23 50  1  0
 25 51  1  0
 25 52  1  0
 26 53  1  0
 26 54  1  0
M  END
$$$$
