
     RDKit          3D

 39 41  0  0  0  0  0  0  0  0999 V2000
    0.1231    3.4091    1.2682 S   0  0  0  0  0  0  0  0  0  0  0  0
    0.2069    1.8273    0.7228 C   0  0  0  0  0  0  0  0  0  0  0  0
    1.4235    1.2064    0.8184 N   0  0  0  0  0  0  0  0  0  0  0  0
    1.5835   -0.1513    1.3409 C   0  0  0  0  0  0  0  0  0  0  0  0
    3.0090   -0.6725    1.1552 C   0  0  0  0  0  0  0  0  0  0  0  0
    3.4449   -0.8285   -0.2935 C   0  0  0  0  0  0  0  0  0  0  0  0
    4.9441   -0.7168   -0.1693 C   0  0  0  0  0  0  0  0  0  0  0  0
    5.0915    0.3478    0.8969 C   0  0  0  0  0  0  0  0  0  0  0  0
    3.9582    0.2247    1.7697 O   0  0  0  0  0  0  0  0  0  0  0  0
   -0.8364    1.0890    0.1846 N   0  0  0  0  0  0  0  0  0  0  0  0
   -0.6127    0.3254   -1.0469 C   0  0  0  0  0  0  0  0  0  0  0  0
   -1.4520   -0.9495   -1.0687 C   0  0  0  0  0  0  0  0  0  0  0  0
   -2.8959   -0.6785   -0.7327 C   0  0  0  0  0  0  0  0  0  0  0  0
   -3.8807   -1.6160   -1.0738 C   0  0  0  0  0  0  0  0  0  0  0  0
   -5.2156   -1.3896   -0.7409 C   0  0  0  0  0  0  0  0  0  0  0  0
   -5.5765   -0.2304   -0.0592 C   0  0  0  0  0  0  0  0  0  0  0  0
   -4.6017    0.7025    0.2950 C   0  0  0  0  0  0  0  0  0  0  0  0
   -3.2531    0.4848   -0.0270 C   0  0  0  0  0  0  0  0  0  0  0  0
   -2.2269    1.5301    0.3538 C   0  0  0  0  0  0  0  0  0  0  0  0
    2.1194    1.8352    1.2104 H   0  0  0  0  0  0  0  0  0  0  0  0
    0.8598   -0.8322    0.8888 H   0  0  0  0  0  0  0  0  0  0  0  0
    1.3507   -0.0884    2.4106 H   0  0  0  0  0  0  0  0  0  0  0  0
    3.1052   -1.6353    1.6726 H   0  0  0  0  0  0  0  0  0  0  0  0
    3.0704   -0.0104   -0.9193 H   0  0  0  0  0  0  0  0  0  0  0  0
    3.1151   -1.7731   -0.7348 H   0  0  0  0  0  0  0  0  0  0  0  0
    5.4451   -0.4559   -1.1051 H   0  0  0  0  0  0  0  0  0  0  0  0
    5.3588   -1.6663    0.1894 H   0  0  0  0  0  0  0  0  0  0  0  0
    6.0143    0.2402    1.4737 H   0  0  0  0  0  0  0  0  0  0  0  0
    5.0668    1.3518    0.4601 H   0  0  0  0  0  0  0  0  0  0  0  0
    0.4441    0.0837   -1.1920 H   0  0  0  0  0  0  0  0  0  0  0  0
   -0.8890    0.9813   -1.8837 H   0  0  0  0  0  0  0  0  0  0  0  0
   -1.3743   -1.4102   -2.0602 H   0  0  0  0  0  0  0  0  0  0  0  0
   -1.0624   -1.6632   -0.3330 H   0  0  0  0  0  0  0  0  0  0  0  0
   -3.6117   -2.5284   -1.6009 H   0  0  0  0  0  0  0  0  0  0  0  0
   -5.9745   -2.1190   -1.0119 H   0  0  0  0  0  0  0  0  0  0  0  0
   -6.6172   -0.0531    0.1990 H   0  0  0  0  0  0  0  0  0  0  0  0
   -4.8986    1.6035    0.8279 H   0  0  0  0  0  0  0  0  0  0  0  0
   -2.3805    2.4156   -0.2757 H   0  0  0  0  0  0  0  0  0  0  0  0
   -2.3745    1.8104    1.4034 H   0  0  0  0  0  0  0  0  0  0  0  0
  1  2  2  0
  2  3  1  0
  3  4  1  0
  4  5  1  0
  5  6  1  0
  6  7  1  0
  7  8  1  0
  8  9  1  0
  2 10  1  0
 10 11  1  0
 11 12  1  0
 12 13  1  0
 13 14  2  0
 14 15  1  0
 15 16  2  0
 16 17  1  0
 17 18  2  0
 18 19  1  0
  9  5  1  0
 19 10  1  0
 18 13  1  0
  3 20  1  0
  4 21  1  0
  4 22  1  0
  5 23  1  0
  6 24  1  0
  6 25  1  0
  7 26  1  0
  7 27  1  0
  8 28  1  0
  8 29  1  0
 11 30  1  0
 11 31  1  0
 12 32  1  0
 12 33  1  0
 14 34  1  0
 15 35  1  0
 16 36  1  0
 17 37  1  0
 19 38  1  0
 19 39  1  0
M  END
$$$$
