
     RDKit          3D

 63 66  0  0  0  0  0  0  0  0999 V2000
    9.4040    2.7598    0.2576 C   0  0  0  0  0  0  0  0  0  0  0  0
    8.0387    3.0455   -0.0165 O   0  0  0  0  0  0  0  0  0  0  0  0
    7.1325    2.0327    0.1544 C   0  0  0  0  0  0  0  0  0  0  0  0
    7.4340    0.7808    0.6950 C   0  0  0  0  0  0  0  0  0  0  0  0
    6.4394   -0.1995    0.8290 C   0  0  0  0  0  0  0  0  0  0  0  0
    5.1280    0.0547    0.4291 C   0  0  0  0  0  0  0  0  0  0  0  0
    4.0786   -0.8818    0.5173 N   0  0  0  0  0  0  0  0  0  0  0  0
    4.1397   -2.1762    0.9914 C   0  0  0  0  0  0  0  0  0  0  0  0
    5.1187   -2.7460    1.4596 O   0  0  0  0  0  0  0  0  0  0  0  0
    2.8582   -2.8917    0.8893 C   0  0  0  0  0  0  0  0  0  0  0  0
    2.6037   -4.1565    1.2652 C   0  0  0  0  0  0  0  0  0  0  0  0
    1.3091   -4.5676    1.0188 N   0  0  0  0  0  0  0  0  0  0  0  0
    0.6556   -3.4343    0.5474 N   0  0  0  0  0  0  0  0  0  0  0  0
   -0.6817   -3.3433    0.2749 C   0  0  0  0  0  0  0  0  0  0  0  0
   -1.5271   -4.2107    0.4567 O   0  0  0  0  0  0  0  0  0  0  0  0
   -1.0388   -2.0072   -0.2594 C   0  0  0  0  0  0  0  0  0  0  0  0
   -0.0977   -1.0453   -0.3725 C   0  0  0  0  0  0  0  0  0  0  0  0
   -0.4183    0.3511   -0.9129 C   0  0  0  0  0  0  0  0  0  0  0  0
   -1.1931    0.3432   -2.2513 C   0  0  0  0  0  0  0  0  0  0  0  0
   -2.3858    1.2931   -2.2462 C   0  0  0  0  0  0  0  0  0  0  0  0
   -3.2279    1.0431   -1.0869 N   0  0  0  0  0  0  0  0  0  0  0  0
   -4.5962    0.8962   -1.2435 C   0  0  0  0  0  0  0  0  0  0  0  0
   -5.1652    0.9419   -2.3255 O   0  0  0  0  0  0  0  0  0  0  0  0
   -5.2176    0.6838   -0.0545 O   0  0  0  0  0  0  0  0  0  0  0  0
   -6.6517    0.4735    0.0121 C   0  0  0  0  0  0  0  0  0  0  0  0
   -6.9442    0.2704    1.5074 C   0  0  0  0  0  0  0  0  0  0  0  0
   -7.4216    1.7071   -0.4736 C   0  0  0  0  0  0  0  0  0  0  0  0
   -7.0645   -0.7957   -0.7423 C   0  0  0  0  0  0  0  0  0  0  0  0
   -2.5972    1.0426    0.2273 C   0  0  0  0  0  0  0  0  0  0  0  0
   -1.0850    1.2340    0.1597 C   0  0  0  0  0  0  0  0  0  0  0  0
    1.2324   -1.2190   -0.0128 N   0  0  0  0  0  0  0  0  0  0  0  0
    1.5496   -2.3930    0.4192 C   0  0  0  0  0  0  0  0  0  0  0  0
    4.8184    1.3103   -0.1013 C   0  0  0  0  0  0  0  0  0  0  0  0
    5.8101    2.2887   -0.2363 C   0  0  0  0  0  0  0  0  0  0  0  0
    5.3470    3.8147   -0.9089 Cl  0  0  0  0  0  0  0  0  0  0  0  0
    9.5559    2.5525    1.3219 H   0  0  0  0  0  0  0  0  0  0  0  0
    9.7695    1.9355   -0.3638 H   0  0  0  0  0  0  0  0  0  0  0  0
    9.9882    3.6502    0.0051 H   0  0  0  0  0  0  0  0  0  0  0  0
    8.4350    0.5260    1.0281 H   0  0  0  0  0  0  0  0  0  0  0  0
    6.7313   -1.1569    1.2508 H   0  0  0  0  0  0  0  0  0  0  0  0
    3.1712   -0.5646    0.1750 H   0  0  0  0  0  0  0  0  0  0  0  0
    3.3009   -4.8501    1.7193 H   0  0  0  0  0  0  0  0  0  0  0  0
    0.8383   -5.0348    1.7965 H   0  0  0  0  0  0  0  0  0  0  0  0
   -2.0770   -1.8712   -0.5342 H   0  0  0  0  0  0  0  0  0  0  0  0
    0.5504    0.8258   -1.1325 H   0  0  0  0  0  0  0  0  0  0  0  0
   -1.5453   -0.6627   -2.5086 H   0  0  0  0  0  0  0  0  0  0  0  0
   -0.5132    0.6312   -3.0635 H   0  0  0  0  0  0  0  0  0  0  0  0
   -2.0551    2.3373   -2.2004 H   0  0  0  0  0  0  0  0  0  0  0  0
   -2.9516    1.1777   -3.1764 H   0  0  0  0  0  0  0  0  0  0  0  0
   -6.3822   -0.5852    1.9018 H   0  0  0  0  0  0  0  0  0  0  0  0
   -6.6254    1.1439    2.0886 H   0  0  0  0  0  0  0  0  0  0  0  0
   -8.0096    0.0999    1.6953 H   0  0  0  0  0  0  0  0  0  0  0  0
   -8.4931    1.6144   -0.2656 H   0  0  0  0  0  0  0  0  0  0  0  0
   -7.3114    1.8624   -1.5513 H   0  0  0  0  0  0  0  0  0  0  0  0
   -7.0485    2.6147    0.0146 H   0  0  0  0  0  0  0  0  0  0  0  0
   -6.9410   -0.6891   -1.8240 H   0  0  0  0  0  0  0  0  0  0  0  0
   -6.4440   -1.6466   -0.4381 H   0  0  0  0  0  0  0  0  0  0  0  0
   -8.1149   -1.0447   -0.5564 H   0  0  0  0  0  0  0  0  0  0  0  0
   -3.0466    1.8455    0.8232 H   0  0  0  0  0  0  0  0  0  0  0  0
   -2.8472    0.0986    0.7237 H   0  0  0  0  0  0  0  0  0  0  0  0
   -0.8807    2.2853   -0.0862 H   0  0  0  0  0  0  0  0  0  0  0  0
   -0.6413    1.0657    1.1489 H   0  0  0  0  0  0  0  0  0  0  0  0
    3.8031    1.5402   -0.4160 H   0  0  0  0  0  0  0  0  0  0  0  0
  1  2  1  0
  2  3  1  0
  3  4  2  0
  4  5  1  0
  5  6  2  0
  6  7  1  0
  7  8  1  0
  8  9  2  0
  8 10  1  0
 10 11  2  0
 11 12  1  0
 12 13  1  0
 13 14  1  0
 14 15  2  0
 14 16  1  0
 16 17  2  0
 17 18  1  0
 18 19  1  0
 19 20  1  0
 20 21  1  0
 21 22  1  0
 22 23  2  0
 22 24  1  0
 24 25  1  0
 25 26  1  0
 25 27  1  0
 25 28  1  0
 21 29  1  0
 29 30  1  0
 17 31  1  0
 31 32  2  0
  6 33  1  0
 33 34  2  0
 34 35  1  0
 34  3  1  0
 32 10  1  0
 32 13  1  0
 30 18  1  0
  1 36  1  0
  1 37  1  0
  1 38  1  0
  4 39  1  0
  5 40  1  0
  7 41  1  0
 11 42  1  0
 12 43  1  0
 16 44  1  0
 18 45  1  0
 19 46  1  0
 19 47  1  0
 20 48  1  0
 20 49  1  0
 26 50  1  0
 26 51  1  0
 26 52  1  0
 27 53  1  0
 27 54  1  0
 27 55  1  0
 28 56  1  0
 28 57  1  0
 28 58  1  0
 29 59  1  0
 29 60  1  0
 30 61  1  0
 30 62  1  0
 33 63  1  0
M  END
$$$$
