
     RDKit          3D

 29 31  0  0  0  0  0  0  0  0999 V2000
    1.2093    1.9973    2.6184 N   0  0  0  0  0  0  0  0  0  0  0  0
    0.9190    1.2998    1.7374 C   0  0  0  0  0  0  0  0  0  0  0  0
    0.4858    0.4665    0.6638 C   0  0  0  0  0  0  0  0  0  0  0  0
    1.3377   -0.2399   -0.1074 C   0  0  0  0  0  0  0  0  0  0  0  0
    2.7605   -0.2664   -0.0092 C   0  0  0  0  0  0  0  0  0  0  0  0
    3.6947    0.6585    0.4610 C   0  0  0  0  0  0  0  0  0  0  0  0
    4.9937    0.1083    0.3038 C   0  0  0  0  0  0  0  0  0  0  0  0
    4.7904   -1.1181   -0.2688 C   0  0  0  0  0  0  0  0  0  0  0  0
    5.6992   -2.1416   -0.6768 N   0  0  0  0  0  4  0  0  0  0  0  0
    6.9021   -1.9083   -0.4949 O   0  0  0  0  0  0  0  0  0  0  0  0
    5.2279   -3.1717   -1.1745 O   0  0  0  0  0  1  0  0  0  0  0  0
    3.4729   -1.3582   -0.4732 O   0  0  0  0  0  0  0  0  0  0  0  0
   -0.9124    0.3311    0.3800 C   0  0  0  0  0  0  0  0  0  0  0  0
   -1.5201   -0.3520   -0.5750 N   0  0  0  0  0  0  0  0  0  0  0  0
   -2.8661   -0.1469   -0.4021 C   0  0  0  0  0  0  0  0  0  0  0  0
   -3.9525   -0.6396   -1.1381 C   0  0  0  0  0  0  0  0  0  0  0  0
   -5.2472   -0.2738   -0.7479 C   0  0  0  0  0  0  0  0  0  0  0  0
   -5.4535    0.5642    0.3510 C   0  0  0  0  0  0  0  0  0  0  0  0
   -4.3797    1.0649    1.0967 C   0  0  0  0  0  0  0  0  0  0  0  0
   -3.1015    0.6835    0.6845 C   0  0  0  0  0  0  0  0  0  0  0  0
   -1.8501    0.9745    1.1655 N   0  0  0  0  0  0  0  0  0  0  0  0
    0.9288   -0.8975   -0.8759 H   0  0  0  0  0  0  0  0  0  0  0  0
    3.4795    1.6389    0.8661 H   0  0  0  0  0  0  0  0  0  0  0  0
    5.9442    0.5534    0.5650 H   0  0  0  0  0  0  0  0  0  0  0  0
   -3.7856   -1.2898   -1.9896 H   0  0  0  0  0  0  0  0  0  0  0  0
   -6.1003   -0.6484   -1.3090 H   0  0  0  0  0  0  0  0  0  0  0  0
   -6.4700    0.8329    0.6332 H   0  0  0  0  0  0  0  0  0  0  0  0
   -4.5422    1.7150    1.9496 H   0  0  0  0  0  0  0  0  0  0  0  0
   -1.6642    1.5635    1.9657 H   0  0  0  0  0  0  0  0  0  0  0  0
  1  2  3  0
  2  3  1  0
  3  4  2  3
  4  5  1  0
  5  6  2  0
  6  7  1  0
  7  8  2  0
  8  9  1  0
  9 10  2  0
  9 11  1  0
  8 12  1  0
  3 13  1  0
 13 14  2  0
 14 15  1  0
 15 16  2  0
 16 17  1  0
 17 18  2  0
 18 19  1  0
 19 20  2  0
 20 21  1  0
 12  5  1  0
 21 13  1  0
 20 15  1  0
  4 22  1  0
  6 23  1  0
  7 24  1  0
 16 25  1  0
 17 26  1  0
 18 27  1  0
 19 28  1  0
 21 29  1  0
M  CHG  2   9   1  11  -1
M  END
$$$$
