
     RDKit          3D

 51 53  0  0  0  0  0  0  0  0999 V2000
   -2.8231    6.0882   -0.9263 C   0  0  0  0  0  0  0  0  0  0  0  0
   -1.5490    5.6732   -1.6492 C   0  0  0  0  0  0  0  0  0  0  0  0
   -1.0069    4.3111   -1.2128 C   0  0  0  0  0  0  0  0  0  0  0  0
   -2.1011    2.9431   -1.7267 S   0  0  0  0  0  0  0  0  0  0  0  0
   -1.2250    1.5421   -1.0431 C   0  0  0  0  0  0  0  0  0  0  0  0
   -1.8030    0.2954   -1.1383 C   0  0  0  0  0  0  0  0  0  0  0  0
   -1.1062   -0.7709   -0.6045 C   0  0  0  0  0  0  0  0  0  0  0  0
   -1.6660   -2.0632   -0.6482 N   0  0  0  0  0  0  0  0  0  0  0  0
   -1.9349   -2.5465   -2.0224 C   0  0  0  0  0  0  0  0  0  0  0  0
   -2.6432   -3.9226   -1.9845 C   0  0  0  0  0  0  0  0  0  0  0  0
   -1.8893   -4.9344   -1.2122 N   0  0  0  0  0  0  0  0  0  0  0  0
   -2.6250   -6.1963   -1.1601 C   0  0  0  0  0  0  0  0  0  0  0  0
   -1.6477   -4.4154    0.1532 C   0  0  0  0  0  0  0  0  0  0  0  0
   -0.9096   -3.0568    0.1463 C   0  0  0  0  0  0  0  0  0  0  0  0
    0.0756   -0.5756    0.0044 N   0  0  0  0  0  0  0  0  0  0  0  0
    0.5729    0.6741    0.0517 C   0  0  0  0  0  0  0  0  0  0  0  0
    1.8749    0.8725    0.7220 C   0  0  0  0  0  0  0  0  0  0  0  0
    2.4506    2.1495    0.8518 C   0  0  0  0  0  0  0  0  0  0  0  0
    3.6799    2.3347    1.4950 C   0  0  0  0  0  0  0  0  0  0  0  0
    4.3746    1.2505    2.0287 C   0  0  0  0  0  0  0  0  0  0  0  0
    5.5574    1.5692    2.6330 O   0  0  0  0  0  0  0  0  0  0  0  0
    6.2917    0.4983    3.2120 C   0  0  0  0  0  0  0  0  0  0  0  0
    3.8294   -0.0250    1.9094 C   0  0  0  0  0  0  0  0  0  0  0  0
    2.5971   -0.2074    1.2650 C   0  0  0  0  0  0  0  0  0  0  0  0
   -0.0369    1.7526   -0.4618 N   0  0  0  0  0  0  0  0  0  0  0  0
   -2.6896    6.0516    0.1596 H   0  0  0  0  0  0  0  0  0  0  0  0
   -3.0913    7.1142   -1.2004 H   0  0  0  0  0  0  0  0  0  0  0  0
   -3.6666    5.4440   -1.1910 H   0  0  0  0  0  0  0  0  0  0  0  0
   -0.7799    6.4268   -1.4414 H   0  0  0  0  0  0  0  0  0  0  0  0
   -1.7160    5.6924   -2.7328 H   0  0  0  0  0  0  0  0  0  0  0  0
   -0.0228    4.1620   -1.6703 H   0  0  0  0  0  0  0  0  0  0  0  0
   -0.8861    4.2930   -0.1240 H   0  0  0  0  0  0  0  0  0  0  0  0
   -2.7785    0.1647   -1.5866 H   0  0  0  0  0  0  0  0  0  0  0  0
   -0.9936   -2.6338   -2.5816 H   0  0  0  0  0  0  0  0  0  0  0  0
   -2.5867   -1.8560   -2.5691 H   0  0  0  0  0  0  0  0  0  0  0  0
   -3.6466   -3.7898   -1.5567 H   0  0  0  0  0  0  0  0  0  0  0  0
   -2.7706   -4.2710   -3.0166 H   0  0  0  0  0  0  0  0  0  0  0  0
   -2.0583   -6.9471   -0.5994 H   0  0  0  0  0  0  0  0  0  0  0  0
   -3.6090   -6.0866   -0.6896 H   0  0  0  0  0  0  0  0  0  0  0  0
   -2.7679   -6.5974   -2.1695 H   0  0  0  0  0  0  0  0  0  0  0  0
   -1.0389   -5.1336    0.7150 H   0  0  0  0  0  0  0  0  0  0  0  0
   -2.6003   -4.3009    0.6876 H   0  0  0  0  0  0  0  0  0  0  0  0
    0.0982   -3.1978   -0.2677 H   0  0  0  0  0  0  0  0  0  0  0  0
   -0.8127   -2.7196    1.1864 H   0  0  0  0  0  0  0  0  0  0  0  0
    1.9393    3.0231    0.4512 H   0  0  0  0  0  0  0  0  0  0  0  0
    4.0949    3.3361    1.5805 H   0  0  0  0  0  0  0  0  0  0  0  0
    7.1961    0.9185    3.6622 H   0  0  0  0  0  0  0  0  0  0  0  0
    6.6038   -0.2235    2.4502 H   0  0  0  0  0  0  0  0  0  0  0  0
    5.7188    0.0109    4.0077 H   0  0  0  0  0  0  0  0  0  0  0  0
    4.3297   -0.9025    2.3046 H   0  0  0  0  0  0  0  0  0  0  0  0
    2.1970   -1.2181    1.1898 H   0  0  0  0  0  0  0  0  0  0  0  0
  1  2  1  0
  2  3  1  0
  3  4  1  0
  4  5  1  0
  5  6  2  0
  6  7  1  0
  7  8  1  0
  8  9  1  0
  9 10  1  0
 10 11  1  0
 11 12  1  0
 11 13  1  0
 13 14  1  0
  7 15  2  0
 15 16  1  0
 16 17  1  0
 17 18  2  0
 18 19  1  0
 19 20  2  0
 20 21  1  0
 21 22  1  0
 20 23  1  0
 23 24  2  0
 16 25  2  0
 25  5  1  0
 14  8  1  0
 24 17  1  0
  1 26  1  0
  1 27  1  0
  1 28  1  0
  2 29  1  0
  2 30  1  0
  3 31  1  0
  3 32  1  0
  6 33  1  0
  9 34  1  0
  9 35  1  0
 10 36  1  0
 10 37  1  0
 12 38  1  0
 12 39  1  0
 12 40  1  0
 13 41  1  0
 13 42  1  0
 14 43  1  0
 14 44  1  0
 18 45  1  0
 19 46  1  0
 22 47  1  0
 22 48  1  0
 22 49  1  0
 23 50  1  0
 24 51  1  0
M  END
$$$$
