
     RDKit          3D

 43 45  0  0  0  0  0  0  0  0999 V2000
   -3.6633    1.4290    2.2385 C   0  0  0  0  0  0  0  0  0  0  0  0
   -4.4277    0.4820    1.3585 C   0  0  0  0  0  0  0  0  0  0  0  0
   -5.7608    0.1797    1.6650 C   0  0  0  0  0  0  0  0  0  0  0  0
   -6.4945   -0.6910    0.8587 C   0  0  0  0  0  0  0  0  0  0  0  0
   -5.9093   -1.2593   -0.2710 C   0  0  0  0  0  0  0  0  0  0  0  0
   -4.5777   -0.9778   -0.6026 C   0  0  0  0  0  0  0  0  0  0  0  0
   -3.9734   -1.5994   -1.8295 C   0  0  0  0  0  0  0  0  0  0  0  0
   -3.8335   -0.1453    0.2503 C   0  0  0  0  0  0  0  0  0  0  0  0
   -2.5171    0.1149   -0.0427 O   0  0  0  0  0  0  0  0  0  0  0  0
   -1.6712   -0.8453    0.6027 C   0  0  0  0  0  0  0  0  0  0  0  0
   -0.2735   -0.4727    0.2859 C   0  0  0  0  0  0  0  0  0  0  0  0
    0.3845    0.7101    0.0544 C   0  0  0  0  0  0  0  0  0  0  0  0
    1.7375    0.3408   -0.1726 C   0  0  0  0  0  0  0  0  0  0  0  0
    2.8355    1.2548   -0.5218 C   0  0  0  0  0  0  0  0  0  0  0  0
    2.5804    2.3661   -0.9912 O   0  0  0  0  0  0  0  0  0  0  0  0
    4.1599    0.8456   -0.3432 N   0  0  0  0  0  0  0  0  0  0  0  0
    4.6120   -0.0527    0.7210 C   0  0  0  0  0  0  0  0  0  0  0  0
    5.7642   -0.9113    0.2065 C   0  0  0  0  0  0  0  0  0  0  0  0
    6.8315   -0.0992   -0.3427 N   0  0  0  0  0  0  0  0  0  0  0  0
    6.5849    1.0475   -1.0580 C   0  0  0  0  0  0  0  0  0  0  0  0
    7.4925    1.5638   -1.7074 O   0  0  0  0  0  0  0  0  0  0  0  0
    5.2051    1.7093   -0.8975 C   0  0  0  0  0  0  0  0  0  0  0  0
    1.8671   -0.9973   -0.1131 N   0  0  0  0  0  0  0  0  0  0  0  0
    0.6171   -1.4955    0.1963 O   0  0  0  0  0  0  0  0  0  0  0  0
   -4.3391    2.1383    2.7287 H   0  0  0  0  0  0  0  0  0  0  0  0
   -3.1228    0.8730    3.0111 H   0  0  0  0  0  0  0  0  0  0  0  0
   -2.9498    2.0223    1.6564 H   0  0  0  0  0  0  0  0  0  0  0  0
   -6.2396    0.6279    2.5323 H   0  0  0  0  0  0  0  0  0  0  0  0
   -7.5296   -0.9150    1.1038 H   0  0  0  0  0  0  0  0  0  0  0  0
   -6.5031   -1.9206   -0.8984 H   0  0  0  0  0  0  0  0  0  0  0  0
   -4.7458   -1.8347   -2.5705 H   0  0  0  0  0  0  0  0  0  0  0  0
   -3.4523   -2.5252   -1.5655 H   0  0  0  0  0  0  0  0  0  0  0  0
   -3.2686   -0.9156   -2.3132 H   0  0  0  0  0  0  0  0  0  0  0  0
   -1.8842   -1.8552    0.2323 H   0  0  0  0  0  0  0  0  0  0  0  0
   -1.8106   -0.8221    1.6893 H   0  0  0  0  0  0  0  0  0  0  0  0
   -0.0413    1.7035    0.0345 H   0  0  0  0  0  0  0  0  0  0  0  0
    4.9546    0.5866    1.5457 H   0  0  0  0  0  0  0  0  0  0  0  0
    3.8195   -0.6766    1.1297 H   0  0  0  0  0  0  0  0  0  0  0  0
    5.4197   -1.5756   -0.5948 H   0  0  0  0  0  0  0  0  0  0  0  0
    6.1874   -1.5222    1.0097 H   0  0  0  0  0  0  0  0  0  0  0  0
    7.7298   -0.5238   -0.5439 H   0  0  0  0  0  0  0  0  0  0  0  0
    4.8867    2.0696   -1.8827 H   0  0  0  0  0  0  0  0  0  0  0  0
    5.3189    2.5686   -0.2263 H   0  0  0  0  0  0  0  0  0  0  0  0
  1  2  1  0
  2  3  2  0
  3  4  1  0
  4  5  2  0
  5  6  1  0
  6  7  1  0
  6  8  2  0
  8  9  1  0
  9 10  1  0
 10 11  1  0
 11 12  2  0
 12 13  1  0
 13 14  1  0
 14 15  2  0
 14 16  1  0
 16 17  1  0
 17 18  1  0
 18 19  1  0
 19 20  1  0
 20 21  2  0
 20 22  1  0
 13 23  2  0
 23 24  1  0
  8  2  1  0
 24 11  1  0
 22 16  1  0
  1 25  1  0
  1 26  1  0
  1 27  1  0
  3 28  1  0
  4 29  1  0
  5 30  1  0
  7 31  1  0
  7 32  1  0
  7 33  1  0
 10 34  1  0
 10 35  1  0
 12 36  1  0
 17 37  1  0
 17 38  1  0
 18 39  1  0
 18 40  1  0
 19 41  1  0
 22 42  1  0
 22 43  1  0
M  END
$$$$
