
     RDKit          3D

 22 23  0  0  0  0  0  0  0  0999 V2000
   -3.2339   -0.0717   -1.3752 C   0  0  0  0  0  0  0  0  0  0  0  0
   -2.7396   -0.5145   -0.2111 C   0  0  0  0  0  0  0  0  0  0  0  0
   -2.0300    0.3520    0.7945 C   0  0  0  0  0  0  0  0  0  0  0  0
   -0.6002    0.0403    0.7749 N   0  0  0  0  0  0  0  0  0  0  0  0
   -0.0591   -0.9755    1.5895 C   0  0  0  0  0  0  0  0  0  0  0  0
   -0.8925   -1.9442    2.6819 S   0  0  0  0  0  0  0  0  0  0  0  0
    1.2930   -1.2102    1.4920 N   0  0  0  0  0  0  0  0  0  0  0  0
    2.0466   -0.4764    0.6336 C   0  0  0  0  0  0  0  0  0  0  0  0
    3.6941   -0.7667    0.5075 S   0  0  0  0  0  0  0  0  0  0  0  0
    3.8403    0.4781   -0.6740 C   0  0  0  0  0  0  0  0  0  0  0  0
    2.6245    1.0828   -0.9394 C   0  0  0  0  0  0  0  0  0  0  0  0
    1.5687    0.5141   -0.1644 C   0  0  0  0  0  0  0  0  0  0  0  0
    0.1589    0.8342   -0.1191 C   0  0  0  0  0  0  0  0  0  0  0  0
   -0.3008    1.7402   -0.8095 O   0  0  0  0  0  0  0  0  0  0  0  0
   -3.1272    0.9656   -1.6815 H   0  0  0  0  0  0  0  0  0  0  0  0
   -3.7454   -0.7451   -2.0562 H   0  0  0  0  0  0  0  0  0  0  0  0
   -2.8720   -1.5626    0.0482 H   0  0  0  0  0  0  0  0  0  0  0  0
   -2.1893    1.4141    0.5730 H   0  0  0  0  0  0  0  0  0  0  0  0
   -2.4583    0.1876    1.7876 H   0  0  0  0  0  0  0  0  0  0  0  0
    1.7220   -1.9342    2.0564 H   0  0  0  0  0  0  0  0  0  0  0  0
    4.8042    0.7021   -1.1110 H   0  0  0  0  0  0  0  0  0  0  0  0
    2.4959    1.8900   -1.6514 H   0  0  0  0  0  0  0  0  0  0  0  0
  1  2  2  0
  2  3  1  0
  3  4  1  0
  4  5  1  0
  5  6  2  0
  5  7  1  0
  7  8  1  0
  8  9  1  0
  9 10  1  0
 10 11  2  0
 11 12  1  0
 12 13  1  0
 13 14  2  0
 13  4  1  0
 12  8  2  0
  1 15  1  0
  1 16  1  0
  2 17  1  0
  3 18  1  0
  3 19  1  0
  7 20  1  0
 10 21  1  0
 11 22  1  0
M  END
$$$$
