
     RDKit          3D

 47 49  0  0  0  0  0  0  0  0999 V2000
    5.3057   -1.2088   -2.4826 C   0  0  0  0  0  0  0  0  0  0  0  0
    4.3454   -0.9982   -1.3446 C   0  0  0  0  0  0  0  0  0  0  0  0
    3.8673    0.2977   -1.0882 C   0  0  0  0  0  0  0  0  0  0  0  0
    3.0085    0.5574   -0.0252 C   0  0  0  0  0  0  0  0  0  0  0  0
    2.6364    1.8665    0.1146 O   0  0  0  0  0  0  0  0  0  0  0  0
    2.2232    2.2958    1.4143 C   0  0  0  0  0  0  0  0  0  0  0  0
    0.7463    2.2721    1.4751 C   0  0  0  0  0  0  0  0  0  0  0  0
   -0.2590    2.7257    0.6589 C   0  0  0  0  0  0  0  0  0  0  0  0
   -1.4593    2.3410    1.3087 C   0  0  0  0  0  0  0  0  0  0  0  0
   -2.8231    2.6215    0.8394 C   0  0  0  0  0  0  0  0  0  0  0  0
   -3.0601    3.6903    0.2725 O   0  0  0  0  0  0  0  0  0  0  0  0
   -3.8405    1.6677    1.0517 N   0  0  0  0  0  0  0  0  0  0  0  0
   -5.1456    1.9861    0.5144 C   0  0  0  0  0  0  0  0  0  0  0  0
   -3.5550    0.2358    1.2364 C   0  0  0  0  0  0  0  0  0  0  0  0
   -3.2139   -0.4875   -0.0580 C   0  0  0  0  0  0  0  0  0  0  0  0
   -3.8513   -1.6850   -0.3788 C   0  0  0  0  0  0  0  0  0  0  0  0
   -3.4937   -2.3398   -1.5518 C   0  0  0  0  0  0  0  0  0  0  0  0
   -2.5046   -1.7980   -2.3675 C   0  0  0  0  0  0  0  0  0  0  0  0
   -1.9228   -0.6016   -1.9787 C   0  0  0  0  0  0  0  0  0  0  0  0
   -2.2524    0.0569   -0.8496 N   0  0  0  0  0  0  0  0  0  0  0  0
   -1.1826    1.7515    2.4852 N   0  0  0  0  0  0  0  0  0  0  0  0
    0.1959    1.6956    2.5726 O   0  0  0  0  0  0  0  0  0  0  0  0
    2.5757   -0.4997    0.7732 C   0  0  0  0  0  0  0  0  0  0  0  0
    3.0293   -1.8143    0.5441 C   0  0  0  0  0  0  0  0  0  0  0  0
    2.5668   -2.9138    1.4628 C   0  0  0  0  0  0  0  0  0  0  0  0
    3.9351   -2.0492   -0.5085 C   0  0  0  0  0  0  0  0  0  0  0  0
    4.5566   -3.6500   -0.7642 Cl  0  0  0  0  0  0  0  0  0  0  0  0
    6.2977   -1.4664   -2.0989 H   0  0  0  0  0  0  0  0  0  0  0  0
    4.9511   -2.0046   -3.1450 H   0  0  0  0  0  0  0  0  0  0  0  0
    5.4103   -0.3028   -3.0919 H   0  0  0  0  0  0  0  0  0  0  0  0
    4.1793    1.1263   -1.7159 H   0  0  0  0  0  0  0  0  0  0  0  0
    2.5701    3.3305    1.5321 H   0  0  0  0  0  0  0  0  0  0  0  0
    2.6939    1.7221    2.2179 H   0  0  0  0  0  0  0  0  0  0  0  0
   -0.1611    3.2356   -0.2850 H   0  0  0  0  0  0  0  0  0  0  0  0
   -5.3542    3.0550    0.6216 H   0  0  0  0  0  0  0  0  0  0  0  0
   -5.9165    1.4213    1.0588 H   0  0  0  0  0  0  0  0  0  0  0  0
   -5.1746    1.7224   -0.5464 H   0  0  0  0  0  0  0  0  0  0  0  0
   -4.4382   -0.2174    1.7044 H   0  0  0  0  0  0  0  0  0  0  0  0
   -2.7381    0.0766    1.9374 H   0  0  0  0  0  0  0  0  0  0  0  0
   -4.6161   -2.1066    0.2685 H   0  0  0  0  0  0  0  0  0  0  0  0
   -3.9856   -3.2694   -1.8324 H   0  0  0  0  0  0  0  0  0  0  0  0
   -2.1969   -2.2896   -3.2873 H   0  0  0  0  0  0  0  0  0  0  0  0
   -1.1475   -0.1333   -2.5804 H   0  0  0  0  0  0  0  0  0  0  0  0
    1.8719   -0.3291    1.5774 H   0  0  0  0  0  0  0  0  0  0  0  0
    1.7375   -2.5804    2.0970 H   0  0  0  0  0  0  0  0  0  0  0  0
    3.3847   -3.2266    2.1209 H   0  0  0  0  0  0  0  0  0  0  0  0
    2.2038   -3.7793    0.9004 H   0  0  0  0  0  0  0  0  0  0  0  0
  1  2  1  0
  2  3  2  0
  3  4  1  0
  4  5  1  0
  5  6  1  0
  6  7  1  0
  7  8  2  0
  8  9  1  0
  9 10  1  0
 10 11  2  0
 10 12  1  0
 12 13  1  0
 12 14  1  0
 14 15  1  0
 15 16  2  0
 16 17  1  0
 17 18  2  0
 18 19  1  0
 19 20  2  0
  9 21  2  0
 21 22  1  0
  4 23  2  0
 23 24  1  0
 24 25  1  0
 24 26  2  0
 26 27  1  0
 26  2  1  0
 22  7  1  0
 20 15  1  0
  1 28  1  0
  1 29  1  0
  1 30  1  0
  3 31  1  0
  6 32  1  0
  6 33  1  0
  8 34  1  0
 13 35  1  0
 13 36  1  0
 13 37  1  0
 14 38  1  0
 14 39  1  0
 16 40  1  0
 17 41  1  0
 18 42  1  0
 19 43  1  0
 23 44  1  0
 25 45  1  0
 25 46  1  0
 25 47  1  0
M  END
$$$$
