
     RDKit          3D

 53 56  0  0  0  0  0  0  0  0999 V2000
   -6.3470   -0.7683   -1.4278 C   0  0  0  0  0  0  0  0  0  0  0  0
   -4.8329   -0.6173   -1.4710 C   0  0  0  0  0  0  0  0  0  0  0  0
   -4.1844   -0.4635   -0.0781 C   0  0  0  0  0  0  0  0  0  0  0  0
   -4.3815   -1.7391    0.7758 C   0  0  0  0  0  0  0  0  0  0  0  0
   -3.7092   -1.6987    2.1326 C   0  0  0  0  0  0  0  0  0  0  0  0
   -2.8015   -2.7037    2.4989 C   0  0  0  0  0  0  0  0  0  0  0  0
   -2.1815   -2.6781    3.7493 C   0  0  0  0  0  0  0  0  0  0  0  0
   -2.4671   -1.6531    4.6490 C   0  0  0  0  0  0  0  0  0  0  0  0
   -3.3748   -0.6553    4.3008 C   0  0  0  0  0  0  0  0  0  0  0  0
   -3.9968   -0.6794    3.0513 C   0  0  0  0  0  0  0  0  0  0  0  0
   -2.7595   -0.1499   -0.2313 N   0  0  0  0  0  0  0  0  0  0  0  0
   -2.3374    1.1181   -0.5783 C   0  0  0  0  0  0  0  0  0  0  0  0
   -3.1007    2.0409   -0.8388 O   0  0  0  0  0  0  0  0  0  0  0  0
   -0.8644    1.3424   -0.5951 C   0  0  0  0  0  0  0  0  0  0  0  0
   -0.3922    2.6410   -0.3825 C   0  0  0  0  0  0  0  0  0  0  0  0
    0.9802    2.9143   -0.4094 C   0  0  0  0  0  0  0  0  0  0  0  0
    1.8951    1.8741   -0.6679 C   0  0  0  0  0  0  0  0  0  0  0  0
    3.2691    2.0016   -0.7340 N   0  0  0  0  0  0  0  0  0  0  0  0
    3.8501    0.8544   -1.0144 C   0  0  0  0  0  0  0  0  0  0  0  0
    5.2058    0.7244   -1.1766 N   0  0  0  0  0  0  0  0  0  0  0  0
    5.8575   -0.5687   -0.8983 C   0  0  0  0  0  0  0  0  0  0  0  0
    7.3023   -0.5667   -1.4213 C   0  0  0  0  0  0  0  0  0  0  0  0
    8.0572    0.5280   -0.8815 O   0  0  0  0  0  0  0  0  0  0  0  0
    7.4524    1.7701   -1.2724 C   0  0  0  0  0  0  0  0  0  0  0  0
    6.0152    1.8857   -0.7467 C   0  0  0  0  0  0  0  0  0  0  0  0
    2.7302   -0.4550   -1.2072 S   0  0  0  0  0  0  0  0  0  0  0  0
    1.4062    0.5911   -0.8941 C   0  0  0  0  0  0  0  0  0  0  0  0
    0.0312    0.2953   -0.8640 C   0  0  0  0  0  0  0  0  0  0  0  0
   -6.6446   -1.7141   -0.9656 H   0  0  0  0  0  0  0  0  0  0  0  0
   -6.8087    0.0540   -0.8709 H   0  0  0  0  0  0  0  0  0  0  0  0
   -6.7536   -0.7579   -2.4453 H   0  0  0  0  0  0  0  0  0  0  0  0
   -4.6007    0.2596   -2.0878 H   0  0  0  0  0  0  0  0  0  0  0  0
   -4.3961   -1.4788   -1.9931 H   0  0  0  0  0  0  0  0  0  0  0  0
   -4.6491    0.3920    0.4292 H   0  0  0  0  0  0  0  0  0  0  0  0
   -4.0043   -2.6039    0.2133 H   0  0  0  0  0  0  0  0  0  0  0  0
   -5.4486   -1.9226    0.9479 H   0  0  0  0  0  0  0  0  0  0  0  0
   -2.5719   -3.5185    1.8153 H   0  0  0  0  0  0  0  0  0  0  0  0
   -1.4803   -3.4624    4.0243 H   0  0  0  0  0  0  0  0  0  0  0  0
   -1.9866   -1.6348    5.6239 H   0  0  0  0  0  0  0  0  0  0  0  0
   -3.6031    0.1421    5.0039 H   0  0  0  0  0  0  0  0  0  0  0  0
   -4.7067    0.1071    2.8047 H   0  0  0  0  0  0  0  0  0  0  0  0
   -2.1002   -0.7485    0.2512 H   0  0  0  0  0  0  0  0  0  0  0  0
   -1.0934    3.4537   -0.1960 H   0  0  0  0  0  0  0  0  0  0  0  0
    1.3464    3.9235   -0.2453 H   0  0  0  0  0  0  0  0  0  0  0  0
    5.8618   -0.7391    0.1856 H   0  0  0  0  0  0  0  0  0  0  0  0
    5.3358   -1.4026   -1.3794 H   0  0  0  0  0  0  0  0  0  0  0  0
    7.8048   -1.4947   -1.1288 H   0  0  0  0  0  0  0  0  0  0  0  0
    7.3231   -0.5086   -2.5172 H   0  0  0  0  0  0  0  0  0  0  0  0
    7.4785    1.8516   -2.3658 H   0  0  0  0  0  0  0  0  0  0  0  0
    8.0643    2.5812   -0.8644 H   0  0  0  0  0  0  0  0  0  0  0  0
    5.5932    2.8263   -1.1202 H   0  0  0  0  0  0  0  0  0  0  0  0
    6.0306    1.9209    0.3504 H   0  0  0  0  0  0  0  0  0  0  0  0
   -0.3125   -0.7103   -1.0814 H   0  0  0  0  0  0  0  0  0  0  0  0
  1  2  1  0
  2  3  1  0
  3  4  1  0
  4  5  1  0
  5  6  2  0
  6  7  1  0
  7  8  2  0
  8  9  1  0
  9 10  2  0
  3 11  1  0
 11 12  1  0
 12 13  2  0
 12 14  1  0
 14 15  2  0
 15 16  1  0
 16 17  2  0
 17 18  1  0
 18 19  2  0
 19 20  1  0
 20 21  1  0
 21 22  1  0
 22 23  1  0
 23 24  1  0
 24 25  1  0
 19 26  1  0
 26 27  1  0
 27 28  2  0
 10  5  1  0
 28 14  1  0
 27 17  1  0
 25 20  1  0
  1 29  1  0
  1 30  1  0
  1 31  1  0
  2 32  1  0
  2 33  1  0
  3 34  1  0
  4 35  1  0
  4 36  1  0
  6 37  1  0
  7 38  1  0
  8 39  1  0
  9 40  1  0
 10 41  1  0
 11 42  1  0
 15 43  1  0
 16 44  1  0
 21 45  1  0
 21 46  1  0
 22 47  1  0
 22 48  1  0
 24 49  1  0
 24 50  1  0
 25 51  1  0
 25 52  1  0
 28 53  1  0
M  END
$$$$
