
     RDKit          3D

 56 59  0  0  0  0  0  0  0  0999 V2000
    0.0645    1.1927    1.3579 O   0  0  0  0  0  0  0  0  0  0  0  0
   -0.3772    0.3261    0.3013 C   0  0  0  0  0  0  0  0  0  0  0  0
   -1.3589    1.1102   -0.5885 C   0  0  0  0  0  0  0  0  0  0  0  0
   -1.8949    0.3843   -1.6908 O   0  0  0  0  0  0  0  0  0  0  0  0
   -2.6491   -0.7942   -1.3870 C   0  0  0  0  0  0  0  0  0  0  0  0
   -3.8684   -0.5706   -0.4825 C   0  0  0  0  0  0  0  0  0  0  0  0
   -4.5999   -1.8889   -0.2392 C   0  0  0  0  0  0  0  0  0  0  0  0
   -5.6777   -1.7026    0.6868 O   0  0  0  0  0  0  0  0  0  0  0  0
   -6.4219   -0.5953    0.3692 C   0  0  0  0  0  0  0  0  0  0  0  0
   -7.6690   -0.4805    0.9803 C   0  0  0  0  0  0  0  0  0  0  0  0
   -8.4889    0.6104    0.6864 C   0  0  0  0  0  0  0  0  0  0  0  0
   -8.0595    1.5855   -0.2158 C   0  0  0  0  0  0  0  0  0  0  0  0
   -6.8046    1.4774   -0.8173 C   0  0  0  0  0  0  0  0  0  0  0  0
   -5.9805    0.3959   -0.5130 C   0  0  0  0  0  0  0  0  0  0  0  0
   -4.7530    0.3653   -1.1225 O   0  0  0  0  0  0  0  0  0  0  0  0
    0.8412   -0.1749   -0.5131 C   0  0  0  0  0  0  0  0  0  0  0  0
    1.5639   -1.3144    0.1028 N   0  0  0  0  0  0  0  0  0  0  0  0
    2.1752   -0.9924    1.4146 C   0  0  0  0  0  0  0  0  0  0  0  0
    3.3512    0.0099    1.3621 C   0  0  0  0  0  0  0  0  0  0  0  0
    4.4035   -0.4742    0.4417 N   0  0  0  0  0  0  0  0  0  0  0  0
    5.6255    0.2189    0.4144 C   0  0  0  0  0  0  0  0  0  0  0  0
    6.7499   -0.3749   -0.1859 C   0  0  0  0  0  0  0  0  0  0  0  0
    7.9911    0.2693   -0.2319 C   0  0  0  0  0  0  0  0  0  0  0  0
    8.1403    1.5297    0.3335 C   0  0  0  0  0  0  0  0  0  0  0  0
    7.0511    2.1358    0.9494 C   0  0  0  0  0  0  0  0  0  0  0  0
    5.8122    1.4836    0.9932 C   0  0  0  0  0  0  0  0  0  0  0  0
    3.8856   -0.8382   -0.8988 C   0  0  0  0  0  0  0  0  0  0  0  0
    2.6571   -1.7785   -0.7893 C   0  0  0  0  0  0  0  0  0  0  0  0
   -0.7081    1.3849    1.9176 H   0  0  0  0  0  0  0  0  0  0  0  0
   -0.8872   -0.5285    0.7594 H   0  0  0  0  0  0  0  0  0  0  0  0
   -2.1725    1.5325    0.0122 H   0  0  0  0  0  0  0  0  0  0  0  0
   -0.8392    1.9819   -1.0050 H   0  0  0  0  0  0  0  0  0  0  0  0
   -1.9786   -1.5498   -0.9638 H   0  0  0  0  0  0  0  0  0  0  0  0
   -2.9880   -1.1797   -2.3557 H   0  0  0  0  0  0  0  0  0  0  0  0
   -3.5589   -0.1313    0.4740 H   0  0  0  0  0  0  0  0  0  0  0  0
   -5.0096   -2.3064   -1.1681 H   0  0  0  0  0  0  0  0  0  0  0  0
   -3.9233   -2.6316    0.1966 H   0  0  0  0  0  0  0  0  0  0  0  0
   -8.0064   -1.2447    1.6747 H   0  0  0  0  0  0  0  0  0  0  0  0
   -9.4651    0.6973    1.1569 H   0  0  0  0  0  0  0  0  0  0  0  0
   -8.7010    2.4317   -0.4484 H   0  0  0  0  0  0  0  0  0  0  0  0
   -6.4658    2.2390   -1.5142 H   0  0  0  0  0  0  0  0  0  0  0  0
    0.4812   -0.5230   -1.4885 H   0  0  0  0  0  0  0  0  0  0  0  0
    1.5155    0.6687   -0.7000 H   0  0  0  0  0  0  0  0  0  0  0  0
    2.5483   -1.9340    1.8416 H   0  0  0  0  0  0  0  0  0  0  0  0
    1.4194   -0.6520    2.1283 H   0  0  0  0  0  0  0  0  0  0  0  0
    2.9858    0.9949    1.0486 H   0  0  0  0  0  0  0  0  0  0  0  0
    3.7574    0.1017    2.3770 H   0  0  0  0  0  0  0  0  0  0  0  0
    6.6758   -1.3760   -0.6027 H   0  0  0  0  0  0  0  0  0  0  0  0
    8.8385   -0.2229   -0.7008 H   0  0  0  0  0  0  0  0  0  0  0  0
    9.1020    2.0336    0.3023 H   0  0  0  0  0  0  0  0  0  0  0  0
    7.1592    3.1188    1.4001 H   0  0  0  0  0  0  0  0  0  0  0  0
    4.9932    2.0036    1.4799 H   0  0  0  0  0  0  0  0  0  0  0  0
    4.6411   -1.3642   -1.4929 H   0  0  0  0  0  0  0  0  0  0  0  0
    3.6143    0.0717   -1.4489 H   0  0  0  0  0  0  0  0  0  0  0  0
    3.0015   -2.7507   -0.4112 H   0  0  0  0  0  0  0  0  0  0  0  0
    2.2618   -1.9805   -1.7925 H   0  0  0  0  0  0  0  0  0  0  0  0
  1  2  1  0
  2  3  1  0
  3  4  1  0
  4  5  1  0
  5  6  1  0
  6  7  1  0
  7  8  1  0
  8  9  1  0
  9 10  2  0
 10 11  1  0
 11 12  2  0
 12 13  1  0
 13 14  2  0
 14 15  1  0
  2 16  1  0
 16 17  1  0
 17 18  1  0
 18 19  1  0
 19 20  1  0
 20 21  1  0
 21 22  2  0
 22 23  1  0
 23 24  2  0
 24 25  1  0
 25 26  2  0
 20 27  1  0
 27 28  1  0
 15  6  1  0
 28 17  1  0
 14  9  1  0
 26 21  1  0
  1 29  1  0
  2 30  1  0
  3 31  1  0
  3 32  1  0
  5 33  1  0
  5 34  1  0
  6 35  1  0
  7 36  1  0
  7 37  1  0
 10 38  1  0
 11 39  1  0
 12 40  1  0
 13 41  1  0
 16 42  1  0
 16 43  1  0
 18 44  1  0
 18 45  1  0
 19 46  1  0
 19 47  1  0
 22 48  1  0
 23 49  1  0
 24 50  1  0
 25 51  1  0
 26 52  1  0
 27 53  1  0
 27 54  1  0
 28 55  1  0
 28 56  1  0
M  END
$$$$
