
     RDKit          3D

 45 47  0  0  0  0  0  0  0  0999 V2000
    5.2881    5.2176   -1.8909 C   0  0  0  0  0  0  0  0  0  0  0  0
    4.1208    4.5361   -1.2207 C   0  0  0  0  0  0  0  0  0  0  0  0
    3.2048    5.1926   -0.7394 O   0  0  0  0  0  0  0  0  0  0  0  0
    4.2236    3.1570   -1.2642 N   0  0  0  0  0  0  0  0  0  0  0  0
    3.3229    2.2124   -0.7306 C   0  0  0  0  0  0  0  0  0  0  0  0
    3.6244    0.8578   -0.9326 C   0  0  0  0  0  0  0  0  0  0  0  0
    2.7851   -0.1442   -0.4364 C   0  0  0  0  0  0  0  0  0  0  0  0
    1.6274    0.2089    0.2599 C   0  0  0  0  0  0  0  0  0  0  0  0
    0.5674   -1.0621    0.9231 S   0  0  0  0  0  6  0  0  0  0  0  0
   -0.0217   -0.5432    2.1373 O   0  0  0  0  0  0  0  0  0  0  0  0
    1.3525   -2.2813    0.9600 O   0  0  0  0  0  0  0  0  0  0  0  0
   -0.5735   -1.2328   -0.2751 N   0  0  0  0  0  0  0  0  0  0  0  0
   -0.2232   -2.0088   -1.4631 C   0  0  0  0  0  0  0  0  0  0  0  0
   -1.5260   -1.9002   -2.2599 C   0  0  0  0  0  0  0  0  0  0  0  0
   -2.3428   -0.8220   -1.6402 N   0  0  0  0  0  0  0  0  0  0  0  0
   -1.7549   -0.5335   -0.5220 C   0  0  0  0  0  0  0  0  0  0  0  0
   -2.3843    0.6536    0.5472 S   0  0  0  0  0  0  0  0  0  0  0  0
   -3.9756   -0.1265    0.9227 C   0  0  0  0  0  0  0  0  0  0  0  0
   -3.8488   -1.5229    1.4863 C   0  0  0  0  0  0  0  0  0  0  0  0
   -4.3060   -2.6272    0.7479 C   0  0  0  0  0  0  0  0  0  0  0  0
   -4.1756   -3.9204    1.2559 C   0  0  0  0  0  0  0  0  0  0  0  0
   -3.5876   -4.1127    2.4999 C   0  0  0  0  0  0  0  0  0  0  0  0
   -3.4606   -5.3555    2.9833 F   0  0  0  0  0  0  0  0  0  0  0  0
   -3.1280   -3.0359    3.2471 C   0  0  0  0  0  0  0  0  0  0  0  0
   -3.2609   -1.7412    2.7434 C   0  0  0  0  0  0  0  0  0  0  0  0
    1.3294    1.5519    0.4921 C   0  0  0  0  0  0  0  0  0  0  0  0
    2.1729    2.5488   -0.0116 C   0  0  0  0  0  0  0  0  0  0  0  0
    5.1006    5.2825   -2.9658 H   0  0  0  0  0  0  0  0  0  0  0  0
    5.4048    6.2246   -1.4801 H   0  0  0  0  0  0  0  0  0  0  0  0
    6.2178    4.6697   -1.7118 H   0  0  0  0  0  0  0  0  0  0  0  0
    5.0307    2.7789   -1.7440 H   0  0  0  0  0  0  0  0  0  0  0  0
    4.5203    0.5621   -1.4734 H   0  0  0  0  0  0  0  0  0  0  0  0
    3.0469   -1.1886   -0.5910 H   0  0  0  0  0  0  0  0  0  0  0  0
    0.0122   -3.0516   -1.2368 H   0  0  0  0  0  0  0  0  0  0  0  0
    0.5989   -1.5430   -2.0136 H   0  0  0  0  0  0  0  0  0  0  0  0
   -1.3267   -1.6681   -3.3109 H   0  0  0  0  0  0  0  0  0  0  0  0
   -2.0895   -2.8391   -2.2176 H   0  0  0  0  0  0  0  0  0  0  0  0
   -4.5038    0.4995    1.6510 H   0  0  0  0  0  0  0  0  0  0  0  0
   -4.5922   -0.1282    0.0167 H   0  0  0  0  0  0  0  0  0  0  0  0
   -4.7589   -2.4861   -0.2319 H   0  0  0  0  0  0  0  0  0  0  0  0
   -4.5258   -4.7775    0.6900 H   0  0  0  0  0  0  0  0  0  0  0  0
   -2.6625   -3.2083    4.2123 H   0  0  0  0  0  0  0  0  0  0  0  0
   -2.8830   -0.9044    3.3293 H   0  0  0  0  0  0  0  0  0  0  0  0
    0.4541    1.8407    1.0698 H   0  0  0  0  0  0  0  0  0  0  0  0
    1.9062    3.5827    0.1882 H   0  0  0  0  0  0  0  0  0  0  0  0
  1  2  1  0
  2  3  2  0
  2  4  1  0
  4  5  1  0
  5  6  2  0
  6  7  1  0
  7  8  2  0
  8  9  1  0
  9 10  2  0
  9 11  2  0
  9 12  1  0
 12 13  1  0
 13 14  1  0
 14 15  1  0
 15 16  2  0
 16 17  1  0
 17 18  1  0
 18 19  1  0
 19 20  2  0
 20 21  1  0
 21 22  2  0
 22 23  1  0
 22 24  1  0
 24 25  2  0
  8 26  1  0
 26 27  2  0
 27  5  1  0
 16 12  1  0
 25 19  1  0
  1 28  1  0
  1 29  1  0
  1 30  1  0
  4 31  1  0
  6 32  1  0
  7 33  1  0
 13 34  1  0
 13 35  1  0
 14 36  1  0
 14 37  1  0
 18 38  1  0
 18 39  1  0
 20 40  1  0
 21 41  1  0
 24 42  1  0
 25 43  1  0
 26 44  1  0
 27 45  1  0
M  END
$$$$
