
     RDKit          3D

 55 57  0  0  0  0  0  0  0  0999 V2000
    6.2363    2.5036    2.1755 C   0  0  0  0  0  0  0  0  0  0  0  0
    6.6309    1.8324    0.8715 C   0  0  0  0  0  0  0  0  0  0  0  0
    6.4166    0.4243    0.9385 O   0  0  0  0  0  0  0  0  0  0  0  0
    5.1935   -0.0989    0.6176 C   0  0  0  0  0  0  0  0  0  0  0  0
    4.0683    0.6542    0.2638 C   0  0  0  0  0  0  0  0  0  0  0  0
    2.8562    0.0258   -0.0462 C   0  0  0  0  0  0  0  0  0  0  0  0
    2.7587   -1.3653    0.0200 C   0  0  0  0  0  0  0  0  0  0  0  0
    1.4994   -2.0661   -0.3141 C   0  0  0  0  0  0  0  0  0  0  0  0
    1.5327   -2.8912   -1.2263 O   0  0  0  0  0  0  0  0  0  0  0  0
    0.2186   -1.7652    0.4208 C   0  0  0  0  0  0  0  0  0  0  0  0
    0.3060   -0.8215    1.5724 C   0  0  0  0  0  0  0  0  0  0  0  0
    0.9573   -0.9803    2.5879 O   0  0  0  0  0  0  0  0  0  0  0  0
   -0.5205    0.4200    1.2840 C   0  0  0  0  0  0  0  0  0  0  0  0
   -0.5229    1.4162    1.9728 O   0  0  0  0  0  0  0  0  0  0  0  0
   -1.1748    0.1844    0.0997 N   0  0  0  0  0  0  0  0  0  0  0  0
   -1.8647    1.2314   -0.6529 C   0  0  0  0  0  0  0  0  0  0  0  0
   -3.1126    1.7765    0.0711 C   0  0  0  0  0  0  0  0  0  0  0  0
   -3.8658    2.7594   -0.7336 N   0  0  0  0  0  0  0  0  0  0  0  0
   -4.6194    2.1119   -1.8119 C   0  0  0  0  0  0  0  0  0  0  0  0
   -4.7916    3.5020    0.1282 C   0  0  0  0  0  0  0  0  0  0  0  0
   -0.7703   -1.0668   -0.5281 C   0  0  0  0  0  0  0  0  0  0  0  0
   -1.9531   -1.9607   -0.8543 C   0  0  0  0  0  0  0  0  0  0  0  0
   -1.9355   -2.7224   -2.0331 C   0  0  0  0  0  0  0  0  0  0  0  0
   -2.9993   -3.5685   -2.3501 C   0  0  0  0  0  0  0  0  0  0  0  0
   -4.0907   -3.6706   -1.4910 C   0  0  0  0  0  0  0  0  0  0  0  0
   -4.1165   -2.9324   -0.3106 C   0  0  0  0  0  0  0  0  0  0  0  0
   -3.0523   -2.0878    0.0109 C   0  0  0  0  0  0  0  0  0  0  0  0
    3.8749   -2.1341    0.3491 C   0  0  0  0  0  0  0  0  0  0  0  0
    5.0821   -1.5007    0.6530 C   0  0  0  0  0  0  0  0  0  0  0  0
    6.4324   -2.5012    1.0671 Cl  0  0  0  0  0  0  0  0  0  0  0  0
    5.1702    2.3770    2.3862 H   0  0  0  0  0  0  0  0  0  0  0  0
    6.4600    3.5737    2.1420 H   0  0  0  0  0  0  0  0  0  0  0  0
    6.7804    2.0570    3.0148 H   0  0  0  0  0  0  0  0  0  0  0  0
    6.1491    2.2890    0.0003 H   0  0  0  0  0  0  0  0  0  0  0  0
    7.7077    1.9740    0.7237 H   0  0  0  0  0  0  0  0  0  0  0  0
    4.0965    1.7384    0.2202 H   0  0  0  0  0  0  0  0  0  0  0  0
    2.0142    0.6431   -0.3475 H   0  0  0  0  0  0  0  0  0  0  0  0
   -0.1705   -2.7130    0.8134 H   0  0  0  0  0  0  0  0  0  0  0  0
   -2.1327    0.8168   -1.6294 H   0  0  0  0  0  0  0  0  0  0  0  0
   -1.1479    2.0439   -0.8210 H   0  0  0  0  0  0  0  0  0  0  0  0
   -2.7701    2.2598    0.9942 H   0  0  0  0  0  0  0  0  0  0  0  0
   -3.7634    0.9498    0.3832 H   0  0  0  0  0  0  0  0  0  0  0  0
   -3.9516    1.6242   -2.5282 H   0  0  0  0  0  0  0  0  0  0  0  0
   -5.3260    1.3653   -1.4319 H   0  0  0  0  0  0  0  0  0  0  0  0
   -5.1840    2.8568   -2.3844 H   0  0  0  0  0  0  0  0  0  0  0  0
   -5.3368    4.2558   -0.4510 H   0  0  0  0  0  0  0  0  0  0  0  0
   -5.5216    2.8442    0.6145 H   0  0  0  0  0  0  0  0  0  0  0  0
   -4.2434    4.0456    0.9058 H   0  0  0  0  0  0  0  0  0  0  0  0
   -0.2750   -0.7800   -1.4664 H   0  0  0  0  0  0  0  0  0  0  0  0
   -1.0849   -2.6744   -2.7122 H   0  0  0  0  0  0  0  0  0  0  0  0
   -2.9717   -4.1552   -3.2651 H   0  0  0  0  0  0  0  0  0  0  0  0
   -4.9174   -4.3316   -1.7385 H   0  0  0  0  0  0  0  0  0  0  0  0
   -4.9650   -3.0183    0.3639 H   0  0  0  0  0  0  0  0  0  0  0  0
   -3.0963   -1.5310    0.9447 H   0  0  0  0  0  0  0  0  0  0  0  0
    3.8059   -3.2192    0.3703 H   0  0  0  0  0  0  0  0  0  0  0  0
  1  2  1  0
  2  3  1  0
  3  4  1  0
  4  5  2  0
  5  6  1  0
  6  7  2  0
  7  8  1  0
  8  9  2  0
  8 10  1  0
 10 11  1  0
 11 12  2  0
 11 13  1  0
 13 14  2  0
 13 15  1  0
 15 16  1  0
 16 17  1  0
 17 18  1  0
 18 19  1  0
 18 20  1  0
 15 21  1  0
 21 22  1  0
 22 23  2  0
 23 24  1  0
 24 25  2  0
 25 26  1  0
 26 27  2  0
  7 28  1  0
 28 29  2  0
 29 30  1  0
 29  4  1  0
 21 10  1  0
 27 22  1  0
  1 31  1  0
  1 32  1  0
  1 33  1  0
  2 34  1  0
  2 35  1  0
  5 36  1  0
  6 37  1  0
 10 38  1  0
 16 39  1  0
 16 40  1  0
 17 41  1  0
 17 42  1  0
 19 43  1  0
 19 44  1  0
 19 45  1  0
 20 46  1  0
 20 47  1  0
 20 48  1  0
 21 49  1  0
 23 50  1  0
 24 51  1  0
 25 52  1  0
 26 53  1  0
 27 54  1  0
 28 55  1  0
M  END
$$$$
