
     RDKit          3D

 50 52  0  0  0  0  0  0  0  0999 V2000
   -1.8769   -2.5314   -1.4268 C   0  0  0  0  0  0  0  0  0  0  0  0
   -3.1305   -1.7669   -1.0113 C   0  0  0  0  0  0  0  0  0  0  0  0
   -2.8860   -0.5594   -0.0816 C   0  0  0  0  0  0  0  0  0  0  0  0
   -4.2052    0.1351    0.2805 C   0  0  0  0  0  0  0  0  0  0  0  0
   -4.9729    0.7581   -0.7238 C   0  0  0  0  0  0  0  0  0  0  0  0
   -6.1847    1.3858   -0.4260 C   0  0  0  0  0  0  0  0  0  0  0  0
   -6.6577    1.4036    0.8812 C   0  0  0  0  0  0  0  0  0  0  0  0
   -5.9167    0.7980    1.8919 C   0  0  0  0  0  0  0  0  0  0  0  0
   -4.7037    0.1687    1.5956 C   0  0  0  0  0  0  0  0  0  0  0  0
   -2.1332   -0.9480    1.0948 N   0  0  0  0  0  0  0  0  0  0  0  0
   -0.9401   -0.2799    1.2104 C   0  0  0  0  0  0  0  0  0  0  0  0
   -0.1469   -0.4582    2.1199 O   0  0  0  0  0  0  0  0  0  0  0  0
   -0.8146    0.5730    0.1630 N   0  0  0  0  0  0  0  0  0  0  0  0
    0.3673    1.3597   -0.1009 C   0  0  0  0  0  0  0  0  0  0  0  0
    1.3982    0.5156   -0.8626 C   0  0  0  0  0  0  0  0  0  0  0  0
    1.1338   -0.6271   -1.2475 O   0  0  0  0  0  0  0  0  0  0  0  0
    2.6387    1.1064   -1.1052 N   0  0  0  0  0  0  0  0  0  0  0  0
    3.0374    2.3969   -0.5630 C   0  0  0  0  0  0  0  0  0  0  0  0
    3.7006    0.2726   -1.6678 C   0  0  0  0  0  0  0  0  0  0  0  0
    4.6478   -0.2482   -0.6114 C   0  0  0  0  0  0  0  0  0  0  0  0
    4.2413   -1.2636    0.2661 C   0  0  0  0  0  0  0  0  0  0  0  0
    5.1064   -1.7360    1.2541 C   0  0  0  0  0  0  0  0  0  0  0  0
    6.3860   -1.1990    1.3754 C   0  0  0  0  0  0  0  0  0  0  0  0
    6.8021   -0.1888    0.5098 C   0  0  0  0  0  0  0  0  0  0  0  0
    5.9377    0.2860   -0.4784 C   0  0  0  0  0  0  0  0  0  0  0  0
   -1.8729    0.4469   -0.6936 C   0  0  0  0  0  0  0  0  0  0  0  0
   -1.9971    1.0372   -1.7606 O   0  0  0  0  0  0  0  0  0  0  0  0
   -2.1554   -3.3934   -2.0414 H   0  0  0  0  0  0  0  0  0  0  0  0
   -1.3258   -2.9080   -0.5610 H   0  0  0  0  0  0  0  0  0  0  0  0
   -1.2082   -1.9051   -2.0234 H   0  0  0  0  0  0  0  0  0  0  0  0
   -3.8080   -2.4741   -0.5136 H   0  0  0  0  0  0  0  0  0  0  0  0
   -3.6385   -1.4440   -1.9285 H   0  0  0  0  0  0  0  0  0  0  0  0
   -4.6287    0.7684   -1.7578 H   0  0  0  0  0  0  0  0  0  0  0  0
   -6.7553    1.8643   -1.2185 H   0  0  0  0  0  0  0  0  0  0  0  0
   -7.5994    1.8929    1.1138 H   0  0  0  0  0  0  0  0  0  0  0  0
   -6.2808    0.8159    2.9168 H   0  0  0  0  0  0  0  0  0  0  0  0
   -4.1572   -0.2872    2.4181 H   0  0  0  0  0  0  0  0  0  0  0  0
   -2.3979   -1.6659    1.7533 H   0  0  0  0  0  0  0  0  0  0  0  0
    0.7956    1.6797    0.8535 H   0  0  0  0  0  0  0  0  0  0  0  0
    0.0918    2.2229   -0.7143 H   0  0  0  0  0  0  0  0  0  0  0  0
    2.1880    3.0797   -0.4947 H   0  0  0  0  0  0  0  0  0  0  0  0
    3.4525    2.2471    0.4371 H   0  0  0  0  0  0  0  0  0  0  0  0
    3.7887    2.8516   -1.2137 H   0  0  0  0  0  0  0  0  0  0  0  0
    3.2812   -0.5768   -2.2180 H   0  0  0  0  0  0  0  0  0  0  0  0
    4.2399    0.8734   -2.4089 H   0  0  0  0  0  0  0  0  0  0  0  0
    3.2431   -1.6915    0.1839 H   0  0  0  0  0  0  0  0  0  0  0  0
    4.7781   -2.5224    1.9294 H   0  0  0  0  0  0  0  0  0  0  0  0
    7.0585   -1.5680    2.1455 H   0  0  0  0  0  0  0  0  0  0  0  0
    7.8010    0.2286    0.6054 H   0  0  0  0  0  0  0  0  0  0  0  0
    6.2786    1.0751   -1.1438 H   0  0  0  0  0  0  0  0  0  0  0  0
  1  2  1  0
  2  3  1  0
  3  4  1  0
  4  5  2  0
  5  6  1  0
  6  7  2  0
  7  8  1  0
  8  9  2  0
  3 10  1  0
 10 11  1  0
 11 12  2  0
 11 13  1  0
 13 14  1  0
 14 15  1  0
 15 16  2  0
 15 17  1  0
 17 18  1  0
 17 19  1  0
 19 20  1  0
 20 21  2  0
 21 22  1  0
 22 23  2  0
 23 24  1  0
 24 25  2  0
 13 26  1  0
 26 27  2  0
 26  3  1  0
  9  4  1  0
 25 20  1  0
  1 28  1  0
  1 29  1  0
  1 30  1  0
  2 31  1  0
  2 32  1  0
  5 33  1  0
  6 34  1  0
  7 35  1  0
  8 36  1  0
  9 37  1  0
 10 38  1  0
 14 39  1  0
 14 40  1  0
 18 41  1  0
 18 42  1  0
 18 43  1  0
 19 44  1  0
 19 45  1  0
 21 46  1  0
 22 47  1  0
 23 48  1  0
 24 49  1  0
 25 50  1  0
M  END
$$$$
