
     RDKit          3D

 47 49  0  0  0  0  0  0  0  0999 V2000
    1.2832    0.2443   -2.9725 O   0  0  0  0  0  0  0  0  0  0  0  0
    0.9927    0.4130   -1.7938 C   0  0  0  0  0  0  0  0  0  0  0  0
    1.6605    1.4771   -0.9409 C   0  0  0  0  0  0  0  0  0  0  0  0
    2.6900    2.2590   -1.7472 C   0  0  0  0  0  0  0  0  0  0  0  0
    3.4629    3.5834   -0.7474 S   0  0  0  0  0  0  0  0  0  0  0  0
    4.4495    2.6151    0.3806 C   0  0  0  0  0  0  0  0  0  0  0  0
    5.4343    1.7340   -0.0767 C   0  0  0  0  0  0  0  0  0  0  0  0
    6.1911    0.9901    0.8313 C   0  0  0  0  0  0  0  0  0  0  0  0
    5.9749    1.1308    2.2011 C   0  0  0  0  0  0  0  0  0  0  0  0
    5.0065    2.0195    2.6645 C   0  0  0  0  0  0  0  0  0  0  0  0
    4.2493    2.7631    1.7567 C   0  0  0  0  0  0  0  0  0  0  0  0
    0.0455   -0.2909   -1.0736 N   0  0  0  0  0  0  0  0  0  0  0  0
   -0.7284   -1.4036   -1.4886 C   0  0  0  0  0  0  0  0  0  0  0  0
   -0.5560   -2.0240   -2.7302 C   0  0  0  0  0  0  0  0  0  0  0  0
   -1.2896   -3.1673   -3.0688 C   0  0  0  0  0  0  0  0  0  0  0  0
   -2.1977   -3.7155   -2.1677 C   0  0  0  0  0  0  0  0  0  0  0  0
   -2.3970   -3.1042   -0.9327 C   0  0  0  0  0  0  0  0  0  0  0  0
   -1.6960   -1.9335   -0.6072 C   0  0  0  0  0  0  0  0  0  0  0  0
   -1.9512   -1.2781    0.7002 C   0  0  0  0  0  0  0  0  0  0  0  0
   -0.9798   -1.0038    1.4046 O   0  0  0  0  0  0  0  0  0  0  0  0
   -3.2487   -0.9392    1.0466 N   0  0  0  0  0  0  0  0  0  0  0  0
   -3.5137   -0.2442    2.2975 C   0  0  0  0  0  0  0  0  0  0  0  0
   -4.8113    0.5128    2.0539 C   0  0  0  0  0  0  0  0  0  0  0  0
   -5.5348   -0.3660    1.0446 C   0  0  0  0  0  0  0  0  0  0  0  0
   -4.4029   -0.8646    0.1571 C   0  0  0  0  0  0  0  0  0  0  0  0
    0.8806    2.1493   -0.5631 H   0  0  0  0  0  0  0  0  0  0  0  0
    2.1317    0.9728   -0.0894 H   0  0  0  0  0  0  0  0  0  0  0  0
    3.4592    1.5992   -2.1614 H   0  0  0  0  0  0  0  0  0  0  0  0
    2.2020    2.7462   -2.5990 H   0  0  0  0  0  0  0  0  0  0  0  0
    5.6305    1.6242   -1.1400 H   0  0  0  0  0  0  0  0  0  0  0  0
    6.9533    0.3051    0.4687 H   0  0  0  0  0  0  0  0  0  0  0  0
    6.5655    0.5528    2.9074 H   0  0  0  0  0  0  0  0  0  0  0  0
    4.8411    2.1362    3.7324 H   0  0  0  0  0  0  0  0  0  0  0  0
    3.5001    3.4556    2.1330 H   0  0  0  0  0  0  0  0  0  0  0  0
   -0.0648   -0.0395   -0.0897 H   0  0  0  0  0  0  0  0  0  0  0  0
    0.1642   -1.6579   -3.4557 H   0  0  0  0  0  0  0  0  0  0  0  0
   -1.1290   -3.6397   -4.0355 H   0  0  0  0  0  0  0  0  0  0  0  0
   -2.7435   -4.6194   -2.4261 H   0  0  0  0  0  0  0  0  0  0  0  0
   -3.0897   -3.5469   -0.2215 H   0  0  0  0  0  0  0  0  0  0  0  0
   -2.6912    0.4206    2.5781 H   0  0  0  0  0  0  0  0  0  0  0  0
   -3.6376   -1.0055    3.0753 H   0  0  0  0  0  0  0  0  0  0  0  0
   -5.3840    0.6740    2.9712 H   0  0  0  0  0  0  0  0  0  0  0  0
   -4.5964    1.4905    1.6059 H   0  0  0  0  0  0  0  0  0  0  0  0
   -6.0080   -1.2102    1.5606 H   0  0  0  0  0  0  0  0  0  0  0  0
   -6.3054    0.1696    0.4838 H   0  0  0  0  0  0  0  0  0  0  0  0
   -4.6396   -1.8339   -0.2847 H   0  0  0  0  0  0  0  0  0  0  0  0
   -4.1725   -0.1505   -0.6413 H   0  0  0  0  0  0  0  0  0  0  0  0
  1  2  2  0
  2  3  1  0
  3  4  1  0
  4  5  1  0
  5  6  1  0
  6  7  2  0
  7  8  1  0
  8  9  2  0
  9 10  1  0
 10 11  2  0
  2 12  1  0
 12 13  1  0
 13 14  2  0
 14 15  1  0
 15 16  2  0
 16 17  1  0
 17 18  2  0
 18 19  1  0
 19 20  2  0
 19 21  1  0
 21 22  1  0
 22 23  1  0
 23 24  1  0
 24 25  1  0
 11  6  1  0
 18 13  1  0
 25 21  1  0
  3 26  1  0
  3 27  1  0
  4 28  1  0
  4 29  1  0
  7 30  1  0
  8 31  1  0
  9 32  1  0
 10 33  1  0
 11 34  1  0
 12 35  1  0
 14 36  1  0
 15 37  1  0
 16 38  1  0
 17 39  1  0
 22 40  1  0
 22 41  1  0
 23 42  1  0
 23 43  1  0
 24 44  1  0
 24 45  1  0
 25 46  1  0
 25 47  1  0
M  END
$$$$
