
     RDKit          3D

 45 47  0  0  0  0  0  0  0  0999 V2000
    6.1051   -1.8002   -0.4662 C   0  0  0  0  0  0  0  0  0  0  0  0
    4.8703   -0.9991   -0.2636 C   0  0  0  0  0  0  0  0  0  0  0  0
    4.6589    0.1774   -0.9386 N   0  0  0  0  0  0  0  0  0  0  0  0
    3.4520    0.7312   -0.5831 C   0  0  0  0  0  0  0  0  0  0  0  0
    2.8426    1.9159   -1.0130 C   0  0  0  0  0  0  0  0  0  0  0  0
    1.5930    2.2361   -0.4705 C   0  0  0  0  0  0  0  0  0  0  0  0
    0.9770    1.3948    0.4625 C   0  0  0  0  0  0  0  0  0  0  0  0
   -0.3533    1.7196    1.0472 C   0  0  0  0  0  0  0  0  0  0  0  0
   -0.6330    1.3489    2.1820 O   0  0  0  0  0  0  0  0  0  0  0  0
   -1.2205    2.4135    0.2267 N   0  0  0  0  0  0  0  0  0  0  0  0
   -2.6161    2.5975    0.5902 C   0  0  0  0  0  0  0  0  0  0  0  0
   -3.5729    1.7349   -0.2650 C   0  0  0  0  0  0  0  0  0  0  0  0
   -3.1538    0.3382   -0.4646 N   0  0  0  0  0  0  0  0  0  0  0  0
   -3.9714   -0.3180   -1.5051 C   0  0  0  0  0  0  0  0  0  0  0  0
   -3.8849   -1.8475   -1.4078 C   0  0  0  0  0  0  0  0  0  0  0  0
   -4.4399   -2.3535   -0.1867 O   0  0  0  0  0  0  0  0  0  0  0  0
   -4.3401   -1.4258    0.9025 C   0  0  0  0  0  0  0  0  0  0  0  0
   -3.1487   -0.4605    0.7815 C   0  0  0  0  0  0  0  0  0  0  0  0
    1.6158    0.2206    0.8912 C   0  0  0  0  0  0  0  0  0  0  0  0
    2.8736   -0.1218    0.3544 C   0  0  0  0  0  0  0  0  0  0  0  0
    3.7735   -1.2176    0.5546 C   0  0  0  0  0  0  0  0  0  0  0  0
    3.5530   -2.3645    1.4772 C   0  0  0  0  0  0  0  0  0  0  0  0
    6.6385   -1.9235    0.4818 H   0  0  0  0  0  0  0  0  0  0  0  0
    5.8546   -2.7928   -0.8537 H   0  0  0  0  0  0  0  0  0  0  0  0
    6.7862   -1.3215   -1.1771 H   0  0  0  0  0  0  0  0  0  0  0  0
    5.2989    0.5874   -1.6042 H   0  0  0  0  0  0  0  0  0  0  0  0
    3.3220    2.5712   -1.7330 H   0  0  0  0  0  0  0  0  0  0  0  0
    1.1218    3.1686   -0.7702 H   0  0  0  0  0  0  0  0  0  0  0  0
   -1.0091    2.4356   -0.7614 H   0  0  0  0  0  0  0  0  0  0  0  0
   -2.7610    2.3935    1.6556 H   0  0  0  0  0  0  0  0  0  0  0  0
   -2.8470    3.6553    0.4243 H   0  0  0  0  0  0  0  0  0  0  0  0
   -3.6208    2.2132   -1.2528 H   0  0  0  0  0  0  0  0  0  0  0  0
   -4.5834    1.7887    0.1595 H   0  0  0  0  0  0  0  0  0  0  0  0
   -5.0248   -0.0248   -1.4041 H   0  0  0  0  0  0  0  0  0  0  0  0
   -3.6232    0.0071   -2.4916 H   0  0  0  0  0  0  0  0  0  0  0  0
   -4.4367   -2.3089   -2.2331 H   0  0  0  0  0  0  0  0  0  0  0  0
   -2.8452   -2.1879   -1.4812 H   0  0  0  0  0  0  0  0  0  0  0  0
   -4.2554   -2.0120    1.8232 H   0  0  0  0  0  0  0  0  0  0  0  0
   -5.2820   -0.8676    0.9596 H   0  0  0  0  0  0  0  0  0  0  0  0
   -3.1027    0.1640    1.6787 H   0  0  0  0  0  0  0  0  0  0  0  0
   -2.2269   -1.0556    0.7699 H   0  0  0  0  0  0  0  0  0  0  0  0
    1.1409   -0.4228    1.6272 H   0  0  0  0  0  0  0  0  0  0  0  0
    2.6152   -2.8745    1.2343 H   0  0  0  0  0  0  0  0  0  0  0  0
    4.3614   -3.0991    1.4114 H   0  0  0  0  0  0  0  0  0  0  0  0
    3.4987   -2.0135    2.5127 H   0  0  0  0  0  0  0  0  0  0  0  0
  1  2  1  0
  2  3  1  0
  3  4  1  0
  4  5  2  0
  5  6  1  0
  6  7  2  0
  7  8  1  0
  8  9  2  0
  8 10  1  0
 10 11  1  0
 11 12  1  0
 12 13  1  0
 13 14  1  0
 14 15  1  0
 15 16  1  0
 16 17  1  0
 17 18  1  0
  7 19  1  0
 19 20  2  0
 20 21  1  0
 21 22  1  0
 21  2  2  0
 20  4  1  0
 18 13  1  0
  1 23  1  0
  1 24  1  0
  1 25  1  0
  3 26  1  0
  5 27  1  0
  6 28  1  0
 10 29  1  0
 11 30  1  0
 11 31  1  0
 12 32  1  0
 12 33  1  0
 14 34  1  0
 14 35  1  0
 15 36  1  0
 15 37  1  0
 17 38  1  0
 17 39  1  0
 18 40  1  0
 18 41  1  0
 19 42  1  0
 22 43  1  0
 22 44  1  0
 22 45  1  0
M  END
$$$$
