
     RDKit          3D

 43 45  0  0  0  0  0  0  0  0999 V2000
    3.3095    2.2176   -0.8367 C   0  0  0  0  0  0  0  0  0  0  0  0
    4.6572    1.6036   -1.1813 C   0  0  0  0  0  0  0  0  0  0  0  0
    4.6077    0.1013   -1.4758 C   0  0  0  0  0  0  0  0  0  0  0  0
    4.4884   -0.7925   -0.2363 C   0  0  0  0  0  0  0  0  0  0  0  0
    3.1949   -0.7294    0.4402 N   0  0  0  0  0  0  0  0  0  0  0  0
    2.0527   -1.3321   -0.2307 C   0  0  0  0  0  0  0  0  0  0  0  0
    0.7491   -1.0201    0.4215 C   0  0  0  0  0  0  0  0  0  0  0  0
   -0.4789   -1.1800   -0.2256 C   0  0  0  0  0  0  0  0  0  0  0  0
   -1.6584   -0.9359    0.4792 C   0  0  0  0  0  0  0  0  0  0  0  0
   -2.9594   -1.1193   -0.1919 C   0  0  0  0  0  0  0  0  0  0  0  0
   -3.0844   -2.0450   -0.9933 O   0  0  0  0  0  0  0  0  0  0  0  0
   -4.1304   -0.2455    0.0712 C   0  0  0  0  0  0  0  0  0  0  0  0
   -3.9733    1.0862    0.4712 C   0  0  0  0  0  0  0  0  0  0  0  0
   -5.1019    1.8657    0.7112 C   0  0  0  0  0  0  0  0  0  0  0  0
   -4.9461    3.1375    1.1000 F   0  0  0  0  0  0  0  0  0  0  0  0
   -6.3845    1.3527    0.5525 C   0  0  0  0  0  0  0  0  0  0  0  0
   -6.5481    0.0357    0.1287 C   0  0  0  0  0  0  0  0  0  0  0  0
   -5.4260   -0.7527   -0.1234 C   0  0  0  0  0  0  0  0  0  0  0  0
   -5.6669   -2.0257   -0.5657 O   0  0  0  0  0  0  0  0  0  0  0  0
   -1.5590   -0.5964    1.8215 C   0  0  0  0  0  0  0  0  0  0  0  0
   -0.3806   -0.4363    2.4697 N   0  0  0  0  0  0  0  0  0  0  0  0
    0.7424   -0.6438    1.7521 C   0  0  0  0  0  0  0  0  0  0  0  0
    1.9481   -0.4692    2.3992 N   0  0  0  0  0  0  0  0  0  0  0  0
    3.1694   -0.4782    1.8013 C   0  0  0  0  0  0  0  0  0  0  0  0
    4.1703   -0.2296    2.4702 O   0  0  0  0  0  0  0  0  0  0  0  0
    2.5526    1.9562   -1.5829 H   0  0  0  0  0  0  0  0  0  0  0  0
    3.3933    3.3090   -0.8098 H   0  0  0  0  0  0  0  0  0  0  0  0
    2.9561    1.8971    0.1456 H   0  0  0  0  0  0  0  0  0  0  0  0
    5.3745    1.8106   -0.3788 H   0  0  0  0  0  0  0  0  0  0  0  0
    5.0357    2.1102   -2.0778 H   0  0  0  0  0  0  0  0  0  0  0  0
    5.5499   -0.1642   -1.9728 H   0  0  0  0  0  0  0  0  0  0  0  0
    3.8140   -0.1123   -2.1994 H   0  0  0  0  0  0  0  0  0  0  0  0
    5.3000   -0.5415    0.4555 H   0  0  0  0  0  0  0  0  0  0  0  0
    4.6454   -1.8389   -0.5260 H   0  0  0  0  0  0  0  0  0  0  0  0
    2.2046   -2.4179   -0.2363 H   0  0  0  0  0  0  0  0  0  0  0  0
    2.0285   -0.9745   -1.2643 H   0  0  0  0  0  0  0  0  0  0  0  0
   -0.5195   -1.4999   -1.2648 H   0  0  0  0  0  0  0  0  0  0  0  0
   -2.9985    1.5489    0.5874 H   0  0  0  0  0  0  0  0  0  0  0  0
   -7.2465    1.9834    0.7473 H   0  0  0  0  0  0  0  0  0  0  0  0
   -7.5443   -0.3748   -0.0161 H   0  0  0  0  0  0  0  0  0  0  0  0
   -4.8190   -2.3976   -0.8989 H   0  0  0  0  0  0  0  0  0  0  0  0
   -2.4351   -0.4511    2.4476 H   0  0  0  0  0  0  0  0  0  0  0  0
    1.9163   -0.2116    3.3740 H   0  0  0  0  0  0  0  0  0  0  0  0
  1  2  1  0
  2  3  1  0
  3  4  1  0
  4  5  1  0
  5  6  1  0
  6  7  1  0
  7  8  2  0
  8  9  1  0
  9 10  1  0
 10 11  2  0
 10 12  1  0
 12 13  2  0
 13 14  1  0
 14 15  1  0
 14 16  2  0
 16 17  1  0
 17 18  2  0
 18 19  1  0
  9 20  2  0
 20 21  1  0
 21 22  2  0
 22 23  1  0
 23 24  1  0
 24 25  2  0
 24  5  1  0
 22  7  1  0
 18 12  1  0
  1 26  1  0
  1 27  1  0
  1 28  1  0
  2 29  1  0
  2 30  1  0
  3 31  1  0
  3 32  1  0
  4 33  1  0
  4 34  1  0
  6 35  1  0
  6 36  1  0
  8 37  1  0
 13 38  1  0
 16 39  1  0
 17 40  1  0
 19 41  1  0
 20 42  1  0
 23 43  1  0
M  END
$$$$
