
     RDKit          3D

 38 40  0  0  0  0  0  0  0  0999 V2000
    2.7877   -1.7179   -2.5087 N   0  0  0  0  0  0  0  0  0  0  0  0
    2.5089   -1.6459   -1.3836 C   0  0  0  0  0  0  0  0  0  0  0  0
    2.1769   -1.5098   -0.0099 C   0  0  0  0  0  0  0  0  0  0  0  0
    2.8565   -0.7850    0.8985 C   0  0  0  0  0  0  0  0  0  0  0  0
    4.0241   -0.0092    0.6296 C   0  0  0  0  0  0  0  0  0  0  0  0
    5.0807   -0.1961   -0.2502 C   0  0  0  0  0  0  0  0  0  0  0  0
    6.0569    0.8455   -0.1874 C   0  0  0  0  0  0  0  0  0  0  0  0
    5.7192    1.7828    0.7510 C   0  0  0  0  0  0  0  0  0  0  0  0
    6.7799    3.3263    1.1297 Br  0  0  0  0  0  0  0  0  0  0  0  0
    4.2726    1.4351    1.5519 S   0  0  0  0  0  0  0  0  0  0  0  0
    0.9772   -2.2523    0.4606 C   0  0  0  0  0  0  0  0  0  0  0  0
    0.8289   -3.4434    0.2165 O   0  0  0  0  0  0  0  0  0  0  0  0
    0.0489   -1.4814    1.1250 N   0  0  0  0  0  0  0  0  0  0  0  0
   -1.2843   -1.9931    1.3999 C   0  0  0  0  0  0  0  0  0  0  0  0
   -2.1814   -2.0227    0.1554 C   0  0  0  0  0  0  0  0  0  0  0  0
   -2.2947   -0.6855   -0.5152 C   0  0  0  0  0  0  0  0  0  0  0  0
   -1.6932   -0.3197   -1.7045 C   0  0  0  0  0  0  0  0  0  0  0  0
   -2.0296    0.9780   -1.9774 N   0  0  0  0  0  0  0  0  0  0  0  0
   -2.8347    1.4788   -0.9814 C   0  0  0  0  0  0  0  0  0  0  0  0
   -3.4058    2.7490   -0.8386 C   0  0  0  0  0  0  0  0  0  0  0  0
   -4.2016    2.9791    0.2870 C   0  0  0  0  0  0  0  0  0  0  0  0
   -4.4184    1.9766    1.2288 C   0  0  0  0  0  0  0  0  0  0  0  0
   -3.8401    0.7117    1.0703 C   0  0  0  0  0  0  0  0  0  0  0  0
   -3.0290    0.4541   -0.0542 C   0  0  0  0  0  0  0  0  0  0  0  0
    2.4919   -0.7617    1.9256 H   0  0  0  0  0  0  0  0  0  0  0  0
    5.1745   -1.0453   -0.9178 H   0  0  0  0  0  0  0  0  0  0  0  0
    6.9509    0.8856   -0.7978 H   0  0  0  0  0  0  0  0  0  0  0  0
    0.1300   -0.4720    1.0751 H   0  0  0  0  0  0  0  0  0  0  0  0
   -1.7140   -1.3497    2.1748 H   0  0  0  0  0  0  0  0  0  0  0  0
   -1.1948   -3.0044    1.8120 H   0  0  0  0  0  0  0  0  0  0  0  0
   -3.1814   -2.3713    0.4402 H   0  0  0  0  0  0  0  0  0  0  0  0
   -1.7903   -2.7539   -0.5633 H   0  0  0  0  0  0  0  0  0  0  0  0
   -1.0607   -0.8781   -2.3833 H   0  0  0  0  0  0  0  0  0  0  0  0
   -1.7361    1.4973   -2.7935 H   0  0  0  0  0  0  0  0  0  0  0  0
   -3.2441    3.5307   -1.5737 H   0  0  0  0  0  0  0  0  0  0  0  0
   -4.6618    3.9549    0.4257 H   0  0  0  0  0  0  0  0  0  0  0  0
   -5.0459    2.1754    2.0942 H   0  0  0  0  0  0  0  0  0  0  0  0
   -4.0236   -0.0622    1.8092 H   0  0  0  0  0  0  0  0  0  0  0  0
  1  2  3  0
  2  3  1  0
  3  4  2  3
  4  5  1  0
  5  6  2  0
  6  7  1  0
  7  8  2  0
  8  9  1  0
  8 10  1  0
  3 11  1  0
 11 12  2  0
 11 13  1  0
 13 14  1  0
 14 15  1  0
 15 16  1  0
 16 17  2  0
 17 18  1  0
 18 19  1  0
 19 20  2  0
 20 21  1  0
 21 22  2  0
 22 23  1  0
 23 24  2  0
 10  5  1  0
 24 16  1  0
 24 19  1  0
  4 25  1  0
  6 26  1  0
  7 27  1  0
 13 28  1  0
 14 29  1  0
 14 30  1  0
 15 31  1  0
 15 32  1  0
 17 33  1  0
 18 34  1  0
 20 35  1  0
 21 36  1  0
 22 37  1  0
 23 38  1  0
M  END
$$$$
