
     RDKit          3D

 50 53  0  0  0  0  0  0  0  0999 V2000
   -3.4655    0.7106   -3.0698 C   0  0  0  0  0  0  0  0  0  0  0  0
   -3.8276   -0.2952   -1.9735 C   0  0  0  0  0  0  0  0  0  0  0  0
   -5.0634    0.1937   -1.1941 C   0  0  0  0  0  0  0  0  0  0  0  0
   -4.9945   -0.2100    0.2802 C   0  0  0  0  0  0  0  0  0  0  0  0
   -6.2583    0.2108    1.0274 C   0  0  0  0  0  0  0  0  0  0  0  0
   -3.7428    0.4004    0.9379 C   0  0  0  0  0  0  0  0  0  0  0  0
   -2.5837    0.3482    0.0452 N   0  0  0  0  0  0  0  0  0  0  0  0
   -1.3597    0.5797    0.6565 C   0  0  0  0  0  0  0  0  0  0  0  0
   -1.3367    1.2368    1.8311 N   0  0  0  0  0  0  0  0  0  0  0  0
   -0.1367    1.4859    2.3979 C   0  0  0  0  0  0  0  0  0  0  0  0
    1.0524    1.0983    1.8357 C   0  0  0  0  0  0  0  0  0  0  0  0
    0.9585    0.4231    0.6404 C   0  0  0  0  0  0  0  0  0  0  0  0
   -0.2305    0.1687    0.0478 N   0  0  0  0  0  0  0  0  0  0  0  0
    2.1914   -0.0309   -0.0924 C   0  0  0  0  0  0  0  0  0  0  0  0
    3.3416   -0.3015    0.8891 C   0  0  0  0  0  0  0  0  0  0  0  0
    4.5990   -0.7661    0.1748 C   0  0  0  0  0  0  0  0  0  0  0  0
    5.1177   -2.0433    0.4419 C   0  0  0  0  0  0  0  0  0  0  0  0
    6.2725   -2.4940   -0.2030 C   0  0  0  0  0  0  0  0  0  0  0  0
    6.9189   -1.6713   -1.1209 C   0  0  0  0  0  0  0  0  0  0  0  0
    8.3403   -2.2258   -1.9153 Cl  0  0  0  0  0  0  0  0  0  0  0  0
    6.4203   -0.4018   -1.3990 C   0  0  0  0  0  0  0  0  0  0  0  0
    5.2654    0.0494   -0.7542 C   0  0  0  0  0  0  0  0  0  0  0  0
    3.6023    0.9364    1.7562 C   0  0  0  0  0  0  0  0  0  0  0  0
    2.3470    1.3842    2.4720 C   0  0  0  0  0  0  0  0  0  0  0  0
    2.3854    2.0104    3.5263 O   0  0  0  0  0  0  0  0  0  0  0  0
   -2.6176   -0.5931   -1.0644 C   0  0  0  0  0  0  0  0  0  0  0  0
   -3.1507    1.6689   -2.6430 H   0  0  0  0  0  0  0  0  0  0  0  0
   -2.6465    0.3318   -3.6904 H   0  0  0  0  0  0  0  0  0  0  0  0
   -4.3229    0.8943   -3.7260 H   0  0  0  0  0  0  0  0  0  0  0  0
   -4.0891   -1.2353   -2.4777 H   0  0  0  0  0  0  0  0  0  0  0  0
   -5.9676   -0.2162   -1.6614 H   0  0  0  0  0  0  0  0  0  0  0  0
   -5.1521    1.2863   -1.2621 H   0  0  0  0  0  0  0  0  0  0  0  0
   -4.9240   -1.3049    0.3359 H   0  0  0  0  0  0  0  0  0  0  0  0
   -7.1436   -0.2591    0.5865 H   0  0  0  0  0  0  0  0  0  0  0  0
   -6.4000    1.2964    0.9932 H   0  0  0  0  0  0  0  0  0  0  0  0
   -6.2056   -0.0917    2.0785 H   0  0  0  0  0  0  0  0  0  0  0  0
   -3.5511   -0.1475    1.8706 H   0  0  0  0  0  0  0  0  0  0  0  0
   -3.9386    1.4483    1.2002 H   0  0  0  0  0  0  0  0  0  0  0  0
   -0.1742    2.0243    3.3410 H   0  0  0  0  0  0  0  0  0  0  0  0
    2.4599    0.7471   -0.8177 H   0  0  0  0  0  0  0  0  0  0  0  0
    1.9650   -0.9412   -0.6617 H   0  0  0  0  0  0  0  0  0  0  0  0
    3.0135   -1.1072    1.5635 H   0  0  0  0  0  0  0  0  0  0  0  0
    4.6282   -2.7029    1.1563 H   0  0  0  0  0  0  0  0  0  0  0  0
    6.6604   -3.4854    0.0159 H   0  0  0  0  0  0  0  0  0  0  0  0
    6.9245    0.2417   -2.1154 H   0  0  0  0  0  0  0  0  0  0  0  0
    4.8966    1.0457   -0.9892 H   0  0  0  0  0  0  0  0  0  0  0  0
    3.9675    1.7842    1.1651 H   0  0  0  0  0  0  0  0  0  0  0  0
    4.3600    0.7004    2.5133 H   0  0  0  0  0  0  0  0  0  0  0  0
   -2.6967   -1.6139   -0.6672 H   0  0  0  0  0  0  0  0  0  0  0  0
   -1.7088   -0.5676   -1.6779 H   0  0  0  0  0  0  0  0  0  0  0  0
  1  2  1  0
  2  3  1  0
  3  4  1  0
  4  5  1  0
  4  6  1  0
  6  7  1  0
  7  8  1  0
  8  9  2  0
  9 10  1  0
 10 11  2  0
 11 12  1  0
 12 13  2  0
 12 14  1  0
 14 15  1  0
 15 16  1  0
 16 17  2  0
 17 18  1  0
 18 19  2  0
 19 20  1  0
 19 21  1  0
 21 22  2  0
 15 23  1  0
 23 24  1  0
 24 25  2  0
  7 26  1  0
 26  2  1  0
 13  8  1  0
 22 16  1  0
 24 11  1  0
  1 27  1  0
  1 28  1  0
  1 29  1  0
  2 30  1  0
  3 31  1  0
  3 32  1  0
  4 33  1  0
  5 34  1  0
  5 35  1  0
  5 36  1  0
  6 37  1  0
  6 38  1  0
 10 39  1  0
 14 40  1  0
 14 41  1  0
 15 42  1  0
 17 43  1  0
 18 44  1  0
 21 45  1  0
 22 46  1  0
 23 47  1  0
 23 48  1  0
 26 49  1  0
 26 50  1  0
M  END
$$$$
