
     RDKit          3D

 61 66  0  0  0  0  0  0  0  0999 V2000
   -3.7951    5.5852    0.2466 C   0  0  0  0  0  0  0  0  0  0  0  0
   -2.8624    4.4314    0.6082 C   0  0  0  0  0  0  0  0  0  0  0  0
   -3.3501    3.1121   -0.0259 C   0  0  0  0  0  0  0  0  0  0  0  0
   -2.4899    1.9158    0.4138 C   0  0  0  0  0  0  0  0  0  0  0  0
   -1.0216    2.2239    0.3535 C   0  0  0  0  0  0  0  0  0  0  0  0
   -0.5585    3.5234    0.2566 C   0  0  0  0  0  0  0  0  0  0  0  0
    1.1367    3.6104    0.1881 S   0  0  0  0  0  0  0  0  0  0  0  0
    1.2856    1.9159    0.2982 C   0  0  0  0  0  0  0  0  0  0  0  0
    2.5003    1.3472    0.2798 N   0  0  0  0  0  0  0  0  0  0  0  0
    2.4527    0.0106    0.3703 C   0  0  0  0  0  0  0  0  0  0  0  0
    3.7831   -0.7329    0.3023 C   0  0  0  0  0  0  0  0  0  0  0  0
    4.1560   -1.2299   -1.0438 N   0  0  0  0  0  0  0  0  0  0  0  0
    5.3785   -2.0579   -0.9981 C   0  0  0  0  0  0  0  0  0  0  0  0
    6.6455   -1.3076   -1.4376 C   0  0  0  0  0  0  0  0  0  0  0  0
    6.5629   -0.8010   -2.7760 O   0  0  0  0  0  0  0  0  0  0  0  0
    5.2197   -0.4996   -3.1822 C   0  0  0  0  0  0  0  0  0  0  0  0
    4.3158   -0.1119   -2.0023 C   0  0  0  0  0  0  0  0  0  0  0  0
    1.3352   -0.7346    0.4948 N   0  0  0  0  0  0  0  0  0  0  0  0
    0.1212   -0.1368    0.5205 C   0  0  0  0  0  0  0  0  0  0  0  0
   -1.0415   -0.9156    0.6717 N   0  0  0  0  0  0  0  0  0  0  0  0
   -1.3422   -1.1029    2.0986 C   0  0  0  0  0  0  0  0  0  0  0  0
   -2.7587   -1.6724    2.2352 C   0  0  0  0  0  0  0  0  0  0  0  0
   -3.0046   -2.8408    1.3110 C   0  0  0  0  0  0  0  0  0  0  0  0
   -4.1125   -3.6740    1.5190 C   0  0  0  0  0  0  0  0  0  0  0  0
   -4.3713   -4.7330    0.6495 C   0  0  0  0  0  0  0  0  0  0  0  0
   -3.5311   -4.9648   -0.4369 C   0  0  0  0  0  0  0  0  0  0  0  0
   -2.4316   -4.1353   -0.6588 C   0  0  0  0  0  0  0  0  0  0  0  0
   -2.1637   -3.0595    0.2017 C   0  0  0  0  0  0  0  0  0  0  0  0
   -0.9327   -2.2019   -0.0375 C   0  0  0  0  0  0  0  0  0  0  0  0
    0.0640    1.2695    0.4034 C   0  0  0  0  0  0  0  0  0  0  0  0
   -1.4156    4.7491    0.1713 C   0  0  0  0  0  0  0  0  0  0  0  0
   -3.8343    5.7416   -0.8367 H   0  0  0  0  0  0  0  0  0  0  0  0
   -3.4578    6.5171    0.7124 H   0  0  0  0  0  0  0  0  0  0  0  0
   -4.8134    5.3849    0.5962 H   0  0  0  0  0  0  0  0  0  0  0  0
   -2.8794    4.3110    1.7004 H   0  0  0  0  0  0  0  0  0  0  0  0
   -4.3949    2.9197    0.2456 H   0  0  0  0  0  0  0  0  0  0  0  0
   -3.3171    3.2003   -1.1202 H   0  0  0  0  0  0  0  0  0  0  0  0
   -2.7484    1.6496    1.4457 H   0  0  0  0  0  0  0  0  0  0  0  0
   -2.7305    1.0573   -0.2225 H   0  0  0  0  0  0  0  0  0  0  0  0
    4.5728   -0.0876    0.7094 H   0  0  0  0  0  0  0  0  0  0  0  0
    3.6948   -1.5876    0.9856 H   0  0  0  0  0  0  0  0  0  0  0  0
    5.5303   -2.5054   -0.0088 H   0  0  0  0  0  0  0  0  0  0  0  0
    5.2196   -2.8947   -1.6901 H   0  0  0  0  0  0  0  0  0  0  0  0
    7.5112   -1.9763   -1.3951 H   0  0  0  0  0  0  0  0  0  0  0  0
    6.8518   -0.4666   -0.7653 H   0  0  0  0  0  0  0  0  0  0  0  0
    5.2735    0.3238   -3.9018 H   0  0  0  0  0  0  0  0  0  0  0  0
    4.8182   -1.3703   -3.7139 H   0  0  0  0  0  0  0  0  0  0  0  0
    3.3319    0.1825   -2.3832 H   0  0  0  0  0  0  0  0  0  0  0  0
    4.7662    0.7584   -1.5071 H   0  0  0  0  0  0  0  0  0  0  0  0
   -1.2964   -0.1549    2.6499 H   0  0  0  0  0  0  0  0  0  0  0  0
   -0.6149   -1.7859    2.5600 H   0  0  0  0  0  0  0  0  0  0  0  0
   -3.4895   -0.8914    1.9902 H   0  0  0  0  0  0  0  0  0  0  0  0
   -2.9235   -1.9734    3.2763 H   0  0  0  0  0  0  0  0  0  0  0  0
   -4.7807   -3.4993    2.3590 H   0  0  0  0  0  0  0  0  0  0  0  0
   -5.2305   -5.3766    0.8185 H   0  0  0  0  0  0  0  0  0  0  0  0
   -3.7322   -5.7920   -1.1125 H   0  0  0  0  0  0  0  0  0  0  0  0
   -1.7814   -4.3311   -1.5089 H   0  0  0  0  0  0  0  0  0  0  0  0
   -0.8372   -2.0111   -1.1142 H   0  0  0  0  0  0  0  0  0  0  0  0
   -0.0641   -2.7841    0.2987 H   0  0  0  0  0  0  0  0  0  0  0  0
   -1.4069    5.1103   -0.8651 H   0  0  0  0  0  0  0  0  0  0  0  0
   -1.0115    5.5497    0.8026 H   0  0  0  0  0  0  0  0  0  0  0  0
  1  2  1  0
  2  3  1  0
  3  4  1  0
  4  5  1  0
  5  6  2  0
  6  7  1  0
  7  8  1  0
  8  9  2  0
  9 10  1  0
 10 11  1  0
 11 12  1  0
 12 13  1  0
 13 14  1  0
 14 15  1  0
 15 16  1  0
 16 17  1  0
 10 18  2  0
 18 19  1  0
 19 20  1  0
 20 21  1  0
 21 22  1  0
 22 23  1  0
 23 24  2  0
 24 25  1  0
 25 26  2  0
 26 27  1  0
 27 28  2  0
 28 29  1  0
 19 30  2  0
  6 31  1  0
 31  2  1  0
 30  5  1  0
 30  8  1  0
 17 12  1  0
 29 20  1  0
 28 23  1  0
  1 32  1  0
  1 33  1  0
  1 34  1  0
  2 35  1  0
  3 36  1  0
  3 37  1  0
  4 38  1  0
  4 39  1  0
 11 40  1  0
 11 41  1  0
 13 42  1  0
 13 43  1  0
 14 44  1  0
 14 45  1  0
 16 46  1  0
 16 47  1  0
 17 48  1  0
 17 49  1  0
 21 50  1  0
 21 51  1  0
 22 52  1  0
 22 53  1  0
 24 54  1  0
 25 55  1  0
 26 56  1  0
 27 57  1  0
 29 58  1  0
 29 59  1  0
 31 60  1  0
 31 61  1  0
M  END
$$$$
