
     RDKit          3D

 39 41  0  0  0  0  0  0  0  0999 V2000
    0.5335   -1.5127    1.9942 O   0  0  0  0  0  0  0  0  0  0  0  0
    0.1626   -0.6926    1.1573 C   0  0  0  0  0  0  0  0  0  0  0  0
    1.0152    0.1952    0.5357 N   0  0  0  0  0  0  0  0  0  0  0  0
    2.4587    0.1524    0.7489 C   0  0  0  0  0  0  0  0  0  0  0  0
    3.0897    1.5266    0.4660 C   0  0  0  0  0  0  0  0  0  0  0  0
    3.5637    1.6463   -0.9781 C   0  0  0  0  0  0  0  0  0  0  0  0
    4.6317    0.6031   -1.3138 C   0  0  0  0  0  0  0  0  0  0  0  0
    4.5226   -0.6733   -0.4779 C   0  0  0  0  0  0  0  0  0  0  0  0
    3.0790   -0.9746   -0.0974 C   0  0  0  0  0  0  0  0  0  0  0  0
   -1.2862   -0.6115    0.8222 C   0  0  0  0  0  0  0  0  0  0  0  0
   -1.7337   -0.0787   -0.3958 C   0  0  0  0  0  0  0  0  0  0  0  0
   -3.1080    0.0044   -0.6858 C   0  0  0  0  0  0  0  0  0  0  0  0
   -3.5682    0.5426   -1.8990 C   0  0  0  0  0  0  0  0  0  0  0  0
   -4.9348    0.6218   -2.1727 C   0  0  0  0  0  0  0  0  0  0  0  0
   -5.8593    0.1632   -1.2392 C   0  0  0  0  0  0  0  0  0  0  0  0
   -5.4197   -0.3781   -0.0306 C   0  0  0  0  0  0  0  0  0  0  0  0
   -4.0491   -0.4652    0.2599 C   0  0  0  0  0  0  0  0  0  0  0  0
   -3.5947   -1.0181    1.4654 C   0  0  0  0  0  0  0  0  0  0  0  0
   -2.2299   -1.1000    1.7360 C   0  0  0  0  0  0  0  0  0  0  0  0
   -1.8868   -1.6787    2.9307 O   0  0  0  0  0  0  0  0  0  0  0  0
    0.6532    0.8904   -0.1007 H   0  0  0  0  0  0  0  0  0  0  0  0
    2.6207   -0.0747    1.8105 H   0  0  0  0  0  0  0  0  0  0  0  0
    3.9551    1.6655    1.1272 H   0  0  0  0  0  0  0  0  0  0  0  0
    2.3875    2.3356    0.7001 H   0  0  0  0  0  0  0  0  0  0  0  0
    3.9612    2.6504   -1.1650 H   0  0  0  0  0  0  0  0  0  0  0  0
    2.7068    1.5205   -1.6519 H   0  0  0  0  0  0  0  0  0  0  0  0
    4.5588    0.3568   -2.3801 H   0  0  0  0  0  0  0  0  0  0  0  0
    5.6300    1.0333   -1.1681 H   0  0  0  0  0  0  0  0  0  0  0  0
    5.1208   -0.5642    0.4355 H   0  0  0  0  0  0  0  0  0  0  0  0
    4.9531   -1.5142   -1.0334 H   0  0  0  0  0  0  0  0  0  0  0  0
    2.4972   -1.1287   -1.0163 H   0  0  0  0  0  0  0  0  0  0  0  0
    3.0272   -1.9197    0.4566 H   0  0  0  0  0  0  0  0  0  0  0  0
   -1.0231    0.2537   -1.1464 H   0  0  0  0  0  0  0  0  0  0  0  0
   -2.8650    0.9068   -2.6446 H   0  0  0  0  0  0  0  0  0  0  0  0
   -5.2771    1.0412   -3.1154 H   0  0  0  0  0  0  0  0  0  0  0  0
   -6.9237    0.2236   -1.4512 H   0  0  0  0  0  0  0  0  0  0  0  0
   -6.1573   -0.7353    0.6853 H   0  0  0  0  0  0  0  0  0  0  0  0
   -4.2993   -1.3977    2.2018 H   0  0  0  0  0  0  0  0  0  0  0  0
   -0.9119   -1.8152    2.9286 H   0  0  0  0  0  0  0  0  0  0  0  0
  1  2  2  0
  2  3  1  0
  3  4  1  0
  4  5  1  0
  5  6  1  0
  6  7  1  0
  7  8  1  0
  8  9  1  0
  2 10  1  0
 10 11  2  0
 11 12  1  0
 12 13  2  0
 13 14  1  0
 14 15  2  0
 15 16  1  0
 16 17  2  0
 17 18  1  0
 18 19  2  0
 19 20  1  0
  9  4  1  0
 19 10  1  0
 17 12  1  0
  3 21  1  0
  4 22  1  0
  5 23  1  0
  5 24  1  0
  6 25  1  0
  6 26  1  0
  7 27  1  0
  7 28  1  0
  8 29  1  0
  8 30  1  0
  9 31  1  0
  9 32  1  0
 11 33  1  0
 13 34  1  0
 14 35  1  0
 15 36  1  0
 16 37  1  0
 18 38  1  0
 20 39  1  0
M  END
$$$$
