
     RDKit          3D

 53 56  0  0  0  0  0  0  0  0999 V2000
   -3.0861    5.9775    1.3091 C   0  0  0  0  0  0  0  0  0  0  0  0
   -2.7874    5.1110    0.2223 O   0  0  0  0  0  0  0  0  0  0  0  0
   -2.2468    3.8937    0.5315 C   0  0  0  0  0  0  0  0  0  0  0  0
   -1.9065    3.1085   -0.5707 C   0  0  0  0  0  0  0  0  0  0  0  0
   -1.3462    1.8403   -0.3991 C   0  0  0  0  0  0  0  0  0  0  0  0
   -1.1100    1.3321    0.8862 C   0  0  0  0  0  0  0  0  0  0  0  0
   -0.5324   -0.0571    1.1151 C   0  0  0  0  0  0  0  0  0  0  0  0
   -1.6336   -1.1188    1.0427 C   0  0  0  0  0  0  0  0  0  0  0  0
   -1.2374   -1.8221   -0.2238 C   0  0  0  0  0  0  0  0  0  0  0  0
   -2.0829   -2.8723   -0.8196 C   0  0  0  0  0  0  0  0  0  0  0  0
   -3.4548   -2.6165   -0.9604 C   0  0  0  0  0  0  0  0  0  0  0  0
   -4.2889   -3.5643   -1.5525 C   0  0  0  0  0  0  0  0  0  0  0  0
   -3.7589   -4.7663   -2.0103 C   0  0  0  0  0  0  0  0  0  0  0  0
   -2.3942   -5.0244   -1.8724 C   0  0  0  0  0  0  0  0  0  0  0  0
   -1.5338   -4.0864   -1.2683 C   0  0  0  0  0  0  0  0  0  0  0  0
   -0.0702   -4.4236   -1.1050 C   0  0  0  0  0  0  0  0  0  0  0  0
    0.4170   -4.1369    0.1340 F   0  0  0  0  0  0  0  0  0  0  0  0
    0.7384   -3.8174   -2.0134 F   0  0  0  0  0  0  0  0  0  0  0  0
    0.1665   -5.7633   -1.2630 F   0  0  0  0  0  0  0  0  0  0  0  0
   -0.0935   -1.4776   -0.7218 N   0  0  0  0  0  0  0  0  0  0  0  0
    0.4016   -0.4803    0.0679 N   0  0  0  0  0  0  0  0  0  0  0  0
    1.7207   -0.0521   -0.0739 C   0  0  0  0  0  0  0  0  0  0  0  0
    2.2853    0.9385    0.7474 C   0  0  0  0  0  0  0  0  0  0  0  0
    3.6128    1.3582    0.5903 C   0  0  0  0  0  0  0  0  0  0  0  0
    4.4059    0.7800   -0.3990 C   0  0  0  0  0  0  0  0  0  0  0  0
    6.0719    1.3205   -0.6245 S   0  0  0  0  0  6  0  0  0  0  0  0
    6.9324    0.1703    0.2456 N   0  0  0  0  0  0  0  0  0  0  0  0
    6.2714    2.5683    0.0761 O   0  0  0  0  0  0  0  0  0  0  0  0
    6.4525    1.1402   -2.0059 O   0  0  0  0  0  0  0  0  0  0  0  0
    3.8767   -0.1930   -1.2426 C   0  0  0  0  0  0  0  0  0  0  0  0
    2.5492   -0.6004   -1.0720 C   0  0  0  0  0  0  0  0  0  0  0  0
   -1.4631    2.1250    1.9901 C   0  0  0  0  0  0  0  0  0  0  0  0
   -2.0241    3.3960    1.8144 C   0  0  0  0  0  0  0  0  0  0  0  0
   -3.8623    5.5494    1.9519 H   0  0  0  0  0  0  0  0  0  0  0  0
   -2.1850    6.2181    1.8830 H   0  0  0  0  0  0  0  0  0  0  0  0
   -3.4759    6.9120    0.8943 H   0  0  0  0  0  0  0  0  0  0  0  0
   -2.0731    3.4887   -1.5759 H   0  0  0  0  0  0  0  0  0  0  0  0
   -1.0844    1.2565   -1.2806 H   0  0  0  0  0  0  0  0  0  0  0  0
   -0.0494   -0.1032    2.0996 H   0  0  0  0  0  0  0  0  0  0  0  0
   -2.6474   -0.7142    1.0086 H   0  0  0  0  0  0  0  0  0  0  0  0
   -1.5503   -1.8297    1.8718 H   0  0  0  0  0  0  0  0  0  0  0  0
   -3.8856   -1.6699   -0.6435 H   0  0  0  0  0  0  0  0  0  0  0  0
   -5.3506   -3.3588   -1.6693 H   0  0  0  0  0  0  0  0  0  0  0  0
   -4.4070   -5.5037   -2.4792 H   0  0  0  0  0  0  0  0  0  0  0  0
   -2.0000   -5.9734   -2.2366 H   0  0  0  0  0  0  0  0  0  0  0  0
    1.6975    1.4178    1.5244 H   0  0  0  0  0  0  0  0  0  0  0  0
    4.0096    2.1348    1.2398 H   0  0  0  0  0  0  0  0  0  0  0  0
    7.4237    0.6187    1.0186 H   0  0  0  0  0  0  0  0  0  0  0  0
    7.5387   -0.3556   -0.3838 H   0  0  0  0  0  0  0  0  0  0  0  0
    4.4771   -0.6393   -2.0312 H   0  0  0  0  0  0  0  0  0  0  0  0
    2.1521   -1.3650   -1.7383 H   0  0  0  0  0  0  0  0  0  0  0  0
   -1.3029    1.7604    3.0029 H   0  0  0  0  0  0  0  0  0  0  0  0
   -2.2766    3.9691    2.7002 H   0  0  0  0  0  0  0  0  0  0  0  0
  1  2  1  0
  2  3  1  0
  3  4  2  0
  4  5  1  0
  5  6  2  0
  6  7  1  0
  7  8  1  0
  8  9  1  0
  9 10  1  0
 10 11  2  0
 11 12  1  0
 12 13  2  0
 13 14  1  0
 14 15  2  0
 15 16  1  0
 16 17  1  0
 16 18  1  0
 16 19  1  0
  9 20  2  0
 20 21  1  0
 21 22  1  0
 22 23  2  0
 23 24  1  0
 24 25  2  0
 25 26  1  0
 26 27  1  0
 26 28  2  0
 26 29  2  0
 25 30  1  0
 30 31  2  0
  6 32  1  0
 32 33  2  0
 33  3  1  0
 21  7  1  0
 31 22  1  0
 15 10  1  0
  1 34  1  0
  1 35  1  0
  1 36  1  0
  4 37  1  0
  5 38  1  0
  7 39  1  0
  8 40  1  0
  8 41  1  0
 11 42  1  0
 12 43  1  0
 13 44  1  0
 14 45  1  0
 23 46  1  0
 24 47  1  0
 27 48  1  0
 27 49  1  0
 30 50  1  0
 31 51  1  0
 32 52  1  0
 33 53  1  0
M  END
$$$$
