
     RDKit          3D

 46 50  0  0  0  0  0  0  0  0999 V2000
   -8.1501    0.7273   -0.2787 C   0  0  0  0  0  0  0  0  0  0  0  0
   -6.6607    0.6737   -0.0596 C   0  0  0  0  0  0  0  0  0  0  0  0
   -5.8093    0.9225   -1.1553 C   0  0  0  0  0  0  0  0  0  0  0  0
   -4.4194    0.8800   -0.9783 C   0  0  0  0  0  0  0  0  0  0  0  0
   -3.4121    1.0868   -1.9013 N   0  0  0  0  0  0  0  0  0  0  0  0
   -2.3252    0.9202   -1.2008 C   0  0  0  0  0  0  0  0  0  0  0  0
   -0.6534    0.9941   -1.5960 S   0  0  0  0  0  0  0  0  0  0  0  0
   -0.2411    0.5957    0.0534 C   0  0  0  0  0  0  0  0  0  0  0  0
    0.9651    0.3991    0.6006 C   0  0  0  0  0  0  0  0  0  0  0  0
    2.2190    0.4918   -0.0630 C   0  0  0  0  0  0  0  0  0  0  0  0
    2.6796    1.3130   -1.0863 C   0  0  0  0  0  0  0  0  0  0  0  0
    4.0311    0.9785   -1.3472 C   0  0  0  0  0  0  0  0  0  0  0  0
    4.3585   -0.0063   -0.4466 C   0  0  0  0  0  0  0  0  0  0  0  0
    5.5520   -0.7968   -0.1924 C   0  0  0  0  0  0  0  0  0  0  0  0
    6.1620   -1.4512   -1.2774 C   0  0  0  0  0  0  0  0  0  0  0  0
    7.2743   -2.2758   -1.0887 C   0  0  0  0  0  0  0  0  0  0  0  0
    7.7958   -2.4608    0.1883 C   0  0  0  0  0  0  0  0  0  0  0  0
    7.2142   -1.8096    1.2756 C   0  0  0  0  0  0  0  0  0  0  0  0
    6.0982   -0.9733    1.0913 C   0  0  0  0  0  0  0  0  0  0  0  0
    5.5728   -0.2346    2.2631 C   0  0  0  0  0  0  0  0  0  0  0  0
    5.1903    0.9190    2.2974 O   0  0  0  0  0  0  0  0  0  0  0  0
    5.5790   -1.0009    3.3704 O   0  0  0  0  0  0  0  0  0  0  0  0
    3.2763   -0.3062    0.3196 O   0  0  0  0  0  0  0  0  0  0  0  0
   -1.4541    0.4174    0.9065 C   0  0  0  0  0  0  0  0  0  0  0  0
   -1.5444    0.1419    2.0882 O   0  0  0  0  0  0  0  0  0  0  0  0
   -2.5512    0.6197    0.1001 N   0  0  0  0  0  0  0  0  0  0  0  0
   -3.9085    0.5906    0.2901 C   0  0  0  0  0  0  0  0  0  0  0  0
   -4.7200    0.3497    1.4026 C   0  0  0  0  0  0  0  0  0  0  0  0
   -6.1151    0.4069    1.2168 C   0  0  0  0  0  0  0  0  0  0  0  0
   -7.0071    0.1480    2.4046 C   0  0  0  0  0  0  0  0  0  0  0  0
   -8.5730    1.6062    0.2190 H   0  0  0  0  0  0  0  0  0  0  0  0
   -8.3964    0.7929   -1.3441 H   0  0  0  0  0  0  0  0  0  0  0  0
   -8.6282   -0.1785    0.1077 H   0  0  0  0  0  0  0  0  0  0  0  0
   -6.2076    1.1436   -2.1404 H   0  0  0  0  0  0  0  0  0  0  0  0
    1.0250    0.0906    1.6437 H   0  0  0  0  0  0  0  0  0  0  0  0
    2.1118    2.0822   -1.5907 H   0  0  0  0  0  0  0  0  0  0  0  0
    4.6882    1.4185   -2.0845 H   0  0  0  0  0  0  0  0  0  0  0  0
    5.7561   -1.3411   -2.2813 H   0  0  0  0  0  0  0  0  0  0  0  0
    7.7233   -2.7832   -1.9388 H   0  0  0  0  0  0  0  0  0  0  0  0
    8.6536   -3.1104    0.3383 H   0  0  0  0  0  0  0  0  0  0  0  0
    7.6393   -1.9474    2.2679 H   0  0  0  0  0  0  0  0  0  0  0  0
    5.1962   -0.4129    4.0539 H   0  0  0  0  0  0  0  0  0  0  0  0
   -4.2850    0.1301    2.3750 H   0  0  0  0  0  0  0  0  0  0  0  0
   -7.7526    0.9434    2.5066 H   0  0  0  0  0  0  0  0  0  0  0  0
   -6.4337    0.1220    3.3384 H   0  0  0  0  0  0  0  0  0  0  0  0
   -7.5135   -0.8169    2.2927 H   0  0  0  0  0  0  0  0  0  0  0  0
  1  2  1  0
  2  3  2  0
  3  4  1  0
  4  5  1  0
  5  6  2  0
  6  7  1  0
  7  8  1  0
  8  9  2  3
  9 10  1  0
 10 11  2  0
 11 12  1  0
 12 13  2  0
 13 14  1  0
 14 15  2  0
 15 16  1  0
 16 17  2  0
 17 18  1  0
 18 19  2  0
 19 20  1  0
 20 21  2  0
 20 22  1  0
 13 23  1  0
  8 24  1  0
 24 25  2  0
 24 26  1  0
 26 27  1  0
 27 28  1  0
 28 29  2  0
 29 30  1  0
 29  2  1  0
 27  4  2  0
 26  6  1  0
 23 10  1  0
 19 14  1  0
  1 31  1  0
  1 32  1  0
  1 33  1  0
  3 34  1  0
  9 35  1  0
 11 36  1  0
 12 37  1  0
 15 38  1  0
 16 39  1  0
 17 40  1  0
 18 41  1  0
 22 42  1  0
 28 43  1  0
 30 44  1  0
 30 45  1  0
 30 46  1  0
M  END
$$$$
