
     RDKit          3D

 44 47  0  0  0  0  0  0  0  0999 V2000
    7.3608   -2.4116   -1.6344 C   0  0  0  0  0  0  0  0  0  0  0  0
    6.7801   -1.5981   -0.6263 O   0  0  0  0  0  0  0  0  0  0  0  0
    5.4890   -1.3283   -0.7850 C   0  0  0  0  0  0  0  0  0  0  0  0
    4.5073   -1.6403   -1.6983 C   0  0  0  0  0  0  0  0  0  0  0  0
    3.3253   -1.0016   -1.2446 C   0  0  0  0  0  0  0  0  0  0  0  0
    3.6515   -0.3342   -0.0752 C   0  0  0  0  0  0  0  0  0  0  0  0
    2.8914    0.4893    0.8474 C   0  0  0  0  0  0  0  0  0  0  0  0
    3.3842    1.0912    1.7987 O   0  0  0  0  0  0  0  0  0  0  0  0
    1.5352    0.5511    0.5910 N   0  0  0  0  0  0  0  0  0  0  0  0
    0.6309    1.2538    1.4784 C   0  0  0  0  0  0  0  0  0  0  0  0
    0.2891    0.4121    2.7296 C   0  0  0  0  0  0  0  0  0  0  0  0
   -0.6483   -0.7658    2.4014 C   0  0  0  0  0  0  0  0  0  0  0  0
   -1.9866   -0.3171    1.7780 C   0  0  0  0  0  0  0  0  0  0  0  0
   -1.7630    0.7660    0.7728 C   0  0  0  0  0  0  0  0  0  0  0  0
   -0.6080    1.5265    0.6993 C   0  0  0  0  0  0  0  0  0  0  0  0
   -0.9242    2.5804   -0.1633 C   0  0  0  0  0  0  0  0  0  0  0  0
   -2.1804    2.5138   -0.5991 N   0  0  0  0  0  0  0  0  0  0  0  0
   -2.6780    1.3456   -0.0947 N   0  0  0  0  0  0  0  0  0  0  0  0
   -3.9888    0.9521   -0.4625 C   0  0  0  0  0  0  0  0  0  0  0  0
   -4.9264    1.9461   -0.7943 C   0  0  0  0  0  0  0  0  0  0  0  0
   -6.2335    1.5982   -1.1462 C   0  0  0  0  0  0  0  0  0  0  0  0
   -6.6098    0.2577   -1.1942 C   0  0  0  0  0  0  0  0  0  0  0  0
   -5.6717   -0.7334   -0.9113 C   0  0  0  0  0  0  0  0  0  0  0  0
   -4.3671   -0.3846   -0.5586 C   0  0  0  0  0  0  0  0  0  0  0  0
   -3.4791   -1.3794   -0.4405 F   0  0  0  0  0  0  0  0  0  0  0  0
    4.9791   -0.5397    0.1955 O   0  0  0  0  0  0  0  0  0  0  0  0
    7.3029   -1.9240   -2.6136 H   0  0  0  0  0  0  0  0  0  0  0  0
    8.4171   -2.5559   -1.3889 H   0  0  0  0  0  0  0  0  0  0  0  0
    6.8821   -3.3963   -1.6678 H   0  0  0  0  0  0  0  0  0  0  0  0
    4.6235   -2.2480   -2.5836 H   0  0  0  0  0  0  0  0  0  0  0  0
    2.3582   -1.0241   -1.7259 H   0  0  0  0  0  0  0  0  0  0  0  0
    1.1325   -0.0568   -0.1062 H   0  0  0  0  0  0  0  0  0  0  0  0
    1.1030    2.1920    1.7932 H   0  0  0  0  0  0  0  0  0  0  0  0
    1.2024    0.0301    3.2001 H   0  0  0  0  0  0  0  0  0  0  0  0
   -0.2079    1.0535    3.4694 H   0  0  0  0  0  0  0  0  0  0  0  0
   -0.8506   -1.3411    3.3123 H   0  0  0  0  0  0  0  0  0  0  0  0
   -0.1377   -1.4465    1.7078 H   0  0  0  0  0  0  0  0  0  0  0  0
   -2.6353    0.0757    2.5707 H   0  0  0  0  0  0  0  0  0  0  0  0
   -2.4711   -1.2022    1.3726 H   0  0  0  0  0  0  0  0  0  0  0  0
   -0.3046    3.4141   -0.4697 H   0  0  0  0  0  0  0  0  0  0  0  0
   -4.6544    3.0005   -0.7609 H   0  0  0  0  0  0  0  0  0  0  0  0
   -6.9546    2.3765   -1.3856 H   0  0  0  0  0  0  0  0  0  0  0  0
   -7.6243   -0.0143   -1.4746 H   0  0  0  0  0  0  0  0  0  0  0  0
   -5.9402   -1.7828   -0.9907 H   0  0  0  0  0  0  0  0  0  0  0  0
  1  2  1  0
  2  3  1  0
  3  4  2  0
  4  5  1  0
  5  6  2  0
  6  7  1  0
  7  8  2  0
  7  9  1  0
  9 10  1  0
 10 11  1  0
 11 12  1  0
 12 13  1  0
 13 14  1  0
 14 15  2  0
 15 16  1  0
 16 17  2  0
 17 18  1  0
 18 19  1  0
 19 20  2  0
 20 21  1  0
 21 22  2  0
 22 23  1  0
 23 24  2  0
 24 25  1  0
  6 26  1  0
 26  3  1  0
 15 10  1  0
 24 19  1  0
 18 14  1  0
  1 27  1  0
  1 28  1  0
  1 29  1  0
  4 30  1  0
  5 31  1  0
  9 32  1  0
 10 33  1  0
 11 34  1  0
 11 35  1  0
 12 36  1  0
 12 37  1  0
 13 38  1  0
 13 39  1  0
 16 40  1  0
 20 41  1  0
 21 42  1  0
 22 43  1  0
 23 44  1  0
M  END
$$$$
