
     RDKit          3D

 39 41  0  0  0  0  0  0  0  0999 V2000
    4.1986   -2.0953   -0.2239 C   0  0  0  0  0  0  0  0  0  0  0  0
    3.9880   -1.5712    1.1865 C   0  0  0  0  0  0  0  0  0  0  0  0
    2.4449   -2.2090    1.9225 S   0  0  0  0  0  0  0  0  0  0  0  0
    1.2099   -1.2106    1.0984 C   0  0  0  0  0  0  0  0  0  0  0  0
   -0.1144   -1.5738    1.2216 C   0  0  0  0  0  0  0  0  0  0  0  0
   -1.0540   -0.7861    0.5908 C   0  0  0  0  0  0  0  0  0  0  0  0
   -2.3961   -1.0772    0.6423 N   0  0  0  0  0  0  0  0  0  0  0  0
   -3.3605   -0.1930   -0.0011 C   0  0  0  0  0  0  0  0  0  0  0  0
   -4.6982   -0.8545    0.3153 C   0  0  0  0  0  0  0  0  0  0  0  0
   -4.4702   -1.4162    1.7095 C   0  0  0  0  0  0  0  0  0  0  0  0
   -3.0207   -1.9021    1.6693 C   0  0  0  0  0  0  0  0  0  0  0  0
   -0.6666    0.2826   -0.1263 N   0  0  0  0  0  0  0  0  0  0  0  0
    0.6450    0.5734   -0.1928 C   0  0  0  0  0  0  0  0  0  0  0  0
    1.0488    1.7556   -0.9835 C   0  0  0  0  0  0  0  0  0  0  0  0
    2.4014    2.1343   -1.1045 C   0  0  0  0  0  0  0  0  0  0  0  0
    2.7863    3.2522   -1.8545 C   0  0  0  0  0  0  0  0  0  0  0  0
    1.8205    4.0163   -2.5006 C   0  0  0  0  0  0  0  0  0  0  0  0
    2.2900    5.3894   -3.4238 Cl  0  0  0  0  0  0  0  0  0  0  0  0
    0.4764    3.6727   -2.4028 C   0  0  0  0  0  0  0  0  0  0  0  0
    0.0979    2.5536   -1.6517 C   0  0  0  0  0  0  0  0  0  0  0  0
    1.6108   -0.1371    0.4062 N   0  0  0  0  0  0  0  0  0  0  0  0
    5.1528   -1.7285   -0.6167 H   0  0  0  0  0  0  0  0  0  0  0  0
    3.4130   -1.7635   -0.9096 H   0  0  0  0  0  0  0  0  0  0  0  0
    4.2343   -3.1899   -0.2421 H   0  0  0  0  0  0  0  0  0  0  0  0
    4.0105   -0.4773    1.2121 H   0  0  0  0  0  0  0  0  0  0  0  0
    4.8126   -1.9177    1.8182 H   0  0  0  0  0  0  0  0  0  0  0  0
   -0.3955   -2.4543    1.7824 H   0  0  0  0  0  0  0  0  0  0  0  0
   -3.3211    0.8109    0.4392 H   0  0  0  0  0  0  0  0  0  0  0  0
   -3.2061   -0.1213   -1.0830 H   0  0  0  0  0  0  0  0  0  0  0  0
   -4.8927   -1.6714   -0.3899 H   0  0  0  0  0  0  0  0  0  0  0  0
   -5.5351   -0.1523    0.2703 H   0  0  0  0  0  0  0  0  0  0  0  0
   -4.5753   -0.6174    2.4535 H   0  0  0  0  0  0  0  0  0  0  0  0
   -5.1714   -2.2147    1.9673 H   0  0  0  0  0  0  0  0  0  0  0  0
   -2.5598   -1.7832    2.6560 H   0  0  0  0  0  0  0  0  0  0  0  0
   -2.9739   -2.9566    1.3761 H   0  0  0  0  0  0  0  0  0  0  0  0
    3.1759    1.5514   -0.6077 H   0  0  0  0  0  0  0  0  0  0  0  0
    3.8383    3.5148   -1.9272 H   0  0  0  0  0  0  0  0  0  0  0  0
   -0.2834    4.2649   -2.9054 H   0  0  0  0  0  0  0  0  0  0  0  0
   -0.9605    2.3021   -1.5903 H   0  0  0  0  0  0  0  0  0  0  0  0
  1  2  1  0
  2  3  1  0
  3  4  1  0
  4  5  2  0
  5  6  1  0
  6  7  1  0
  7  8  1  0
  8  9  1  0
  9 10  1  0
 10 11  1  0
  6 12  2  0
 12 13  1  0
 13 14  1  0
 14 15  2  0
 15 16  1  0
 16 17  2  0
 17 18  1  0
 17 19  1  0
 19 20  2  0
 13 21  2  0
 21  4  1  0
 11  7  1  0
 20 14  1  0
  1 22  1  0
  1 23  1  0
  1 24  1  0
  2 25  1  0
  2 26  1  0
  5 27  1  0
  8 28  1  0
  8 29  1  0
  9 30  1  0
  9 31  1  0
 10 32  1  0
 10 33  1  0
 11 34  1  0
 11 35  1  0
 15 36  1  0
 16 37  1  0
 19 38  1  0
 20 39  1  0
M  END
$$$$
