
     RDKit          3D

 62 65  0  0  0  0  0  0  0  0999 V2000
   -2.3212    3.2233   -0.2509 O   0  0  0  0  0  0  0  0  0  0  0  0
   -1.6619    2.2450    0.0910 C   0  0  0  0  0  0  0  0  0  0  0  0
   -2.2071    1.1730    0.7584 N   0  0  0  0  0  0  0  0  0  0  0  0
   -3.6336    1.0763    1.0156 C   0  0  0  0  0  0  0  0  0  0  0  0
   -4.3838    0.5382   -0.2080 C   0  0  0  0  0  0  0  0  0  0  0  0
   -5.8620    0.3287    0.0346 C   0  0  0  0  0  0  0  0  0  0  0  0
   -6.3930   -0.9050    0.1444 C   0  0  0  0  0  0  0  0  0  0  0  0
   -7.8634   -1.1723    0.2927 C   0  0  0  0  0  0  0  0  0  0  0  0
   -8.7281    0.0383   -0.0536 C   0  0  0  0  0  0  0  0  0  0  0  0
   -8.1545    1.3095    0.5635 C   0  0  0  0  0  0  0  0  0  0  0  0
   -6.7249    1.5688    0.0774 C   0  0  0  0  0  0  0  0  0  0  0  0
   -0.1774    2.1265   -0.2494 C   0  0  0  0  0  0  0  0  0  0  0  0
    0.0634    1.0470   -1.3221 C   0  0  0  0  0  0  0  0  0  0  0  0
    0.6781   -0.2295   -0.7516 C   0  0  0  0  0  0  0  0  0  0  0  0
    2.0127    0.0217   -0.0197 C   0  0  0  0  0  0  0  0  0  0  0  0
    3.2029   -0.2333   -0.9601 C   0  0  0  0  0  0  0  0  0  0  0  0
    4.4799   -0.1656   -0.2448 N   0  0  0  0  0  0  0  0  0  0  0  0
    5.2243   -1.3003    0.0693 C   0  0  0  0  0  0  0  0  0  0  0  0
    4.5657   -2.3381    0.6722 N   0  0  0  0  0  0  0  0  0  0  0  0
    5.1241   -3.5203    1.0739 C   0  0  0  0  0  0  0  0  0  0  0  0
    4.1423   -4.6118    1.8877 S   0  0  0  0  0  0  0  0  0  0  0  0
    6.4424   -3.7454    0.7920 N   0  0  0  0  0  0  0  0  0  0  0  0
    7.1037   -2.7897    0.2201 C   0  0  0  0  0  0  0  0  0  0  0  0
    8.5422   -3.0169   -0.0994 C   0  0  0  0  0  0  0  0  0  0  0  0
    9.2729   -2.0652   -0.6970 C   0  0  0  0  0  0  0  0  0  0  0  0
    8.7234   -0.7765   -1.0356 C   0  0  0  0  0  0  0  0  0  0  0  0
    7.4383   -0.4783   -0.7861 C   0  0  0  0  0  0  0  0  0  0  0  0
    6.5483   -1.4485   -0.1682 C   0  0  0  0  0  0  0  0  0  0  0  0
    2.0827    1.4277    0.6103 C   0  0  0  0  0  0  0  0  0  0  0  0
    0.6989    1.9386    0.9993 C   0  0  0  0  0  0  0  0  0  0  0  0
   -1.6436    0.3546    0.9362 H   0  0  0  0  0  0  0  0  0  0  0  0
   -3.7574    0.4080    1.8744 H   0  0  0  0  0  0  0  0  0  0  0  0
   -4.0068    2.0664    1.3008 H   0  0  0  0  0  0  0  0  0  0  0  0
   -4.2529    1.2199   -1.0589 H   0  0  0  0  0  0  0  0  0  0  0  0
   -3.9179   -0.4065   -0.5211 H   0  0  0  0  0  0  0  0  0  0  0  0
   -5.7502   -1.7807    0.1148 H   0  0  0  0  0  0  0  0  0  0  0  0
   -8.1461   -2.0096   -0.3552 H   0  0  0  0  0  0  0  0  0  0  0  0
   -8.0573   -1.4868    1.3256 H   0  0  0  0  0  0  0  0  0  0  0  0
   -8.7798    0.1589   -1.1451 H   0  0  0  0  0  0  0  0  0  0  0  0
   -9.7533   -0.1258    0.2980 H   0  0  0  0  0  0  0  0  0  0  0  0
   -8.7880    2.1650    0.3100 H   0  0  0  0  0  0  0  0  0  0  0  0
   -8.1604    1.2167    1.6580 H   0  0  0  0  0  0  0  0  0  0  0  0
   -6.7590    1.9996   -0.9324 H   0  0  0  0  0  0  0  0  0  0  0  0
   -6.2754    2.3251    0.7294 H   0  0  0  0  0  0  0  0  0  0  0  0
    0.0967    3.0925   -0.7003 H   0  0  0  0  0  0  0  0  0  0  0  0
   -0.8649    0.8056   -1.8536 H   0  0  0  0  0  0  0  0  0  0  0  0
    0.7493    1.4500   -2.0776 H   0  0  0  0  0  0  0  0  0  0  0  0
   -0.0287   -0.6770   -0.0440 H   0  0  0  0  0  0  0  0  0  0  0  0
    0.8017   -0.9702   -1.5500 H   0  0  0  0  0  0  0  0  0  0  0  0
    2.0591   -0.7069    0.7999 H   0  0  0  0  0  0  0  0  0  0  0  0
    3.1033   -1.2089   -1.4558 H   0  0  0  0  0  0  0  0  0  0  0  0
    3.2166    0.5146   -1.7621 H   0  0  0  0  0  0  0  0  0  0  0  0
    5.0551    0.5926   -0.6014 H   0  0  0  0  0  0  0  0  0  0  0  0
    3.5980   -2.2001    0.9268 H   0  0  0  0  0  0  0  0  0  0  0  0
    8.9556   -3.9838    0.1645 H   0  0  0  0  0  0  0  0  0  0  0  0
   10.3187   -2.2455   -0.9339 H   0  0  0  0  0  0  0  0  0  0  0  0
    9.3859   -0.0509   -1.5020 H   0  0  0  0  0  0  0  0  0  0  0  0
    7.0639    0.5011   -1.0576 H   0  0  0  0  0  0  0  0  0  0  0  0
    2.7278    1.3991    1.4967 H   0  0  0  0  0  0  0  0  0  0  0  0
    2.5428    2.1428   -0.0851 H   0  0  0  0  0  0  0  0  0  0  0  0
    0.7858    2.8969    1.5305 H   0  0  0  0  0  0  0  0  0  0  0  0
    0.2463    1.2385    1.7147 H   0  0  0  0  0  0  0  0  0  0  0  0
  1  2  2  0
  2  3  1  0
  3  4  1  0
  4  5  1  0
  5  6  1  0
  6  7  2  0
  7  8  1  0
  8  9  1  0
  9 10  1  0
 10 11  1  0
  2 12  1  0
 12 13  1  0
 13 14  1  0
 14 15  1  0
 15 16  1  0
 16 17  1  0
 17 18  1  0
 18 19  1  0
 19 20  1  0
 20 21  2  0
 20 22  1  0
 22 23  2  0
 23 24  1  0
 24 25  2  0
 25 26  1  0
 26 27  2  0
 27 28  1  0
 15 29  1  0
 29 30  1  0
 11  6  1  0
 30 12  1  0
 28 18  2  0
 28 23  1  0
  3 31  1  0
  4 32  1  0
  4 33  1  0
  5 34  1  0
  5 35  1  0
  7 36  1  0
  8 37  1  0
  8 38  1  0
  9 39  1  0
  9 40  1  0
 10 41  1  0
 10 42  1  0
 11 43  1  0
 11 44  1  0
 12 45  1  0
 13 46  1  0
 13 47  1  0
 14 48  1  0
 14 49  1  0
 15 50  1  0
 16 51  1  0
 16 52  1  0
 17 53  1  0
 19 54  1  0
 24 55  1  0
 25 56  1  0
 26 57  1  0
 27 58  1  0
 29 59  1  0
 29 60  1  0
 30 61  1  0
 30 62  1  0
M  END
$$$$
