
     RDKit          3D

 37 39  0  0  0  0  0  0  0  0999 V2000
    5.6591    1.0813   -0.8245 N   0  0  0  0  0  0  0  0  0  0  0  0
    4.5758    1.1894   -0.0009 C   0  0  0  0  0  0  0  0  0  0  0  0
    4.2054    2.2875    0.3955 O   0  0  0  0  0  0  0  0  0  0  0  0
    3.9037   -0.1313    0.3525 C   0  0  0  0  0  0  0  0  0  0  0  0
    3.3315   -0.7770   -0.9185 C   0  0  0  0  0  0  0  0  0  0  0  0
    2.0700   -1.5935   -0.6486 C   0  0  0  0  0  0  0  0  0  0  0  0
    1.0473   -0.7678   -0.0209 N   0  0  0  0  0  0  0  0  0  0  0  0
   -0.2888   -1.0297   -0.1334 C   0  0  0  0  0  0  0  0  0  0  0  0
   -1.2200   -0.2331    0.3490 N   0  0  0  0  0  0  0  0  0  0  0  0
   -2.5000   -0.7132    0.1042 C   0  0  0  0  0  0  0  0  0  0  0  0
   -3.6713    0.0319    0.5618 C   0  0  0  0  0  0  0  0  0  0  0  0
   -3.4973    1.0603    1.5045 C   0  0  0  0  0  0  0  0  0  0  0  0
   -4.5856    1.8030    1.9749 C   0  0  0  0  0  0  0  0  0  0  0  0
   -5.8691    1.5325    1.5076 C   0  0  0  0  0  0  0  0  0  0  0  0
   -6.0608    0.5220    0.5688 C   0  0  0  0  0  0  0  0  0  0  0  0
   -4.9709   -0.2161    0.1026 C   0  0  0  0  0  0  0  0  0  0  0  0
   -5.2183   -1.1651   -0.8133 F   0  0  0  0  0  0  0  0  0  0  0  0
   -2.5278   -1.9209   -0.5583 C   0  0  0  0  0  0  0  0  0  0  0  0
   -0.9364   -2.4444   -0.8985 S   0  0  0  0  0  0  0  0  0  0  0  0
    1.4665    0.3552    0.8197 C   0  0  0  0  0  0  0  0  0  0  0  0
    2.8332    0.0637    1.4343 C   0  0  0  0  0  0  0  0  0  0  0  0
    6.1170    0.2001   -1.0081 H   0  0  0  0  0  0  0  0  0  0  0  0
    6.1676    1.9342   -1.0215 H   0  0  0  0  0  0  0  0  0  0  0  0
    4.6844   -0.7789    0.7735 H   0  0  0  0  0  0  0  0  0  0  0  0
    4.0927   -1.4199   -1.3776 H   0  0  0  0  0  0  0  0  0  0  0  0
    3.0950   -0.0054   -1.6641 H   0  0  0  0  0  0  0  0  0  0  0  0
    2.3051   -2.4467   -0.0006 H   0  0  0  0  0  0  0  0  0  0  0  0
    1.7326   -1.9921   -1.6122 H   0  0  0  0  0  0  0  0  0  0  0  0
   -2.5016    1.2908    1.8817 H   0  0  0  0  0  0  0  0  0  0  0  0
   -4.4248    2.5933    2.7044 H   0  0  0  0  0  0  0  0  0  0  0  0
   -6.7155    2.1098    1.8704 H   0  0  0  0  0  0  0  0  0  0  0  0
   -7.0540    0.3029    0.1890 H   0  0  0  0  0  0  0  0  0  0  0  0
   -3.3727   -2.5232   -0.8562 H   0  0  0  0  0  0  0  0  0  0  0  0
    0.7616    0.5225    1.6436 H   0  0  0  0  0  0  0  0  0  0  0  0
    1.4961    1.2728    0.2204 H   0  0  0  0  0  0  0  0  0  0  0  0
    2.7631   -0.8561    2.0308 H   0  0  0  0  0  0  0  0  0  0  0  0
    3.1072    0.8612    2.1343 H   0  0  0  0  0  0  0  0  0  0  0  0
  1  2  1  0
  2  3  2  0
  2  4  1  0
  4  5  1  0
  5  6  1  0
  6  7  1  0
  7  8  1  0
  8  9  2  0
  9 10  1  0
 10 11  1  0
 11 12  2  0
 12 13  1  0
 13 14  2  0
 14 15  1  0
 15 16  2  0
 16 17  1  0
 10 18  2  0
 18 19  1  0
  7 20  1  0
 20 21  1  0
 21  4  1  0
 19  8  1  0
 16 11  1  0
  1 22  1  0
  1 23  1  0
  4 24  1  0
  5 25  1  0
  5 26  1  0
  6 27  1  0
  6 28  1  0
 12 29  1  0
 13 30  1  0
 14 31  1  0
 15 32  1  0
 18 33  1  0
 20 34  1  0
 20 35  1  0
 21 36  1  0
 21 37  1  0
M  END
$$$$
