
     RDKit          3D

 55 57  0  0  0  0  0  0  0  0999 V2000
   -2.7726   -0.7656    3.8961 C   0  0  0  0  0  0  0  0  0  0  0  0
   -1.4964    0.0489    3.6584 C   0  0  0  0  0  0  0  0  0  0  0  0
   -1.2066    0.9293    4.8783 C   0  0  0  0  0  0  0  0  0  0  0  0
   -1.5289    0.8928    2.3672 C   0  0  0  0  0  0  0  0  0  0  0  0
   -2.7115    1.7892    2.3592 N   0  0  0  0  0  0  0  0  0  0  0  0
   -2.5402    3.3517    1.7676 S   0  0  0  0  0  6  0  0  0  0  0  0
   -1.4967    3.9937    2.5349 O   0  0  0  0  0  0  0  0  0  0  0  0
   -3.8713    3.9060    1.6722 O   0  0  0  0  0  0  0  0  0  0  0  0
   -1.9381    3.0976    0.1179 C   0  0  0  0  0  0  0  0  0  0  0  0
   -2.8360    2.7389   -0.8936 C   0  0  0  0  0  0  0  0  0  0  0  0
   -2.3585    2.5018   -2.1835 C   0  0  0  0  0  0  0  0  0  0  0  0
   -0.9975    2.6357   -2.4567 C   0  0  0  0  0  0  0  0  0  0  0  0
   -0.1072    2.9967   -1.4384 C   0  0  0  0  0  0  0  0  0  0  0  0
   -0.5761    3.2527   -0.1534 C   0  0  0  0  0  0  0  0  0  0  0  0
    1.2440    3.1185   -1.6315 O   0  0  0  0  0  0  0  0  0  0  0  0
    1.6554    2.4798   -2.8456 C   0  0  0  0  0  0  0  0  0  0  0  0
    0.7285    2.8614   -3.9880 C   0  0  0  0  0  0  0  0  0  0  0  0
   -0.6015    2.3855   -3.7453 O   0  0  0  0  0  0  0  0  0  0  0  0
   -1.5837   -0.0029    1.1300 C   0  0  0  0  0  0  0  0  0  0  0  0
   -2.6122   -0.2541    0.5103 O   0  0  0  0  0  0  0  0  0  0  0  0
   -0.3511   -0.4763    0.8111 O   0  0  0  0  0  0  0  0  0  0  0  0
   -0.3253   -1.2253   -0.4047 C   0  0  0  0  0  0  0  0  0  0  0  0
    1.1219   -1.5936   -0.7267 C   0  0  0  0  0  0  0  0  0  0  0  0
    1.9510   -0.7236   -0.9785 O   0  0  0  0  0  0  0  0  0  0  0  0
    1.3625   -2.9560   -0.6827 N   0  0  0  0  0  0  0  0  0  0  0  0
    2.5844   -3.6395   -0.9150 C   0  0  0  0  0  0  0  0  0  0  0  0
    3.7780   -2.9808   -1.2274 C   0  0  0  0  0  0  0  0  0  0  0  0
    4.9549   -3.7021   -1.4476 C   0  0  0  0  0  0  0  0  0  0  0  0
    4.9539   -5.0917   -1.3595 C   0  0  0  0  0  0  0  0  0  0  0  0
    3.7742   -5.7689   -1.0478 C   0  0  0  0  0  0  0  0  0  0  0  0
    3.8467   -7.4939   -0.9549 Cl  0  0  0  0  0  0  0  0  0  0  0  0
    2.5904   -5.0498   -0.8241 C   0  0  0  0  0  0  0  0  0  0  0  0
    1.1078   -5.8755   -0.4312 Cl  0  0  0  0  0  0  0  0  0  0  0  0
   -2.6661   -1.3896    4.7903 H   0  0  0  0  0  0  0  0  0  0  0  0
   -3.6448   -0.1213    4.0464 H   0  0  0  0  0  0  0  0  0  0  0  0
   -2.9811   -1.4342    3.0554 H   0  0  0  0  0  0  0  0  0  0  0  0
   -0.6688   -0.6683    3.5723 H   0  0  0  0  0  0  0  0  0  0  0  0
   -0.2743    1.4874    4.7427 H   0  0  0  0  0  0  0  0  0  0  0  0
   -1.0987    0.3170    5.7799 H   0  0  0  0  0  0  0  0  0  0  0  0
   -2.0117    1.6497    5.0571 H   0  0  0  0  0  0  0  0  0  0  0  0
   -0.6116    1.4906    2.3111 H   0  0  0  0  0  0  0  0  0  0  0  0
   -3.5944    1.3567    2.0761 H   0  0  0  0  0  0  0  0  0  0  0  0
   -3.8983    2.6326   -0.6842 H   0  0  0  0  0  0  0  0  0  0  0  0
   -3.0461    2.2182   -2.9761 H   0  0  0  0  0  0  0  0  0  0  0  0
    0.1241    3.5465    0.6250 H   0  0  0  0  0  0  0  0  0  0  0  0
    1.6673    1.3954   -2.6858 H   0  0  0  0  0  0  0  0  0  0  0  0
    2.6778    2.8048   -3.0619 H   0  0  0  0  0  0  0  0  0  0  0  0
    1.0754    2.4111   -4.9231 H   0  0  0  0  0  0  0  0  0  0  0  0
    0.6884    3.9489   -4.1261 H   0  0  0  0  0  0  0  0  0  0  0  0
   -0.7053   -0.6234   -1.2388 H   0  0  0  0  0  0  0  0  0  0  0  0
   -0.9420   -2.1244   -0.2979 H   0  0  0  0  0  0  0  0  0  0  0  0
    0.5831   -3.5664   -0.4526 H   0  0  0  0  0  0  0  0  0  0  0  0
    3.8335   -1.8990   -1.3051 H   0  0  0  0  0  0  0  0  0  0  0  0
    5.8746   -3.1722   -1.6883 H   0  0  0  0  0  0  0  0  0  0  0  0
    5.8768   -5.6403   -1.5339 H   0  0  0  0  0  0  0  0  0  0  0  0
  1  2  1  0
  2  3  1  0
  2  4  1  0
  4  5  1  0
  5  6  1  0
  6  7  2  0
  6  8  2  0
  6  9  1  0
  9 10  2  0
 10 11  1  0
 11 12  2  0
 12 13  1  0
 13 14  2  0
 13 15  1  0
 15 16  1  0
 16 17  1  0
 17 18  1  0
  4 19  1  0
 19 20  2  0
 19 21  1  0
 21 22  1  0
 22 23  1  0
 23 24  2  0
 23 25  1  0
 25 26  1  0
 26 27  2  0
 27 28  1  0
 28 29  2  0
 29 30  1  0
 30 31  1  0
 30 32  2  0
 32 33  1  0
 14  9  1  0
 32 26  1  0
 18 12  1  0
  1 34  1  0
  1 35  1  0
  1 36  1  0
  2 37  1  0
  3 38  1  0
  3 39  1  0
  3 40  1  0
  4 41  1  0
  5 42  1  0
 10 43  1  0
 11 44  1  0
 14 45  1  0
 16 46  1  0
 16 47  1  0
 17 48  1  0
 17 49  1  0
 22 50  1  0
 22 51  1  0
 25 52  1  0
 27 53  1  0
 28 54  1  0
 29 55  1  0
M  END
$$$$
