
     RDKit          3D

 49 52  0  0  0  0  0  0  0  0999 V2000
    0.0541   -2.8777   -2.6170 N   0  0  0  0  0  0  0  0  0  0  0  0
    0.1834   -1.8104   -2.1735 C   0  0  0  0  0  0  0  0  0  0  0  0
    0.3614   -0.4499   -1.6416 C   0  0  0  0  0  0  0  0  0  0  0  0
    1.5279   -0.4407   -0.6639 C   0  0  0  0  0  0  0  0  0  0  0  0
    2.6418   -0.0374   -0.9972 O   0  0  0  0  0  0  0  0  0  0  0  0
    1.2698   -0.9204    0.6035 N   0  0  0  0  0  0  0  0  0  0  0  0
    2.3108   -1.1073    1.5881 C   0  0  0  0  0  0  0  0  0  0  0  0
    2.8302   -2.5204    1.5592 C   0  0  0  0  0  0  0  0  0  0  0  0
    3.8551   -2.8786    0.6693 C   0  0  0  0  0  0  0  0  0  0  0  0
    4.3247   -4.1920    0.6203 C   0  0  0  0  0  0  0  0  0  0  0  0
    3.7736   -5.1613    1.4587 C   0  0  0  0  0  0  0  0  0  0  0  0
    2.7485   -4.8194    2.3407 C   0  0  0  0  0  0  0  0  0  0  0  0
    2.2746   -3.5063    2.3884 C   0  0  0  0  0  0  0  0  0  0  0  0
   -0.8944    0.1060   -1.0039 C   0  0  0  0  0  0  0  0  0  0  0  0
   -1.6385   -0.7431   -0.2319 N   0  0  0  0  0  0  0  0  0  0  0  0
   -2.7531   -0.2436    0.3311 C   0  0  0  0  0  0  0  0  0  0  0  0
   -3.5716   -1.0707    1.0911 C   0  0  0  0  0  0  0  0  0  0  0  0
   -4.7361   -0.5864    1.6905 C   0  0  0  0  0  0  0  0  0  0  0  0
   -5.0854    0.7479    1.5297 C   0  0  0  0  0  0  0  0  0  0  0  0
   -4.2682    1.5848    0.7680 C   0  0  0  0  0  0  0  0  0  0  0  0
   -3.1089    1.1118    0.1633 C   0  0  0  0  0  0  0  0  0  0  0  0
   -2.3485    1.9512   -0.5649 N   0  0  0  0  0  0  0  0  0  0  0  0
   -1.2352    1.4589   -1.1559 C   0  0  0  0  0  0  0  0  0  0  0  0
   -0.4026    2.3301   -1.8878 N   0  0  0  0  0  0  0  0  0  0  0  0
    0.5496    3.0141   -0.9777 C   0  0  0  0  0  0  0  0  0  0  0  0
    0.5970    4.4561   -1.4673 C   0  0  0  0  0  0  0  0  0  0  0  0
   -0.8255    4.6842   -1.9381 C   0  0  0  0  0  0  0  0  0  0  0  0
   -1.1494    3.3688   -2.6326 C   0  0  0  0  0  0  0  0  0  0  0  0
    0.6505    0.1780   -2.4931 H   0  0  0  0  0  0  0  0  0  0  0  0
    0.3709   -1.3607    0.7818 H   0  0  0  0  0  0  0  0  0  0  0  0
    3.1271   -0.3942    1.4250 H   0  0  0  0  0  0  0  0  0  0  0  0
    1.8764   -0.8827    2.5702 H   0  0  0  0  0  0  0  0  0  0  0  0
    4.2857   -2.1326    0.0014 H   0  0  0  0  0  0  0  0  0  0  0  0
    5.1150   -4.4598   -0.0765 H   0  0  0  0  0  0  0  0  0  0  0  0
    4.1388   -6.1844    1.4158 H   0  0  0  0  0  0  0  0  0  0  0  0
    2.3132   -5.5782    2.9868 H   0  0  0  0  0  0  0  0  0  0  0  0
    1.4665   -3.2603    3.0748 H   0  0  0  0  0  0  0  0  0  0  0  0
   -3.3013   -2.1176    1.2109 H   0  0  0  0  0  0  0  0  0  0  0  0
   -5.3664   -1.2526    2.2749 H   0  0  0  0  0  0  0  0  0  0  0  0
   -5.9908    1.1389    1.9893 H   0  0  0  0  0  0  0  0  0  0  0  0
   -4.5415    2.6285    0.6380 H   0  0  0  0  0  0  0  0  0  0  0  0
    1.5402    2.5523   -1.0340 H   0  0  0  0  0  0  0  0  0  0  0  0
    0.2180    2.9965    0.0695 H   0  0  0  0  0  0  0  0  0  0  0  0
    1.2941    4.5487   -2.3101 H   0  0  0  0  0  0  0  0  0  0  0  0
    0.9077    5.1576   -0.6859 H   0  0  0  0  0  0  0  0  0  0  0  0
   -1.4911    4.8423   -1.0813 H   0  0  0  0  0  0  0  0  0  0  0  0
   -0.9171    5.5441   -2.6077 H   0  0  0  0  0  0  0  0  0  0  0  0
   -0.7526    3.3891   -3.6566 H   0  0  0  0  0  0  0  0  0  0  0  0
   -2.2281    3.1986   -2.7161 H   0  0  0  0  0  0  0  0  0  0  0  0
  1  2  3  0
  2  3  1  0
  3  4  1  0
  4  5  2  0
  4  6  1  0
  6  7  1  0
  7  8  1  0
  8  9  2  0
  9 10  1  0
 10 11  2  0
 11 12  1  0
 12 13  2  0
  3 14  1  0
 14 15  2  0
 15 16  1  0
 16 17  2  0
 17 18  1  0
 18 19  2  0
 19 20  1  0
 20 21  2  0
 21 22  1  0
 22 23  2  0
 23 24  1  0
 24 25  1  0
 25 26  1  0
 26 27  1  0
 27 28  1  0
 13  8  1  0
 23 14  1  0
 28 24  1  0
 21 16  1  0
  3 29  1  0
  6 30  1  0
  7 31  1  0
  7 32  1  0
  9 33  1  0
 10 34  1  0
 11 35  1  0
 12 36  1  0
 13 37  1  0
 17 38  1  0
 18 39  1  0
 19 40  1  0
 20 41  1  0
 25 42  1  0
 25 43  1  0
 26 44  1  0
 26 45  1  0
 27 46  1  0
 27 47  1  0
 28 48  1  0
 28 49  1  0
M  END
$$$$
