
     RDKit          3D

 46 49  0  0  0  0  0  0  0  0999 V2000
    5.8151   -0.8993   -3.1256 N   0  0  0  0  0  0  0  0  0  0  0  0
    5.8196   -0.1925   -1.5953 S   0  0  0  0  0  6  0  0  0  0  0  0
    6.2365    1.1756   -1.8000 O   0  0  0  0  0  0  0  0  0  0  0  0
    6.5071   -1.0893   -0.6972 O   0  0  0  0  0  0  0  0  0  0  0  0
    4.0934   -0.2062   -1.1999 C   0  0  0  0  0  0  0  0  0  0  0  0
    3.5486   -1.2963   -0.5241 C   0  0  0  0  0  0  0  0  0  0  0  0
    2.1825   -1.3063   -0.2152 C   0  0  0  0  0  0  0  0  0  0  0  0
    1.3380   -0.2385   -0.5639 C   0  0  0  0  0  0  0  0  0  0  0  0
   -0.0235   -0.2334   -0.2676 N   0  0  0  0  0  0  0  0  0  0  0  0
   -0.8220    0.8008   -0.6661 N   0  0  0  0  0  0  0  0  0  0  0  0
   -2.0476    0.4690   -0.3925 C   0  0  0  0  0  0  0  0  0  0  0  0
   -3.2058    1.3533   -0.6605 C   0  0  0  0  0  0  0  0  0  0  0  0
   -4.5204    0.9223   -0.4494 C   0  0  0  0  0  0  0  0  0  0  0  0
   -5.5893    1.7837   -0.7115 C   0  0  0  0  0  0  0  0  0  0  0  0
   -5.3506    3.0734   -1.1846 C   0  0  0  0  0  0  0  0  0  0  0  0
   -4.0434    3.5066   -1.3983 C   0  0  0  0  0  0  0  0  0  0  0  0
   -2.9729    2.6493   -1.1377 C   0  0  0  0  0  0  0  0  0  0  0  0
   -2.2186   -0.9062    0.1920 C   0  0  0  0  0  0  0  0  0  0  0  0
   -0.7571   -1.2807    0.4464 C   0  0  0  0  0  0  0  0  0  0  0  0
   -0.4570   -1.3206    1.9396 C   0  0  0  0  0  0  0  0  0  0  0  0
   -0.1826   -0.1538    2.6764 C   0  0  0  0  0  0  0  0  0  0  0  0
    0.0654   -0.2195    4.0484 C   0  0  0  0  0  0  0  0  0  0  0  0
    0.0329   -1.4492    4.6920 C   0  0  0  0  0  0  0  0  0  0  0  0
    0.2679   -1.5127    6.0091 F   0  0  0  0  0  0  0  0  0  0  0  0
   -0.2437   -2.6157    3.9901 C   0  0  0  0  0  0  0  0  0  0  0  0
   -0.4913   -2.5532    2.6174 C   0  0  0  0  0  0  0  0  0  0  0  0
    1.9302    0.8498   -1.2337 C   0  0  0  0  0  0  0  0  0  0  0  0
    3.2929    0.8779   -1.5481 C   0  0  0  0  0  0  0  0  0  0  0  0
    4.9080   -1.2876   -3.3819 H   0  0  0  0  0  0  0  0  0  0  0  0
    6.1380   -0.2080   -3.8047 H   0  0  0  0  0  0  0  0  0  0  0  0
    4.1729   -2.1371   -0.2281 H   0  0  0  0  0  0  0  0  0  0  0  0
    1.7957   -2.1709    0.3162 H   0  0  0  0  0  0  0  0  0  0  0  0
   -4.7404   -0.0765   -0.0857 H   0  0  0  0  0  0  0  0  0  0  0  0
   -6.6108    1.4486   -0.5471 H   0  0  0  0  0  0  0  0  0  0  0  0
   -6.1840    3.7418   -1.3875 H   0  0  0  0  0  0  0  0  0  0  0  0
   -3.8553    4.5118   -1.7674 H   0  0  0  0  0  0  0  0  0  0  0  0
   -1.9569    3.0001   -1.3080 H   0  0  0  0  0  0  0  0  0  0  0  0
   -2.8426   -0.8987    1.0897 H   0  0  0  0  0  0  0  0  0  0  0  0
   -2.6636   -1.5571   -0.5683 H   0  0  0  0  0  0  0  0  0  0  0  0
   -0.5518   -2.2617   -0.0008 H   0  0  0  0  0  0  0  0  0  0  0  0
   -0.1499    0.8156    2.1801 H   0  0  0  0  0  0  0  0  0  0  0  0
    0.2858    0.6800    4.6143 H   0  0  0  0  0  0  0  0  0  0  0  0
   -0.2644   -3.5646    4.5168 H   0  0  0  0  0  0  0  0  0  0  0  0
   -0.7088   -3.4744    2.0808 H   0  0  0  0  0  0  0  0  0  0  0  0
    1.3156    1.7045   -1.5118 H   0  0  0  0  0  0  0  0  0  0  0  0
    3.7080    1.7460   -2.0543 H   0  0  0  0  0  0  0  0  0  0  0  0
  1  2  1  0
  2  3  2  0
  2  4  2  0
  2  5  1  0
  5  6  2  0
  6  7  1  0
  7  8  2  0
  8  9  1  0
  9 10  1  0
 10 11  2  0
 11 12  1  0
 12 13  2  0
 13 14  1  0
 14 15  2  0
 15 16  1  0
 16 17  2  0
 11 18  1  0
 18 19  1  0
 19 20  1  0
 20 21  2  0
 21 22  1  0
 22 23  2  0
 23 24  1  0
 23 25  1  0
 25 26  2  0
  8 27  1  0
 27 28  2  0
 28  5  1  0
 19  9  1  0
 26 20  1  0
 17 12  1  0
  1 29  1  0
  1 30  1  0
  6 31  1  0
  7 32  1  0
 13 33  1  0
 14 34  1  0
 15 35  1  0
 16 36  1  0
 17 37  1  0
 18 38  1  0
 18 39  1  0
 19 40  1  0
 21 41  1  0
 22 42  1  0
 25 43  1  0
 26 44  1  0
 27 45  1  0
 28 46  1  0
M  END
$$$$
