
     RDKit          3D

 53 55  0  0  0  0  0  0  0  0999 V2000
   -2.3438   -2.9196    1.1963 O   0  0  0  0  0  0  0  0  0  0  0  0
   -1.8519   -1.8093    1.0315 C   0  0  0  0  0  0  0  0  0  0  0  0
   -2.4212   -0.6603    1.5207 N   0  0  0  0  0  0  0  0  0  0  0  0
   -3.7096   -0.6641    2.2174 C   0  0  0  0  0  0  0  0  0  0  0  0
   -4.9073   -0.8244    1.2657 C   0  0  0  0  0  0  0  0  0  0  0  0
   -4.9801    0.2154    0.1671 C   0  0  0  0  0  0  0  0  0  0  0  0
   -5.6530    1.4275    0.3704 C   0  0  0  0  0  0  0  0  0  0  0  0
   -5.6942    2.3908   -0.6390 C   0  0  0  0  0  0  0  0  0  0  0  0
   -5.0674    2.1512   -1.8605 C   0  0  0  0  0  0  0  0  0  0  0  0
   -4.4019    0.9465   -2.0764 C   0  0  0  0  0  0  0  0  0  0  0  0
   -4.3595   -0.0174   -1.0687 C   0  0  0  0  0  0  0  0  0  0  0  0
   -3.8080    0.6113    3.0502 C   0  0  0  0  0  0  0  0  0  0  0  0
   -2.9958    1.5262    3.0658 O   0  0  0  0  0  0  0  0  0  0  0  0
   -4.8956    0.6568    3.8456 O   0  0  0  0  0  0  0  0  0  0  0  0
   -0.5716   -1.6552    0.2865 C   0  0  0  0  0  0  0  0  0  0  0  0
   -0.2454   -0.4749   -0.3982 C   0  0  0  0  0  0  0  0  0  0  0  0
    0.9643   -0.3805   -1.0910 C   0  0  0  0  0  0  0  0  0  0  0  0
    1.8421   -1.4694   -1.1014 C   0  0  0  0  0  0  0  0  0  0  0  0
    3.3730   -1.3272   -1.9920 S   0  0  0  0  0  6  0  0  0  0  0  0
    3.0472   -0.8316   -3.3120 O   0  0  0  0  0  0  0  0  0  0  0  0
    4.1290   -2.5486   -1.8103 O   0  0  0  0  0  0  0  0  0  0  0  0
    4.1911   -0.0871   -1.1333 N   0  0  0  0  0  0  0  0  0  0  0  0
    4.5725   -0.4488    0.2627 C   0  0  0  0  0  0  0  0  0  0  0  0
    5.0584    0.7995    0.9947 C   0  0  0  0  0  0  0  0  0  0  0  0
    6.2285    1.4485    0.2620 C   0  0  0  0  0  0  0  0  0  0  0  0
    5.8679    1.7184   -1.1954 C   0  0  0  0  0  0  0  0  0  0  0  0
    5.3593    0.4553   -1.8860 C   0  0  0  0  0  0  0  0  0  0  0  0
    1.5180   -2.6579   -0.4435 C   0  0  0  0  0  0  0  0  0  0  0  0
    0.3080   -2.7479    0.2483 C   0  0  0  0  0  0  0  0  0  0  0  0
   -1.9503    0.2350    1.4508 H   0  0  0  0  0  0  0  0  0  0  0  0
   -3.6922   -1.5048    2.9222 H   0  0  0  0  0  0  0  0  0  0  0  0
   -4.8747   -1.8180    0.7997 H   0  0  0  0  0  0  0  0  0  0  0  0
   -5.8466   -0.8026    1.8335 H   0  0  0  0  0  0  0  0  0  0  0  0
   -6.1553    1.6301    1.3135 H   0  0  0  0  0  0  0  0  0  0  0  0
   -6.2191    3.3281   -0.4738 H   0  0  0  0  0  0  0  0  0  0  0  0
   -5.1031    2.9009   -2.6466 H   0  0  0  0  0  0  0  0  0  0  0  0
   -3.9197    0.7546   -3.0315 H   0  0  0  0  0  0  0  0  0  0  0  0
   -3.8409   -0.9564   -1.2540 H   0  0  0  0  0  0  0  0  0  0  0  0
   -4.8005    1.5026    4.3331 H   0  0  0  0  0  0  0  0  0  0  0  0
   -0.9303    0.3684   -0.4299 H   0  0  0  0  0  0  0  0  0  0  0  0
    1.2155    0.5326   -1.6278 H   0  0  0  0  0  0  0  0  0  0  0  0
    3.7099   -0.8480    0.8040 H   0  0  0  0  0  0  0  0  0  0  0  0
    5.3584   -1.2130    0.2547 H   0  0  0  0  0  0  0  0  0  0  0  0
    5.3601    0.5377    2.0150 H   0  0  0  0  0  0  0  0  0  0  0  0
    4.2359    1.5213    1.0750 H   0  0  0  0  0  0  0  0  0  0  0  0
    6.5064    2.3851    0.7577 H   0  0  0  0  0  0  0  0  0  0  0  0
    7.1025    0.7874    0.3076 H   0  0  0  0  0  0  0  0  0  0  0  0
    5.0940    2.4951   -1.2376 H   0  0  0  0  0  0  0  0  0  0  0  0
    6.7436    2.1056   -1.7280 H   0  0  0  0  0  0  0  0  0  0  0  0
    5.0616    0.7205   -2.9057 H   0  0  0  0  0  0  0  0  0  0  0  0
    6.1538   -0.2980   -1.9420 H   0  0  0  0  0  0  0  0  0  0  0  0
    2.1901   -3.5130   -0.4675 H   0  0  0  0  0  0  0  0  0  0  0  0
    0.0480   -3.6746    0.7580 H   0  0  0  0  0  0  0  0  0  0  0  0
  1  2  2  0
  2  3  1  0
  3  4  1  0
  4  5  1  0
  5  6  1  0
  6  7  2  0
  7  8  1  0
  8  9  2  0
  9 10  1  0
 10 11  2  0
  4 12  1  0
 12 13  2  0
 12 14  1  0
  2 15  1  0
 15 16  2  0
 16 17  1  0
 17 18  2  0
 18 19  1  0
 19 20  2  0
 19 21  2  0
 19 22  1  0
 22 23  1  0
 23 24  1  0
 24 25  1  0
 25 26  1  0
 26 27  1  0
 18 28  1  0
 28 29  2  0
 11  6  1  0
 29 15  1  0
 27 22  1  0
  3 30  1  0
  4 31  1  0
  5 32  1  0
  5 33  1  0
  7 34  1  0
  8 35  1  0
  9 36  1  0
 10 37  1  0
 11 38  1  0
 14 39  1  0
 16 40  1  0
 17 41  1  0
 23 42  1  0
 23 43  1  0
 24 44  1  0
 24 45  1  0
 25 46  1  0
 25 47  1  0
 26 48  1  0
 26 49  1  0
 27 50  1  0
 27 51  1  0
 28 52  1  0
 29 53  1  0
M  END
$$$$
