
     RDKit          3D

 58 61  0  0  0  0  0  0  0  0999 V2000
    2.9384    0.1111   -7.7901 C   0  0  0  0  0  0  0  0  0  0  0  0
    2.2508    1.1342   -7.0780 O   0  0  0  0  0  0  0  0  0  0  0  0
    2.4512    1.1858   -5.7273 C   0  0  0  0  0  0  0  0  0  0  0  0
    1.7750    2.2224   -5.0815 C   0  0  0  0  0  0  0  0  0  0  0  0
    1.8962    2.4003   -3.7031 C   0  0  0  0  0  0  0  0  0  0  0  0
    2.7006    1.5416   -2.9422 C   0  0  0  0  0  0  0  0  0  0  0  0
    2.8163    1.7360   -1.4505 C   0  0  0  0  0  0  0  0  0  0  0  0
    1.7089    1.1118   -0.7579 N   0  0  0  0  0  0  0  0  0  0  0  0
    0.5766    1.8321   -0.3972 C   0  0  0  0  0  0  0  0  0  0  0  0
    0.4784    3.0392   -0.6167 O   0  0  0  0  0  0  0  0  0  0  0  0
   -0.5154    0.9984    0.2647 C   0  0  0  0  0  0  0  0  0  0  0  0
   -1.8373    1.5808   -0.0143 C   0  0  0  0  0  0  0  0  0  0  0  0
   -2.9144    1.9614   -0.2478 N   0  0  0  0  0  0  0  0  0  0  0  0
   -0.2891    0.8248    1.7529 C   0  0  0  0  0  0  0  0  0  0  0  0
    0.5309    1.7018    2.3953 N   0  0  0  0  0  0  0  0  0  0  0  0
    0.6805    1.5578    3.7230 C   0  0  0  0  0  0  0  0  0  0  0  0
    1.4838    2.4476    4.4259 C   0  0  0  0  0  0  0  0  0  0  0  0
    1.6489    2.3383    5.8085 C   0  0  0  0  0  0  0  0  0  0  0  0
    1.0048    1.3172    6.4977 C   0  0  0  0  0  0  0  0  0  0  0  0
    0.2004    0.4178    5.7956 C   0  0  0  0  0  0  0  0  0  0  0  0
    0.0251    0.5214    4.4187 C   0  0  0  0  0  0  0  0  0  0  0  0
   -0.7604   -0.3651    3.7794 N   0  0  0  0  0  0  0  0  0  0  0  0
   -0.9329   -0.2141    2.4475 C   0  0  0  0  0  0  0  0  0  0  0  0
   -1.7729   -1.1126    1.7487 N   0  0  0  0  0  0  0  0  0  0  0  0
   -1.3439   -2.5146    1.9873 C   0  0  0  0  0  0  0  0  0  0  0  0
   -2.2770   -3.4794    1.2136 C   0  0  0  0  0  0  0  0  0  0  0  0
   -3.6969   -3.3263    1.5981 N   0  0  0  0  0  0  0  0  0  0  0  0
   -4.5470   -4.1962    0.7887 C   0  0  0  0  0  0  0  0  0  0  0  0
   -4.1052   -1.9107    1.4529 C   0  0  0  0  0  0  0  0  0  0  0  0
   -3.1747   -0.9413    2.2230 C   0  0  0  0  0  0  0  0  0  0  0  0
    3.3645    0.4911   -3.5916 C   0  0  0  0  0  0  0  0  0  0  0  0
    3.2440    0.3165   -4.9767 C   0  0  0  0  0  0  0  0  0  0  0  0
    2.5959   -0.8818   -7.4796 H   0  0  0  0  0  0  0  0  0  0  0  0
    4.0227    0.2097   -7.6754 H   0  0  0  0  0  0  0  0  0  0  0  0
    2.7064    0.2252   -8.8519 H   0  0  0  0  0  0  0  0  0  0  0  0
    1.1495    2.9012   -5.6578 H   0  0  0  0  0  0  0  0  0  0  0  0
    1.3561    3.2168   -3.2226 H   0  0  0  0  0  0  0  0  0  0  0  0
    3.7377    1.2733   -1.0760 H   0  0  0  0  0  0  0  0  0  0  0  0
    2.8713    2.8022   -1.2080 H   0  0  0  0  0  0  0  0  0  0  0  0
    1.7095    0.1029   -0.7016 H   0  0  0  0  0  0  0  0  0  0  0  0
   -0.4763    0.0129   -0.2157 H   0  0  0  0  0  0  0  0  0  0  0  0
    1.9870    3.2470    3.8834 H   0  0  0  0  0  0  0  0  0  0  0  0
    2.2763    3.0498    6.3399 H   0  0  0  0  0  0  0  0  0  0  0  0
    1.1222    1.2228    7.5742 H   0  0  0  0  0  0  0  0  0  0  0  0
   -0.3062   -0.3776    6.3319 H   0  0  0  0  0  0  0  0  0  0  0  0
   -0.3169   -2.6558    1.6234 H   0  0  0  0  0  0  0  0  0  0  0  0
   -1.3653   -2.7726    3.0576 H   0  0  0  0  0  0  0  0  0  0  0  0
   -2.1538   -3.3054    0.1371 H   0  0  0  0  0  0  0  0  0  0  0  0
   -1.9538   -4.5069    1.4190 H   0  0  0  0  0  0  0  0  0  0  0  0
   -5.5933   -4.1149    1.1046 H   0  0  0  0  0  0  0  0  0  0  0  0
   -4.2563   -5.2473    0.9180 H   0  0  0  0  0  0  0  0  0  0  0  0
   -4.4885   -3.9557   -0.2779 H   0  0  0  0  0  0  0  0  0  0  0  0
   -4.1147   -1.6263    0.3954 H   0  0  0  0  0  0  0  0  0  0  0  0
   -5.1221   -1.7866    1.8366 H   0  0  0  0  0  0  0  0  0  0  0  0
   -3.2576   -1.1433    3.3023 H   0  0  0  0  0  0  0  0  0  0  0  0
   -3.5140    0.0877    2.0482 H   0  0  0  0  0  0  0  0  0  0  0  0
    3.9911   -0.2003   -3.0272 H   0  0  0  0  0  0  0  0  0  0  0  0
    3.7848   -0.5060   -5.4376 H   0  0  0  0  0  0  0  0  0  0  0  0
  1  2  1  0
  2  3  1  0
  3  4  2  0
  4  5  1  0
  5  6  2  0
  6  7  1  0
  7  8  1  0
  8  9  1  0
  9 10  2  0
  9 11  1  0
 11 12  1  0
 12 13  3  0
 11 14  1  0
 14 15  2  0
 15 16  1  0
 16 17  2  0
 17 18  1  0
 18 19  2  0
 19 20  1  0
 20 21  2  0
 21 22  1  0
 22 23  2  0
 23 24  1  0
 24 25  1  0
 25 26  1  0
 26 27  1  0
 27 28  1  0
 27 29  1  0
 29 30  1  0
  6 31  1  0
 31 32  2  0
 32  3  1  0
 23 14  1  0
 30 24  1  0
 21 16  1  0
  1 33  1  0
  1 34  1  0
  1 35  1  0
  4 36  1  0
  5 37  1  0
  7 38  1  0
  7 39  1  0
  8 40  1  0
 11 41  1  0
 17 42  1  0
 18 43  1  0
 19 44  1  0
 20 45  1  0
 25 46  1  0
 25 47  1  0
 26 48  1  0
 26 49  1  0
 28 50  1  0
 28 51  1  0
 28 52  1  0
 29 53  1  0
 29 54  1  0
 30 55  1  0
 30 56  1  0
 31 57  1  0
 32 58  1  0
M  END
$$$$
