
     RDKit          3D

 59 62  0  0  0  0  0  0  0  0999 V2000
   -7.8195   -0.0115   -1.5379 C   0  0  0  0  0  0  0  0  0  0  0  0
   -6.7774    0.9438   -2.1120 C   0  0  0  0  0  0  0  0  0  0  0  0
   -5.4756    0.9938   -1.4405 N   0  0  0  0  0  0  0  0  0  0  0  0
   -4.7526   -0.2873   -1.4706 C   0  0  0  0  0  0  0  0  0  0  0  0
   -3.3490   -0.1626   -0.8323 C   0  0  0  0  0  0  0  0  0  0  0  0
   -3.4156    0.3265    0.5701 N   0  0  0  0  0  0  0  0  0  0  0  0
   -2.0570    0.5109    1.1261 C   0  0  0  0  0  0  0  0  0  0  0  0
   -1.3833   -0.7881    1.4992 C   0  0  0  0  0  0  0  0  0  0  0  0
   -2.0695   -1.9018    2.0203 C   0  0  0  0  0  0  0  0  0  0  0  0
   -3.4332   -1.9003    2.1501 O   0  0  0  0  0  0  0  0  0  0  0  0
   -1.4091   -3.0775    2.4247 C   0  0  0  0  0  0  0  0  0  0  0  0
   -0.0222   -3.1800    2.3259 C   0  0  0  0  0  0  0  0  0  0  0  0
    0.6485   -2.0828    1.8260 C   0  0  0  0  0  0  0  0  0  0  0  0
   -0.0043   -0.9144    1.4270 C   0  0  0  0  0  0  0  0  0  0  0  0
    0.8682    0.0549    0.9778 O   0  0  0  0  0  0  0  0  0  0  0  0
    2.1404   -0.4975    1.0782 C   0  0  0  0  0  0  0  0  0  0  0  0
    3.2848    0.1066    0.7343 C   0  0  0  0  0  0  0  0  0  0  0  0
    3.3645    1.4451    0.1870 C   0  0  0  0  0  0  0  0  0  0  0  0
    4.4864    2.0747   -0.1991 C   0  0  0  0  0  0  0  0  0  0  0  0
    5.8471    1.5228   -0.1361 C   0  0  0  0  0  0  0  0  0  0  0  0
    6.6796    1.9340    0.9144 C   0  0  0  0  0  0  0  0  0  0  0  0
    7.9769    1.4328    1.0253 C   0  0  0  0  0  0  0  0  0  0  0  0
    8.4523    0.5219    0.0849 C   0  0  0  0  0  0  0  0  0  0  0  0
    7.6313    0.1049   -0.9660 C   0  0  0  0  0  0  0  0  0  0  0  0
    6.3238    0.5909   -1.0764 C   0  0  0  0  0  0  0  0  0  0  0  0
    5.4791    0.2417   -2.1009 O   0  0  0  0  0  0  0  0  0  0  0  0
    5.5964   -1.1050   -2.5472 C   0  0  0  0  0  0  0  0  0  0  0  0
    2.0768   -1.8803    1.6186 C   0  0  0  0  0  0  0  0  0  0  0  0
    2.9753   -2.6628    1.8362 O   0  0  0  0  0  0  0  0  0  0  0  0
   -4.1445    1.6172    0.5767 C   0  0  0  0  0  0  0  0  0  0  0  0
   -5.5487    1.5000   -0.0612 C   0  0  0  0  0  0  0  0  0  0  0  0
   -7.4829   -1.0522   -1.5759 H   0  0  0  0  0  0  0  0  0  0  0  0
   -8.7404    0.0539   -2.1264 H   0  0  0  0  0  0  0  0  0  0  0  0
   -8.0749    0.2366   -0.5044 H   0  0  0  0  0  0  0  0  0  0  0  0
   -7.2038    1.9553   -2.1268 H   0  0  0  0  0  0  0  0  0  0  0  0
   -6.6147    0.6859   -3.1659 H   0  0  0  0  0  0  0  0  0  0  0  0
   -4.6296   -0.6187   -2.5084 H   0  0  0  0  0  0  0  0  0  0  0  0
   -5.3087   -1.0682   -0.9374 H   0  0  0  0  0  0  0  0  0  0  0  0
   -2.8790   -1.1519   -0.8599 H   0  0  0  0  0  0  0  0  0  0  0  0
   -2.7346    0.5080   -1.4479 H   0  0  0  0  0  0  0  0  0  0  0  0
   -2.1188    1.0939    2.0546 H   0  0  0  0  0  0  0  0  0  0  0  0
   -1.4377    1.0882    0.4281 H   0  0  0  0  0  0  0  0  0  0  0  0
   -3.7590   -1.1033    1.6741 H   0  0  0  0  0  0  0  0  0  0  0  0
   -1.9912   -3.9091    2.8160 H   0  0  0  0  0  0  0  0  0  0  0  0
    0.5073   -4.0761    2.6312 H   0  0  0  0  0  0  0  0  0  0  0  0
    4.2157   -0.4432    0.8625 H   0  0  0  0  0  0  0  0  0  0  0  0
    2.4243    1.9818    0.0717 H   0  0  0  0  0  0  0  0  0  0  0  0
    4.4253    3.0816   -0.6042 H   0  0  0  0  0  0  0  0  0  0  0  0
    6.3183    2.6443    1.6547 H   0  0  0  0  0  0  0  0  0  0  0  0
    8.6158    1.7554    1.8433 H   0  0  0  0  0  0  0  0  0  0  0  0
    9.4666    0.1387    0.1654 H   0  0  0  0  0  0  0  0  0  0  0  0
    8.0399   -0.5854   -1.6971 H   0  0  0  0  0  0  0  0  0  0  0  0
    6.4590   -1.2193   -3.2106 H   0  0  0  0  0  0  0  0  0  0  0  0
    5.6495   -1.8081   -1.7085 H   0  0  0  0  0  0  0  0  0  0  0  0
    4.6987   -1.3434   -3.1255 H   0  0  0  0  0  0  0  0  0  0  0  0
   -3.5695    2.3882    0.0459 H   0  0  0  0  0  0  0  0  0  0  0  0
   -4.2698    1.9567    1.6120 H   0  0  0  0  0  0  0  0  0  0  0  0
   -6.0110    2.4945   -0.0553 H   0  0  0  0  0  0  0  0  0  0  0  0
   -6.1649    0.8453    0.5682 H   0  0  0  0  0  0  0  0  0  0  0  0
  1  2  1  0
  2  3  1  0
  3  4  1  0
  4  5  1  0
  5  6  1  0
  6  7  1  0
  7  8  1  0
  8  9  2  0
  9 10  1  0
  9 11  1  0
 11 12  2  0
 12 13  1  0
 13 14  2  0
 14 15  1  0
 15 16  1  0
 16 17  2  3
 17 18  1  0
 18 19  2  3
 19 20  1  0
 20 21  2  0
 21 22  1  0
 22 23  2  0
 23 24  1  0
 24 25  2  0
 25 26  1  0
 26 27  1  0
 16 28  1  0
 28 29  2  0
  6 30  1  0
 30 31  1  0
 31  3  1  0
 14  8  1  0
 25 20  1  0
 28 13  1  0
  1 32  1  0
  1 33  1  0
  1 34  1  0
  2 35  1  0
  2 36  1  0
  4 37  1  0
  4 38  1  0
  5 39  1  0
  5 40  1  0
  7 41  1  0
  7 42  1  0
 10 43  1  0
 11 44  1  0
 12 45  1  0
 17 46  1  0
 18 47  1  0
 19 48  1  0
 21 49  1  0
 22 50  1  0
 23 51  1  0
 24 52  1  0
 27 53  1  0
 27 54  1  0
 27 55  1  0
 30 56  1  0
 30 57  1  0
 31 58  1  0
 31 59  1  0
M  END
$$$$
