
     RDKit          3D

 44 46  0  0  0  0  0  0  0  0999 V2000
    6.7539   -1.7077   -2.1735 C   0  0  0  0  0  0  0  0  0  0  0  0
    5.3714   -1.7985   -2.4945 O   0  0  0  0  0  0  0  0  0  0  0  0
    4.5207   -0.9941   -1.7886 C   0  0  0  0  0  0  0  0  0  0  0  0
    4.8835   -0.0727   -0.8079 C   0  0  0  0  0  0  0  0  0  0  0  0
    3.9049    0.6937   -0.1575 C   0  0  0  0  0  0  0  0  0  0  0  0
    2.5554    0.5481   -0.4803 C   0  0  0  0  0  0  0  0  0  0  0  0
    1.5157    1.2789    0.1242 N   0  0  0  0  0  0  0  0  0  0  0  0
    1.6084    2.2101    1.1465 C   0  0  0  0  0  0  0  0  0  0  0  0
    2.6404    2.6039    1.6838 O   0  0  0  0  0  0  0  0  0  0  0  0
    0.2464    2.8090    1.5324 C   0  0  0  0  0  0  0  0  0  0  0  0
   -0.8908    2.0442    1.1526 O   0  0  0  0  0  0  0  0  0  0  0  0
   -1.1179    0.9258    1.8962 C   0  0  0  0  0  0  0  0  0  0  0  0
   -0.5173    0.8007    3.0799 N   0  0  0  0  0  0  0  0  0  0  0  0
   -0.9685   -0.7141    3.6125 S   0  0  0  0  0  0  0  0  0  0  0  0
   -1.9250   -1.2101    2.3410 N   0  0  0  0  0  0  0  0  0  0  0  0
   -1.9529   -0.1947    1.4677 C   0  0  0  0  0  0  0  0  0  0  0  0
   -2.6273   -0.2364    0.2630 N   0  0  0  0  0  0  0  0  0  0  0  0
   -3.1652   -1.5309   -0.1908 C   0  0  0  0  0  0  0  0  0  0  0  0
   -4.5756   -1.7586    0.3557 C   0  0  0  0  0  0  0  0  0  0  0  0
   -5.4979   -0.5903    0.0098 C   0  0  0  0  0  0  0  0  0  0  0  0
   -4.8810    0.7427    0.4326 C   0  0  0  0  0  0  0  0  0  0  0  0
   -3.4683    0.9038   -0.1341 C   0  0  0  0  0  0  0  0  0  0  0  0
    2.1952   -0.3777   -1.4653 C   0  0  0  0  0  0  0  0  0  0  0  0
    3.1715   -1.1411   -2.1130 C   0  0  0  0  0  0  0  0  0  0  0  0
    6.9370   -1.9885   -1.1310 H   0  0  0  0  0  0  0  0  0  0  0  0
    7.2910   -2.4184   -2.8088 H   0  0  0  0  0  0  0  0  0  0  0  0
    7.1443   -0.7079   -2.3890 H   0  0  0  0  0  0  0  0  0  0  0  0
    5.9183    0.0812   -0.5190 H   0  0  0  0  0  0  0  0  0  0  0  0
    4.2364    1.3980    0.5994 H   0  0  0  0  0  0  0  0  0  0  0  0
    0.5753    1.0682   -0.1964 H   0  0  0  0  0  0  0  0  0  0  0  0
    0.1736    3.7602    0.9913 H   0  0  0  0  0  0  0  0  0  0  0  0
    0.2348    3.0621    2.5997 H   0  0  0  0  0  0  0  0  0  0  0  0
   -2.5054   -2.3632    0.0839 H   0  0  0  0  0  0  0  0  0  0  0  0
   -3.1980   -1.5274   -1.2881 H   0  0  0  0  0  0  0  0  0  0  0  0
   -4.9856   -2.6875   -0.0568 H   0  0  0  0  0  0  0  0  0  0  0  0
   -4.5422   -1.8797    1.4449 H   0  0  0  0  0  0  0  0  0  0  0  0
   -6.4696   -0.7242    0.4984 H   0  0  0  0  0  0  0  0  0  0  0  0
   -5.6812   -0.5798   -1.0719 H   0  0  0  0  0  0  0  0  0  0  0  0
   -5.5145    1.5675    0.0874 H   0  0  0  0  0  0  0  0  0  0  0  0
   -4.8494    0.7968    1.5280 H   0  0  0  0  0  0  0  0  0  0  0  0
   -3.5140    0.9413   -1.2301 H   0  0  0  0  0  0  0  0  0  0  0  0
   -3.0615    1.8677    0.1832 H   0  0  0  0  0  0  0  0  0  0  0  0
    1.1541   -0.5239   -1.7420 H   0  0  0  0  0  0  0  0  0  0  0  0
    2.8767   -1.8579   -2.8757 H   0  0  0  0  0  0  0  0  0  0  0  0
  1  2  1  0
  2  3  1  0
  3  4  2  0
  4  5  1  0
  5  6  2  0
  6  7  1  0
  7  8  1  0
  8  9  2  0
  8 10  1  0
 10 11  1  0
 11 12  1  0
 12 13  2  0
 13 14  1  0
 14 15  1  0
 15 16  2  0
 16 17  1  0
 17 18  1  0
 18 19  1  0
 19 20  1  0
 20 21  1  0
 21 22  1  0
  6 23  1  0
 23 24  2  0
 24  3  1  0
 16 12  1  0
 22 17  1  0
  1 25  1  0
  1 26  1  0
  1 27  1  0
  4 28  1  0
  5 29  1  0
  7 30  1  0
 10 31  1  0
 10 32  1  0
 18 33  1  0
 18 34  1  0
 19 35  1  0
 19 36  1  0
 20 37  1  0
 20 38  1  0
 21 39  1  0
 21 40  1  0
 22 41  1  0
 22 42  1  0
 23 43  1  0
 24 44  1  0
M  END
$$$$
