
     RDKit          3D

 42 44  0  0  0  0  0  0  0  0999 V2000
    5.3154    0.0867    1.2894 C   0  0  0  0  0  0  0  0  0  0  0  0
    3.9720    0.0524    0.5629 C   0  0  0  0  0  0  0  0  0  0  0  0
    4.1546   -0.4460   -0.8683 C   0  0  0  0  0  0  0  0  0  0  0  0
    2.8475   -1.0671    1.4863 S   0  0  0  0  0  0  0  0  0  0  0  0
    1.2629   -0.6127    0.7948 C   0  0  0  0  0  0  0  0  0  0  0  0
    0.2647   -1.5630    0.7526 C   0  0  0  0  0  0  0  0  0  0  0  0
   -0.9604   -1.1800    0.2486 C   0  0  0  0  0  0  0  0  0  0  0  0
   -2.0119   -2.0578    0.1527 N   0  0  0  0  0  0  0  0  0  0  0  0
   -3.3008   -1.6065   -0.3574 C   0  0  0  0  0  0  0  0  0  0  0  0
   -4.1580   -2.8671   -0.2925 C   0  0  0  0  0  0  0  0  0  0  0  0
   -3.6361   -3.5625    0.9550 C   0  0  0  0  0  0  0  0  0  0  0  0
   -2.1309   -3.2964    0.9108 C   0  0  0  0  0  0  0  0  0  0  0  0
   -1.1472    0.0774   -0.1876 N   0  0  0  0  0  0  0  0  0  0  0  0
   -0.1167    0.9405   -0.1167 C   0  0  0  0  0  0  0  0  0  0  0  0
   -0.3810    2.3243   -0.5288 C   0  0  0  0  0  0  0  0  0  0  0  0
   -1.5539    2.9630   -0.0673 C   0  0  0  0  0  0  0  0  0  0  0  0
   -1.8552    4.2846   -0.4070 C   0  0  0  0  0  0  0  0  0  0  0  0
   -0.9909    5.0024   -1.2245 C   0  0  0  0  0  0  0  0  0  0  0  0
    0.1669    4.3945   -1.7061 C   0  0  0  0  0  0  0  0  0  0  0  0
    0.4704    3.0672   -1.3666 C   0  0  0  0  0  0  0  0  0  0  0  0
    1.9015    2.4007   -2.0800 Cl  0  0  0  0  0  0  0  0  0  0  0  0
    1.0898    0.6494    0.3831 N   0  0  0  0  0  0  0  0  0  0  0  0
    6.0098    0.7590    0.7729 H   0  0  0  0  0  0  0  0  0  0  0  0
    5.7854   -0.9026    1.3305 H   0  0  0  0  0  0  0  0  0  0  0  0
    5.2048    0.4591    2.3141 H   0  0  0  0  0  0  0  0  0  0  0  0
    3.5669    1.0692    0.5584 H   0  0  0  0  0  0  0  0  0  0  0  0
    4.8251    0.2225   -1.4199 H   0  0  0  0  0  0  0  0  0  0  0  0
    4.5959   -1.4489   -0.8962 H   0  0  0  0  0  0  0  0  0  0  0  0
    3.2065   -0.4765   -1.4144 H   0  0  0  0  0  0  0  0  0  0  0  0
    0.4494   -2.5721    1.0931 H   0  0  0  0  0  0  0  0  0  0  0  0
   -3.7224   -0.8279    0.2899 H   0  0  0  0  0  0  0  0  0  0  0  0
   -3.2371   -1.2303   -1.3840 H   0  0  0  0  0  0  0  0  0  0  0  0
   -5.2274   -2.6454   -0.2409 H   0  0  0  0  0  0  0  0  0  0  0  0
   -3.9764   -3.4942   -1.1738 H   0  0  0  0  0  0  0  0  0  0  0  0
   -4.0709   -3.0980    1.8485 H   0  0  0  0  0  0  0  0  0  0  0  0
   -3.8714   -4.6302    0.9781 H   0  0  0  0  0  0  0  0  0  0  0  0
   -1.6101   -4.1044    0.3855 H   0  0  0  0  0  0  0  0  0  0  0  0
   -1.7353   -3.2167    1.9293 H   0  0  0  0  0  0  0  0  0  0  0  0
   -2.2435    2.4171    0.5767 H   0  0  0  0  0  0  0  0  0  0  0  0
   -2.7641    4.7479   -0.0310 H   0  0  0  0  0  0  0  0  0  0  0  0
   -1.2195    6.0305   -1.4934 H   0  0  0  0  0  0  0  0  0  0  0  0
    0.8316    4.9580   -2.3569 H   0  0  0  0  0  0  0  0  0  0  0  0
  1  2  1  0
  2  3  1  0
  2  4  1  0
  4  5  1  0
  5  6  2  0
  6  7  1  0
  7  8  1  0
  8  9  1  0
  9 10  1  0
 10 11  1  0
 11 12  1  0
  7 13  2  0
 13 14  1  0
 14 15  1  0
 15 16  2  0
 16 17  1  0
 17 18  2  0
 18 19  1  0
 19 20  2  0
 20 21  1  0
 14 22  2  0
 22  5  1  0
 12  8  1  0
 20 15  1  0
  1 23  1  0
  1 24  1  0
  1 25  1  0
  2 26  1  0
  3 27  1  0
  3 28  1  0
  3 29  1  0
  6 30  1  0
  9 31  1  0
  9 32  1  0
 10 33  1  0
 10 34  1  0
 11 35  1  0
 11 36  1  0
 12 37  1  0
 12 38  1  0
 16 39  1  0
 17 40  1  0
 18 41  1  0
 19 42  1  0
M  END
$$$$
