
     RDKit          3D

 36 38  0  0  0  0  0  0  0  0999 V2000
   -2.7564    4.8167   -0.5962 C   0  0  0  0  0  0  0  0  0  0  0  0
   -2.7750    3.3480   -0.2933 C   0  0  0  0  0  0  0  0  0  0  0  0
   -3.9602    2.7095    0.0627 C   0  0  0  0  0  0  0  0  0  0  0  0
   -3.9661    1.3360    0.3242 C   0  0  0  0  0  0  0  0  0  0  0  0
   -2.8176    0.5625    0.2267 C   0  0  0  0  0  0  0  0  0  0  0  0
   -2.9042   -0.7410    0.5099 N   0  0  0  0  0  0  0  0  0  0  0  0
   -1.7841   -1.4918    0.4443 C   0  0  0  0  0  0  0  0  0  0  0  0
   -1.8654   -2.9952    0.7516 C   0  0  0  0  0  0  0  0  0  0  0  0
   -2.0353   -3.9150   -0.7823 Cl  0  0  0  0  0  0  0  0  0  0  0  0
   -0.3823   -3.5682    1.6066 Cl  0  0  0  0  0  0  0  0  0  0  0  0
   -3.2642   -3.4022    1.8120 Cl  0  0  0  0  0  0  0  0  0  0  0  0
   -0.5969   -0.9881    0.0569 N   0  0  0  0  0  0  0  0  0  0  0  0
   -0.5166    0.3207   -0.2595 C   0  0  0  0  0  0  0  0  0  0  0  0
    0.7544    0.8639   -0.6556 N   0  0  0  0  0  0  0  0  0  0  0  0
    1.8009   -0.0122   -0.8291 N   0  0  0  0  0  0  0  0  0  0  0  0
    2.2892   -0.4891    0.2747 C   0  0  0  0  0  0  0  0  0  0  0  0
    3.3874   -1.4713    0.2805 C   0  0  0  0  0  0  0  0  0  0  0  0
    3.8369   -1.9691    1.5003 C   0  0  0  0  0  0  0  0  0  0  0  0
    4.8672   -2.8914    1.4743 C   0  0  0  0  0  0  0  0  0  0  0  0
    5.4553   -3.3284    0.3395 N   0  0  0  0  0  0  0  0  0  0  0  0
    4.9892   -2.8283   -0.8263 C   0  0  0  0  0  0  0  0  0  0  0  0
    3.9648   -1.9045   -0.9099 C   0  0  0  0  0  0  0  0  0  0  0  0
   -1.6248    1.1797   -0.1605 C   0  0  0  0  0  0  0  0  0  0  0  0
   -1.6135    2.5785   -0.4143 C   0  0  0  0  0  0  0  0  0  0  0  0
   -3.5272    5.3441   -0.0244 H   0  0  0  0  0  0  0  0  0  0  0  0
   -2.9337    4.9808   -1.6634 H   0  0  0  0  0  0  0  0  0  0  0  0
   -1.7918    5.2584   -0.3245 H   0  0  0  0  0  0  0  0  0  0  0  0
   -4.8884    3.2706    0.1489 H   0  0  0  0  0  0  0  0  0  0  0  0
   -4.8996    0.8578    0.6155 H   0  0  0  0  0  0  0  0  0  0  0  0
    0.5821    1.3953   -1.5111 H   0  0  0  0  0  0  0  0  0  0  0  0
    1.8930   -0.1790    1.2594 H   0  0  0  0  0  0  0  0  0  0  0  0
    3.4023   -1.6599    2.4434 H   0  0  0  0  0  0  0  0  0  0  0  0
    5.2606   -3.3191    2.3923 H   0  0  0  0  0  0  0  0  0  0  0  0
    5.4782   -3.2045   -1.7205 H   0  0  0  0  0  0  0  0  0  0  0  0
    3.6276   -1.5383   -1.8730 H   0  0  0  0  0  0  0  0  0  0  0  0
   -0.6857    3.0739   -0.6947 H   0  0  0  0  0  0  0  0  0  0  0  0
  1  2  1  0
  2  3  2  0
  3  4  1  0
  4  5  2  0
  5  6  1  0
  6  7  2  0
  7  8  1  0
  8  9  1  0
  8 10  1  0
  8 11  1  0
  7 12  1  0
 12 13  2  0
 13 14  1  0
 14 15  1  0
 15 16  2  3
 16 17  1  0
 17 18  2  0
 18 19  1  0
 19 20  2  0
 20 21  1  0
 21 22  2  0
 13 23  1  0
 23 24  2  0
 24  2  1  0
 23  5  1  0
 22 17  1  0
  1 25  1  0
  1 26  1  0
  1 27  1  0
  3 28  1  0
  4 29  1  0
 14 30  1  0
 16 31  1  0
 18 32  1  0
 19 33  1  0
 21 34  1  0
 22 35  1  0
 24 36  1  0
M  END
$$$$
