
     RDKit          3D

 58 61  0  0  0  0  0  0  0  0999 V2000
    9.0793   -0.5783   -0.4344 C   0  0  0  0  0  0  0  0  0  0  0  0
    7.7607    0.0358   -0.0753 C   0  0  0  0  0  0  0  0  0  0  0  0
    7.3249    0.0482    1.2551 C   0  0  0  0  0  0  0  0  0  0  0  0
    6.0833    0.5933    1.5894 C   0  0  0  0  0  0  0  0  0  0  0  0
    5.2543    1.1319    0.5969 C   0  0  0  0  0  0  0  0  0  0  0  0
    3.9024    1.6974    0.9433 C   0  0  0  0  0  0  0  0  0  0  0  0
    2.8626    0.7315    0.6649 N   0  0  0  0  0  0  0  0  0  0  0  0
    2.0781    0.8152   -0.4628 C   0  0  0  0  0  0  0  0  0  0  0  0
    2.1340    1.7536   -1.2512 O   0  0  0  0  0  0  0  0  0  0  0  0
    1.1386   -0.3770   -0.6500 C   0  0  0  0  0  0  0  0  0  0  0  0
    0.4012   -0.2804   -1.9934 C   0  0  0  0  0  0  0  0  0  0  0  0
   -0.6047   -1.4133   -2.1812 C   0  0  0  0  0  0  0  0  0  0  0  0
   -1.6145   -1.5129   -1.0281 C   0  0  0  0  0  0  0  0  0  0  0  0
   -2.6229   -0.3452   -1.0611 C   0  0  0  0  0  0  0  0  0  0  0  0
   -3.7049   -0.5915   -0.1146 N   0  0  0  0  0  0  0  0  0  0  0  0
   -4.7085    0.3090    0.2261 C   0  0  0  0  0  0  0  0  0  0  0  0
   -4.4941    1.6478    0.0374 N   0  0  0  0  0  0  0  0  0  0  0  0
   -5.3752    2.6535    0.3317 C   0  0  0  0  0  0  0  0  0  0  0  0
   -4.8803    4.2308    0.0534 S   0  0  0  0  0  0  0  0  0  0  0  0
   -6.6018    2.3231    0.8292 N   0  0  0  0  0  0  0  0  0  0  0  0
   -6.8470    1.0681    1.0258 C   0  0  0  0  0  0  0  0  0  0  0  0
   -8.1823    0.6852    1.5654 C   0  0  0  0  0  0  0  0  0  0  0  0
   -8.4803   -0.5952    1.8135 C   0  0  0  0  0  0  0  0  0  0  0  0
   -7.5368   -1.6594    1.5794 C   0  0  0  0  0  0  0  0  0  0  0  0
   -6.3194   -1.4158    1.0775 C   0  0  0  0  0  0  0  0  0  0  0  0
   -5.8983   -0.0630    0.7529 C   0  0  0  0  0  0  0  0  0  0  0  0
   -0.8646   -1.6097    0.3110 C   0  0  0  0  0  0  0  0  0  0  0  0
    0.1488   -0.4839    0.5180 C   0  0  0  0  0  0  0  0  0  0  0  0
    5.6838    1.0993   -0.7370 C   0  0  0  0  0  0  0  0  0  0  0  0
    6.9243    0.5528   -1.0705 C   0  0  0  0  0  0  0  0  0  0  0  0
    8.9577   -1.6527   -0.6017 H   0  0  0  0  0  0  0  0  0  0  0  0
    9.8121   -0.4240    0.3650 H   0  0  0  0  0  0  0  0  0  0  0  0
    9.4903   -0.1229   -1.3418 H   0  0  0  0  0  0  0  0  0  0  0  0
    7.9528   -0.3666    2.0414 H   0  0  0  0  0  0  0  0  0  0  0  0
    5.7697    0.5942    2.6314 H   0  0  0  0  0  0  0  0  0  0  0  0
    3.7304    2.6317    0.3981 H   0  0  0  0  0  0  0  0  0  0  0  0
    3.8471    1.9309    2.0124 H   0  0  0  0  0  0  0  0  0  0  0  0
    2.9154   -0.1504    1.1554 H   0  0  0  0  0  0  0  0  0  0  0  0
    1.7645   -1.2795   -0.6700 H   0  0  0  0  0  0  0  0  0  0  0  0
    1.1285   -0.3069   -2.8150 H   0  0  0  0  0  0  0  0  0  0  0  0
   -0.1137    0.6846   -2.0759 H   0  0  0  0  0  0  0  0  0  0  0  0
   -1.1298   -1.2846   -3.1346 H   0  0  0  0  0  0  0  0  0  0  0  0
   -0.0572   -2.3614   -2.2557 H   0  0  0  0  0  0  0  0  0  0  0  0
   -2.1781   -2.4461   -1.1633 H   0  0  0  0  0  0  0  0  0  0  0  0
   -2.1188    0.5984   -0.8337 H   0  0  0  0  0  0  0  0  0  0  0  0
   -3.0529   -0.2573   -2.0660 H   0  0  0  0  0  0  0  0  0  0  0  0
   -4.0383   -1.5491   -0.1529 H   0  0  0  0  0  0  0  0  0  0  0  0
   -3.5974    1.9530   -0.3065 H   0  0  0  0  0  0  0  0  0  0  0  0
   -8.8852    1.4887    1.7481 H   0  0  0  0  0  0  0  0  0  0  0  0
   -9.4536   -0.8610    2.2139 H   0  0  0  0  0  0  0  0  0  0  0  0
   -7.8416   -2.6703    1.8284 H   0  0  0  0  0  0  0  0  0  0  0  0
   -5.6345   -2.2419    0.9310 H   0  0  0  0  0  0  0  0  0  0  0  0
   -1.5694   -1.6249    1.1506 H   0  0  0  0  0  0  0  0  0  0  0  0
   -0.3306   -2.5689    0.3437 H   0  0  0  0  0  0  0  0  0  0  0  0
   -0.3722    0.4719    0.6564 H   0  0  0  0  0  0  0  0  0  0  0  0
    0.6864   -0.6695    1.4557 H   0  0  0  0  0  0  0  0  0  0  0  0
    5.0457    1.4985   -1.5250 H   0  0  0  0  0  0  0  0  0  0  0  0
    7.2319    0.5357   -2.1135 H   0  0  0  0  0  0  0  0  0  0  0  0
  1  2  1  0
  2  3  2  0
  3  4  1  0
  4  5  2  0
  5  6  1  0
  6  7  1  0
  7  8  1  0
  8  9  2  0
  8 10  1  0
 10 11  1  0
 11 12  1  0
 12 13  1  0
 13 14  1  0
 14 15  1  0
 15 16  1  0
 16 17  1  0
 17 18  1  0
 18 19  2  0
 18 20  1  0
 20 21  2  0
 21 22  1  0
 22 23  2  0
 23 24  1  0
 24 25  2  0
 25 26  1  0
 13 27  1  0
 27 28  1  0
  5 29  1  0
 29 30  2  0
 30  2  1  0
 28 10  1  0
 26 16  2  0
 26 21  1  0
  1 31  1  0
  1 32  1  0
  1 33  1  0
  3 34  1  0
  4 35  1  0
  6 36  1  0
  6 37  1  0
  7 38  1  0
 10 39  1  0
 11 40  1  0
 11 41  1  0
 12 42  1  0
 12 43  1  0
 13 44  1  0
 14 45  1  0
 14 46  1  0
 15 47  1  0
 17 48  1  0
 22 49  1  0
 23 50  1  0
 24 51  1  0
 25 52  1  0
 27 53  1  0
 27 54  1  0
 28 55  1  0
 28 56  1  0
 29 57  1  0
 30 58  1  0
M  END
$$$$
