
     RDKit          3D

 40 41  0  0  0  0  0  0  0  0999 V2000
    4.6971    2.3769    0.1147 C   0  0  0  0  0  0  0  0  0  0  0  0
    4.5112    1.2494   -0.8832 C   0  0  0  0  0  0  0  0  0  0  0  0
    3.1289    0.8746   -0.9531 O   0  0  0  0  0  0  0  0  0  0  0  0
    2.7118   -0.0505   -0.0380 C   0  0  0  0  0  0  0  0  0  0  0  0
    3.4507   -0.5507    0.8025 O   0  0  0  0  0  0  0  0  0  0  0  0
    1.2951   -0.4021   -0.1802 C   0  0  0  0  0  0  0  0  0  0  0  0
    0.3083    0.2940   -0.8841 C   0  0  0  0  0  0  0  0  0  0  0  0
    0.4022    1.5883   -1.6247 C   0  0  0  0  0  0  0  0  0  0  0  0
   -0.8614   -0.4412   -0.8018 N   0  0  0  0  0  0  0  0  0  0  0  0
   -2.1178   -0.1559   -1.4920 C   0  0  0  0  0  0  0  0  0  0  0  0
   -3.1516    0.1456   -0.5565 O   0  0  0  0  0  0  0  0  0  0  0  0
   -3.0175    1.4442    0.0300 C   0  0  0  0  0  0  0  0  0  0  0  0
   -4.2588    1.7406    0.8674 C   0  0  0  0  0  0  0  0  0  0  0  0
   -5.3566    2.0559    0.0113 O   0  0  0  0  0  0  0  0  0  0  0  0
   -0.6763   -1.5480    0.0070 C   0  0  0  0  0  0  0  0  0  0  0  0
   -1.5786   -2.5494    0.4107 C   0  0  0  0  0  0  0  0  0  0  0  0
   -1.1095   -3.5752    1.2353 C   0  0  0  0  0  0  0  0  0  0  0  0
    0.2180   -3.5943    1.6364 C   0  0  0  0  0  0  0  0  0  0  0  0
    0.6987   -4.5886    2.4393 O   0  0  0  0  0  0  0  0  0  0  0  0
    1.1107   -2.6010    1.2364 C   0  0  0  0  0  0  0  0  0  0  0  0
    0.6599   -1.5486    0.4073 C   0  0  0  0  0  0  0  0  0  0  0  0
    4.4164    2.0595    1.1238 H   0  0  0  0  0  0  0  0  0  0  0  0
    5.7378    2.7126    0.1311 H   0  0  0  0  0  0  0  0  0  0  0  0
    4.0555    3.2264   -0.1417 H   0  0  0  0  0  0  0  0  0  0  0  0
    4.7992    1.5929   -1.8822 H   0  0  0  0  0  0  0  0  0  0  0  0
    5.1486    0.3904   -0.6443 H   0  0  0  0  0  0  0  0  0  0  0  0
    0.7240    1.4118   -2.6556 H   0  0  0  0  0  0  0  0  0  0  0  0
   -0.5490    2.1261   -1.6440 H   0  0  0  0  0  0  0  0  0  0  0  0
    1.1144    2.2669   -1.1458 H   0  0  0  0  0  0  0  0  0  0  0  0
   -2.3958   -1.0659   -2.0347 H   0  0  0  0  0  0  0  0  0  0  0  0
   -1.9927    0.6420   -2.2279 H   0  0  0  0  0  0  0  0  0  0  0  0
   -2.9117    2.1946   -0.7611 H   0  0  0  0  0  0  0  0  0  0  0  0
   -2.1347    1.4559    0.6770 H   0  0  0  0  0  0  0  0  0  0  0  0
   -4.0839    2.6043    1.5153 H   0  0  0  0  0  0  0  0  0  0  0  0
   -4.5355    0.8732    1.4751 H   0  0  0  0  0  0  0  0  0  0  0  0
   -6.1538    2.0651    0.5679 H   0  0  0  0  0  0  0  0  0  0  0  0
   -2.6195   -2.5287    0.1005 H   0  0  0  0  0  0  0  0  0  0  0  0
   -1.8018   -4.3492    1.5520 H   0  0  0  0  0  0  0  0  0  0  0  0
   -0.0270   -5.2004    2.6418 H   0  0  0  0  0  0  0  0  0  0  0  0
    2.1449   -2.6417    1.5679 H   0  0  0  0  0  0  0  0  0  0  0  0
  1  2  1  0
  2  3  1  0
  3  4  1  0
  4  5  2  0
  4  6  1  0
  6  7  2  0
  7  8  1  0
  7  9  1  0
  9 10  1  0
 10 11  1  0
 11 12  1  0
 12 13  1  0
 13 14  1  0
  9 15  1  0
 15 16  2  0
 16 17  1  0
 17 18  2  0
 18 19  1  0
 18 20  1  0
 20 21  2  0
 21  6  1  0
 21 15  1  0
  1 22  1  0
  1 23  1  0
  1 24  1  0
  2 25  1  0
  2 26  1  0
  8 27  1  0
  8 28  1  0
  8 29  1  0
 10 30  1  0
 10 31  1  0
 12 32  1  0
 12 33  1  0
 13 34  1  0
 13 35  1  0
 14 36  1  0
 16 37  1  0
 17 38  1  0
 19 39  1  0
 20 40  1  0
M  END
$$$$
