
     RDKit          3D

 54 56  0  0  0  0  0  0  0  0999 V2000
   -0.3928   -1.9942   -0.3189 O   0  0  0  0  0  0  0  0  0  0  0  0
   -0.2876   -1.2510    0.6500 C   0  0  0  0  0  0  0  0  0  0  0  0
   -1.3177   -0.4564    1.1111 N   0  0  0  0  0  0  0  0  0  0  0  0
   -2.6085   -0.4370    0.4466 C   0  0  0  0  0  0  0  0  0  0  0  0
   -2.6065    0.4932   -0.7607 C   0  0  0  0  0  0  0  0  0  0  0  0
   -3.8458    0.3745   -1.6604 C   0  0  0  0  0  0  0  0  0  0  0  0
   -5.1612    0.7689   -1.1525 N   0  0  0  0  0  0  0  0  0  0  0  0
   -5.8795   -0.2848   -0.4212 C   0  0  0  0  0  0  0  0  0  0  0  0
   -7.2971    0.1762   -0.0407 C   0  0  0  0  0  0  0  0  0  0  0  0
   -7.2603    1.3867    0.7288 O   0  0  0  0  0  0  0  0  0  0  0  0
   -6.6214    2.4257   -0.0264 C   0  0  0  0  0  0  0  0  0  0  0  0
   -5.1834    2.0321   -0.4024 C   0  0  0  0  0  0  0  0  0  0  0  0
    1.0144   -1.1379    1.3651 C   0  0  0  0  0  0  0  0  0  0  0  0
    1.0965   -0.7471    2.7101 C   0  0  0  0  0  0  0  0  0  0  0  0
    2.3401   -0.6514    3.3431 C   0  0  0  0  0  0  0  0  0  0  0  0
    3.5074   -0.9507    2.6415 C   0  0  0  0  0  0  0  0  0  0  0  0
    3.4210   -1.3562    1.3075 C   0  0  0  0  0  0  0  0  0  0  0  0
    4.8945   -1.7461    0.3993 S   0  0  0  0  0  6  0  0  0  0  0  0
    6.0382   -1.3029    1.1694 O   0  0  0  0  0  0  0  0  0  0  0  0
    4.7697   -3.1134   -0.0531 O   0  0  0  0  0  0  0  0  0  0  0  0
    4.7807   -0.7178   -0.9550 N   0  0  0  0  0  0  0  0  0  0  0  0
    4.9011    0.7505   -0.6748 C   0  0  0  0  0  0  0  0  0  0  0  0
    6.2600    1.2879   -1.1327 C   0  0  0  0  0  0  0  0  0  0  0  0
    6.4702    1.1442   -2.5446 O   0  0  0  0  0  0  0  0  0  0  0  0
    5.8208   -0.0087   -3.1011 C   0  0  0  0  0  0  0  0  0  0  0  0
    5.6545   -1.1507   -2.0948 C   0  0  0  0  0  0  0  0  0  0  0  0
    2.1832   -1.4591    0.6659 C   0  0  0  0  0  0  0  0  0  0  0  0
   -1.1235    0.2775    1.7775 H   0  0  0  0  0  0  0  0  0  0  0  0
   -3.3289   -0.1008    1.1968 H   0  0  0  0  0  0  0  0  0  0  0  0
   -2.8651   -1.4591    0.1475 H   0  0  0  0  0  0  0  0  0  0  0  0
   -1.7305    0.2701   -1.3843 H   0  0  0  0  0  0  0  0  0  0  0  0
   -2.4659    1.5298   -0.4306 H   0  0  0  0  0  0  0  0  0  0  0  0
   -3.8982   -0.6439   -2.0672 H   0  0  0  0  0  0  0  0  0  0  0  0
   -3.6540    1.0090   -2.5363 H   0  0  0  0  0  0  0  0  0  0  0  0
   -5.9602   -1.1876   -1.0369 H   0  0  0  0  0  0  0  0  0  0  0  0
   -5.3478   -0.5491    0.4973 H   0  0  0  0  0  0  0  0  0  0  0  0
   -7.9172    0.3327   -0.9318 H   0  0  0  0  0  0  0  0  0  0  0  0
   -7.7834   -0.5900    0.5716 H   0  0  0  0  0  0  0  0  0  0  0  0
   -6.6077    3.3257    0.5965 H   0  0  0  0  0  0  0  0  0  0  0  0
   -7.2205    2.6469   -0.9180 H   0  0  0  0  0  0  0  0  0  0  0  0
   -4.6017    1.9343    0.5220 H   0  0  0  0  0  0  0  0  0  0  0  0
   -4.7424    2.8367   -1.0015 H   0  0  0  0  0  0  0  0  0  0  0  0
    0.2010   -0.5447    3.2914 H   0  0  0  0  0  0  0  0  0  0  0  0
    2.3968   -0.3565    4.3889 H   0  0  0  0  0  0  0  0  0  0  0  0
    4.4714   -0.8814    3.1419 H   0  0  0  0  0  0  0  0  0  0  0  0
    4.0928    1.2490   -1.2231 H   0  0  0  0  0  0  0  0  0  0  0  0
    4.7519    0.9703    0.3865 H   0  0  0  0  0  0  0  0  0  0  0  0
    7.0788    0.7754   -0.6149 H   0  0  0  0  0  0  0  0  0  0  0  0
    6.3416    2.3540   -0.8986 H   0  0  0  0  0  0  0  0  0  0  0  0
    4.8458    0.3108   -3.4873 H   0  0  0  0  0  0  0  0  0  0  0  0
    6.4190   -0.3407   -3.9555 H   0  0  0  0  0  0  0  0  0  0  0  0
    6.6394   -1.4455   -1.7142 H   0  0  0  0  0  0  0  0  0  0  0  0
    5.1885   -2.0094   -2.5888 H   0  0  0  0  0  0  0  0  0  0  0  0
    2.1293   -1.7878   -0.3712 H   0  0  0  0  0  0  0  0  0  0  0  0
  1  2  2  0
  2  3  1  0
  3  4  1  0
  4  5  1  0
  5  6  1  0
  6  7  1  0
  7  8  1  0
  8  9  1  0
  9 10  1  0
 10 11  1  0
 11 12  1  0
  2 13  1  0
 13 14  2  0
 14 15  1  0
 15 16  2  0
 16 17  1  0
 17 18  1  0
 18 19  2  0
 18 20  2  0
 18 21  1  0
 21 22  1  0
 22 23  1  0
 23 24  1  0
 24 25  1  0
 25 26  1  0
 17 27  2  0
 12  7  1  0
 27 13  1  0
 26 21  1  0
  3 28  1  0
  4 29  1  0
  4 30  1  0
  5 31  1  0
  5 32  1  0
  6 33  1  0
  6 34  1  0
  8 35  1  0
  8 36  1  0
  9 37  1  0
  9 38  1  0
 11 39  1  0
 11 40  1  0
 12 41  1  0
 12 42  1  0
 14 43  1  0
 15 44  1  0
 16 45  1  0
 22 46  1  0
 22 47  1  0
 23 48  1  0
 23 49  1  0
 25 50  1  0
 25 51  1  0
 26 52  1  0
 26 53  1  0
 27 54  1  0
M  END
$$$$
