
     RDKit          3D

 55 57  0  0  0  0  0  0  0  0999 V2000
   -3.1230   -0.2551    2.8454 C   0  0  0  0  0  0  0  0  0  0  0  0
   -3.7693   -0.5181    1.4898 C   0  0  0  0  0  0  0  0  0  0  0  0
   -2.9034   -1.3338    0.4959 C   0  0  0  0  0  0  0  0  0  0  0  0
   -2.5050   -2.6920    1.1084 C   0  0  0  0  0  0  0  0  0  0  0  0
   -3.7345   -1.6344   -0.7687 C   0  0  0  0  0  0  0  0  0  0  0  0
   -1.6616   -0.6252    0.1442 N   0  0  0  0  0  0  0  0  0  0  0  0
   -1.5891    0.5626   -0.5563 C   0  0  0  0  0  0  0  0  0  0  0  0
   -2.5926    1.1660   -0.9402 O   0  0  0  0  0  0  0  0  0  0  0  0
   -0.1617    1.1487   -0.7978 C   0  0  0  0  0  0  0  0  0  0  0  0
    0.0837    2.4760   -0.0879 C   0  0  0  0  0  0  0  0  0  0  0  0
   -0.4347    2.7698    1.1825 C   0  0  0  0  0  0  0  0  0  0  0  0
   -0.1610    3.9942    1.7999 C   0  0  0  0  0  0  0  0  0  0  0  0
    0.6367    4.9413    1.1603 C   0  0  0  0  0  0  0  0  0  0  0  0
    1.1623    4.6636   -0.0985 C   0  0  0  0  0  0  0  0  0  0  0  0
    0.8853    3.4423   -0.7075 C   0  0  0  0  0  0  0  0  0  0  0  0
    1.4020    3.2039   -1.9219 F   0  0  0  0  0  0  0  0  0  0  0  0
    0.9780    0.2083   -0.6451 N   0  0  0  0  0  0  0  0  0  0  0  0
    1.3999   -0.1263    0.6503 C   0  0  0  0  0  0  0  0  0  0  0  0
    0.6103   -0.1345    1.5992 O   0  0  0  0  0  0  0  0  0  0  0  0
    2.8288   -0.4500    0.8616 C   0  0  0  0  0  0  0  0  0  0  0  0
    3.3832   -1.0309    2.0369 C   0  0  0  0  0  0  0  0  0  0  0  0
    4.7322   -1.1274    1.8012 C   0  0  0  0  0  0  0  0  0  0  0  0
    4.9285   -0.6094    0.5576 N   0  0  0  0  0  0  0  0  0  0  0  0
    3.8023   -0.1814   -0.0295 N   0  0  0  0  0  0  0  0  0  0  0  0
    1.3162   -0.6149   -1.7742 C   0  0  0  0  0  0  0  0  0  0  0  0
    1.5507   -1.9908   -1.6176 C   0  0  0  0  0  0  0  0  0  0  0  0
    1.8461   -2.8001   -2.7191 C   0  0  0  0  0  0  0  0  0  0  0  0
    1.9153   -2.2467   -3.9937 C   0  0  0  0  0  0  0  0  0  0  0  0
    1.6931   -0.8840   -4.1665 C   0  0  0  0  0  0  0  0  0  0  0  0
    1.3951   -0.0748   -3.0654 C   0  0  0  0  0  0  0  0  0  0  0  0
   -2.1469    0.2251    2.7432 H   0  0  0  0  0  0  0  0  0  0  0  0
   -3.7618    0.4068    3.4395 H   0  0  0  0  0  0  0  0  0  0  0  0
   -2.9955   -1.1809    3.4140 H   0  0  0  0  0  0  0  0  0  0  0  0
   -4.0371    0.4490    1.0479 H   0  0  0  0  0  0  0  0  0  0  0  0
   -4.7168   -1.0446    1.6643 H   0  0  0  0  0  0  0  0  0  0  0  0
   -1.9685   -3.3086    0.3771 H   0  0  0  0  0  0  0  0  0  0  0  0
   -3.3850   -3.2535    1.4410 H   0  0  0  0  0  0  0  0  0  0  0  0
   -1.8342   -2.5713    1.9661 H   0  0  0  0  0  0  0  0  0  0  0  0
   -4.1408   -0.7256   -1.2229 H   0  0  0  0  0  0  0  0  0  0  0  0
   -4.5860   -2.2840   -0.5352 H   0  0  0  0  0  0  0  0  0  0  0  0
   -3.1265   -2.1376   -1.5296 H   0  0  0  0  0  0  0  0  0  0  0  0
   -0.8807   -0.7724    0.7797 H   0  0  0  0  0  0  0  0  0  0  0  0
   -0.2308    1.4153   -1.8597 H   0  0  0  0  0  0  0  0  0  0  0  0
   -1.0545    2.0493    1.7107 H   0  0  0  0  0  0  0  0  0  0  0  0
   -0.5723    4.2058    2.7843 H   0  0  0  0  0  0  0  0  0  0  0  0
    0.8477    5.8921    1.6425 H   0  0  0  0  0  0  0  0  0  0  0  0
    1.7861    5.3885   -0.6114 H   0  0  0  0  0  0  0  0  0  0  0  0
    2.8505   -1.3308    2.9291 H   0  0  0  0  0  0  0  0  0  0  0  0
    5.5519   -1.5020    2.3973 H   0  0  0  0  0  0  0  0  0  0  0  0
    5.8012   -0.5096    0.0489 H   0  0  0  0  0  0  0  0  0  0  0  0
    1.4805   -2.4685   -0.6446 H   0  0  0  0  0  0  0  0  0  0  0  0
    2.0180   -3.8640   -2.5787 H   0  0  0  0  0  0  0  0  0  0  0  0
    2.1474   -2.8742   -4.8500 H   0  0  0  0  0  0  0  0  0  0  0  0
    1.7618   -0.4428   -5.1576 H   0  0  0  0  0  0  0  0  0  0  0  0
    1.2785    0.9915   -3.2395 H   0  0  0  0  0  0  0  0  0  0  0  0
  1  2  1  0
  2  3  1  0
  3  4  1  0
  3  5  1  0
  3  6  1  0
  6  7  1  0
  7  8  2  0
  7  9  1  0
  9 10  1  0
 10 11  2  0
 11 12  1  0
 12 13  2  0
 13 14  1  0
 14 15  2  0
 15 16  1  0
  9 17  1  0
 17 18  1  0
 18 19  2  0
 18 20  1  0
 20 21  1  0
 21 22  2  0
 22 23  1  0
 23 24  1  0
 17 25  1  0
 25 26  2  0
 26 27  1  0
 27 28  2  0
 28 29  1  0
 29 30  2  0
 15 10  1  0
 24 20  2  0
 30 25  1  0
  1 31  1  0
  1 32  1  0
  1 33  1  0
  2 34  1  0
  2 35  1  0
  4 36  1  0
  4 37  1  0
  4 38  1  0
  5 39  1  0
  5 40  1  0
  5 41  1  0
  6 42  1  0
  9 43  1  0
 11 44  1  0
 12 45  1  0
 13 46  1  0
 14 47  1  0
 21 48  1  0
 22 49  1  0
 23 50  1  0
 26 51  1  0
 27 52  1  0
 28 53  1  0
 29 54  1  0
 30 55  1  0
M  END
$$$$
