
     RDKit          3D

 43 45  0  0  0  0  0  0  0  0999 V2000
    3.6896    1.0599   -2.3108 O   0  0  0  0  0  0  0  0  0  0  0  0
    3.2008    0.6706   -1.2471 C   0  0  0  0  0  0  0  0  0  0  0  0
    4.0914    0.3615   -0.0195 C   0  0  0  0  0  0  0  0  0  0  0  0
    3.9078    1.4147    1.0721 C   0  0  0  0  0  0  0  0  0  0  0  0
    5.3154    1.7080    1.5310 C   0  0  0  0  0  0  0  0  0  0  0  0
    6.1092    1.4777    0.2703 C   0  0  0  0  0  0  0  0  0  0  0  0
    5.4924    0.3464   -0.3469 O   0  0  0  0  0  0  0  0  0  0  0  0
    1.8232    0.5235   -1.1064 N   0  0  0  0  0  0  0  0  0  0  0  0
    1.1422   -0.0375    0.0636 C   0  0  0  0  0  0  0  0  0  0  0  0
   -0.2070   -0.6850   -0.2877 C   0  0  0  0  0  0  0  0  0  0  0  0
   -1.1169    0.2268   -1.0061 N   0  0  0  0  0  0  0  0  0  0  0  0
   -2.5139    0.2063   -0.8046 C   0  0  0  0  0  0  0  0  0  0  0  0
   -3.5151    1.5007   -1.1905 S   0  0  0  0  0  0  0  0  0  0  0  0
   -2.9487   -1.0211   -0.3185 N   0  0  0  0  0  0  0  0  0  0  0  0
   -4.1365   -1.3840    0.3528 C   0  0  0  0  0  0  0  0  0  0  0  0
   -4.9026   -0.4965    1.1144 C   0  0  0  0  0  0  0  0  0  0  0  0
   -6.0472   -0.9420    1.7835 C   0  0  0  0  0  0  0  0  0  0  0  0
   -6.4144   -2.2782    1.7040 C   0  0  0  0  0  0  0  0  0  0  0  0
   -7.5079   -2.7044    2.3486 F   0  0  0  0  0  0  0  0  0  0  0  0
   -5.6529   -3.1815    0.9755 C   0  0  0  0  0  0  0  0  0  0  0  0
   -4.5093   -2.7359    0.3079 C   0  0  0  0  0  0  0  0  0  0  0  0
   -0.4532    1.2890   -1.7921 C   0  0  0  0  0  0  0  0  0  0  0  0
    0.9671    0.9116   -2.2317 C   0  0  0  0  0  0  0  0  0  0  0  0
    3.8653   -0.6447    0.3441 H   0  0  0  0  0  0  0  0  0  0  0  0
    3.2733    1.0597    1.8899 H   0  0  0  0  0  0  0  0  0  0  0  0
    3.4447    2.3255    0.6736 H   0  0  0  0  0  0  0  0  0  0  0  0
    5.4410    2.7127    1.9423 H   0  0  0  0  0  0  0  0  0  0  0  0
    5.6088    0.9802    2.2966 H   0  0  0  0  0  0  0  0  0  0  0  0
    6.0392    2.3300   -0.4145 H   0  0  0  0  0  0  0  0  0  0  0  0
    7.1635    1.2651    0.4660 H   0  0  0  0  0  0  0  0  0  0  0  0
    0.9817    0.7929    0.7611 H   0  0  0  0  0  0  0  0  0  0  0  0
    1.7774   -0.7758    0.5578 H   0  0  0  0  0  0  0  0  0  0  0  0
   -0.0448   -1.5466   -0.9465 H   0  0  0  0  0  0  0  0  0  0  0  0
   -0.6786   -1.0441    0.6329 H   0  0  0  0  0  0  0  0  0  0  0  0
   -2.4234   -1.7969   -0.6996 H   0  0  0  0  0  0  0  0  0  0  0  0
   -4.6179    0.5436    1.2345 H   0  0  0  0  0  0  0  0  0  0  0  0
   -6.6456   -0.2531    2.3712 H   0  0  0  0  0  0  0  0  0  0  0  0
   -5.9524   -4.2236    0.9314 H   0  0  0  0  0  0  0  0  0  0  0  0
   -3.9260   -3.4566   -0.2594 H   0  0  0  0  0  0  0  0  0  0  0  0
   -0.4173    2.1830   -1.1574 H   0  0  0  0  0  0  0  0  0  0  0  0
   -1.0539    1.5192   -2.6780 H   0  0  0  0  0  0  0  0  0  0  0  0
    0.9329    0.0515   -2.9115 H   0  0  0  0  0  0  0  0  0  0  0  0
    1.4188    1.7478   -2.7764 H   0  0  0  0  0  0  0  0  0  0  0  0
  1  2  2  0
  2  3  1  0
  3  4  1  0
  4  5  1  0
  5  6  1  0
  6  7  1  0
  2  8  1  0
  8  9  1  0
  9 10  1  0
 10 11  1  0
 11 12  1  0
 12 13  2  0
 12 14  1  0
 14 15  1  0
 15 16  2  0
 16 17  1  0
 17 18  2  0
 18 19  1  0
 18 20  1  0
 20 21  2  0
 11 22  1  0
 22 23  1  0
  7  3  1  0
 23  8  1  0
 21 15  1  0
  3 24  1  0
  4 25  1  0
  4 26  1  0
  5 27  1  0
  5 28  1  0
  6 29  1  0
  6 30  1  0
  9 31  1  0
  9 32  1  0
 10 33  1  0
 10 34  1  0
 14 35  1  0
 16 36  1  0
 17 37  1  0
 20 38  1  0
 21 39  1  0
 22 40  1  0
 22 41  1  0
 23 42  1  0
 23 43  1  0
M  END
$$$$
