
     RDKit          3D

 45 47  0  0  0  0  0  0  0  0999 V2000
   -4.1561   -2.2014    3.5401 C   0  0  0  0  0  0  0  0  0  0  0  0
   -3.5217   -1.7182    2.3617 O   0  0  0  0  0  0  0  0  0  0  0  0
   -4.3337   -1.1425    1.4091 C   0  0  0  0  0  0  0  0  0  0  0  0
   -5.7239   -1.0284    1.5057 C   0  0  0  0  0  0  0  0  0  0  0  0
   -6.4495   -0.4237    0.4775 C   0  0  0  0  0  0  0  0  0  0  0  0
   -5.7918    0.0680   -0.6468 C   0  0  0  0  0  0  0  0  0  0  0  0
   -4.4038   -0.0420   -0.7531 C   0  0  0  0  0  0  0  0  0  0  0  0
   -3.6668   -0.6466    0.2666 C   0  0  0  0  0  0  0  0  0  0  0  0
   -2.2615   -0.7942    0.2378 N   0  0  0  0  0  0  0  0  0  0  0  0
   -1.3795   -0.4294   -0.7602 C   0  0  0  0  0  0  0  0  0  0  0  0
   -1.6830    0.0569   -1.8443 O   0  0  0  0  0  0  0  0  0  0  0  0
    0.0753   -0.7403   -0.3971 C   0  0  0  0  0  0  0  0  0  0  0  0
    1.0114   -0.4614   -1.5796 C   0  0  0  0  0  0  0  0  0  0  0  0
    2.4694   -0.7177   -1.2228 C   0  0  0  0  0  0  0  0  0  0  0  0
    2.8822   -0.0068    0.0119 N   0  0  0  0  0  0  0  0  0  0  0  0
    3.4566    1.5915   -0.1568 S   0  0  0  0  0  6  0  0  0  0  0  0
    2.5050    2.3253   -0.9602 O   0  0  0  0  0  0  0  0  0  0  0  0
    3.8753    2.0544    1.1490 O   0  0  0  0  0  0  0  0  0  0  0  0
    4.9679    1.5013   -1.0949 C   0  0  0  0  0  0  0  0  0  0  0  0
    5.8970    0.4896   -1.2552 C   0  0  0  0  0  0  0  0  0  0  0  0
    6.9772    0.8739   -2.1012 C   0  0  0  0  0  0  0  0  0  0  0  0
    6.8430    2.1701   -2.5470 C   0  0  0  0  0  0  0  0  0  0  0  0
    5.4266    2.9151   -1.9409 S   0  0  0  0  0  0  0  0  0  0  0  0
    1.9859   -0.2569    1.1627 C   0  0  0  0  0  0  0  0  0  0  0  0
    0.5367    0.0642    0.8240 C   0  0  0  0  0  0  0  0  0  0  0  0
   -3.3786   -2.6099    4.1930 H   0  0  0  0  0  0  0  0  0  0  0  0
   -4.8544   -3.0121    3.3079 H   0  0  0  0  0  0  0  0  0  0  0  0
   -4.6531   -1.3905    4.0826 H   0  0  0  0  0  0  0  0  0  0  0  0
   -6.2744   -1.3975    2.3640 H   0  0  0  0  0  0  0  0  0  0  0  0
   -7.5305   -0.3345    0.5539 H   0  0  0  0  0  0  0  0  0  0  0  0
   -6.3565    0.5413   -1.4465 H   0  0  0  0  0  0  0  0  0  0  0  0
   -3.9272    0.3573   -1.6426 H   0  0  0  0  0  0  0  0  0  0  0  0
   -1.8968   -1.2546    1.0651 H   0  0  0  0  0  0  0  0  0  0  0  0
    0.1247   -1.8133   -0.1647 H   0  0  0  0  0  0  0  0  0  0  0  0
    0.8869    0.5739   -1.9184 H   0  0  0  0  0  0  0  0  0  0  0  0
    0.7335   -1.0942   -2.4317 H   0  0  0  0  0  0  0  0  0  0  0  0
    3.1139   -0.4423   -2.0636 H   0  0  0  0  0  0  0  0  0  0  0  0
    2.6299   -1.7908   -1.0596 H   0  0  0  0  0  0  0  0  0  0  0  0
    5.7990   -0.4786   -0.7791 H   0  0  0  0  0  0  0  0  0  0  0  0
    7.8132    0.2368   -2.3640 H   0  0  0  0  0  0  0  0  0  0  0  0
    7.5113    2.7223   -3.1940 H   0  0  0  0  0  0  0  0  0  0  0  0
    2.0813   -1.3134    1.4435 H   0  0  0  0  0  0  0  0  0  0  0  0
    2.3059    0.3122    2.0413 H   0  0  0  0  0  0  0  0  0  0  0  0
    0.4195    1.1377    0.6295 H   0  0  0  0  0  0  0  0  0  0  0  0
   -0.0859   -0.1602    1.6973 H   0  0  0  0  0  0  0  0  0  0  0  0
  1  2  1  0
  2  3  1  0
  3  4  2  0
  4  5  1  0
  5  6  2  0
  6  7  1  0
  7  8  2  0
  8  9  1  0
  9 10  1  0
 10 11  2  0
 10 12  1  0
 12 13  1  0
 13 14  1  0
 14 15  1  0
 15 16  1  0
 16 17  2  0
 16 18  2  0
 16 19  1  0
 19 20  2  0
 20 21  1  0
 21 22  2  0
 22 23  1  0
 15 24  1  0
 24 25  1  0
  8  3  1  0
 25 12  1  0
 23 19  1  0
  1 26  1  0
  1 27  1  0
  1 28  1  0
  4 29  1  0
  5 30  1  0
  6 31  1  0
  7 32  1  0
  9 33  1  0
 12 34  1  0
 13 35  1  0
 13 36  1  0
 14 37  1  0
 14 38  1  0
 20 39  1  0
 21 40  1  0
 22 41  1  0
 24 42  1  0
 24 43  1  0
 25 44  1  0
 25 45  1  0
M  END
$$$$
