
     RDKit          3D

 43 45  0  0  0  0  0  0  0  0999 V2000
   -2.3658    4.5534    1.3478 C   0  0  0  0  0  0  0  0  0  0  0  0
   -2.0023    3.6227    0.3264 O   0  0  0  0  0  0  0  0  0  0  0  0
   -1.5785    2.4138    0.7990 C   0  0  0  0  0  0  0  0  0  0  0  0
   -1.4610    2.1323    1.9843 O   0  0  0  0  0  0  0  0  0  0  0  0
   -1.2317    1.5132   -0.3573 C   0  0  0  0  0  0  0  0  0  0  0  0
   -1.0302    0.1344    0.0561 N   0  0  0  0  0  0  0  0  0  0  0  0
    0.1618   -0.4547    0.4438 C   0  0  0  0  0  0  0  0  0  0  0  0
    1.4608    0.2874    0.5862 C   0  0  0  0  0  0  0  0  0  0  0  0
    2.0324    0.6773   -0.7157 N   0  0  0  0  0  0  0  0  0  0  0  0
    3.2259    1.5362   -0.5404 C   0  0  0  0  0  0  0  0  0  0  0  0
    4.5566    0.7798   -0.6730 C   0  0  0  0  0  0  0  0  0  0  0  0
    4.7176    0.1565   -1.9532 O   0  0  0  0  0  0  0  0  0  0  0  0
    3.4728   -0.2242   -2.5558 C   0  0  0  0  0  0  0  0  0  0  0  0
    2.3778   -0.5230   -1.5208 C   0  0  0  0  0  0  0  0  0  0  0  0
   -0.0065   -1.7498    0.6728 N   0  0  0  0  0  0  0  0  0  0  0  0
   -1.3309   -1.9755    0.4740 C   0  0  0  0  0  0  0  0  0  0  0  0
   -1.9901   -0.8405    0.1042 C   0  0  0  0  0  0  0  0  0  0  0  0
   -3.3898   -0.8164   -0.1393 C   0  0  0  0  0  0  0  0  0  0  0  0
   -4.0311    0.1795   -0.4539 O   0  0  0  0  0  0  0  0  0  0  0  0
   -3.9737   -2.0527    0.0194 N   0  0  0  0  0  0  0  0  0  0  0  0
   -3.3529   -3.2317    0.3911 C   0  0  0  0  0  0  0  0  0  0  0  0
   -4.0336   -4.2520    0.4986 O   0  0  0  0  0  0  0  0  0  0  0  0
   -1.9822   -3.1813    0.6206 N   0  0  0  0  0  0  0  0  0  0  0  0
   -1.2536   -4.3677    1.0240 C   0  0  0  0  0  0  0  0  0  0  0  0
   -1.4982    4.7965    1.9689 H   0  0  0  0  0  0  0  0  0  0  0  0
   -3.1818    4.1542    1.9584 H   0  0  0  0  0  0  0  0  0  0  0  0
   -2.7128    5.4699    0.8627 H   0  0  0  0  0  0  0  0  0  0  0  0
   -0.3199    1.8764   -0.8357 H   0  0  0  0  0  0  0  0  0  0  0  0
   -2.0339    1.5285   -1.1003 H   0  0  0  0  0  0  0  0  0  0  0  0
    2.1693   -0.3248    1.1591 H   0  0  0  0  0  0  0  0  0  0  0  0
    1.2657    1.1837    1.1887 H   0  0  0  0  0  0  0  0  0  0  0  0
    3.1960    2.0834    0.4092 H   0  0  0  0  0  0  0  0  0  0  0  0
    3.1845    2.2965   -1.3308 H   0  0  0  0  0  0  0  0  0  0  0  0
    5.3956    1.4702   -0.5388 H   0  0  0  0  0  0  0  0  0  0  0  0
    4.6450    0.0072    0.0995 H   0  0  0  0  0  0  0  0  0  0  0  0
    3.6640   -1.1110   -3.1686 H   0  0  0  0  0  0  0  0  0  0  0  0
    3.1605    0.5784   -3.2343 H   0  0  0  0  0  0  0  0  0  0  0  0
    2.7409   -1.3315   -0.8723 H   0  0  0  0  0  0  0  0  0  0  0  0
    1.4810   -0.8799   -2.0390 H   0  0  0  0  0  0  0  0  0  0  0  0
   -4.9683   -2.1082   -0.1318 H   0  0  0  0  0  0  0  0  0  0  0  0
   -0.4586   -4.5644    0.2980 H   0  0  0  0  0  0  0  0  0  0  0  0
   -0.8148   -4.1982    2.0123 H   0  0  0  0  0  0  0  0  0  0  0  0
   -1.9058   -5.2437    1.0755 H   0  0  0  0  0  0  0  0  0  0  0  0
  1  2  1  0
  2  3  1  0
  3  4  2  0
  3  5  1  0
  5  6  1  0
  6  7  1  0
  7  8  1  0
  8  9  1  0
  9 10  1  0
 10 11  1  0
 11 12  1  0
 12 13  1  0
 13 14  1  0
  7 15  2  0
 15 16  1  0
 16 17  2  0
 17 18  1  0
 18 19  2  0
 18 20  1  0
 20 21  1  0
 21 22  2  0
 21 23  1  0
 23 24  1  0
 17  6  1  0
 14  9  1  0
 23 16  1  0
  1 25  1  0
  1 26  1  0
  1 27  1  0
  5 28  1  0
  5 29  1  0
  8 30  1  0
  8 31  1  0
 10 32  1  0
 10 33  1  0
 11 34  1  0
 11 35  1  0
 13 36  1  0
 13 37  1  0
 14 38  1  0
 14 39  1  0
 20 40  1  0
 24 41  1  0
 24 42  1  0
 24 43  1  0
M  END
$$$$
