
     RDKit          3D

 50 54  0  0  0  0  0  0  0  0999 V2000
    6.9625    2.0186   -1.7118 F   0  0  0  0  0  0  0  0  0  0  0  0
    5.8295    1.8317   -1.0224 C   0  0  0  0  0  0  0  0  0  0  0  0
    5.8233    0.9644    0.0625 C   0  0  0  0  0  0  0  0  0  0  0  0
    4.6424    0.7710    0.7800 C   0  0  0  0  0  0  0  0  0  0  0  0
    3.4630    1.4391    0.4078 C   0  0  0  0  0  0  0  0  0  0  0  0
    2.1834    1.2473    1.1986 C   0  0  0  0  0  0  0  0  0  0  0  0
    1.8290   -0.1654    1.4104 N   0  0  0  0  0  0  0  0  0  0  0  0
    1.4201   -0.8481    0.1600 C   0  0  0  0  0  0  0  0  0  0  0  0
   -0.0892   -0.7762   -0.1708 C   0  0  0  0  0  0  0  0  0  0  0  0
   -0.9327   -1.2560    0.9486 N   0  0  0  0  0  0  0  0  0  0  0  0
   -1.7771   -2.3172    0.5959 C   0  0  0  0  0  0  0  0  0  0  0  0
   -1.5553   -3.5361    1.1513 N   0  0  0  0  0  0  0  0  0  0  0  0
   -2.3139   -4.5786    0.7906 C   0  0  0  0  0  0  0  0  0  0  0  0
   -3.3187   -4.5828   -0.0806 N   0  0  0  0  0  0  0  0  0  0  0  0
   -3.5573   -3.3624   -0.5865 C   0  0  0  0  0  0  0  0  0  0  0  0
   -4.8258   -3.1570   -1.7038 S   0  0  0  0  0  0  0  0  0  0  0  0
   -4.5388   -1.4811   -1.8062 C   0  0  0  0  0  0  0  0  0  0  0  0
   -3.4778   -1.0749   -1.0162 C   0  0  0  0  0  0  0  0  0  0  0  0
   -3.1477    0.3446   -0.9483 C   0  0  0  0  0  0  0  0  0  0  0  0
   -2.7918    1.0482   -2.1075 C   0  0  0  0  0  0  0  0  0  0  0  0
   -2.4836    2.4085   -2.0387 C   0  0  0  0  0  0  0  0  0  0  0  0
   -2.5298    3.0731   -0.8141 C   0  0  0  0  0  0  0  0  0  0  0  0
   -2.8856    2.3807    0.3426 C   0  0  0  0  0  0  0  0  0  0  0  0
   -3.1968    1.0212    0.2764 C   0  0  0  0  0  0  0  0  0  0  0  0
   -2.8698   -2.1876   -0.3049 C   0  0  0  0  0  0  0  0  0  0  0  0
   -0.2069   -1.4491    2.2194 C   0  0  0  0  0  0  0  0  0  0  0  0
    0.7622   -0.2672    2.4389 C   0  0  0  0  0  0  0  0  0  0  0  0
    3.4951    2.3178   -0.6870 C   0  0  0  0  0  0  0  0  0  0  0  0
    4.6778    2.5106   -1.4030 C   0  0  0  0  0  0  0  0  0  0  0  0
    6.7333    0.4447    0.3430 H   0  0  0  0  0  0  0  0  0  0  0  0
    4.6350    0.0898    1.6286 H   0  0  0  0  0  0  0  0  0  0  0  0
    2.3498    1.7357    2.1684 H   0  0  0  0  0  0  0  0  0  0  0  0
    1.3548    1.7821    0.7160 H   0  0  0  0  0  0  0  0  0  0  0  0
    1.6958   -1.9060    0.2665 H   0  0  0  0  0  0  0  0  0  0  0  0
    1.9956   -0.4930   -0.7025 H   0  0  0  0  0  0  0  0  0  0  0  0
   -0.2671   -1.3376   -1.0971 H   0  0  0  0  0  0  0  0  0  0  0  0
   -0.3439    0.2693   -0.3713 H   0  0  0  0  0  0  0  0  0  0  0  0
   -2.0778   -5.5284    1.2603 H   0  0  0  0  0  0  0  0  0  0  0  0
   -5.1772   -0.8686   -2.4299 H   0  0  0  0  0  0  0  0  0  0  0  0
   -2.7464    0.5425   -3.0692 H   0  0  0  0  0  0  0  0  0  0  0  0
   -2.2092    2.9497   -2.9408 H   0  0  0  0  0  0  0  0  0  0  0  0
   -2.2908    4.1327   -0.7612 H   0  0  0  0  0  0  0  0  0  0  0  0
   -2.9222    2.8977    1.2981 H   0  0  0  0  0  0  0  0  0  0  0  0
   -3.4679    0.4917    1.1875 H   0  0  0  0  0  0  0  0  0  0  0  0
   -0.9236   -1.4795    3.0490 H   0  0  0  0  0  0  0  0  0  0  0  0
    0.3655   -2.3860    2.2307 H   0  0  0  0  0  0  0  0  0  0  0  0
    0.1592    0.6516    2.4634 H   0  0  0  0  0  0  0  0  0  0  0  0
    1.2395   -0.3664    3.4203 H   0  0  0  0  0  0  0  0  0  0  0  0
    2.5991    2.8555   -0.9889 H   0  0  0  0  0  0  0  0  0  0  0  0
    4.7089    3.1853   -2.2520 H   0  0  0  0  0  0  0  0  0  0  0  0
  1  2  1  0
  2  3  2  0
  3  4  1  0
  4  5  2  0
  5  6  1  0
  6  7  1  0
  7  8  1  0
  8  9  1  0
  9 10  1  0
 10 11  1  0
 11 12  2  0
 12 13  1  0
 13 14  2  0
 14 15  1  0
 15 16  1  0
 16 17  1  0
 17 18  2  0
 18 19  1  0
 19 20  2  0
 20 21  1  0
 21 22  2  0
 22 23  1  0
 23 24  2  0
 18 25  1  0
 10 26  1  0
 26 27  1  0
  5 28  1  0
 28 29  2  0
 29  2  1  0
 27  7  1  0
 25 11  1  0
 25 15  2  0
 24 19  1  0
  3 30  1  0
  4 31  1  0
  6 32  1  0
  6 33  1  0
  8 34  1  0
  8 35  1  0
  9 36  1  0
  9 37  1  0
 13 38  1  0
 17 39  1  0
 20 40  1  0
 21 41  1  0
 22 42  1  0
 23 43  1  0
 24 44  1  0
 26 45  1  0
 26 46  1  0
 27 47  1  0
 27 48  1  0
 28 49  1  0
 29 50  1  0
M  END
$$$$
