
     RDKit          3D

 38 39  0  0  0  0  0  0  0  0999 V2000
   -0.9277    1.9262    0.8216 O   0  0  0  0  0  0  0  0  0  0  0  0
   -0.3797    1.0244    0.2099 C   0  0  0  0  0  0  0  0  0  0  0  0
   -0.3068    0.8951   -1.1569 N   0  0  0  0  0  0  0  0  0  0  0  0
   -0.7799    1.9591   -2.0303 C   0  0  0  0  0  0  0  0  0  0  0  0
   -2.3056    1.9774   -2.1317 C   0  0  0  0  0  0  0  0  0  0  0  0
   -2.7722    0.7473   -2.6880 O   0  0  0  0  0  0  0  0  0  0  0  0
    0.2403   -0.1174    0.9933 C   0  0  0  0  0  0  0  0  0  0  0  0
   -0.7574   -1.0113    1.6926 C   0  0  0  0  0  0  0  0  0  0  0  0
   -1.5541   -1.8328    0.7077 C   0  0  0  0  0  0  0  0  0  0  0  0
   -0.9850   -2.9700    0.1171 C   0  0  0  0  0  0  0  0  0  0  0  0
   -1.6984   -3.7034   -0.8315 C   0  0  0  0  0  0  0  0  0  0  0  0
   -2.9813   -3.3005   -1.1959 C   0  0  0  0  0  0  0  0  0  0  0  0
   -3.9419   -4.2878   -2.4878 Br  0  0  0  0  0  0  0  0  0  0  0  0
   -3.5591   -2.1728   -0.6180 C   0  0  0  0  0  0  0  0  0  0  0  0
   -2.8475   -1.4400    0.3329 C   0  0  0  0  0  0  0  0  0  0  0  0
    1.5128   -0.3565    1.1038 N   0  0  0  0  0  0  0  0  0  0  0  0
    2.3955    0.4568    0.4425 C   0  0  0  0  0  0  0  0  0  0  0  0
    2.3320    0.6623   -0.7659 O   0  0  0  0  0  0  0  0  0  0  0  0
    3.4497    0.9975    1.2928 C   0  0  0  0  0  0  0  0  0  0  0  0
    4.4656    1.8512    0.8954 C   0  0  0  0  0  0  0  0  0  0  0  0
    5.3562    2.1848    1.9579 C   0  0  0  0  0  0  0  0  0  0  0  0
    4.9918    1.5812    3.1392 C   0  0  0  0  0  0  0  0  0  0  0  0
    3.5825    0.6310    2.9647 S   0  0  0  0  0  0  0  0  0  0  0  0
    0.4652    0.3255   -1.5003 H   0  0  0  0  0  0  0  0  0  0  0  0
   -0.4062    2.9164   -1.6559 H   0  0  0  0  0  0  0  0  0  0  0  0
   -0.3444    1.7637   -3.0158 H   0  0  0  0  0  0  0  0  0  0  0  0
   -2.6324    2.7881   -2.7870 H   0  0  0  0  0  0  0  0  0  0  0  0
   -2.7801    2.1098   -1.1547 H   0  0  0  0  0  0  0  0  0  0  0  0
   -2.3534    0.0385   -2.1645 H   0  0  0  0  0  0  0  0  0  0  0  0
   -1.4211   -0.3887    2.3056 H   0  0  0  0  0  0  0  0  0  0  0  0
   -0.2316   -1.6768    2.3909 H   0  0  0  0  0  0  0  0  0  0  0  0
    0.0212   -3.2883    0.3922 H   0  0  0  0  0  0  0  0  0  0  0  0
   -1.2464   -4.5832   -1.2796 H   0  0  0  0  0  0  0  0  0  0  0  0
   -4.5588   -1.8543   -0.9062 H   0  0  0  0  0  0  0  0  0  0  0  0
   -3.3092   -0.5561    0.7721 H   0  0  0  0  0  0  0  0  0  0  0  0
    4.5657    2.2139   -0.1219 H   0  0  0  0  0  0  0  0  0  0  0  0
    6.2192    2.8348    1.8593 H   0  0  0  0  0  0  0  0  0  0  0  0
    5.4824    1.6552    4.1005 H   0  0  0  0  0  0  0  0  0  0  0  0
  1  2  2  0
  2  3  1  0
  3  4  1  0
  4  5  1  0
  5  6  1  0
  2  7  1  0
  7  8  1  0
  8  9  1  0
  9 10  2  0
 10 11  1  0
 11 12  2  0
 12 13  1  0
 12 14  1  0
 14 15  2  0
  7 16  2  3
 16 17  1  0
 17 18  2  0
 17 19  1  0
 19 20  2  0
 20 21  1  0
 21 22  2  0
 22 23  1  0
 15  9  1  0
 23 19  1  0
  3 24  1  0
  4 25  1  0
  4 26  1  0
  5 27  1  0
  5 28  1  0
  6 29  1  0
  8 30  1  0
  8 31  1  0
 10 32  1  0
 11 33  1  0
 14 34  1  0
 15 35  1  0
 20 36  1  0
 21 37  1  0
 22 38  1  0
M  END
$$$$
