
     RDKit          3D

 72 74  0  0  0  0  0  0  0  0999 V2000
    9.7005   -0.1574   -3.9047 C   0  0  0  0  0  0  0  0  0  0  0  0
    8.8829    1.0223   -3.4016 C   0  0  0  0  0  0  0  0  0  0  0  0
    8.9274    1.1935   -1.8812 C   0  0  0  0  0  0  0  0  0  0  0  0
    8.4199    0.0002   -1.0636 C   0  0  0  0  0  0  0  0  0  0  0  0
    6.9966   -0.4666   -1.3813 C   0  0  0  0  0  0  0  0  0  0  0  0
    5.9301    0.5972   -1.1050 C   0  0  0  0  0  0  0  0  0  0  0  0
    4.5254    0.0380   -1.3478 C   0  0  0  0  0  0  0  0  0  0  0  0
    3.4460    1.0638   -0.9971 C   0  0  0  0  0  0  0  0  0  0  0  0
    2.0288    0.5968   -1.3331 C   0  0  0  0  0  0  0  0  0  0  0  0
    1.6164   -0.6854   -0.6160 C   0  0  0  0  0  0  0  0  0  0  0  0
    0.2311   -0.9657   -0.8965 O   0  0  0  0  0  0  0  0  0  0  0  0
   -0.6671   -0.5466    0.0322 C   0  0  0  0  0  0  0  0  0  0  0  0
   -0.4049    0.0770    1.0548 O   0  0  0  0  0  0  0  0  0  0  0  0
   -2.0843   -0.9098   -0.3899 C   0  0  0  0  0  0  0  0  0  0  0  0
   -2.9514   -1.1657    0.7845 N   0  0  0  0  0  0  0  0  0  0  0  0
   -3.3067   -0.2349    1.7097 C   0  0  0  0  0  0  0  0  0  0  0  0
   -3.0581    1.2678    1.6566 C   0  0  0  0  0  0  0  0  0  0  0  0
   -4.1824    2.0422    2.0660 O   0  0  0  0  0  0  0  0  0  0  0  0
   -5.3092    1.9849    1.2937 C   0  0  0  0  0  0  0  0  0  0  0  0
   -5.3633    1.6123   -0.0483 C   0  0  0  0  0  0  0  0  0  0  0  0
   -6.5926    1.5707   -0.7105 C   0  0  0  0  0  0  0  0  0  0  0  0
   -7.7667    1.9141   -0.0401 C   0  0  0  0  0  0  0  0  0  0  0  0
   -7.7212    2.3289    1.2936 C   0  0  0  0  0  0  0  0  0  0  0  0
   -8.9835    2.6875    2.0213 C   0  0  0  0  0  0  0  0  0  0  0  0
   -6.4860    2.3565    1.9523 C   0  0  0  0  0  0  0  0  0  0  0  0
   -3.9282   -0.9000    2.7133 N   0  0  0  0  0  4  0  0  0  0  0  0
   -4.3870   -0.2844    3.9577 C   0  0  0  0  0  0  0  0  0  0  0  0
   -4.1083   -2.2322    2.3698 C   0  0  0  0  0  0  0  0  0  0  0  0
   -4.7513   -3.2756    3.0321 C   0  0  0  0  0  0  0  0  0  0  0  0
   -4.7249   -4.5225    2.3941 C   0  0  0  0  0  0  0  0  0  0  0  0
   -4.0803   -4.7047    1.1569 C   0  0  0  0  0  0  0  0  0  0  0  0
   -3.4348   -3.6486    0.4994 C   0  0  0  0  0  0  0  0  0  0  0  0
   -3.4735   -2.4089    1.1382 C   0  0  0  0  0  0  0  0  0  0  0  0
    9.2891   -1.1108   -3.5568 H   0  0  0  0  0  0  0  0  0  0  0  0
   10.7411   -0.0846   -3.5710 H   0  0  0  0  0  0  0  0  0  0  0  0
    9.6956   -0.1762   -4.9999 H   0  0  0  0  0  0  0  0  0  0  0  0
    9.2724    1.9391   -3.8622 H   0  0  0  0  0  0  0  0  0  0  0  0
    7.8465    0.9216   -3.7439 H   0  0  0  0  0  0  0  0  0  0  0  0
    9.9633    1.3972   -1.5800 H   0  0  0  0  0  0  0  0  0  0  0  0
    8.3556    2.0911   -1.6125 H   0  0  0  0  0  0  0  0  0  0  0  0
    8.4794    0.2630    0.0005 H   0  0  0  0  0  0  0  0  0  0  0  0
    9.1019   -0.8487   -1.2004 H   0  0  0  0  0  0  0  0  0  0  0  0
    6.9301   -0.8002   -2.4238 H   0  0  0  0  0  0  0  0  0  0  0  0
    6.7868   -1.3500   -0.7633 H   0  0  0  0  0  0  0  0  0  0  0  0
    6.0866    1.4691   -1.7506 H   0  0  0  0  0  0  0  0  0  0  0  0
    6.0175    0.9410   -0.0665 H   0  0  0  0  0  0  0  0  0  0  0  0
    4.3901   -0.8642   -0.7400 H   0  0  0  0  0  0  0  0  0  0  0  0
    4.4248   -0.2594   -2.3989 H   0  0  0  0  0  0  0  0  0  0  0  0
    3.5035    1.3051    0.0713 H   0  0  0  0  0  0  0  0  0  0  0  0
    3.6397    1.9961   -1.5422 H   0  0  0  0  0  0  0  0  0  0  0  0
    1.3237    1.3986   -1.0798 H   0  0  0  0  0  0  0  0  0  0  0  0
    1.9299    0.4504   -2.4165 H   0  0  0  0  0  0  0  0  0  0  0  0
    1.8034   -0.6246    0.4622 H   0  0  0  0  0  0  0  0  0  0  0  0
    2.1864   -1.5397   -0.9964 H   0  0  0  0  0  0  0  0  0  0  0  0
   -2.5087   -0.0878   -0.9733 H   0  0  0  0  0  0  0  0  0  0  0  0
   -2.0574   -1.7999   -1.0247 H   0  0  0  0  0  0  0  0  0  0  0  0
   -2.2505    1.4365    2.3744 H   0  0  0  0  0  0  0  0  0  0  0  0
   -2.7074    1.5488    0.6623 H   0  0  0  0  0  0  0  0  0  0  0  0
   -4.4777    1.3734   -0.6227 H   0  0  0  0  0  0  0  0  0  0  0  0
   -6.6405    1.2816   -1.7587 H   0  0  0  0  0  0  0  0  0  0  0  0
   -8.7168    1.8739   -0.5704 H   0  0  0  0  0  0  0  0  0  0  0  0
   -8.7859    3.4167    2.8142 H   0  0  0  0  0  0  0  0  0  0  0  0
   -9.4237    1.7904    2.4683 H   0  0  0  0  0  0  0  0  0  0  0  0
   -9.7118    3.1381    1.3392 H   0  0  0  0  0  0  0  0  0  0  0  0
   -6.4393    2.6732    2.9926 H   0  0  0  0  0  0  0  0  0  0  0  0
   -5.4154    0.0610    3.8271 H   0  0  0  0  0  0  0  0  0  0  0  0
   -3.7380    0.5517    4.2276 H   0  0  0  0  0  0  0  0  0  0  0  0
   -4.3460   -1.0125    4.7712 H   0  0  0  0  0  0  0  0  0  0  0  0
   -5.2442   -3.1336    3.9855 H   0  0  0  0  0  0  0  0  0  0  0  0
   -5.2156   -5.3745    2.8666 H   0  0  0  0  0  0  0  0  0  0  0  0
   -4.0857   -5.6961    0.7003 H   0  0  0  0  0  0  0  0  0  0  0  0
   -2.9421   -3.7996   -0.4531 H   0  0  0  0  0  0  0  0  0  0  0  0
  1  2  1  0
  2  3  1  0
  3  4  1  0
  4  5  1  0
  5  6  1  0
  6  7  1  0
  7  8  1  0
  8  9  1  0
  9 10  1  0
 10 11  1  0
 11 12  1  0
 12 13  2  0
 12 14  1  0
 14 15  1  0
 15 16  1  0
 16 17  1  0
 17 18  1  0
 18 19  1  0
 19 20  2  0
 20 21  1  0
 21 22  2  0
 22 23  1  0
 23 24  1  0
 23 25  2  0
 16 26  2  0
 26 27  1  0
 26 28  1  0
 28 29  2  0
 29 30  1  0
 30 31  2  0
 31 32  1  0
 32 33  2  0
 33 15  1  0
 25 19  1  0
 33 28  1  0
  1 34  1  0
  1 35  1  0
  1 36  1  0
  2 37  1  0
  2 38  1  0
  3 39  1  0
  3 40  1  0
  4 41  1  0
  4 42  1  0
  5 43  1  0
  5 44  1  0
  6 45  1  0
  6 46  1  0
  7 47  1  0
  7 48  1  0
  8 49  1  0
  8 50  1  0
  9 51  1  0
  9 52  1  0
 10 53  1  0
 10 54  1  0
 14 55  1  0
 14 56  1  0
 17 57  1  0
 17 58  1  0
 20 59  1  0
 21 60  1  0
 22 61  1  0
 24 62  1  0
 24 63  1  0
 24 64  1  0
 25 65  1  0
 27 66  1  0
 27 67  1  0
 27 68  1  0
 29 69  1  0
 30 70  1  0
 31 71  1  0
 32 72  1  0
M  CHG  1  26   1
M  END
$$$$
