
     RDKit          3D

 57 60  0  0  0  0  0  0  0  0999 V2000
   -3.3770    3.1094    2.2871 C   0  0  0  0  0  0  0  0  0  0  0  0
   -3.6525    1.9459    1.5161 O   0  0  0  0  0  0  0  0  0  0  0  0
   -2.6223    1.4280    0.7836 C   0  0  0  0  0  0  0  0  0  0  0  0
   -1.5560    2.2040    0.3090 C   0  0  0  0  0  0  0  0  0  0  0  0
   -0.5488    1.6281   -0.4707 C   0  0  0  0  0  0  0  0  0  0  0  0
   -0.6034    0.2671   -0.7786 C   0  0  0  0  0  0  0  0  0  0  0  0
    0.4360   -0.3414   -1.6319 C   0  0  0  0  0  0  0  0  0  0  0  0
    0.0801   -0.7929   -2.7171 O   0  0  0  0  0  0  0  0  0  0  0  0
    1.7537   -0.3411   -1.1780 N   0  0  0  0  0  0  0  0  0  0  0  0
    2.0995   -0.3325    0.2524 C   0  0  0  0  0  0  0  0  0  0  0  0
    3.5375    0.1549    0.5072 C   0  0  0  0  0  0  0  0  0  0  0  0
    4.4979   -0.6129   -0.3095 N   0  0  0  0  0  0  0  0  0  0  0  0
    5.8664   -0.4583   -0.0291 C   0  0  0  0  0  0  0  0  0  0  0  0
    6.3915    0.6014    0.7239 C   0  0  0  0  0  0  0  0  0  0  0  0
    7.7639    0.7043    0.9823 C   0  0  0  0  0  0  0  0  0  0  0  0
    8.6425   -0.2598    0.4986 C   0  0  0  0  0  0  0  0  0  0  0  0
    8.1479   -1.3275   -0.2408 C   0  0  0  0  0  0  0  0  0  0  0  0
    6.7765   -1.4229   -0.4972 C   0  0  0  0  0  0  0  0  0  0  0  0
    4.1856   -0.5505   -1.7595 C   0  0  0  0  0  0  0  0  0  0  0  0
    2.7423   -1.0153   -2.0268 C   0  0  0  0  0  0  0  0  0  0  0  0
   -1.6703   -0.5162   -0.3430 C   0  0  0  0  0  0  0  0  0  0  0  0
   -2.6752    0.0687    0.4397 C   0  0  0  0  0  0  0  0  0  0  0  0
   -3.9987   -0.9638    1.0204 S   0  0  0  0  0  6  0  0  0  0  0  0
   -4.1393   -0.7642    2.4470 O   0  0  0  0  0  0  0  0  0  0  0  0
   -3.7872   -2.2990    0.4956 O   0  0  0  0  0  0  0  0  0  0  0  0
   -5.3650   -0.3404    0.2359 N   0  0  0  0  0  0  0  0  0  0  0  0
   -5.3693   -0.3583   -1.2466 C   0  0  0  0  0  0  0  0  0  0  0  0
   -6.8472   -0.3566   -1.6063 C   0  0  0  0  0  0  0  0  0  0  0  0
   -7.4343   -1.2608   -0.5415 C   0  0  0  0  0  0  0  0  0  0  0  0
   -6.6719   -0.8616    0.7164 C   0  0  0  0  0  0  0  0  0  0  0  0
   -2.4551    2.9999    2.8685 H   0  0  0  0  0  0  0  0  0  0  0  0
   -3.3359    3.9969    1.6477 H   0  0  0  0  0  0  0  0  0  0  0  0
   -4.2025    3.2455    2.9924 H   0  0  0  0  0  0  0  0  0  0  0  0
   -1.4977    3.2691    0.5103 H   0  0  0  0  0  0  0  0  0  0  0  0
    0.2639    2.2428   -0.8504 H   0  0  0  0  0  0  0  0  0  0  0  0
    1.4045    0.2848    0.8244 H   0  0  0  0  0  0  0  0  0  0  0  0
    1.9827   -1.3629    0.6101 H   0  0  0  0  0  0  0  0  0  0  0  0
    3.5988    1.2219    0.2583 H   0  0  0  0  0  0  0  0  0  0  0  0
    3.7551    0.0320    1.5748 H   0  0  0  0  0  0  0  0  0  0  0  0
    5.7492    1.3845    1.1124 H   0  0  0  0  0  0  0  0  0  0  0  0
    8.1430    1.5412    1.5612 H   0  0  0  0  0  0  0  0  0  0  0  0
    9.7067   -0.1819    0.7022 H   0  0  0  0  0  0  0  0  0  0  0  0
    8.8225   -2.0938   -0.6106 H   0  0  0  0  0  0  0  0  0  0  0  0
    6.4118   -2.2840   -1.0506 H   0  0  0  0  0  0  0  0  0  0  0  0
    4.8572   -1.1818   -2.3529 H   0  0  0  0  0  0  0  0  0  0  0  0
    4.3057    0.4837   -2.1098 H   0  0  0  0  0  0  0  0  0  0  0  0
    2.4996   -0.8520   -3.0824 H   0  0  0  0  0  0  0  0  0  0  0  0
    2.6521   -2.0909   -1.8308 H   0  0  0  0  0  0  0  0  0  0  0  0
   -1.7098   -1.5690   -0.6153 H   0  0  0  0  0  0  0  0  0  0  0  0
   -4.8900   -1.2631   -1.6354 H   0  0  0  0  0  0  0  0  0  0  0  0
   -4.8631    0.5230   -1.6497 H   0  0  0  0  0  0  0  0  0  0  0  0
   -7.2619    0.6554   -1.5154 H   0  0  0  0  0  0  0  0  0  0  0  0
   -7.0330   -0.7179   -2.6223 H   0  0  0  0  0  0  0  0  0  0  0  0
   -7.2297   -2.3110   -0.7864 H   0  0  0  0  0  0  0  0  0  0  0  0
   -8.5157   -1.1417   -0.4299 H   0  0  0  0  0  0  0  0  0  0  0  0
   -6.5738   -1.7138    1.3963 H   0  0  0  0  0  0  0  0  0  0  0  0
   -7.1877   -0.0522    1.2458 H   0  0  0  0  0  0  0  0  0  0  0  0
  1  2  1  0
  2  3  1  0
  3  4  2  0
  4  5  1  0
  5  6  2  0
  6  7  1  0
  7  8  2  0
  7  9  1  0
  9 10  1  0
 10 11  1  0
 11 12  1  0
 12 13  1  0
 13 14  2  0
 14 15  1  0
 15 16  2  0
 16 17  1  0
 17 18  2  0
 12 19  1  0
 19 20  1  0
  6 21  1  0
 21 22  2  0
 22 23  1  0
 23 24  2  0
 23 25  2  0
 23 26  1  0
 26 27  1  0
 27 28  1  0
 28 29  1  0
 29 30  1  0
 22  3  1  0
 30 26  1  0
 20  9  1  0
 18 13  1  0
  1 31  1  0
  1 32  1  0
  1 33  1  0
  4 34  1  0
  5 35  1  0
 10 36  1  0
 10 37  1  0
 11 38  1  0
 11 39  1  0
 14 40  1  0
 15 41  1  0
 16 42  1  0
 17 43  1  0
 18 44  1  0
 19 45  1  0
 19 46  1  0
 20 47  1  0
 20 48  1  0
 21 49  1  0
 27 50  1  0
 27 51  1  0
 28 52  1  0
 28 53  1  0
 29 54  1  0
 29 55  1  0
 30 56  1  0
 30 57  1  0
M  END
$$$$
