
     RDKit          3D

 57 61  0  0  0  0  0  0  0  0999 V2000
    4.0868    1.8911    0.1452 C   0  0  0  0  0  0  0  0  0  0  0  0
    4.0935    0.6295   -0.4539 C   0  0  0  0  0  0  0  0  0  0  0  0
    3.1895   -0.3454   -0.0326 C   0  0  0  0  0  0  0  0  0  0  0  0
    2.2641   -0.0696    0.9874 C   0  0  0  0  0  0  0  0  0  0  0  0
    1.2632   -1.1329    1.4059 C   0  0  0  0  0  0  0  0  0  0  0  0
    0.4223   -1.5818    0.2813 N   0  0  0  0  0  0  0  0  0  0  0  0
   -0.2376   -2.8593    0.5823 C   0  0  0  0  0  0  0  0  0  0  0  0
    0.7178   -4.0057    0.4861 C   0  0  0  0  0  0  0  0  0  0  0  0
    1.1954   -4.9204    1.4011 C   0  0  0  0  0  0  0  0  0  0  0  0
    2.0939   -5.7558    0.7056 C   0  0  0  0  0  0  0  0  0  0  0  0
    2.0875   -5.3199   -0.5984 C   0  0  0  0  0  0  0  0  0  0  0  0
    1.2557   -4.2582   -0.7401 O   0  0  0  0  0  0  0  0  0  0  0  0
   -0.4891   -0.5234   -0.2150 C   0  0  0  0  0  0  0  0  0  0  0  0
   -1.0128   -0.8292   -1.6191 C   0  0  0  0  0  0  0  0  0  0  0  0
   -0.1597   -0.6404   -2.7178 C   0  0  0  0  0  0  0  0  0  0  0  0
   -0.6246   -0.9325   -3.9902 C   0  0  0  0  0  0  0  0  0  0  0  0
   -1.8665   -1.3962   -4.2462 N   0  0  0  0  0  0  0  0  0  0  0  0
   -2.6727   -1.5983   -3.1794 C   0  0  0  0  0  0  0  0  0  0  0  0
   -2.2985   -1.3343   -1.8693 C   0  0  0  0  0  0  0  0  0  0  0  0
   -1.5593   -0.0810    0.7481 C   0  0  0  0  0  0  0  0  0  0  0  0
   -2.2838   -0.8427    1.5570 N   0  0  0  0  0  0  0  0  0  0  0  0
   -3.1192   -0.0025    2.2387 N   0  0  0  0  0  0  0  0  0  0  0  0
   -2.9341    1.2567    1.8660 N   0  0  0  0  0  0  0  0  0  0  0  0
   -1.9654    1.2189    0.9358 N   0  0  0  0  0  0  0  0  0  0  0  0
   -1.4938    2.4510    0.3347 C   0  0  0  0  0  0  0  0  0  0  0  0
   -0.9532    3.4643    1.3675 C   0  0  0  0  0  0  0  0  0  0  0  0
   -1.8875    4.6652    1.2889 C   0  0  0  0  0  0  0  0  0  0  0  0
   -2.3404    4.6723   -0.1623 C   0  0  0  0  0  0  0  0  0  0  0  0
   -2.5809    3.1956   -0.4613 C   0  0  0  0  0  0  0  0  0  0  0  0
    2.2759    1.1973    1.5935 C   0  0  0  0  0  0  0  0  0  0  0  0
    3.1810    2.1735    1.1687 C   0  0  0  0  0  0  0  0  0  0  0  0
    4.7918    2.6517   -0.1837 H   0  0  0  0  0  0  0  0  0  0  0  0
    4.8000    0.4055   -1.2468 H   0  0  0  0  0  0  0  0  0  0  0  0
    3.1903   -1.3269   -0.5053 H   0  0  0  0  0  0  0  0  0  0  0  0
    0.6508   -0.7746    2.2416 H   0  0  0  0  0  0  0  0  0  0  0  0
    1.8605   -1.9610    1.8099 H   0  0  0  0  0  0  0  0  0  0  0  0
   -1.0449   -3.0776   -0.1261 H   0  0  0  0  0  0  0  0  0  0  0  0
   -0.6927   -2.8488    1.5798 H   0  0  0  0  0  0  0  0  0  0  0  0
    0.9368   -4.9593    2.4492 H   0  0  0  0  0  0  0  0  0  0  0  0
    2.6719   -6.5812    1.0982 H   0  0  0  0  0  0  0  0  0  0  0  0
    2.6049   -5.6280   -1.4947 H   0  0  0  0  0  0  0  0  0  0  0  0
    0.1439    0.3531   -0.3797 H   0  0  0  0  0  0  0  0  0  0  0  0
    0.8484   -0.2812   -2.5853 H   0  0  0  0  0  0  0  0  0  0  0  0
    0.0116   -0.8065   -4.8621 H   0  0  0  0  0  0  0  0  0  0  0  0
   -3.6597   -2.0009   -3.4106 H   0  0  0  0  0  0  0  0  0  0  0  0
   -3.0059   -1.5413   -1.0665 H   0  0  0  0  0  0  0  0  0  0  0  0
   -0.6786    2.2045   -0.3506 H   0  0  0  0  0  0  0  0  0  0  0  0
    0.0575    3.7756    1.0694 H   0  0  0  0  0  0  0  0  0  0  0  0
   -0.8828    3.0683    2.3874 H   0  0  0  0  0  0  0  0  0  0  0  0
   -1.3892    5.5987    1.5752 H   0  0  0  0  0  0  0  0  0  0  0  0
   -2.7442    4.5163    1.9539 H   0  0  0  0  0  0  0  0  0  0  0  0
   -3.2397    5.2779   -0.3200 H   0  0  0  0  0  0  0  0  0  0  0  0
   -1.5433    5.0682   -0.8021 H   0  0  0  0  0  0  0  0  0  0  0  0
   -2.5103    2.9828   -1.5357 H   0  0  0  0  0  0  0  0  0  0  0  0
   -3.5908    2.9113   -0.1412 H   0  0  0  0  0  0  0  0  0  0  0  0
    1.5812    1.4315    2.3984 H   0  0  0  0  0  0  0  0  0  0  0  0
    3.1850    3.1562    1.6394 H   0  0  0  0  0  0  0  0  0  0  0  0
  1  2  2  0
  2  3  1  0
  3  4  2  0
  4  5  1  0
  5  6  1  0
  6  7  1  0
  7  8  1  0
  8  9  2  0
  9 10  1  0
 10 11  2  0
 11 12  1  0
  6 13  1  0
 13 14  1  0
 14 15  2  0
 15 16  1  0
 16 17  2  0
 17 18  1  0
 18 19  2  0
 13 20  1  0
 20 21  2  0
 21 22  1  0
 22 23  2  0
 23 24  1  0
 24 25  1  0
 25 26  1  0
 26 27  1  0
 27 28  1  0
 28 29  1  0
  4 30  1  0
 30 31  2  0
 31  1  1  0
 12  8  1  0
 19 14  1  0
 24 20  1  0
 29 25  1  0
  1 32  1  0
  2 33  1  0
  3 34  1  0
  5 35  1  0
  5 36  1  0
  7 37  1  0
  7 38  1  0
  9 39  1  0
 10 40  1  0
 11 41  1  0
 13 42  1  0
 15 43  1  0
 16 44  1  0
 18 45  1  0
 19 46  1  0
 25 47  1  0
 26 48  1  0
 26 49  1  0
 27 50  1  0
 27 51  1  0
 28 52  1  0
 28 53  1  0
 29 54  1  0
 29 55  1  0
 30 56  1  0
 31 57  1  0
M  END
$$$$
