
     RDKit          3D

 52 54  0  0  0  0  0  0  0  0999 V2000
    7.3651    1.5544    2.7272 C   0  0  0  0  0  0  0  0  0  0  0  0
    6.8848    0.8092    1.4965 C   0  0  0  0  0  0  0  0  0  0  0  0
    5.4797    0.5480    1.5886 O   0  0  0  0  0  0  0  0  0  0  0  0
    4.6550    1.5358    1.1495 C   0  0  0  0  0  0  0  0  0  0  0  0
    5.0561    2.6066    0.7126 O   0  0  0  0  0  0  0  0  0  0  0  0
    3.3127    1.1970    1.2586 N   0  0  0  0  0  0  0  0  0  0  0  0
    2.8858   -0.1660    1.5617 C   0  0  0  0  0  0  0  0  0  0  0  0
    1.5444   -0.1921    2.2840 C   0  0  0  0  0  0  0  0  0  0  0  0
    0.4736    0.6176    1.5435 C   0  0  0  0  0  0  0  0  0  0  0  0
    0.0410   -0.0319    0.3106 N   0  0  0  0  0  0  0  0  0  0  0  0
   -0.7645   -1.1581    0.3323 C   0  0  0  0  0  0  0  0  0  0  0  0
   -1.0777   -1.7452    1.3652 O   0  0  0  0  0  0  0  0  0  0  0  0
   -1.3122   -1.5606   -1.0413 C   0  0  0  0  0  0  0  0  0  0  0  0
   -2.5764   -0.8418   -1.3284 N   0  0  0  0  0  0  0  0  0  0  0  0
   -2.3983    0.4589   -1.7813 C   0  0  0  0  0  0  0  0  0  0  0  0
   -1.2451    0.8957   -1.9461 O   0  0  0  0  0  0  0  0  0  0  0  0
   -3.5058    1.4902   -1.9110 C   0  0  0  0  0  0  0  0  0  0  0  0
   -4.9340    1.0959   -2.1706 C   0  0  0  0  0  0  0  0  0  0  0  0
   -5.0007   -0.2065   -3.4103 S   0  0  0  0  0  0  0  0  0  0  0  0
   -4.8377   -1.5247   -2.2265 C   0  0  0  0  0  0  0  0  0  0  0  0
   -5.8953   -2.4558   -2.2233 C   0  0  0  0  0  0  0  0  0  0  0  0
   -5.9371   -3.4953   -1.3016 C   0  0  0  0  0  0  0  0  0  0  0  0
   -4.9267   -3.6053   -0.3609 C   0  0  0  0  0  0  0  0  0  0  0  0
   -3.8666   -2.6938   -0.3694 C   0  0  0  0  0  0  0  0  0  0  0  0
   -3.7749   -1.6450   -1.3101 C   0  0  0  0  0  0  0  0  0  0  0  0
    0.9842    2.0369    1.2815 C   0  0  0  0  0  0  0  0  0  0  0  0
    2.3399    2.0478    0.5862 C   0  0  0  0  0  0  0  0  0  0  0  0
    7.1293    0.9927    3.6369 H   0  0  0  0  0  0  0  0  0  0  0  0
    6.8729    2.5273    2.8165 H   0  0  0  0  0  0  0  0  0  0  0  0
    8.4455    1.7136    2.6848 H   0  0  0  0  0  0  0  0  0  0  0  0
    7.1311    1.3483    0.5749 H   0  0  0  0  0  0  0  0  0  0  0  0
    7.3823   -0.1622    1.4379 H   0  0  0  0  0  0  0  0  0  0  0  0
    2.8298   -0.7127    0.6130 H   0  0  0  0  0  0  0  0  0  0  0  0
    3.6290   -0.6740    2.1829 H   0  0  0  0  0  0  0  0  0  0  0  0
    1.2318   -1.2324    2.4294 H   0  0  0  0  0  0  0  0  0  0  0  0
    1.6760    0.2418    3.2844 H   0  0  0  0  0  0  0  0  0  0  0  0
   -0.4145    0.6846    2.1843 H   0  0  0  0  0  0  0  0  0  0  0  0
   -0.0687    0.5459   -0.5264 H   0  0  0  0  0  0  0  0  0  0  0  0
   -0.5646   -1.3320   -1.8123 H   0  0  0  0  0  0  0  0  0  0  0  0
   -1.4310   -2.6497   -1.0772 H   0  0  0  0  0  0  0  0  0  0  0  0
   -3.1957    2.1509   -2.7363 H   0  0  0  0  0  0  0  0  0  0  0  0
   -3.4700    2.1040   -1.0036 H   0  0  0  0  0  0  0  0  0  0  0  0
   -5.4269    0.7906   -1.2408 H   0  0  0  0  0  0  0  0  0  0  0  0
   -5.4926    1.9603   -2.5425 H   0  0  0  0  0  0  0  0  0  0  0  0
   -6.7044   -2.3671   -2.9489 H   0  0  0  0  0  0  0  0  0  0  0  0
   -6.7603   -4.2038   -1.3108 H   0  0  0  0  0  0  0  0  0  0  0  0
   -4.9488   -4.4017    0.3783 H   0  0  0  0  0  0  0  0  0  0  0  0
   -3.1172   -2.8220    0.4079 H   0  0  0  0  0  0  0  0  0  0  0  0
    1.0812    2.5554    2.2447 H   0  0  0  0  0  0  0  0  0  0  0  0
    0.2597    2.6043    0.6849 H   0  0  0  0  0  0  0  0  0  0  0  0
    2.2455    1.6880   -0.4465 H   0  0  0  0  0  0  0  0  0  0  0  0
    2.7111    3.0783    0.5345 H   0  0  0  0  0  0  0  0  0  0  0  0
  1  2  1  0
  2  3  1  0
  3  4  1  0
  4  5  2  0
  4  6  1  0
  6  7  1  0
  7  8  1  0
  8  9  1  0
  9 10  1  0
 10 11  1  0
 11 12  2  0
 11 13  1  0
 13 14  1  0
 14 15  1  0
 15 16  2  0
 15 17  1  0
 17 18  1  0
 18 19  1  0
 19 20  1  0
 20 21  2  0
 21 22  1  0
 22 23  2  0
 23 24  1  0
 24 25  2  0
  9 26  1  0
 26 27  1  0
 27  6  1  0
 25 14  1  0
 25 20  1  0
  1 28  1  0
  1 29  1  0
  1 30  1  0
  2 31  1  0
  2 32  1  0
  7 33  1  0
  7 34  1  0
  8 35  1  0
  8 36  1  0
  9 37  1  0
 10 38  1  0
 13 39  1  0
 13 40  1  0
 17 41  1  0
 17 42  1  0
 18 43  1  0
 18 44  1  0
 21 45  1  0
 22 46  1  0
 23 47  1  0
 24 48  1  0
 26 49  1  0
 26 50  1  0
 27 51  1  0
 27 52  1  0
M  END
$$$$
