
     RDKit          3D

 49 51  0  0  0  0  0  0  0  0999 V2000
   -3.8299   -2.8589    3.3780 C   0  0  0  0  0  0  0  0  0  0  0  0
   -3.2287   -2.0486    2.2571 C   0  0  0  0  0  0  0  0  0  0  0  0
   -3.7382   -2.3078    0.8826 C   0  0  0  0  0  0  0  0  0  0  0  0
   -3.1940   -1.5444   -0.0752 C   0  0  0  0  0  0  0  0  0  0  0  0
   -3.5411   -1.7065   -1.5245 C   0  0  0  0  0  0  0  0  0  0  0  0
   -2.2572   -0.5874    0.2594 N   0  0  0  0  0  0  0  0  0  0  0  0
   -1.7571   -0.4590    1.5344 C   0  0  0  0  0  0  0  0  0  0  0  0
   -0.7928    0.3130    1.9189 N   0  0  0  0  0  0  0  0  0  0  0  0
   -0.2625    1.2117    1.0456 C   0  0  0  0  0  0  0  0  0  0  0  0
    0.6861    0.9154    0.2212 N   0  0  0  0  0  0  0  0  0  0  0  0
    1.3157   -0.5660    0.1046 S   0  0  0  0  0  6  0  0  0  0  0  0
    0.3946   -1.3576   -0.6943 O   0  0  0  0  0  0  0  0  0  0  0  0
    1.8032   -1.0234    1.3897 O   0  0  0  0  0  0  0  0  0  0  0  0
    2.7417   -0.1838   -0.9130 C   0  0  0  0  0  0  0  0  0  0  0  0
    3.4824   -1.4491   -1.2595 C   0  0  0  0  0  0  0  0  0  0  0  0
    4.4529   -1.9674   -0.3899 C   0  0  0  0  0  0  0  0  0  0  0  0
    5.1376   -3.1403   -0.7110 C   0  0  0  0  0  0  0  0  0  0  0  0
    4.8598   -3.8074   -1.9020 C   0  0  0  0  0  0  0  0  0  0  0  0
    3.8941   -3.3051   -2.7716 C   0  0  0  0  0  0  0  0  0  0  0  0
    3.2071   -2.1327   -2.4527 C   0  0  0  0  0  0  0  0  0  0  0  0
   -0.8022    2.4659    1.1599 N   0  0  0  0  0  0  0  0  0  0  0  0
   -0.5476    3.6746    0.4882 C   0  0  0  0  0  0  0  0  0  0  0  0
    0.2765    3.7731   -0.6403 C   0  0  0  0  0  0  0  0  0  0  0  0
    0.4946    4.9993   -1.2815 C   0  0  0  0  0  0  0  0  0  0  0  0
   -0.1145    6.1574   -0.8100 C   0  0  0  0  0  0  0  0  0  0  0  0
   -0.9466    6.0917    0.3026 C   0  0  0  0  0  0  0  0  0  0  0  0
   -1.1604    4.8645    0.9401 C   0  0  0  0  0  0  0  0  0  0  0  0
   -2.3175    4.8541    2.4536 Br  0  0  0  0  0  0  0  0  0  0  0  0
   -2.3058   -1.1903    2.5607 N   0  0  0  0  0  0  0  0  0  0  0  0
   -4.2309   -2.1824    4.1385 H   0  0  0  0  0  0  0  0  0  0  0  0
   -3.0516   -3.4812    3.8291 H   0  0  0  0  0  0  0  0  0  0  0  0
   -4.6366   -3.5044    3.0209 H   0  0  0  0  0  0  0  0  0  0  0  0
   -4.4679   -3.0846    0.7069 H   0  0  0  0  0  0  0  0  0  0  0  0
   -2.6491   -1.9691   -2.1030 H   0  0  0  0  0  0  0  0  0  0  0  0
   -4.2864   -2.4934   -1.6823 H   0  0  0  0  0  0  0  0  0  0  0  0
   -3.9502   -0.7725   -1.9237 H   0  0  0  0  0  0  0  0  0  0  0  0
   -1.6388   -0.3065   -0.4951 H   0  0  0  0  0  0  0  0  0  0  0  0
    3.3839    0.5063   -0.3562 H   0  0  0  0  0  0  0  0  0  0  0  0
    2.3878    0.3220   -1.8174 H   0  0  0  0  0  0  0  0  0  0  0  0
    4.6738   -1.4691    0.5529 H   0  0  0  0  0  0  0  0  0  0  0  0
    5.8826   -3.5375   -0.0263 H   0  0  0  0  0  0  0  0  0  0  0  0
    5.3902   -4.7235   -2.1481 H   0  0  0  0  0  0  0  0  0  0  0  0
    3.6707   -3.8311   -3.6962 H   0  0  0  0  0  0  0  0  0  0  0  0
    2.4480   -1.7639   -3.1396 H   0  0  0  0  0  0  0  0  0  0  0  0
   -1.4168    2.5557    1.9625 H   0  0  0  0  0  0  0  0  0  0  0  0
    0.7667    2.9009   -1.0579 H   0  0  0  0  0  0  0  0  0  0  0  0
    1.1424    5.0441   -2.1540 H   0  0  0  0  0  0  0  0  0  0  0  0
    0.0566    7.1077   -1.3095 H   0  0  0  0  0  0  0  0  0  0  0  0
   -1.4242    6.9976    0.6672 H   0  0  0  0  0  0  0  0  0  0  0  0
  1  2  1  0
  2  3  1  0
  3  4  2  0
  4  5  1  0
  4  6  1  0
  6  7  1  0
  7  8  2  3
  8  9  1  0
  9 10  2  3
 10 11  1  0
 11 12  2  0
 11 13  2  0
 11 14  1  0
 14 15  1  0
 15 16  2  0
 16 17  1  0
 17 18  2  0
 18 19  1  0
 19 20  2  0
  9 21  1  0
 21 22  1  0
 22 23  2  0
 23 24  1  0
 24 25  2  0
 25 26  1  0
 26 27  2  0
 27 28  1  0
  7 29  1  0
 29  2  2  0
 20 15  1  0
 27 22  1  0
  1 30  1  0
  1 31  1  0
  1 32  1  0
  3 33  1  0
  5 34  1  0
  5 35  1  0
  5 36  1  0
  6 37  1  0
 14 38  1  0
 14 39  1  0
 16 40  1  0
 17 41  1  0
 18 42  1  0
 19 43  1  0
 20 44  1  0
 21 45  1  0
 23 46  1  0
 24 47  1  0
 25 48  1  0
 26 49  1  0
M  END
$$$$
