
     RDKit          3D

 45 47  0  0  0  0  0  0  0  0999 V2000
    0.8060   -0.1396    2.8282 O   0  0  0  0  0  0  0  0  0  0  0  0
    0.4748   -0.4167    1.6855 C   0  0  0  0  0  0  0  0  0  0  0  0
    1.0119   -1.4177    0.9120 N   0  0  0  0  0  0  0  0  0  0  0  0
    2.1843   -2.1386    1.3487 C   0  0  0  0  0  0  0  0  0  0  0  0
    3.3946   -1.3670    0.9735 C   0  0  0  0  0  0  0  0  0  0  0  0
    4.0923   -0.3446    1.5842 C   0  0  0  0  0  0  0  0  0  0  0  0
    5.1680   -0.0246    0.7222 C   0  0  0  0  0  0  0  0  0  0  0  0
    5.0557   -0.8667   -0.3595 C   0  0  0  0  0  0  0  0  0  0  0  0
    3.9797   -1.6826   -0.2180 O   0  0  0  0  0  0  0  0  0  0  0  0
   -0.6409    0.3923    1.0151 C   0  0  0  0  0  0  0  0  0  0  0  0
   -1.9475    0.2919    1.7291 C   0  0  0  0  0  0  0  0  0  0  0  0
   -3.1641    0.4303    1.1781 C   0  0  0  0  0  0  0  0  0  0  0  0
   -3.5286    0.7395   -0.2480 C   0  0  0  0  0  0  0  0  0  0  0  0
   -3.8426   -0.5096   -1.0374 C   0  0  0  0  0  0  0  0  0  0  0  0
   -2.8454   -1.1352   -1.7996 C   0  0  0  0  0  0  0  0  0  0  0  0
   -3.1252   -2.3038   -2.5096 C   0  0  0  0  0  0  0  0  0  0  0  0
   -4.4021   -2.8607   -2.4627 C   0  0  0  0  0  0  0  0  0  0  0  0
   -5.4011   -2.2486   -1.7076 C   0  0  0  0  0  0  0  0  0  0  0  0
   -5.1233   -1.0806   -0.9955 C   0  0  0  0  0  0  0  0  0  0  0  0
   -0.4639    1.1359   -0.0343 N   0  0  0  0  0  0  0  0  0  0  0  0
    0.7752    1.1320   -0.6152 C   0  0  0  0  0  0  0  0  0  0  0  0
    1.1459    0.2236   -1.3507 O   0  0  0  0  0  0  0  0  0  0  0  0
    1.5675    2.2993   -0.2907 C   0  0  0  0  0  0  0  0  0  0  0  0
    2.8325    2.6722   -0.7117 C   0  0  0  0  0  0  0  0  0  0  0  0
    3.1338    3.8971   -0.0685 C   0  0  0  0  0  0  0  0  0  0  0  0
    2.0374    4.2036    0.7034 C   0  0  0  0  0  0  0  0  0  0  0  0
    1.8653    5.7448    1.8054 Br  0  0  0  0  0  0  0  0  0  0  0  0
    1.0829    3.2457    0.5739 O   0  0  0  0  0  0  0  0  0  0  0  0
    0.8415   -1.3895   -0.0916 H   0  0  0  0  0  0  0  0  0  0  0  0
    2.1744   -3.1156    0.8564 H   0  0  0  0  0  0  0  0  0  0  0  0
    2.1462   -2.2943    2.4318 H   0  0  0  0  0  0  0  0  0  0  0  0
    3.8455    0.1100    2.5349 H   0  0  0  0  0  0  0  0  0  0  0  0
    5.9306    0.7267    0.8702 H   0  0  0  0  0  0  0  0  0  0  0  0
    5.6291   -1.0043   -1.2657 H   0  0  0  0  0  0  0  0  0  0  0  0
   -1.8709    0.0419    2.7851 H   0  0  0  0  0  0  0  0  0  0  0  0
   -4.0211    0.2982    1.8386 H   0  0  0  0  0  0  0  0  0  0  0  0
   -2.7618    1.3237   -0.7640 H   0  0  0  0  0  0  0  0  0  0  0  0
   -4.4098    1.3960   -0.2461 H   0  0  0  0  0  0  0  0  0  0  0  0
   -1.8450   -0.7107   -1.8487 H   0  0  0  0  0  0  0  0  0  0  0  0
   -2.3460   -2.7783   -3.1005 H   0  0  0  0  0  0  0  0  0  0  0  0
   -4.6198   -3.7699   -3.0167 H   0  0  0  0  0  0  0  0  0  0  0  0
   -6.3979   -2.6817   -1.6724 H   0  0  0  0  0  0  0  0  0  0  0  0
   -5.9117   -0.6176   -0.4070 H   0  0  0  0  0  0  0  0  0  0  0  0
    3.4546    2.1117   -1.3974 H   0  0  0  0  0  0  0  0  0  0  0  0
    4.0387    4.4820   -0.1572 H   0  0  0  0  0  0  0  0  0  0  0  0
  1  2  2  0
  2  3  1  0
  3  4  1  0
  4  5  1  0
  5  6  2  0
  6  7  1  0
  7  8  2  0
  8  9  1  0
  2 10  1  0
 10 11  1  0
 11 12  2  3
 12 13  1  0
 13 14  1  0
 14 15  2  0
 15 16  1  0
 16 17  2  0
 17 18  1  0
 18 19  2  0
 10 20  2  3
 20 21  1  0
 21 22  2  0
 21 23  1  0
 23 24  2  0
 24 25  1  0
 25 26  2  0
 26 27  1  0
 26 28  1  0
  9  5  1  0
 19 14  1  0
 28 23  1  0
  3 29  1  0
  4 30  1  0
  4 31  1  0
  6 32  1  0
  7 33  1  0
  8 34  1  0
 11 35  1  0
 12 36  1  0
 13 37  1  0
 13 38  1  0
 15 39  1  0
 16 40  1  0
 17 41  1  0
 18 42  1  0
 19 43  1  0
 24 44  1  0
 25 45  1  0
M  END
$$$$
