
     RDKit          3D

 51 53  0  0  0  0  0  0  0  0999 V2000
   -7.1039    3.0910   -2.1739 C   0  0  0  0  0  0  0  0  0  0  0  0
   -5.9742    2.1416   -1.8696 C   0  0  0  0  0  0  0  0  0  0  0  0
   -5.8926    0.9550   -2.6125 C   0  0  0  0  0  0  0  0  0  0  0  0
   -4.8738    0.0401   -2.3778 C   0  0  0  0  0  0  0  0  0  0  0  0
   -3.9183    0.2959   -1.3964 C   0  0  0  0  0  0  0  0  0  0  0  0
   -3.9621    1.4707   -0.6371 C   0  0  0  0  0  0  0  0  0  0  0  0
   -3.0050    1.7451    0.3737 N   0  0  0  0  0  0  0  0  0  0  0  0
   -1.8713    1.0183    0.6991 C   0  0  0  0  0  0  0  0  0  0  0  0
   -1.4482    0.0193    0.1167 O   0  0  0  0  0  0  0  0  0  0  0  0
   -1.1092    1.5961    1.8871 C   0  0  0  0  0  0  0  0  0  0  0  0
    0.4853    2.2457    1.3238 S   0  0  0  0  0  0  0  0  0  0  0  0
    1.4616    0.8068    1.5138 C   0  0  0  0  0  0  0  0  0  0  0  0
    2.4106    0.8402    2.3829 N   0  0  0  0  0  0  0  0  0  0  0  0
    3.1823   -0.2902    2.5455 C   0  0  0  0  0  0  0  0  0  0  0  0
    4.0226   -0.3673    3.4370 O   0  0  0  0  0  0  0  0  0  0  0  0
    2.9671   -1.4705    1.6209 C   0  0  0  0  0  0  0  0  0  0  0  0
    3.9103   -2.6304    1.8122 C   0  0  0  0  0  0  0  0  0  0  0  0
    5.1766   -2.5093    0.9912 C   0  0  0  0  0  0  0  0  0  0  0  0
    6.2816   -1.8040    1.4902 C   0  0  0  0  0  0  0  0  0  0  0  0
    7.4440   -1.6718    0.7290 C   0  0  0  0  0  0  0  0  0  0  0  0
    7.5155   -2.2412   -0.5404 C   0  0  0  0  0  0  0  0  0  0  0  0
    6.4249   -2.9430   -1.0493 C   0  0  0  0  0  0  0  0  0  0  0  0
    5.2610   -3.0758   -0.2892 C   0  0  0  0  0  0  0  0  0  0  0  0
    1.9245   -1.4074    0.7653 C   0  0  0  0  0  0  0  0  0  0  0  0
    1.5029   -2.4940   -0.1839 C   0  0  0  0  0  0  0  0  0  0  0  0
    1.1728   -0.2584    0.7257 N   0  0  0  0  0  0  0  0  0  0  0  0
   -5.0029    2.4106   -0.8716 C   0  0  0  0  0  0  0  0  0  0  0  0
   -5.0729    3.6876   -0.0661 C   0  0  0  0  0  0  0  0  0  0  0  0
   -7.7222    3.2455   -1.2843 H   0  0  0  0  0  0  0  0  0  0  0  0
   -7.7596    2.7000   -2.9590 H   0  0  0  0  0  0  0  0  0  0  0  0
   -6.7105    4.0496   -2.5261 H   0  0  0  0  0  0  0  0  0  0  0  0
   -6.6279    0.7336   -3.3834 H   0  0  0  0  0  0  0  0  0  0  0  0
   -4.8214   -0.8789   -2.9579 H   0  0  0  0  0  0  0  0  0  0  0  0
   -3.1526   -0.4576   -1.2476 H   0  0  0  0  0  0  0  0  0  0  0  0
   -3.1396    2.6094    0.8805 H   0  0  0  0  0  0  0  0  0  0  0  0
   -0.9848    0.8160    2.6453 H   0  0  0  0  0  0  0  0  0  0  0  0
   -1.6686    2.4136    2.3515 H   0  0  0  0  0  0  0  0  0  0  0  0
    4.1753   -2.7484    2.8709 H   0  0  0  0  0  0  0  0  0  0  0  0
    3.4182   -3.5798    1.5716 H   0  0  0  0  0  0  0  0  0  0  0  0
    6.2430   -1.3480    2.4787 H   0  0  0  0  0  0  0  0  0  0  0  0
    8.2911   -1.1204    1.1284 H   0  0  0  0  0  0  0  0  0  0  0  0
    8.4204   -2.1357   -1.1325 H   0  0  0  0  0  0  0  0  0  0  0  0
    6.4805   -3.3861   -2.0402 H   0  0  0  0  0  0  0  0  0  0  0  0
    4.4232   -3.6282   -0.7059 H   0  0  0  0  0  0  0  0  0  0  0  0
    2.0807   -3.4139   -0.0831 H   0  0  0  0  0  0  0  0  0  0  0  0
    1.6063   -2.1499   -1.2180 H   0  0  0  0  0  0  0  0  0  0  0  0
    0.4521   -2.7535   -0.0137 H   0  0  0  0  0  0  0  0  0  0  0  0
    0.3487   -0.2320    0.1216 H   0  0  0  0  0  0  0  0  0  0  0  0
   -5.8993    4.3411   -0.3535 H   0  0  0  0  0  0  0  0  0  0  0  0
   -4.1542    4.2681   -0.2018 H   0  0  0  0  0  0  0  0  0  0  0  0
   -5.2079    3.4547    0.9957 H   0  0  0  0  0  0  0  0  0  0  0  0
  1  2  1  0
  2  3  2  0
  3  4  1  0
  4  5  2  0
  5  6  1  0
  6  7  1  0
  7  8  1  0
  8  9  2  0
  8 10  1  0
 10 11  1  0
 11 12  1  0
 12 13  2  0
 13 14  1  0
 14 15  2  0
 14 16  1  0
 16 17  1  0
 17 18  1  0
 18 19  2  0
 19 20  1  0
 20 21  2  0
 21 22  1  0
 22 23  2  0
 16 24  2  0
 24 25  1  0
 24 26  1  0
  6 27  2  0
 27 28  1  0
 27  2  1  0
 26 12  1  0
 23 18  1  0
  1 29  1  0
  1 30  1  0
  1 31  1  0
  3 32  1  0
  4 33  1  0
  5 34  1  0
  7 35  1  0
 10 36  1  0
 10 37  1  0
 17 38  1  0
 17 39  1  0
 19 40  1  0
 20 41  1  0
 21 42  1  0
 22 43  1  0
 23 44  1  0
 25 45  1  0
 25 46  1  0
 25 47  1  0
 26 48  1  0
 28 49  1  0
 28 50  1  0
 28 51  1  0
M  END
$$$$
