
     RDKit          3D

 43 45  0  0  0  0  0  0  0  0999 V2000
    4.7882    2.3671    1.0850 C   0  0  0  0  0  0  0  0  0  0  0  0
    5.5326    1.2453    0.6254 O   0  0  0  0  0  0  0  0  0  0  0  0
    4.8121    0.1776    0.1592 C   0  0  0  0  0  0  0  0  0  0  0  0
    5.5868   -0.8959   -0.2801 C   0  0  0  0  0  0  0  0  0  0  0  0
    5.0047   -2.0625   -0.7855 C   0  0  0  0  0  0  0  0  0  0  0  0
    3.6084   -2.1165   -0.8358 C   0  0  0  0  0  0  0  0  0  0  0  0
    2.7805   -3.1195   -1.2768 N   0  0  0  0  0  0  0  0  0  0  0  0
    1.4697   -2.7445   -1.1440 C   0  0  0  0  0  0  0  0  0  0  0  0
    1.4274   -1.4690   -0.6043 C   0  0  0  0  0  0  0  0  0  0  0  0
    0.2159   -0.6901   -0.2984 C   0  0  0  0  0  0  0  0  0  0  0  0
    0.3087    0.4427    0.1752 O   0  0  0  0  0  0  0  0  0  0  0  0
   -1.1393   -1.3603   -0.6042 C   0  0  0  0  0  0  0  0  0  0  0  0
   -2.3466   -0.5803   -0.2660 N   0  0  0  0  0  0  0  0  0  0  0  0
   -2.4883   -0.2855    1.1559 C   0  0  0  0  0  0  0  0  0  0  0  0
   -3.9264    0.1566    1.4621 C   0  0  0  0  0  0  0  0  0  0  0  0
   -4.5466    1.0254    0.3517 C   0  0  0  0  0  0  0  0  0  0  0  0
   -5.4894    2.0760    0.9316 C   0  0  0  0  0  0  0  0  0  0  0  0
   -3.4494    1.6651   -0.5017 C   0  0  0  0  0  0  0  0  0  0  0  0
   -2.5336    0.5982   -1.1206 C   0  0  0  0  0  0  0  0  0  0  0  0
    2.7944   -1.0676   -0.4077 C   0  0  0  0  0  0  0  0  0  0  0  0
    3.4159    0.0990    0.0985 C   0  0  0  0  0  0  0  0  0  0  0  0
    5.5016    3.1261    1.4201 H   0  0  0  0  0  0  0  0  0  0  0  0
    4.1601    2.1004    1.9415 H   0  0  0  0  0  0  0  0  0  0  0  0
    4.1930    2.8045    0.2766 H   0  0  0  0  0  0  0  0  0  0  0  0
    6.6713   -0.8240   -0.2284 H   0  0  0  0  0  0  0  0  0  0  0  0
    5.6222   -2.8882   -1.1230 H   0  0  0  0  0  0  0  0  0  0  0  0
    3.1020   -4.0047   -1.6454 H   0  0  0  0  0  0  0  0  0  0  0  0
    0.6848   -3.4247   -1.4479 H   0  0  0  0  0  0  0  0  0  0  0  0
   -1.1687   -1.6026   -1.6736 H   0  0  0  0  0  0  0  0  0  0  0  0
   -1.1803   -2.3096   -0.0563 H   0  0  0  0  0  0  0  0  0  0  0  0
   -2.2711   -1.1728    1.7630 H   0  0  0  0  0  0  0  0  0  0  0  0
   -1.7924    0.4974    1.4790 H   0  0  0  0  0  0  0  0  0  0  0  0
   -3.9249    0.6888    2.4214 H   0  0  0  0  0  0  0  0  0  0  0  0
   -4.5610   -0.7279    1.6035 H   0  0  0  0  0  0  0  0  0  0  0  0
   -5.1422    0.3709   -0.2995 H   0  0  0  0  0  0  0  0  0  0  0  0
   -5.9674    2.6516    0.1320 H   0  0  0  0  0  0  0  0  0  0  0  0
   -4.9534    2.7783    1.5789 H   0  0  0  0  0  0  0  0  0  0  0  0
   -6.2798    1.6027    1.5236 H   0  0  0  0  0  0  0  0  0  0  0  0
   -2.8502    2.3437    0.1198 H   0  0  0  0  0  0  0  0  0  0  0  0
   -3.8889    2.2736   -1.3010 H   0  0  0  0  0  0  0  0  0  0  0  0
   -1.5864    1.0834   -1.3818 H   0  0  0  0  0  0  0  0  0  0  0  0
   -2.9776    0.2578   -2.0641 H   0  0  0  0  0  0  0  0  0  0  0  0
    2.7835    0.9143    0.4313 H   0  0  0  0  0  0  0  0  0  0  0  0
  1  2  1  0
  2  3  1  0
  3  4  2  0
  4  5  1  0
  5  6  2  0
  6  7  1  0
  7  8  1  0
  8  9  2  0
  9 10  1  0
 10 11  2  0
 10 12  1  0
 12 13  1  0
 13 14  1  0
 14 15  1  0
 15 16  1  0
 16 17  1  0
 16 18  1  0
 18 19  1  0
  9 20  1  0
 20 21  2  0
 21  3  1  0
 20  6  1  0
 19 13  1  0
  1 22  1  0
  1 23  1  0
  1 24  1  0
  4 25  1  0
  5 26  1  0
  7 27  1  0
  8 28  1  0
 12 29  1  0
 12 30  1  0
 14 31  1  0
 14 32  1  0
 15 33  1  0
 15 34  1  0
 16 35  1  0
 17 36  1  0
 17 37  1  0
 17 38  1  0
 18 39  1  0
 18 40  1  0
 19 41  1  0
 19 42  1  0
 21 43  1  0
M  END
$$$$
