
     RDKit          3D

 50 51  0  0  0  0  0  0  0  0999 V2000
    6.7194    2.0120   -0.3624 C   0  0  0  0  0  0  0  0  0  0  0  0
    5.6005    1.0130   -0.4085 C   0  0  0  0  0  0  0  0  0  0  0  0
    4.5176    1.2026   -1.2749 C   0  0  0  0  0  0  0  0  0  0  0  0
    3.4900    0.2589   -1.3404 C   0  0  0  0  0  0  0  0  0  0  0  0
    3.5348   -0.8890   -0.5417 C   0  0  0  0  0  0  0  0  0  0  0  0
    2.4560   -1.8734   -0.6061 C   0  0  0  0  0  0  0  0  0  0  0  0
    2.5036   -2.9301   -1.4272 C   0  0  0  0  0  0  0  0  0  0  0  0
    1.0760   -3.9019   -1.3079 S   0  0  0  0  0  0  0  0  0  0  0  0
    0.3699   -2.8054   -0.1043 C   0  0  0  0  0  0  0  0  0  0  0  0
   -1.1570   -3.0081    0.5290 S   0  0  0  0  0  0  0  0  0  0  0  0
    1.2950   -1.7912    0.1571 N   0  0  0  0  0  0  0  0  0  0  0  0
    1.0486   -0.6822    1.0919 C   0  0  0  0  0  0  0  0  0  0  0  0
    0.3435    0.5259    0.4822 C   0  0  0  0  0  0  0  0  0  0  0  0
    0.1475    1.5652    1.1000 O   0  0  0  0  0  0  0  0  0  0  0  0
   -0.0725    0.2990   -0.7952 O   0  0  0  0  0  0  0  0  0  0  0  0
   -0.7584    1.3914   -1.4097 C   0  0  0  0  0  0  0  0  0  0  0  0
   -2.2345    1.5127   -1.0246 C   0  0  0  0  0  0  0  0  0  0  0  0
   -2.8481    2.5706   -1.1349 O   0  0  0  0  0  0  0  0  0  0  0  0
   -2.8163    0.3289   -0.6205 N   0  0  0  0  0  0  0  0  0  0  0  0
   -4.2122    0.2312   -0.1999 C   0  0  0  0  0  0  0  0  0  0  0  0
   -4.8734   -0.8914   -1.0016 C   0  0  0  0  0  0  0  0  0  0  0  0
   -4.3078    0.0176    1.3340 C   0  0  0  0  0  0  0  0  0  0  0  0
   -5.7530   -0.1714    1.8071 C   0  0  0  0  0  0  0  0  0  0  0  0
   -3.6847    1.1894    2.1041 C   0  0  0  0  0  0  0  0  0  0  0  0
    4.6278   -1.0929    0.3076 C   0  0  0  0  0  0  0  0  0  0  0  0
    5.6552   -0.1486    0.3710 C   0  0  0  0  0  0  0  0  0  0  0  0
    7.1871    2.0294    0.6275 H   0  0  0  0  0  0  0  0  0  0  0  0
    7.4787    1.7576   -1.1082 H   0  0  0  0  0  0  0  0  0  0  0  0
    6.3487    3.0225   -0.5640 H   0  0  0  0  0  0  0  0  0  0  0  0
    4.4682    2.0884   -1.9050 H   0  0  0  0  0  0  0  0  0  0  0  0
    2.6581    0.4268   -2.0210 H   0  0  0  0  0  0  0  0  0  0  0  0
    3.3148   -3.1693   -2.1024 H   0  0  0  0  0  0  0  0  0  0  0  0
    1.9961   -0.3489    1.5259 H   0  0  0  0  0  0  0  0  0  0  0  0
    0.4216   -1.0421    1.9136 H   0  0  0  0  0  0  0  0  0  0  0  0
   -0.7174    1.2304   -2.4922 H   0  0  0  0  0  0  0  0  0  0  0  0
   -0.2476    2.3383   -1.1993 H   0  0  0  0  0  0  0  0  0  0  0  0
   -2.2311   -0.4945   -0.5312 H   0  0  0  0  0  0  0  0  0  0  0  0
   -4.7210    1.1684   -0.4571 H   0  0  0  0  0  0  0  0  0  0  0  0
   -4.4624   -1.8694   -0.7286 H   0  0  0  0  0  0  0  0  0  0  0  0
   -5.9558   -0.9151   -0.8449 H   0  0  0  0  0  0  0  0  0  0  0  0
   -4.7034   -0.7515   -2.0753 H   0  0  0  0  0  0  0  0  0  0  0  0
   -3.7470   -0.8870    1.6025 H   0  0  0  0  0  0  0  0  0  0  0  0
   -5.8001   -0.2408    2.8994 H   0  0  0  0  0  0  0  0  0  0  0  0
   -6.1851   -1.0955    1.4114 H   0  0  0  0  0  0  0  0  0  0  0  0
   -6.3849    0.6666    1.4943 H   0  0  0  0  0  0  0  0  0  0  0  0
   -2.6155    1.2826    1.8930 H   0  0  0  0  0  0  0  0  0  0  0  0
   -4.1693    2.1366    1.8441 H   0  0  0  0  0  0  0  0  0  0  0  0
   -3.7867    1.0432    3.1850 H   0  0  0  0  0  0  0  0  0  0  0  0
    4.6871   -1.9851    0.9273 H   0  0  0  0  0  0  0  0  0  0  0  0
    6.4994   -0.3243    1.0348 H   0  0  0  0  0  0  0  0  0  0  0  0
  1  2  1  0
  2  3  2  0
  3  4  1  0
  4  5  2  0
  5  6  1  0
  6  7  2  0
  7  8  1  0
  8  9  1  0
  9 10  2  0
  9 11  1  0
 11 12  1  0
 12 13  1  0
 13 14  2  0
 13 15  1  0
 15 16  1  0
 16 17  1  0
 17 18  2  0
 17 19  1  0
 19 20  1  0
 20 21  1  0
 20 22  1  0
 22 23  1  0
 22 24  1  0
  5 25  1  0
 25 26  2  0
 26  2  1  0
 11  6  1  0
  1 27  1  0
  1 28  1  0
  1 29  1  0
  3 30  1  0
  4 31  1  0
  7 32  1  0
 12 33  1  0
 12 34  1  0
 16 35  1  0
 16 36  1  0
 19 37  1  0
 20 38  1  0
 21 39  1  0
 21 40  1  0
 21 41  1  0
 22 42  1  0
 23 43  1  0
 23 44  1  0
 23 45  1  0
 24 46  1  0
 24 47  1  0
 24 48  1  0
 25 49  1  0
 26 50  1  0
M  END
$$$$
