
     RDKit          3D

 46 49  0  0  0  0  0  0  0  0999 V2000
   -4.5711    0.1676   -2.1339 C   0  0  0  0  0  0  0  0  0  0  0  0
   -4.5362   -1.1785   -1.4309 C   0  0  0  0  0  0  0  0  0  0  0  0
   -3.8745   -1.2216   -0.0334 C   0  0  0  0  0  0  0  0  0  0  0  0
   -4.7495   -0.6317    1.0840 C   0  0  0  0  0  0  0  0  0  0  0  0
   -4.7236    0.8890    1.1889 C   0  0  0  0  0  0  0  0  0  0  0  0
   -3.3928    1.5038    0.7715 C   0  0  0  0  0  0  0  0  0  0  0  0
   -2.2428    0.5072    0.8007 C   0  0  0  0  0  0  0  0  0  0  0  0
   -2.5002   -0.6913   -0.0037 N   0  0  0  0  0  0  0  0  0  0  0  0
   -1.4827   -1.4671   -0.5917 C   0  0  0  0  0  0  0  0  0  0  0  0
   -1.7504   -2.4677   -1.2567 O   0  0  0  0  0  0  0  0  0  0  0  0
   -0.1051   -1.0639   -0.3682 C   0  0  0  0  0  0  0  0  0  0  0  0
    0.5932   -0.9484    0.8187 C   0  0  0  0  0  0  0  0  0  0  0  0
    1.9421   -0.5383    0.6022 C   0  0  0  0  0  0  0  0  0  0  0  0
    2.9881   -0.2926    1.5726 C   0  0  0  0  0  0  0  0  0  0  0  0
    2.7735   -0.4098    2.7781 O   0  0  0  0  0  0  0  0  0  0  0  0
    4.2195    0.0877    1.0108 N   0  0  0  0  0  0  0  0  0  0  0  0
    5.2844    0.3384    1.8700 C   0  0  0  0  0  0  0  0  0  0  0  0
    6.4871    0.7091    1.4201 C   0  0  0  0  0  0  0  0  0  0  0  0
    6.7118    0.8604    0.0102 C   0  0  0  0  0  0  0  0  0  0  0  0
    5.7320    0.6363   -0.8787 C   0  0  0  0  0  0  0  0  0  0  0  0
    5.9166    0.7788   -2.3574 C   0  0  0  0  0  0  0  0  0  0  0  0
    4.3717    0.2178   -0.3833 C   0  0  0  0  0  0  0  0  0  0  0  0
    3.4228    0.0026   -1.2508 N   0  0  0  0  0  0  0  0  0  0  0  0
    2.2343   -0.3755   -0.7289 C   0  0  0  0  0  0  0  0  0  0  0  0
    0.8902   -0.7224   -1.7199 S   0  0  0  0  0  0  0  0  0  0  0  0
   -4.9884    0.0476   -3.1396 H   0  0  0  0  0  0  0  0  0  0  0  0
   -3.5682    0.5895   -2.2446 H   0  0  0  0  0  0  0  0  0  0  0  0
   -5.2061    0.8831   -1.6081 H   0  0  0  0  0  0  0  0  0  0  0  0
   -4.0139   -1.8769   -2.0954 H   0  0  0  0  0  0  0  0  0  0  0  0
   -5.5618   -1.5606   -1.3521 H   0  0  0  0  0  0  0  0  0  0  0  0
   -3.7874   -2.2921    0.2048 H   0  0  0  0  0  0  0  0  0  0  0  0
   -4.3803   -1.0316    2.0392 H   0  0  0  0  0  0  0  0  0  0  0  0
   -5.7843   -0.9834    0.9972 H   0  0  0  0  0  0  0  0  0  0  0  0
   -4.9456    1.1691    2.2263 H   0  0  0  0  0  0  0  0  0  0  0  0
   -5.5307    1.3263    0.5904 H   0  0  0  0  0  0  0  0  0  0  0  0
   -3.4850    1.9151   -0.2397 H   0  0  0  0  0  0  0  0  0  0  0  0
   -3.1630    2.3573    1.4203 H   0  0  0  0  0  0  0  0  0  0  0  0
   -1.3407    1.0132    0.4446 H   0  0  0  0  0  0  0  0  0  0  0  0
   -2.0577    0.1755    1.8292 H   0  0  0  0  0  0  0  0  0  0  0  0
    0.1656   -1.1526    1.7936 H   0  0  0  0  0  0  0  0  0  0  0  0
    5.1007    0.2196    2.9353 H   0  0  0  0  0  0  0  0  0  0  0  0
    7.3081    0.9001    2.1039 H   0  0  0  0  0  0  0  0  0  0  0  0
    7.7048    1.1622   -0.3104 H   0  0  0  0  0  0  0  0  0  0  0  0
    6.9374    1.0842   -2.6115 H   0  0  0  0  0  0  0  0  0  0  0  0
    5.7219   -0.1724   -2.8636 H   0  0  0  0  0  0  0  0  0  0  0  0
    5.2364    1.5367   -2.7594 H   0  0  0  0  0  0  0  0  0  0  0  0
  1  2  1  0
  2  3  1  0
  3  4  1  0
  4  5  1  0
  5  6  1  0
  6  7  1  0
  7  8  1  0
  8  9  1  0
  9 10  2  0
  9 11  1  0
 11 12  2  0
 12 13  1  0
 13 14  1  0
 14 15  2  0
 14 16  1  0
 16 17  1  0
 17 18  2  0
 18 19  1  0
 19 20  2  0
 20 21  1  0
 20 22  1  0
 22 23  2  0
 23 24  1  0
 24 25  1  0
  8  3  1  0
 25 11  1  0
 24 13  2  0
 22 16  1  0
  1 26  1  0
  1 27  1  0
  1 28  1  0
  2 29  1  0
  2 30  1  0
  3 31  1  0
  4 32  1  0
  4 33  1  0
  5 34  1  0
  5 35  1  0
  6 36  1  0
  6 37  1  0
  7 38  1  0
  7 39  1  0
 12 40  1  0
 17 41  1  0
 18 42  1  0
 19 43  1  0
 21 44  1  0
 21 45  1  0
 21 46  1  0
M  END
$$$$
