
     RDKit          3D

 47 48  0  0  0  0  0  0  0  0999 V2000
    5.4192   -2.1998    2.2377 C   0  0  0  0  0  0  0  0  0  0  0  0
    5.3867   -0.7013    2.4808 C   0  0  0  0  0  0  0  0  0  0  0  0
    4.9533   -0.0128    1.2984 O   0  0  0  0  0  0  0  0  0  0  0  0
    3.6073    0.1432    1.1528 C   0  0  0  0  0  0  0  0  0  0  0  0
    2.7797   -0.3101    1.9326 O   0  0  0  0  0  0  0  0  0  0  0  0
    3.2323    0.9180   -0.0323 C   0  0  0  0  0  0  0  0  0  0  0  0
    4.0892    1.4587   -0.9907 C   0  0  0  0  0  0  0  0  0  0  0  0
    5.5698    1.3970   -1.1426 C   0  0  0  0  0  0  0  0  0  0  0  0
    3.3296    2.1628   -1.8920 N   0  0  0  0  0  0  0  0  0  0  0  0
    2.0049    2.0954   -1.5533 C   0  0  0  0  0  0  0  0  0  0  0  0
    0.9604    2.7673   -2.3767 C   0  0  0  0  0  0  0  0  0  0  0  0
    1.8965    1.3054   -0.4149 C   0  0  0  0  0  0  0  0  0  0  0  0
    0.6164    0.9888    0.2302 C   0  0  0  0  0  0  0  0  0  0  0  0
   -0.1483    1.8885    0.5822 O   0  0  0  0  0  0  0  0  0  0  0  0
    0.2222   -0.4862    0.3673 C   0  0  0  0  0  0  0  0  0  0  0  0
   -1.1936   -0.6951    0.2985 O   0  0  0  0  0  0  0  0  0  0  0  0
   -1.7337   -0.4376   -0.9165 C   0  0  0  0  0  0  0  0  0  0  0  0
   -1.1122   -0.1493   -1.9308 O   0  0  0  0  0  0  0  0  0  0  0  0
   -3.2096   -0.5396   -0.9027 C   0  0  0  0  0  0  0  0  0  0  0  0
   -3.9297   -0.9235    0.1647 C   0  0  0  0  0  0  0  0  0  0  0  0
   -5.3968   -1.0138    0.1756 C   0  0  0  0  0  0  0  0  0  0  0  0
   -6.0047   -2.0256    0.9336 C   0  0  0  0  0  0  0  0  0  0  0  0
   -7.3979   -2.1242    1.0037 C   0  0  0  0  0  0  0  0  0  0  0  0
   -8.1936   -1.2037    0.3222 C   0  0  0  0  0  0  0  0  0  0  0  0
   -9.9095   -1.3201    0.4120 Cl  0  0  0  0  0  0  0  0  0  0  0  0
   -7.6065   -0.1840   -0.4245 C   0  0  0  0  0  0  0  0  0  0  0  0
   -6.2112   -0.0860   -0.4917 C   0  0  0  0  0  0  0  0  0  0  0  0
    4.4262   -2.5832    1.9768 H   0  0  0  0  0  0  0  0  0  0  0  0
    5.7810   -2.7284    3.1265 H   0  0  0  0  0  0  0  0  0  0  0  0
    6.0815   -2.4360    1.3975 H   0  0  0  0  0  0  0  0  0  0  0  0
    4.7652   -0.4403    3.3451 H   0  0  0  0  0  0  0  0  0  0  0  0
    6.4000   -0.3508    2.7016 H   0  0  0  0  0  0  0  0  0  0  0  0
    5.9052    0.3589   -1.2125 H   0  0  0  0  0  0  0  0  0  0  0  0
    6.0625    1.8706   -0.2871 H   0  0  0  0  0  0  0  0  0  0  0  0
    5.9036    1.9163   -2.0467 H   0  0  0  0  0  0  0  0  0  0  0  0
    3.6956    2.6635   -2.6906 H   0  0  0  0  0  0  0  0  0  0  0  0
    0.1449    3.1468   -1.7532 H   0  0  0  0  0  0  0  0  0  0  0  0
    1.3772    3.6171   -2.9282 H   0  0  0  0  0  0  0  0  0  0  0  0
    0.5418    2.0615   -3.1020 H   0  0  0  0  0  0  0  0  0  0  0  0
    0.5317   -0.8394    1.3518 H   0  0  0  0  0  0  0  0  0  0  0  0
    0.7255   -1.0990   -0.3914 H   0  0  0  0  0  0  0  0  0  0  0  0
   -3.6745   -0.2757   -1.8479 H   0  0  0  0  0  0  0  0  0  0  0  0
   -3.4367   -1.2040    1.0947 H   0  0  0  0  0  0  0  0  0  0  0  0
   -5.3980   -2.7501    1.4753 H   0  0  0  0  0  0  0  0  0  0  0  0
   -7.8527   -2.9165    1.5930 H   0  0  0  0  0  0  0  0  0  0  0  0
   -8.2254    0.5429   -0.9493 H   0  0  0  0  0  0  0  0  0  0  0  0
   -5.7746    0.7333   -1.0595 H   0  0  0  0  0  0  0  0  0  0  0  0
  1  2  1  0
  2  3  1  0
  3  4  1  0
  4  5  2  0
  4  6  1  0
  6  7  2  0
  7  8  1  0
  7  9  1  0
  9 10  1  0
 10 11  1  0
 10 12  2  0
 12 13  1  0
 13 14  2  0
 13 15  1  0
 15 16  1  0
 16 17  1  0
 17 18  2  0
 17 19  1  0
 19 20  2  3
 20 21  1  0
 21 22  2  0
 22 23  1  0
 23 24  2  0
 24 25  1  0
 24 26  1  0
 26 27  2  0
 12  6  1  0
 27 21  1  0
  1 28  1  0
  1 29  1  0
  1 30  1  0
  2 31  1  0
  2 32  1  0
  8 33  1  0
  8 34  1  0
  8 35  1  0
  9 36  1  0
 11 37  1  0
 11 38  1  0
 11 39  1  0
 15 40  1  0
 15 41  1  0
 19 42  1  0
 20 43  1  0
 22 44  1  0
 23 45  1  0
 26 46  1  0
 27 47  1  0
M  END
$$$$
