
     RDKit          3D

 49 52  0  0  0  0  0  0  0  0999 V2000
   -5.4806    1.8637   -0.0765 C   0  0  0  0  0  0  0  0  0  0  0  0
   -4.5372    2.7426    0.7236 C   0  0  0  0  0  0  0  0  0  0  0  0
   -3.5428    1.9361    1.3733 O   0  0  0  0  0  0  0  0  0  0  0  0
   -2.4416    1.6354    0.6228 C   0  0  0  0  0  0  0  0  0  0  0  0
   -2.2420    2.0305   -0.5166 O   0  0  0  0  0  0  0  0  0  0  0  0
   -1.4991    0.7777    1.4412 C   0  0  0  0  0  0  0  0  0  0  0  0
   -0.5198   -0.0245    0.6076 C   0  0  0  0  0  0  0  0  0  0  0  0
    0.7808    0.5232    0.5447 C   0  0  0  0  0  0  0  0  0  0  0  0
    1.7723   -0.1114   -0.1771 C   0  0  0  0  0  0  0  0  0  0  0  0
    3.1549    0.3963   -0.2859 C   0  0  0  0  0  0  0  0  0  0  0  0
    3.9025    0.1938   -1.4584 C   0  0  0  0  0  0  0  0  0  0  0  0
    5.2119    0.6719   -1.5808 C   0  0  0  0  0  0  0  0  0  0  0  0
    5.8175    1.3620   -0.5323 C   0  0  0  0  0  0  0  0  0  0  0  0
    7.0970    1.7748   -0.7794 O   0  0  0  0  0  0  0  0  0  0  0  0
    7.7592    2.4767    0.2646 C   0  0  0  0  0  0  0  0  0  0  0  0
    5.1002    1.5663    0.6439 C   0  0  0  0  0  0  0  0  0  0  0  0
    3.7867    1.0873    0.7637 C   0  0  0  0  0  0  0  0  0  0  0  0
    1.5091   -1.2514   -0.8389 N   0  0  0  0  0  0  0  0  0  0  0  0
    0.2784   -1.7794   -0.8038 C   0  0  0  0  0  0  0  0  0  0  0  0
    0.1598   -2.9426   -1.5309 C   0  0  0  0  0  0  0  0  0  0  0  0
   -1.0347   -3.6398   -1.6202 C   0  0  0  0  0  0  0  0  0  0  0  0
   -2.1688   -3.1762   -0.9691 C   0  0  0  0  0  0  0  0  0  0  0  0
   -3.3501   -3.9273   -1.1041 C   0  0  0  0  0  0  0  0  0  0  0  0
   -4.5288   -3.5314   -0.4894 C   0  0  0  0  0  0  0  0  0  0  0  0
   -4.5308   -2.3763    0.2668 C   0  0  0  0  0  0  0  0  0  0  0  0
   -3.3540   -1.6264    0.4045 C   0  0  0  0  0  0  0  0  0  0  0  0
   -2.1151   -1.9798   -0.1996 C   0  0  0  0  0  0  0  0  0  0  0  0
   -0.8354   -1.2417   -0.1029 C   0  0  0  0  0  0  0  0  0  0  0  0
   -4.9467    1.3370   -0.8737 H   0  0  0  0  0  0  0  0  0  0  0  0
   -5.9297    1.0982    0.5650 H   0  0  0  0  0  0  0  0  0  0  0  0
   -6.2790    2.4605   -0.5263 H   0  0  0  0  0  0  0  0  0  0  0  0
   -5.0949    3.2584    1.5121 H   0  0  0  0  0  0  0  0  0  0  0  0
   -4.0774    3.5152    0.0969 H   0  0  0  0  0  0  0  0  0  0  0  0
   -2.0347    0.1110    2.1220 H   0  0  0  0  0  0  0  0  0  0  0  0
   -0.9574    1.4669    2.1031 H   0  0  0  0  0  0  0  0  0  0  0  0
    1.0019    1.4615    1.0457 H   0  0  0  0  0  0  0  0  0  0  0  0
    3.4599   -0.3430   -2.2964 H   0  0  0  0  0  0  0  0  0  0  0  0
    5.7603    0.5001   -2.5036 H   0  0  0  0  0  0  0  0  0  0  0  0
    7.8707    1.8481    1.1543 H   0  0  0  0  0  0  0  0  0  0  0  0
    8.7624    2.7335   -0.0890 H   0  0  0  0  0  0  0  0  0  0  0  0
    7.2409    3.4115    0.5027 H   0  0  0  0  0  0  0  0  0  0  0  0
    5.5303    2.0884    1.4919 H   0  0  0  0  0  0  0  0  0  0  0  0
    3.2696    1.2480    1.7070 H   0  0  0  0  0  0  0  0  0  0  0  0
    1.0329   -3.3282   -2.0548 H   0  0  0  0  0  0  0  0  0  0  0  0
   -1.0581   -4.5516   -2.2133 H   0  0  0  0  0  0  0  0  0  0  0  0
   -3.3604   -4.8385   -1.7001 H   0  0  0  0  0  0  0  0  0  0  0  0
   -5.4344   -4.1198   -0.6039 H   0  0  0  0  0  0  0  0  0  0  0  0
   -5.4442   -2.0455    0.7550 H   0  0  0  0  0  0  0  0  0  0  0  0
   -3.4612   -0.7420    1.0113 H   0  0  0  0  0  0  0  0  0  0  0  0
  1  2  1  0
  2  3  1  0
  3  4  1  0
  4  5  2  0
  4  6  1  0
  6  7  1  0
  7  8  2  0
  8  9  1  0
  9 10  1  0
 10 11  2  0
 11 12  1  0
 12 13  2  0
 13 14  1  0
 14 15  1  0
 13 16  1  0
 16 17  2  0
  9 18  2  0
 18 19  1  0
 19 20  2  0
 20 21  1  0
 21 22  2  0
 22 23  1  0
 23 24  2  0
 24 25  1  0
 25 26  2  0
 26 27  1  0
 27 28  2  0
 28  7  1  0
 17 10  1  0
 28 19  1  0
 27 22  1  0
  1 29  1  0
  1 30  1  0
  1 31  1  0
  2 32  1  0
  2 33  1  0
  6 34  1  0
  6 35  1  0
  8 36  1  0
 11 37  1  0
 12 38  1  0
 15 39  1  0
 15 40  1  0
 15 41  1  0
 16 42  1  0
 17 43  1  0
 20 44  1  0
 21 45  1  0
 23 46  1  0
 24 47  1  0
 25 48  1  0
 26 49  1  0
M  END
$$$$
