
     RDKit          3D

 66 69  0  0  0  0  0  0  0  0999 V2000
   -1.0678    7.5290   -0.8732 C   0  0  0  0  0  0  0  0  0  0  0  0
   -0.8836    6.1835   -0.4313 O   0  0  0  0  0  0  0  0  0  0  0  0
   -1.0060    5.2601   -1.4177 C   0  0  0  0  0  0  0  0  0  0  0  0
   -1.2515    5.4957   -2.5898 O   0  0  0  0  0  0  0  0  0  0  0  0
   -0.7980    3.8868   -0.8822 C   0  0  0  0  0  0  0  0  0  0  0  0
   -0.5156    3.6386    0.4667 C   0  0  0  0  0  0  0  0  0  0  0  0
   -0.3263    2.3283    0.9184 C   0  0  0  0  0  0  0  0  0  0  0  0
   -0.4061    1.2449    0.0286 C   0  0  0  0  0  0  0  0  0  0  0  0
   -0.2245   -0.1885    0.4934 C   0  0  0  0  0  0  0  0  0  0  0  0
   -1.4868   -0.7110    1.2123 C   0  0  0  0  0  0  0  0  0  0  0  0
   -2.4674   -1.3393    0.2540 C   0  0  0  0  0  0  0  0  0  0  0  0
   -2.1134   -1.7263   -0.8595 O   0  0  0  0  0  0  0  0  0  0  0  0
   -3.9037   -1.4814    0.6481 C   0  0  0  0  0  0  0  0  0  0  0  0
   -4.3571   -1.2803    1.9556 C   0  0  0  0  0  0  0  0  0  0  0  0
   -5.7147   -1.4215    2.2539 C   0  0  0  0  0  0  0  0  0  0  0  0
   -6.6281   -1.7646    1.2541 C   0  0  0  0  0  0  0  0  0  0  0  0
   -6.1880   -1.9739   -0.0515 C   0  0  0  0  0  0  0  0  0  0  0  0
   -6.9718   -2.3161   -1.1184 O   0  0  0  0  0  0  0  0  0  0  0  0
   -8.3566   -2.5163   -0.8645 C   0  0  0  0  0  0  0  0  0  0  0  0
   -4.8287   -1.8313   -0.3470 C   0  0  0  0  0  0  0  0  0  0  0  0
   -0.8797   -1.6820    2.1712 C   0  0  0  0  0  0  0  0  0  0  0  0
   -1.4648   -2.5388    2.8061 O   0  0  0  0  0  0  0  0  0  0  0  0
    0.6069   -1.3871    2.3131 C   0  0  0  0  0  0  0  0  0  0  0  0
    1.3588   -1.9652    3.0675 O   0  0  0  0  0  0  0  0  0  0  0  0
    0.8848   -0.3640    1.4275 N   0  0  0  0  0  0  0  0  0  0  0  0
    2.2637   -0.0330    1.0844 C   0  0  0  0  0  0  0  0  0  0  0  0
    2.8670   -0.9758    0.0412 C   0  0  0  0  0  0  0  0  0  0  0  0
    4.3509   -0.6557   -0.1806 C   0  0  0  0  0  0  0  0  0  0  0  0
    4.9198   -1.3904   -1.3196 N   0  0  0  0  0  0  0  0  0  0  0  0
    6.2503   -0.8555   -1.6949 C   0  0  0  0  0  0  0  0  0  0  0  0
    7.3764   -1.2411   -0.7208 C   0  0  0  0  0  0  0  0  0  0  0  0
    7.4674   -2.6614   -0.5670 O   0  0  0  0  0  0  0  0  0  0  0  0
    6.2204   -3.2054   -0.1174 C   0  0  0  0  0  0  0  0  0  0  0  0
    5.0710   -2.8431   -1.0742 C   0  0  0  0  0  0  0  0  0  0  0  0
   -0.6998    1.5008   -1.3189 C   0  0  0  0  0  0  0  0  0  0  0  0
   -0.8919    2.8091   -1.7708 C   0  0  0  0  0  0  0  0  0  0  0  0
   -2.0682    7.6611   -1.2965 H   0  0  0  0  0  0  0  0  0  0  0  0
   -0.2976    7.8005   -1.6020 H   0  0  0  0  0  0  0  0  0  0  0  0
   -0.9704    8.1870   -0.0056 H   0  0  0  0  0  0  0  0  0  0  0  0
   -0.4383    4.4566    1.1792 H   0  0  0  0  0  0  0  0  0  0  0  0
   -0.1043    2.1633    1.9714 H   0  0  0  0  0  0  0  0  0  0  0  0
    0.0248   -0.8172   -0.3711 H   0  0  0  0  0  0  0  0  0  0  0  0
   -1.9599    0.0939    1.7856 H   0  0  0  0  0  0  0  0  0  0  0  0
   -3.6837   -1.0377    2.7720 H   0  0  0  0  0  0  0  0  0  0  0  0
   -6.0628   -1.2734    3.2740 H   0  0  0  0  0  0  0  0  0  0  0  0
   -7.6730   -1.8665    1.5298 H   0  0  0  0  0  0  0  0  0  0  0  0
   -8.5144   -3.3303   -0.1489 H   0  0  0  0  0  0  0  0  0  0  0  0
   -8.8319   -1.5912   -0.5224 H   0  0  0  0  0  0  0  0  0  0  0  0
   -8.8303   -2.8055   -1.8073 H   0  0  0  0  0  0  0  0  0  0  0  0
   -4.4957   -1.9989   -1.3704 H   0  0  0  0  0  0  0  0  0  0  0  0
    2.2988    1.0035    0.7343 H   0  0  0  0  0  0  0  0  0  0  0  0
    2.8560   -0.0852    2.0061 H   0  0  0  0  0  0  0  0  0  0  0  0
    2.3200   -0.8749   -0.9040 H   0  0  0  0  0  0  0  0  0  0  0  0
    2.7420   -2.0120    0.3745 H   0  0  0  0  0  0  0  0  0  0  0  0
    4.4235    0.4196   -0.3893 H   0  0  0  0  0  0  0  0  0  0  0  0
    4.9102   -0.8327    0.7450 H   0  0  0  0  0  0  0  0  0  0  0  0
    6.4967   -1.2579   -2.6860 H   0  0  0  0  0  0  0  0  0  0  0  0
    6.2089    0.2334   -1.8127 H   0  0  0  0  0  0  0  0  0  0  0  0
    8.3365   -0.8922   -1.1129 H   0  0  0  0  0  0  0  0  0  0  0  0
    7.2376   -0.7797    0.2630 H   0  0  0  0  0  0  0  0  0  0  0  0
    6.0244   -2.8600    0.9033 H   0  0  0  0  0  0  0  0  0  0  0  0
    6.3346   -4.2931   -0.0783 H   0  0  0  0  0  0  0  0  0  0  0  0
    5.2766   -3.3109   -2.0463 H   0  0  0  0  0  0  0  0  0  0  0  0
    4.1357   -3.2914   -0.7251 H   0  0  0  0  0  0  0  0  0  0  0  0
   -0.7852    0.6817   -2.0333 H   0  0  0  0  0  0  0  0  0  0  0  0
   -1.1158    2.9820   -2.8228 H   0  0  0  0  0  0  0  0  0  0  0  0
  1  2  1  0
  2  3  1  0
  3  4  2  0
  3  5  1  0
  5  6  2  0
  6  7  1  0
  7  8  2  0
  8  9  1  0
  9 10  1  0
 10 11  1  0
 11 12  2  0
 11 13  1  0
 13 14  2  0
 14 15  1  0
 15 16  2  0
 16 17  1  0
 17 18  1  0
 18 19  1  0
 17 20  2  0
 10 21  1  0
 21 22  2  0
 21 23  1  0
 23 24  2  0
 23 25  1  0
 25 26  1  0
 26 27  1  0
 27 28  1  0
 28 29  1  0
 29 30  1  0
 30 31  1  0
 31 32  1  0
 32 33  1  0
 33 34  1  0
  8 35  1  0
 35 36  2  0
 36  5  1  0
 25  9  1  0
 34 29  1  0
 20 13  1  0
  1 37  1  0
  1 38  1  0
  1 39  1  0
  6 40  1  0
  7 41  1  0
  9 42  1  0
 10 43  1  0
 14 44  1  0
 15 45  1  0
 16 46  1  0
 19 47  1  0
 19 48  1  0
 19 49  1  0
 20 50  1  0
 26 51  1  0
 26 52  1  0
 27 53  1  0
 27 54  1  0
 28 55  1  0
 28 56  1  0
 30 57  1  0
 30 58  1  0
 31 59  1  0
 31 60  1  0
 33 61  1  0
 33 62  1  0
 34 63  1  0
 34 64  1  0
 35 65  1  0
 36 66  1  0
M  END
$$$$
