
     RDKit          3D

 46 49  0  0  0  0  0  0  0  0999 V2000
   -3.0367   -2.8613   -1.0958 O   0  0  0  0  0  0  0  0  0  0  0  0
   -2.3859   -1.8830   -0.7164 C   0  0  0  0  0  0  0  0  0  0  0  0
   -1.0336   -2.0569   -0.5544 N   0  0  0  0  0  0  0  0  0  0  0  0
   -0.1188   -1.1238   -0.0513 C   0  0  0  0  0  0  0  0  0  0  0  0
    1.2418   -1.4289   -0.1518 C   0  0  0  0  0  0  0  0  0  0  0  0
    2.1961   -0.5345    0.3433 C   0  0  0  0  0  0  0  0  0  0  0  0
    3.6277   -0.8979    0.2502 C   0  0  0  0  0  0  0  0  0  0  0  0
    3.9519   -2.0200    0.6308 O   0  0  0  0  0  0  0  0  0  0  0  0
    4.5351    0.0442   -0.2365 N   0  0  0  0  0  0  0  0  0  0  0  0
    4.1704    1.0330   -1.2610 C   0  0  0  0  0  0  0  0  0  0  0  0
    5.1834    2.1802   -1.3164 C   0  0  0  0  0  0  0  0  0  0  0  0
    6.5173    1.6845   -1.4929 O   0  0  0  0  0  0  0  0  0  0  0  0
    6.8812    0.8269   -0.4005 C   0  0  0  0  0  0  0  0  0  0  0  0
    5.9383   -0.3743   -0.3014 C   0  0  0  0  0  0  0  0  0  0  0  0
    1.7958    0.6368    0.9910 C   0  0  0  0  0  0  0  0  0  0  0  0
    0.4358    0.9303    1.1069 C   0  0  0  0  0  0  0  0  0  0  0  0
   -0.5273    0.0587    0.5802 C   0  0  0  0  0  0  0  0  0  0  0  0
   -2.2417    0.4389    0.8512 S   0  0  0  0  0  0  0  0  0  0  0  0
   -2.9720   -0.4536   -0.5598 C   0  0  0  0  0  0  0  0  0  0  0  0
   -4.4493   -0.4577   -0.5707 N   0  0  0  0  0  0  0  0  0  0  0  0
   -5.0951   -1.1934    0.5296 C   0  0  0  0  0  0  0  0  0  0  0  0
   -6.6071   -0.9138    0.5569 C   0  0  0  0  0  0  0  0  0  0  0  0
   -6.9257    0.4632    0.8022 O   0  0  0  0  0  0  0  0  0  0  0  0
   -5.8855    1.3648    0.4063 C   0  0  0  0  0  0  0  0  0  0  0  0
   -5.0668    0.8599   -0.7936 C   0  0  0  0  0  0  0  0  0  0  0  0
   -0.7063   -2.9787   -0.8196 H   0  0  0  0  0  0  0  0  0  0  0  0
    1.5744   -2.3566   -0.6128 H   0  0  0  0  0  0  0  0  0  0  0  0
    3.1665    1.4300   -1.1029 H   0  0  0  0  0  0  0  0  0  0  0  0
    4.1631    0.4957   -2.2175 H   0  0  0  0  0  0  0  0  0  0  0  0
    4.9568    2.8382   -2.1610 H   0  0  0  0  0  0  0  0  0  0  0  0
    5.1448    2.7831   -0.4013 H   0  0  0  0  0  0  0  0  0  0  0  0
    6.8718    1.4113    0.5272 H   0  0  0  0  0  0  0  0  0  0  0  0
    7.9069    0.4851   -0.5703 H   0  0  0  0  0  0  0  0  0  0  0  0
    6.1923   -0.9790    0.5758 H   0  0  0  0  0  0  0  0  0  0  0  0
    6.0396   -1.0070   -1.1918 H   0  0  0  0  0  0  0  0  0  0  0  0
    2.5336    1.3065    1.4263 H   0  0  0  0  0  0  0  0  0  0  0  0
    0.1324    1.8348    1.6312 H   0  0  0  0  0  0  0  0  0  0  0  0
   -2.6417    0.0673   -1.4691 H   0  0  0  0  0  0  0  0  0  0  0  0
   -4.9454   -2.2706    0.4110 H   0  0  0  0  0  0  0  0  0  0  0  0
   -4.6793   -0.9019    1.5007 H   0  0  0  0  0  0  0  0  0  0  0  0
   -7.0841   -1.5045    1.3458 H   0  0  0  0  0  0  0  0  0  0  0  0
   -7.0725   -1.2054   -0.3921 H   0  0  0  0  0  0  0  0  0  0  0  0
   -6.3595    2.3201    0.1583 H   0  0  0  0  0  0  0  0  0  0  0  0
   -5.2409    1.5421    1.2744 H   0  0  0  0  0  0  0  0  0  0  0  0
   -4.3336    1.6199   -1.0879 H   0  0  0  0  0  0  0  0  0  0  0  0
   -5.7483    0.7469   -1.6462 H   0  0  0  0  0  0  0  0  0  0  0  0
  1  2  2  0
  2  3  1  0
  3  4  1  0
  4  5  2  0
  5  6  1  0
  6  7  1  0
  7  8  2  0
  7  9  1  0
  9 10  1  0
 10 11  1  0
 11 12  1  0
 12 13  1  0
 13 14  1  0
  6 15  2  0
 15 16  1  0
 16 17  2  0
 17 18  1  0
 18 19  1  0
 19 20  1  0
 20 21  1  0
 21 22  1  0
 22 23  1  0
 23 24  1  0
 24 25  1  0
 19  2  1  0
 25 20  1  0
 17  4  1  0
 14  9  1  0
  3 26  1  0
  5 27  1  0
 10 28  1  0
 10 29  1  0
 11 30  1  0
 11 31  1  0
 13 32  1  0
 13 33  1  0
 14 34  1  0
 14 35  1  0
 15 36  1  0
 16 37  1  0
 19 38  1  0
 21 39  1  0
 21 40  1  0
 22 41  1  0
 22 42  1  0
 24 43  1  0
 24 44  1  0
 25 45  1  0
 25 46  1  0
M  END
$$$$
