
     RDKit          3D

 43 45  0  0  0  0  0  0  0  0999 V2000
    3.3056    2.4622   -2.4184 C   0  0  0  0  0  0  0  0  0  0  0  0
    2.7518    1.1459   -1.9308 C   0  0  0  0  0  0  0  0  0  0  0  0
    3.5120    0.4421   -0.8542 C   0  0  0  0  0  0  0  0  0  0  0  0
    3.0008   -0.7198   -0.4028 C   0  0  0  0  0  0  0  0  0  0  0  0
    3.7010   -1.4801    0.6816 C   0  0  0  0  0  0  0  0  0  0  0  0
    1.8083   -1.1891   -0.9853 N   0  0  0  0  0  0  0  0  0  0  0  0
    0.9820   -2.2779   -0.7838 C   0  0  0  0  0  0  0  0  0  0  0  0
    1.1118   -3.4293    0.5076 S   0  0  0  0  0  0  0  0  0  0  0  0
   -0.5213   -3.1462    1.2886 C   0  0  0  0  0  0  0  0  0  0  0  0
   -0.7048   -1.6522    1.5625 C   0  0  0  0  0  0  0  0  0  0  0  0
    0.1410   -1.0231    2.2076 O   0  0  0  0  0  0  0  0  0  0  0  0
   -1.7946   -0.9999    0.9890 N   0  0  0  0  0  0  0  0  0  0  0  0
   -2.9835   -1.6918    0.5034 C   0  0  0  0  0  0  0  0  0  0  0  0
   -1.7235    0.4640    0.8750 C   0  0  0  0  0  0  0  0  0  0  0  0
   -2.4023    1.0631   -0.3674 C   0  0  0  0  0  0  0  0  0  0  0  0
   -2.2722    2.5712   -0.2066 C   0  0  0  0  0  0  0  0  0  0  0  0
   -2.5204    2.8702    1.5374 S   0  0  0  0  0  6  0  0  0  0  0  0
   -3.8991    3.2621    1.7478 O   0  0  0  0  0  0  0  0  0  0  0  0
   -1.4108    3.6584    2.0312 O   0  0  0  0  0  0  0  0  0  0  0  0
   -2.3242    1.1821    2.0816 C   0  0  0  0  0  0  0  0  0  0  0  0
   -0.0308   -2.2555   -1.6190 N   0  0  0  0  0  0  0  0  0  0  0  0
    0.0852   -1.1259   -2.3822 N   0  0  0  0  0  0  0  0  0  0  0  0
    1.1700   -0.4762   -2.0079 C   0  0  0  0  0  0  0  0  0  0  0  0
    1.6520    0.7133   -2.4691 N   0  0  0  0  0  0  0  0  0  0  0  0
    4.2591    2.7013   -1.9398 H   0  0  0  0  0  0  0  0  0  0  0  0
    3.4574    2.4109   -3.5008 H   0  0  0  0  0  0  0  0  0  0  0  0
    2.5869    3.2568   -2.1963 H   0  0  0  0  0  0  0  0  0  0  0  0
    4.4220    0.8891   -0.4732 H   0  0  0  0  0  0  0  0  0  0  0  0
    3.0903   -1.5204    1.5891 H   0  0  0  0  0  0  0  0  0  0  0  0
    3.9472   -2.4950    0.3529 H   0  0  0  0  0  0  0  0  0  0  0  0
    4.6492   -1.0047    0.9610 H   0  0  0  0  0  0  0  0  0  0  0  0
   -0.5720   -3.6844    2.2393 H   0  0  0  0  0  0  0  0  0  0  0  0
   -1.2714   -3.5604    0.6153 H   0  0  0  0  0  0  0  0  0  0  0  0
   -2.9071   -1.8080   -0.5810 H   0  0  0  0  0  0  0  0  0  0  0  0
   -3.8747   -1.1109    0.7577 H   0  0  0  0  0  0  0  0  0  0  0  0
   -3.0937   -2.6710    0.9741 H   0  0  0  0  0  0  0  0  0  0  0  0
   -0.6602    0.7399    0.8166 H   0  0  0  0  0  0  0  0  0  0  0  0
   -1.9378    0.7190   -1.2966 H   0  0  0  0  0  0  0  0  0  0  0  0
   -3.4645    0.7962   -0.4088 H   0  0  0  0  0  0  0  0  0  0  0  0
   -3.0136    3.1230   -0.7876 H   0  0  0  0  0  0  0  0  0  0  0  0
   -1.2647    2.9090   -0.4659 H   0  0  0  0  0  0  0  0  0  0  0  0
   -1.6740    1.1505    2.9588 H   0  0  0  0  0  0  0  0  0  0  0  0
   -3.3124    0.7918    2.3410 H   0  0  0  0  0  0  0  0  0  0  0  0
  1  2  1  0
  2  3  1  0
  3  4  2  0
  4  5  1  0
  4  6  1  0
  6  7  1  0
  7  8  1  0
  8  9  1  0
  9 10  1  0
 10 11  2  0
 10 12  1  0
 12 13  1  0
 12 14  1  0
 14 15  1  0
 15 16  1  0
 16 17  1  0
 17 18  2  0
 17 19  2  0
 17 20  1  0
  7 21  2  0
 21 22  1  0
 22 23  2  0
 23 24  1  0
 24  2  2  0
 23  6  1  0
 20 14  1  0
  1 25  1  0
  1 26  1  0
  1 27  1  0
  3 28  1  0
  5 29  1  0
  5 30  1  0
  5 31  1  0
  9 32  1  0
  9 33  1  0
 13 34  1  0
 13 35  1  0
 13 36  1  0
 14 37  1  0
 15 38  1  0
 15 39  1  0
 16 40  1  0
 16 41  1  0
 20 42  1  0
 20 43  1  0
M  END
$$$$
