
     RDKit          3D

 63 67  0  0  0  0  0  0  0  0999 V2000
   -4.9634   -4.0415   -0.6115 Cl  0  0  0  0  0  0  0  0  0  0  0  0
   -4.1605   -2.9087    0.4000 C   0  0  0  0  0  0  0  0  0  0  0  0
   -4.7068   -1.6430    0.5959 C   0  0  0  0  0  0  0  0  0  0  0  0
   -4.0462   -0.7154    1.4073 C   0  0  0  0  0  0  0  0  0  0  0  0
   -2.8262   -1.0425    2.0281 C   0  0  0  0  0  0  0  0  0  0  0  0
   -2.1087   -0.0026    2.8800 C   0  0  0  0  0  0  0  0  0  0  0  0
   -2.0500   -0.2258    4.3872 C   0  0  0  0  0  0  0  0  0  0  0  0
   -2.7036   -1.2915    5.0313 C   0  0  0  0  0  0  0  0  0  0  0  0
   -2.6370   -1.4429    6.4212 C   0  0  0  0  0  0  0  0  0  0  0  0
   -1.9271   -0.5253    7.1891 C   0  0  0  0  0  0  0  0  0  0  0  0
   -1.8424   -0.7166    8.8943 Cl  0  0  0  0  0  0  0  0  0  0  0  0
   -1.2856    0.5485    6.5795 C   0  0  0  0  0  0  0  0  0  0  0  0
   -1.3560    0.7033    5.1922 C   0  0  0  0  0  0  0  0  0  0  0  0
   -0.7521    0.1777    2.3076 N   0  0  0  0  0  0  0  0  0  0  0  0
    0.4298   -0.4528    2.6824 C   0  0  0  0  0  0  0  0  0  0  0  0
    1.3993   -0.0207    1.8243 C   0  0  0  0  0  0  0  0  0  0  0  0
    0.7894    0.8538    0.9384 N   0  0  0  0  0  4  0  0  0  0  0  0
    1.4606    1.5359   -0.1850 C   0  0  0  0  0  0  0  0  0  0  0  0
    1.0498    1.0330   -1.5933 C   0  0  0  0  0  0  0  0  0  0  0  0
    1.9289    1.6599   -2.5379 O   0  0  0  0  0  0  0  0  0  0  0  0
    1.4675    1.5813   -3.8883 C   0  0  0  0  0  0  0  0  0  0  0  0
    2.4249    2.3636   -4.7491 C   0  0  0  0  0  0  0  0  0  0  0  0
    2.0906    3.6769   -5.1261 C   0  0  0  0  0  0  0  0  0  0  0  0
    2.9611    4.4376   -5.9102 C   0  0  0  0  0  0  0  0  0  0  0  0
    4.1777    3.8969   -6.3187 C   0  0  0  0  0  0  0  0  0  0  0  0
    5.2496    4.8383   -7.2793 Cl  0  0  0  0  0  0  0  0  0  0  0  0
    4.5334    2.6034   -5.9505 C   0  0  0  0  0  0  0  0  0  0  0  0
    3.6622    1.8417   -5.1663 C   0  0  0  0  0  0  0  0  0  0  0  0
    4.1682    0.2475   -4.7315 Cl  0  0  0  0  0  0  0  0  0  0  0  0
    1.1364   -0.4837   -1.6772 C   0  0  0  0  0  0  0  0  0  0  0  0
    2.3988   -1.1066   -1.7193 C   0  0  0  0  0  0  0  0  0  0  0  0
    2.5104   -2.4981   -1.7515 C   0  0  0  0  0  0  0  0  0  0  0  0
    1.3626   -3.2852   -1.7399 C   0  0  0  0  0  0  0  0  0  0  0  0
    1.4999   -4.9981   -1.7520 Cl  0  0  0  0  0  0  0  0  0  0  0  0
    0.1032   -2.6949   -1.7073 C   0  0  0  0  0  0  0  0  0  0  0  0
   -0.0089   -1.3028   -1.6777 C   0  0  0  0  0  0  0  0  0  0  0  0
   -1.6046   -0.6414   -1.6264 Cl  0  0  0  0  0  0  0  0  0  0  0  0
   -0.5099    0.9702    1.2513 C   0  0  0  0  0  0  0  0  0  0  0  0
   -2.3003   -2.3334    1.8264 C   0  0  0  0  0  0  0  0  0  0  0  0
   -2.9638   -3.2598    1.0175 C   0  0  0  0  0  0  0  0  0  0  0  0
   -5.6473   -1.3741    0.1184 H   0  0  0  0  0  0  0  0  0  0  0  0
   -4.5032    0.2632    1.5456 H   0  0  0  0  0  0  0  0  0  0  0  0
   -2.6221    0.9605    2.7436 H   0  0  0  0  0  0  0  0  0  0  0  0
   -3.2874   -2.0248    4.4771 H   0  0  0  0  0  0  0  0  0  0  0  0
   -3.1462   -2.2779    6.8981 H   0  0  0  0  0  0  0  0  0  0  0  0
   -0.7369    1.2712    7.1809 H   0  0  0  0  0  0  0  0  0  0  0  0
   -0.8595    1.5635    4.7446 H   0  0  0  0  0  0  0  0  0  0  0  0
    0.4333   -1.1390    3.5124 H   0  0  0  0  0  0  0  0  0  0  0  0
    2.4501   -0.2339    1.7216 H   0  0  0  0  0  0  0  0  0  0  0  0
    1.2456    2.6086   -0.1011 H   0  0  0  0  0  0  0  0  0  0  0  0
    2.5460    1.4400   -0.0491 H   0  0  0  0  0  0  0  0  0  0  0  0
    0.0364    1.3965   -1.7894 H   0  0  0  0  0  0  0  0  0  0  0  0
    1.4005    0.5418   -4.2264 H   0  0  0  0  0  0  0  0  0  0  0  0
    0.4609    2.0109   -3.9586 H   0  0  0  0  0  0  0  0  0  0  0  0
    1.1470    4.1207   -4.8128 H   0  0  0  0  0  0  0  0  0  0  0  0
    2.6862    5.4497   -6.1990 H   0  0  0  0  0  0  0  0  0  0  0  0
    5.4864    2.1909   -6.2727 H   0  0  0  0  0  0  0  0  0  0  0  0
    3.3109   -0.5091   -1.7439 H   0  0  0  0  0  0  0  0  0  0  0  0
    3.4945   -2.9613   -1.7950 H   0  0  0  0  0  0  0  0  0  0  0  0
   -0.7878   -3.3199   -1.7105 H   0  0  0  0  0  0  0  0  0  0  0  0
   -1.2387    1.5827    0.7329 H   0  0  0  0  0  0  0  0  0  0  0  0
   -1.3737   -2.6419    2.3055 H   0  0  0  0  0  0  0  0  0  0  0  0
   -2.5461   -4.2545    0.8759 H   0  0  0  0  0  0  0  0  0  0  0  0
  1  2  1  0
  2  3  2  0
  3  4  1  0
  4  5  2  0
  5  6  1  0
  6  7  1  0
  7  8  2  0
  8  9  1  0
  9 10  2  0
 10 11  1  0
 10 12  1  0
 12 13  2  0
  6 14  1  0
 14 15  1  0
 15 16  2  0
 16 17  1  0
 17 18  1  0
 18 19  1  0
 19 20  1  0
 20 21  1  0
 21 22  1  0
 22 23  2  0
 23 24  1  0
 24 25  2  0
 25 26  1  0
 25 27  1  0
 27 28  2  0
 28 29  1  0
 19 30  1  0
 30 31  2  0
 31 32  1  0
 32 33  2  0
 33 34  1  0
 33 35  1  0
 35 36  2  0
 36 37  1  0
 17 38  2  0
  5 39  1  0
 39 40  2  0
 40  2  1  0
 13  7  1  0
 38 14  1  0
 28 22  1  0
 36 30  1  0
  3 41  1  0
  4 42  1  0
  6 43  1  0
  8 44  1  0
  9 45  1  0
 12 46  1  0
 13 47  1  0
 15 48  1  0
 16 49  1  0
 18 50  1  0
 18 51  1  0
 19 52  1  0
 21 53  1  0
 21 54  1  0
 23 55  1  0
 24 56  1  0
 27 57  1  0
 31 58  1  0
 32 59  1  0
 35 60  1  0
 38 61  1  0
 39 62  1  0
 40 63  1  0
M  CHG  1  17   1
M  END
$$$$
