
     RDKit          3D

 40 41  0  0  0  0  0  0  0  0999 V2000
    1.7874    2.8305    2.8279 C   0  0  0  0  0  0  0  0  0  0  0  0
    0.5402    2.0896    2.3734 C   0  0  0  0  0  0  0  0  0  0  0  0
    0.8062    1.0447    1.2790 C   0  0  0  0  0  0  0  0  0  0  0  0
    1.6060   -0.1623    1.8006 C   0  0  0  0  0  0  0  0  0  0  0  0
    2.0777   -1.0617    0.6782 C   0  0  0  0  0  0  0  0  0  0  0  0
    3.3008   -0.8167    0.0389 C   0  0  0  0  0  0  0  0  0  0  0  0
    3.7275   -1.6346   -1.0088 C   0  0  0  0  0  0  0  0  0  0  0  0
    2.9350   -2.7006   -1.4301 C   0  0  0  0  0  0  0  0  0  0  0  0
    1.7142   -2.9486   -0.8057 C   0  0  0  0  0  0  0  0  0  0  0  0
    1.2862   -2.1328    0.2427 C   0  0  0  0  0  0  0  0  0  0  0  0
   -0.4812    0.5523    0.8374 O   0  0  0  0  0  0  0  0  0  0  0  0
   -1.0082    1.1691   -0.2470 C   0  0  0  0  0  0  0  0  0  0  0  0
   -0.5622    2.1318   -0.8463 O   0  0  0  0  0  0  0  0  0  0  0  0
   -2.2621    0.4870   -0.6102 C   0  0  0  0  0  0  0  0  0  0  0  0
   -3.2718    0.3609    0.3559 C   0  0  0  0  0  0  0  0  0  0  0  0
   -4.5058   -0.1914    0.0074 C   0  0  0  0  0  0  0  0  0  0  0  0
   -4.7403   -0.6071   -1.3036 C   0  0  0  0  0  0  0  0  0  0  0  0
   -3.7367   -0.4856   -2.2672 C   0  0  0  0  0  0  0  0  0  0  0  0
   -2.4885    0.0494   -1.9193 C   0  0  0  0  0  0  0  0  0  0  0  0
   -1.4526    0.0940   -2.9668 C   0  0  0  0  0  0  0  0  0  0  0  0
   -1.6342    0.3553   -4.1402 O   0  0  0  0  0  0  0  0  0  0  0  0
   -0.2690   -0.3219   -2.4914 O   0  0  0  0  0  0  0  0  0  0  0  0
    2.3014    3.2911    1.9784 H   0  0  0  0  0  0  0  0  0  0  0  0
    2.4896    2.1670    3.3397 H   0  0  0  0  0  0  0  0  0  0  0  0
    1.5154    3.6258    3.5295 H   0  0  0  0  0  0  0  0  0  0  0  0
    0.0565    1.6127    3.2350 H   0  0  0  0  0  0  0  0  0  0  0  0
   -0.1849    2.8238    2.0003 H   0  0  0  0  0  0  0  0  0  0  0  0
    1.3495    1.5098    0.4460 H   0  0  0  0  0  0  0  0  0  0  0  0
    2.4877    0.1613    2.3646 H   0  0  0  0  0  0  0  0  0  0  0  0
    0.9938   -0.7529    2.4945 H   0  0  0  0  0  0  0  0  0  0  0  0
    3.9288    0.0142    0.3519 H   0  0  0  0  0  0  0  0  0  0  0  0
    4.6786   -1.4386   -1.4969 H   0  0  0  0  0  0  0  0  0  0  0  0
    3.2675   -3.3368   -2.2458 H   0  0  0  0  0  0  0  0  0  0  0  0
    1.0911   -3.7747   -1.1377 H   0  0  0  0  0  0  0  0  0  0  0  0
    0.3253   -2.3309    0.7120 H   0  0  0  0  0  0  0  0  0  0  0  0
   -3.1060    0.7086    1.3732 H   0  0  0  0  0  0  0  0  0  0  0  0
   -5.2903   -0.2850    0.7552 H   0  0  0  0  0  0  0  0  0  0  0  0
   -5.7058   -1.0277   -1.5765 H   0  0  0  0  0  0  0  0  0  0  0  0
   -3.9242   -0.8176   -3.2869 H   0  0  0  0  0  0  0  0  0  0  0  0
    0.3577   -0.2517   -3.2409 H   0  0  0  0  0  0  0  0  0  0  0  0
  1  2  1  0
  2  3  1  0
  3  4  1  0
  4  5  1  0
  5  6  2  0
  6  7  1  0
  7  8  2  0
  8  9  1  0
  9 10  2  0
  3 11  1  0
 11 12  1  0
 12 13  2  0
 12 14  1  0
 14 15  2  0
 15 16  1  0
 16 17  2  0
 17 18  1  0
 18 19  2  0
 19 20  1  0
 20 21  2  0
 20 22  1  0
 10  5  1  0
 19 14  1  0
  1 23  1  0
  1 24  1  0
  1 25  1  0
  2 26  1  0
  2 27  1  0
  3 28  1  0
  4 29  1  0
  4 30  1  0
  6 31  1  0
  7 32  1  0
  8 33  1  0
  9 34  1  0
 10 35  1  0
 15 36  1  0
 16 37  1  0
 17 38  1  0
 18 39  1  0
 22 40  1  0
M  END
$$$$
