
     RDKit          3D

 46 48  0  0  0  0  0  0  0  0999 V2000
    2.3112    0.6741   -2.5535 C   0  0  0  0  0  0  0  0  0  0  0  0
    2.1134   -0.8278   -2.4790 C   0  0  0  0  0  0  0  0  0  0  0  0
    2.6468   -1.3246   -1.2390 O   0  0  0  0  0  0  0  0  0  0  0  0
    3.9557   -1.6887   -1.2561 C   0  0  0  0  0  0  0  0  0  0  0  0
    4.6865   -1.6306   -2.2333 O   0  0  0  0  0  0  0  0  0  0  0  0
    4.4078   -2.1950    0.0776 C   0  0  0  0  0  0  0  0  0  0  0  0
    5.6458   -2.8684    0.0722 C   0  0  0  0  0  0  0  0  0  0  0  0
    6.1884   -3.3793    1.2486 C   0  0  0  0  0  0  0  0  0  0  0  0
    5.5017   -3.2189    2.4448 C   0  0  0  0  0  0  0  0  0  0  0  0
    4.2755   -2.5467    2.4691 C   0  0  0  0  0  0  0  0  0  0  0  0
    3.7074   -2.0260    1.2977 C   0  0  0  0  0  0  0  0  0  0  0  0
    2.4704   -1.3383    1.3199 N   0  0  0  0  0  0  0  0  0  0  0  0
    1.6246   -1.0854    2.3879 C   0  0  0  0  0  0  0  0  0  0  0  0
    1.8079   -1.4068    3.5582 O   0  0  0  0  0  0  0  0  0  0  0  0
    0.3873   -0.3021    1.9748 C   0  0  0  0  0  0  0  0  0  0  0  0
   -0.7110   -1.3773    0.9925 S   0  0  0  0  0  0  0  0  0  0  0  0
   -2.0116   -0.2252    0.6266 C   0  0  0  0  0  0  0  0  0  0  0  0
   -3.2739   -0.6839    0.2973 C   0  0  0  0  0  0  0  0  0  0  0  0
   -4.2734    0.2422   -0.0067 C   0  0  0  0  0  0  0  0  0  0  0  0
   -3.9812    1.6018    0.0157 C   0  0  0  0  0  0  0  0  0  0  0  0
   -4.9550    2.6630   -0.2861 C   0  0  0  0  0  0  0  0  0  0  0  0
   -6.0992    2.4591   -1.0744 C   0  0  0  0  0  0  0  0  0  0  0  0
   -6.9901    3.5047   -1.3235 C   0  0  0  0  0  0  0  0  0  0  0  0
   -6.7182    4.7453   -0.7770 C   0  0  0  0  0  0  0  0  0  0  0  0
   -5.6351    4.9995   -0.0182 N   0  0  0  0  0  0  0  0  0  0  0  0
   -4.7862    3.9626    0.2022 C   0  0  0  0  0  0  0  0  0  0  0  0
   -2.7315    2.0074    0.3385 N   0  0  0  0  0  0  0  0  0  0  0  0
   -1.7435    1.0933    0.6413 N   0  0  0  0  0  0  0  0  0  0  0  0
    1.8545    1.1637   -1.6866 H   0  0  0  0  0  0  0  0  0  0  0  0
    3.3756    0.9298   -2.5382 H   0  0  0  0  0  0  0  0  0  0  0  0
    1.8657    1.0819   -3.4658 H   0  0  0  0  0  0  0  0  0  0  0  0
    2.5573   -1.3365   -3.3419 H   0  0  0  0  0  0  0  0  0  0  0  0
    1.0434   -1.0605   -2.4819 H   0  0  0  0  0  0  0  0  0  0  0  0
    6.1962   -2.9985   -0.8586 H   0  0  0  0  0  0  0  0  0  0  0  0
    7.1435   -3.8986    1.2307 H   0  0  0  0  0  0  0  0  0  0  0  0
    5.9176   -3.6124    3.3698 H   0  0  0  0  0  0  0  0  0  0  0  0
    3.7868   -2.4478    3.4341 H   0  0  0  0  0  0  0  0  0  0  0  0
    2.1217   -1.0554    0.4056 H   0  0  0  0  0  0  0  0  0  0  0  0
   -0.1321    0.0394    2.8759 H   0  0  0  0  0  0  0  0  0  0  0  0
    0.7051    0.5736    1.3990 H   0  0  0  0  0  0  0  0  0  0  0  0
   -3.4958   -1.7466    0.2819 H   0  0  0  0  0  0  0  0  0  0  0  0
   -5.2689   -0.1197   -0.2420 H   0  0  0  0  0  0  0  0  0  0  0  0
   -6.3090    1.4911   -1.5224 H   0  0  0  0  0  0  0  0  0  0  0  0
   -7.8734    3.3535   -1.9344 H   0  0  0  0  0  0  0  0  0  0  0  0
   -7.3801    5.5908   -0.9413 H   0  0  0  0  0  0  0  0  0  0  0  0
   -3.9282    4.2241    0.8201 H   0  0  0  0  0  0  0  0  0  0  0  0
  1  2  1  0
  2  3  1  0
  3  4  1  0
  4  5  2  0
  4  6  1  0
  6  7  2  0
  7  8  1  0
  8  9  2  0
  9 10  1  0
 10 11  2  0
 11 12  1  0
 12 13  1  0
 13 14  2  0
 13 15  1  0
 15 16  1  0
 16 17  1  0
 17 18  2  0
 18 19  1  0
 19 20  2  0
 20 21  1  0
 21 22  2  0
 22 23  1  0
 23 24  2  0
 24 25  1  0
 25 26  2  0
 20 27  1  0
 27 28  2  0
 11  6  1  0
 28 17  1  0
 26 21  1  0
  1 29  1  0
  1 30  1  0
  1 31  1  0
  2 32  1  0
  2 33  1  0
  7 34  1  0
  8 35  1  0
  9 36  1  0
 10 37  1  0
 12 38  1  0
 15 39  1  0
 15 40  1  0
 18 41  1  0
 19 42  1  0
 22 43  1  0
 23 44  1  0
 24 45  1  0
 26 46  1  0
M  END
$$$$
