
     RDKit          3D

 60 61  0  0  0  0  0  0  0  0999 V2000
   -7.0667    1.5664   -1.6250 C   0  0  0  0  0  0  0  0  0  0  0  0
   -6.2226    0.4223   -1.6650 O   0  0  0  0  0  0  0  0  0  0  0  0
   -4.8772    0.6326   -1.5199 C   0  0  0  0  0  0  0  0  0  0  0  0
   -4.2604    1.8656   -1.3038 C   0  0  0  0  0  0  0  0  0  0  0  0
   -2.8678    1.9468   -1.1765 C   0  0  0  0  0  0  0  0  0  0  0  0
   -2.1979    3.1243   -0.9436 O   0  0  0  0  0  0  0  0  0  0  0  0
   -2.9337    4.1720   -0.3230 C   0  0  0  0  0  0  0  0  0  0  0  0
   -2.0848    0.7812   -1.3034 C   0  0  0  0  0  0  0  0  0  0  0  0
   -0.6287    0.8613   -1.2109 C   0  0  0  0  0  0  0  0  0  0  0  0
    0.0994    1.4233   -2.1888 N   0  0  0  0  0  0  0  0  0  0  0  0
    1.4169    1.3024   -1.8003 O   0  0  0  0  0  0  0  0  0  0  0  0
    1.4914    0.6767   -0.5921 C   0  0  0  0  0  0  0  0  0  0  0  0
    2.7794    0.5299    0.0316 C   0  0  0  0  0  0  0  0  0  0  0  0
    2.9682    0.2655    1.2118 O   0  0  0  0  0  0  0  0  0  0  0  0
    3.7645    0.7435   -0.8847 O   0  0  0  0  0  0  0  0  0  0  0  0
    5.1639    0.6566   -0.5144 C   0  0  0  0  0  0  0  0  0  0  0  0
    5.5324    1.7246    0.5210 C   0  0  0  0  0  0  0  0  0  0  0  0
    5.5278   -0.7543   -0.0379 C   0  0  0  0  0  0  0  0  0  0  0  0
    5.9291    0.9486   -1.8136 C   0  0  0  0  0  0  0  0  0  0  0  0
    0.2133    0.3470   -0.1866 C   0  0  0  0  0  0  0  0  0  0  0  0
   -0.1746   -0.3559    1.0087 C   0  0  0  0  0  0  0  0  0  0  0  0
   -1.2020   -0.1070    1.6232 O   0  0  0  0  0  0  0  0  0  0  0  0
    0.7090   -1.3379    1.3295 O   0  0  0  0  0  0  0  0  0  0  0  0
    0.5263   -2.1521    2.5139 C   0  0  0  0  0  0  0  0  0  0  0  0
   -0.7426   -3.0046    2.4083 C   0  0  0  0  0  0  0  0  0  0  0  0
    0.5396   -1.2995    3.7879 C   0  0  0  0  0  0  0  0  0  0  0  0
    1.7459   -3.0849    2.5358 C   0  0  0  0  0  0  0  0  0  0  0  0
   -2.7090   -0.4695   -1.4896 C   0  0  0  0  0  0  0  0  0  0  0  0
   -1.8845   -1.5673   -1.5576 O   0  0  0  0  0  0  0  0  0  0  0  0
   -2.4986   -2.8487   -1.5220 C   0  0  0  0  0  0  0  0  0  0  0  0
   -4.1010   -0.5273   -1.6029 C   0  0  0  0  0  0  0  0  0  0  0  0
   -7.0159    2.0589   -0.6488 H   0  0  0  0  0  0  0  0  0  0  0  0
   -6.8255    2.2643   -2.4339 H   0  0  0  0  0  0  0  0  0  0  0  0
   -8.0970    1.2280   -1.7744 H   0  0  0  0  0  0  0  0  0  0  0  0
   -4.8559    2.7676   -1.2485 H   0  0  0  0  0  0  0  0  0  0  0  0
   -3.6085    4.6508   -1.0397 H   0  0  0  0  0  0  0  0  0  0  0  0
   -2.2178    4.9275    0.0151 H   0  0  0  0  0  0  0  0  0  0  0  0
   -3.4801    3.8160    0.5569 H   0  0  0  0  0  0  0  0  0  0  0  0
    5.1825    2.7121    0.2014 H   0  0  0  0  0  0  0  0  0  0  0  0
    6.6153    1.7720    0.6772 H   0  0  0  0  0  0  0  0  0  0  0  0
    5.0710    1.5284    1.4935 H   0  0  0  0  0  0  0  0  0  0  0  0
    5.1708   -1.5097   -0.7481 H   0  0  0  0  0  0  0  0  0  0  0  0
    5.0701   -0.9914    0.9278 H   0  0  0  0  0  0  0  0  0  0  0  0
    6.6113   -0.8686    0.0770 H   0  0  0  0  0  0  0  0  0  0  0  0
    7.0127    0.9097   -1.6645 H   0  0  0  0  0  0  0  0  0  0  0  0
    5.6614    0.2280   -2.5945 H   0  0  0  0  0  0  0  0  0  0  0  0
    5.6685    1.9383   -2.2059 H   0  0  0  0  0  0  0  0  0  0  0  0
   -0.8019   -3.7331    3.2242 H   0  0  0  0  0  0  0  0  0  0  0  0
   -0.7722   -3.5449    1.4562 H   0  0  0  0  0  0  0  0  0  0  0  0
   -1.6507   -2.3933    2.4478 H   0  0  0  0  0  0  0  0  0  0  0  0
   -0.3503   -0.6684    3.8679 H   0  0  0  0  0  0  0  0  0  0  0  0
    0.5752   -1.9254    4.6860 H   0  0  0  0  0  0  0  0  0  0  0  0
    1.4037   -0.6255    3.7970 H   0  0  0  0  0  0  0  0  0  0  0  0
    1.7257   -3.7583    3.3991 H   0  0  0  0  0  0  0  0  0  0  0  0
    2.6784   -2.5082    2.5669 H   0  0  0  0  0  0  0  0  0  0  0  0
    1.7905   -3.6917    1.6244 H   0  0  0  0  0  0  0  0  0  0  0  0
   -3.0602   -3.0397   -2.4421 H   0  0  0  0  0  0  0  0  0  0  0  0
   -3.1331   -2.9622   -0.6387 H   0  0  0  0  0  0  0  0  0  0  0  0
   -1.7042   -3.5964   -1.4543 H   0  0  0  0  0  0  0  0  0  0  0  0
   -4.6187   -1.4664   -1.7695 H   0  0  0  0  0  0  0  0  0  0  0  0
  1  2  1  0
  2  3  1  0
  3  4  2  0
  4  5  1  0
  5  6  1  0
  6  7  1  0
  5  8  2  0
  8  9  1  0
  9 10  2  0
 10 11  1  0
 11 12  1  0
 12 13  1  0
 13 14  2  0
 13 15  1  0
 15 16  1  0
 16 17  1  0
 16 18  1  0
 16 19  1  0
 12 20  2  0
 20 21  1  0
 21 22  2  0
 21 23  1  0
 23 24  1  0
 24 25  1  0
 24 26  1  0
 24 27  1  0
  8 28  1  0
 28 29  1  0
 29 30  1  0
 28 31  2  0
 31  3  1  0
 20  9  1  0
  1 32  1  0
  1 33  1  0
  1 34  1  0
  4 35  1  0
  7 36  1  0
  7 37  1  0
  7 38  1  0
 17 39  1  0
 17 40  1  0
 17 41  1  0
 18 42  1  0
 18 43  1  0
 18 44  1  0
 19 45  1  0
 19 46  1  0
 19 47  1  0
 25 48  1  0
 25 49  1  0
 25 50  1  0
 26 51  1  0
 26 52  1  0
 26 53  1  0
 27 54  1  0
 27 55  1  0
 27 56  1  0
 30 57  1  0
 30 58  1  0
 30 59  1  0
 31 60  1  0
M  END
$$$$
