
     RDKit          3D

 36 37  0  0  0  0  0  0  0  0999 V2000
    6.4589    0.0960   -1.3799 C   0  0  0  0  0  0  0  0  0  0  0  0
    5.1240    0.4873   -1.0024 N   0  0  0  0  0  0  0  0  0  0  0  0
    4.1286   -0.4593   -0.8357 C   0  0  0  0  0  0  0  0  0  0  0  0
    4.3330   -1.6666   -0.9227 O   0  0  0  0  0  0  0  0  0  0  0  0
    2.7606    0.1483   -0.5292 C   0  0  0  0  0  0  0  0  0  0  0  0
    1.7778   -0.8720   -0.3681 O   0  0  0  0  0  0  0  0  0  0  0  0
    0.5331   -0.4104   -0.1084 C   0  0  0  0  0  0  0  0  0  0  0  0
    0.2319    0.7708   -0.0141 O   0  0  0  0  0  0  0  0  0  0  0  0
   -0.4395   -1.5351    0.0498 C   0  0  0  0  0  0  0  0  0  0  0  0
    0.0085   -2.8652   -0.0775 C   0  0  0  0  0  0  0  0  0  0  0  0
   -0.8774   -3.9310    0.0650 C   0  0  0  0  0  0  0  0  0  0  0  0
   -2.2162   -3.6803    0.3352 C   0  0  0  0  0  0  0  0  0  0  0  0
   -2.6752   -2.3657    0.4642 C   0  0  0  0  0  0  0  0  0  0  0  0
   -1.8049   -1.2753    0.3257 C   0  0  0  0  0  0  0  0  0  0  0  0
   -2.2561    0.0618    0.4541 N   0  0  0  0  0  0  0  0  0  0  0  0
   -3.5280    0.5371    0.7173 C   0  0  0  0  0  0  0  0  0  0  0  0
   -4.5249   -0.1567    0.8907 O   0  0  0  0  0  0  0  0  0  0  0  0
   -3.5895    1.9877    0.7739 C   0  0  0  0  0  0  0  0  0  0  0  0
   -4.6498    2.8438    1.0077 C   0  0  0  0  0  0  0  0  0  0  0  0
   -4.1339    4.1604    0.9474 C   0  0  0  0  0  0  0  0  0  0  0  0
   -2.7917    4.0324    0.6807 C   0  0  0  0  0  0  0  0  0  0  0  0
   -2.4494    2.7231    0.5732 O   0  0  0  0  0  0  0  0  0  0  0  0
    7.1379    0.9242   -1.1648 H   0  0  0  0  0  0  0  0  0  0  0  0
    6.7666   -0.7931   -0.8230 H   0  0  0  0  0  0  0  0  0  0  0  0
    6.4693   -0.1231   -2.4508 H   0  0  0  0  0  0  0  0  0  0  0  0
    4.8643    1.4604   -1.1025 H   0  0  0  0  0  0  0  0  0  0  0  0
    2.8462    0.7287    0.3969 H   0  0  0  0  0  0  0  0  0  0  0  0
    2.4838    0.8002   -1.3660 H   0  0  0  0  0  0  0  0  0  0  0  0
    1.0525   -3.0903   -0.2890 H   0  0  0  0  0  0  0  0  0  0  0  0
   -0.5215   -4.9536   -0.0350 H   0  0  0  0  0  0  0  0  0  0  0  0
   -2.9139   -4.5072    0.4479 H   0  0  0  0  0  0  0  0  0  0  0  0
   -3.7317   -2.2321    0.6758 H   0  0  0  0  0  0  0  0  0  0  0  0
   -1.5462    0.7908    0.3374 H   0  0  0  0  0  0  0  0  0  0  0  0
   -5.6700    2.5381    1.1981 H   0  0  0  0  0  0  0  0  0  0  0  0
   -4.6732    5.0876    1.0816 H   0  0  0  0  0  0  0  0  0  0  0  0
   -1.9841    4.7385    0.5446 H   0  0  0  0  0  0  0  0  0  0  0  0
  1  2  1  0
  2  3  1  0
  3  4  2  0
  3  5  1  0
  5  6  1  0
  6  7  1  0
  7  8  2  0
  7  9  1  0
  9 10  2  0
 10 11  1  0
 11 12  2  0
 12 13  1  0
 13 14  2  0
 14 15  1  0
 15 16  1  0
 16 17  2  0
 16 18  1  0
 18 19  2  0
 19 20  1  0
 20 21  2  0
 21 22  1  0
 14  9  1  0
 22 18  1  0
  1 23  1  0
  1 24  1  0
  1 25  1  0
  2 26  1  0
  5 27  1  0
  5 28  1  0
 10 29  1  0
 11 30  1  0
 12 31  1  0
 13 32  1  0
 15 33  1  0
 19 34  1  0
 20 35  1  0
 21 36  1  0
M  END
$$$$
