
     RDKit          3D

 40 43  0  0  0  0  0  0  0  0999 V2000
    7.3755    1.6324   -1.3220 C   0  0  0  0  0  0  0  0  0  0  0  0
    6.0769    1.0311   -0.9152 C   0  0  0  0  0  0  0  0  0  0  0  0
    5.5669   -0.0598   -1.4480 N   0  0  0  0  0  0  0  0  0  0  0  0
    4.3468   -0.3419   -0.8570 C   0  0  0  0  0  0  0  0  0  0  0  0
    3.5036   -1.4207   -1.1832 C   0  0  0  0  0  0  0  0  0  0  0  0
    2.2895   -1.5809   -0.5019 C   0  0  0  0  0  0  0  0  0  0  0  0
    1.9001   -0.6924    0.5072 C   0  0  0  0  0  0  0  0  0  0  0  0
    0.6566   -0.9419    1.1256 N   0  0  0  0  0  0  0  0  0  0  0  0
    0.0576   -0.2205    2.1452 C   0  0  0  0  0  0  0  0  0  0  0  0
    0.5292    0.7515    2.7268 O   0  0  0  0  0  0  0  0  0  0  0  0
   -1.2922   -0.7892    2.5572 C   0  0  0  0  0  0  0  0  0  0  0  0
   -2.3447   -0.7093    1.4752 C   0  0  0  0  0  0  0  0  0  0  0  0
   -3.0284   -1.8648    1.0657 C   0  0  0  0  0  0  0  0  0  0  0  0
   -4.0144   -1.7916    0.0782 C   0  0  0  0  0  0  0  0  0  0  0  0
   -4.3280   -0.5665   -0.5042 C   0  0  0  0  0  0  0  0  0  0  0  0
   -3.6762    0.5961   -0.0816 C   0  0  0  0  0  0  0  0  0  0  0  0
   -2.6821    0.5245    0.8951 C   0  0  0  0  0  0  0  0  0  0  0  0
   -3.9601    1.8418   -0.5799 O   0  0  0  0  0  0  0  0  0  0  0  0
   -5.1925    1.8497   -1.3107 C   0  0  0  0  0  0  0  0  0  0  0  0
   -5.2835    0.6428   -2.2321 C   0  0  0  0  0  0  0  0  0  0  0  0
   -5.2976   -0.5746   -1.4752 O   0  0  0  0  0  0  0  0  0  0  0  0
    2.7329    0.3816    0.8465 C   0  0  0  0  0  0  0  0  0  0  0  0
    3.9447    0.5426    0.1468 C   0  0  0  0  0  0  0  0  0  0  0  0
    5.1431    1.7696    0.3248 S   0  0  0  0  0  0  0  0  0  0  0  0
    7.2077    2.5631   -1.8765 H   0  0  0  0  0  0  0  0  0  0  0  0
    7.9301    0.9440   -1.9716 H   0  0  0  0  0  0  0  0  0  0  0  0
    8.0017    1.8503   -0.4496 H   0  0  0  0  0  0  0  0  0  0  0  0
    3.7991   -2.1159   -1.9676 H   0  0  0  0  0  0  0  0  0  0  0  0
    1.6563   -2.4214   -0.7824 H   0  0  0  0  0  0  0  0  0  0  0  0
    0.1165   -1.7060    0.7462 H   0  0  0  0  0  0  0  0  0  0  0  0
   -1.1334   -1.8296    2.8706 H   0  0  0  0  0  0  0  0  0  0  0  0
   -1.6494   -0.2478    3.4441 H   0  0  0  0  0  0  0  0  0  0  0  0
   -2.8053   -2.8311    1.5137 H   0  0  0  0  0  0  0  0  0  0  0  0
   -4.5380   -2.6891   -0.2372 H   0  0  0  0  0  0  0  0  0  0  0  0
   -2.1856    1.4396    1.2159 H   0  0  0  0  0  0  0  0  0  0  0  0
   -6.0218    1.8707   -0.5925 H   0  0  0  0  0  0  0  0  0  0  0  0
   -5.2250    2.7730   -1.8991 H   0  0  0  0  0  0  0  0  0  0  0  0
   -6.2091    0.6825   -2.8150 H   0  0  0  0  0  0  0  0  0  0  0  0
   -4.4398    0.6079   -2.9332 H   0  0  0  0  0  0  0  0  0  0  0  0
    2.4724    1.1000    1.6178 H   0  0  0  0  0  0  0  0  0  0  0  0
  1  2  1  0
  2  3  2  0
  3  4  1  0
  4  5  2  0
  5  6  1  0
  6  7  2  0
  7  8  1  0
  8  9  1  0
  9 10  2  0
  9 11  1  0
 11 12  1  0
 12 13  2  0
 13 14  1  0
 14 15  2  0
 15 16  1  0
 16 17  2  0
 16 18  1  0
 18 19  1  0
 19 20  1  0
 20 21  1  0
  7 22  1  0
 22 23  2  0
 23 24  1  0
 24  2  1  0
 23  4  1  0
 17 12  1  0
 21 15  1  0
  1 25  1  0
  1 26  1  0
  1 27  1  0
  5 28  1  0
  6 29  1  0
  8 30  1  0
 11 31  1  0
 11 32  1  0
 13 33  1  0
 14 34  1  0
 17 35  1  0
 19 36  1  0
 19 37  1  0
 20 38  1  0
 20 39  1  0
 22 40  1  0
M  END
$$$$
