
     RDKit          3D

 50 53  0  0  0  0  0  0  0  0999 V2000
   -5.8168    0.6472    3.2929 C   0  0  0  0  0  0  0  0  0  0  0  0
   -4.7385    0.5616    2.2518 C   0  0  0  0  0  0  0  0  0  0  0  0
   -3.6756    1.4690    2.2560 C   0  0  0  0  0  0  0  0  0  0  0  0
   -2.6549    1.3719    1.3055 C   0  0  0  0  0  0  0  0  0  0  0  0
   -2.6800    0.3539    0.3451 C   0  0  0  0  0  0  0  0  0  0  0  0
   -1.5276    0.2544   -0.7173 C   0  0  0  0  0  0  0  0  0  0  0  0
   -0.4642    1.1373   -0.8632 C   0  0  0  0  0  0  0  0  0  0  0  0
    0.3431    0.7041   -1.9217 N   0  0  0  0  0  4  0  0  0  0  0  0
    1.5460    1.3833   -2.4393 C   0  0  0  0  0  0  0  0  0  0  0  0
    2.5763    1.6838   -1.3449 C   0  0  0  0  0  0  0  0  0  0  0  0
    3.1452    2.7701   -1.3268 O   0  0  0  0  0  0  0  0  0  0  0  0
    2.7686    0.6288   -0.4647 N   0  0  0  0  0  0  0  0  0  0  0  0
    3.6311    0.5783    0.6575 C   0  0  0  0  0  0  0  0  0  0  0  0
    4.4771    1.6384    1.0041 C   0  0  0  0  0  0  0  0  0  0  0  0
    5.3137    1.5556    2.1204 C   0  0  0  0  0  0  0  0  0  0  0  0
    5.3172    0.4113    2.9066 C   0  0  0  0  0  0  0  0  0  0  0  0
    4.4836   -0.6538    2.5773 C   0  0  0  0  0  0  0  0  0  0  0  0
    3.6348   -0.5877    1.4573 C   0  0  0  0  0  0  0  0  0  0  0  0
    2.7616   -1.7788    1.1650 C   0  0  0  0  0  0  0  0  0  0  0  0
   -0.2338   -0.3720   -2.4433 C   0  0  0  0  0  0  0  0  0  0  0  0
   -1.3049   -0.6767   -1.7185 N   0  0  0  0  0  0  0  0  0  0  0  0
   -1.9810   -1.8664   -2.2196 C   0  0  0  0  0  0  0  0  0  0  0  0
   -0.9608   -2.4645   -3.2282 C   0  0  0  0  0  0  0  0  0  0  0  0
   -0.0029   -1.3054   -3.5694 C   0  0  0  0  0  0  0  0  0  0  0  0
   -3.7330   -0.5611    0.3455 C   0  0  0  0  0  0  0  0  0  0  0  0
   -4.7528   -0.4600    1.2976 C   0  0  0  0  0  0  0  0  0  0  0  0
   -6.7685    0.2732    2.9008 H   0  0  0  0  0  0  0  0  0  0  0  0
   -5.9788    1.6850    3.6028 H   0  0  0  0  0  0  0  0  0  0  0  0
   -5.5376    0.0550    4.1698 H   0  0  0  0  0  0  0  0  0  0  0  0
   -3.6377    2.2605    3.0034 H   0  0  0  0  0  0  0  0  0  0  0  0
   -1.8545    2.1047    1.3532 H   0  0  0  0  0  0  0  0  0  0  0  0
   -0.1766    2.0368   -0.3429 H   0  0  0  0  0  0  0  0  0  0  0  0
    2.0199    0.7584   -3.2022 H   0  0  0  0  0  0  0  0  0  0  0  0
    1.2201    2.3227   -2.8980 H   0  0  0  0  0  0  0  0  0  0  0  0
    2.2103   -0.1984   -0.6185 H   0  0  0  0  0  0  0  0  0  0  0  0
    4.5231    2.5557    0.4261 H   0  0  0  0  0  0  0  0  0  0  0  0
    5.9654    2.3897    2.3710 H   0  0  0  0  0  0  0  0  0  0  0  0
    5.9703    0.3475    3.7739 H   0  0  0  0  0  0  0  0  0  0  0  0
    4.5039   -1.5424    3.2063 H   0  0  0  0  0  0  0  0  0  0  0  0
    2.9040   -2.5776    1.9007 H   0  0  0  0  0  0  0  0  0  0  0  0
    1.7054   -1.4916    1.1951 H   0  0  0  0  0  0  0  0  0  0  0  0
    3.0023   -2.1935    0.1808 H   0  0  0  0  0  0  0  0  0  0  0  0
   -2.9033   -1.5632   -2.7233 H   0  0  0  0  0  0  0  0  0  0  0  0
   -2.1884   -2.5692   -1.4096 H   0  0  0  0  0  0  0  0  0  0  0  0
   -1.4408   -2.8946   -4.1113 H   0  0  0  0  0  0  0  0  0  0  0  0
   -0.3955   -3.2618   -2.7311 H   0  0  0  0  0  0  0  0  0  0  0  0
    1.0474   -1.5991   -3.5789 H   0  0  0  0  0  0  0  0  0  0  0  0
   -0.2907   -0.7749   -4.4793 H   0  0  0  0  0  0  0  0  0  0  0  0
   -3.8047   -1.3610   -0.3792 H   0  0  0  0  0  0  0  0  0  0  0  0
   -5.5662   -1.1843    1.2897 H   0  0  0  0  0  0  0  0  0  0  0  0
  1  2  1  0
  2  3  2  0
  3  4  1  0
  4  5  2  0
  5  6  1  0
  6  7  2  0
  7  8  1  0
  8  9  1  0
  9 10  1  0
 10 11  2  0
 10 12  1  0
 12 13  1  0
 13 14  2  0
 14 15  1  0
 15 16  2  0
 16 17  1  0
 17 18  2  0
 18 19  1  0
  8 20  2  0
 20 21  1  0
 21 22  1  0
 22 23  1  0
 23 24  1  0
  5 25  1  0
 25 26  2  0
 26  2  1  0
 21  6  1  0
 18 13  1  0
 24 20  1  0
  1 27  1  0
  1 28  1  0
  1 29  1  0
  3 30  1  0
  4 31  1  0
  7 32  1  0
  9 33  1  0
  9 34  1  0
 12 35  1  0
 14 36  1  0
 15 37  1  0
 16 38  1  0
 17 39  1  0
 19 40  1  0
 19 41  1  0
 19 42  1  0
 22 43  1  0
 22 44  1  0
 23 45  1  0
 23 46  1  0
 24 47  1  0
 24 48  1  0
 25 49  1  0
 26 50  1  0
M  CHG  1   8   1
M  END
$$$$
