
     RDKit          3D

 33 33  0  0  0  0  0  0  0  0999 V2000
    5.5486    2.4580    0.8962 C   0  0  0  0  0  0  0  0  0  0  0  0
    5.0196    1.6069    1.7855 C   0  0  0  0  0  0  0  0  0  0  0  0
    3.7241    1.8196    2.5023 C   0  0  0  0  0  0  0  0  0  0  0  0
    2.7790    0.8316    2.0159 N   0  0  0  0  0  0  0  0  0  0  0  0
    2.5398   -0.4104    2.5543 C   0  0  0  0  0  0  0  0  0  0  0  0
    3.1787   -1.0363    3.9590 S   0  0  0  0  0  0  0  0  0  0  0  0
    1.6489   -1.1639    1.8276 N   0  0  0  0  0  0  0  0  0  0  0  0
    0.8134   -0.5842    0.8533 N   0  0  0  0  0  0  0  0  0  0  0  0
   -0.0654   -1.4518    0.2087 C   0  0  0  0  0  0  0  0  0  0  0  0
   -0.0055   -2.6716    0.3423 O   0  0  0  0  0  0  0  0  0  0  0  0
   -1.0775   -0.7252   -0.6792 C   0  0  0  0  0  0  0  0  0  0  0  0
   -2.1434   -1.5856   -1.0485 O   0  0  0  0  0  0  0  0  0  0  0  0
   -3.1373   -1.0818   -1.8447 C   0  0  0  0  0  0  0  0  0  0  0  0
   -3.1419    0.2077   -2.3883 C   0  0  0  0  0  0  0  0  0  0  0  0
   -4.2043    0.6304   -3.1952 C   0  0  0  0  0  0  0  0  0  0  0  0
   -5.2649   -0.2320   -3.4632 C   0  0  0  0  0  0  0  0  0  0  0  0
   -6.5652    0.2989   -4.4557 Cl  0  0  0  0  0  0  0  0  0  0  0  0
   -5.2776   -1.5172   -2.9336 C   0  0  0  0  0  0  0  0  0  0  0  0
   -4.2167   -1.9387   -2.1282 C   0  0  0  0  0  0  0  0  0  0  0  0
   -4.2812   -3.5450   -1.4896 Cl  0  0  0  0  0  0  0  0  0  0  0  0
    6.5018    2.2400    0.4230 H   0  0  0  0  0  0  0  0  0  0  0  0
    5.0545    3.3850    0.6231 H   0  0  0  0  0  0  0  0  0  0  0  0
    5.5655    0.6975    2.0316 H   0  0  0  0  0  0  0  0  0  0  0  0
    3.8616    1.7473    3.5841 H   0  0  0  0  0  0  0  0  0  0  0  0
    3.2991    2.8033    2.2770 H   0  0  0  0  0  0  0  0  0  0  0  0
    2.6033    0.8661    1.0209 H   0  0  0  0  0  0  0  0  0  0  0  0
    1.3955   -2.1007    2.1497 H   0  0  0  0  0  0  0  0  0  0  0  0
    0.4863    0.3511    1.0833 H   0  0  0  0  0  0  0  0  0  0  0  0
   -1.4690    0.1328   -0.1196 H   0  0  0  0  0  0  0  0  0  0  0  0
   -0.5328   -0.3890   -1.5695 H   0  0  0  0  0  0  0  0  0  0  0  0
   -2.3354    0.9115   -2.2115 H   0  0  0  0  0  0  0  0  0  0  0  0
   -4.1966    1.6345   -3.6135 H   0  0  0  0  0  0  0  0  0  0  0  0
   -6.1054   -2.1888   -3.1440 H   0  0  0  0  0  0  0  0  0  0  0  0
  1  2  2  0
  2  3  1  0
  3  4  1  0
  4  5  1  0
  5  6  2  0
  5  7  1  0
  7  8  1  0
  8  9  1  0
  9 10  2  0
  9 11  1  0
 11 12  1  0
 12 13  1  0
 13 14  2  0
 14 15  1  0
 15 16  2  0
 16 17  1  0
 16 18  1  0
 18 19  2  0
 19 20  1  0
 19 13  1  0
  1 21  1  0
  1 22  1  0
  2 23  1  0
  3 24  1  0
  3 25  1  0
  4 26  1  0
  7 27  1  0
  8 28  1  0
 11 29  1  0
 11 30  1  0
 14 31  1  0
 15 32  1  0
 18 33  1  0
M  END
$$$$
