
     RDKit          3D

 50 52  0  0  0  0  0  0  0  0999 V2000
    2.6593    1.5250   -1.3138 O   0  0  0  0  0  0  0  0  0  0  0  0
    2.3936    0.8524   -0.0724 C   0  0  0  0  0  0  0  0  0  0  0  0
    3.6733    0.1749    0.4385 C   0  0  0  0  0  0  0  0  0  0  0  0
    3.9949   -0.9700   -0.3592 O   0  0  0  0  0  0  0  0  0  0  0  0
    5.2802   -1.5153   -0.0503 C   0  0  0  0  0  0  0  0  0  0  0  0
    6.3297   -0.7924   -0.8383 C   0  0  0  0  0  0  0  0  0  0  0  0
    6.2018   -0.0596   -2.0038 C   0  0  0  0  0  0  0  0  0  0  0  0
    7.4441    0.4712   -2.4543 C   0  0  0  0  0  0  0  0  0  0  0  0
    8.4841    0.1213   -1.6236 C   0  0  0  0  0  0  0  0  0  0  0  0
    7.9613   -0.8391   -0.3095 S   0  0  0  0  0  0  0  0  0  0  0  0
    1.2330   -0.1459   -0.2831 C   0  0  0  0  0  0  0  0  0  0  0  0
    0.0314    0.5156   -0.8506 N   0  0  0  0  0  0  0  0  0  0  0  0
   -0.9781   -0.4845   -1.2711 C   0  0  0  0  0  0  0  0  0  0  0  0
   -2.0738   -0.8159   -0.2304 C   0  0  0  0  0  0  0  0  0  0  0  0
   -2.7843    0.3995    0.2071 N   0  0  0  0  0  0  0  0  0  0  0  0
   -4.1112    0.3482    0.6007 C   0  0  0  0  0  0  0  0  0  0  0  0
   -4.9609    1.4619    0.5151 C   0  0  0  0  0  0  0  0  0  0  0  0
   -6.3008    1.4085    0.9163 C   0  0  0  0  0  0  0  0  0  0  0  0
   -6.8299    0.2291    1.4266 C   0  0  0  0  0  0  0  0  0  0  0  0
   -6.0180   -0.9021    1.5462 C   0  0  0  0  0  0  0  0  0  0  0  0
   -6.5736   -2.1955    2.0835 C   0  0  0  0  0  0  0  0  0  0  0  0
   -7.0588   -3.0002    1.0977 F   0  0  0  0  0  0  0  0  0  0  0  0
   -5.6481   -2.9414    2.7508 F   0  0  0  0  0  0  0  0  0  0  0  0
   -7.6029   -2.0160    2.9588 F   0  0  0  0  0  0  0  0  0  0  0  0
   -4.6753   -0.8272    1.1254 C   0  0  0  0  0  0  0  0  0  0  0  0
   -2.0900    1.6760   -0.0249 C   0  0  0  0  0  0  0  0  0  0  0  0
   -0.5597    1.4853    0.1052 C   0  0  0  0  0  0  0  0  0  0  0  0
    1.7940    1.5571   -1.7698 H   0  0  0  0  0  0  0  0  0  0  0  0
    2.1107    1.6275    0.6481 H   0  0  0  0  0  0  0  0  0  0  0  0
    4.4995    0.8944    0.4086 H   0  0  0  0  0  0  0  0  0  0  0  0
    3.5252   -0.1574    1.4722 H   0  0  0  0  0  0  0  0  0  0  0  0
    5.2677   -2.5664   -0.3583 H   0  0  0  0  0  0  0  0  0  0  0  0
    5.4625   -1.4816    1.0301 H   0  0  0  0  0  0  0  0  0  0  0  0
    5.2504    0.0963   -2.5014 H   0  0  0  0  0  0  0  0  0  0  0  0
    7.5656    1.0796   -3.3419 H   0  0  0  0  0  0  0  0  0  0  0  0
    9.5283    0.3840   -1.7237 H   0  0  0  0  0  0  0  0  0  0  0  0
    1.5659   -0.8981   -1.0091 H   0  0  0  0  0  0  0  0  0  0  0  0
    0.9974   -0.6676    0.6527 H   0  0  0  0  0  0  0  0  0  0  0  0
   -0.5022   -1.4128   -1.6103 H   0  0  0  0  0  0  0  0  0  0  0  0
   -1.4736   -0.0751   -2.1620 H   0  0  0  0  0  0  0  0  0  0  0  0
   -1.6242   -1.3064    0.6411 H   0  0  0  0  0  0  0  0  0  0  0  0
   -2.7656   -1.5244   -0.7022 H   0  0  0  0  0  0  0  0  0  0  0  0
   -4.6013    2.4017    0.1054 H   0  0  0  0  0  0  0  0  0  0  0  0
   -6.9277    2.2918    0.8221 H   0  0  0  0  0  0  0  0  0  0  0  0
   -7.8739    0.1961    1.7331 H   0  0  0  0  0  0  0  0  0  0  0  0
   -4.0569   -1.7155    1.2421 H   0  0  0  0  0  0  0  0  0  0  0  0
   -2.3895    2.4213    0.7219 H   0  0  0  0  0  0  0  0  0  0  0  0
   -2.3414    2.0661   -1.0187 H   0  0  0  0  0  0  0  0  0  0  0  0
   -0.3598    1.1692    1.1384 H   0  0  0  0  0  0  0  0  0  0  0  0
   -0.0724    2.4565   -0.0372 H   0  0  0  0  0  0  0  0  0  0  0  0
  1  2  1  0
  2  3  1  0
  3  4  1  0
  4  5  1  0
  5  6  1  0
  6  7  2  0
  7  8  1  0
  8  9  2  0
  9 10  1  0
  2 11  1  0
 11 12  1  0
 12 13  1  0
 13 14  1  0
 14 15  1  0
 15 16  1  0
 16 17  2  0
 17 18  1  0
 18 19  2  0
 19 20  1  0
 20 21  1  0
 21 22  1  0
 21 23  1  0
 21 24  1  0
 20 25  2  0
 15 26  1  0
 26 27  1  0
 10  6  1  0
 27 12  1  0
 25 16  1  0
  1 28  1  0
  2 29  1  0
  3 30  1  0
  3 31  1  0
  5 32  1  0
  5 33  1  0
  7 34  1  0
  8 35  1  0
  9 36  1  0
 11 37  1  0
 11 38  1  0
 13 39  1  0
 13 40  1  0
 14 41  1  0
 14 42  1  0
 17 43  1  0
 18 44  1  0
 19 45  1  0
 25 46  1  0
 26 47  1  0
 26 48  1  0
 27 49  1  0
 27 50  1  0
M  END
$$$$
