
     RDKit          3D

 45 48  0  0  0  0  0  0  0  0999 V2000
   -2.6617    2.1066   -0.9512 C   0  0  0  0  0  0  0  0  0  0  0  0
   -3.7832    1.1841   -1.4314 C   0  0  0  0  0  0  0  0  0  0  0  0
   -4.7837    0.9319   -0.3037 C   0  0  0  0  0  0  0  0  0  0  0  0
   -3.2525   -0.1211   -2.0568 C   0  0  0  0  0  0  0  0  0  0  0  0
   -2.4989   -0.9753   -1.1385 N   0  0  0  0  0  0  0  0  0  0  0  0
   -1.1634   -0.6833   -1.0057 N   0  0  0  0  0  0  0  0  0  0  0  0
   -0.4298   -1.4123   -0.2161 C   0  0  0  0  0  0  0  0  0  0  0  0
    1.0386   -1.0001   -0.1330 C   0  0  0  0  0  0  0  0  0  0  0  0
    1.9029   -1.8597   -0.1301 O   0  0  0  0  0  0  0  0  0  0  0  0
    1.1681    0.3641   -0.0879 N   0  0  0  0  0  0  0  0  0  0  0  0
    2.3307    1.0811   -0.0051 C   0  0  0  0  0  0  0  0  0  0  0  0
    2.3491    2.3955   -0.0294 N   0  0  0  0  0  0  0  0  0  0  0  0
    3.6315    2.8989    0.0841 N   0  0  0  0  0  0  0  0  0  0  0  0
    4.5207    1.9356    0.1856 C   0  0  0  0  0  0  0  0  0  0  0  0
    6.0549    2.2072    0.3167 C   0  0  0  0  0  0  0  0  0  0  0  0
    6.5499    3.6054    0.5827 C   0  0  0  0  0  0  0  0  0  0  0  0
    6.7478    2.9868   -0.7714 C   0  0  0  0  0  0  0  0  0  0  0  0
    3.8653    0.3572    0.1571 S   0  0  0  0  0  0  0  0  0  0  0  0
   -0.9526   -2.5327    0.5821 C   0  0  0  0  0  0  0  0  0  0  0  0
   -0.1777   -3.2734    1.4835 C   0  0  0  0  0  0  0  0  0  0  0  0
   -0.7560   -4.3171    2.2122 C   0  0  0  0  0  0  0  0  0  0  0  0
   -2.1055   -4.6224    2.0498 C   0  0  0  0  0  0  0  0  0  0  0  0
   -2.8813   -3.8815    1.1597 C   0  0  0  0  0  0  0  0  0  0  0  0
   -2.3029   -2.8339    0.4294 C   0  0  0  0  0  0  0  0  0  0  0  0
   -3.1341   -2.0326   -0.4895 C   0  0  0  0  0  0  0  0  0  0  0  0
   -4.3208   -2.3168   -0.6294 O   0  0  0  0  0  0  0  0  0  0  0  0
   -2.1420    1.6948   -0.0805 H   0  0  0  0  0  0  0  0  0  0  0  0
   -3.0665    3.0821   -0.6611 H   0  0  0  0  0  0  0  0  0  0  0  0
   -1.9264    2.2749   -1.7450 H   0  0  0  0  0  0  0  0  0  0  0  0
   -4.3197    1.7168   -2.2278 H   0  0  0  0  0  0  0  0  0  0  0  0
   -5.2256    1.8752    0.0355 H   0  0  0  0  0  0  0  0  0  0  0  0
   -5.6004    0.2873   -0.6441 H   0  0  0  0  0  0  0  0  0  0  0  0
   -4.3088    0.4593    0.5620 H   0  0  0  0  0  0  0  0  0  0  0  0
   -2.5981    0.1130   -2.9062 H   0  0  0  0  0  0  0  0  0  0  0  0
   -4.0953   -0.6933   -2.4629 H   0  0  0  0  0  0  0  0  0  0  0  0
    0.3300    0.9219   -0.2117 H   0  0  0  0  0  0  0  0  0  0  0  0
    6.6141    1.4011    0.7813 H   0  0  0  0  0  0  0  0  0  0  0  0
    5.8253    4.4071    0.6736 H   0  0  0  0  0  0  0  0  0  0  0  0
    7.4178    3.7222    1.2208 H   0  0  0  0  0  0  0  0  0  0  0  0
    7.7497    2.6843   -1.0526 H   0  0  0  0  0  0  0  0  0  0  0  0
    6.1541    3.3741   -1.5924 H   0  0  0  0  0  0  0  0  0  0  0  0
    0.8780   -3.0678    1.6402 H   0  0  0  0  0  0  0  0  0  0  0  0
   -0.1493   -4.8935    2.9081 H   0  0  0  0  0  0  0  0  0  0  0  0
   -2.5548   -5.4342    2.6178 H   0  0  0  0  0  0  0  0  0  0  0  0
   -3.9373   -4.1175    1.0397 H   0  0  0  0  0  0  0  0  0  0  0  0
  1  2  1  0
  2  3  1  0
  2  4  1  0
  4  5  1  0
  5  6  1  0
  6  7  2  0
  7  8  1  0
  8  9  2  0
  8 10  1  0
 10 11  1  0
 11 12  2  0
 12 13  1  0
 13 14  2  0
 14 15  1  0
 15 16  1  0
 16 17  1  0
 14 18  1  0
  7 19  1  0
 19 20  2  0
 20 21  1  0
 21 22  2  0
 22 23  1  0
 23 24  2  0
 24 25  1  0
 25 26  2  0
 25  5  1  0
 18 11  1  0
 24 19  1  0
 17 15  1  0
  1 27  1  0
  1 28  1  0
  1 29  1  0
  2 30  1  0
  3 31  1  0
  3 32  1  0
  3 33  1  0
  4 34  1  0
  4 35  1  0
 10 36  1  0
 15 37  1  0
 16 38  1  0
 16 39  1  0
 17 40  1  0
 17 41  1  0
 20 42  1  0
 21 43  1  0
 22 44  1  0
 23 45  1  0
M  END
$$$$
