
     RDKit          3D

 40 41  0  0  0  0  0  0  0  0999 V2000
   -4.6482    4.1812    0.1446 C   0  0  0  0  0  0  0  0  0  0  0  0
   -3.6671    3.0889   -0.1583 C   0  0  0  0  0  0  0  0  0  0  0  0
   -2.4187    3.0588    0.4652 C   0  0  0  0  0  0  0  0  0  0  0  0
   -1.5223    2.0191    0.1980 C   0  0  0  0  0  0  0  0  0  0  0  0
   -1.8568    0.9787   -0.6803 C   0  0  0  0  0  0  0  0  0  0  0  0
   -0.8714   -0.0057   -0.8764 N   0  0  0  0  0  0  0  0  0  0  0  0
   -0.8376   -1.2197   -1.5204 C   0  0  0  0  0  0  0  0  0  0  0  0
   -2.0517   -2.0849   -2.2673 S   0  0  0  0  0  0  0  0  0  0  0  0
    0.4243   -1.8000   -1.5106 N   0  0  0  0  0  0  0  0  0  0  0  0
    1.5618   -1.0158   -1.2162 N   0  0  0  0  0  0  0  0  0  0  0  0
    2.5150   -0.8755   -2.3065 C   0  0  0  0  0  0  0  0  0  0  0  0
    2.0412   -1.2361    0.0782 C   0  0  0  0  0  0  0  0  0  0  0  0
    1.5265   -0.3897    1.0130 N   0  0  0  0  0  0  0  0  0  0  0  0
    1.9359   -0.5412    2.2948 C   0  0  0  0  0  0  0  0  0  0  0  0
    1.3652    0.3786    3.3268 C   0  0  0  0  0  0  0  0  0  0  0  0
    2.8543   -1.5155    2.6458 C   0  0  0  0  0  0  0  0  0  0  0  0
    3.3830   -2.3723    1.7478 N   0  0  0  0  0  0  0  0  0  0  0  0
    2.9545   -2.2362    0.4604 C   0  0  0  0  0  0  0  0  0  0  0  0
    3.5154   -3.2434   -0.4947 C   0  0  0  0  0  0  0  0  0  0  0  0
   -3.1052    1.0105   -1.2961 C   0  0  0  0  0  0  0  0  0  0  0  0
   -4.0061    2.0513   -1.0314 C   0  0  0  0  0  0  0  0  0  0  0  0
   -5.2883    3.8882    0.9825 H   0  0  0  0  0  0  0  0  0  0  0  0
   -4.1312    5.1112    0.4030 H   0  0  0  0  0  0  0  0  0  0  0  0
   -5.2781    4.3917   -0.7262 H   0  0  0  0  0  0  0  0  0  0  0  0
   -2.1312    3.8414    1.1628 H   0  0  0  0  0  0  0  0  0  0  0  0
   -0.5549    2.0259    0.6953 H   0  0  0  0  0  0  0  0  0  0  0  0
    0.0096    0.1500   -0.3838 H   0  0  0  0  0  0  0  0  0  0  0  0
    0.5582   -2.6570   -2.0381 H   0  0  0  0  0  0  0  0  0  0  0  0
    3.4069   -0.3237   -1.9899 H   0  0  0  0  0  0  0  0  0  0  0  0
    2.8173   -1.8423   -2.7206 H   0  0  0  0  0  0  0  0  0  0  0  0
    2.0535   -0.3029   -3.1189 H   0  0  0  0  0  0  0  0  0  0  0  0
    0.8338   -0.1947    4.0930 H   0  0  0  0  0  0  0  0  0  0  0  0
    2.1634    0.9585    3.8006 H   0  0  0  0  0  0  0  0  0  0  0  0
    0.6569    1.0802    2.8747 H   0  0  0  0  0  0  0  0  0  0  0  0
    3.1920   -1.6410    3.6687 H   0  0  0  0  0  0  0  0  0  0  0  0
    2.7252   -3.6898   -1.1052 H   0  0  0  0  0  0  0  0  0  0  0  0
    4.2694   -2.7811   -1.1378 H   0  0  0  0  0  0  0  0  0  0  0  0
    4.0025   -4.0604    0.0491 H   0  0  0  0  0  0  0  0  0  0  0  0
   -3.4197    0.2550   -2.0034 H   0  0  0  0  0  0  0  0  0  0  0  0
   -4.9770    2.0426   -1.5225 H   0  0  0  0  0  0  0  0  0  0  0  0
  1  2  1  0
  2  3  2  0
  3  4  1  0
  4  5  2  0
  5  6  1  0
  6  7  1  0
  7  8  2  0
  7  9  1  0
  9 10  1  0
 10 11  1  0
 10 12  1  0
 12 13  2  0
 13 14  1  0
 14 15  1  0
 14 16  2  0
 16 17  1  0
 17 18  2  0
 18 19  1  0
  5 20  1  0
 20 21  2  0
 21  2  1  0
 18 12  1  0
  1 22  1  0
  1 23  1  0
  1 24  1  0
  3 25  1  0
  4 26  1  0
  6 27  1  0
  9 28  1  0
 11 29  1  0
 11 30  1  0
 11 31  1  0
 15 32  1  0
 15 33  1  0
 15 34  1  0
 16 35  1  0
 19 36  1  0
 19 37  1  0
 19 38  1  0
 20 39  1  0
 21 40  1  0
M  END
$$$$
