
     RDKit          3D

 37 39  0  0  0  0  0  0  0  0999 V2000
   -0.0347   -2.9263   -2.1862 C   0  0  0  0  0  0  0  0  0  0  0  0
   -1.3611   -2.5174   -2.5074 O   0  0  0  0  0  0  0  0  0  0  0  0
   -1.6564   -1.1927   -2.2012 C   0  0  0  0  0  0  0  0  0  0  0  0
   -2.7542   -0.6820   -2.9002 C   0  0  0  0  0  0  0  0  0  0  0  0
   -3.1928    0.6238   -2.6951 C   0  0  0  0  0  0  0  0  0  0  0  0
   -2.5519    1.4685   -1.7800 C   0  0  0  0  0  0  0  0  0  0  0  0
   -2.9231    2.7607   -1.5115 O   0  0  0  0  0  0  0  0  0  0  0  0
   -3.9242    3.3380   -2.3378 C   0  0  0  0  0  0  0  0  0  0  0  0
   -1.4649    0.9315   -1.0539 C   0  0  0  0  0  0  0  0  0  0  0  0
   -0.5090    1.6889    0.1641 S   0  0  0  0  0  0  0  0  0  0  0  0
    0.4124    0.2476    0.3993 C   0  0  0  0  0  0  0  0  0  0  0  0
    1.4365    0.1378    1.3140 N   0  0  0  0  0  0  0  0  0  0  0  0
    2.0798   -1.1851    1.3713 C   0  0  0  0  0  0  0  0  0  0  0  0
    3.4302   -1.0937    2.0761 C   0  0  0  0  0  0  0  0  0  0  0  0
    3.2866   -0.4767    3.4600 C   0  0  0  0  0  0  0  0  0  0  0  0
    2.5958    0.8773    3.3643 C   0  0  0  0  0  0  0  0  0  0  0  0
    1.2642    0.7866    2.6208 C   0  0  0  0  0  0  0  0  0  0  0  0
    0.0649   -0.7254   -0.4143 N   0  0  0  0  0  0  0  0  0  0  0  0
   -1.0032   -0.3734   -1.2375 C   0  0  0  0  0  0  0  0  0  0  0  0
    0.0641   -3.1228   -1.1145 H   0  0  0  0  0  0  0  0  0  0  0  0
    0.1561   -3.8739   -2.7033 H   0  0  0  0  0  0  0  0  0  0  0  0
    0.7133   -2.2060   -2.5351 H   0  0  0  0  0  0  0  0  0  0  0  0
   -3.2747   -1.3216   -3.6096 H   0  0  0  0  0  0  0  0  0  0  0  0
   -4.0591    0.9546   -3.2589 H   0  0  0  0  0  0  0  0  0  0  0  0
   -4.8971    2.8662   -2.1543 H   0  0  0  0  0  0  0  0  0  0  0  0
   -3.6476    3.2916   -3.3932 H   0  0  0  0  0  0  0  0  0  0  0  0
   -4.0123    4.3920   -2.0646 H   0  0  0  0  0  0  0  0  0  0  0  0
    2.2605   -1.5839    0.3622 H   0  0  0  0  0  0  0  0  0  0  0  0
    1.4274   -1.8930    1.8989 H   0  0  0  0  0  0  0  0  0  0  0  0
    4.1158   -0.4857    1.4762 H   0  0  0  0  0  0  0  0  0  0  0  0
    3.8750   -2.0917    2.1583 H   0  0  0  0  0  0  0  0  0  0  0  0
    2.7041   -1.1444    4.1090 H   0  0  0  0  0  0  0  0  0  0  0  0
    4.2761   -0.3587    3.9200 H   0  0  0  0  0  0  0  0  0  0  0  0
    2.4239    1.2774    4.3718 H   0  0  0  0  0  0  0  0  0  0  0  0
    3.2584    1.5832    2.8460 H   0  0  0  0  0  0  0  0  0  0  0  0
    0.8810    1.8082    2.5265 H   0  0  0  0  0  0  0  0  0  0  0  0
    0.5403    0.2202    3.2196 H   0  0  0  0  0  0  0  0  0  0  0  0
  1  2  1  0
  2  3  1  0
  3  4  2  0
  4  5  1  0
  5  6  2  0
  6  7  1  0
  7  8  1  0
  6  9  1  0
  9 10  1  0
 10 11  1  0
 11 12  1  0
 12 13  1  0
 13 14  1  0
 14 15  1  0
 15 16  1  0
 16 17  1  0
 11 18  2  0
 18 19  1  0
 19  3  1  0
 19  9  2  0
 17 12  1  0
  1 20  1  0
  1 21  1  0
  1 22  1  0
  4 23  1  0
  5 24  1  0
  8 25  1  0
  8 26  1  0
  8 27  1  0
 13 28  1  0
 13 29  1  0
 14 30  1  0
 14 31  1  0
 15 32  1  0
 15 33  1  0
 16 34  1  0
 16 35  1  0
 17 36  1  0
 17 37  1  0
M  END
$$$$
