
     RDKit          3D

 56 60  0  0  0  0  0  0  0  0999 V2000
    2.9005   -3.1237    4.2357 C   0  0  0  0  0  0  0  0  0  0  0  0
    2.2721   -3.7067    2.9790 C   0  0  0  0  0  0  0  0  0  0  0  0
    2.5503   -2.9089    1.8088 N   0  0  0  0  0  0  0  0  0  0  0  0
    3.5959   -3.1358    0.9167 C   0  0  0  0  0  0  0  0  0  0  0  0
    4.4225   -4.0274    0.9034 O   0  0  0  0  0  0  0  0  0  0  0  0
    3.5225   -2.0250   -0.0553 C   0  0  0  0  0  0  0  0  0  0  0  0
    4.3036   -1.7331   -1.1542 C   0  0  0  0  0  0  0  0  0  0  0  0
    3.9887   -0.5735   -1.8695 C   0  0  0  0  0  0  0  0  0  0  0  0
    2.9140    0.2618   -1.4740 C   0  0  0  0  0  0  0  0  0  0  0  0
    2.1021   -0.0404   -0.3369 C   0  0  0  0  0  0  0  0  0  0  0  0
    0.9957    0.6270    0.2730 C   0  0  0  0  0  0  0  0  0  0  0  0
    0.3123    2.1442   -0.3821 S   0  0  0  0  0  6  0  0  0  0  0  0
    0.7928    2.3545   -1.7351 O   0  0  0  0  0  0  0  0  0  0  0  0
    0.5577    3.1444    0.6394 O   0  0  0  0  0  0  0  0  0  0  0  0
   -1.3778    1.8262   -0.4646 N   0  0  0  0  0  0  0  0  0  0  0  0
   -2.2532    2.9227   -0.7706 C   0  0  0  0  0  0  0  0  0  0  0  0
   -3.0013    2.9616   -1.7427 O   0  0  0  0  0  0  0  0  0  0  0  0
   -2.3185    4.0177    0.2211 C   0  0  0  0  0  0  0  0  0  0  0  0
   -2.1507    3.8112    1.5931 C   0  0  0  0  0  0  0  0  0  0  0  0
   -2.2126    4.9001    2.4594 C   0  0  0  0  0  0  0  0  0  0  0  0
   -2.4560    6.1570    1.9253 C   0  0  0  0  0  0  0  0  0  0  0  0
   -2.6582    6.3843    0.6080 N   0  0  0  0  0  0  0  0  0  0  0  0
   -2.5887    5.3084   -0.2166 C   0  0  0  0  0  0  0  0  0  0  0  0
   -1.7499    0.6117   -1.1573 C   0  0  0  0  0  0  0  0  0  0  0  0
   -1.3992    0.3390   -2.4820 C   0  0  0  0  0  0  0  0  0  0  0  0
   -1.8055   -0.8578   -3.0912 C   0  0  0  0  0  0  0  0  0  0  0  0
   -2.5871   -1.7758   -2.3872 C   0  0  0  0  0  0  0  0  0  0  0  0
   -3.0407   -2.9774   -2.8554 O   0  0  0  0  0  0  0  0  0  0  0  0
   -2.7934   -3.2695   -4.2261 C   0  0  0  0  0  0  0  0  0  0  0  0
   -2.9718   -1.4804   -1.0779 C   0  0  0  0  0  0  0  0  0  0  0  0
   -2.5678   -0.2894   -0.4686 C   0  0  0  0  0  0  0  0  0  0  0  0
    0.3915    0.1197    1.4593 C   0  0  0  0  0  0  0  0  0  0  0  0
    0.8310   -1.0714    2.0502 C   0  0  0  0  0  0  0  0  0  0  0  0
    1.8872   -1.7249    1.4524 C   0  0  0  0  0  0  0  0  0  0  0  0
    2.4794   -1.2127    0.3216 C   0  0  0  0  0  0  0  0  0  0  0  0
    2.7163   -3.7784    5.0934 H   0  0  0  0  0  0  0  0  0  0  0  0
    2.4823   -2.1416    4.4676 H   0  0  0  0  0  0  0  0  0  0  0  0
    3.9843   -3.0054    4.1166 H   0  0  0  0  0  0  0  0  0  0  0  0
    1.1861   -3.8102    3.0966 H   0  0  0  0  0  0  0  0  0  0  0  0
    2.6804   -4.7103    2.8129 H   0  0  0  0  0  0  0  0  0  0  0  0
    5.1309   -2.3751   -1.4416 H   0  0  0  0  0  0  0  0  0  0  0  0
    4.5835   -0.2986   -2.7396 H   0  0  0  0  0  0  0  0  0  0  0  0
    2.7401    1.1598   -2.0651 H   0  0  0  0  0  0  0  0  0  0  0  0
   -1.9651    2.8188    1.9932 H   0  0  0  0  0  0  0  0  0  0  0  0
   -2.0634    4.7761    3.5273 H   0  0  0  0  0  0  0  0  0  0  0  0
   -2.4920    7.0407    2.5629 H   0  0  0  0  0  0  0  0  0  0  0  0
   -2.7542    5.5306   -1.2687 H   0  0  0  0  0  0  0  0  0  0  0  0
   -0.8208    1.0485   -3.0687 H   0  0  0  0  0  0  0  0  0  0  0  0
   -1.5015   -1.0346   -4.1186 H   0  0  0  0  0  0  0  0  0  0  0  0
   -1.7166   -3.3270   -4.4351 H   0  0  0  0  0  0  0  0  0  0  0  0
   -3.2839   -2.5381   -4.8758 H   0  0  0  0  0  0  0  0  0  0  0  0
   -3.2223   -4.2555   -4.4412 H   0  0  0  0  0  0  0  0  0  0  0  0
   -3.5977   -2.1832   -0.5299 H   0  0  0  0  0  0  0  0  0  0  0  0
   -2.8957   -0.0770    0.5446 H   0  0  0  0  0  0  0  0  0  0  0  0
   -0.4324    0.6557    1.9220 H   0  0  0  0  0  0  0  0  0  0  0  0
    0.3545   -1.4525    2.9481 H   0  0  0  0  0  0  0  0  0  0  0  0
  1  2  1  0
  2  3  1  0
  3  4  1  0
  4  5  2  0
  4  6  1  0
  6  7  2  0
  7  8  1  0
  8  9  2  0
  9 10  1  0
 10 11  2  0
 11 12  1  0
 12 13  2  0
 12 14  2  0
 12 15  1  0
 15 16  1  0
 16 17  2  0
 16 18  1  0
 18 19  2  0
 19 20  1  0
 20 21  2  0
 21 22  1  0
 22 23  2  0
 15 24  1  0
 24 25  2  0
 25 26  1  0
 26 27  2  0
 27 28  1  0
 28 29  1  0
 27 30  1  0
 30 31  2  0
 11 32  1  0
 32 33  2  0
 33 34  1  0
 34 35  2  0
 34  3  1  0
 35  6  1  0
 35 10  1  0
 23 18  1  0
 31 24  1  0
  1 36  1  0
  1 37  1  0
  1 38  1  0
  2 39  1  0
  2 40  1  0
  7 41  1  0
  8 42  1  0
  9 43  1  0
 19 44  1  0
 20 45  1  0
 21 46  1  0
 23 47  1  0
 25 48  1  0
 26 49  1  0
 29 50  1  0
 29 51  1  0
 29 52  1  0
 30 53  1  0
 31 54  1  0
 32 55  1  0
 33 56  1  0
M  END
$$$$
