
     RDKit          3D

 52 56  0  0  0  0  0  0  0  0999 V2000
   -0.1092    1.3595    2.8345 O   0  0  0  0  0  0  0  0  0  0  0  0
   -0.0108    0.7431    1.7777 C   0  0  0  0  0  0  0  0  0  0  0  0
    1.2375    0.8901    1.0030 C   0  0  0  0  0  0  0  0  0  0  0  0
    2.0444   -0.2396    0.8704 C   0  0  0  0  0  0  0  0  0  0  0  0
    3.2196   -0.1198    0.1517 C   0  0  0  0  0  0  0  0  0  0  0  0
    4.1304   -1.2512   -0.0830 C   0  0  0  0  0  0  0  0  0  0  0  0
    4.4517   -1.5976   -1.4122 C   0  0  0  0  0  0  0  0  0  0  0  0
    5.2975   -2.6704   -1.7059 C   0  0  0  0  0  0  0  0  0  0  0  0
    5.8498   -3.4206   -0.6739 C   0  0  0  0  0  0  0  0  0  0  0  0
    5.5629   -3.0914    0.6494 C   0  0  0  0  0  0  0  0  0  0  0  0
    4.7153   -2.0149    0.9454 C   0  0  0  0  0  0  0  0  0  0  0  0
    4.4651   -1.6602    2.6224 Cl  0  0  0  0  0  0  0  0  0  0  0  0
    3.5797    1.0465   -0.4400 N   0  0  0  0  0  0  0  0  0  0  0  0
    2.8099    2.1370   -0.2887 C   0  0  0  0  0  0  0  0  0  0  0  0
    3.2205    3.3218   -0.8857 C   0  0  0  0  0  0  0  0  0  0  0  0
    2.4744    4.4993   -0.7851 C   0  0  0  0  0  0  0  0  0  0  0  0
    1.2870    4.4932   -0.0682 C   0  0  0  0  0  0  0  0  0  0  0  0
    0.2640    6.0741    0.0764 Br  0  0  0  0  0  0  0  0  0  0  0  0
    0.8481    3.3217    0.5419 C   0  0  0  0  0  0  0  0  0  0  0  0
    1.6057    2.1278    0.4383 C   0  0  0  0  0  0  0  0  0  0  0  0
   -0.9980   -0.1040    1.2789 N   0  0  0  0  0  0  0  0  0  0  0  0
   -1.1805   -0.3660   -0.1609 C   0  0  0  0  0  0  0  0  0  0  0  0
   -2.2272    0.6043   -0.7584 C   0  0  0  0  0  0  0  0  0  0  0  0
   -3.4955    0.6133    0.0129 N   0  0  0  0  0  0  0  0  0  0  0  0
   -4.3769   -0.4327   -0.3085 C   0  0  0  0  0  0  0  0  0  0  0  0
   -5.6949   -0.3943    0.1523 C   0  0  0  0  0  0  0  0  0  0  0  0
   -6.5801   -1.4223   -0.1695 C   0  0  0  0  0  0  0  0  0  0  0  0
   -6.1377   -2.4718   -0.9574 C   0  0  0  0  0  0  0  0  0  0  0  0
   -4.8277   -2.4377   -1.3942 C   0  0  0  0  0  0  0  0  0  0  0  0
   -3.9544   -1.4498   -1.0917 N   0  0  0  0  0  0  0  0  0  0  0  0
   -3.2862    0.8137    1.4715 C   0  0  0  0  0  0  0  0  0  0  0  0
   -2.2548   -0.1895    2.0304 C   0  0  0  0  0  0  0  0  0  0  0  0
    1.7497   -1.1836    1.3178 H   0  0  0  0  0  0  0  0  0  0  0  0
    4.0358   -1.0162   -2.2348 H   0  0  0  0  0  0  0  0  0  0  0  0
    5.5263   -2.9130   -2.7409 H   0  0  0  0  0  0  0  0  0  0  0  0
    6.5118   -4.2535   -0.8975 H   0  0  0  0  0  0  0  0  0  0  0  0
    6.0116   -3.6724    1.4518 H   0  0  0  0  0  0  0  0  0  0  0  0
    4.1533    3.3301   -1.4464 H   0  0  0  0  0  0  0  0  0  0  0  0
    2.8337    5.4051   -1.2663 H   0  0  0  0  0  0  0  0  0  0  0  0
   -0.0808    3.3350    1.1092 H   0  0  0  0  0  0  0  0  0  0  0  0
   -0.2426   -0.2608   -0.7107 H   0  0  0  0  0  0  0  0  0  0  0  0
   -1.5000   -1.4087   -0.2578 H   0  0  0  0  0  0  0  0  0  0  0  0
   -1.8187    1.6226   -0.7208 H   0  0  0  0  0  0  0  0  0  0  0  0
   -2.3972    0.3908   -1.8209 H   0  0  0  0  0  0  0  0  0  0  0  0
   -6.0478    0.4481    0.7378 H   0  0  0  0  0  0  0  0  0  0  0  0
   -7.6061   -1.3913    0.1848 H   0  0  0  0  0  0  0  0  0  0  0  0
   -6.7962   -3.2871   -1.2329 H   0  0  0  0  0  0  0  0  0  0  0  0
   -4.4282   -3.2281   -2.0228 H   0  0  0  0  0  0  0  0  0  0  0  0
   -2.9095    1.8347    1.6144 H   0  0  0  0  0  0  0  0  0  0  0  0
   -4.2182    0.7494    2.0430 H   0  0  0  0  0  0  0  0  0  0  0  0
   -2.0817    0.0044    3.0941 H   0  0  0  0  0  0  0  0  0  0  0  0
   -2.6246   -1.2173    1.9379 H   0  0  0  0  0  0  0  0  0  0  0  0
  1  2  2  0
  2  3  1  0
  3  4  2  0
  4  5  1  0
  5  6  1  0
  6  7  2  0
  7  8  1  0
  8  9  2  0
  9 10  1  0
 10 11  2  0
 11 12  1  0
  5 13  2  0
 13 14  1  0
 14 15  2  0
 15 16  1  0
 16 17  2  0
 17 18  1  0
 17 19  1  0
 19 20  2  0
  2 21  1  0
 21 22  1  0
 22 23  1  0
 23 24  1  0
 24 25  1  0
 25 26  2  0
 26 27  1  0
 27 28  2  0
 28 29  1  0
 29 30  2  0
 24 31  1  0
 31 32  1  0
 20  3  1  0
 32 21  1  0
 11  6  1  0
 20 14  1  0
 30 25  1  0
  4 33  1  0
  7 34  1  0
  8 35  1  0
  9 36  1  0
 10 37  1  0
 15 38  1  0
 16 39  1  0
 19 40  1  0
 22 41  1  0
 22 42  1  0
 23 43  1  0
 23 44  1  0
 26 45  1  0
 27 46  1  0
 28 47  1  0
 29 48  1  0
 31 49  1  0
 31 50  1  0
 32 51  1  0
 32 52  1  0
M  END
$$$$
