
     RDKit          3D

 49 52  0  0  0  0  0  0  0  0999 V2000
    8.2977    0.4134    1.1086 C   0  0  0  0  0  0  0  0  0  0  0  0
    7.2805   -0.6205    0.9313 N   0  0  0  0  0  0  0  0  0  0  0  0
    7.7791   -1.9549    0.6082 C   0  0  0  0  0  0  0  0  0  0  0  0
    6.0013   -0.2443    0.5065 C   0  0  0  0  0  0  0  0  0  0  0  0
    5.0914   -1.1621   -0.0464 C   0  0  0  0  0  0  0  0  0  0  0  0
    3.8028   -0.7889   -0.4616 C   0  0  0  0  0  0  0  0  0  0  0  0
    3.3633    0.5234   -0.3134 C   0  0  0  0  0  0  0  0  0  0  0  0
    2.0469    0.9670   -0.7812 C   0  0  0  0  0  0  0  0  0  0  0  0
    0.8484    0.4787   -0.4294 C   0  0  0  0  0  0  0  0  0  0  0  0
   -0.3964    0.9685   -0.9289 C   0  0  0  0  0  0  0  0  0  0  0  0
   -1.3406    0.2406   -0.3357 C   0  0  0  0  0  0  0  0  0  0  0  0
   -2.7996    0.3440   -0.4945 C   0  0  0  0  0  0  0  0  0  0  0  0
   -3.3770    0.9959   -1.5917 C   0  0  0  0  0  0  0  0  0  0  0  0
   -4.7661    1.0840   -1.7261 C   0  0  0  0  0  0  0  0  0  0  0  0
   -5.6158    0.5234   -0.7651 C   0  0  0  0  0  0  0  0  0  0  0  0
   -5.0571   -0.1582    0.3273 C   0  0  0  0  0  0  0  0  0  0  0  0
   -3.6583   -0.2305    0.4558 C   0  0  0  0  0  0  0  0  0  0  0  0
   -5.9225   -0.7660    1.4048 C   0  0  0  0  0  0  0  0  0  0  0  0
   -7.3759   -0.9564    0.9750 C   0  0  0  0  0  0  0  0  0  0  0  0
   -7.9032    0.3068    0.3069 C   0  0  0  0  0  0  0  0  0  0  0  0
   -7.1093    0.6101   -0.9623 C   0  0  0  0  0  0  0  0  0  0  0  0
   -0.8558   -0.7329    0.5605 O   0  0  0  0  0  0  0  0  0  0  0  0
    0.5193   -0.6156    0.5317 C   0  0  0  0  0  0  0  0  0  0  0  0
    1.2847   -1.3001    1.1847 O   0  0  0  0  0  0  0  0  0  0  0  0
    4.2414    1.4558    0.2357 C   0  0  0  0  0  0  0  0  0  0  0  0
    5.5288    1.0725    0.6437 C   0  0  0  0  0  0  0  0  0  0  0  0
    8.0295    1.0979    1.9203 H   0  0  0  0  0  0  0  0  0  0  0  0
    9.2643   -0.0207    1.3884 H   0  0  0  0  0  0  0  0  0  0  0  0
    8.4485    0.9807    0.1834 H   0  0  0  0  0  0  0  0  0  0  0  0
    7.8664   -2.0907   -0.4753 H   0  0  0  0  0  0  0  0  0  0  0  0
    8.7702   -2.1238    1.0444 H   0  0  0  0  0  0  0  0  0  0  0  0
    7.1319   -2.7333    1.0267 H   0  0  0  0  0  0  0  0  0  0  0  0
    5.3567   -2.2071   -0.1729 H   0  0  0  0  0  0  0  0  0  0  0  0
    3.1526   -1.5484   -0.8888 H   0  0  0  0  0  0  0  0  0  0  0  0
    2.0947    1.8001   -1.4804 H   0  0  0  0  0  0  0  0  0  0  0  0
   -0.5219    1.7729   -1.6338 H   0  0  0  0  0  0  0  0  0  0  0  0
   -2.7602    1.4390   -2.3689 H   0  0  0  0  0  0  0  0  0  0  0  0
   -5.1832    1.5930   -2.5927 H   0  0  0  0  0  0  0  0  0  0  0  0
   -3.2410   -0.7438    1.3214 H   0  0  0  0  0  0  0  0  0  0  0  0
   -5.8873   -0.1056    2.2804 H   0  0  0  0  0  0  0  0  0  0  0  0
   -5.5149   -1.7383    1.7065 H   0  0  0  0  0  0  0  0  0  0  0  0
   -7.4516   -1.7998    0.2770 H   0  0  0  0  0  0  0  0  0  0  0  0
   -7.9881   -1.2065    1.8487 H   0  0  0  0  0  0  0  0  0  0  0  0
   -7.8282    1.1502    1.0051 H   0  0  0  0  0  0  0  0  0  0  0  0
   -8.9638    0.1890    0.0581 H   0  0  0  0  0  0  0  0  0  0  0  0
   -7.3812    1.6116   -1.3166 H   0  0  0  0  0  0  0  0  0  0  0  0
   -7.3903   -0.1059   -1.7449 H   0  0  0  0  0  0  0  0  0  0  0  0
    3.9380    2.4916    0.3670 H   0  0  0  0  0  0  0  0  0  0  0  0
    6.1508    1.8441    1.0864 H   0  0  0  0  0  0  0  0  0  0  0  0
  1  2  1  0
  2  3  1  0
  2  4  1  0
  4  5  2  0
  5  6  1  0
  6  7  2  0
  7  8  1  0
  8  9  2  3
  9 10  1  0
 10 11  2  0
 11 12  1  0
 12 13  2  0
 13 14  1  0
 14 15  2  0
 15 16  1  0
 16 17  2  0
 16 18  1  0
 18 19  1  0
 19 20  1  0
 20 21  1  0
 11 22  1  0
 22 23  1  0
 23 24  2  0
  7 25  1  0
 25 26  2  0
 26  4  1  0
 23  9  1  0
 17 12  1  0
 21 15  1  0
  1 27  1  0
  1 28  1  0
  1 29  1  0
  3 30  1  0
  3 31  1  0
  3 32  1  0
  5 33  1  0
  6 34  1  0
  8 35  1  0
 10 36  1  0
 13 37  1  0
 14 38  1  0
 17 39  1  0
 18 40  1  0
 18 41  1  0
 19 42  1  0
 19 43  1  0
 20 44  1  0
 20 45  1  0
 21 46  1  0
 21 47  1  0
 25 48  1  0
 26 49  1  0
M  END
$$$$
