
     RDKit          3D

 38 40  0  0  0  0  0  0  0  0999 V2000
    1.2996   -1.8226    1.2515 O   0  0  0  0  0  0  0  0  0  0  0  0
    0.9887   -1.4500    0.1228 C   0  0  0  0  0  0  0  0  0  0  0  0
   -0.4105   -1.7330   -0.4390 C   0  0  0  0  0  0  0  0  0  0  0  0
   -1.2560   -0.5335   -0.4612 N   0  0  0  0  0  0  0  0  0  0  0  0
   -1.0558    0.3785   -1.4919 C   0  0  0  0  0  0  0  0  0  0  0  0
   -0.2300    0.1791   -2.3894 O   0  0  0  0  0  0  0  0  0  0  0  0
   -1.8067    1.6877   -1.4298 C   0  0  0  0  0  0  0  0  0  0  0  0
   -3.1890    1.5847   -2.0346 C   0  0  0  0  0  0  0  0  0  0  0  0
   -4.2013    0.1887   -1.4603 S   0  0  0  0  0  0  0  0  0  0  0  0
   -3.5984   -0.0070    0.2149 C   0  0  0  0  0  0  0  0  0  0  0  0
   -4.5574    0.0989    1.2347 C   0  0  0  0  0  0  0  0  0  0  0  0
   -4.2245   -0.1817    2.5587 C   0  0  0  0  0  0  0  0  0  0  0  0
   -2.9355   -0.5944    2.8731 C   0  0  0  0  0  0  0  0  0  0  0  0
   -1.9747   -0.7165    1.8666 C   0  0  0  0  0  0  0  0  0  0  0  0
   -2.2809   -0.4097    0.5298 C   0  0  0  0  0  0  0  0  0  0  0  0
    1.7923   -0.7502   -0.7614 N   0  0  0  0  0  0  0  0  0  0  0  0
    3.1237   -0.3328   -0.5810 C   0  0  0  0  0  0  0  0  0  0  0  0
    3.8926   -0.6364    0.5462 C   0  0  0  0  0  0  0  0  0  0  0  0
    5.2117   -0.1818    0.6442 C   0  0  0  0  0  0  0  0  0  0  0  0
    5.7588    0.5733   -0.3846 C   0  0  0  0  0  0  0  0  0  0  0  0
    7.0220    1.0074   -0.2879 F   0  0  0  0  0  0  0  0  0  0  0  0
    5.0123    0.8833   -1.5130 C   0  0  0  0  0  0  0  0  0  0  0  0
    3.6949    0.4294   -1.6111 C   0  0  0  0  0  0  0  0  0  0  0  0
   -0.8804   -2.5332    0.1447 H   0  0  0  0  0  0  0  0  0  0  0  0
   -0.3045   -2.1205   -1.4602 H   0  0  0  0  0  0  0  0  0  0  0  0
   -1.2242    2.4362   -1.9817 H   0  0  0  0  0  0  0  0  0  0  0  0
   -1.8385    2.0589   -0.3990 H   0  0  0  0  0  0  0  0  0  0  0  0
   -3.1097    1.4887   -3.1231 H   0  0  0  0  0  0  0  0  0  0  0  0
   -3.7410    2.5097   -1.8364 H   0  0  0  0  0  0  0  0  0  0  0  0
   -5.5821    0.3816    1.0009 H   0  0  0  0  0  0  0  0  0  0  0  0
   -4.9762   -0.0957    3.3395 H   0  0  0  0  0  0  0  0  0  0  0  0
   -2.6717   -0.8230    3.9033 H   0  0  0  0  0  0  0  0  0  0  0  0
   -0.9731   -1.0223    2.1602 H   0  0  0  0  0  0  0  0  0  0  0  0
    1.3399   -0.4518   -1.6286 H   0  0  0  0  0  0  0  0  0  0  0  0
    3.4972   -1.2276    1.3660 H   0  0  0  0  0  0  0  0  0  0  0  0
    5.8110   -0.4159    1.5183 H   0  0  0  0  0  0  0  0  0  0  0  0
    5.4570    1.4737   -2.3074 H   0  0  0  0  0  0  0  0  0  0  0  0
    3.1205    0.6797   -2.5003 H   0  0  0  0  0  0  0  0  0  0  0  0
  1  2  2  0
  2  3  1  0
  3  4  1  0
  4  5  1  0
  5  6  2  0
  5  7  1  0
  7  8  1  0
  8  9  1  0
  9 10  1  0
 10 11  2  0
 11 12  1  0
 12 13  2  0
 13 14  1  0
 14 15  2  0
  2 16  1  0
 16 17  1  0
 17 18  2  0
 18 19  1  0
 19 20  2  0
 20 21  1  0
 20 22  1  0
 22 23  2  0
 15  4  1  0
 23 17  1  0
 15 10  1  0
  3 24  1  0
  3 25  1  0
  7 26  1  0
  7 27  1  0
  8 28  1  0
  8 29  1  0
 11 30  1  0
 12 31  1  0
 13 32  1  0
 14 33  1  0
 16 34  1  0
 18 35  1  0
 19 36  1  0
 22 37  1  0
 23 38  1  0
M  END
$$$$
