
     RDKit          3D

 55 59  0  0  0  0  0  0  0  0999 V2000
   -1.8088   -1.2483   -1.0994 C   0  0  0  0  0  0  0  0  0  0  0  0
   -2.5350   -0.5791    0.0345 C   0  0  0  0  0  0  0  0  0  0  0  0
   -3.8757   -0.2083   -0.0525 C   0  0  0  0  0  0  0  0  0  0  0  0
   -4.7010   -0.3595   -1.2621 C   0  0  0  0  0  0  0  0  0  0  0  0
   -5.8688   -1.1424   -1.2343 C   0  0  0  0  0  0  0  0  0  0  0  0
   -6.6668   -1.2905   -2.3720 C   0  0  0  0  0  0  0  0  0  0  0  0
   -6.3126   -0.6493   -3.5572 C   0  0  0  0  0  0  0  0  0  0  0  0
   -5.1677    0.1428   -3.5955 C   0  0  0  0  0  0  0  0  0  0  0  0
   -4.7326    0.9423   -5.0561 Cl  0  0  0  0  0  0  0  0  0  0  0  0
   -4.3689    0.2936   -2.4611 C   0  0  0  0  0  0  0  0  0  0  0  0
   -4.5498    0.3422    0.9892 N   0  0  0  0  0  0  0  0  0  0  0  0
   -3.9196    0.5793    2.1484 C   0  0  0  0  0  0  0  0  0  0  0  0
   -4.6461    1.1469    3.1870 C   0  0  0  0  0  0  0  0  0  0  0  0
   -4.0663    1.4377    4.4238 C   0  0  0  0  0  0  0  0  0  0  0  0
   -2.7249    1.1561    4.6342 C   0  0  0  0  0  0  0  0  0  0  0  0
   -1.9749    0.5887    3.6054 C   0  0  0  0  0  0  0  0  0  0  0  0
   -2.5611    0.2903    2.3467 C   0  0  0  0  0  0  0  0  0  0  0  0
   -1.8817   -0.2814    1.2453 C   0  0  0  0  0  0  0  0  0  0  0  0
   -0.4396   -0.5606    1.3766 C   0  0  0  0  0  0  0  0  0  0  0  0
    0.0450   -1.4258    2.0839 O   0  0  0  0  0  0  0  0  0  0  0  0
    0.2365    0.3430    0.6245 O   0  0  0  0  0  0  0  0  0  0  0  0
    1.6574    0.2166    0.7191 C   0  0  0  0  0  0  0  0  0  0  0  0
    2.1897   -1.0708    0.0778 C   0  0  0  0  0  0  0  0  0  0  0  0
    1.5464   -1.6708   -0.7938 O   0  0  0  0  0  0  0  0  0  0  0  0
    3.5723   -1.5505    0.4560 C   0  0  0  0  0  0  0  0  0  0  0  0
    3.7670   -1.6043    1.9081 C   0  0  0  0  0  0  0  0  0  0  0  0
    3.9302   -1.6646    3.0568 N   0  0  0  0  0  0  0  0  0  0  0  0
    4.5675   -0.6466   -0.1923 C   0  0  0  0  0  0  0  0  0  0  0  0
    4.7304    0.6412    0.0425 N   0  0  0  0  0  0  0  0  0  0  0  0
    5.7381    1.0521   -0.7958 C   0  0  0  0  0  0  0  0  0  0  0  0
    6.3151    2.3198   -0.9532 C   0  0  0  0  0  0  0  0  0  0  0  0
    7.3381    2.4772   -1.8965 C   0  0  0  0  0  0  0  0  0  0  0  0
    7.7757    1.3951   -2.6650 C   0  0  0  0  0  0  0  0  0  0  0  0
    7.2105    0.1223   -2.5203 C   0  0  0  0  0  0  0  0  0  0  0  0
    6.1936   -0.0059   -1.5725 C   0  0  0  0  0  0  0  0  0  0  0  0
    5.4321   -1.0748   -1.1743 N   0  0  0  0  0  0  0  0  0  0  0  0
   -1.2486   -0.5096   -1.6810 H   0  0  0  0  0  0  0  0  0  0  0  0
   -1.1207   -2.0122   -0.7239 H   0  0  0  0  0  0  0  0  0  0  0  0
   -2.4911   -1.7797   -1.7708 H   0  0  0  0  0  0  0  0  0  0  0  0
   -6.1617   -1.6402   -0.3101 H   0  0  0  0  0  0  0  0  0  0  0  0
   -7.5651   -1.9022   -2.3293 H   0  0  0  0  0  0  0  0  0  0  0  0
   -6.9347   -0.7634   -4.4408 H   0  0  0  0  0  0  0  0  0  0  0  0
   -3.4880    0.9299   -2.5078 H   0  0  0  0  0  0  0  0  0  0  0  0
   -5.6987    1.3721    3.0274 H   0  0  0  0  0  0  0  0  0  0  0  0
   -4.6646    1.8835    5.2137 H   0  0  0  0  0  0  0  0  0  0  0  0
   -2.2612    1.3734    5.5933 H   0  0  0  0  0  0  0  0  0  0  0  0
   -0.9260    0.3696    3.8001 H   0  0  0  0  0  0  0  0  0  0  0  0
    1.9552    0.2987    1.7688 H   0  0  0  0  0  0  0  0  0  0  0  0
    2.0883    1.0656    0.1801 H   0  0  0  0  0  0  0  0  0  0  0  0
    3.6827   -2.5689    0.0606 H   0  0  0  0  0  0  0  0  0  0  0  0
    5.9717    3.1554   -0.3539 H   0  0  0  0  0  0  0  0  0  0  0  0
    7.7960    3.4550   -2.0306 H   0  0  0  0  0  0  0  0  0  0  0  0
    8.5727    1.5449   -3.3914 H   0  0  0  0  0  0  0  0  0  0  0  0
    7.5519   -0.7147   -3.1199 H   0  0  0  0  0  0  0  0  0  0  0  0
    5.4983   -2.0108   -1.5507 H   0  0  0  0  0  0  0  0  0  0  0  0
  1  2  1  0
  2  3  2  0
  3  4  1  0
  4  5  2  0
  5  6  1  0
  6  7  2  0
  7  8  1  0
  8  9  1  0
  8 10  2  0
  3 11  1  0
 11 12  2  0
 12 13  1  0
 13 14  2  0
 14 15  1  0
 15 16  2  0
 16 17  1  0
 17 18  2  0
 18 19  1  0
 19 20  2  0
 19 21  1  0
 21 22  1  0
 22 23  1  0
 23 24  2  0
 23 25  1  0
 25 26  1  0
 26 27  3  0
 25 28  1  0
 28 29  2  0
 29 30  1  0
 30 31  2  0
 31 32  1  0
 32 33  2  0
 33 34  1  0
 34 35  2  0
 35 36  1  0
 18  2  1  0
 36 28  1  0
 10  4  1  0
 17 12  1  0
 35 30  1  0
  1 37  1  0
  1 38  1  0
  1 39  1  0
  5 40  1  0
  6 41  1  0
  7 42  1  0
 10 43  1  0
 13 44  1  0
 14 45  1  0
 15 46  1  0
 16 47  1  0
 22 48  1  0
 22 49  1  0
 25 50  1  0
 31 51  1  0
 32 52  1  0
 33 53  1  0
 34 54  1  0
 36 55  1  0
M  END
$$$$
