
     RDKit          3D

 64 67  0  0  0  0  0  0  0  0999 V2000
    0.2801    2.1649    2.4687 C   0  0  0  0  0  0  0  0  0  0  0  0
   -0.6335    1.2580    1.8479 O   0  0  0  0  0  0  0  0  0  0  0  0
   -1.2072    1.7668    0.7100 C   0  0  0  0  0  0  0  0  0  0  0  0
   -1.8872    2.9952    0.7535 C   0  0  0  0  0  0  0  0  0  0  0  0
   -2.4969    3.5203   -0.3895 C   0  0  0  0  0  0  0  0  0  0  0  0
   -3.1677    4.7169   -0.4308 O   0  0  0  0  0  0  0  0  0  0  0  0
   -3.2694    5.4609    0.7775 C   0  0  0  0  0  0  0  0  0  0  0  0
   -2.4370    2.7947   -1.5895 C   0  0  0  0  0  0  0  0  0  0  0  0
   -3.0433    3.2785   -2.8289 C   0  0  0  0  0  0  0  0  0  0  0  0
   -2.9697    2.5586   -3.9511 C   0  0  0  0  0  0  0  0  0  0  0  0
   -2.2866    1.2602   -4.0009 C   0  0  0  0  0  0  0  0  0  0  0  0
   -2.2242    0.6178   -5.0420 O   0  0  0  0  0  0  0  0  0  0  0  0
   -1.7246    0.8146   -2.8150 O   0  0  0  0  0  0  0  0  0  0  0  0
   -1.7799    1.5566   -1.6065 C   0  0  0  0  0  0  0  0  0  0  0  0
   -1.1615    1.0034   -0.4680 C   0  0  0  0  0  0  0  0  0  0  0  0
   -0.4548   -0.3557   -0.5470 C   0  0  0  0  0  0  0  0  0  0  0  0
   -1.1094   -1.3898    0.4089 C   0  0  0  0  0  0  0  0  0  0  0  0
   -0.7302   -2.8369    0.0432 C   0  0  0  0  0  0  0  0  0  0  0  0
   -1.2519   -3.8994    0.9023 N   0  0  0  0  0  0  0  0  0  0  0  0
   -2.7039   -3.9739    1.0154 C   0  0  0  0  0  0  0  0  0  0  0  0
   -2.9205   -4.9344    2.1810 C   0  0  0  0  0  0  0  0  0  0  0  0
   -1.5776   -5.0027    2.9027 C   0  0  0  0  0  0  0  0  0  0  0  0
   -0.7397   -3.9058    2.2669 C   0  0  0  0  0  0  0  0  0  0  0  0
    1.0638   -0.2095   -0.4679 C   0  0  0  0  0  0  0  0  0  0  0  0
    1.7645    0.2457   -1.5917 C   0  0  0  0  0  0  0  0  0  0  0  0
    3.1568    0.4202   -1.5602 C   0  0  0  0  0  0  0  0  0  0  0  0
    3.9229    0.1437   -0.4162 C   0  0  0  0  0  0  0  0  0  0  0  0
    5.3110    0.3378   -0.3780 N   0  0  0  0  0  0  0  0  0  0  0  0
    6.0277    0.5533   -1.6346 C   0  0  0  0  0  0  0  0  0  0  0  0
    6.0775   -0.3254    0.6761 C   0  0  0  0  0  0  0  0  0  0  0  0
    3.1988   -0.2952    0.7061 C   0  0  0  0  0  0  0  0  0  0  0  0
    1.8057   -0.4744    0.6845 C   0  0  0  0  0  0  0  0  0  0  0  0
    0.8987    2.6959    1.7329 H   0  0  0  0  0  0  0  0  0  0  0  0
    0.9464    1.5782    3.1087 H   0  0  0  0  0  0  0  0  0  0  0  0
   -0.2564    2.8754    3.1079 H   0  0  0  0  0  0  0  0  0  0  0  0
   -1.9419    3.5189    1.7007 H   0  0  0  0  0  0  0  0  0  0  0  0
   -3.8214    4.9011    1.5400 H   0  0  0  0  0  0  0  0  0  0  0  0
   -2.2810    5.7606    1.1419 H   0  0  0  0  0  0  0  0  0  0  0  0
   -3.8345    6.3729    0.5620 H   0  0  0  0  0  0  0  0  0  0  0  0
   -3.5543    4.2359   -2.8207 H   0  0  0  0  0  0  0  0  0  0  0  0
   -3.4107    2.9001   -4.8794 H   0  0  0  0  0  0  0  0  0  0  0  0
   -0.6395   -0.7745   -1.5455 H   0  0  0  0  0  0  0  0  0  0  0  0
   -2.1986   -1.2817    0.3312 H   0  0  0  0  0  0  0  0  0  0  0  0
   -0.8554   -1.1832    1.4519 H   0  0  0  0  0  0  0  0  0  0  0  0
   -1.0691   -3.0387   -0.9812 H   0  0  0  0  0  0  0  0  0  0  0  0
    0.3609   -2.9398    0.0096 H   0  0  0  0  0  0  0  0  0  0  0  0
   -3.1574   -3.0092    1.2667 H   0  0  0  0  0  0  0  0  0  0  0  0
   -3.1686   -4.3470    0.0976 H   0  0  0  0  0  0  0  0  0  0  0  0
   -3.7077   -4.5645    2.8481 H   0  0  0  0  0  0  0  0  0  0  0  0
   -3.2163   -5.9306    1.8302 H   0  0  0  0  0  0  0  0  0  0  0  0
   -1.6825   -4.8687    3.9845 H   0  0  0  0  0  0  0  0  0  0  0  0
   -1.1172   -5.9841    2.7315 H   0  0  0  0  0  0  0  0  0  0  0  0
   -0.9156   -2.9572    2.7866 H   0  0  0  0  0  0  0  0  0  0  0  0
    0.3284   -4.1401    2.3113 H   0  0  0  0  0  0  0  0  0  0  0  0
    1.2325    0.4760   -2.5136 H   0  0  0  0  0  0  0  0  0  0  0  0
    3.6214    0.7839   -2.4723 H   0  0  0  0  0  0  0  0  0  0  0  0
    7.0989    0.7060   -1.4574 H   0  0  0  0  0  0  0  0  0  0  0  0
    5.6783    1.4597   -2.1406 H   0  0  0  0  0  0  0  0  0  0  0  0
    5.9215   -0.3085   -2.3033 H   0  0  0  0  0  0  0  0  0  0  0  0
    7.1521   -0.1401    0.5645 H   0  0  0  0  0  0  0  0  0  0  0  0
    5.9263   -1.4104    0.6520 H   0  0  0  0  0  0  0  0  0  0  0  0
    5.8094    0.0629    1.6645 H   0  0  0  0  0  0  0  0  0  0  0  0
    3.7003   -0.5049    1.6464 H   0  0  0  0  0  0  0  0  0  0  0  0
    1.3211   -0.8089    1.5983 H   0  0  0  0  0  0  0  0  0  0  0  0
  1  2  1  0
  2  3  1  0
  3  4  2  0
  4  5  1  0
  5  6  1  0
  6  7  1  0
  5  8  2  0
  8  9  1  0
  9 10  2  0
 10 11  1  0
 11 12  2  0
 11 13  1  0
 13 14  1  0
 14 15  2  0
 15 16  1  0
 16 17  1  0
 17 18  1  0
 18 19  1  0
 19 20  1  0
 20 21  1  0
 21 22  1  0
 22 23  1  0
 16 24  1  0
 24 25  2  0
 25 26  1  0
 26 27  2  0
 27 28  1  0
 28 29  1  0
 28 30  1  0
 27 31  1  0
 31 32  2  0
 15  3  1  0
 23 19  1  0
 32 24  1  0
 14  8  1  0
  1 33  1  0
  1 34  1  0
  1 35  1  0
  4 36  1  0
  7 37  1  0
  7 38  1  0
  7 39  1  0
  9 40  1  0
 10 41  1  0
 16 42  1  0
 17 43  1  0
 17 44  1  0
 18 45  1  0
 18 46  1  0
 20 47  1  0
 20 48  1  0
 21 49  1  0
 21 50  1  0
 22 51  1  0
 22 52  1  0
 23 53  1  0
 23 54  1  0
 25 55  1  0
 26 56  1  0
 29 57  1  0
 29 58  1  0
 29 59  1  0
 30 60  1  0
 30 61  1  0
 30 62  1  0
 31 63  1  0
 32 64  1  0
M  END
$$$$
