
     RDKit          3D

 45 48  0  0  0  0  0  0  0  0999 V2000
   -2.9675   -2.7765   -1.0341 C   0  0  0  0  0  0  0  0  0  0  0  0
   -2.9724   -1.4050   -0.4599 C   0  0  0  0  0  0  0  0  0  0  0  0
   -4.0112   -0.7996    0.2382 C   0  0  0  0  0  0  0  0  0  0  0  0
   -5.2214   -1.2278    0.5754 O   0  0  0  0  0  0  0  0  0  0  0  0
   -3.6018    0.4546    0.5794 N   0  0  0  0  0  0  0  0  0  0  0  0
   -2.3330    0.6859    0.1170 C   0  0  0  0  0  0  0  0  0  0  0  0
   -1.6021    1.8643    0.2816 C   0  0  0  0  0  0  0  0  0  0  0  0
   -0.3333    1.8883   -0.2985 C   0  0  0  0  0  0  0  0  0  0  0  0
    0.1487    0.7566   -0.9713 C   0  0  0  0  0  0  0  0  0  0  0  0
    1.7751    0.7834   -1.6863 S   0  0  0  0  0  6  0  0  0  0  0  0
    1.6418    0.3825   -3.0707 O   0  0  0  0  0  0  0  0  0  0  0  0
    2.4245    2.0264   -1.3235 O   0  0  0  0  0  0  0  0  0  0  0  0
    2.5744   -0.4686   -0.8398 N   0  0  0  0  0  0  0  0  0  0  0  0
    2.7317   -0.2723    0.6299 C   0  0  0  0  0  0  0  0  0  0  0  0
    4.1896   -0.0734    1.0211 C   0  0  0  0  0  0  0  0  0  0  0  0
    5.0505   -1.2693    0.6204 C   0  0  0  0  0  0  0  0  0  0  0  0
    4.5450   -1.9489   -0.6505 C   0  0  0  0  0  0  0  0  0  0  0  0
    3.7873   -0.9722   -1.5404 C   0  0  0  0  0  0  0  0  0  0  0  0
   -0.6150   -0.4203   -1.1098 C   0  0  0  0  0  0  0  0  0  0  0  0
   -1.9020   -0.4499   -0.5430 C   0  0  0  0  0  0  0  0  0  0  0  0
   -2.2488    3.0133    0.9999 C   0  0  0  0  0  0  0  0  0  0  0  0
   -3.3519    2.5007    1.9554 C   0  0  0  0  0  0  0  0  0  0  0  0
   -4.3207    1.4985    1.2917 C   0  0  0  0  0  0  0  0  0  0  0  0
   -3.5202   -2.7919   -1.9788 H   0  0  0  0  0  0  0  0  0  0  0  0
   -1.9489   -3.1271   -1.2267 H   0  0  0  0  0  0  0  0  0  0  0  0
   -3.4373   -3.4874   -0.3467 H   0  0  0  0  0  0  0  0  0  0  0  0
   -5.3187   -2.1282    0.2200 H   0  0  0  0  0  0  0  0  0  0  0  0
    0.2771    2.7860   -0.2244 H   0  0  0  0  0  0  0  0  0  0  0  0
    2.1475    0.5824    0.9846 H   0  0  0  0  0  0  0  0  0  0  0  0
    2.3196   -1.1567    1.1308 H   0  0  0  0  0  0  0  0  0  0  0  0
    4.5763    0.8299    0.5322 H   0  0  0  0  0  0  0  0  0  0  0  0
    4.2742    0.0950    2.1005 H   0  0  0  0  0  0  0  0  0  0  0  0
    6.0843   -0.9315    0.4806 H   0  0  0  0  0  0  0  0  0  0  0  0
    5.0740   -2.0058    1.4326 H   0  0  0  0  0  0  0  0  0  0  0  0
    5.3884   -2.3876   -1.1953 H   0  0  0  0  0  0  0  0  0  0  0  0
    3.8815   -2.7790   -0.3754 H   0  0  0  0  0  0  0  0  0  0  0  0
    4.4388   -0.1381   -1.8264 H   0  0  0  0  0  0  0  0  0  0  0  0
    3.4759   -1.4954   -2.4511 H   0  0  0  0  0  0  0  0  0  0  0  0
   -0.2187   -1.2776   -1.6462 H   0  0  0  0  0  0  0  0  0  0  0  0
   -1.5019    3.5697    1.5768 H   0  0  0  0  0  0  0  0  0  0  0  0
   -2.6848    3.6938    0.2594 H   0  0  0  0  0  0  0  0  0  0  0  0
   -3.9151    3.3488    2.3606 H   0  0  0  0  0  0  0  0  0  0  0  0
   -2.8695    2.0029    2.8078 H   0  0  0  0  0  0  0  0  0  0  0  0
   -4.9541    1.0249    2.0484 H   0  0  0  0  0  0  0  0  0  0  0  0
   -4.9554    2.0024    0.5544 H   0  0  0  0  0  0  0  0  0  0  0  0
  1  2  1  0
  2  3  2  0
  3  4  1  0
  3  5  1  0
  5  6  1  0
  6  7  2  0
  7  8  1  0
  8  9  2  0
  9 10  1  0
 10 11  2  0
 10 12  2  0
 10 13  1  0
 13 14  1  0
 14 15  1  0
 15 16  1  0
 16 17  1  0
 17 18  1  0
  9 19  1  0
 19 20  2  0
  7 21  1  0
 21 22  1  0
 22 23  1  0
 20  2  1  0
 23  5  1  0
 20  6  1  0
 18 13  1  0
  1 24  1  0
  1 25  1  0
  1 26  1  0
  4 27  1  0
  8 28  1  0
 14 29  1  0
 14 30  1  0
 15 31  1  0
 15 32  1  0
 16 33  1  0
 16 34  1  0
 17 35  1  0
 17 36  1  0
 18 37  1  0
 18 38  1  0
 19 39  1  0
 21 40  1  0
 21 41  1  0
 22 42  1  0
 22 43  1  0
 23 44  1  0
 23 45  1  0
M  END
$$$$
