
     RDKit          3D

 48 50  0  0  0  0  0  0  0  0999 V2000
    1.2648   -3.3195   -2.4280 C   0  0  0  0  0  0  0  0  0  0  0  0
    1.0633   -3.1225   -0.9331 C   0  0  0  0  0  0  0  0  0  0  0  0
    1.7700   -1.8992   -0.4356 C   0  0  0  0  0  0  0  0  0  0  0  0
    1.2603   -0.7329   -0.0451 C   0  0  0  0  0  0  0  0  0  0  0  0
   -0.1555   -0.3727   -0.0509 C   0  0  0  0  0  0  0  0  0  0  0  0
   -0.9444   -0.5887    1.0870 C   0  0  0  0  0  0  0  0  0  0  0  0
   -2.3028   -0.2656    1.0790 C   0  0  0  0  0  0  0  0  0  0  0  0
   -3.1541   -0.4312    2.1407 O   0  0  0  0  0  0  0  0  0  0  0  0
   -2.6534   -1.1090    3.2846 C   0  0  0  0  0  0  0  0  0  0  0  0
   -2.8623    0.2819   -0.0883 C   0  0  0  0  0  0  0  0  0  0  0  0
   -4.2111    0.5633   -0.1206 O   0  0  0  0  0  0  0  0  0  0  0  0
   -4.4322    1.9132    0.2837 C   0  0  0  0  0  0  0  0  0  0  0  0
   -2.0944    0.4672   -1.2504 C   0  0  0  0  0  0  0  0  0  0  0  0
   -2.7516    0.9790   -2.3391 O   0  0  0  0  0  0  0  0  0  0  0  0
   -2.0464    1.0174   -3.5719 C   0  0  0  0  0  0  0  0  0  0  0  0
   -0.7379    0.1392   -1.2193 C   0  0  0  0  0  0  0  0  0  0  0  0
    2.3597    0.1818    0.3767 C   0  0  0  0  0  0  0  0  0  0  0  0
    2.5100    1.4637   -0.4588 C   0  0  0  0  0  0  0  0  0  0  0  0
    3.1169    2.4704    0.5108 C   0  0  0  0  0  0  0  0  0  0  0  0
    2.4196    2.1490    1.8210 C   0  0  0  0  0  0  0  0  0  0  0  0
    2.3498    0.6234    1.8529 C   0  0  0  0  0  0  0  0  0  0  0  0
    3.5466   -0.7512    0.1150 C   0  0  0  0  0  0  0  0  0  0  0  0
    4.7223   -0.4541    0.2935 O   0  0  0  0  0  0  0  0  0  0  0  0
    3.1573   -1.9845   -0.3496 O   0  0  0  0  0  0  0  0  0  0  0  0
    0.7405   -4.2198   -2.7639 H   0  0  0  0  0  0  0  0  0  0  0  0
    0.8729   -2.4686   -2.9955 H   0  0  0  0  0  0  0  0  0  0  0  0
    2.3253   -3.4355   -2.6757 H   0  0  0  0  0  0  0  0  0  0  0  0
    1.4411   -3.9992   -0.3938 H   0  0  0  0  0  0  0  0  0  0  0  0
   -0.0105   -3.0715   -0.7221 H   0  0  0  0  0  0  0  0  0  0  0  0
   -0.4783   -1.0168    1.9684 H   0  0  0  0  0  0  0  0  0  0  0  0
   -2.3072   -2.1162    3.0297 H   0  0  0  0  0  0  0  0  0  0  0  0
   -1.8616   -0.5286    3.7692 H   0  0  0  0  0  0  0  0  0  0  0  0
   -3.4755   -1.2108    3.9995 H   0  0  0  0  0  0  0  0  0  0  0  0
   -5.5094    2.1011    0.2468 H   0  0  0  0  0  0  0  0  0  0  0  0
   -4.0954    2.0830    1.3122 H   0  0  0  0  0  0  0  0  0  0  0  0
   -3.9432    2.6195   -0.3960 H   0  0  0  0  0  0  0  0  0  0  0  0
   -2.7386    1.3702   -4.3424 H   0  0  0  0  0  0  0  0  0  0  0  0
   -1.7023    0.0198   -3.8650 H   0  0  0  0  0  0  0  0  0  0  0  0
   -1.2129    1.7257   -3.5246 H   0  0  0  0  0  0  0  0  0  0  0  0
   -0.1100    0.2743   -2.0944 H   0  0  0  0  0  0  0  0  0  0  0  0
    3.1448    1.3375   -1.3425 H   0  0  0  0  0  0  0  0  0  0  0  0
    1.5400    1.8441   -0.7975 H   0  0  0  0  0  0  0  0  0  0  0  0
    2.9484    3.5035    0.1935 H   0  0  0  0  0  0  0  0  0  0  0  0
    4.1975    2.3124    0.6038 H   0  0  0  0  0  0  0  0  0  0  0  0
    2.9499    2.5570    2.6863 H   0  0  0  0  0  0  0  0  0  0  0  0
    1.4055    2.5666    1.8177 H   0  0  0  0  0  0  0  0  0  0  0  0
    1.4643    0.3008    2.4077 H   0  0  0  0  0  0  0  0  0  0  0  0
    3.2196    0.2328    2.3955 H   0  0  0  0  0  0  0  0  0  0  0  0
  1  2  1  0
  2  3  1  0
  3  4  2  0
  4  5  1  0
  5  6  2  0
  6  7  1  0
  7  8  1  0
  8  9  1  0
  7 10  2  0
 10 11  1  0
 11 12  1  0
 10 13  1  0
 13 14  1  0
 14 15  1  0
 13 16  2  0
  4 17  1  0
 17 18  1  0
 18 19  1  0
 19 20  1  0
 20 21  1  0
 17 22  1  0
 22 23  2  0
 22 24  1  0
 24  3  1  0
 16  5  1  0
 21 17  1  0
  1 25  1  0
  1 26  1  0
  1 27  1  0
  2 28  1  0
  2 29  1  0
  6 30  1  0
  9 31  1  0
  9 32  1  0
  9 33  1  0
 12 34  1  0
 12 35  1  0
 12 36  1  0
 15 37  1  0
 15 38  1  0
 15 39  1  0
 16 40  1  0
 18 41  1  0
 18 42  1  0
 19 43  1  0
 19 44  1  0
 20 45  1  0
 20 46  1  0
 21 47  1  0
 21 48  1  0
M  END
$$$$
