
     RDKit          3D

 58 61  0  0  0  0  0  0  0  0999 V2000
   -6.7562    3.5733   -0.3346 C   0  0  0  0  0  0  0  0  0  0  0  0
   -5.2830    3.4354   -0.5819 C   0  0  0  0  0  0  0  0  0  0  0  0
   -4.5999    4.3844   -1.3488 C   0  0  0  0  0  0  0  0  0  0  0  0
   -3.2368    4.2365   -1.6021 C   0  0  0  0  0  0  0  0  0  0  0  0
   -2.5461    3.1317   -1.0992 C   0  0  0  0  0  0  0  0  0  0  0  0
   -3.2104    2.1577   -0.3401 C   0  0  0  0  0  0  0  0  0  0  0  0
   -2.5177    0.9863    0.1911 C   0  0  0  0  0  0  0  0  0  0  0  0
   -3.0095   -0.0334    0.8685 N   0  0  0  0  0  0  0  0  0  0  0  0
   -1.8975   -0.8246    1.1141 C   0  0  0  0  0  0  0  0  0  0  0  0
   -1.9617   -2.3230    1.9603 S   0  0  0  0  0  6  0  0  0  0  0  0
   -0.5831   -2.7573    2.1091 O   0  0  0  0  0  0  0  0  0  0  0  0
   -2.8145   -2.0929    3.1099 O   0  0  0  0  0  0  0  0  0  0  0  0
   -2.7928   -3.4274    0.8507 C   0  0  0  0  0  0  0  0  0  0  0  0
   -2.0551   -4.3564    0.1074 C   0  0  0  0  0  0  0  0  0  0  0  0
   -2.7240   -5.2326   -0.7483 C   0  0  0  0  0  0  0  0  0  0  0  0
   -4.1118   -5.1767   -0.8446 C   0  0  0  0  0  0  0  0  0  0  0  0
   -4.7483   -6.0204   -1.6667 F   0  0  0  0  0  0  0  0  0  0  0  0
   -4.8493   -4.2618   -0.0986 C   0  0  0  0  0  0  0  0  0  0  0  0
   -4.1897   -3.3819    0.7598 C   0  0  0  0  0  0  0  0  0  0  0  0
   -0.7754   -0.2571    0.5500 C   0  0  0  0  0  0  0  0  0  0  0  0
    0.5255   -0.6145    0.4572 N   0  0  0  0  0  0  0  0  0  0  0  0
    1.5400    0.3855    0.1575 C   0  0  0  0  0  0  0  0  0  0  0  0
    2.9013   -0.2910   -0.0076 C   0  0  0  0  0  0  0  0  0  0  0  0
    3.9895    0.7460   -0.3117 C   0  0  0  0  0  0  0  0  0  0  0  0
    5.2976    0.1384   -0.5962 N   0  0  0  0  0  0  0  0  0  0  0  0
    5.8299   -0.6247    0.5554 C   0  0  0  0  0  0  0  0  0  0  0  0
    7.3615   -0.7414    0.5151 C   0  0  0  0  0  0  0  0  0  0  0  0
    8.0133    0.5320    0.6192 O   0  0  0  0  0  0  0  0  0  0  0  0
    7.2444    1.6039    0.0574 C   0  0  0  0  0  0  0  0  0  0  0  0
    6.2837    1.1448   -1.0506 C   0  0  0  0  0  0  0  0  0  0  0  0
   -1.1689    0.9109   -0.0390 O   0  0  0  0  0  0  0  0  0  0  0  0
   -4.5835    2.3215   -0.0938 C   0  0  0  0  0  0  0  0  0  0  0  0
   -7.0321    3.1379    0.6317 H   0  0  0  0  0  0  0  0  0  0  0  0
   -7.3172    3.0657   -1.1254 H   0  0  0  0  0  0  0  0  0  0  0  0
   -7.0518    4.6276   -0.3117 H   0  0  0  0  0  0  0  0  0  0  0  0
   -5.1263    5.2464   -1.7533 H   0  0  0  0  0  0  0  0  0  0  0  0
   -2.7115    4.9810   -2.1951 H   0  0  0  0  0  0  0  0  0  0  0  0
   -1.4837    3.0374   -1.3127 H   0  0  0  0  0  0  0  0  0  0  0  0
   -0.9711   -4.4062    0.1863 H   0  0  0  0  0  0  0  0  0  0  0  0
   -2.1751   -5.9606   -1.3381 H   0  0  0  0  0  0  0  0  0  0  0  0
   -5.9310   -4.2429   -0.1891 H   0  0  0  0  0  0  0  0  0  0  0  0
   -4.7634   -2.6679    1.3484 H   0  0  0  0  0  0  0  0  0  0  0  0
    0.8376   -1.3703    1.0744 H   0  0  0  0  0  0  0  0  0  0  0  0
    1.5858    1.1191    0.9717 H   0  0  0  0  0  0  0  0  0  0  0  0
    1.2865    0.9183   -0.7674 H   0  0  0  0  0  0  0  0  0  0  0  0
    2.8486   -1.0280   -0.8193 H   0  0  0  0  0  0  0  0  0  0  0  0
    3.1415   -0.8431    0.9091 H   0  0  0  0  0  0  0  0  0  0  0  0
    3.6677    1.3136   -1.1945 H   0  0  0  0  0  0  0  0  0  0  0  0
    4.0670    1.4612    0.5175 H   0  0  0  0  0  0  0  0  0  0  0  0
    5.3931   -1.6287    0.5540 H   0  0  0  0  0  0  0  0  0  0  0  0
    5.5544   -0.1334    1.4975 H   0  0  0  0  0  0  0  0  0  0  0  0
    7.6944   -1.2255   -0.4104 H   0  0  0  0  0  0  0  0  0  0  0  0
    7.7140   -1.3577    1.3485 H   0  0  0  0  0  0  0  0  0  0  0  0
    7.9515    2.3392   -0.3396 H   0  0  0  0  0  0  0  0  0  0  0  0
    6.6934    2.0898    0.8708 H   0  0  0  0  0  0  0  0  0  0  0  0
    5.7956    2.0129   -1.5095 H   0  0  0  0  0  0  0  0  0  0  0  0
    6.8753    0.6732   -1.8456 H   0  0  0  0  0  0  0  0  0  0  0  0
   -5.1148    1.5702    0.4901 H   0  0  0  0  0  0  0  0  0  0  0  0
  1  2  1  0
  2  3  2  0
  3  4  1  0
  4  5  2  0
  5  6  1  0
  6  7  1  0
  7  8  2  0
  8  9  1  0
  9 10  1  0
 10 11  2  0
 10 12  2  0
 10 13  1  0
 13 14  2  0
 14 15  1  0
 15 16  2  0
 16 17  1  0
 16 18  1  0
 18 19  2  0
  9 20  2  0
 20 21  1  0
 21 22  1  0
 22 23  1  0
 23 24  1  0
 24 25  1  0
 25 26  1  0
 26 27  1  0
 27 28  1  0
 28 29  1  0
 29 30  1  0
 20 31  1  0
  6 32  2  0
 32  2  1  0
 31  7  1  0
 19 13  1  0
 30 25  1  0
  1 33  1  0
  1 34  1  0
  1 35  1  0
  3 36  1  0
  4 37  1  0
  5 38  1  0
 14 39  1  0
 15 40  1  0
 18 41  1  0
 19 42  1  0
 21 43  1  0
 22 44  1  0
 22 45  1  0
 23 46  1  0
 23 47  1  0
 24 48  1  0
 24 49  1  0
 26 50  1  0
 26 51  1  0
 27 52  1  0
 27 53  1  0
 29 54  1  0
 29 55  1  0
 30 56  1  0
 30 57  1  0
 32 58  1  0
M  END
$$$$
