
     RDKit          3D

 52 55  0  0  0  0  0  0  0  0999 V2000
   -4.2817    0.8114    3.6266 C   0  0  0  0  0  0  0  0  0  0  0  0
   -4.2085    0.8364    2.1297 C   0  0  0  0  0  0  0  0  0  0  0  0
   -3.6585   -0.2366    1.4157 C   0  0  0  0  0  0  0  0  0  0  0  0
   -3.6218   -0.1949    0.0158 C   0  0  0  0  0  0  0  0  0  0  0  0
   -2.9141   -1.5482   -0.8951 S   0  0  0  0  0  6  0  0  0  0  0  0
   -2.6830   -2.6460    0.0176 O   0  0  0  0  0  0  0  0  0  0  0  0
   -3.6779   -1.7085   -2.1114 O   0  0  0  0  0  0  0  0  0  0  0  0
   -1.4281   -0.9337   -1.3441 N   0  0  0  0  0  0  0  0  0  0  0  0
   -0.4446   -0.5347   -0.3287 C   0  0  0  0  0  0  0  0  0  0  0  0
    0.9798   -1.0918   -0.6485 C   0  0  0  0  0  0  0  0  0  0  0  0
    1.9613   -0.8725    0.5123 C   0  0  0  0  0  0  0  0  0  0  0  0
    2.9603   -1.8535    0.7517 C   0  0  0  0  0  0  0  0  0  0  0  0
    3.8973   -1.7076    1.7801 C   0  0  0  0  0  0  0  0  0  0  0  0
    3.8258   -0.5710    2.5523 C   0  0  0  0  0  0  0  0  0  0  0  0
    2.8749    0.3947    2.3271 C   0  0  0  0  0  0  0  0  0  0  0  0
    1.9382    0.2797    1.3195 C   0  0  0  0  0  0  0  0  0  0  0  0
    2.9809    1.4390    3.1921 O   0  0  0  0  0  0  0  0  0  0  0  0
    4.1027    1.0139    3.9937 C   0  0  0  0  0  0  0  0  0  0  0  0
    4.6484   -0.2587    3.5883 O   0  0  0  0  0  0  0  0  0  0  0  0
    1.6323   -0.6586   -1.9049 N   0  0  0  0  0  0  0  0  0  0  0  0
    1.4888    0.7652   -2.2403 C   0  0  0  0  0  0  0  0  0  0  0  0
    2.3007    1.1201   -3.4968 C   0  0  0  0  0  0  0  0  0  0  0  0
    1.8982    0.3104   -4.6098 O   0  0  0  0  0  0  0  0  0  0  0  0
    2.1123   -1.0749   -4.3066 C   0  0  0  0  0  0  0  0  0  0  0  0
    1.3076   -1.5018   -3.0672 C   0  0  0  0  0  0  0  0  0  0  0  0
   -4.1589    0.8897   -0.6859 C   0  0  0  0  0  0  0  0  0  0  0  0
   -4.7177    1.9521    0.0241 C   0  0  0  0  0  0  0  0  0  0  0  0
   -4.7384    1.9176    1.4171 C   0  0  0  0  0  0  0  0  0  0  0  0
   -5.2836    2.9479    2.0789 F   0  0  0  0  0  0  0  0  0  0  0  0
   -5.2954    0.5526    3.9483 H   0  0  0  0  0  0  0  0  0  0  0  0
   -3.5862    0.0764    4.0452 H   0  0  0  0  0  0  0  0  0  0  0  0
   -4.0113    1.7883    4.0418 H   0  0  0  0  0  0  0  0  0  0  0  0
   -3.2614   -1.0994    1.9484 H   0  0  0  0  0  0  0  0  0  0  0  0
   -1.3887   -0.5134   -2.2697 H   0  0  0  0  0  0  0  0  0  0  0  0
   -0.7468   -0.9085    0.6578 H   0  0  0  0  0  0  0  0  0  0  0  0
   -0.4471    0.5597   -0.2686 H   0  0  0  0  0  0  0  0  0  0  0  0
    0.8496   -2.1841   -0.6991 H   0  0  0  0  0  0  0  0  0  0  0  0
    3.0100   -2.7389    0.1186 H   0  0  0  0  0  0  0  0  0  0  0  0
    4.6578   -2.4591    1.9584 H   0  0  0  0  0  0  0  0  0  0  0  0
    1.2240    1.0813    1.1724 H   0  0  0  0  0  0  0  0  0  0  0  0
    4.8904    1.7728    3.9242 H   0  0  0  0  0  0  0  0  0  0  0  0
    3.7785    0.9388    5.0378 H   0  0  0  0  0  0  0  0  0  0  0  0
    1.8358    1.3965   -1.4160 H   0  0  0  0  0  0  0  0  0  0  0  0
    0.4372    1.0060   -2.4352 H   0  0  0  0  0  0  0  0  0  0  0  0
    3.3770    0.9962   -3.3256 H   0  0  0  0  0  0  0  0  0  0  0  0
    2.1249    2.1660   -3.7681 H   0  0  0  0  0  0  0  0  0  0  0  0
    1.7906   -1.6575   -5.1758 H   0  0  0  0  0  0  0  0  0  0  0  0
    3.1849   -1.2533   -4.1653 H   0  0  0  0  0  0  0  0  0  0  0  0
    0.2438   -1.4319   -3.3102 H   0  0  0  0  0  0  0  0  0  0  0  0
    1.5375   -2.5509   -2.8524 H   0  0  0  0  0  0  0  0  0  0  0  0
   -4.1530    0.9077   -1.7737 H   0  0  0  0  0  0  0  0  0  0  0  0
   -5.1447    2.8040   -0.4962 H   0  0  0  0  0  0  0  0  0  0  0  0
  1  2  1  0
  2  3  2  0
  3  4  1  0
  4  5  1  0
  5  6  2  0
  5  7  2  0
  5  8  1  0
  8  9  1  0
  9 10  1  0
 10 11  1  0
 11 12  2  0
 12 13  1  0
 13 14  2  0
 14 15  1  0
 15 16  2  0
 15 17  1  0
 17 18  1  0
 18 19  1  0
 10 20  1  0
 20 21  1  0
 21 22  1  0
 22 23  1  0
 23 24  1  0
 24 25  1  0
  4 26  2  0
 26 27  1  0
 27 28  2  0
 28 29  1  0
 28  2  1  0
 16 11  1  0
 25 20  1  0
 19 14  1  0
  1 30  1  0
  1 31  1  0
  1 32  1  0
  3 33  1  0
  8 34  1  0
  9 35  1  0
  9 36  1  0
 10 37  1  0
 12 38  1  0
 13 39  1  0
 16 40  1  0
 18 41  1  0
 18 42  1  0
 21 43  1  0
 21 44  1  0
 22 45  1  0
 22 46  1  0
 24 47  1  0
 24 48  1  0
 25 49  1  0
 25 50  1  0
 26 51  1  0
 27 52  1  0
M  END
$$$$
