
     RDKit          3D

 39 42  0  0  0  0  0  0  0  0999 V2000
    8.5887   -0.8236   -0.4497 C   0  0  0  0  0  0  0  0  0  0  0  0
    7.1759   -0.7667   -0.2486 O   0  0  0  0  0  0  0  0  0  0  0  0
    6.5315    0.0668   -1.1036 C   0  0  0  0  0  0  0  0  0  0  0  0
    7.0574    0.7356   -1.9796 O   0  0  0  0  0  0  0  0  0  0  0  0
    5.0674    0.0680   -0.8351 C   0  0  0  0  0  0  0  0  0  0  0  0
    4.4890   -0.6924    0.1890 C   0  0  0  0  0  0  0  0  0  0  0  0
    3.1070   -0.6547    0.3992 C   0  0  0  0  0  0  0  0  0  0  0  0
    2.2835    0.1457   -0.4063 C   0  0  0  0  0  0  0  0  0  0  0  0
    0.7892    0.1740   -0.1868 C   0  0  0  0  0  0  0  0  0  0  0  0
   -0.0407   -1.1332   -1.1350 S   0  0  0  0  0  0  0  0  0  0  0  0
   -1.7036   -0.9237   -0.5349 C   0  0  0  0  0  0  0  0  0  0  0  0
   -2.5132   -2.0132   -0.6382 N   0  0  0  0  0  0  0  0  0  0  0  0
   -3.7845   -1.9723   -0.2288 N   0  0  0  0  0  0  0  0  0  0  0  0
   -4.2104   -0.7914    0.2803 C   0  0  0  0  0  0  0  0  0  0  0  0
   -3.3388    0.2797    0.3548 C   0  0  0  0  0  0  0  0  0  0  0  0
   -2.0536    0.2847   -0.0378 N   0  0  0  0  0  0  0  0  0  0  0  0
   -4.0185    1.3323    0.8978 N   0  0  0  0  0  0  0  0  0  0  0  0
   -5.3175    0.9644    1.1825 C   0  0  0  0  0  0  0  0  0  0  0  0
   -6.3644    1.7060    1.7420 C   0  0  0  0  0  0  0  0  0  0  0  0
   -7.5929    1.0606    1.9157 C   0  0  0  0  0  0  0  0  0  0  0  0
   -7.7671   -0.2714    1.5447 C   0  0  0  0  0  0  0  0  0  0  0  0
   -6.7119   -1.0010    0.9861 C   0  0  0  0  0  0  0  0  0  0  0  0
   -5.4633   -0.3749    0.8004 C   0  0  0  0  0  0  0  0  0  0  0  0
    2.8660    0.8981   -1.4361 C   0  0  0  0  0  0  0  0  0  0  0  0
    4.2471    0.8621   -1.6465 C   0  0  0  0  0  0  0  0  0  0  0  0
    9.0071   -1.5198    0.2824 H   0  0  0  0  0  0  0  0  0  0  0  0
    8.8188   -1.1963   -1.4528 H   0  0  0  0  0  0  0  0  0  0  0  0
    9.0390    0.1609   -0.2881 H   0  0  0  0  0  0  0  0  0  0  0  0
    5.0997   -1.3233    0.8300 H   0  0  0  0  0  0  0  0  0  0  0  0
    2.6759   -1.2610    1.1939 H   0  0  0  0  0  0  0  0  0  0  0  0
    0.5793    0.0509    0.8824 H   0  0  0  0  0  0  0  0  0  0  0  0
    0.4000    1.1554   -0.4820 H   0  0  0  0  0  0  0  0  0  0  0  0
   -3.6184    2.2439    1.0614 H   0  0  0  0  0  0  0  0  0  0  0  0
   -6.2378    2.7441    2.0333 H   0  0  0  0  0  0  0  0  0  0  0  0
   -8.4278    1.6087    2.3478 H   0  0  0  0  0  0  0  0  0  0  0  0
   -8.7326   -0.7511    1.6893 H   0  0  0  0  0  0  0  0  0  0  0  0
   -6.8531   -2.0395    0.6979 H   0  0  0  0  0  0  0  0  0  0  0  0
    2.2475    1.5141   -2.0863 H   0  0  0  0  0  0  0  0  0  0  0  0
    4.6801    1.4536   -2.4514 H   0  0  0  0  0  0  0  0  0  0  0  0
  1  2  1  0
  2  3  1  0
  3  4  2  0
  3  5  1  0
  5  6  2  0
  6  7  1  0
  7  8  2  0
  8  9  1  0
  9 10  1  0
 10 11  1  0
 11 12  2  0
 12 13  1  0
 13 14  2  0
 14 15  1  0
 15 16  2  0
 15 17  1  0
 17 18  1  0
 18 19  2  0
 19 20  1  0
 20 21  2  0
 21 22  1  0
 22 23  2  0
  8 24  1  0
 24 25  2  0
 25  5  1  0
 16 11  1  0
 23 18  1  0
 23 14  1  0
  1 26  1  0
  1 27  1  0
  1 28  1  0
  6 29  1  0
  7 30  1  0
  9 31  1  0
  9 32  1  0
 17 33  1  0
 19 34  1  0
 20 35  1  0
 21 36  1  0
 22 37  1  0
 24 38  1  0
 25 39  1  0
M  END
$$$$
