
     RDKit          3D

 40 41  0  0  0  0  0  0  0  0999 V2000
   -5.3933    1.2107   -0.4567 C   0  0  0  0  0  0  0  0  0  0  0  0
   -4.0467    0.5803   -0.8066 C   0  0  0  0  0  0  0  0  0  0  0  0
   -3.8723   -0.7608   -0.0855 C   0  0  0  0  0  0  0  0  0  0  0  0
   -2.5104   -1.3858   -0.3830 C   0  0  0  0  0  0  0  0  0  0  0  0
   -1.3544   -0.4350   -0.0257 C   0  0  0  0  0  0  0  0  0  0  0  0
   -0.0862   -1.0910   -0.3878 N   0  0  0  0  0  0  0  0  0  0  0  0
    1.0847   -0.4457    0.2481 C   0  0  0  0  0  0  0  0  0  0  0  0
    2.3811   -1.1730   -0.1861 C   0  0  0  0  0  0  0  0  0  0  0  0
    2.4233   -1.2253   -1.6173 O   0  0  0  0  0  0  0  0  0  0  0  0
    3.6150   -0.4924    0.3628 C   0  0  0  0  0  0  0  0  0  0  0  0
    4.2623    0.5322   -0.3439 C   0  0  0  0  0  0  0  0  0  0  0  0
    5.3819    1.1710    0.1920 C   0  0  0  0  0  0  0  0  0  0  0  0
    5.8662    0.7973    1.4435 C   0  0  0  0  0  0  0  0  0  0  0  0
    5.2323   -0.2159    2.1596 C   0  0  0  0  0  0  0  0  0  0  0  0
    4.1127   -0.8561    1.6242 C   0  0  0  0  0  0  0  0  0  0  0  0
   -1.5323    0.9067   -0.7541 C   0  0  0  0  0  0  0  0  0  0  0  0
   -2.8964    1.5330   -0.4623 C   0  0  0  0  0  0  0  0  0  0  0  0
   -5.4689    1.4205    0.6156 H   0  0  0  0  0  0  0  0  0  0  0  0
   -6.2171    0.5432   -0.7300 H   0  0  0  0  0  0  0  0  0  0  0  0
   -5.5326    2.1532   -0.9967 H   0  0  0  0  0  0  0  0  0  0  0  0
   -4.0316    0.3963   -1.8892 H   0  0  0  0  0  0  0  0  0  0  0  0
   -3.9766   -0.6208    0.9981 H   0  0  0  0  0  0  0  0  0  0  0  0
   -4.6629   -1.4557   -0.3931 H   0  0  0  0  0  0  0  0  0  0  0  0
   -2.4187   -2.3210    0.1837 H   0  0  0  0  0  0  0  0  0  0  0  0
   -2.4642   -1.6540   -1.4470 H   0  0  0  0  0  0  0  0  0  0  0  0
   -1.3835   -0.2675    1.0594 H   0  0  0  0  0  0  0  0  0  0  0  0
   -0.1203   -2.0639   -0.0761 H   0  0  0  0  0  0  0  0  0  0  0  0
    0.9899   -0.4641    1.3403 H   0  0  0  0  0  0  0  0  0  0  0  0
    1.1457    0.5991   -0.0749 H   0  0  0  0  0  0  0  0  0  0  0  0
    2.3580   -2.2144    0.1581 H   0  0  0  0  0  0  0  0  0  0  0  0
    1.4834   -1.2836   -1.8839 H   0  0  0  0  0  0  0  0  0  0  0  0
    3.8974    0.8311   -1.3249 H   0  0  0  0  0  0  0  0  0  0  0  0
    5.8767    1.9579   -0.3712 H   0  0  0  0  0  0  0  0  0  0  0  0
    6.7394    1.2934    1.8584 H   0  0  0  0  0  0  0  0  0  0  0  0
    5.6116   -0.5094    3.1349 H   0  0  0  0  0  0  0  0  0  0  0  0
    3.6326   -1.6454    2.1981 H   0  0  0  0  0  0  0  0  0  0  0  0
   -1.4271    0.7627   -1.8375 H   0  0  0  0  0  0  0  0  0  0  0  0
   -0.7576    1.6200   -0.4524 H   0  0  0  0  0  0  0  0  0  0  0  0
   -2.9964    2.4613   -1.0376 H   0  0  0  0  0  0  0  0  0  0  0  0
   -2.9449    1.8109    0.5985 H   0  0  0  0  0  0  0  0  0  0  0  0
  1  2  1  0
  2  3  1  0
  3  4  1  0
  4  5  1  0
  5  6  1  0
  6  7  1  0
  7  8  1  0
  8  9  1  0
  8 10  1  0
 10 11  2  0
 11 12  1  0
 12 13  2  0
 13 14  1  0
 14 15  2  0
  5 16  1  0
 16 17  1  0
 17  2  1  0
 15 10  1  0
  1 18  1  0
  1 19  1  0
  1 20  1  0
  2 21  1  0
  3 22  1  0
  3 23  1  0
  4 24  1  0
  4 25  1  0
  5 26  1  0
  6 27  1  0
  7 28  1  0
  7 29  1  0
  8 30  1  0
  9 31  1  0
 11 32  1  0
 12 33  1  0
 13 34  1  0
 14 35  1  0
 15 36  1  0
 16 37  1  0
 16 38  1  0
 17 39  1  0
 17 40  1  0
M  END
$$$$
