
     RDKit          3D

 35 37  0  0  0  0  0  0  0  0999 V2000
   -1.1795   -1.9819   -0.4096 C   0  0  0  0  0  0  0  0  0  0  0  0
   -1.2676   -0.6294   -1.1033 C   0  0  0  0  0  0  0  0  0  0  0  0
   -1.4332    0.4485   -0.1338 N   0  0  0  0  0  0  0  0  0  0  0  0
   -0.4557    1.3171    0.4078 C   0  0  0  0  0  0  0  0  0  0  0  0
    0.9044    1.2726    0.4310 C   0  0  0  0  0  0  0  0  0  0  0  0
    1.9244    2.5204    1.1561 S   0  0  0  0  0  0  0  0  0  0  0  0
    3.4314    1.7011    0.8291 C   0  0  0  0  0  0  0  0  0  0  0  0
    4.9280    2.3326    1.2053 S   0  0  0  0  0  0  0  0  0  0  0  0
    3.1417    0.5189    0.1962 N   0  0  0  0  0  0  0  0  0  0  0  0
    4.1424   -0.4189   -0.1431 N   0  0  0  0  0  0  0  0  0  0  0  0
    4.4032   -1.3906    0.8072 C   0  0  0  0  0  0  0  0  0  0  0  0
    5.2430   -2.5288    0.2954 C   0  0  0  0  0  0  0  0  0  0  0  0
    3.9872   -1.3485    1.9615 O   0  0  0  0  0  0  0  0  0  0  0  0
    1.8220    0.2067   -0.0947 C   0  0  0  0  0  0  0  0  0  0  0  0
    1.5118   -0.7936   -0.7269 O   0  0  0  0  0  0  0  0  0  0  0  0
   -1.2535    2.7308    1.2637 S   0  0  0  0  0  0  0  0  0  0  0  0
   -2.8466    2.0206    0.9475 C   0  0  0  0  0  0  0  0  0  0  0  0
   -4.0605    2.5517    1.3680 C   0  0  0  0  0  0  0  0  0  0  0  0
   -5.2336    1.8771    1.0410 C   0  0  0  0  0  0  0  0  0  0  0  0
   -5.1745    0.6897    0.3063 C   0  0  0  0  0  0  0  0  0  0  0  0
   -3.9427    0.1674   -0.1115 C   0  0  0  0  0  0  0  0  0  0  0  0
   -2.7579    0.8335    0.2014 C   0  0  0  0  0  0  0  0  0  0  0  0
   -0.4093   -1.9953    0.3673 H   0  0  0  0  0  0  0  0  0  0  0  0
   -0.9501   -2.7660   -1.1378 H   0  0  0  0  0  0  0  0  0  0  0  0
   -2.1265   -2.2420    0.0741 H   0  0  0  0  0  0  0  0  0  0  0  0
   -0.4050   -0.4425   -1.7457 H   0  0  0  0  0  0  0  0  0  0  0  0
   -2.0943   -0.6505   -1.8248 H   0  0  0  0  0  0  0  0  0  0  0  0
    4.1261   -0.7071   -1.1169 H   0  0  0  0  0  0  0  0  0  0  0  0
    4.6123   -3.4137    0.1772 H   0  0  0  0  0  0  0  0  0  0  0  0
    6.0410   -2.7357    1.0136 H   0  0  0  0  0  0  0  0  0  0  0  0
    5.7026   -2.2873   -0.6672 H   0  0  0  0  0  0  0  0  0  0  0  0
   -4.0956    3.4726    1.9413 H   0  0  0  0  0  0  0  0  0  0  0  0
   -6.1949    2.2716    1.3605 H   0  0  0  0  0  0  0  0  0  0  0  0
   -6.0938    0.1630    0.0598 H   0  0  0  0  0  0  0  0  0  0  0  0
   -3.9468   -0.7644   -0.6659 H   0  0  0  0  0  0  0  0  0  0  0  0
  1  2  1  0
  2  3  1  0
  3  4  1  0
  4  5  2  3
  5  6  1  0
  6  7  1  0
  7  8  2  0
  7  9  1  0
  9 10  1  0
 10 11  1  0
 11 12  1  0
 11 13  2  0
  9 14  1  0
 14 15  2  0
  4 16  1  0
 16 17  1  0
 17 18  2  0
 18 19  1  0
 19 20  2  0
 20 21  1  0
 21 22  2  0
 22  3  1  0
 14  5  1  0
 22 17  1  0
  1 23  1  0
  1 24  1  0
  1 25  1  0
  2 26  1  0
  2 27  1  0
 10 28  1  0
 12 29  1  0
 12 30  1  0
 12 31  1  0
 18 32  1  0
 19 33  1  0
 20 34  1  0
 21 35  1  0
M  END
$$$$
