
     RDKit          3D

 36 38  0  0  0  0  0  0  0  0999 V2000
    5.5011    1.7066    2.8394 C   0  0  0  0  0  0  0  0  0  0  0  0
    5.1179    0.5024    2.0748 C   0  0  0  0  0  0  0  0  0  0  0  0
    5.8207   -0.5737    1.5875 C   0  0  0  0  0  0  0  0  0  0  0  0
    4.8701   -1.3977    0.9412 C   0  0  0  0  0  0  0  0  0  0  0  0
    3.6243   -0.7880    1.0552 C   0  0  0  0  0  0  0  0  0  0  0  0
    2.3712   -1.2521    0.5662 C   0  0  0  0  0  0  0  0  0  0  0  0
    1.2621   -0.4945    0.4683 C   0  0  0  0  0  0  0  0  0  0  0  0
    1.2007    0.8832    0.8082 C   0  0  0  0  0  0  0  0  0  0  0  0
    1.0246    2.0124    1.0091 N   0  0  0  0  0  0  0  0  0  0  0  0
    0.0283   -1.1743   -0.0759 C   0  0  0  0  0  0  0  0  0  0  0  0
    0.0622   -2.3706   -0.3463 O   0  0  0  0  0  0  0  0  0  0  0  0
   -1.0634   -0.3460   -0.2714 N   0  0  0  0  0  0  0  0  0  0  0  0
   -2.3611   -0.7141   -0.7267 C   0  0  0  0  0  0  0  0  0  0  0  0
   -2.7660   -2.0537   -0.7602 C   0  0  0  0  0  0  0  0  0  0  0  0
   -4.0449   -2.3943   -1.1858 C   0  0  0  0  0  0  0  0  0  0  0  0
   -4.9318   -1.3975   -1.5826 C   0  0  0  0  0  0  0  0  0  0  0  0
   -4.5805   -0.0591   -1.5605 C   0  0  0  0  0  0  0  0  0  0  0  0
   -5.5095    0.8255   -1.9627 N   0  0  0  0  0  0  0  0  0  0  0  0
   -5.1917    2.1346   -1.9651 C   0  0  0  0  0  0  0  0  0  0  0  0
   -3.9633    2.6164   -1.5749 C   0  0  0  0  0  0  0  0  0  0  0  0
   -3.0044    1.6994   -1.1579 C   0  0  0  0  0  0  0  0  0  0  0  0
   -3.2821    0.3096   -1.1295 C   0  0  0  0  0  0  0  0  0  0  0  0
    3.8034    0.3787    1.7603 O   0  0  0  0  0  0  0  0  0  0  0  0
    6.1119    2.3754    2.2251 H   0  0  0  0  0  0  0  0  0  0  0  0
    4.6195    2.2604    3.1769 H   0  0  0  0  0  0  0  0  0  0  0  0
    6.0840    1.4278    3.7202 H   0  0  0  0  0  0  0  0  0  0  0  0
    6.8827   -0.7427    1.6849 H   0  0  0  0  0  0  0  0  0  0  0  0
    5.0666   -2.3364    0.4380 H   0  0  0  0  0  0  0  0  0  0  0  0
    2.3430   -2.2928    0.2506 H   0  0  0  0  0  0  0  0  0  0  0  0
   -0.9259    0.6476   -0.1449 H   0  0  0  0  0  0  0  0  0  0  0  0
   -2.1157   -2.8649   -0.4374 H   0  0  0  0  0  0  0  0  0  0  0  0
   -4.3529   -3.4365   -1.2047 H   0  0  0  0  0  0  0  0  0  0  0  0
   -5.9301   -1.6731   -1.9158 H   0  0  0  0  0  0  0  0  0  0  0  0
   -5.9800    2.8039   -2.3036 H   0  0  0  0  0  0  0  0  0  0  0  0
   -3.7514    3.6797   -1.5973 H   0  0  0  0  0  0  0  0  0  0  0  0
   -2.0394    2.0985   -0.8649 H   0  0  0  0  0  0  0  0  0  0  0  0
  1  2  1  0
  2  3  2  0
  3  4  1  0
  4  5  2  0
  5  6  1  0
  6  7  2  3
  7  8  1  0
  8  9  3  0
  7 10  1  0
 10 11  2  0
 10 12  1  0
 12 13  1  0
 13 14  2  0
 14 15  1  0
 15 16  2  0
 16 17  1  0
 17 18  2  0
 18 19  1  0
 19 20  2  0
 20 21  1  0
 21 22  2  0
  5 23  1  0
 23  2  1  0
 22 13  1  0
 22 17  1  0
  1 24  1  0
  1 25  1  0
  1 26  1  0
  3 27  1  0
  4 28  1  0
  6 29  1  0
 12 30  1  0
 14 31  1  0
 15 32  1  0
 16 33  1  0
 19 34  1  0
 20 35  1  0
 21 36  1  0
M  END
$$$$
