
     RDKit          3D

 64 68  0  0  0  0  0  0  0  0999 V2000
    1.3980    1.4269    2.8022 O   0  0  0  0  0  0  0  0  0  0  0  0
    1.4502    0.6885    1.8118 C   0  0  0  0  0  0  0  0  0  0  0  0
    0.1337    0.3187    1.1228 C   0  0  0  0  0  0  0  0  0  0  0  0
    0.0698    0.8137   -0.3267 C   0  0  0  0  0  0  0  0  0  0  0  0
   -1.3130    0.5898   -0.9448 C   0  0  0  0  0  0  0  0  0  0  0  0
   -1.9666   -0.7624   -0.5806 C   0  0  0  0  0  0  0  0  0  0  0  0
   -3.2004   -0.5681    0.3279 C   0  0  0  0  0  0  0  0  0  0  0  0
   -4.2803    0.0651   -0.4201 N   0  0  0  0  0  0  0  0  0  0  0  0
   -5.4884    0.5051    0.1118 C   0  0  0  0  0  0  0  0  0  0  0  0
   -5.5745    0.7520    1.4571 N   0  0  0  0  0  0  0  0  0  0  0  0
   -6.6840    1.1981    2.1247 C   0  0  0  0  0  0  0  0  0  0  0  0
   -6.5413    1.4900    3.7722 S   0  0  0  0  0  0  0  0  0  0  0  0
   -7.8409    1.3763    1.4215 N   0  0  0  0  0  0  0  0  0  0  0  0
   -7.8045    1.1573    0.1458 C   0  0  0  0  0  0  0  0  0  0  0  0
   -9.0574    1.3390   -0.6410 C   0  0  0  0  0  0  0  0  0  0  0  0
   -9.0724    1.1421   -1.9662 C   0  0  0  0  0  0  0  0  0  0  0  0
   -7.8867    0.7730   -2.6974 C   0  0  0  0  0  0  0  0  0  0  0  0
   -6.7155    0.5737   -2.0746 C   0  0  0  0  0  0  0  0  0  0  0  0
   -6.5970    0.7205   -0.6329 C   0  0  0  0  0  0  0  0  0  0  0  0
   -0.9572   -1.7291    0.0589 C   0  0  0  0  0  0  0  0  0  0  0  0
   -0.2790   -1.1482    1.3007 C   0  0  0  0  0  0  0  0  0  0  0  0
    2.6659    0.2468    1.3135 N   0  0  0  0  0  0  0  0  0  0  0  0
    2.8659   -0.9560    0.4945 C   0  0  0  0  0  0  0  0  0  0  0  0
    4.0966   -0.8453   -0.4245 C   0  0  0  0  0  0  0  0  0  0  0  0
    5.2983   -0.5044    0.3629 N   0  0  0  0  0  0  0  0  0  0  0  0
    6.5481   -0.5972   -0.2715 C   0  0  0  0  0  0  0  0  0  0  0  0
    6.7069   -0.6844   -1.6642 C   0  0  0  0  0  0  0  0  0  0  0  0
    7.9750   -0.7879   -2.2474 C   0  0  0  0  0  0  0  0  0  0  0  0
    9.1019   -0.8134   -1.4401 C   0  0  0  0  0  0  0  0  0  0  0  0
   10.3144   -0.9152   -1.9989 F   0  0  0  0  0  0  0  0  0  0  0  0
    8.9847   -0.7427   -0.0615 C   0  0  0  0  0  0  0  0  0  0  0  0
    7.7156   -0.6394    0.5140 C   0  0  0  0  0  0  0  0  0  0  0  0
    5.1232    0.7476    1.1436 C   0  0  0  0  0  0  0  0  0  0  0  0
    3.8747    0.6624    2.0421 C   0  0  0  0  0  0  0  0  0  0  0  0
   -0.6257    0.9078    1.6618 H   0  0  0  0  0  0  0  0  0  0  0  0
    0.8171    0.3186   -0.9542 H   0  0  0  0  0  0  0  0  0  0  0  0
    0.3181    1.8826   -0.3701 H   0  0  0  0  0  0  0  0  0  0  0  0
   -1.9656    1.4229   -0.6600 H   0  0  0  0  0  0  0  0  0  0  0  0
   -1.2136    0.6552   -2.0360 H   0  0  0  0  0  0  0  0  0  0  0  0
   -2.3136   -1.2259   -1.5149 H   0  0  0  0  0  0  0  0  0  0  0  0
   -2.9270    0.0410    1.1953 H   0  0  0  0  0  0  0  0  0  0  0  0
   -3.5521   -1.5392    0.6940 H   0  0  0  0  0  0  0  0  0  0  0  0
   -4.3801   -0.3105   -1.3581 H   0  0  0  0  0  0  0  0  0  0  0  0
   -4.7463    0.6578    2.0235 H   0  0  0  0  0  0  0  0  0  0  0  0
   -9.9451    1.6269   -0.0908 H   0  0  0  0  0  0  0  0  0  0  0  0
   -9.9935    1.2713   -2.5283 H   0  0  0  0  0  0  0  0  0  0  0  0
   -7.9667    0.6748   -3.7763 H   0  0  0  0  0  0  0  0  0  0  0  0
   -5.8426    0.3180   -2.6628 H   0  0  0  0  0  0  0  0  0  0  0  0
   -1.4488   -2.6751    0.3197 H   0  0  0  0  0  0  0  0  0  0  0  0
   -0.1909   -1.9812   -0.6855 H   0  0  0  0  0  0  0  0  0  0  0  0
   -0.9766   -1.2100    2.1470 H   0  0  0  0  0  0  0  0  0  0  0  0
    0.5610   -1.7869    1.5916 H   0  0  0  0  0  0  0  0  0  0  0  0
    1.9917   -1.1796   -0.1126 H   0  0  0  0  0  0  0  0  0  0  0  0
    2.9967   -1.7929    1.1921 H   0  0  0  0  0  0  0  0  0  0  0  0
    3.9084   -0.0720   -1.1806 H   0  0  0  0  0  0  0  0  0  0  0  0
    4.2281   -1.8077   -0.9333 H   0  0  0  0  0  0  0  0  0  0  0  0
    5.8504   -0.6584   -2.3295 H   0  0  0  0  0  0  0  0  0  0  0  0
    8.0857   -0.8486   -3.3250 H   0  0  0  0  0  0  0  0  0  0  0  0
    9.8725   -0.7789    0.5607 H   0  0  0  0  0  0  0  0  0  0  0  0
    7.6398   -0.6203    1.5989 H   0  0  0  0  0  0  0  0  0  0  0  0
    5.9850    0.9558    1.7881 H   0  0  0  0  0  0  0  0  0  0  0  0
    5.0158    1.5923    0.4497 H   0  0  0  0  0  0  0  0  0  0  0  0
    3.7195    1.6350    2.5209 H   0  0  0  0  0  0  0  0  0  0  0  0
    4.0341   -0.0742    2.8392 H   0  0  0  0  0  0  0  0  0  0  0  0
  1  2  2  0
  2  3  1  0
  3  4  1  0
  4  5  1  0
  5  6  1  0
  6  7  1  0
  7  8  1  0
  8  9  1  0
  9 10  1  0
 10 11  1  0
 11 12  2  0
 11 13  1  0
 13 14  2  0
 14 15  1  0
 15 16  2  0
 16 17  1  0
 17 18  2  0
 18 19  1  0
  6 20  1  0
 20 21  1  0
  2 22  1  0
 22 23  1  0
 23 24  1  0
 24 25  1  0
 25 26  1  0
 26 27  2  0
 27 28  1  0
 28 29  2  0
 29 30  1  0
 29 31  1  0
 31 32  2  0
 25 33  1  0
 33 34  1  0
 21  3  1  0
 34 22  1  0
 19  9  2  0
 32 26  1  0
 19 14  1  0
  3 35  1  0
  4 36  1  0
  4 37  1  0
  5 38  1  0
  5 39  1  0
  6 40  1  0
  7 41  1  0
  7 42  1  0
  8 43  1  0
 10 44  1  0
 15 45  1  0
 16 46  1  0
 17 47  1  0
 18 48  1  0
 20 49  1  0
 20 50  1  0
 21 51  1  0
 21 52  1  0
 23 53  1  0
 23 54  1  0
 24 55  1  0
 24 56  1  0
 27 57  1  0
 28 58  1  0
 31 59  1  0
 32 60  1  0
 33 61  1  0
 33 62  1  0
 34 63  1  0
 34 64  1  0
M  END
$$$$
