
     RDKit          3D

 39 39  0  0  0  0  0  0  0  0999 V2000
   -3.4847   -3.2603   -2.3092 C   0  0  0  0  0  0  0  0  0  0  0  0
   -2.6398   -2.1143   -2.4101 O   0  0  0  0  0  0  0  0  0  0  0  0
   -2.0965   -1.7204   -1.2240 C   0  0  0  0  0  0  0  0  0  0  0  0
   -2.3012   -2.2631   -0.1432 O   0  0  0  0  0  0  0  0  0  0  0  0
   -1.2215   -0.4791   -1.4133 C   0  0  0  0  0  0  0  0  0  0  0  0
   -2.0457    0.7980   -1.1927 C   0  0  0  0  0  0  0  0  0  0  0  0
   -3.0329    1.0491   -2.3320 C   0  0  0  0  0  0  0  0  0  0  0  0
   -3.9445    2.6155   -2.1148 S   0  0  0  0  0  0  0  0  0  0  0  0
   -5.1050    2.1138   -0.8204 C   0  0  0  0  0  0  0  0  0  0  0  0
   -0.1328   -0.5770   -0.4417 N   0  0  0  0  0  0  0  0  0  0  0  0
    1.0100    0.1576   -0.5660 C   0  0  0  0  0  0  0  0  0  0  0  0
    1.2544    0.8852   -1.5181 O   0  0  0  0  0  0  0  0  0  0  0  0
    1.8339   -0.0061    0.5068 N   0  0  0  0  0  0  0  0  0  0  0  0
    3.1416    0.6145    0.5236 C   0  0  0  0  0  0  0  0  0  0  0  0
    3.8983    0.2598    1.7835 C   0  0  0  0  0  0  0  0  0  0  0  0
    4.8643    1.1267    2.2886 C   0  0  0  0  0  0  0  0  0  0  0  0
    5.5579    0.7610    3.4395 C   0  0  0  0  0  0  0  0  0  0  0  0
    5.2774   -0.4542    4.0512 C   0  0  0  0  0  0  0  0  0  0  0  0
    4.3124   -1.2654    3.4793 C   0  0  0  0  0  0  0  0  0  0  0  0
    3.6209   -0.9424    2.3635 N   0  0  0  0  0  0  0  0  0  0  0  0
   -2.9120   -4.1297   -1.9709 H   0  0  0  0  0  0  0  0  0  0  0  0
   -4.3243   -3.0603   -1.6375 H   0  0  0  0  0  0  0  0  0  0  0  0
   -3.8834   -3.4794   -3.3030 H   0  0  0  0  0  0  0  0  0  0  0  0
   -0.7715   -0.4950   -2.4127 H   0  0  0  0  0  0  0  0  0  0  0  0
   -1.3686    1.6586   -1.1109 H   0  0  0  0  0  0  0  0  0  0  0  0
   -2.5759    0.7240   -0.2342 H   0  0  0  0  0  0  0  0  0  0  0  0
   -3.7613    0.2397   -2.4249 H   0  0  0  0  0  0  0  0  0  0  0  0
   -2.4916    1.1159   -3.2819 H   0  0  0  0  0  0  0  0  0  0  0  0
   -4.5780    1.8705    0.1055 H   0  0  0  0  0  0  0  0  0  0  0  0
   -5.6914    1.2519   -1.1501 H   0  0  0  0  0  0  0  0  0  0  0  0
   -5.7910    2.9392   -0.6160 H   0  0  0  0  0  0  0  0  0  0  0  0
   -0.3631   -0.9231    0.4812 H   0  0  0  0  0  0  0  0  0  0  0  0
    1.8021   -0.8991    0.9819 H   0  0  0  0  0  0  0  0  0  0  0  0
    3.7063    0.2682   -0.3495 H   0  0  0  0  0  0  0  0  0  0  0  0
    3.0005    1.6987    0.4411 H   0  0  0  0  0  0  0  0  0  0  0  0
    5.0730    2.0740    1.8023 H   0  0  0  0  0  0  0  0  0  0  0  0
    6.3077    1.4247    3.8577 H   0  0  0  0  0  0  0  0  0  0  0  0
    5.7969   -0.7574    4.9524 H   0  0  0  0  0  0  0  0  0  0  0  0
    4.0596   -2.2254    3.9186 H   0  0  0  0  0  0  0  0  0  0  0  0
  1  2  1  0
  2  3  1  0
  3  4  2  0
  3  5  1  0
  5  6  1  0
  6  7  1  0
  7  8  1  0
  8  9  1  0
  5 10  1  0
 10 11  1  0
 11 12  2  0
 11 13  1  0
 13 14  1  0
 14 15  1  0
 15 16  2  0
 16 17  1  0
 17 18  2  0
 18 19  1  0
 19 20  2  0
 20 15  1  0
  1 21  1  0
  1 22  1  0
  1 23  1  0
  5 24  1  0
  6 25  1  0
  6 26  1  0
  7 27  1  0
  7 28  1  0
  9 29  1  0
  9 30  1  0
  9 31  1  0
 10 32  1  0
 13 33  1  0
 14 34  1  0
 14 35  1  0
 16 36  1  0
 17 37  1  0
 18 38  1  0
 19 39  1  0
M  END
$$$$
