
     RDKit          3D

 39 41  0  0  0  0  0  0  0  0999 V2000
    2.6300    2.2886   -1.8248 C   0  0  0  0  0  0  0  0  0  0  0  0
    1.8397    2.3657   -0.5445 C   0  0  0  0  0  0  0  0  0  0  0  0
    2.2563    2.9890    0.4315 O   0  0  0  0  0  0  0  0  0  0  0  0
    0.5416    1.6486   -0.5024 C   0  0  0  0  0  0  0  0  0  0  0  0
    0.4839    0.4247    0.0704 C   0  0  0  0  0  0  0  0  0  0  0  0
    1.5340   -0.2393    0.6962 N   0  0  0  0  0  0  0  0  0  0  0  0
    2.3879   -1.1822   -0.0576 C   0  0  0  0  0  0  0  0  0  0  0  0
    3.3513   -1.9114    0.8888 C   0  0  0  0  0  0  0  0  0  0  0  0
    4.2392   -1.0307    1.5910 O   0  0  0  0  0  0  0  0  0  0  0  0
    3.6786    0.2695    1.8434 C   0  0  0  0  0  0  0  0  0  0  0  0
    2.1471    0.2650    1.9499 C   0  0  0  0  0  0  0  0  0  0  0  0
   -0.7121   -0.2440    0.0241 N   0  0  0  0  0  0  0  0  0  0  0  0
   -1.8567    0.3027   -0.4870 C   0  0  0  0  0  0  0  0  0  0  0  0
   -3.1450   -0.4556   -0.4030 C   0  0  0  0  0  0  0  0  0  0  0  0
   -3.1576   -1.8490   -0.2580 C   0  0  0  0  0  0  0  0  0  0  0  0
   -4.3734   -2.5331   -0.1760 C   0  0  0  0  0  0  0  0  0  0  0  0
   -5.5772   -1.8323   -0.2423 C   0  0  0  0  0  0  0  0  0  0  0  0
   -5.5707   -0.4472   -0.3974 C   0  0  0  0  0  0  0  0  0  0  0  0
   -4.3584    0.2403   -0.4808 C   0  0  0  0  0  0  0  0  0  0  0  0
   -1.8674    1.4754   -1.0463 N   0  0  0  0  0  0  0  0  0  0  0  0
   -0.6999    2.2131   -1.1403 C   0  0  0  0  0  0  0  0  0  0  0  0
   -0.7294    3.7009   -1.9536 S   0  0  0  0  0  0  0  0  0  0  0  0
    2.7466    3.2924   -2.2409 H   0  0  0  0  0  0  0  0  0  0  0  0
    3.6115    1.8560   -1.6125 H   0  0  0  0  0  0  0  0  0  0  0  0
    2.1282    1.6558   -2.5623 H   0  0  0  0  0  0  0  0  0  0  0  0
    2.9612   -0.6243   -0.8070 H   0  0  0  0  0  0  0  0  0  0  0  0
    1.7616   -1.9153   -0.5782 H   0  0  0  0  0  0  0  0  0  0  0  0
    3.9683   -2.6194    0.3265 H   0  0  0  0  0  0  0  0  0  0  0  0
    2.7920   -2.4869    1.6358 H   0  0  0  0  0  0  0  0  0  0  0  0
    4.1207    0.6406    2.7733 H   0  0  0  0  0  0  0  0  0  0  0  0
    4.0108    0.9305    1.0357 H   0  0  0  0  0  0  0  0  0  0  0  0
    1.8409   -0.4094    2.7588 H   0  0  0  0  0  0  0  0  0  0  0  0
    1.7768    1.2619    2.2089 H   0  0  0  0  0  0  0  0  0  0  0  0
   -0.7423   -1.0568    0.6245 H   0  0  0  0  0  0  0  0  0  0  0  0
   -2.2374   -2.4237   -0.2338 H   0  0  0  0  0  0  0  0  0  0  0  0
   -4.3834   -3.6152   -0.0687 H   0  0  0  0  0  0  0  0  0  0  0  0
   -6.5224   -2.3665   -0.1809 H   0  0  0  0  0  0  0  0  0  0  0  0
   -6.5084    0.0999   -0.4566 H   0  0  0  0  0  0  0  0  0  0  0  0
   -4.3666    1.3216   -0.6037 H   0  0  0  0  0  0  0  0  0  0  0  0
  1  2  1  0
  2  3  2  0
  2  4  1  0
  4  5  2  0
  5  6  1  0
  6  7  1  0
  7  8  1  0
  8  9  1  0
  9 10  1  0
 10 11  1  0
  5 12  1  0
 12 13  1  0
 13 14  1  0
 14 15  2  0
 15 16  1  0
 16 17  2  0
 17 18  1  0
 18 19  2  0
 13 20  2  0
 20 21  1  0
 21 22  2  0
 21  4  1  0
 11  6  1  0
 19 14  1  0
  1 23  1  0
  1 24  1  0
  1 25  1  0
  7 26  1  0
  7 27  1  0
  8 28  1  0
  8 29  1  0
 10 30  1  0
 10 31  1  0
 11 32  1  0
 11 33  1  0
 12 34  1  0
 15 35  1  0
 16 36  1  0
 17 37  1  0
 18 38  1  0
 19 39  1  0
M  END
$$$$
