
     RDKit          3D

 47 49  0  0  0  0  0  0  0  0999 V2000
    4.7672    0.6702    3.0116 C   0  0  0  0  0  0  0  0  0  0  0  0
    4.0597    0.4485    1.7977 O   0  0  0  0  0  0  0  0  0  0  0  0
    4.7580    0.6405    0.6259 C   0  0  0  0  0  0  0  0  0  0  0  0
    6.0915    1.0548    0.5482 C   0  0  0  0  0  0  0  0  0  0  0  0
    6.7025    1.2210   -0.6964 C   0  0  0  0  0  0  0  0  0  0  0  0
    5.9857    0.9783   -1.8651 C   0  0  0  0  0  0  0  0  0  0  0  0
    4.6539    0.5650   -1.7982 C   0  0  0  0  0  0  0  0  0  0  0  0
    4.0336    0.3869   -0.5598 C   0  0  0  0  0  0  0  0  0  0  0  0
    2.6878   -0.0174   -0.4131 N   0  0  0  0  0  0  0  0  0  0  0  0
    1.8316   -0.5005   -1.3732 C   0  0  0  0  0  0  0  0  0  0  0  0
    2.1561   -0.7651   -2.5280 O   0  0  0  0  0  0  0  0  0  0  0  0
    0.5228   -0.6943   -0.9252 N   0  0  0  0  0  0  0  0  0  0  0  0
   -0.0150   -0.1672    0.3279 C   0  0  0  0  0  0  0  0  0  0  0  0
   -1.5152    0.0976    0.2566 C   0  0  0  0  0  0  0  0  0  0  0  0
   -2.3173   -1.1454   -0.1571 C   0  0  0  0  0  0  0  0  0  0  0  0
   -3.5904   -0.7017   -0.8796 C   0  0  0  0  0  0  0  0  0  0  0  0
   -3.6356   -0.6303   -2.1076 O   0  0  0  0  0  0  0  0  0  0  0  0
   -4.8057   -0.3110   -0.0934 C   0  0  0  0  0  0  0  0  0  0  0  0
   -5.9581    0.0618   -0.8075 C   0  0  0  0  0  0  0  0  0  0  0  0
   -7.1230    0.4374   -0.1344 C   0  0  0  0  0  0  0  0  0  0  0  0
   -7.1376    0.4417    1.2534 C   0  0  0  0  0  0  0  0  0  0  0  0
   -8.2518    0.8012    1.9028 F   0  0  0  0  0  0  0  0  0  0  0  0
   -6.0094    0.0779    1.9792 C   0  0  0  0  0  0  0  0  0  0  0  0
   -4.8409   -0.2990    1.3082 C   0  0  0  0  0  0  0  0  0  0  0  0
   -1.4969   -2.0969   -1.0490 C   0  0  0  0  0  0  0  0  0  0  0  0
   -0.4179   -1.3550   -1.8296 C   0  0  0  0  0  0  0  0  0  0  0  0
    5.0884    1.7136    3.0963 H   0  0  0  0  0  0  0  0  0  0  0  0
    4.0808    0.4664    3.8391 H   0  0  0  0  0  0  0  0  0  0  0  0
    5.6147   -0.0166    3.1065 H   0  0  0  0  0  0  0  0  0  0  0  0
    6.6840    1.2577    1.4334 H   0  0  0  0  0  0  0  0  0  0  0  0
    7.7393    1.5427   -0.7549 H   0  0  0  0  0  0  0  0  0  0  0  0
    6.4594    1.1112   -2.8347 H   0  0  0  0  0  0  0  0  0  0  0  0
    4.1215    0.3958   -2.7291 H   0  0  0  0  0  0  0  0  0  0  0  0
    2.4109   -0.1289    0.5512 H   0  0  0  0  0  0  0  0  0  0  0  0
    0.4983    0.7638    0.5909 H   0  0  0  0  0  0  0  0  0  0  0  0
    0.2040   -0.9040    1.1096 H   0  0  0  0  0  0  0  0  0  0  0  0
   -1.8664    0.4619    1.2289 H   0  0  0  0  0  0  0  0  0  0  0  0
   -1.6930    0.9154   -0.4550 H   0  0  0  0  0  0  0  0  0  0  0  0
   -2.6004   -1.7315    0.7241 H   0  0  0  0  0  0  0  0  0  0  0  0
   -5.9542    0.0617   -1.8969 H   0  0  0  0  0  0  0  0  0  0  0  0
   -8.0129    0.7253   -0.6854 H   0  0  0  0  0  0  0  0  0  0  0  0
   -6.0470    0.0905    3.0645 H   0  0  0  0  0  0  0  0  0  0  0  0
   -3.9807   -0.5732    1.9095 H   0  0  0  0  0  0  0  0  0  0  0  0
   -2.1400   -2.6585   -1.7364 H   0  0  0  0  0  0  0  0  0  0  0  0
   -1.0087   -2.8421   -0.4062 H   0  0  0  0  0  0  0  0  0  0  0  0
   -0.8529   -0.5856   -2.4779 H   0  0  0  0  0  0  0  0  0  0  0  0
    0.1191   -2.0615   -2.4722 H   0  0  0  0  0  0  0  0  0  0  0  0
  1  2  1  0
  2  3  1  0
  3  4  2  0
  4  5  1  0
  5  6  2  0
  6  7  1  0
  7  8  2  0
  8  9  1  0
  9 10  1  0
 10 11  2  0
 10 12  1  0
 12 13  1  0
 13 14  1  0
 14 15  1  0
 15 16  1  0
 16 17  2  0
 16 18  1  0
 18 19  2  0
 19 20  1  0
 20 21  2  0
 21 22  1  0
 21 23  1  0
 23 24  2  0
 15 25  1  0
 25 26  1  0
  8  3  1  0
 26 12  1  0
 24 18  1  0
  1 27  1  0
  1 28  1  0
  1 29  1  0
  4 30  1  0
  5 31  1  0
  6 32  1  0
  7 33  1  0
  9 34  1  0
 13 35  1  0
 13 36  1  0
 14 37  1  0
 14 38  1  0
 15 39  1  0
 19 40  1  0
 20 41  1  0
 23 42  1  0
 24 43  1  0
 25 44  1  0
 25 45  1  0
 26 46  1  0
 26 47  1  0
M  END
$$$$
