
     RDKit          3D

 58 62  0  0  0  0  0  0  0  0999 V2000
   -3.0484    2.0353    1.9080 O   0  0  0  0  0  0  0  0  0  0  0  0
   -3.3640    1.3859    0.7350 C   0  0  0  0  0  0  0  0  0  0  0  0
   -2.4979    0.4004    0.2460 C   0  0  0  0  0  0  0  0  0  0  0  0
   -1.2319   -0.0020    1.0189 C   0  0  0  0  0  0  0  0  0  0  0  0
   -1.5653   -1.1367    2.0141 C   0  0  0  0  0  0  0  0  0  0  0  0
   -1.9831   -2.3944    1.5692 C   0  0  0  0  0  0  0  0  0  0  0  0
   -2.2597   -3.3902    2.5025 C   0  0  0  0  0  0  0  0  0  0  0  0
   -2.1094   -3.1162    3.8550 C   0  0  0  0  0  0  0  0  0  0  0  0
   -1.6790   -1.8534    4.2202 C   0  0  0  0  0  0  0  0  0  0  0  0
   -1.3985   -0.8695    3.3388 N   0  0  0  0  0  0  0  0  0  0  0  0
   -0.0745   -0.3111    0.1042 N   0  0  0  0  0  0  0  0  0  0  0  0
    0.3350    0.8731   -0.6817 C   0  0  0  0  0  0  0  0  0  0  0  0
    1.5765    1.5881   -0.1479 C   0  0  0  0  0  0  0  0  0  0  0  0
    2.8041    0.6601   -0.1175 C   0  0  0  0  0  0  0  0  0  0  0  0
    3.6658    0.8360   -1.3846 C   0  0  0  0  0  0  0  0  0  0  0  0
    4.9794    0.0921   -1.3299 C   0  0  0  0  0  0  0  0  0  0  0  0
    6.0229    0.5518   -0.5147 C   0  0  0  0  0  0  0  0  0  0  0  0
    7.2343   -0.1391   -0.4577 C   0  0  0  0  0  0  0  0  0  0  0  0
    7.4147   -1.2952   -1.2143 C   0  0  0  0  0  0  0  0  0  0  0  0
    6.3843   -1.7610   -2.0286 C   0  0  0  0  0  0  0  0  0  0  0  0
    5.1722   -1.0712   -2.0869 C   0  0  0  0  0  0  0  0  0  0  0  0
    2.3717   -0.8040    0.0768 C   0  0  0  0  0  0  0  0  0  0  0  0
    1.0598   -0.8913    0.8560 C   0  0  0  0  0  0  0  0  0  0  0  0
   -2.8539   -0.2252   -0.9574 C   0  0  0  0  0  0  0  0  0  0  0  0
   -4.0267    0.1305   -1.6302 C   0  0  0  0  0  0  0  0  0  0  0  0
   -4.3702   -0.7042   -3.1089 Cl  0  0  0  0  0  0  0  0  0  0  0  0
   -4.8908    1.1282   -1.1187 C   0  0  0  0  0  0  0  0  0  0  0  0
   -6.0936    1.5485   -1.7293 C   0  0  0  0  0  0  0  0  0  0  0  0
   -6.8749    2.5403   -1.1467 C   0  0  0  0  0  0  0  0  0  0  0  0
   -6.4374    3.0949    0.0378 C   0  0  0  0  0  0  0  0  0  0  0  0
   -5.2964    2.7286    0.6599 N   0  0  0  0  0  0  0  0  0  0  0  0
   -4.5428    1.7632    0.0888 C   0  0  0  0  0  0  0  0  0  0  0  0
   -3.8039    2.6434    2.0607 H   0  0  0  0  0  0  0  0  0  0  0  0
   -0.9153    0.8588    1.6250 H   0  0  0  0  0  0  0  0  0  0  0  0
   -2.0778   -2.6062    0.5100 H   0  0  0  0  0  0  0  0  0  0  0  0
   -2.5860   -4.3725    2.1735 H   0  0  0  0  0  0  0  0  0  0  0  0
   -2.3181   -3.8687    4.6065 H   0  0  0  0  0  0  0  0  0  0  0  0
   -1.5423   -1.5890    5.2647 H   0  0  0  0  0  0  0  0  0  0  0  0
    0.5417    0.5297   -1.7037 H   0  0  0  0  0  0  0  0  0  0  0  0
   -0.4707    1.6079   -0.7863 H   0  0  0  0  0  0  0  0  0  0  0  0
    1.3694    1.9460    0.8695 H   0  0  0  0  0  0  0  0  0  0  0  0
    1.7775    2.4845   -0.7462 H   0  0  0  0  0  0  0  0  0  0  0  0
    3.4060    0.9589    0.7516 H   0  0  0  0  0  0  0  0  0  0  0  0
    3.0978    0.5279   -2.2721 H   0  0  0  0  0  0  0  0  0  0  0  0
    3.8925    1.8999   -1.5355 H   0  0  0  0  0  0  0  0  0  0  0  0
    5.8968    1.4528    0.0813 H   0  0  0  0  0  0  0  0  0  0  0  0
    8.0371    0.2253    0.1777 H   0  0  0  0  0  0  0  0  0  0  0  0
    8.3578   -1.8329   -1.1693 H   0  0  0  0  0  0  0  0  0  0  0  0
    6.5237   -2.6630   -2.6185 H   0  0  0  0  0  0  0  0  0  0  0  0
    4.3772   -1.4500   -2.7250 H   0  0  0  0  0  0  0  0  0  0  0  0
    2.2471   -1.3094   -0.8897 H   0  0  0  0  0  0  0  0  0  0  0  0
    3.1562   -1.3500    0.6147 H   0  0  0  0  0  0  0  0  0  0  0  0
    1.1971   -0.3905    1.8238 H   0  0  0  0  0  0  0  0  0  0  0  0
    0.8588   -1.9495    1.0565 H   0  0  0  0  0  0  0  0  0  0  0  0
   -2.2058   -0.9931   -1.3769 H   0  0  0  0  0  0  0  0  0  0  0  0
   -6.4301    1.1053   -2.6637 H   0  0  0  0  0  0  0  0  0  0  0  0
   -7.7996    2.8688   -1.6079 H   0  0  0  0  0  0  0  0  0  0  0  0
   -7.0089    3.8733    0.5361 H   0  0  0  0  0  0  0  0  0  0  0  0
  1  2  1  0
  2  3  2  0
  3  4  1  0
  4  5  1  0
  5  6  2  0
  6  7  1  0
  7  8  2  0
  8  9  1  0
  9 10  2  0
  4 11  1  0
 11 12  1  0
 12 13  1  0
 13 14  1  0
 14 15  1  0
 15 16  1  0
 16 17  2  0
 17 18  1  0
 18 19  2  0
 19 20  1  0
 20 21  2  0
 14 22  1  0
 22 23  1  0
  3 24  1  0
 24 25  2  0
 25 26  1  0
 25 27  1  0
 27 28  2  0
 28 29  1  0
 29 30  2  0
 30 31  1  0
 31 32  2  0
 32  2  1  0
 10  5  1  0
 23 11  1  0
 32 27  1  0
 21 16  1  0
  1 33  1  0
  4 34  1  0
  6 35  1  0
  7 36  1  0
  8 37  1  0
  9 38  1  0
 12 39  1  0
 12 40  1  0
 13 41  1  0
 13 42  1  0
 14 43  1  0
 15 44  1  0
 15 45  1  0
 17 46  1  0
 18 47  1  0
 19 48  1  0
 20 49  1  0
 21 50  1  0
 22 51  1  0
 22 52  1  0
 23 53  1  0
 23 54  1  0
 24 55  1  0
 28 56  1  0
 29 57  1  0
 30 58  1  0
M  END
$$$$
