
     RDKit          3D

 45 47  0  0  0  0  0  0  0  0999 V2000
    1.4179   -2.7867   -4.1689 C   0  0  0  0  0  0  0  0  0  0  0  0
    2.6538   -2.3973   -3.3865 C   0  0  0  0  0  0  0  0  0  0  0  0
    3.7869   -2.8830   -3.7834 N   0  0  0  0  0  0  0  0  0  0  0  0
    2.4727   -1.4670   -2.1963 C   0  0  0  0  0  0  0  0  0  0  0  0
    1.9408   -0.1813   -2.6615 C   0  0  0  0  0  0  0  0  0  0  0  0
    1.4894    0.8437   -2.9658 N   0  0  0  0  0  0  0  0  0  0  0  0
    3.6947   -1.2159   -1.3314 C   0  0  0  0  0  0  0  0  0  0  0  0
    4.7912   -1.7270   -1.5805 O   0  0  0  0  0  0  0  0  0  0  0  0
    3.5482   -0.2865   -0.1299 C   0  0  0  0  0  0  0  0  0  0  0  0
    2.1916   -0.2164    0.3036 O   0  0  0  0  0  0  0  0  0  0  0  0
    1.9976    0.6398    1.3414 C   0  0  0  0  0  0  0  0  0  0  0  0
    2.8654    1.2487    1.9386 O   0  0  0  0  0  0  0  0  0  0  0  0
    0.5503    0.7010    1.6407 C   0  0  0  0  0  0  0  0  0  0  0  0
   -0.3250    0.9081    0.5688 C   0  0  0  0  0  0  0  0  0  0  0  0
   -1.6852    0.9649    0.8164 C   0  0  0  0  0  0  0  0  0  0  0  0
   -2.7005    1.1600   -0.2447 C   0  0  0  0  0  0  0  0  0  0  0  0
   -4.0219    0.7027   -0.0629 C   0  0  0  0  0  0  0  0  0  0  0  0
   -5.0009    0.8629   -1.0488 C   0  0  0  0  0  0  0  0  0  0  0  0
   -4.6823    1.4913   -2.2478 C   0  0  0  0  0  0  0  0  0  0  0  0
   -3.3880    1.9593   -2.4487 C   0  0  0  0  0  0  0  0  0  0  0  0
   -2.9496    2.8229   -4.0737 Br  0  0  0  0  0  0  0  0  0  0  0  0
   -2.4075    1.8009   -1.4638 C   0  0  0  0  0  0  0  0  0  0  0  0
   -2.1680    0.8200    2.0741 N   0  0  0  0  0  0  0  0  0  0  0  0
   -1.3294    0.6411    3.1091 C   0  0  0  0  0  0  0  0  0  0  0  0
   -1.8760    0.5124    4.3791 C   0  0  0  0  0  0  0  0  0  0  0  0
   -1.0822    0.3160    5.5108 C   0  0  0  0  0  0  0  0  0  0  0  0
    0.2960    0.2441    5.3771 C   0  0  0  0  0  0  0  0  0  0  0  0
    0.8694    0.3694    4.1129 C   0  0  0  0  0  0  0  0  0  0  0  0
    0.0671    0.5727    2.9599 C   0  0  0  0  0  0  0  0  0  0  0  0
    1.0741   -1.9345   -4.7609 H   0  0  0  0  0  0  0  0  0  0  0  0
    1.6378   -3.6191   -4.8434 H   0  0  0  0  0  0  0  0  0  0  0  0
    0.6266   -3.0911   -3.4785 H   0  0  0  0  0  0  0  0  0  0  0  0
    4.5716   -2.5797   -3.1760 H   0  0  0  0  0  0  0  0  0  0  0  0
    1.7338   -1.9599   -1.5511 H   0  0  0  0  0  0  0  0  0  0  0  0
    4.1685   -0.6860    0.6803 H   0  0  0  0  0  0  0  0  0  0  0  0
    3.9008    0.7061   -0.4320 H   0  0  0  0  0  0  0  0  0  0  0  0
    0.0624    1.0192   -0.4375 H   0  0  0  0  0  0  0  0  0  0  0  0
   -4.3001    0.2081    0.8678 H   0  0  0  0  0  0  0  0  0  0  0  0
   -6.0100    0.4981   -0.8743 H   0  0  0  0  0  0  0  0  0  0  0  0
   -5.4454    1.6158   -3.0111 H   0  0  0  0  0  0  0  0  0  0  0  0
   -1.4145    2.2005   -1.6566 H   0  0  0  0  0  0  0  0  0  0  0  0
   -2.9568    0.5686    4.4927 H   0  0  0  0  0  0  0  0  0  0  0  0
   -1.5450    0.2228    6.4900 H   0  0  0  0  0  0  0  0  0  0  0  0
    0.9255    0.0954    6.2511 H   0  0  0  0  0  0  0  0  0  0  0  0
    1.9541    0.3146    4.0392 H   0  0  0  0  0  0  0  0  0  0  0  0
  1  2  1  0
  2  3  2  3
  2  4  1  0
  4  5  1  0
  5  6  3  0
  4  7  1  0
  7  8  2  0
  7  9  1  0
  9 10  1  0
 10 11  1  0
 11 12  2  0
 11 13  1  0
 13 14  2  0
 14 15  1  0
 15 16  1  0
 16 17  2  0
 17 18  1  0
 18 19  2  0
 19 20  1  0
 20 21  1  0
 20 22  2  0
 15 23  2  0
 23 24  1  0
 24 25  2  0
 25 26  1  0
 26 27  2  0
 27 28  1  0
 28 29  2  0
 29 13  1  0
 22 16  1  0
 29 24  1  0
  1 30  1  0
  1 31  1  0
  1 32  1  0
  3 33  1  0
  4 34  1  0
  9 35  1  0
  9 36  1  0
 14 37  1  0
 17 38  1  0
 18 39  1  0
 19 40  1  0
 22 41  1  0
 25 42  1  0
 26 43  1  0
 27 44  1  0
 28 45  1  0
M  END
$$$$
