
     RDKit          3D

 49 51  0  0  0  0  0  0  0  0999 V2000
   -3.5023    3.0189    1.9766 C   0  0  0  0  0  0  0  0  0  0  0  0
   -2.4248    2.2174    1.2585 C   0  0  0  0  0  0  0  0  0  0  0  0
   -2.6559    0.6948    1.3296 C   0  0  0  0  0  0  0  0  0  0  0  0
   -2.5402    0.1284    2.7498 C   0  0  0  0  0  0  0  0  0  0  0  0
   -1.7944   -0.0423    0.3603 N   0  0  0  0  0  0  0  0  0  0  0  0
   -0.3979   -0.0373    0.5669 C   0  0  0  0  0  0  0  0  0  0  0  0
    0.1117    0.6054    1.4849 O   0  0  0  0  0  0  0  0  0  0  0  0
    0.4521   -0.8468   -0.3879 C   0  0  0  0  0  0  0  0  0  0  0  0
    1.8406   -0.8744    0.0162 N   0  0  0  0  0  0  0  0  0  0  0  0
    2.3113   -1.8386    0.8267 N   0  0  0  0  0  0  0  0  0  0  0  0
    3.6239   -1.6606    0.8321 N   0  0  0  0  0  0  0  0  0  0  0  0
    3.8926   -0.6215   -0.0307 C   0  0  0  0  0  0  0  0  0  0  0  0
    5.2432   -0.1407   -0.2942 C   0  0  0  0  0  0  0  0  0  0  0  0
    6.3460   -0.7342    0.3429 C   0  0  0  0  0  0  0  0  0  0  0  0
    7.6424   -0.2760    0.0921 C   0  0  0  0  0  0  0  0  0  0  0  0
    7.8388    0.7757   -0.7945 C   0  0  0  0  0  0  0  0  0  0  0  0
    9.0814    1.2136   -1.0343 F   0  0  0  0  0  0  0  0  0  0  0  0
    6.7642    1.3794   -1.4355 C   0  0  0  0  0  0  0  0  0  0  0  0
    5.4674    0.9222   -1.1858 C   0  0  0  0  0  0  0  0  0  0  0  0
    2.7797   -0.1368   -0.6119 N   0  0  0  0  0  0  0  0  0  0  0  0
   -2.4550   -0.7525   -0.7576 C   0  0  0  0  0  0  0  0  0  0  0  0
   -3.3455   -1.9157   -0.2927 C   0  0  0  0  0  0  0  0  0  0  0  0
   -4.0121   -2.4560   -1.5519 C   0  0  0  0  0  0  0  0  0  0  0  0
   -4.3060   -1.0283   -2.5871 S   0  0  0  0  0  6  0  0  0  0  0  0
   -3.6498   -1.2466   -3.8588 O   0  0  0  0  0  0  0  0  0  0  0  0
   -5.6991   -0.6520   -2.4820 O   0  0  0  0  0  0  0  0  0  0  0  0
   -3.3306    0.1335   -1.6473 C   0  0  0  0  0  0  0  0  0  0  0  0
   -4.4969    2.7768    1.5890 H   0  0  0  0  0  0  0  0  0  0  0  0
   -3.3339    4.0904    1.8283 H   0  0  0  0  0  0  0  0  0  0  0  0
   -3.4929    2.8276    3.0535 H   0  0  0  0  0  0  0  0  0  0  0  0
   -1.4511    2.4893    1.6792 H   0  0  0  0  0  0  0  0  0  0  0  0
   -2.4070    2.5301    0.2070 H   0  0  0  0  0  0  0  0  0  0  0  0
   -3.6948    0.5182    1.0312 H   0  0  0  0  0  0  0  0  0  0  0  0
   -1.5954    0.3970    3.2307 H   0  0  0  0  0  0  0  0  0  0  0  0
   -2.6113   -0.9647    2.7378 H   0  0  0  0  0  0  0  0  0  0  0  0
   -3.3485    0.5036    3.3856 H   0  0  0  0  0  0  0  0  0  0  0  0
    0.1083   -1.8857   -0.4154 H   0  0  0  0  0  0  0  0  0  0  0  0
    0.4055   -0.4067   -1.3890 H   0  0  0  0  0  0  0  0  0  0  0  0
    6.2043   -1.5578    1.0408 H   0  0  0  0  0  0  0  0  0  0  0  0
    8.4961   -0.7323    0.5831 H   0  0  0  0  0  0  0  0  0  0  0  0
    6.9394    2.2006   -2.1231 H   0  0  0  0  0  0  0  0  0  0  0  0
    4.6308    1.4025   -1.6904 H   0  0  0  0  0  0  0  0  0  0  0  0
   -1.6905   -1.1836   -1.4101 H   0  0  0  0  0  0  0  0  0  0  0  0
   -2.7684   -2.6933    0.2183 H   0  0  0  0  0  0  0  0  0  0  0  0
   -4.1156   -1.5702    0.4061 H   0  0  0  0  0  0  0  0  0  0  0  0
   -4.9565   -2.9618   -1.3407 H   0  0  0  0  0  0  0  0  0  0  0  0
   -3.3404   -3.1287   -2.0931 H   0  0  0  0  0  0  0  0  0  0  0  0
   -2.7396    0.7541   -2.3251 H   0  0  0  0  0  0  0  0  0  0  0  0
   -4.0237    0.7656   -1.0878 H   0  0  0  0  0  0  0  0  0  0  0  0
  1  2  1  0
  2  3  1  0
  3  4  1  0
  3  5  1  0
  5  6  1  0
  6  7  2  0
  6  8  1  0
  8  9  1  0
  9 10  1  0
 10 11  2  0
 11 12  1  0
 12 13  1  0
 13 14  2  0
 14 15  1  0
 15 16  2  0
 16 17  1  0
 16 18  1  0
 18 19  2  0
 12 20  2  0
  5 21  1  0
 21 22  1  0
 22 23  1  0
 23 24  1  0
 24 25  2  0
 24 26  2  0
 24 27  1  0
 20  9  1  0
 27 21  1  0
 19 13  1  0
  1 28  1  0
  1 29  1  0
  1 30  1  0
  2 31  1  0
  2 32  1  0
  3 33  1  0
  4 34  1  0
  4 35  1  0
  4 36  1  0
  8 37  1  0
  8 38  1  0
 14 39  1  0
 15 40  1  0
 18 41  1  0
 19 42  1  0
 21 43  1  0
 22 44  1  0
 22 45  1  0
 23 46  1  0
 23 47  1  0
 27 48  1  0
 27 49  1  0
M  END
$$$$
