
     RDKit          3D

 42 43  0  0  0  0  0  0  0  0999 V2000
    4.4787   -1.7774   -0.1548 C   0  0  0  0  0  0  0  0  0  0  0  0
    3.4200   -0.9323   -0.7884 C   0  0  0  0  0  0  0  0  0  0  0  0
    2.7064   -1.4491   -2.2488 S   0  0  0  0  0  0  0  0  0  0  0  0
    1.6944   -0.0894   -2.3176 C   0  0  0  0  0  0  0  0  0  0  0  0
    0.8343    0.0456   -3.3418 N   0  0  0  0  0  0  0  0  0  0  0  0
    0.0997    1.1518   -3.2567 C   0  0  0  0  0  0  0  0  0  0  0  0
    0.1389    2.0769   -2.2922 N   0  0  0  0  0  0  0  0  0  0  0  0
    1.0366    1.9147   -1.2951 C   0  0  0  0  0  0  0  0  0  0  0  0
    1.1324    3.2062   -0.0934 S   0  0  0  0  0  0  0  0  0  0  0  0
   -0.5709    3.1417    0.5305 C   0  0  0  0  0  0  0  0  0  0  0  0
   -0.8033    1.8600    1.3129 C   0  0  0  0  0  0  0  0  0  0  0  0
   -0.2532    1.6358    2.3889 O   0  0  0  0  0  0  0  0  0  0  0  0
   -1.6750    0.9695    0.7163 N   0  0  0  0  0  0  0  0  0  0  0  0
   -2.1083   -0.2535    1.3924 C   0  0  0  0  0  0  0  0  0  0  0  0
   -3.2350    0.0938    2.3710 C   0  0  0  0  0  0  0  0  0  0  0  0
   -2.5273   -1.3315    0.3593 C   0  0  0  0  0  0  0  0  0  0  0  0
   -3.0357   -2.6148    1.0242 C   0  0  0  0  0  0  0  0  0  0  0  0
   -1.3607   -1.6853   -0.5709 C   0  0  0  0  0  0  0  0  0  0  0  0
    1.8710    0.7826   -1.2513 C   0  0  0  0  0  0  0  0  0  0  0  0
    2.8947    0.2752   -0.3424 C   0  0  0  0  0  0  0  0  0  0  0  0
    3.3303    0.9492    0.9242 C   0  0  0  0  0  0  0  0  0  0  0  0
    5.4042   -1.2028   -0.0431 H   0  0  0  0  0  0  0  0  0  0  0  0
    4.7116   -2.6706   -0.7438 H   0  0  0  0  0  0  0  0  0  0  0  0
    4.1541   -2.1077    0.8374 H   0  0  0  0  0  0  0  0  0  0  0  0
   -0.6128    1.3198   -4.0583 H   0  0  0  0  0  0  0  0  0  0  0  0
   -0.7318    3.9820    1.2137 H   0  0  0  0  0  0  0  0  0  0  0  0
   -1.2898    3.2505   -0.2871 H   0  0  0  0  0  0  0  0  0  0  0  0
   -2.1709    1.2555   -0.1191 H   0  0  0  0  0  0  0  0  0  0  0  0
   -1.2587   -0.6300    1.9766 H   0  0  0  0  0  0  0  0  0  0  0  0
   -3.4975   -0.7601    3.0023 H   0  0  0  0  0  0  0  0  0  0  0  0
   -2.9398    0.9094    3.0404 H   0  0  0  0  0  0  0  0  0  0  0  0
   -4.1339    0.4192    1.8359 H   0  0  0  0  0  0  0  0  0  0  0  0
   -3.3377   -0.9311   -0.2644 H   0  0  0  0  0  0  0  0  0  0  0  0
   -3.9707   -2.4412    1.5653 H   0  0  0  0  0  0  0  0  0  0  0  0
   -3.2409   -3.3873    0.2750 H   0  0  0  0  0  0  0  0  0  0  0  0
   -2.2986   -3.0149    1.7285 H   0  0  0  0  0  0  0  0  0  0  0  0
   -1.6487   -2.4687   -1.2802 H   0  0  0  0  0  0  0  0  0  0  0  0
   -1.0529   -0.8168   -1.1579 H   0  0  0  0  0  0  0  0  0  0  0  0
   -0.4937   -2.0421   -0.0047 H   0  0  0  0  0  0  0  0  0  0  0  0
    3.7679    1.9281    0.7062 H   0  0  0  0  0  0  0  0  0  0  0  0
    2.4833    1.0705    1.6056 H   0  0  0  0  0  0  0  0  0  0  0  0
    4.0894    0.3688    1.4575 H   0  0  0  0  0  0  0  0  0  0  0  0
  1  2  1  0
  2  3  1  0
  3  4  1  0
  4  5  2  0
  5  6  1  0
  6  7  2  0
  7  8  1  0
  8  9  1  0
  9 10  1  0
 10 11  1  0
 11 12  2  0
 11 13  1  0
 13 14  1  0
 14 15  1  0
 14 16  1  0
 16 17  1  0
 16 18  1  0
  8 19  2  0
 19 20  1  0
 20 21  1  0
 20  2  2  0
 19  4  1  0
  1 22  1  0
  1 23  1  0
  1 24  1  0
  6 25  1  0
 10 26  1  0
 10 27  1  0
 13 28  1  0
 14 29  1  0
 15 30  1  0
 15 31  1  0
 15 32  1  0
 16 33  1  0
 17 34  1  0
 17 35  1  0
 17 36  1  0
 18 37  1  0
 18 38  1  0
 18 39  1  0
 21 40  1  0
 21 41  1  0
 21 42  1  0
M  END
$$$$
