
     RDKit          3D

 55 58  0  0  0  0  0  0  0  0999 V2000
   -7.5240   -2.6780    0.1529 C   0  0  0  0  0  0  0  0  0  0  0  0
   -6.5107   -2.3468    1.2426 C   0  0  0  0  0  0  0  0  0  0  0  0
   -7.1983   -1.7037    2.4406 C   0  0  0  0  0  0  0  0  0  0  0  0
   -5.5563   -1.3926    0.7407 O   0  0  0  0  0  0  0  0  0  0  0  0
   -4.5153   -1.9015    0.0363 C   0  0  0  0  0  0  0  0  0  0  0  0
   -4.3209   -3.0820   -0.2061 O   0  0  0  0  0  0  0  0  0  0  0  0
   -3.6154   -0.8102   -0.4267 C   0  0  0  0  0  0  0  0  0  0  0  0
   -3.8251    0.5326   -0.0885 C   0  0  0  0  0  0  0  0  0  0  0  0
   -2.9479    1.5190   -0.5487 C   0  0  0  0  0  0  0  0  0  0  0  0
   -1.8558    1.1804   -1.3589 C   0  0  0  0  0  0  0  0  0  0  0  0
   -0.8991    2.2448   -1.8319 C   0  0  0  0  0  0  0  0  0  0  0  0
    0.2628    2.2445   -0.9942 O   0  0  0  0  0  0  0  0  0  0  0  0
    0.2515    3.1386    0.0230 C   0  0  0  0  0  0  0  0  0  0  0  0
   -0.6275    3.9521    0.2585 O   0  0  0  0  0  0  0  0  0  0  0  0
    1.4861    3.0066    0.8446 C   0  0  0  0  0  0  0  0  0  0  0  0
    1.6701    3.9013    1.9063 C   0  0  0  0  0  0  0  0  0  0  0  0
    2.8095    3.8181    2.7049 C   0  0  0  0  0  0  0  0  0  0  0  0
    3.7708    2.8388    2.4471 C   0  0  0  0  0  0  0  0  0  0  0  0
    3.6077    1.9283    1.3916 C   0  0  0  0  0  0  0  0  0  0  0  0
    4.6286    0.9157    1.1516 C   0  0  0  0  0  0  0  0  0  0  0  0
    5.7663    0.6948    1.7780 N   0  0  0  0  0  0  0  0  0  0  0  0
    6.3548   -0.3859    1.1526 N   0  0  0  0  0  0  0  0  0  0  0  0
    5.5360   -0.7530    0.1874 C   0  0  0  0  0  0  0  0  0  0  0  0
    5.6540   -1.8340   -0.7824 C   0  0  0  0  0  0  0  0  0  0  0  0
    4.6644   -2.0772   -1.7475 C   0  0  0  0  0  0  0  0  0  0  0  0
    4.8037   -3.1218   -2.6656 C   0  0  0  0  0  0  0  0  0  0  0  0
    5.9336   -3.9359   -2.6306 C   0  0  0  0  0  0  0  0  0  0  0  0
    6.9248   -3.7081   -1.6792 C   0  0  0  0  0  0  0  0  0  0  0  0
    6.7853   -2.6643   -0.7613 C   0  0  0  0  0  0  0  0  0  0  0  0
    4.4139    0.0332    0.1250 O   0  0  0  0  0  0  0  0  0  0  0  0
    2.4556    2.0224    0.5935 C   0  0  0  0  0  0  0  0  0  0  0  0
   -1.6415   -0.1654   -1.6851 C   0  0  0  0  0  0  0  0  0  0  0  0
   -2.5163   -1.1530   -1.2250 C   0  0  0  0  0  0  0  0  0  0  0  0
   -8.2923   -3.3643    0.5220 H   0  0  0  0  0  0  0  0  0  0  0  0
   -8.0122   -1.7698   -0.2175 H   0  0  0  0  0  0  0  0  0  0  0  0
   -7.0332   -3.1425   -0.7085 H   0  0  0  0  0  0  0  0  0  0  0  0
   -6.0014   -3.2573    1.5813 H   0  0  0  0  0  0  0  0  0  0  0  0
   -6.4611   -1.4468    3.2091 H   0  0  0  0  0  0  0  0  0  0  0  0
   -7.6938   -0.7692    2.1552 H   0  0  0  0  0  0  0  0  0  0  0  0
   -7.9417   -2.3752    2.8811 H   0  0  0  0  0  0  0  0  0  0  0  0
   -4.6631    0.8287    0.5379 H   0  0  0  0  0  0  0  0  0  0  0  0
   -3.1169    2.5568   -0.2629 H   0  0  0  0  0  0  0  0  0  0  0  0
   -0.5699    2.0163   -2.8517 H   0  0  0  0  0  0  0  0  0  0  0  0
   -1.3803    3.2286   -1.8849 H   0  0  0  0  0  0  0  0  0  0  0  0
    0.9245    4.6673    2.1160 H   0  0  0  0  0  0  0  0  0  0  0  0
    2.9495    4.5145    3.5288 H   0  0  0  0  0  0  0  0  0  0  0  0
    4.6555    2.7878    3.0820 H   0  0  0  0  0  0  0  0  0  0  0  0
    3.7723   -1.4567   -1.7959 H   0  0  0  0  0  0  0  0  0  0  0  0
    4.0295   -3.3000   -3.4076 H   0  0  0  0  0  0  0  0  0  0  0  0
    6.0422   -4.7482   -3.3449 H   0  0  0  0  0  0  0  0  0  0  0  0
    7.8075   -4.3423   -1.6491 H   0  0  0  0  0  0  0  0  0  0  0  0
    7.5702   -2.5014   -0.0240 H   0  0  0  0  0  0  0  0  0  0  0  0
    2.3136    1.3216   -0.2264 H   0  0  0  0  0  0  0  0  0  0  0  0
   -0.7889   -0.4534   -2.2966 H   0  0  0  0  0  0  0  0  0  0  0  0
   -2.3354   -2.1935   -1.4892 H   0  0  0  0  0  0  0  0  0  0  0  0
  1  2  1  0
  2  3  1  0
  2  4  1  0
  4  5  1  0
  5  6  2  0
  5  7  1  0
  7  8  2  0
  8  9  1  0
  9 10  2  0
 10 11  1  0
 11 12  1  0
 12 13  1  0
 13 14  2  0
 13 15  1  0
 15 16  2  0
 16 17  1  0
 17 18  2  0
 18 19  1  0
 19 20  1  0
 20 21  2  0
 21 22  1  0
 22 23  2  0
 23 24  1  0
 24 25  2  0
 25 26  1  0
 26 27  2  0
 27 28  1  0
 28 29  2  0
 23 30  1  0
 19 31  2  0
 10 32  1  0
 32 33  2  0
 33  7  1  0
 31 15  1  0
 30 20  1  0
 29 24  1  0
  1 34  1  0
  1 35  1  0
  1 36  1  0
  2 37  1  0
  3 38  1  0
  3 39  1  0
  3 40  1  0
  8 41  1  0
  9 42  1  0
 11 43  1  0
 11 44  1  0
 16 45  1  0
 17 46  1  0
 18 47  1  0
 25 48  1  0
 26 49  1  0
 27 50  1  0
 28 51  1  0
 29 52  1  0
 31 53  1  0
 32 54  1  0
 33 55  1  0
M  END
$$$$
