
     RDKit          3D

 35 37  0  0  0  0  0  0  0  0999 V2000
   -3.2042   -2.3862   -0.0721 C   0  0  0  0  0  0  0  0  0  0  0  0
   -3.8259   -1.0365    0.1622 C   0  0  0  0  0  0  0  0  0  0  0  0
   -5.1752   -0.9711    0.5487 C   0  0  0  0  0  0  0  0  0  0  0  0
   -5.7974    0.2559    0.7767 C   0  0  0  0  0  0  0  0  0  0  0  0
   -5.0811    1.4367    0.6191 C   0  0  0  0  0  0  0  0  0  0  0  0
   -3.7437    1.3906    0.2281 C   0  0  0  0  0  0  0  0  0  0  0  0
   -3.1001    0.1618   -0.0136 C   0  0  0  0  0  0  0  0  0  0  0  0
   -1.6437    0.1790   -0.4288 C   0  0  0  0  0  0  0  0  0  0  0  0
   -0.5450    0.1914    1.0195 S   0  0  0  0  0  0  0  0  0  0  0  0
    1.0163    0.2161    0.2358 C   0  0  0  0  0  0  0  0  0  0  0  0
    1.1130    0.2187   -1.0557 N   0  0  0  0  0  0  0  0  0  0  0  0
    2.3738    0.2408   -1.6298 C   0  0  0  0  0  0  0  0  0  0  0  0
    2.5593    0.2469   -2.8414 O   0  0  0  0  0  0  0  0  0  0  0  0
    3.5382    0.2600   -0.7187 C   0  0  0  0  0  0  0  0  0  0  0  0
    3.3341    0.2529    0.5970 C   0  0  0  0  0  0  0  0  0  0  0  0
    2.0754    0.2310    1.1002 N   0  0  0  0  0  0  0  0  0  0  0  0
    4.6060    0.2681    1.3627 C   0  0  0  0  0  0  0  0  0  0  0  0
    5.6291    0.6127    0.2672 C   0  0  0  0  0  0  0  0  0  0  0  0
    4.9713    0.2862   -1.0840 C   0  0  0  0  0  0  0  0  0  0  0  0
   -2.2880   -2.4981    0.5151 H   0  0  0  0  0  0  0  0  0  0  0  0
   -3.8778   -3.1958    0.2289 H   0  0  0  0  0  0  0  0  0  0  0  0
   -2.9785   -2.5191   -1.1345 H   0  0  0  0  0  0  0  0  0  0  0  0
   -5.7528   -1.8835    0.6809 H   0  0  0  0  0  0  0  0  0  0  0  0
   -6.8404    0.2883    1.0796 H   0  0  0  0  0  0  0  0  0  0  0  0
   -5.5618    2.3939    0.8019 H   0  0  0  0  0  0  0  0  0  0  0  0
   -3.1969    2.3248    0.1136 H   0  0  0  0  0  0  0  0  0  0  0  0
   -1.4194   -0.6837   -1.0641 H   0  0  0  0  0  0  0  0  0  0  0  0
   -1.4548    1.0725   -1.0360 H   0  0  0  0  0  0  0  0  0  0  0  0
    1.9139    0.2270    2.0986 H   0  0  0  0  0  0  0  0  0  0  0  0
    4.8081   -0.7161    1.7976 H   0  0  0  0  0  0  0  0  0  0  0  0
    4.6115    1.0202    2.1568 H   0  0  0  0  0  0  0  0  0  0  0  0
    6.5712    0.0713    0.4040 H   0  0  0  0  0  0  0  0  0  0  0  0
    5.8647    1.6844    0.3104 H   0  0  0  0  0  0  0  0  0  0  0  0
    5.2956   -0.6914   -1.4552 H   0  0  0  0  0  0  0  0  0  0  0  0
    5.2052    1.0505   -1.8306 H   0  0  0  0  0  0  0  0  0  0  0  0
  1  2  1  0
  2  3  2  0
  3  4  1  0
  4  5  2  0
  5  6  1  0
  6  7  2  0
  7  8  1  0
  8  9  1  0
  9 10  1  0
 10 11  2  0
 11 12  1  0
 12 13  2  0
 12 14  1  0
 14 15  2  0
 15 16  1  0
 15 17  1  0
 17 18  1  0
 18 19  1  0
  7  2  1  0
 16 10  1  0
 19 14  1  0
  1 20  1  0
  1 21  1  0
  1 22  1  0
  3 23  1  0
  4 24  1  0
  5 25  1  0
  6 26  1  0
  8 27  1  0
  8 28  1  0
 16 29  1  0
 17 30  1  0
 17 31  1  0
 18 32  1  0
 18 33  1  0
 19 34  1  0
 19 35  1  0
M  END
$$$$
