
     RDKit          3D

 33 36  0  0  0  0  0  0  0  0999 V2000
    5.2003   -0.0152   -0.2117 C   0  0  0  0  0  0  0  0  0  0  0  0
    4.7862   -1.1503    0.4724 C   0  0  0  0  0  0  0  0  0  0  0  0
    3.4250   -1.3569    0.7022 C   0  0  0  0  0  0  0  0  0  0  0  0
    2.4690   -0.4499    0.2613 C   0  0  0  0  0  0  0  0  0  0  0  0
    1.1666   -0.6932    0.5038 N   0  0  0  0  0  0  0  0  0  0  0  0
    0.2632    0.2123    0.0631 C   0  0  0  0  0  0  0  0  0  0  0  0
    0.7107    1.3678   -0.6185 C   0  0  0  0  0  0  0  0  0  0  0  0
    2.0127    1.6167   -0.8825 N   0  0  0  0  0  0  0  0  0  0  0  0
    2.8921    0.7076   -0.4347 C   0  0  0  0  0  0  0  0  0  0  0  0
    4.2495    0.9032   -0.6590 C   0  0  0  0  0  0  0  0  0  0  0  0
   -0.1381    2.3197   -1.1337 O   0  0  0  0  0  0  0  0  0  0  0  0
   -1.4649    2.2188   -0.6091 C   0  0  0  0  0  0  0  0  0  0  0  0
   -1.9575    0.7658   -0.5970 C   0  0  0  0  0  0  0  0  0  0  0  0
   -3.4145    0.6920   -0.1289 C   0  0  0  0  0  0  0  0  0  0  0  0
   -3.8639   -0.7588    0.0304 C   0  0  0  0  0  0  0  0  0  0  0  0
   -2.9308   -1.5063    0.9791 C   0  0  0  0  0  0  0  0  0  0  0  0
   -1.4714   -1.4102    0.5309 C   0  0  0  0  0  0  0  0  0  0  0  0
   -1.1086   -0.0079    0.3190 N   0  0  0  0  0  0  0  0  0  0  0  0
    6.2567    0.1602   -0.3983 H   0  0  0  0  0  0  0  0  0  0  0  0
    5.5149   -1.8743    0.8281 H   0  0  0  0  0  0  0  0  0  0  0  0
    3.0990   -2.2449    1.2385 H   0  0  0  0  0  0  0  0  0  0  0  0
    4.5705    1.7937   -1.1944 H   0  0  0  0  0  0  0  0  0  0  0  0
   -2.1110    2.8296   -1.2493 H   0  0  0  0  0  0  0  0  0  0  0  0
   -1.4807    2.6646    0.3942 H   0  0  0  0  0  0  0  0  0  0  0  0
   -1.8764    0.3418   -1.6083 H   0  0  0  0  0  0  0  0  0  0  0  0
   -4.0666    1.2024   -0.8472 H   0  0  0  0  0  0  0  0  0  0  0  0
   -3.5292    1.2087    0.8329 H   0  0  0  0  0  0  0  0  0  0  0  0
   -3.8710   -1.2539   -0.9481 H   0  0  0  0  0  0  0  0  0  0  0  0
   -4.8888   -0.7898    0.4165 H   0  0  0  0  0  0  0  0  0  0  0  0
   -3.2296   -2.5585    1.0432 H   0  0  0  0  0  0  0  0  0  0  0  0
   -3.0295   -1.0821    1.9865 H   0  0  0  0  0  0  0  0  0  0  0  0
   -1.3291   -1.9829   -0.3947 H   0  0  0  0  0  0  0  0  0  0  0  0
   -0.8549   -1.8698    1.3130 H   0  0  0  0  0  0  0  0  0  0  0  0
  1  2  2  0
  2  3  1  0
  3  4  2  0
  4  5  1  0
  5  6  2  0
  6  7  1  0
  7  8  2  0
  8  9  1  0
  9 10  2  0
  7 11  1  0
 11 12  1  0
 12 13  1  0
 13 14  1  0
 14 15  1  0
 15 16  1  0
 16 17  1  0
 17 18  1  0
 10  1  1  0
 18 13  1  0
  9  4  1  0
 18  6  1  0
  1 19  1  0
  2 20  1  0
  3 21  1  0
 10 22  1  0
 12 23  1  0
 12 24  1  0
 13 25  1  0
 14 26  1  0
 14 27  1  0
 15 28  1  0
 15 29  1  0
 16 30  1  0
 16 31  1  0
 17 32  1  0
 17 33  1  0
M  END
$$$$
