
     RDKit          3D

 45 46  0  0  0  0  0  0  0  0999 V2000
   -7.5626   -0.2933   -1.2969 C   0  0  0  0  0  0  0  0  0  0  0  0
   -7.2135   -1.1939   -0.1248 C   0  0  0  0  0  0  0  0  0  0  0  0
   -5.9217   -1.7726   -0.2989 O   0  0  0  0  0  0  0  0  0  0  0  0
   -4.8301   -1.1145    0.1924 C   0  0  0  0  0  0  0  0  0  0  0  0
   -3.6354   -1.8330    0.1086 C   0  0  0  0  0  0  0  0  0  0  0  0
   -2.4362   -1.2847    0.5691 C   0  0  0  0  0  0  0  0  0  0  0  0
   -2.4132    0.0006    1.1235 C   0  0  0  0  0  0  0  0  0  0  0  0
   -1.1156    0.6018    1.5962 C   0  0  0  0  0  0  0  0  0  0  0  0
   -0.3414    1.0858    0.4766 N   0  0  0  0  0  0  0  0  0  0  0  0
    0.7188    0.3850   -0.0138 C   0  0  0  0  0  0  0  0  0  0  0  0
    1.1824   -0.6133    0.5110 O   0  0  0  0  0  0  0  0  0  0  0  0
    1.2233    0.9465   -1.1724 N   0  0  0  0  0  0  0  0  0  0  0  0
    2.4857    0.3320   -2.0594 S   0  0  0  0  0  6  0  0  0  0  0  0
    2.2311   -1.0559   -2.3725 O   0  0  0  0  0  0  0  0  0  0  0  0
    2.7097    1.2979   -3.1171 O   0  0  0  0  0  0  0  0  0  0  0  0
    3.8649    0.4388   -0.9480 C   0  0  0  0  0  0  0  0  0  0  0  0
    4.5974    1.6248   -0.8679 C   0  0  0  0  0  0  0  0  0  0  0  0
    5.6991    1.6918   -0.0125 C   0  0  0  0  0  0  0  0  0  0  0  0
    6.0798    0.5837    0.7524 C   0  0  0  0  0  0  0  0  0  0  0  0
    7.1733    0.7902    1.5476 O   0  0  0  0  0  0  0  0  0  0  0  0
    7.6134   -0.3109    2.3330 C   0  0  0  0  0  0  0  0  0  0  0  0
    5.3500   -0.6029    0.6523 C   0  0  0  0  0  0  0  0  0  0  0  0
    4.2461   -0.6796   -0.2033 C   0  0  0  0  0  0  0  0  0  0  0  0
   -3.6102    0.7248    1.1943 C   0  0  0  0  0  0  0  0  0  0  0  0
   -4.8107    0.1700    0.7333 C   0  0  0  0  0  0  0  0  0  0  0  0
   -6.8739    0.5535   -1.3706 H   0  0  0  0  0  0  0  0  0  0  0  0
   -8.5807    0.0936   -1.1970 H   0  0  0  0  0  0  0  0  0  0  0  0
   -7.4872   -0.8455   -2.2395 H   0  0  0  0  0  0  0  0  0  0  0  0
   -7.3218   -0.6863    0.8400 H   0  0  0  0  0  0  0  0  0  0  0  0
   -7.9255   -2.0270   -0.1061 H   0  0  0  0  0  0  0  0  0  0  0  0
   -3.6373   -2.8326   -0.3205 H   0  0  0  0  0  0  0  0  0  0  0  0
   -1.5196   -1.8675    0.4885 H   0  0  0  0  0  0  0  0  0  0  0  0
   -1.3078    1.4605    2.2489 H   0  0  0  0  0  0  0  0  0  0  0  0
   -0.5506   -0.1311    2.1831 H   0  0  0  0  0  0  0  0  0  0  0  0
   -0.7648    1.7855   -0.1099 H   0  0  0  0  0  0  0  0  0  0  0  0
    0.8676    1.8160   -1.5432 H   0  0  0  0  0  0  0  0  0  0  0  0
    4.3275    2.4921   -1.4650 H   0  0  0  0  0  0  0  0  0  0  0  0
    6.2732    2.6132    0.0563 H   0  0  0  0  0  0  0  0  0  0  0  0
    7.9175   -1.1511    1.7001 H   0  0  0  0  0  0  0  0  0  0  0  0
    6.8456   -0.6141    3.0525 H   0  0  0  0  0  0  0  0  0  0  0  0
    8.4913    0.0131    2.9003 H   0  0  0  0  0  0  0  0  0  0  0  0
    5.6107   -1.4873    1.2245 H   0  0  0  0  0  0  0  0  0  0  0  0
    3.6819   -1.6084   -0.2727 H   0  0  0  0  0  0  0  0  0  0  0  0
   -3.6221    1.7300    1.6103 H   0  0  0  0  0  0  0  0  0  0  0  0
   -5.7082    0.7745    0.8042 H   0  0  0  0  0  0  0  0  0  0  0  0
  1  2  1  0
  2  3  1  0
  3  4  1  0
  4  5  2  0
  5  6  1  0
  6  7  2  0
  7  8  1  0
  8  9  1  0
  9 10  1  0
 10 11  2  0
 10 12  1  0
 12 13  1  0
 13 14  2  0
 13 15  2  0
 13 16  1  0
 16 17  2  0
 17 18  1  0
 18 19  2  0
 19 20  1  0
 20 21  1  0
 19 22  1  0
 22 23  2  0
  7 24  1  0
 24 25  2  0
 25  4  1  0
 23 16  1  0
  1 26  1  0
  1 27  1  0
  1 28  1  0
  2 29  1  0
  2 30  1  0
  5 31  1  0
  6 32  1  0
  8 33  1  0
  8 34  1  0
  9 35  1  0
 12 36  1  0
 17 37  1  0
 18 38  1  0
 21 39  1  0
 21 40  1  0
 21 41  1  0
 22 42  1  0
 23 43  1  0
 24 44  1  0
 25 45  1  0
M  END
$$$$
