
     RDKit          3D

 58 61  0  0  0  0  0  0  0  0999 V2000
   -2.9225    5.3734    0.3316 C   0  0  0  0  0  0  0  0  0  0  0  0
   -3.6111    4.0748    0.0322 C   0  0  0  0  0  0  0  0  0  0  0  0
   -5.0029    4.0238   -0.0950 C   0  0  0  0  0  0  0  0  0  0  0  0
   -5.6385    2.8223   -0.4027 C   0  0  0  0  0  0  0  0  0  0  0  0
   -4.8855    1.6630   -0.5971 C   0  0  0  0  0  0  0  0  0  0  0  0
   -3.4876    1.6887   -0.4908 C   0  0  0  0  0  0  0  0  0  0  0  0
   -2.7254    0.4611   -0.7062 C   0  0  0  0  0  0  0  0  0  0  0  0
   -3.1630   -0.7465   -1.0075 N   0  0  0  0  0  0  0  0  0  0  0  0
   -2.0008   -1.4991   -1.0943 C   0  0  0  0  0  0  0  0  0  0  0  0
   -1.9847   -3.1779   -1.4776 S   0  0  0  0  0  6  0  0  0  0  0  0
   -0.5951   -3.5939   -1.3969 O   0  0  0  0  0  0  0  0  0  0  0  0
   -2.7463   -3.3062   -2.7048 O   0  0  0  0  0  0  0  0  0  0  0  0
   -2.8908   -3.9543   -0.1666 C   0  0  0  0  0  0  0  0  0  0  0  0
   -4.2908   -3.9100   -0.1834 C   0  0  0  0  0  0  0  0  0  0  0  0
   -5.0088   -4.5378    0.8347 C   0  0  0  0  0  0  0  0  0  0  0  0
   -4.3251   -5.2065    1.8461 C   0  0  0  0  0  0  0  0  0  0  0  0
   -5.0175   -5.8087    2.8216 F   0  0  0  0  0  0  0  0  0  0  0  0
   -2.9340   -5.2635    1.8597 C   0  0  0  0  0  0  0  0  0  0  0  0
   -2.2069   -4.6379    0.8458 C   0  0  0  0  0  0  0  0  0  0  0  0
   -0.9031   -0.7136   -0.8156 C   0  0  0  0  0  0  0  0  0  0  0  0
    0.4274   -0.9352   -0.7194 N   0  0  0  0  0  0  0  0  0  0  0  0
    1.3658    0.1699   -0.8498 C   0  0  0  0  0  0  0  0  0  0  0  0
    2.7828   -0.3170   -0.5456 C   0  0  0  0  0  0  0  0  0  0  0  0
    3.7870    0.8374   -0.6452 C   0  0  0  0  0  0  0  0  0  0  0  0
    5.1784    0.3984   -0.4631 N   0  0  0  0  0  0  0  0  0  0  0  0
    6.1414    1.4825   -0.7592 C   0  0  0  0  0  0  0  0  0  0  0  0
    6.6718    2.1923    0.4963 C   0  0  0  0  0  0  0  0  0  0  0  0
    7.3460    1.3099    1.4035 O   0  0  0  0  0  0  0  0  0  0  0  0
    6.8964   -0.0486    1.3046 C   0  0  0  0  0  0  0  0  0  0  0  0
    5.4202   -0.1522    0.8908 C   0  0  0  0  0  0  0  0  0  0  0  0
   -1.3647    0.5492   -0.5735 O   0  0  0  0  0  0  0  0  0  0  0  0
   -2.8619    2.9071   -0.1796 C   0  0  0  0  0  0  0  0  0  0  0  0
   -2.6718    5.8878   -0.6013 H   0  0  0  0  0  0  0  0  0  0  0  0
   -2.0026    5.2047    0.9018 H   0  0  0  0  0  0  0  0  0  0  0  0
   -3.5625    6.0260    0.9344 H   0  0  0  0  0  0  0  0  0  0  0  0
   -5.6015    4.9211    0.0467 H   0  0  0  0  0  0  0  0  0  0  0  0
   -6.7210    2.7877   -0.4949 H   0  0  0  0  0  0  0  0  0  0  0  0
   -5.3977    0.7333   -0.8384 H   0  0  0  0  0  0  0  0  0  0  0  0
   -4.8220   -3.3904   -0.9792 H   0  0  0  0  0  0  0  0  0  0  0  0
   -6.0943   -4.5134    0.8449 H   0  0  0  0  0  0  0  0  0  0  0  0
   -2.4278   -5.7983    2.6579 H   0  0  0  0  0  0  0  0  0  0  0  0
   -1.1201   -4.6909    0.8536 H   0  0  0  0  0  0  0  0  0  0  0  0
    0.7715   -1.8333   -1.0730 H   0  0  0  0  0  0  0  0  0  0  0  0
    1.1056    0.9763   -0.1528 H   0  0  0  0  0  0  0  0  0  0  0  0
    1.3198    0.5730   -1.8690 H   0  0  0  0  0  0  0  0  0  0  0  0
    2.8005   -0.7604    0.4569 H   0  0  0  0  0  0  0  0  0  0  0  0
    3.0580   -1.1116   -1.2504 H   0  0  0  0  0  0  0  0  0  0  0  0
    3.6844    1.2776   -1.6452 H   0  0  0  0  0  0  0  0  0  0  0  0
    3.5304    1.6227    0.0771 H   0  0  0  0  0  0  0  0  0  0  0  0
    5.7234    2.2167   -1.4582 H   0  0  0  0  0  0  0  0  0  0  0  0
    6.9909    1.0194   -1.2769 H   0  0  0  0  0  0  0  0  0  0  0  0
    7.3839    2.9739    0.2124 H   0  0  0  0  0  0  0  0  0  0  0  0
    5.8540    2.6799    1.0401 H   0  0  0  0  0  0  0  0  0  0  0  0
    7.5428   -0.5772    0.5939 H   0  0  0  0  0  0  0  0  0  0  0  0
    7.0454   -0.5123    2.2850 H   0  0  0  0  0  0  0  0  0  0  0  0
    5.1141   -1.2035    0.9119 H   0  0  0  0  0  0  0  0  0  0  0  0
    4.8238    0.3926    1.6343 H   0  0  0  0  0  0  0  0  0  0  0  0
   -1.7771    2.9535   -0.0979 H   0  0  0  0  0  0  0  0  0  0  0  0
  1  2  1  0
  2  3  2  0
  3  4  1  0
  4  5  2  0
  5  6  1  0
  6  7  1  0
  7  8  2  0
  8  9  1  0
  9 10  1  0
 10 11  2  0
 10 12  2  0
 10 13  1  0
 13 14  2  0
 14 15  1  0
 15 16  2  0
 16 17  1  0
 16 18  1  0
 18 19  2  0
  9 20  2  0
 20 21  1  0
 21 22  1  0
 22 23  1  0
 23 24  1  0
 24 25  1  0
 25 26  1  0
 26 27  1  0
 27 28  1  0
 28 29  1  0
 29 30  1  0
 20 31  1  0
  6 32  2  0
 32  2  1  0
 31  7  1  0
 19 13  1  0
 30 25  1  0
  1 33  1  0
  1 34  1  0
  1 35  1  0
  3 36  1  0
  4 37  1  0
  5 38  1  0
 14 39  1  0
 15 40  1  0
 18 41  1  0
 19 42  1  0
 21 43  1  0
 22 44  1  0
 22 45  1  0
 23 46  1  0
 23 47  1  0
 24 48  1  0
 24 49  1  0
 26 50  1  0
 26 51  1  0
 27 52  1  0
 27 53  1  0
 29 54  1  0
 29 55  1  0
 30 56  1  0
 30 57  1  0
 32 58  1  0
M  END
$$$$
