
     RDKit          3D

 55 57  0  0  0  0  0  0  0  0999 V2000
   -0.8860   -2.7479    3.3247 C   0  0  0  0  0  0  0  0  0  0  0  0
   -0.3428   -1.5468    2.5764 C   0  0  0  0  0  0  0  0  0  0  0  0
   -1.0569   -1.4259    1.3489 O   0  0  0  0  0  0  0  0  0  0  0  0
   -0.6156   -0.3126    0.5661 C   0  0  0  0  0  0  0  0  0  0  0  0
    0.6873   -0.6259    0.0499 O   0  0  0  0  0  0  0  0  0  0  0  0
    1.1370    0.1405   -1.0055 C   0  0  0  0  0  0  0  0  0  0  0  0
    2.5925    0.0092   -1.3902 C   0  0  0  0  0  0  0  0  0  0  0  0
    3.0910    0.7112   -2.2607 O   0  0  0  0  0  0  0  0  0  0  0  0
    3.2156   -0.9696   -0.6424 N   0  0  0  0  0  0  0  0  0  0  0  0
    4.5591   -1.3828   -0.6991 C   0  0  0  0  0  0  0  0  0  0  0  0
    4.9461   -2.4196    0.1601 C   0  0  0  0  0  0  0  0  0  0  0  0
    6.2629   -2.8874    0.1656 C   0  0  0  0  0  0  0  0  0  0  0  0
    7.2055   -2.3214   -0.6883 C   0  0  0  0  0  0  0  0  0  0  0  0
    6.8298   -1.2894   -1.5451 C   0  0  0  0  0  0  0  0  0  0  0  0
    5.5116   -0.8215   -1.5508 C   0  0  0  0  0  0  0  0  0  0  0  0
    0.3555    0.9770   -1.7048 C   0  0  0  0  0  0  0  0  0  0  0  0
   -1.1143    1.1339   -1.4354 C   0  0  0  0  0  0  0  0  0  0  0  0
   -1.4429    2.5297   -0.9097 C   0  0  0  0  0  0  0  0  0  0  0  0
   -2.5587    3.2137   -1.4236 C   0  0  0  0  0  0  0  0  0  0  0  0
   -2.9015    4.4843   -0.9569 C   0  0  0  0  0  0  0  0  0  0  0  0
   -2.1321    5.0962    0.0281 C   0  0  0  0  0  0  0  0  0  0  0  0
   -1.0188    4.4389    0.5446 C   0  0  0  0  0  0  0  0  0  0  0  0
   -0.6760    3.1665    0.0802 C   0  0  0  0  0  0  0  0  0  0  0  0
   -1.6294   -0.0483   -0.5637 C   0  0  0  0  0  0  0  0  0  0  0  0
   -3.0948    0.1534   -0.1090 C   0  0  0  0  0  0  0  0  0  0  0  0
   -3.8100   -1.1195    0.3666 C   0  0  0  0  0  0  0  0  0  0  0  0
   -5.3134   -0.9040    0.5213 C   0  0  0  0  0  0  0  0  0  0  0  0
   -5.9183   -0.6499   -0.7396 O   0  0  0  0  0  0  0  0  0  0  0  0
   -0.7683   -3.6586    2.7284 H   0  0  0  0  0  0  0  0  0  0  0  0
   -1.9574   -2.6299    3.5176 H   0  0  0  0  0  0  0  0  0  0  0  0
   -0.3677   -2.8806    4.2785 H   0  0  0  0  0  0  0  0  0  0  0  0
   -0.4834   -0.6423    3.1779 H   0  0  0  0  0  0  0  0  0  0  0  0
    0.7256   -1.6866    2.3806 H   0  0  0  0  0  0  0  0  0  0  0  0
   -0.5387    0.5631    1.2212 H   0  0  0  0  0  0  0  0  0  0  0  0
    2.6140   -1.4515    0.0168 H   0  0  0  0  0  0  0  0  0  0  0  0
    4.2289   -2.8785    0.8351 H   0  0  0  0  0  0  0  0  0  0  0  0
    6.5510   -3.6929    0.8358 H   0  0  0  0  0  0  0  0  0  0  0  0
    8.2305   -2.6826   -0.6877 H   0  0  0  0  0  0  0  0  0  0  0  0
    7.5609   -0.8440   -2.2150 H   0  0  0  0  0  0  0  0  0  0  0  0
    5.2614   -0.0158   -2.2338 H   0  0  0  0  0  0  0  0  0  0  0  0
    0.7720    1.5626   -2.5230 H   0  0  0  0  0  0  0  0  0  0  0  0
   -1.6063    1.0345   -2.4145 H   0  0  0  0  0  0  0  0  0  0  0  0
   -3.1785    2.7573   -2.1934 H   0  0  0  0  0  0  0  0  0  0  0  0
   -3.7700    4.9953   -1.3644 H   0  0  0  0  0  0  0  0  0  0  0  0
   -2.3967    6.0865    0.3890 H   0  0  0  0  0  0  0  0  0  0  0  0
   -0.4109    4.9200    1.3066 H   0  0  0  0  0  0  0  0  0  0  0  0
    0.2093    2.6918    0.4955 H   0  0  0  0  0  0  0  0  0  0  0  0
   -1.6203   -0.9396   -1.2107 H   0  0  0  0  0  0  0  0  0  0  0  0
   -3.6594    0.5533   -0.9599 H   0  0  0  0  0  0  0  0  0  0  0  0
   -3.1417    0.9045    0.6889 H   0  0  0  0  0  0  0  0  0  0  0  0
   -3.6326   -1.9253   -0.3550 H   0  0  0  0  0  0  0  0  0  0  0  0
   -3.4194   -1.4372    1.3366 H   0  0  0  0  0  0  0  0  0  0  0  0
   -5.7852   -1.7922    0.9533 H   0  0  0  0  0  0  0  0  0  0  0  0
   -5.5215   -0.0549    1.1797 H   0  0  0  0  0  0  0  0  0  0  0  0
   -5.7781   -1.4381   -1.2918 H   0  0  0  0  0  0  0  0  0  0  0  0
  1  2  1  0
  2  3  1  0
  3  4  1  0
  4  5  1  0
  5  6  1  0
  6  7  1  0
  7  8  2  0
  7  9  1  0
  9 10  1  0
 10 11  2  0
 11 12  1  0
 12 13  2  0
 13 14  1  0
 14 15  2  0
  6 16  2  0
 16 17  1  0
 17 18  1  0
 18 19  2  0
 19 20  1  0
 20 21  2  0
 21 22  1  0
 22 23  2  0
 17 24  1  0
 24 25  1  0
 25 26  1  0
 26 27  1  0
 27 28  1  0
 24  4  1  0
 15 10  1  0
 23 18  1  0
  1 29  1  0
  1 30  1  0
  1 31  1  0
  2 32  1  0
  2 33  1  0
  4 34  1  0
  9 35  1  0
 11 36  1  0
 12 37  1  0
 13 38  1  0
 14 39  1  0
 15 40  1  0
 16 41  1  0
 17 42  1  0
 19 43  1  0
 20 44  1  0
 21 45  1  0
 22 46  1  0
 23 47  1  0
 24 48  1  0
 25 49  1  0
 25 50  1  0
 26 51  1  0
 26 52  1  0
 27 53  1  0
 27 54  1  0
 28 55  1  0
M  END
$$$$
