
     RDKit          3D

 56 60  0  0  0  0  0  0  0  0999 V2000
    6.3508   -0.3565    1.6928 C   0  0  0  0  0  0  0  0  0  0  0  0
    5.5195    0.2778    0.5890 C   0  0  0  0  0  0  0  0  0  0  0  0
    4.3947   -0.5435    0.2050 N   0  0  0  0  0  0  0  0  0  0  0  0
    4.4090   -1.4930   -0.8281 C   0  0  0  0  0  0  0  0  0  0  0  0
    5.3179   -1.8228   -1.5628 O   0  0  0  0  0  0  0  0  0  0  0  0
    3.0439   -2.0627   -0.8479 C   0  0  0  0  0  0  0  0  0  0  0  0
    2.4756   -3.0066   -1.6681 C   0  0  0  0  0  0  0  0  0  0  0  0
    1.1327   -3.3251   -1.4420 C   0  0  0  0  0  0  0  0  0  0  0  0
    0.3978   -2.7037   -0.4069 C   0  0  0  0  0  0  0  0  0  0  0  0
    0.9909   -1.7393    0.4730 C   0  0  0  0  0  0  0  0  0  0  0  0
    0.4873   -0.9962    1.5857 C   0  0  0  0  0  0  0  0  0  0  0  0
   -1.1890   -1.2071    2.1865 S   0  0  0  0  0  6  0  0  0  0  0  0
   -1.6969   -2.4785    1.6994 O   0  0  0  0  0  0  0  0  0  0  0  0
   -1.1728   -0.9703    3.6230 O   0  0  0  0  0  0  0  0  0  0  0  0
   -2.0919    0.0447    1.4380 N   0  0  0  0  0  0  0  0  0  0  0  0
   -2.0013    1.3738    1.9526 C   0  0  0  0  0  0  0  0  0  0  0  0
   -1.0094    1.8195    2.5129 O   0  0  0  0  0  0  0  0  0  0  0  0
   -3.1852    2.2498    1.7523 C   0  0  0  0  0  0  0  0  0  0  0  0
   -4.4681    1.7817    1.4309 C   0  0  0  0  0  0  0  0  0  0  0  0
   -5.5091    2.7006    1.2681 C   0  0  0  0  0  0  0  0  0  0  0  0
   -5.2329    4.0556    1.4324 C   0  0  0  0  0  0  0  0  0  0  0  0
   -4.0085    4.5404    1.7479 N   0  0  0  0  0  0  0  0  0  0  0  0
   -3.0152    3.6282    1.9089 C   0  0  0  0  0  0  0  0  0  0  0  0
   -2.1276   -0.0260   -0.0091 C   0  0  0  0  0  0  0  0  0  0  0  0
   -2.9926   -0.9348   -0.6300 C   0  0  0  0  0  0  0  0  0  0  0  0
   -2.9798   -1.0810   -2.0244 C   0  0  0  0  0  0  0  0  0  0  0  0
   -2.1052   -0.3257   -2.8116 C   0  0  0  0  0  0  0  0  0  0  0  0
   -2.1908   -0.5641   -4.1601 O   0  0  0  0  0  0  0  0  0  0  0  0
   -1.4408    0.2968   -5.0146 C   0  0  0  0  0  0  0  0  0  0  0  0
   -1.2210    0.5634   -2.1887 C   0  0  0  0  0  0  0  0  0  0  0  0
   -1.2325    0.7125   -0.7954 C   0  0  0  0  0  0  0  0  0  0  0  0
    1.3279   -0.0928    2.2925 C   0  0  0  0  0  0  0  0  0  0  0  0
    2.6537    0.1519    1.9002 C   0  0  0  0  0  0  0  0  0  0  0  0
    3.1345   -0.5562    0.8270 C   0  0  0  0  0  0  0  0  0  0  0  0
    2.3284   -1.4638    0.1721 C   0  0  0  0  0  0  0  0  0  0  0  0
    5.7670   -0.5099    2.6207 H   0  0  0  0  0  0  0  0  0  0  0  0
    6.7299   -1.3446    1.3706 H   0  0  0  0  0  0  0  0  0  0  0  0
    7.2055    0.2838    1.9200 H   0  0  0  0  0  0  0  0  0  0  0  0
    5.1686    1.2682    0.8749 H   0  0  0  0  0  0  0  0  0  0  0  0
    6.1601    0.4101   -0.2879 H   0  0  0  0  0  0  0  0  0  0  0  0
    3.0458   -3.4707   -2.4675 H   0  0  0  0  0  0  0  0  0  0  0  0
    0.6347   -4.0606   -2.0857 H   0  0  0  0  0  0  0  0  0  0  0  0
   -0.6473   -2.9955   -0.3031 H   0  0  0  0  0  0  0  0  0  0  0  0
   -4.6804    0.7190    1.3217 H   0  0  0  0  0  0  0  0  0  0  0  0
   -6.5223    2.3697    1.0338 H   0  0  0  0  0  0  0  0  0  0  0  0
   -6.0132    4.8063    1.3223 H   0  0  0  0  0  0  0  0  0  0  0  0
   -2.0542    4.0615    2.1884 H   0  0  0  0  0  0  0  0  0  0  0  0
   -3.6685   -1.5529   -0.0391 H   0  0  0  0  0  0  0  0  0  0  0  0
   -3.6580   -1.7924   -2.4983 H   0  0  0  0  0  0  0  0  0  0  0  0
   -1.6766    0.0343   -6.0531 H   0  0  0  0  0  0  0  0  0  0  0  0
   -0.3622    0.1562   -4.8671 H   0  0  0  0  0  0  0  0  0  0  0  0
   -1.7310    1.3428   -4.8670 H   0  0  0  0  0  0  0  0  0  0  0  0
   -0.5024    1.1486   -2.7575 H   0  0  0  0  0  0  0  0  0  0  0  0
   -0.5109    1.3951   -0.3410 H   0  0  0  0  0  0  0  0  0  0  0  0
    0.9521    0.4262    3.1774 H   0  0  0  0  0  0  0  0  0  0  0  0
    3.2690    0.8576    2.4371 H   0  0  0  0  0  0  0  0  0  0  0  0
  1  2  1  0
  2  3  1  0
  3  4  1  0
  4  5  2  0
  4  6  1  0
  6  7  2  0
  7  8  1  0
  8  9  2  0
  9 10  1  0
 10 11  2  0
 11 12  1  0
 12 13  2  0
 12 14  2  0
 12 15  1  0
 15 16  1  0
 16 17  2  0
 16 18  1  0
 18 19  2  0
 19 20  1  0
 20 21  2  0
 21 22  1  0
 22 23  2  0
 15 24  1  0
 24 25  2  0
 25 26  1  0
 26 27  2  0
 27 28  1  0
 28 29  1  0
 27 30  1  0
 30 31  2  0
 11 32  1  0
 32 33  2  0
 33 34  1  0
 34 35  2  0
 34  3  1  0
 35  6  1  0
 35 10  1  0
 23 18  1  0
 31 24  1  0
  1 36  1  0
  1 37  1  0
  1 38  1  0
  2 39  1  0
  2 40  1  0
  7 41  1  0
  8 42  1  0
  9 43  1  0
 19 44  1  0
 20 45  1  0
 21 46  1  0
 23 47  1  0
 25 48  1  0
 26 49  1  0
 29 50  1  0
 29 51  1  0
 29 52  1  0
 30 53  1  0
 31 54  1  0
 32 55  1  0
 33 56  1  0
M  END
$$$$
