
     RDKit          3D

 21 21  0  0  0  0  0  0  0  0999 V2000
   -1.5349   -2.2717   -0.4049 C   0  0  0  0  0  0  0  0  0  0  0  0
   -0.3774   -1.9514    0.3691 O   0  0  0  0  0  0  0  0  0  0  0  0
   -0.0736   -0.6183    0.2754 C   0  0  0  0  0  0  0  0  0  0  0  0
   -0.8979    0.3146    0.9191 C   0  0  0  0  0  0  0  0  0  0  0  0
   -0.5647    1.6743    0.9447 C   0  0  0  0  0  0  0  0  0  0  0  0
   -1.4858    2.5899    1.4811 N   0  0  0  0  0  0  0  0  0  0  0  0
    0.5845    2.0912    0.2512 C   0  0  0  0  0  0  0  0  0  0  0  0
    1.0628    3.9292    0.1716 Br  0  0  0  0  0  0  0  0  0  0  0  0
    1.4262    1.1662   -0.3714 C   0  0  0  0  0  0  0  0  0  0  0  0
    1.0979   -0.1947   -0.3604 C   0  0  0  0  0  0  0  0  0  0  0  0
    2.0352   -1.1146   -1.0346 C   0  0  0  0  0  0  0  0  0  0  0  0
    3.2458   -0.9854   -1.0623 O   0  0  0  0  0  0  0  0  0  0  0  0
    1.4167   -2.0841   -1.7291 O   0  0  0  0  0  0  0  0  0  0  0  0
   -2.4462   -1.9533    0.1113 H   0  0  0  0  0  0  0  0  0  0  0  0
   -1.4900   -1.8306   -1.4073 H   0  0  0  0  0  0  0  0  0  0  0  0
   -1.5723   -3.3596   -0.5150 H   0  0  0  0  0  0  0  0  0  0  0  0
   -1.7988   -0.0273    1.4216 H   0  0  0  0  0  0  0  0  0  0  0  0
   -2.0414    2.2274    2.2494 H   0  0  0  0  0  0  0  0  0  0  0  0
   -1.0693    3.4946    1.6924 H   0  0  0  0  0  0  0  0  0  0  0  0
    2.3321    1.4988   -0.8742 H   0  0  0  0  0  0  0  0  0  0  0  0
    2.1510   -2.5952   -2.1277 H   0  0  0  0  0  0  0  0  0  0  0  0
  1  2  1  0
  2  3  1  0
  3  4  2  0
  4  5  1  0
  5  6  1  0
  5  7  2  0
  7  8  1  0
  7  9  1  0
  9 10  2  0
 10 11  1  0
 11 12  2  0
 11 13  1  0
 10  3  1  0
  1 14  1  0
  1 15  1  0
  1 16  1  0
  4 17  1  0
  6 18  1  0
  6 19  1  0
  9 20  1  0
 13 21  1  0
M  END
$$$$
