
     RDKit          3D

 50 53  0  0  0  0  0  0  0  0999 V2000
   -6.4020    4.6790   -2.3185 C   0  0  0  0  0  0  0  0  0  0  0  0
   -6.3020    3.3556   -1.6797 C   0  0  0  0  0  0  0  0  0  0  0  0
   -6.7543    2.8189   -0.4994 C   0  0  0  0  0  0  0  0  0  0  0  0
   -6.2955    1.4838   -0.5202 C   0  0  0  0  0  0  0  0  0  0  0  0
   -6.5182    0.5759    0.4989 N   0  0  0  0  0  0  0  0  0  0  0  0
   -6.0636   -1.0268    0.4688 S   0  0  0  0  0  6  0  0  0  0  0  0
   -6.5141   -1.6497   -0.7556 O   0  0  0  0  0  0  0  0  0  0  0  0
   -6.4704   -1.5628    1.7546 O   0  0  0  0  0  0  0  0  0  0  0  0
   -4.2886   -0.9628    0.4809 C   0  0  0  0  0  0  0  0  0  0  0  0
   -3.6143   -0.7675    1.6876 C   0  0  0  0  0  0  0  0  0  0  0  0
   -2.2161   -0.7512    1.7014 C   0  0  0  0  0  0  0  0  0  0  0  0
   -1.4839   -0.9391    0.5197 C   0  0  0  0  0  0  0  0  0  0  0  0
   -0.0774   -0.9049    0.6248 N   0  0  0  0  0  0  0  0  0  0  0  0
    0.8492   -1.0624   -0.3941 C   0  0  0  0  0  0  0  0  0  0  0  0
    0.6066   -1.2648   -1.5775 O   0  0  0  0  0  0  0  0  0  0  0  0
    2.2699   -0.9499    0.1237 C   0  0  0  0  0  0  0  0  0  0  0  0
    3.2809   -1.1431   -1.0004 C   0  0  0  0  0  0  0  0  0  0  0  0
    4.6454   -1.0205   -0.5178 N   0  0  0  0  0  0  0  0  0  0  0  0
    5.3442   -2.0415    0.0663 C   0  0  0  0  0  0  0  0  0  0  0  0
    4.9901   -3.1823    0.2935 O   0  0  0  0  0  0  0  0  0  0  0  0
    6.6495   -1.4948    0.4325 C   0  0  0  0  0  0  0  0  0  0  0  0
    7.7436   -2.1023    1.0159 C   0  0  0  0  0  0  0  0  0  0  0  0
    8.8671   -1.3031    1.2512 C   0  0  0  0  0  0  0  0  0  0  0  0
    8.8678    0.0655    0.9060 C   0  0  0  0  0  0  0  0  0  0  0  0
    7.7458    0.6575    0.3180 C   0  0  0  0  0  0  0  0  0  0  0  0
    6.6505   -0.1539    0.0934 C   0  0  0  0  0  0  0  0  0  0  0  0
    5.3455    0.1547   -0.4888 C   0  0  0  0  0  0  0  0  0  0  0  0
    4.9945    1.2672   -0.8318 O   0  0  0  0  0  0  0  0  0  0  0  0
   -2.1742   -1.1488   -0.6771 C   0  0  0  0  0  0  0  0  0  0  0  0
   -3.5735   -1.1686   -0.6991 C   0  0  0  0  0  0  0  0  0  0  0  0
   -5.6061    1.2316   -1.6335 N   0  0  0  0  0  0  0  0  0  0  0  0
   -5.6118    2.4051   -2.3632 O   0  0  0  0  0  0  0  0  0  0  0  0
   -6.8387    4.5938   -3.3191 H   0  0  0  0  0  0  0  0  0  0  0  0
   -5.4117    5.1339   -2.4113 H   0  0  0  0  0  0  0  0  0  0  0  0
   -7.0303    5.3532   -1.7291 H   0  0  0  0  0  0  0  0  0  0  0  0
   -7.3313    3.3209    0.2609 H   0  0  0  0  0  0  0  0  0  0  0  0
   -7.0231    0.8494    1.3352 H   0  0  0  0  0  0  0  0  0  0  0  0
   -4.1645   -0.6390    2.6171 H   0  0  0  0  0  0  0  0  0  0  0  0
   -1.7100   -0.5972    2.6512 H   0  0  0  0  0  0  0  0  0  0  0  0
    0.2927   -0.7463    1.5538 H   0  0  0  0  0  0  0  0  0  0  0  0
    2.3994    0.0377    0.5823 H   0  0  0  0  0  0  0  0  0  0  0  0
    2.4214   -1.7076    0.9015 H   0  0  0  0  0  0  0  0  0  0  0  0
    3.1225   -0.3961   -1.7871 H   0  0  0  0  0  0  0  0  0  0  0  0
    3.1631   -2.1376   -1.4471 H   0  0  0  0  0  0  0  0  0  0  0  0
    7.7295   -3.1555    1.2738 H   0  0  0  0  0  0  0  0  0  0  0  0
    9.7544   -1.7407    1.7054 H   0  0  0  0  0  0  0  0  0  0  0  0
    9.7556    0.6663    1.0985 H   0  0  0  0  0  0  0  0  0  0  0  0
    7.7333    1.7080    0.0453 H   0  0  0  0  0  0  0  0  0  0  0  0
   -1.6558   -1.3027   -1.6188 H   0  0  0  0  0  0  0  0  0  0  0  0
   -4.0911   -1.3345   -1.6427 H   0  0  0  0  0  0  0  0  0  0  0  0
  1  2  1  0
  2  3  2  0
  3  4  1  0
  4  5  1  0
  5  6  1  0
  6  7  2  0
  6  8  2  0
  6  9  1  0
  9 10  2  0
 10 11  1  0
 11 12  2  0
 12 13  1  0
 13 14  1  0
 14 15  2  0
 14 16  1  0
 16 17  1  0
 17 18  1  0
 18 19  1  0
 19 20  2  0
 19 21  1  0
 21 22  2  0
 22 23  1  0
 23 24  2  0
 24 25  1  0
 25 26  2  0
 26 27  1  0
 27 28  2  0
 12 29  1  0
 29 30  2  0
  4 31  2  0
 31 32  1  0
 32  2  1  0
 30  9  1  0
 27 18  1  0
 26 21  1  0
  1 33  1  0
  1 34  1  0
  1 35  1  0
  3 36  1  0
  5 37  1  0
 10 38  1  0
 11 39  1  0
 13 40  1  0
 16 41  1  0
 16 42  1  0
 17 43  1  0
 17 44  1  0
 22 45  1  0
 23 46  1  0
 24 47  1  0
 25 48  1  0
 29 49  1  0
 30 50  1  0
M  END
$$$$
