
     RDKit          3D

 50 51  0  0  0  0  0  0  0  0999 V2000
    9.5091   -1.5461    0.7178 C   0  0  0  0  0  0  0  0  0  0  0  0
    8.2823   -0.9155    0.3487 O   0  0  0  0  0  0  0  0  0  0  0  0
    7.3985   -0.7810    1.3699 C   0  0  0  0  0  0  0  0  0  0  0  0
    7.5758   -1.1451    2.5205 O   0  0  0  0  0  0  0  0  0  0  0  0
    6.1499   -0.1196    0.9014 C   0  0  0  0  0  0  0  0  0  0  0  0
    5.9610    0.2752   -0.4316 C   0  0  0  0  0  0  0  0  0  0  0  0
    4.7668    0.8881   -0.8178 C   0  0  0  0  0  0  0  0  0  0  0  0
    3.7484    1.1246    0.1175 C   0  0  0  0  0  0  0  0  0  0  0  0
    2.4634    1.7781   -0.3218 C   0  0  0  0  0  0  0  0  0  0  0  0
    1.6144    0.8259   -1.0002 N   0  0  0  0  0  0  0  0  0  0  0  0
    0.5789    1.2678   -1.7992 C   0  0  0  0  0  0  0  0  0  0  0  0
    0.3987    2.4502   -2.0850 O   0  0  0  0  0  0  0  0  0  0  0  0
   -0.3582    0.1583   -2.2846 C   0  0  0  0  0  0  0  0  0  0  0  0
   -1.6608    0.2787   -1.7118 O   0  0  0  0  0  0  0  0  0  0  0  0
   -1.7131    0.0047   -0.3775 C   0  0  0  0  0  0  0  0  0  0  0  0
   -0.7737   -0.4082    0.2930 O   0  0  0  0  0  0  0  0  0  0  0  0
   -3.0866    0.2988    0.1663 C   0  0  0  0  0  0  0  0  0  0  0  0
   -4.0990   -0.7581   -0.2730 C   0  0  0  0  0  0  0  0  0  0  0  0
   -5.4788   -0.5369    0.3505 C   0  0  0  0  0  0  0  0  0  0  0  0
   -6.1532    0.7717   -0.0646 C   0  0  0  0  0  0  0  0  0  0  0  0
   -7.6015    0.5352    0.3302 C   0  0  0  0  0  0  0  0  0  0  0  0
   -7.8613   -0.9103   -0.0728 C   0  0  0  0  0  0  0  0  0  0  0  0
   -6.4995   -1.6076   -0.0615 C   0  0  0  0  0  0  0  0  0  0  0  0
    3.9364    0.7203    1.4474 C   0  0  0  0  0  0  0  0  0  0  0  0
    5.1305    0.1067    1.8366 C   0  0  0  0  0  0  0  0  0  0  0  0
    9.3214   -2.5329    1.1543 H   0  0  0  0  0  0  0  0  0  0  0  0
   10.1079   -1.6770   -0.1910 H   0  0  0  0  0  0  0  0  0  0  0  0
   10.0677   -0.9119    1.4161 H   0  0  0  0  0  0  0  0  0  0  0  0
    6.7314    0.1100   -1.1814 H   0  0  0  0  0  0  0  0  0  0  0  0
    4.6289    1.1820   -1.8577 H   0  0  0  0  0  0  0  0  0  0  0  0
    1.9073    2.1680    0.5370 H   0  0  0  0  0  0  0  0  0  0  0  0
    2.6800    2.6321   -0.9793 H   0  0  0  0  0  0  0  0  0  0  0  0
    1.4463   -0.0469   -0.5014 H   0  0  0  0  0  0  0  0  0  0  0  0
   -0.4552    0.2601   -3.3742 H   0  0  0  0  0  0  0  0  0  0  0  0
    0.0582   -0.8403   -2.0945 H   0  0  0  0  0  0  0  0  0  0  0  0
   -3.3740    1.3039   -0.1637 H   0  0  0  0  0  0  0  0  0  0  0  0
   -3.0141    0.3335    1.2631 H   0  0  0  0  0  0  0  0  0  0  0  0
   -4.1782   -0.7606   -1.3694 H   0  0  0  0  0  0  0  0  0  0  0  0
   -3.7321   -1.7537    0.0099 H   0  0  0  0  0  0  0  0  0  0  0  0
   -5.3837   -0.5549    1.4459 H   0  0  0  0  0  0  0  0  0  0  0  0
   -5.7297    1.6433    0.4397 H   0  0  0  0  0  0  0  0  0  0  0  0
   -6.0823    0.9274   -1.1479 H   0  0  0  0  0  0  0  0  0  0  0  0
   -8.2889    1.2344   -0.1590 H   0  0  0  0  0  0  0  0  0  0  0  0
   -7.7163    0.6455    1.4134 H   0  0  0  0  0  0  0  0  0  0  0  0
   -8.2899   -0.9517   -1.0802 H   0  0  0  0  0  0  0  0  0  0  0  0
   -8.5705   -1.3926    0.6045 H   0  0  0  0  0  0  0  0  0  0  0  0
   -6.4972   -2.4514    0.6378 H   0  0  0  0  0  0  0  0  0  0  0  0
   -6.2850   -2.0082   -1.0596 H   0  0  0  0  0  0  0  0  0  0  0  0
    3.1568    0.8808    2.1899 H   0  0  0  0  0  0  0  0  0  0  0  0
    5.2626   -0.1950    2.8749 H   0  0  0  0  0  0  0  0  0  0  0  0
  1  2  1  0
  2  3  1  0
  3  4  2  0
  3  5  1  0
  5  6  2  0
  6  7  1  0
  7  8  2  0
  8  9  1  0
  9 10  1  0
 10 11  1  0
 11 12  2  0
 11 13  1  0
 13 14  1  0
 14 15  1  0
 15 16  2  0
 15 17  1  0
 17 18  1  0
 18 19  1  0
 19 20  1  0
 20 21  1  0
 21 22  1  0
 22 23  1  0
  8 24  1  0
 24 25  2  0
 25  5  1  0
 23 19  1  0
  1 26  1  0
  1 27  1  0
  1 28  1  0
  6 29  1  0
  7 30  1  0
  9 31  1  0
  9 32  1  0
 10 33  1  0
 13 34  1  0
 13 35  1  0
 17 36  1  0
 17 37  1  0
 18 38  1  0
 18 39  1  0
 19 40  1  0
 20 41  1  0
 20 42  1  0
 21 43  1  0
 21 44  1  0
 22 45  1  0
 22 46  1  0
 23 47  1  0
 23 48  1  0
 24 49  1  0
 25 50  1  0
M  END
$$$$
