
     RDKit          3D

 40 42  0  0  0  0  0  0  0  0999 V2000
    6.6100    0.5746   -2.8885 N   0  0  0  0  0  0  0  0  0  0  0  0
    5.4579    0.7087   -2.8476 C   0  0  0  0  0  0  0  0  0  0  0  0
    4.0414    0.8622   -2.7830 C   0  0  0  0  0  0  0  0  0  0  0  0
    3.4379    1.5954   -3.8474 C   0  0  0  0  0  0  0  0  0  0  0  0
    2.9347    2.1868   -4.7103 N   0  0  0  0  0  0  0  0  0  0  0  0
    3.3161    0.3276   -1.7672 C   0  0  0  0  0  0  0  0  0  0  0  0
    1.8549    0.4393   -1.6829 C   0  0  0  0  0  0  0  0  0  0  0  0
    1.1324    0.0388   -0.6193 C   0  0  0  0  0  0  0  0  0  0  0  0
   -0.3183    0.1547   -0.6134 C   0  0  0  0  0  0  0  0  0  0  0  0
   -1.1077   -0.0831    0.4564 C   0  0  0  0  0  0  0  0  0  0  0  0
   -2.5129   -0.0369    0.3986 N   0  0  0  0  0  0  0  0  0  0  0  0
   -3.2720   -0.1948   -0.8671 C   0  0  0  0  0  0  0  0  0  0  0  0
   -4.5844   -0.9572   -0.6246 C   0  0  0  0  0  0  0  0  0  0  0  0
   -5.4742   -0.3068    0.2919 O   0  0  0  0  0  0  0  0  0  0  0  0
   -4.7886    0.5163    1.2435 C   0  0  0  0  0  0  0  0  0  0  0  0
   -3.3804    0.0124    1.5988 C   0  0  0  0  0  0  0  0  0  0  0  0
   -0.4602   -0.4264    1.7940 C   0  0  0  0  0  0  0  0  0  0  0  0
    1.0300   -0.0860    1.8737 C   0  0  0  0  0  0  0  0  0  0  0  0
    1.7687   -0.5514    0.6191 C   0  0  0  0  0  0  0  0  0  0  0  0
    3.2568   -0.1936    0.7091 C   0  0  0  0  0  0  0  0  0  0  0  0
    3.9538   -0.4546   -0.6250 C   0  0  0  0  0  0  0  0  0  0  0  0
    1.3256    0.8734   -2.5307 H   0  0  0  0  0  0  0  0  0  0  0  0
   -0.7742    0.4564   -1.5525 H   0  0  0  0  0  0  0  0  0  0  0  0
   -2.6910   -0.7570   -1.6065 H   0  0  0  0  0  0  0  0  0  0  0  0
   -3.4814    0.8014   -1.2733 H   0  0  0  0  0  0  0  0  0  0  0  0
   -4.3744   -1.9578   -0.2287 H   0  0  0  0  0  0  0  0  0  0  0  0
   -5.1238   -1.0867   -1.5684 H   0  0  0  0  0  0  0  0  0  0  0  0
   -5.4091    0.5622    2.1442 H   0  0  0  0  0  0  0  0  0  0  0  0
   -4.7377    1.5311    0.8314 H   0  0  0  0  0  0  0  0  0  0  0  0
   -2.9643    0.6973    2.3444 H   0  0  0  0  0  0  0  0  0  0  0  0
   -3.4395   -0.9925    2.0323 H   0  0  0  0  0  0  0  0  0  0  0  0
   -0.9465    0.1050    2.6176 H   0  0  0  0  0  0  0  0  0  0  0  0
   -0.6001   -1.4996    1.9761 H   0  0  0  0  0  0  0  0  0  0  0  0
    1.4618   -0.5534    2.7670 H   0  0  0  0  0  0  0  0  0  0  0  0
    1.1447    0.9995    1.9992 H   0  0  0  0  0  0  0  0  0  0  0  0
    1.6806   -1.6454    0.5498 H   0  0  0  0  0  0  0  0  0  0  0  0
    3.7345   -0.7888    1.4968 H   0  0  0  0  0  0  0  0  0  0  0  0
    3.3842    0.8614    0.9875 H   0  0  0  0  0  0  0  0  0  0  0  0
    3.9018   -1.5256   -0.8611 H   0  0  0  0  0  0  0  0  0  0  0  0
    5.0131   -0.2070   -0.4994 H   0  0  0  0  0  0  0  0  0  0  0  0
  1  2  3  0
  2  3  1  0
  3  4  1  0
  4  5  3  0
  3  6  2  3
  6  7  1  0
  7  8  2  0
  8  9  1  0
  9 10  2  0
 10 11  1  0
 11 12  1  0
 12 13  1  0
 13 14  1  0
 14 15  1  0
 15 16  1  0
 10 17  1  0
 17 18  1  0
 18 19  1  0
 19 20  1  0
 20 21  1  0
 21  6  1  0
 19  8  1  0
 16 11  1  0
  7 22  1  0
  9 23  1  0
 12 24  1  0
 12 25  1  0
 13 26  1  0
 13 27  1  0
 15 28  1  0
 15 29  1  0
 16 30  1  0
 16 31  1  0
 17 32  1  0
 17 33  1  0
 18 34  1  0
 18 35  1  0
 19 36  1  0
 20 37  1  0
 20 38  1  0
 21 39  1  0
 21 40  1  0
M  END
$$$$
