
     RDKit          3D

 56 61  0  0  0  0  0  0  0  0999 V2000
    5.7290   -2.9827   -1.4209 C   0  0  0  0  0  0  0  0  0  0  0  0
    4.8015   -2.5157   -0.4485 O   0  0  0  0  0  0  0  0  0  0  0  0
    3.8032   -1.6939   -0.8940 C   0  0  0  0  0  0  0  0  0  0  0  0
    3.6228   -1.2549   -2.2038 C   0  0  0  0  0  0  0  0  0  0  0  0
    2.5527   -0.4150   -2.5187 C   0  0  0  0  0  0  0  0  0  0  0  0
    1.6591   -0.0086   -1.5275 C   0  0  0  0  0  0  0  0  0  0  0  0
    1.8211   -0.4357   -0.1987 C   0  0  0  0  0  0  0  0  0  0  0  0
    0.8614   -0.0157    0.9132 C   0  0  0  0  0  0  0  0  0  0  0  0
   -0.3747   -0.8040    0.6559 C   0  0  0  0  0  0  0  0  0  0  0  0
   -0.7074   -2.1676    0.7212 C   0  0  0  0  0  0  0  0  0  0  0  0
    0.1570   -3.3206    1.0724 C   0  0  0  0  0  0  0  0  0  0  0  0
   -1.9904   -2.3706    0.4062 N   0  0  0  0  0  0  0  0  0  0  0  0
   -2.5059   -1.1311    0.1323 N   0  0  0  0  0  0  0  0  0  0  0  0
   -3.8767   -1.0088   -0.2585 C   0  0  0  0  0  0  0  0  0  0  0  0
   -4.6671   -2.1710   -0.3448 C   0  0  0  0  0  0  0  0  0  0  0  0
   -6.0116   -2.0971   -0.7238 C   0  0  0  0  0  0  0  0  0  0  0  0
   -6.5756   -0.8524   -1.0213 C   0  0  0  0  0  0  0  0  0  0  0  0
   -7.9858   -0.7676   -1.4199 N   0  0  0  0  0  4  0  0  0  0  0  0
   -8.4474    0.3533   -1.6782 O   0  0  0  0  0  0  0  0  0  0  0  0
   -8.6343   -1.8227   -1.4755 O   0  0  0  0  0  1  0  0  0  0  0  0
   -5.8035    0.3120   -0.9417 C   0  0  0  0  0  0  0  0  0  0  0  0
   -4.4575    0.2311   -0.5613 C   0  0  0  0  0  0  0  0  0  0  0  0
   -1.5331   -0.1506    0.3048 C   0  0  0  0  0  0  0  0  0  0  0  0
   -1.6821    1.1905    0.1662 N   0  0  0  0  0  0  0  0  0  0  0  0
   -0.6329    1.9122    0.4749 C   0  0  0  0  0  0  0  0  0  0  0  0
   -0.8485    3.4381    0.3295 C   0  0  0  0  0  0  0  0  0  0  0  0
   -1.8790    3.9082   -0.1326 O   0  0  0  0  0  0  0  0  0  0  0  0
    0.1847    4.2305    0.7526 N   0  0  0  0  0  0  0  0  0  0  0  0
    1.3863    3.7360    1.2665 C   0  0  0  0  0  0  0  0  0  0  0  0
    2.3434    4.6691    1.6835 C   0  0  0  0  0  0  0  0  0  0  0  0
    3.5565    4.2347    2.2049 C   0  0  0  0  0  0  0  0  0  0  0  0
    3.8076    2.8725    2.3089 C   0  0  0  0  0  0  0  0  0  0  0  0
    2.8479    1.9425    1.8892 C   0  0  0  0  0  0  0  0  0  0  0  0
    1.6139    2.3450    1.3506 C   0  0  0  0  0  0  0  0  0  0  0  0
    0.6217    1.4448    0.9109 N   0  0  0  0  0  0  0  0  0  0  0  0
    2.9054   -1.2834    0.0966 C   0  0  0  0  0  0  0  0  0  0  0  0
    6.2849   -2.1514   -1.8668 H   0  0  0  0  0  0  0  0  0  0  0  0
    6.4496   -3.6296   -0.9114 H   0  0  0  0  0  0  0  0  0  0  0  0
    5.2283   -3.5819   -2.1886 H   0  0  0  0  0  0  0  0  0  0  0  0
    4.2933   -1.5474   -3.0049 H   0  0  0  0  0  0  0  0  0  0  0  0
    2.4119   -0.0775   -3.5431 H   0  0  0  0  0  0  0  0  0  0  0  0
    0.8294    0.6401   -1.8036 H   0  0  0  0  0  0  0  0  0  0  0  0
    1.2420   -0.3205    1.8968 H   0  0  0  0  0  0  0  0  0  0  0  0
   -0.4369   -4.1704    1.4248 H   0  0  0  0  0  0  0  0  0  0  0  0
    0.7307   -3.6449    0.1986 H   0  0  0  0  0  0  0  0  0  0  0  0
    0.8577   -3.0532    1.8695 H   0  0  0  0  0  0  0  0  0  0  0  0
   -4.2463   -3.1502   -0.1176 H   0  0  0  0  0  0  0  0  0  0  0  0
   -6.5952   -3.0136   -0.7806 H   0  0  0  0  0  0  0  0  0  0  0  0
   -6.2257    1.2890   -1.1704 H   0  0  0  0  0  0  0  0  0  0  0  0
   -3.8973    1.1611   -0.5161 H   0  0  0  0  0  0  0  0  0  0  0  0
    0.0288    5.2258    0.6724 H   0  0  0  0  0  0  0  0  0  0  0  0
    2.1528    5.7364    1.6073 H   0  0  0  0  0  0  0  0  0  0  0  0
    4.3029    4.9552    2.5298 H   0  0  0  0  0  0  0  0  0  0  0  0
    4.7545    2.5252    2.7167 H   0  0  0  0  0  0  0  0  0  0  0  0
    3.1102    0.8962    2.0033 H   0  0  0  0  0  0  0  0  0  0  0  0
    3.0627   -1.6393    1.1132 H   0  0  0  0  0  0  0  0  0  0  0  0
  1  2  1  0
  2  3  1  0
  3  4  2  0
  4  5  1  0
  5  6  2  0
  6  7  1  0
  7  8  1  0
  8  9  1  0
  9 10  1  0
 10 11  1  0
 10 12  2  0
 12 13  1  0
 13 14  1  0
 14 15  2  0
 15 16  1  0
 16 17  2  0
 17 18  1  0
 18 19  2  0
 18 20  1  0
 17 21  1  0
 21 22  2  0
 13 23  1  0
 23 24  1  0
 24 25  2  0
 25 26  1  0
 26 27  2  0
 26 28  1  0
 28 29  1  0
 29 30  2  0
 30 31  1  0
 31 32  2  0
 32 33  1  0
 33 34  2  0
 34 35  1  0
  7 36  2  0
 36  3  1  0
 35  8  1  0
 23  9  2  0
 35 25  1  0
 22 14  1  0
 34 29  1  0
  1 37  1  0
  1 38  1  0
  1 39  1  0
  4 40  1  0
  5 41  1  0
  6 42  1  0
  8 43  1  0
 11 44  1  0
 11 45  1  0
 11 46  1  0
 15 47  1  0
 16 48  1  0
 21 49  1  0
 22 50  1  0
 28 51  1  0
 30 52  1  0
 31 53  1  0
 32 54  1  0
 33 55  1  0
 36 56  1  0
M  CHG  2  18   1  20  -1
M  END
$$$$
