
     RDKit          3D

 51 56  0  0  0  0  0  0  0  0999 V2000
   -2.0125    0.0474    2.5703 O   0  0  0  0  0  0  0  0  0  0  0  0
   -2.2611   -0.5277    1.5069 C   0  0  0  0  0  0  0  0  0  0  0  0
   -3.0964   -1.7634    1.5584 C   0  0  0  0  0  0  0  0  0  0  0  0
   -3.0284   -2.7600    0.5768 C   0  0  0  0  0  0  0  0  0  0  0  0
   -3.8304   -3.9021    0.6795 C   0  0  0  0  0  0  0  0  0  0  0  0
   -4.6947   -4.0525    1.7630 C   0  0  0  0  0  0  0  0  0  0  0  0
   -5.6761   -5.4599    1.8839 Cl  0  0  0  0  0  0  0  0  0  0  0  0
   -4.7627   -3.0730    2.7505 C   0  0  0  0  0  0  0  0  0  0  0  0
   -3.9619   -1.9320    2.6501 C   0  0  0  0  0  0  0  0  0  0  0  0
   -1.7504   -0.0502    0.1454 C   0  0  0  0  0  0  0  0  0  0  0  0
   -0.2830   -0.2101    0.0235 C   0  0  0  0  0  0  0  0  0  0  0  0
    0.4015    1.0129    0.1539 C   0  0  0  0  0  0  0  0  0  0  0  0
    1.7470    0.7524    0.0575 C   0  0  0  0  0  0  0  0  0  0  0  0
    2.7662    1.6107    0.0789 O   0  0  0  0  0  0  0  0  0  0  0  0
    1.8935   -0.6359   -0.1363 N   0  0  0  0  0  0  0  0  0  0  0  0
    3.1287   -1.3346   -0.2871 C   0  0  0  0  0  0  0  0  0  0  0  0
    4.2387   -0.9792    0.4920 C   0  0  0  0  0  0  0  0  0  0  0  0
    5.4451   -1.6685    0.3420 C   0  0  0  0  0  0  0  0  0  0  0  0
    5.5431   -2.7056   -0.5842 C   0  0  0  0  0  0  0  0  0  0  0  0
    7.0303   -3.5496   -0.7677 Cl  0  0  0  0  0  0  0  0  0  0  0  0
    4.4434   -3.0635   -1.3625 C   0  0  0  0  0  0  0  0  0  0  0  0
    3.2330   -2.3809   -1.2148 C   0  0  0  0  0  0  0  0  0  0  0  0
    0.6179   -1.2242   -0.1402 C   0  0  0  0  0  0  0  0  0  0  0  0
    0.3772   -2.5329   -0.2043 O   0  0  0  0  0  0  0  0  0  0  0  0
   -0.5577    2.1322    0.3892 C   0  0  0  0  0  0  0  0  0  0  0  0
   -0.2604    3.3107   -0.4844 C   0  0  0  0  0  0  0  0  0  0  0  0
    0.9026    4.0840   -0.3496 C   0  0  0  0  0  0  0  0  0  0  0  0
    1.1103    5.2142   -1.1458 C   0  0  0  0  0  0  0  0  0  0  0  0
    0.1446    5.6070   -2.0701 C   0  0  0  0  0  0  0  0  0  0  0  0
   -1.0366    4.8781   -2.1877 C   0  0  0  0  0  0  0  0  0  0  0  0
   -1.2303    3.7476   -1.3871 C   0  0  0  0  0  0  0  0  0  0  0  0
   -2.4955    3.0148   -1.4734 C   0  0  0  0  0  0  0  0  0  0  0  0
   -2.7809    1.9272   -0.8271 N   0  0  0  0  0  0  0  0  0  0  0  0
   -1.8456    1.4389    0.0625 N   0  0  0  0  0  0  0  0  0  0  0  0
   -2.3462   -2.6865   -0.2660 H   0  0  0  0  0  0  0  0  0  0  0  0
   -3.7703   -4.6721   -0.0857 H   0  0  0  0  0  0  0  0  0  0  0  0
   -5.4313   -3.1883    3.5996 H   0  0  0  0  0  0  0  0  0  0  0  0
   -4.0174   -1.1704    3.4267 H   0  0  0  0  0  0  0  0  0  0  0  0
   -2.2996   -0.4791   -0.6963 H   0  0  0  0  0  0  0  0  0  0  0  0
    3.5031    1.2391   -0.4380 H   0  0  0  0  0  0  0  0  0  0  0  0
    4.1733   -0.2032    1.2535 H   0  0  0  0  0  0  0  0  0  0  0  0
    6.3003   -1.3992    0.9575 H   0  0  0  0  0  0  0  0  0  0  0  0
    4.5253   -3.8656   -2.0924 H   0  0  0  0  0  0  0  0  0  0  0  0
    2.4004   -2.6496   -1.8635 H   0  0  0  0  0  0  0  0  0  0  0  0
    1.1736   -3.0154    0.0840 H   0  0  0  0  0  0  0  0  0  0  0  0
   -0.5987    2.4144    1.4468 H   0  0  0  0  0  0  0  0  0  0  0  0
    1.6549    3.8158    0.3893 H   0  0  0  0  0  0  0  0  0  0  0  0
    2.0243    5.7925   -1.0338 H   0  0  0  0  0  0  0  0  0  0  0  0
    0.3065    6.4888   -2.6847 H   0  0  0  0  0  0  0  0  0  0  0  0
   -1.7984    5.2004   -2.8921 H   0  0  0  0  0  0  0  0  0  0  0  0
   -3.2585    3.4061   -2.1668 H   0  0  0  0  0  0  0  0  0  0  0  0
  1  2  2  0
  2  3  1  0
  3  4  2  0
  4  5  1  0
  5  6  2  0
  6  7  1  0
  6  8  1  0
  8  9  2  0
  2 10  1  0
 10 11  1  0
 11 12  1  0
 12 13  2  0
 13 14  1  0
 13 15  1  0
 15 16  1  0
 16 17  2  0
 17 18  1  0
 18 19  2  0
 19 20  1  0
 19 21  1  0
 21 22  2  0
 15 23  1  0
 23 24  1  0
 12 25  1  0
 25 26  1  0
 26 27  2  0
 27 28  1  0
 28 29  2  0
 29 30  1  0
 30 31  2  0
 31 32  1  0
 32 33  2  0
 33 34  1  0
  9  3  1  0
 34 10  1  0
 23 11  2  0
 34 25  1  0
 22 16  1  0
 31 26  1  0
  4 35  1  0
  5 36  1  0
  8 37  1  0
  9 38  1  0
 10 39  1  0
 14 40  1  0
 17 41  1  0
 18 42  1  0
 21 43  1  0
 22 44  1  0
 24 45  1  0
 25 46  1  0
 27 47  1  0
 28 48  1  0
 29 49  1  0
 30 50  1  0
 32 51  1  0
M  END
$$$$
