
     RDKit          3D

 63 67  0  0  0  0  0  0  0  0999 V2000
   -5.2769    6.5088    0.8873 C   0  0  0  0  0  0  0  0  0  0  0  0
   -5.7996    5.2989    0.3537 O   0  0  0  0  0  0  0  0  0  0  0  0
   -4.9510    4.2260    0.2994 C   0  0  0  0  0  0  0  0  0  0  0  0
   -3.6242    4.2159    0.7079 C   0  0  0  0  0  0  0  0  0  0  0  0
   -2.8577    3.0477    0.5981 C   0  0  0  0  0  0  0  0  0  0  0  0
   -3.4151    1.8559    0.0686 C   0  0  0  0  0  0  0  0  0  0  0  0
   -2.8333    0.5491   -0.1421 C   0  0  0  0  0  0  0  0  0  0  0  0
   -1.4554    0.1685    0.1453 C   0  0  0  0  0  0  0  0  0  0  0  0
   -1.1618   -0.6704    1.2230 C   0  0  0  0  0  0  0  0  0  0  0  0
    0.1623   -1.0264    1.4894 C   0  0  0  0  0  0  0  0  0  0  0  0
    1.2043   -0.5476    0.6907 C   0  0  0  0  0  0  0  0  0  0  0  0
    2.4492   -0.9751    1.0618 O   0  0  0  0  0  0  0  0  0  0  0  0
    3.5587   -0.4910    0.2982 C   0  0  0  0  0  0  0  0  0  0  0  0
    4.8410   -1.1028    0.8856 C   0  0  0  0  0  0  0  0  0  0  0  0
    6.0699   -0.7498    0.1493 N   0  0  0  0  0  0  0  0  0  0  0  0
    7.1994   -1.5808    0.6281 C   0  0  0  0  0  0  0  0  0  0  0  0
    8.5169   -1.1976   -0.0637 C   0  0  0  0  0  0  0  0  0  0  0  0
    8.8286    0.1852    0.1503 O   0  0  0  0  0  0  0  0  0  0  0  0
    7.7696    1.0079   -0.3545 C   0  0  0  0  0  0  0  0  0  0  0  0
    6.4305    0.6752    0.3259 C   0  0  0  0  0  0  0  0  0  0  0  0
    0.9111    0.2948   -0.3827 C   0  0  0  0  0  0  0  0  0  0  0  0
   -0.4146    0.6531   -0.6537 C   0  0  0  0  0  0  0  0  0  0  0  0
   -3.7380   -0.3504   -0.6813 C   0  0  0  0  0  0  0  0  0  0  0  0
   -3.5546   -1.7559   -1.0667 C   0  0  0  0  0  0  0  0  0  0  0  0
   -3.0198   -2.0403   -2.3342 C   0  0  0  0  0  0  0  0  0  0  0  0
   -2.8190   -3.3584   -2.7391 C   0  0  0  0  0  0  0  0  0  0  0  0
   -3.1484   -4.4026   -1.8800 C   0  0  0  0  0  0  0  0  0  0  0  0
   -3.6771   -4.1339   -0.6139 C   0  0  0  0  0  0  0  0  0  0  0  0
   -3.8844   -2.8142   -0.1946 C   0  0  0  0  0  0  0  0  0  0  0  0
   -4.3826   -2.4609    1.0345 O   0  0  0  0  0  0  0  0  0  0  0  0
   -4.7873   -3.5070    1.9059 C   0  0  0  0  0  0  0  0  0  0  0  0
   -5.2675    0.3675   -0.9390 S   0  0  0  0  0  0  0  0  0  0  0  0
   -4.7519    1.8897   -0.3308 C   0  0  0  0  0  0  0  0  0  0  0  0
   -5.5253    3.0629   -0.2222 C   0  0  0  0  0  0  0  0  0  0  0  0
   -4.4503    6.8853    0.2757 H   0  0  0  0  0  0  0  0  0  0  0  0
   -6.0753    7.2568    0.8640 H   0  0  0  0  0  0  0  0  0  0  0  0
   -4.9712    6.3806    1.9310 H   0  0  0  0  0  0  0  0  0  0  0  0
   -3.1442    5.0969    1.1209 H   0  0  0  0  0  0  0  0  0  0  0  0
   -1.8214    3.0574    0.9290 H   0  0  0  0  0  0  0  0  0  0  0  0
   -1.9585   -1.0540    1.8561 H   0  0  0  0  0  0  0  0  0  0  0  0
    0.3818   -1.6843    2.3265 H   0  0  0  0  0  0  0  0  0  0  0  0
    3.5955    0.6017    0.3667 H   0  0  0  0  0  0  0  0  0  0  0  0
    3.4575   -0.8015   -0.7489 H   0  0  0  0  0  0  0  0  0  0  0  0
    4.9221   -0.8355    1.9481 H   0  0  0  0  0  0  0  0  0  0  0  0
    4.7102   -2.1938    0.8674 H   0  0  0  0  0  0  0  0  0  0  0  0
    7.3191   -1.4569    1.7128 H   0  0  0  0  0  0  0  0  0  0  0  0
    6.9946   -2.6391    0.4279 H   0  0  0  0  0  0  0  0  0  0  0  0
    9.3384   -1.7897    0.3521 H   0  0  0  0  0  0  0  0  0  0  0  0
    8.4747   -1.3977   -1.1414 H   0  0  0  0  0  0  0  0  0  0  0  0
    8.0367    2.0504   -0.1529 H   0  0  0  0  0  0  0  0  0  0  0  0
    7.7035    0.8864   -1.4429 H   0  0  0  0  0  0  0  0  0  0  0  0
    5.6612    1.3214   -0.1091 H   0  0  0  0  0  0  0  0  0  0  0  0
    6.5090    0.9101    1.3957 H   0  0  0  0  0  0  0  0  0  0  0  0
    1.6862    0.6874   -1.0320 H   0  0  0  0  0  0  0  0  0  0  0  0
   -0.6296    1.3064   -1.4962 H   0  0  0  0  0  0  0  0  0  0  0  0
   -2.7575   -1.2288   -3.0096 H   0  0  0  0  0  0  0  0  0  0  0  0
   -2.4047   -3.5686   -3.7217 H   0  0  0  0  0  0  0  0  0  0  0  0
   -2.9905   -5.4318   -2.1933 H   0  0  0  0  0  0  0  0  0  0  0  0
   -3.9117   -4.9799    0.0233 H   0  0  0  0  0  0  0  0  0  0  0  0
   -5.5814   -4.1128    1.4571 H   0  0  0  0  0  0  0  0  0  0  0  0
   -5.1924   -3.0481    2.8129 H   0  0  0  0  0  0  0  0  0  0  0  0
   -3.9336   -4.1256    2.2001 H   0  0  0  0  0  0  0  0  0  0  0  0
   -6.5643    3.0652   -0.5406 H   0  0  0  0  0  0  0  0  0  0  0  0
  1  2  1  0
  2  3  1  0
  3  4  2  0
  4  5  1  0
  5  6  2  0
  6  7  1  0
  7  8  1  0
  8  9  2  0
  9 10  1  0
 10 11  2  0
 11 12  1  0
 12 13  1  0
 13 14  1  0
 14 15  1  0
 15 16  1  0
 16 17  1  0
 17 18  1  0
 18 19  1  0
 19 20  1  0
 11 21  1  0
 21 22  2  0
  7 23  2  0
 23 24  1  0
 24 25  2  0
 25 26  1  0
 26 27  2  0
 27 28  1  0
 28 29  2  0
 29 30  1  0
 30 31  1  0
 23 32  1  0
 32 33  1  0
 33 34  2  0
 34  3  1  0
 33  6  1  0
 22  8  1  0
 29 24  1  0
 20 15  1  0
  1 35  1  0
  1 36  1  0
  1 37  1  0
  4 38  1  0
  5 39  1  0
  9 40  1  0
 10 41  1  0
 13 42  1  0
 13 43  1  0
 14 44  1  0
 14 45  1  0
 16 46  1  0
 16 47  1  0
 17 48  1  0
 17 49  1  0
 19 50  1  0
 19 51  1  0
 20 52  1  0
 20 53  1  0
 21 54  1  0
 22 55  1  0
 25 56  1  0
 26 57  1  0
 27 58  1  0
 28 59  1  0
 31 60  1  0
 31 61  1  0
 31 62  1  0
 34 63  1  0
M  END
$$$$
