
     RDKit          3D

 53 56  0  0  0  0  0  0  0  0999 V2000
    0.0032   -1.2172   -3.1966 C   0  0  0  0  0  0  0  0  0  0  0  0
   -0.7723   -2.0905   -2.2450 C   0  0  0  0  0  0  0  0  0  0  0  0
   -0.5229   -3.2887   -2.1126 O   0  0  0  0  0  0  0  0  0  0  0  0
   -1.8569   -1.4460   -1.4661 C   0  0  0  0  0  0  0  0  0  0  0  0
   -1.5421   -0.8136   -0.3125 C   0  0  0  0  0  0  0  0  0  0  0  0
   -0.2715   -0.7907    0.2550 N   0  0  0  0  0  0  0  0  0  0  0  0
    0.4167    0.4747    0.5852 C   0  0  0  0  0  0  0  0  0  0  0  0
    1.8927    0.2644    1.0050 C   0  0  0  0  0  0  0  0  0  0  0  0
    2.5706   -0.7044    0.1302 N   0  0  0  0  0  0  0  0  0  0  0  0
    4.0079   -0.8262    0.4011 C   0  0  0  0  0  0  0  0  0  0  0  0
    4.7912    0.4209    0.0495 C   0  0  0  0  0  0  0  0  0  0  0  0
    4.7550    0.9400   -1.2539 C   0  0  0  0  0  0  0  0  0  0  0  0
    5.4855    2.0822   -1.5842 C   0  0  0  0  0  0  0  0  0  0  0  0
    6.2636    2.7154   -0.6171 C   0  0  0  0  0  0  0  0  0  0  0  0
    6.3125    2.2070    0.6799 C   0  0  0  0  0  0  0  0  0  0  0  0
    5.5819    1.0644    1.0124 C   0  0  0  0  0  0  0  0  0  0  0  0
    1.9022   -2.0254    0.1893 C   0  0  0  0  0  0  0  0  0  0  0  0
    0.4360   -2.0091    0.6884 C   0  0  0  0  0  0  0  0  0  0  0  0
   -2.5477   -0.1326    0.3305 N   0  0  0  0  0  0  0  0  0  0  0  0
   -3.8573   -0.1967   -0.0659 C   0  0  0  0  0  0  0  0  0  0  0  0
   -4.9186    0.4269    0.7859 C   0  0  0  0  0  0  0  0  0  0  0  0
   -4.6134    1.4664    1.6742 C   0  0  0  0  0  0  0  0  0  0  0  0
   -5.6194    2.0295    2.4638 C   0  0  0  0  0  0  0  0  0  0  0  0
   -6.9297    1.5617    2.3669 C   0  0  0  0  0  0  0  0  0  0  0  0
   -7.2406    0.5353    1.4763 C   0  0  0  0  0  0  0  0  0  0  0  0
   -6.2390   -0.0294    0.6846 C   0  0  0  0  0  0  0  0  0  0  0  0
   -4.2200   -0.7935   -1.1613 N   0  0  0  0  0  0  0  0  0  0  0  0
   -3.2664   -1.3724   -1.9815 C   0  0  0  0  0  0  0  0  0  0  0  0
   -3.7287   -1.9566   -3.5044 S   0  0  0  0  0  0  0  0  0  0  0  0
   -0.0732   -1.6289   -4.2063 H   0  0  0  0  0  0  0  0  0  0  0  0
   -0.3910   -0.1971   -3.2074 H   0  0  0  0  0  0  0  0  0  0  0  0
    1.0499   -1.1821   -2.8843 H   0  0  0  0  0  0  0  0  0  0  0  0
   -0.1141    0.9894    1.3943 H   0  0  0  0  0  0  0  0  0  0  0  0
    0.3907    1.1243   -0.2988 H   0  0  0  0  0  0  0  0  0  0  0  0
    2.3827    1.2441    0.9708 H   0  0  0  0  0  0  0  0  0  0  0  0
    1.9341   -0.0742    2.0489 H   0  0  0  0  0  0  0  0  0  0  0  0
    4.4322   -1.6393   -0.2036 H   0  0  0  0  0  0  0  0  0  0  0  0
    4.1764   -1.0999    1.4510 H   0  0  0  0  0  0  0  0  0  0  0  0
    4.1479    0.4525   -2.0143 H   0  0  0  0  0  0  0  0  0  0  0  0
    5.4475    2.4758   -2.5965 H   0  0  0  0  0  0  0  0  0  0  0  0
    6.8339    3.6037   -0.8753 H   0  0  0  0  0  0  0  0  0  0  0  0
    6.9231    2.6994    1.4323 H   0  0  0  0  0  0  0  0  0  0  0  0
    5.6352    0.6800    2.0281 H   0  0  0  0  0  0  0  0  0  0  0  0
    2.4530   -2.7212    0.8359 H   0  0  0  0  0  0  0  0  0  0  0  0
    1.9315   -2.4492   -0.8209 H   0  0  0  0  0  0  0  0  0  0  0  0
   -0.0782   -2.9229    0.3731 H   0  0  0  0  0  0  0  0  0  0  0  0
    0.4298   -2.0264    1.7863 H   0  0  0  0  0  0  0  0  0  0  0  0
   -2.3209    0.1131    1.2839 H   0  0  0  0  0  0  0  0  0  0  0  0
   -3.6089    1.8713    1.7458 H   0  0  0  0  0  0  0  0  0  0  0  0
   -5.3846    2.8409    3.1485 H   0  0  0  0  0  0  0  0  0  0  0  0
   -7.7122    2.0034    2.9793 H   0  0  0  0  0  0  0  0  0  0  0  0
   -8.2632    0.1755    1.3934 H   0  0  0  0  0  0  0  0  0  0  0  0
   -6.4939   -0.8279   -0.0095 H   0  0  0  0  0  0  0  0  0  0  0  0
  1  2  1  0
  2  3  2  0
  2  4  1  0
  4  5  2  0
  5  6  1  0
  6  7  1  0
  7  8  1  0
  8  9  1  0
  9 10  1  0
 10 11  1  0
 11 12  2  0
 12 13  1  0
 13 14  2  0
 14 15  1  0
 15 16  2  0
  9 17  1  0
 17 18  1  0
  5 19  1  0
 19 20  1  0
 20 21  1  0
 21 22  2  0
 22 23  1  0
 23 24  2  0
 24 25  1  0
 25 26  2  0
 20 27  2  0
 27 28  1  0
 28 29  2  0
 28  4  1  0
 18  6  1  0
 26 21  1  0
 16 11  1  0
  1 30  1  0
  1 31  1  0
  1 32  1  0
  7 33  1  0
  7 34  1  0
  8 35  1  0
  8 36  1  0
 10 37  1  0
 10 38  1  0
 12 39  1  0
 13 40  1  0
 14 41  1  0
 15 42  1  0
 16 43  1  0
 17 44  1  0
 17 45  1  0
 18 46  1  0
 18 47  1  0
 19 48  1  0
 22 49  1  0
 23 50  1  0
 24 51  1  0
 25 52  1  0
 26 53  1  0
M  END
$$$$
