
     RDKit          3D

 54 57  0  0  0  0  0  0  0  0999 V2000
   -4.6045   -4.3683   -3.0121 C   0  0  0  0  0  0  0  0  0  0  0  0
   -4.0688   -4.1345   -1.7159 O   0  0  0  0  0  0  0  0  0  0  0  0
   -3.9062   -2.8295   -1.3410 C   0  0  0  0  0  0  0  0  0  0  0  0
   -4.2289   -1.7088   -2.1058 C   0  0  0  0  0  0  0  0  0  0  0  0
   -4.0093   -0.4226   -1.5970 C   0  0  0  0  0  0  0  0  0  0  0  0
   -3.4667   -0.2403   -0.3179 C   0  0  0  0  0  0  0  0  0  0  0  0
   -3.2231    1.1075    0.2109 C   0  0  0  0  0  0  0  0  0  0  0  0
   -4.5695    2.1284    0.4841 S   0  0  0  0  0  0  0  0  0  0  0  0
   -3.5950    3.4108    1.0787 C   0  0  0  0  0  0  0  0  0  0  0  0
   -4.0404    4.6705    1.5277 C   0  0  0  0  0  0  0  0  0  0  0  0
   -3.1022    5.6030    1.9741 C   0  0  0  0  0  0  0  0  0  0  0  0
   -1.7502    5.2951    1.9737 C   0  0  0  0  0  0  0  0  0  0  0  0
   -1.3139    4.0438    1.5286 C   0  0  0  0  0  0  0  0  0  0  0  0
   -2.2414    3.0695    1.0736 C   0  0  0  0  0  0  0  0  0  0  0  0
   -2.0361    1.7263    0.5741 C   0  0  0  0  0  0  0  0  0  0  0  0
   -0.7456    1.0566    0.4434 C   0  0  0  0  0  0  0  0  0  0  0  0
   -0.0263    0.6965    1.5885 C   0  0  0  0  0  0  0  0  0  0  0  0
    1.2139    0.0578    1.4747 C   0  0  0  0  0  0  0  0  0  0  0  0
    1.7451   -0.2216    0.2153 C   0  0  0  0  0  0  0  0  0  0  0  0
    2.9379   -0.8390   -0.0376 O   0  0  0  0  0  0  0  0  0  0  0  0
    3.7309   -1.2200    1.0877 C   0  0  0  0  0  0  0  0  0  0  0  0
    5.0240   -1.9044    0.6010 C   0  0  0  0  0  0  0  0  0  0  0  0
    5.9443   -1.0504   -0.1800 N   0  0  0  0  0  0  0  0  0  0  0  0
    7.0296   -1.8597   -0.7378 C   0  0  0  0  0  0  0  0  0  0  0  0
    6.4949    0.0472    0.6135 C   0  0  0  0  0  0  0  0  0  0  0  0
    1.0265    0.1430   -0.9263 C   0  0  0  0  0  0  0  0  0  0  0  0
   -0.2118    0.7804   -0.8179 C   0  0  0  0  0  0  0  0  0  0  0  0
   -3.1443   -1.3689    0.4434 C   0  0  0  0  0  0  0  0  0  0  0  0
   -3.3639   -2.6516   -0.0665 C   0  0  0  0  0  0  0  0  0  0  0  0
   -5.6184   -3.9639   -3.0990 H   0  0  0  0  0  0  0  0  0  0  0  0
   -4.6647   -5.4511   -3.1585 H   0  0  0  0  0  0  0  0  0  0  0  0
   -3.9485   -3.9633   -3.7897 H   0  0  0  0  0  0  0  0  0  0  0  0
   -4.6508   -1.7965   -3.1011 H   0  0  0  0  0  0  0  0  0  0  0  0
   -4.2606    0.4385   -2.2126 H   0  0  0  0  0  0  0  0  0  0  0  0
   -5.0989    4.9149    1.5249 H   0  0  0  0  0  0  0  0  0  0  0  0
   -3.4365    6.5780    2.3206 H   0  0  0  0  0  0  0  0  0  0  0  0
   -1.0244    6.0279    2.3175 H   0  0  0  0  0  0  0  0  0  0  0  0
   -0.2495    3.8198    1.5276 H   0  0  0  0  0  0  0  0  0  0  0  0
   -0.4293    0.9056    2.5770 H   0  0  0  0  0  0  0  0  0  0  0  0
    1.7349   -0.2079    2.3878 H   0  0  0  0  0  0  0  0  0  0  0  0
    3.9649   -0.3503    1.7111 H   0  0  0  0  0  0  0  0  0  0  0  0
    3.1744   -1.9485    1.6907 H   0  0  0  0  0  0  0  0  0  0  0  0
    4.7170   -2.7445   -0.0359 H   0  0  0  0  0  0  0  0  0  0  0  0
    5.5480   -2.3265    1.4683 H   0  0  0  0  0  0  0  0  0  0  0  0
    7.6863   -1.2458   -1.3644 H   0  0  0  0  0  0  0  0  0  0  0  0
    7.6378   -2.3294    0.0437 H   0  0  0  0  0  0  0  0  0  0  0  0
    6.6305   -2.6479   -1.3861 H   0  0  0  0  0  0  0  0  0  0  0  0
    7.0195   -0.3115    1.5063 H   0  0  0  0  0  0  0  0  0  0  0  0
    5.7109    0.7441    0.9250 H   0  0  0  0  0  0  0  0  0  0  0  0
    7.2002    0.6377    0.0173 H   0  0  0  0  0  0  0  0  0  0  0  0
    1.4369   -0.0720   -1.9101 H   0  0  0  0  0  0  0  0  0  0  0  0
   -0.7505    1.0557   -1.7209 H   0  0  0  0  0  0  0  0  0  0  0  0
   -2.7207   -1.2600    1.4387 H   0  0  0  0  0  0  0  0  0  0  0  0
   -3.1076   -3.5197    0.5356 H   0  0  0  0  0  0  0  0  0  0  0  0
  1  2  1  0
  2  3  1  0
  3  4  2  0
  4  5  1  0
  5  6  2  0
  6  7  1  0
  7  8  1  0
  8  9  1  0
  9 10  2  0
 10 11  1  0
 11 12  2  0
 12 13  1  0
 13 14  2  0
 14 15  1  0
 15 16  1  0
 16 17  2  0
 17 18  1  0
 18 19  2  0
 19 20  1  0
 20 21  1  0
 21 22  1  0
 22 23  1  0
 23 24  1  0
 23 25  1  0
 19 26  1  0
 26 27  2  0
  6 28  1  0
 28 29  2  0
 29  3  1  0
 15  7  2  0
 27 16  1  0
 14  9  1  0
  1 30  1  0
  1 31  1  0
  1 32  1  0
  4 33  1  0
  5 34  1  0
 10 35  1  0
 11 36  1  0
 12 37  1  0
 13 38  1  0
 17 39  1  0
 18 40  1  0
 21 41  1  0
 21 42  1  0
 22 43  1  0
 22 44  1  0
 24 45  1  0
 24 46  1  0
 24 47  1  0
 25 48  1  0
 25 49  1  0
 25 50  1  0
 26 51  1  0
 27 52  1  0
 28 53  1  0
 29 54  1  0
M  END
$$$$
