
     RDKit          3D

 40 41  0  0  0  0  0  0  0  0999 V2000
    5.8207   -0.1281   -0.6227 C   0  0  0  0  0  0  0  0  0  0  0  0
    4.7468    0.9277   -0.4462 C   0  0  0  0  0  0  0  0  0  0  0  0
    3.4939    0.2609   -0.2632 O   0  0  0  0  0  0  0  0  0  0  0  0
    2.4270    1.0930   -0.0879 C   0  0  0  0  0  0  0  0  0  0  0  0
    2.5221    2.3164   -0.0809 O   0  0  0  0  0  0  0  0  0  0  0  0
    1.1607    0.3760    0.0959 C   0  0  0  0  0  0  0  0  0  0  0  0
   -0.0944    0.9844    0.1459 C   0  0  0  0  0  0  0  0  0  0  0  0
   -0.4530    2.4252   -0.0191 C   0  0  0  0  0  0  0  0  0  0  0  0
   -1.0331    0.0031    0.3942 N   0  0  0  0  0  0  0  0  0  0  0  0
   -2.4503    0.2340    0.6581 C   0  0  0  0  0  0  0  0  0  0  0  0
   -3.1391    0.2496   -0.5875 O   0  0  0  0  0  0  0  0  0  0  0  0
   -4.5206    0.5660   -0.4399 C   0  0  0  0  0  0  0  0  0  0  0  0
   -4.7560    2.0742   -0.4622 C   0  0  0  0  0  0  0  0  0  0  0  0
   -6.1362    2.3518   -0.2715 O   0  0  0  0  0  0  0  0  0  0  0  0
   -0.4325   -1.2414    0.4092 C   0  0  0  0  0  0  0  0  0  0  0  0
   -0.9868   -2.5268    0.5588 C   0  0  0  0  0  0  0  0  0  0  0  0
   -0.1289   -3.6291    0.5621 C   0  0  0  0  0  0  0  0  0  0  0  0
    1.2374   -3.4459    0.4216 C   0  0  0  0  0  0  0  0  0  0  0  0
    2.0975   -4.5065    0.4258 O   0  0  0  0  0  0  0  0  0  0  0  0
    1.7862   -2.1737    0.2662 C   0  0  0  0  0  0  0  0  0  0  0  0
    0.9421   -1.0384    0.2483 C   0  0  0  0  0  0  0  0  0  0  0  0
    5.8633   -0.7843    0.2529 H   0  0  0  0  0  0  0  0  0  0  0  0
    5.5979   -0.7640   -1.4859 H   0  0  0  0  0  0  0  0  0  0  0  0
    6.8016    0.3331   -0.7669 H   0  0  0  0  0  0  0  0  0  0  0  0
    4.9728    1.5407    0.4335 H   0  0  0  0  0  0  0  0  0  0  0  0
    4.7021    1.5623   -1.3384 H   0  0  0  0  0  0  0  0  0  0  0  0
   -1.4907    2.5606   -0.3368 H   0  0  0  0  0  0  0  0  0  0  0  0
    0.1662    2.8977   -0.7877 H   0  0  0  0  0  0  0  0  0  0  0  0
   -0.3074    2.9601    0.9245 H   0  0  0  0  0  0  0  0  0  0  0  0
   -2.8258   -0.5696    1.2996 H   0  0  0  0  0  0  0  0  0  0  0  0
   -2.5487    1.1836    1.1932 H   0  0  0  0  0  0  0  0  0  0  0  0
   -4.9398    0.1087    0.4649 H   0  0  0  0  0  0  0  0  0  0  0  0
   -5.0547    0.1133   -1.2830 H   0  0  0  0  0  0  0  0  0  0  0  0
   -4.4318    2.4928   -1.4210 H   0  0  0  0  0  0  0  0  0  0  0  0
   -4.1870    2.5751    0.3267 H   0  0  0  0  0  0  0  0  0  0  0  0
   -6.2525    3.3116   -0.3841 H   0  0  0  0  0  0  0  0  0  0  0  0
   -2.0577   -2.6738    0.6594 H   0  0  0  0  0  0  0  0  0  0  0  0
   -0.5524   -4.6223    0.6751 H   0  0  0  0  0  0  0  0  0  0  0  0
    1.5802   -5.3231    0.5162 H   0  0  0  0  0  0  0  0  0  0  0  0
    2.8612   -2.0749    0.1527 H   0  0  0  0  0  0  0  0  0  0  0  0
  1  2  1  0
  2  3  1  0
  3  4  1  0
  4  5  2  0
  4  6  1  0
  6  7  2  0
  7  8  1  0
  7  9  1  0
  9 10  1  0
 10 11  1  0
 11 12  1  0
 12 13  1  0
 13 14  1  0
  9 15  1  0
 15 16  2  0
 16 17  1  0
 17 18  2  0
 18 19  1  0
 18 20  1  0
 20 21  2  0
 21  6  1  0
 21 15  1  0
  1 22  1  0
  1 23  1  0
  1 24  1  0
  2 25  1  0
  2 26  1  0
  8 27  1  0
  8 28  1  0
  8 29  1  0
 10 30  1  0
 10 31  1  0
 12 32  1  0
 12 33  1  0
 13 34  1  0
 13 35  1  0
 14 36  1  0
 16 37  1  0
 17 38  1  0
 19 39  1  0
 20 40  1  0
M  END
$$$$
