
     RDKit          3D

 37 38  0  0  0  0  0  0  0  0999 V2000
    3.3101   -0.0257    2.4567 C   0  0  0  0  0  0  0  0  0  0  0  0
    4.2809    0.0980    1.2789 C   0  0  0  0  0  0  0  0  0  0  0  0
    5.7185    0.1577    1.8014 C   0  0  0  0  0  0  0  0  0  0  0  0
    3.9878    1.3382    0.4147 C   0  0  0  0  0  0  0  0  0  0  0  0
    2.6757    1.2541   -0.2993 C   0  0  0  0  0  0  0  0  0  0  0  0
    1.5537    1.7987    0.1273 N   0  0  0  0  0  0  0  0  0  0  0  0
    0.4990    1.5511   -0.7284 N   0  0  0  0  0  0  0  0  0  0  0  0
    0.8663    0.8202   -1.7529 C   0  0  0  0  0  0  0  0  0  0  0  0
   -0.0581    0.4487   -2.8034 N   0  0  0  0  0  0  0  0  0  0  0  0
   -1.2836   -0.5692   -2.2536 S   0  0  0  0  0  6  0  0  0  0  0  0
   -0.7265   -1.4361   -1.2361 O   0  0  0  0  0  0  0  0  0  0  0  0
   -1.8371   -1.1319   -3.4707 O   0  0  0  0  0  0  0  0  0  0  0  0
   -2.4642    0.5921   -1.5396 C   0  0  0  0  0  0  0  0  0  0  0  0
   -3.6888   -0.1663   -1.0965 C   0  0  0  0  0  0  0  0  0  0  0  0
   -4.7690   -0.3539   -1.9707 C   0  0  0  0  0  0  0  0  0  0  0  0
   -5.8987   -1.0615   -1.5573 C   0  0  0  0  0  0  0  0  0  0  0  0
   -5.9600   -1.5894   -0.2693 C   0  0  0  0  0  0  0  0  0  0  0  0
   -4.8906   -1.4134    0.6063 C   0  0  0  0  0  0  0  0  0  0  0  0
   -3.7596   -0.7066    0.1959 C   0  0  0  0  0  0  0  0  0  0  0  0
    2.5251    0.4287   -1.8033 S   0  0  0  0  0  0  0  0  0  0  0  0
    2.2807   -0.1646    2.1118 H   0  0  0  0  0  0  0  0  0  0  0  0
    3.3395    0.8666    3.0912 H   0  0  0  0  0  0  0  0  0  0  0  0
    3.5646   -0.8904    3.0790 H   0  0  0  0  0  0  0  0  0  0  0  0
    4.1861   -0.8064    0.6643 H   0  0  0  0  0  0  0  0  0  0  0  0
    6.4324    0.1996    0.9721 H   0  0  0  0  0  0  0  0  0  0  0  0
    5.8767    1.0402    2.4307 H   0  0  0  0  0  0  0  0  0  0  0  0
    5.9533   -0.7305    2.3976 H   0  0  0  0  0  0  0  0  0  0  0  0
    3.9933    2.2392    1.0416 H   0  0  0  0  0  0  0  0  0  0  0  0
    4.7895    1.4757   -0.3225 H   0  0  0  0  0  0  0  0  0  0  0  0
    0.3877    0.0376   -3.6212 H   0  0  0  0  0  0  0  0  0  0  0  0
   -2.7159    1.3331   -2.3046 H   0  0  0  0  0  0  0  0  0  0  0  0
   -2.0011    1.0968   -0.6890 H   0  0  0  0  0  0  0  0  0  0  0  0
   -4.7358    0.0400   -2.9847 H   0  0  0  0  0  0  0  0  0  0  0  0
   -6.7293   -1.2065   -2.2433 H   0  0  0  0  0  0  0  0  0  0  0  0
   -6.8384   -2.1438    0.0501 H   0  0  0  0  0  0  0  0  0  0  0  0
   -4.9343   -1.8319    1.6086 H   0  0  0  0  0  0  0  0  0  0  0  0
   -2.9298   -0.5882    0.8911 H   0  0  0  0  0  0  0  0  0  0  0  0
  1  2  1  0
  2  3  1  0
  2  4  1  0
  4  5  1  0
  5  6  2  0
  6  7  1  0
  7  8  2  0
  8  9  1  0
  9 10  1  0
 10 11  2  0
 10 12  2  0
 10 13  1  0
 13 14  1  0
 14 15  2  0
 15 16  1  0
 16 17  2  0
 17 18  1  0
 18 19  2  0
  8 20  1  0
 20  5  1  0
 19 14  1  0
  1 21  1  0
  1 22  1  0
  1 23  1  0
  2 24  1  0
  3 25  1  0
  3 26  1  0
  3 27  1  0
  4 28  1  0
  4 29  1  0
  9 30  1  0
 13 31  1  0
 13 32  1  0
 15 33  1  0
 16 34  1  0
 17 35  1  0
 18 36  1  0
 19 37  1  0
M  END
$$$$
