
     RDKit          3D

 54 56  0  0  0  0  0  0  0  0999 V2000
   -5.9187    0.7706    2.6406 C   0  0  0  0  0  0  0  0  0  0  0  0
   -5.9036    0.4033    1.1555 C   0  0  0  0  0  0  0  0  0  0  0  0
   -6.2977   -1.0611    0.9630 C   0  0  0  0  0  0  0  0  0  0  0  0
   -4.5618    0.7461    0.4763 C   0  0  0  0  0  0  0  0  0  0  0  0
   -3.3448   -0.0305    1.0112 C   0  0  0  0  0  0  0  0  0  0  0  0
   -2.0455    0.3096    0.4126 N   0  0  0  0  0  0  0  0  0  0  0  0
   -2.0027    0.1745   -1.0406 C   0  0  0  0  0  0  0  0  0  0  0  0
   -0.5441    0.0926   -1.4994 C   0  0  0  0  0  0  0  0  0  0  0  0
    0.3878    0.9650   -0.6409 C   0  0  0  0  0  0  0  0  0  0  0  0
    1.5599    1.3863   -1.3994 N   0  0  0  0  0  0  0  0  0  0  0  0
    1.4542    2.4539   -2.2219 N   0  0  0  0  0  0  0  0  0  0  0  0
    2.6724    2.5740   -2.7478 C   0  0  0  0  0  0  0  0  0  0  0  0
    3.5519    1.5806   -2.2902 C   0  0  0  0  0  0  0  0  0  0  0  0
    2.8121    0.7997   -1.4266 C   0  0  0  0  0  0  0  0  0  0  0  0
    3.1488   -0.3339   -0.7001 N   0  0  0  0  0  0  0  0  0  0  0  0
    4.4104   -0.9170   -0.7451 C   0  0  0  0  0  0  0  0  0  0  0  0
    5.3520   -0.5433   -1.4362 O   0  0  0  0  0  0  0  0  0  0  0  0
    4.5131   -2.1370    0.1684 C   0  0  0  0  0  0  0  0  0  0  0  0
    5.8390   -2.8594    0.0489 C   0  0  0  0  0  0  0  0  0  0  0  0
    6.7077   -2.1176    1.0395 C   0  0  0  0  0  0  0  0  0  0  0  0
    5.8426   -1.7415    2.1180 O   0  0  0  0  0  0  0  0  0  0  0  0
    4.4913   -1.7276    1.6330 C   0  0  0  0  0  0  0  0  0  0  0  0
   -0.3809    2.1310   -0.0083 C   0  0  0  0  0  0  0  0  0  0  0  0
   -1.5220    1.6043    0.8706 C   0  0  0  0  0  0  0  0  0  0  0  0
   -5.2572    0.1244    3.2278 H   0  0  0  0  0  0  0  0  0  0  0  0
   -6.9290    0.6648    3.0506 H   0  0  0  0  0  0  0  0  0  0  0  0
   -5.6067    1.8108    2.7894 H   0  0  0  0  0  0  0  0  0  0  0  0
   -6.6704    1.0148    0.6622 H   0  0  0  0  0  0  0  0  0  0  0  0
   -6.2667   -1.3380   -0.0965 H   0  0  0  0  0  0  0  0  0  0  0  0
   -7.3186   -1.2328    1.3238 H   0  0  0  0  0  0  0  0  0  0  0  0
   -5.6361   -1.7376    1.5136 H   0  0  0  0  0  0  0  0  0  0  0  0
   -4.6714    0.5568   -0.5999 H   0  0  0  0  0  0  0  0  0  0  0  0
   -4.3950    1.8240    0.5834 H   0  0  0  0  0  0  0  0  0  0  0  0
   -3.2653    0.0927    2.0979 H   0  0  0  0  0  0  0  0  0  0  0  0
   -3.5054   -1.1041    0.8515 H   0  0  0  0  0  0  0  0  0  0  0  0
   -2.5065    1.0188   -1.5314 H   0  0  0  0  0  0  0  0  0  0  0  0
   -2.5144   -0.7394   -1.3698 H   0  0  0  0  0  0  0  0  0  0  0  0
   -0.1938   -0.9470   -1.4458 H   0  0  0  0  0  0  0  0  0  0  0  0
   -0.4966    0.3753   -2.5586 H   0  0  0  0  0  0  0  0  0  0  0  0
    0.7641    0.3562    0.1911 H   0  0  0  0  0  0  0  0  0  0  0  0
    2.8693    3.3768   -3.4464 H   0  0  0  0  0  0  0  0  0  0  0  0
    4.5881    1.4514   -2.5685 H   0  0  0  0  0  0  0  0  0  0  0  0
    2.4382   -0.7737   -0.1312 H   0  0  0  0  0  0  0  0  0  0  0  0
    3.6769   -2.7997   -0.0825 H   0  0  0  0  0  0  0  0  0  0  0  0
    6.2695   -2.8784   -0.9567 H   0  0  0  0  0  0  0  0  0  0  0  0
    5.7144   -3.8968    0.3822 H   0  0  0  0  0  0  0  0  0  0  0  0
    7.1311   -1.2062    0.6061 H   0  0  0  0  0  0  0  0  0  0  0  0
    7.5256   -2.7340    1.4229 H   0  0  0  0  0  0  0  0  0  0  0  0
    3.9294   -2.4538    2.2300 H   0  0  0  0  0  0  0  0  0  0  0  0
    4.0666   -0.7367    1.8188 H   0  0  0  0  0  0  0  0  0  0  0  0
    0.2885    2.7601    0.5915 H   0  0  0  0  0  0  0  0  0  0  0  0
   -0.8001    2.7751   -0.7937 H   0  0  0  0  0  0  0  0  0  0  0  0
   -1.1516    1.4777    1.8941 H   0  0  0  0  0  0  0  0  0  0  0  0
   -2.2984    2.3760    0.9067 H   0  0  0  0  0  0  0  0  0  0  0  0
  1  2  1  0
  2  3  1  0
  2  4  1  0
  4  5  1  0
  5  6  1  0
  6  7  1  0
  7  8  1  0
  8  9  1  0
  9 10  1  0
 10 11  1  0
 11 12  2  0
 12 13  1  0
 13 14  2  0
 14 15  1  0
 15 16  1  0
 16 17  2  0
 16 18  1  0
 18 19  1  0
 19 20  1  0
 20 21  1  0
 21 22  1  0
  9 23  1  0
 23 24  1  0
 24  6  1  0
 14 10  1  0
 22 18  1  0
  1 25  1  0
  1 26  1  0
  1 27  1  0
  2 28  1  0
  3 29  1  0
  3 30  1  0
  3 31  1  0
  4 32  1  0
  4 33  1  0
  5 34  1  0
  5 35  1  0
  7 36  1  0
  7 37  1  0
  8 38  1  0
  8 39  1  0
  9 40  1  0
 12 41  1  0
 13 42  1  0
 15 43  1  0
 18 44  1  0
 19 45  1  0
 19 46  1  0
 20 47  1  0
 20 48  1  0
 22 49  1  0
 22 50  1  0
 23 51  1  0
 23 52  1  0
 24 53  1  0
 24 54  1  0
M  END
$$$$
