
     RDKit          3D

 40 43  0  0  0  0  0  0  0  0999 V2000
   -0.7041    0.7739    3.1935 C   0  0  0  0  0  0  0  0  0  0  0  0
   -1.8682    1.5837    2.7499 C   0  0  0  0  0  0  0  0  0  0  0  0
   -2.4634    2.4197    3.6918 N   0  0  0  0  0  0  0  0  0  0  0  0
   -3.4495    3.1314    3.1725 N   0  0  0  0  0  0  0  0  0  0  0  0
   -3.6946    2.8141    1.5510 S   0  0  0  0  0  0  0  0  0  0  0  0
   -2.4552    1.6276    1.4912 C   0  0  0  0  0  0  0  0  0  0  0  0
   -2.1613    0.9124    0.2971 C   0  0  0  0  0  0  0  0  0  0  0  0
   -1.9227    1.4781   -0.8729 N   0  0  0  0  0  0  0  0  0  0  0  0
   -1.6015    0.4846   -1.7740 N   0  0  0  0  0  0  0  0  0  0  0  0
   -1.6941   -0.6640   -1.1425 C   0  0  0  0  0  0  0  0  0  0  0  0
   -1.2169   -2.2032   -1.7686 S   0  0  0  0  0  0  0  0  0  0  0  0
    0.4359   -1.7555   -2.3855 C   0  0  0  0  0  0  0  0  0  0  0  0
    1.3136   -1.1540   -1.2939 C   0  0  0  0  0  0  0  0  0  0  0  0
    1.1246   -1.3340   -0.0890 O   0  0  0  0  0  0  0  0  0  0  0  0
    2.4696   -0.3059   -1.7134 C   0  0  0  0  0  0  0  0  0  0  0  0
    3.0022   -0.3552   -3.0080 C   0  0  0  0  0  0  0  0  0  0  0  0
    4.0783    0.4709   -3.3561 C   0  0  0  0  0  0  0  0  0  0  0  0
    4.6313    1.3476   -2.4154 C   0  0  0  0  0  0  0  0  0  0  0  0
    5.7269    2.1973   -2.7828 C   0  0  0  0  0  0  0  0  0  0  0  0
    6.6112    2.8825   -3.0929 N   0  0  0  0  0  0  0  0  0  0  0  0
    4.1070    1.3918   -1.1210 C   0  0  0  0  0  0  0  0  0  0  0  0
    3.0340    0.5652   -0.7704 C   0  0  0  0  0  0  0  0  0  0  0  0
   -2.0895   -0.4494    0.1461 N   0  0  0  0  0  0  0  0  0  0  0  0
   -2.3153   -1.4817    1.1849 C   0  0  0  0  0  0  0  0  0  0  0  0
   -3.5284   -1.4944    2.0888 C   0  0  0  0  0  0  0  0  0  0  0  0
   -3.3817   -2.5450    1.0334 C   0  0  0  0  0  0  0  0  0  0  0  0
   -0.1251    1.3168    3.9472 H   0  0  0  0  0  0  0  0  0  0  0  0
   -0.0330    0.5476    2.3587 H   0  0  0  0  0  0  0  0  0  0  0  0
   -1.0429   -0.1658    3.6384 H   0  0  0  0  0  0  0  0  0  0  0  0
    0.9199   -2.6595   -2.7636 H   0  0  0  0  0  0  0  0  0  0  0  0
    0.3064   -1.0447   -3.2061 H   0  0  0  0  0  0  0  0  0  0  0  0
    2.6076   -1.0288   -3.7647 H   0  0  0  0  0  0  0  0  0  0  0  0
    4.4805    0.4266   -4.3676 H   0  0  0  0  0  0  0  0  0  0  0  0
    4.5242    2.0679   -0.3765 H   0  0  0  0  0  0  0  0  0  0  0  0
    2.6331    0.6144    0.2416 H   0  0  0  0  0  0  0  0  0  0  0  0
   -1.3749   -1.8118    1.6206 H   0  0  0  0  0  0  0  0  0  0  0  0
   -4.3105   -0.7556    1.9490 H   0  0  0  0  0  0  0  0  0  0  0  0
   -3.3913   -1.7920    3.1229 H   0  0  0  0  0  0  0  0  0  0  0  0
   -4.0441   -2.4994    0.1749 H   0  0  0  0  0  0  0  0  0  0  0  0
   -3.1378   -3.5541    1.3481 H   0  0  0  0  0  0  0  0  0  0  0  0
  1  2  1  0
  2  3  1  0
  3  4  2  0
  4  5  1  0
  5  6  1  0
  6  7  1  0
  7  8  2  0
  8  9  1  0
  9 10  2  0
 10 11  1  0
 11 12  1  0
 12 13  1  0
 13 14  2  0
 13 15  1  0
 15 16  2  0
 16 17  1  0
 17 18  2  0
 18 19  1  0
 19 20  3  0
 18 21  1  0
 21 22  2  0
 10 23  1  0
 23 24  1  0
 24 25  1  0
 25 26  1  0
  6  2  2  0
 23  7  1  0
 26 24  1  0
 22 15  1  0
  1 27  1  0
  1 28  1  0
  1 29  1  0
 12 30  1  0
 12 31  1  0
 16 32  1  0
 17 33  1  0
 21 34  1  0
 22 35  1  0
 24 36  1  0
 25 37  1  0
 25 38  1  0
 26 39  1  0
 26 40  1  0
M  END
$$$$
