
     RDKit          3D

 45 47  0  0  0  0  0  0  0  0999 V2000
   -6.0577   -1.3616   -1.0421 C   0  0  0  0  0  0  0  0  0  0  0  0
   -5.2776   -0.4121   -1.9053 C   0  0  0  0  0  0  0  0  0  0  0  0
   -5.1741   -0.6493   -3.2817 C   0  0  0  0  0  0  0  0  0  0  0  0
   -4.4697    0.2317   -4.0979 C   0  0  0  0  0  0  0  0  0  0  0  0
   -3.8578    1.3600   -3.5495 C   0  0  0  0  0  0  0  0  0  0  0  0
   -3.9394    1.6146   -2.1732 C   0  0  0  0  0  0  0  0  0  0  0  0
   -3.2565    2.8116   -1.5644 C   0  0  0  0  0  0  0  0  0  0  0  0
   -1.4772    2.5898   -1.5166 S   0  0  0  0  0  6  0  0  0  0  0  0
   -0.9806    2.5644   -2.8846 O   0  0  0  0  0  0  0  0  0  0  0  0
   -0.9729    3.5937   -0.5925 O   0  0  0  0  0  0  0  0  0  0  0  0
   -1.2606    0.9659   -0.7891 C   0  0  0  0  0  0  0  0  0  0  0  0
    0.1723    0.7406   -0.4904 C   0  0  0  0  0  0  0  0  0  0  0  0
    1.3101    0.6436   -1.2623 C   0  0  0  0  0  0  0  0  0  0  0  0
    2.3721    0.3619   -0.3668 C   0  0  0  0  0  0  0  0  0  0  0  0
    1.8258    0.3011    0.9057 C   0  0  0  0  0  0  0  0  0  0  0  0
    2.3837    0.0577    2.2264 C   0  0  0  0  0  0  0  0  0  0  0  0
    1.7455    0.1832    3.2720 O   0  0  0  0  0  0  0  0  0  0  0  0
    3.7091   -0.3322    2.2359 N   0  0  0  0  0  0  0  0  0  0  0  0
    4.4160   -0.5485    3.4771 C   0  0  0  0  0  0  0  0  0  0  0  0
    5.4825   -1.5521    3.2470 C   0  0  0  0  0  0  0  0  0  0  0  0
    6.7963   -1.4607    2.8216 C   0  0  0  0  0  0  0  0  0  0  0  0
    7.3019   -2.7866    2.8092 C   0  0  0  0  0  0  0  0  0  0  0  0
    6.2709   -3.5979    3.2262 C   0  0  0  0  0  0  0  0  0  0  0  0
    5.1627   -2.8588    3.4856 O   0  0  0  0  0  0  0  0  0  0  0  0
    0.4779    0.5277    0.8189 O   0  0  0  0  0  0  0  0  0  0  0  0
   -4.6723    0.7297   -1.3611 C   0  0  0  0  0  0  0  0  0  0  0  0
   -5.8618   -1.1887    0.0258 H   0  0  0  0  0  0  0  0  0  0  0  0
   -5.7732   -2.4007   -1.2646 H   0  0  0  0  0  0  0  0  0  0  0  0
   -7.1303   -1.2341   -1.2241 H   0  0  0  0  0  0  0  0  0  0  0  0
   -5.6449   -1.5236   -3.7268 H   0  0  0  0  0  0  0  0  0  0  0  0
   -4.3948    0.0393   -5.1669 H   0  0  0  0  0  0  0  0  0  0  0  0
   -3.3084    2.0323   -4.2079 H   0  0  0  0  0  0  0  0  0  0  0  0
   -3.5867    2.9666   -0.5326 H   0  0  0  0  0  0  0  0  0  0  0  0
   -3.4740    3.7245   -2.1315 H   0  0  0  0  0  0  0  0  0  0  0  0
   -1.6147    0.2163   -1.5026 H   0  0  0  0  0  0  0  0  0  0  0  0
   -1.8659    0.9293    0.1207 H   0  0  0  0  0  0  0  0  0  0  0  0
    1.3650    0.7646   -2.3374 H   0  0  0  0  0  0  0  0  0  0  0  0
    3.4114    0.2325   -0.6305 H   0  0  0  0  0  0  0  0  0  0  0  0
    4.2217   -0.4126    1.3707 H   0  0  0  0  0  0  0  0  0  0  0  0
    4.8655    0.4081    3.7716 H   0  0  0  0  0  0  0  0  0  0  0  0
    3.7338   -0.8664    4.2695 H   0  0  0  0  0  0  0  0  0  0  0  0
    7.3257   -0.5553    2.5390 H   0  0  0  0  0  0  0  0  0  0  0  0
    8.2969   -3.1094    2.5307 H   0  0  0  0  0  0  0  0  0  0  0  0
    6.1705   -4.6636    3.3828 H   0  0  0  0  0  0  0  0  0  0  0  0
   -4.7664    0.9232   -0.2955 H   0  0  0  0  0  0  0  0  0  0  0  0
  1  2  1  0
  2  3  2  0
  3  4  1  0
  4  5  2  0
  5  6  1  0
  6  7  1  0
  7  8  1  0
  8  9  2  0
  8 10  2  0
  8 11  1  0
 11 12  1  0
 12 13  2  0
 13 14  1  0
 14 15  2  0
 15 16  1  0
 16 17  2  0
 16 18  1  0
 18 19  1  0
 19 20  1  0
 20 21  2  0
 21 22  1  0
 22 23  2  0
 23 24  1  0
 15 25  1  0
  6 26  2  0
 26  2  1  0
 25 12  1  0
 24 20  1  0
  1 27  1  0
  1 28  1  0
  1 29  1  0
  3 30  1  0
  4 31  1  0
  5 32  1  0
  7 33  1  0
  7 34  1  0
 11 35  1  0
 11 36  1  0
 13 37  1  0
 14 38  1  0
 18 39  1  0
 19 40  1  0
 19 41  1  0
 21 42  1  0
 22 43  1  0
 23 44  1  0
 26 45  1  0
M  END
$$$$
