
     RDKit          3D

 46 49  0  0  0  0  0  0  0  0999 V2000
   -2.0227   -1.4965   -3.5850 C   0  0  0  0  0  0  0  0  0  0  0  0
   -0.8227   -1.0149   -2.9198 N   0  0  0  0  0  0  0  0  0  0  0  0
   -0.0408   -0.0170   -3.6296 C   0  0  0  0  0  0  0  0  0  0  0  0
   -0.9853   -0.7579   -1.5361 N   0  0  0  0  0  0  0  0  0  0  0  0
   -1.8656    0.2476   -1.0946 C   0  0  0  0  0  0  0  0  0  0  0  0
   -2.4957    1.1206   -1.8200 N   0  0  0  0  0  0  0  0  0  0  0  0
   -2.1350    0.3237    0.4113 C   0  0  0  0  0  0  0  0  0  0  0  0
   -3.2136   -0.6342    0.7193 C   0  0  0  0  0  0  0  0  0  0  0  0
   -4.0404   -1.4078    0.9770 N   0  0  0  0  0  0  0  0  0  0  0  0
   -0.8726   -0.0033    1.2356 C   0  0  0  0  0  0  0  0  0  0  0  0
    0.0161    1.2264    1.4553 C   0  0  0  0  0  0  0  0  0  0  0  0
    0.5515    1.9766    0.3795 C   0  0  0  0  0  0  0  0  0  0  0  0
    1.3629    3.0947    0.6066 C   0  0  0  0  0  0  0  0  0  0  0  0
    1.6315    3.4411    1.9111 C   0  0  0  0  0  0  0  0  0  0  0  0
    1.1285    2.7204    2.9654 C   0  0  0  0  0  0  0  0  0  0  0  0
    0.3267    1.6144    2.7734 C   0  0  0  0  0  0  0  0  0  0  0  0
    1.5139    3.2232    4.1685 O   0  0  0  0  0  0  0  0  0  0  0  0
    2.3213    4.3420    3.7485 C   0  0  0  0  0  0  0  0  0  0  0  0
    2.3978    4.4888    2.3149 O   0  0  0  0  0  0  0  0  0  0  0  0
   -0.0904   -1.1630    0.6532 C   0  0  0  0  0  0  0  0  0  0  0  0
   -0.1822   -1.5069   -0.6507 C   0  0  0  0  0  0  0  0  0  0  0  0
    0.5767   -2.7045   -1.2037 C   0  0  0  0  0  0  0  0  0  0  0  0
    1.0155   -3.6962   -0.1317 C   0  0  0  0  0  0  0  0  0  0  0  0
    1.6975   -2.9840    1.0178 C   0  0  0  0  0  0  0  0  0  0  0  0
    0.7790   -1.9351    1.5919 C   0  0  0  0  0  0  0  0  0  0  0  0
    0.7725   -1.6861    2.7954 O   0  0  0  0  0  0  0  0  0  0  0  0
   -2.7648   -0.7169   -3.7755 H   0  0  0  0  0  0  0  0  0  0  0  0
   -1.7588   -1.9416   -4.5508 H   0  0  0  0  0  0  0  0  0  0  0  0
   -2.5024   -2.2885   -2.9985 H   0  0  0  0  0  0  0  0  0  0  0  0
   -0.5725    0.9216   -3.8038 H   0  0  0  0  0  0  0  0  0  0  0  0
    0.8826    0.2137   -3.0860 H   0  0  0  0  0  0  0  0  0  0  0  0
    0.2645   -0.4084   -4.6064 H   0  0  0  0  0  0  0  0  0  0  0  0
   -2.2624    0.9758   -2.8014 H   0  0  0  0  0  0  0  0  0  0  0  0
   -2.4941    1.3323    0.6559 H   0  0  0  0  0  0  0  0  0  0  0  0
   -1.2335   -0.3140    2.2280 H   0  0  0  0  0  0  0  0  0  0  0  0
    0.3503    1.7029   -0.6528 H   0  0  0  0  0  0  0  0  0  0  0  0
    1.7696    3.6711   -0.2168 H   0  0  0  0  0  0  0  0  0  0  0  0
   -0.0370    1.0580    3.6329 H   0  0  0  0  0  0  0  0  0  0  0  0
    3.3358    4.2099    4.1419 H   0  0  0  0  0  0  0  0  0  0  0  0
    1.8968    5.2595    4.1723 H   0  0  0  0  0  0  0  0  0  0  0  0
   -0.0473   -3.2593   -1.9146 H   0  0  0  0  0  0  0  0  0  0  0  0
    1.4564   -2.3422   -1.7506 H   0  0  0  0  0  0  0  0  0  0  0  0
    1.6906   -4.4410   -0.5678 H   0  0  0  0  0  0  0  0  0  0  0  0
    0.1369   -4.2390    0.2410 H   0  0  0  0  0  0  0  0  0  0  0  0
    2.6250   -2.4981    0.6966 H   0  0  0  0  0  0  0  0  0  0  0  0
    1.9399   -3.7081    1.8030 H   0  0  0  0  0  0  0  0  0  0  0  0
  1  2  1  0
  2  3  1  0
  2  4  1  0
  4  5  1  0
  5  6  2  3
  5  7  1  0
  7  8  1  0
  8  9  3  0
  7 10  1  0
 10 11  1  0
 11 12  2  0
 12 13  1  0
 13 14  2  0
 14 15  1  0
 15 16  2  0
 15 17  1  0
 17 18  1  0
 18 19  1  0
 10 20  1  0
 20 21  2  0
 21 22  1  0
 22 23  1  0
 23 24  1  0
 24 25  1  0
 25 26  2  0
 21  4  1  0
 16 11  1  0
 25 20  1  0
 19 14  1  0
  1 27  1  0
  1 28  1  0
  1 29  1  0
  3 30  1  0
  3 31  1  0
  3 32  1  0
  6 33  1  0
  7 34  1  0
 10 35  1  0
 12 36  1  0
 13 37  1  0
 16 38  1  0
 18 39  1  0
 18 40  1  0
 22 41  1  0
 22 42  1  0
 23 43  1  0
 23 44  1  0
 24 45  1  0
 24 46  1  0
M  END
$$$$
