
     RDKit          3D

 37 38  0  0  0  0  0  0  0  0999 V2000
   -3.0869    2.8928   -0.1944 C   0  0  0  0  0  0  0  0  0  0  0  0
   -2.1323    1.9402   -0.6428 O   0  0  0  0  0  0  0  0  0  0  0  0
   -2.2682    0.6490   -0.2008 C   0  0  0  0  0  0  0  0  0  0  0  0
   -3.3030    0.2011    0.6335 C   0  0  0  0  0  0  0  0  0  0  0  0
   -3.3955   -1.1411    1.0195 C   0  0  0  0  0  0  0  0  0  0  0  0
   -4.3699   -1.5452    1.9428 N   0  0  0  0  0  0  0  0  0  0  0  0
   -2.3775   -2.0169    0.6490 C   0  0  0  0  0  0  0  0  0  0  0  0
   -1.3429   -1.5882   -0.1830 C   0  0  0  0  0  0  0  0  0  0  0  0
   -1.2822   -0.2579   -0.6287 C   0  0  0  0  0  0  0  0  0  0  0  0
   -0.1330    0.1613   -1.5248 C   0  0  0  0  0  0  0  0  0  0  0  0
    1.1633    0.4092   -0.7783 C   0  0  0  0  0  0  0  0  0  0  0  0
    1.3359    1.6314   -0.1088 C   0  0  0  0  0  0  0  0  0  0  0  0
    2.5061    1.8979    0.6024 C   0  0  0  0  0  0  0  0  0  0  0  0
    3.5078    0.9349    0.7008 C   0  0  0  0  0  0  0  0  0  0  0  0
    4.7258    1.2475    1.3212 N   0  0  0  0  0  0  0  0  0  0  0  0
    3.3666   -0.2603   -0.0138 C   0  0  0  0  0  0  0  0  0  0  0  0
    2.1970   -0.5435   -0.7343 C   0  0  0  0  0  0  0  0  0  0  0  0
    1.9761   -1.7056   -1.4288 O   0  0  0  0  0  0  0  0  0  0  0  0
    3.0100   -2.6806   -1.4243 C   0  0  0  0  0  0  0  0  0  0  0  0
   -3.0569    2.9998    0.8949 H   0  0  0  0  0  0  0  0  0  0  0  0
   -4.0933    2.6376   -0.5420 H   0  0  0  0  0  0  0  0  0  0  0  0
   -2.8215    3.8611   -0.6298 H   0  0  0  0  0  0  0  0  0  0  0  0
   -4.0589    0.8862    0.9999 H   0  0  0  0  0  0  0  0  0  0  0  0
   -5.2225   -0.9961    1.9054 H   0  0  0  0  0  0  0  0  0  0  0  0
   -4.5546   -2.5434    1.9265 H   0  0  0  0  0  0  0  0  0  0  0  0
   -2.3788   -3.0442    1.0022 H   0  0  0  0  0  0  0  0  0  0  0  0
   -0.5682   -2.2949   -0.4733 H   0  0  0  0  0  0  0  0  0  0  0  0
   -0.3905    1.0628   -2.0958 H   0  0  0  0  0  0  0  0  0  0  0  0
    0.0022   -0.6011   -2.3030 H   0  0  0  0  0  0  0  0  0  0  0  0
    0.5547    2.3877   -0.1471 H   0  0  0  0  0  0  0  0  0  0  0  0
    2.6215    2.8644    1.0846 H   0  0  0  0  0  0  0  0  0  0  0  0
    4.6398    1.9528    2.0465 H   0  0  0  0  0  0  0  0  0  0  0  0
    5.2433    0.4340    1.6379 H   0  0  0  0  0  0  0  0  0  0  0  0
    4.1907   -0.9640    0.0095 H   0  0  0  0  0  0  0  0  0  0  0  0
    3.2060   -3.0441   -0.4103 H   0  0  0  0  0  0  0  0  0  0  0  0
    3.9211   -2.2929   -1.8916 H   0  0  0  0  0  0  0  0  0  0  0  0
    2.6680   -3.5319   -2.0208 H   0  0  0  0  0  0  0  0  0  0  0  0
  1  2  1  0
  2  3  1  0
  3  4  2  0
  4  5  1  0
  5  6  1  0
  5  7  2  0
  7  8  1  0
  8  9  2  0
  9 10  1  0
 10 11  1  0
 11 12  2  0
 12 13  1  0
 13 14  2  0
 14 15  1  0
 14 16  1  0
 16 17  2  0
 17 18  1  0
 18 19  1  0
  9  3  1  0
 17 11  1  0
  1 20  1  0
  1 21  1  0
  1 22  1  0
  4 23  1  0
  6 24  1  0
  6 25  1  0
  7 26  1  0
  8 27  1  0
 10 28  1  0
 10 29  1  0
 12 30  1  0
 13 31  1  0
 15 32  1  0
 15 33  1  0
 16 34  1  0
 19 35  1  0
 19 36  1  0
 19 37  1  0
M  END
$$$$
