
     RDKit          3D

 43 46  0  0  0  0  0  0  0  0999 V2000
   -4.5801    0.1325   -3.8942 N   0  0  0  0  0  0  0  0  0  0  0  0
   -3.6941    0.6751   -4.4123 C   0  0  0  0  0  0  0  0  0  0  0  0
   -2.5870    1.4020   -5.0467 C   0  0  0  0  0  0  0  0  0  0  0  0
   -2.0253    2.4571   -4.1076 C   0  0  0  0  0  0  0  0  0  0  0  0
   -1.2617    1.8730   -3.0220 N   0  0  0  0  0  0  0  0  0  0  0  0
   -1.6754    1.6674   -1.7418 C   0  0  0  0  0  0  0  0  0  0  0  0
   -0.6232    1.0493   -1.1072 C   0  0  0  0  0  0  0  0  0  0  0  0
   -0.6639    0.6214    0.2526 C   0  0  0  0  0  0  0  0  0  0  0  0
   -0.4594   -0.6317    0.7093 C   0  0  0  0  0  0  0  0  0  0  0  0
   -0.1750   -1.7380   -0.1449 C   0  0  0  0  0  0  0  0  0  0  0  0
    0.0293   -2.6440   -0.8429 N   0  0  0  0  0  0  0  0  0  0  0  0
   -0.5408   -0.8675    2.1124 C   0  0  0  0  0  0  0  0  0  0  0  0
    0.4793   -1.0417    2.9277 N   0  0  0  0  0  0  0  0  0  0  0  0
    0.0381   -1.2835    4.2188 C   0  0  0  0  0  0  0  0  0  0  0  0
    0.8584   -1.5385    5.3371 C   0  0  0  0  0  0  0  0  0  0  0  0
    0.2806   -1.7611    6.5898 C   0  0  0  0  0  0  0  0  0  0  0  0
   -1.1005   -1.7305    6.7400 C   0  0  0  0  0  0  0  0  0  0  0  0
   -1.9383   -1.4849    5.6446 C   0  0  0  0  0  0  0  0  0  0  0  0
   -1.3443   -1.2670    4.3912 C   0  0  0  0  0  0  0  0  0  0  0  0
   -2.0958   -0.9588    2.8749 S   0  0  0  0  0  0  0  0  0  0  0  0
    0.4207    0.9745   -2.0781 C   0  0  0  0  0  0  0  0  0  0  0  0
    1.7925    0.4845   -1.9281 C   0  0  0  0  0  0  0  0  0  0  0  0
    2.5664    0.8538   -0.8176 C   0  0  0  0  0  0  0  0  0  0  0  0
    3.8770    0.3945   -0.6891 C   0  0  0  0  0  0  0  0  0  0  0  0
    4.4139   -0.4308   -1.6697 C   0  0  0  0  0  0  0  0  0  0  0  0
    5.6771   -0.8602   -1.5485 F   0  0  0  0  0  0  0  0  0  0  0  0
    3.6661   -0.8065   -2.7774 C   0  0  0  0  0  0  0  0  0  0  0  0
    2.3544   -0.3458   -2.9088 C   0  0  0  0  0  0  0  0  0  0  0  0
   -0.0086    1.4608   -3.2569 N   0  0  0  0  0  0  0  0  0  0  0  0
   -2.9586    1.8951   -5.9516 H   0  0  0  0  0  0  0  0  0  0  0  0
   -1.8088    0.6982   -5.3609 H   0  0  0  0  0  0  0  0  0  0  0  0
   -1.3451    3.1232   -4.6502 H   0  0  0  0  0  0  0  0  0  0  0  0
   -2.8140    3.0766   -3.6665 H   0  0  0  0  0  0  0  0  0  0  0  0
   -2.6676    1.9386   -1.4095 H   0  0  0  0  0  0  0  0  0  0  0  0
   -0.9107    1.4040    0.9715 H   0  0  0  0  0  0  0  0  0  0  0  0
    1.9390   -1.5649    5.2164 H   0  0  0  0  0  0  0  0  0  0  0  0
    0.9166   -1.9600    7.4496 H   0  0  0  0  0  0  0  0  0  0  0  0
   -1.5373   -1.9027    7.7209 H   0  0  0  0  0  0  0  0  0  0  0  0
   -3.0165   -1.4648    5.7630 H   0  0  0  0  0  0  0  0  0  0  0  0
    2.1665    1.5156   -0.0557 H   0  0  0  0  0  0  0  0  0  0  0  0
    4.4841    0.6786    0.1637 H   0  0  0  0  0  0  0  0  0  0  0  0
    4.1042   -1.4534   -3.5313 H   0  0  0  0  0  0  0  0  0  0  0  0
    1.7680   -0.6395   -3.7765 H   0  0  0  0  0  0  0  0  0  0  0  0
  1  2  3  0
  2  3  1  0
  3  4  1  0
  4  5  1  0
  5  6  1  0
  6  7  2  0
  7  8  1  0
  8  9  2  3
  9 10  1  0
 10 11  3  0
  9 12  1  0
 12 13  2  0
 13 14  1  0
 14 15  2  0
 15 16  1  0
 16 17  2  0
 17 18  1  0
 18 19  2  0
 19 20  1  0
  7 21  1  0
 21 22  1  0
 22 23  2  0
 23 24  1  0
 24 25  2  0
 25 26  1  0
 25 27  1  0
 27 28  2  0
 21 29  2  0
 29  5  1  0
 20 12  1  0
 28 22  1  0
 19 14  1  0
  3 30  1  0
  3 31  1  0
  4 32  1  0
  4 33  1  0
  6 34  1  0
  8 35  1  0
 15 36  1  0
 16 37  1  0
 17 38  1  0
 18 39  1  0
 23 40  1  0
 24 41  1  0
 27 42  1  0
 28 43  1  0
M  END
$$$$
