
     RDKit          3D

 55 56  0  0  0  0  0  0  0  0999 V2000
   -3.8140   -1.0903    1.4728 C   0  0  0  0  0  0  0  0  0  0  0  0
   -3.0484    0.1446    0.9949 C   0  0  0  0  0  0  0  0  0  0  0  0
   -1.6928    0.1108    1.5259 N   0  0  0  0  0  0  0  0  0  0  0  0
   -1.1008    1.2284    2.0750 C   0  0  0  0  0  0  0  0  0  0  0  0
   -1.6954    2.2783    2.2983 O   0  0  0  0  0  0  0  0  0  0  0  0
    0.3668    1.0294    2.3775 C   0  0  0  0  0  0  0  0  0  0  0  0
    1.0239    2.3341    2.8075 C   0  0  0  0  0  0  0  0  0  0  0  0
    2.8371    2.1277    2.8709 S   0  0  0  0  0  0  0  0  0  0  0  0
    3.3437    3.0740    1.3826 C   0  0  0  0  0  0  0  0  0  0  0  0
    2.7850    2.5640    0.0582 C   0  0  0  0  0  0  0  0  0  0  0  0
    3.3376    1.2038   -0.3063 C   0  0  0  0  0  0  0  0  0  0  0  0
    4.5322    0.9365   -0.2475 O   0  0  0  0  0  0  0  0  0  0  0  0
    2.3786    0.3113   -0.7220 N   0  0  0  0  0  0  0  0  0  0  0  0
    2.6915   -1.0752   -1.0185 C   0  0  0  0  0  0  0  0  0  0  0  0
    2.9895   -1.2460   -2.5097 C   0  0  0  0  0  0  0  0  0  0  0  0
    1.5731   -1.9501   -0.4741 C   0  0  0  0  0  0  0  0  0  0  0  0
    1.5949   -2.3009    0.8882 C   0  0  0  0  0  0  0  0  0  0  0  0
    0.5866   -3.0897    1.4451 C   0  0  0  0  0  0  0  0  0  0  0  0
   -0.4626   -3.5391    0.6491 C   0  0  0  0  0  0  0  0  0  0  0  0
   -0.5074   -3.1899   -0.6981 C   0  0  0  0  0  0  0  0  0  0  0  0
    0.4954   -2.3910   -1.2547 C   0  0  0  0  0  0  0  0  0  0  0  0
   -2.9883    0.3274   -0.5160 C   0  0  0  0  0  0  0  0  0  0  0  0
   -2.7487    1.6147   -1.0325 C   0  0  0  0  0  0  0  0  0  0  0  0
   -2.6573    1.8332   -2.4078 C   0  0  0  0  0  0  0  0  0  0  0  0
   -2.7979    0.7686   -3.2923 C   0  0  0  0  0  0  0  0  0  0  0  0
   -3.0317   -0.5125   -2.8020 C   0  0  0  0  0  0  0  0  0  0  0  0
   -3.1254   -0.7323   -1.4240 C   0  0  0  0  0  0  0  0  0  0  0  0
   -3.8901   -1.0890    2.5664 H   0  0  0  0  0  0  0  0  0  0  0  0
   -4.8308   -1.1101    1.0649 H   0  0  0  0  0  0  0  0  0  0  0  0
   -3.3105   -2.0224    1.1918 H   0  0  0  0  0  0  0  0  0  0  0  0
   -3.5752    1.0134    1.4090 H   0  0  0  0  0  0  0  0  0  0  0  0
   -1.0963   -0.6455    1.2065 H   0  0  0  0  0  0  0  0  0  0  0  0
    0.8365    0.6382    1.4719 H   0  0  0  0  0  0  0  0  0  0  0  0
    0.4571    0.2741    3.1668 H   0  0  0  0  0  0  0  0  0  0  0  0
    0.7624    3.1659    2.1471 H   0  0  0  0  0  0  0  0  0  0  0  0
    0.6810    2.6070    3.8114 H   0  0  0  0  0  0  0  0  0  0  0  0
    3.0393    4.1156    1.5328 H   0  0  0  0  0  0  0  0  0  0  0  0
    4.4391    3.0647    1.3596 H   0  0  0  0  0  0  0  0  0  0  0  0
    1.6908    2.5583    0.0650 H   0  0  0  0  0  0  0  0  0  0  0  0
    3.0843    3.2490   -0.7444 H   0  0  0  0  0  0  0  0  0  0  0  0
    1.4334    0.6249   -0.8980 H   0  0  0  0  0  0  0  0  0  0  0  0
    3.6137   -1.3492   -0.4869 H   0  0  0  0  0  0  0  0  0  0  0  0
    3.1851   -2.2951   -2.7558 H   0  0  0  0  0  0  0  0  0  0  0  0
    3.8729   -0.6627   -2.7942 H   0  0  0  0  0  0  0  0  0  0  0  0
    2.1633   -0.8954   -3.1376 H   0  0  0  0  0  0  0  0  0  0  0  0
    2.4112   -1.9579    1.5246 H   0  0  0  0  0  0  0  0  0  0  0  0
    0.6276   -3.3615    2.4974 H   0  0  0  0  0  0  0  0  0  0  0  0
   -1.2409   -4.1673    1.0754 H   0  0  0  0  0  0  0  0  0  0  0  0
   -1.3240   -3.5435   -1.3232 H   0  0  0  0  0  0  0  0  0  0  0  0
    0.4196   -2.1282   -2.3066 H   0  0  0  0  0  0  0  0  0  0  0  0
   -2.6384    2.4600   -0.3542 H   0  0  0  0  0  0  0  0  0  0  0  0
   -2.4834    2.8388   -2.7858 H   0  0  0  0  0  0  0  0  0  0  0  0
   -2.7342    0.9387   -4.3639 H   0  0  0  0  0  0  0  0  0  0  0  0
   -3.1476   -1.3448   -3.4925 H   0  0  0  0  0  0  0  0  0  0  0  0
   -3.3114   -1.7456   -1.0777 H   0  0  0  0  0  0  0  0  0  0  0  0
  1  2  1  0
  2  3  1  0
  3  4  1  0
  4  5  2  0
  4  6  1  0
  6  7  1  0
  7  8  1  0
  8  9  1  0
  9 10  1  0
 10 11  1  0
 11 12  2  0
 11 13  1  0
 13 14  1  0
 14 15  1  0
 14 16  1  0
 16 17  2  0
 17 18  1  0
 18 19  2  0
 19 20  1  0
 20 21  2  0
  2 22  1  0
 22 23  2  0
 23 24  1  0
 24 25  2  0
 25 26  1  0
 26 27  2  0
 21 16  1  0
 27 22  1  0
  1 28  1  0
  1 29  1  0
  1 30  1  0
  2 31  1  0
  3 32  1  0
  6 33  1  0
  6 34  1  0
  7 35  1  0
  7 36  1  0
  9 37  1  0
  9 38  1  0
 10 39  1  0
 10 40  1  0
 13 41  1  0
 14 42  1  0
 15 43  1  0
 15 44  1  0
 15 45  1  0
 17 46  1  0
 18 47  1  0
 19 48  1  0
 20 49  1  0
 21 50  1  0
 23 51  1  0
 24 52  1  0
 25 53  1  0
 26 54  1  0
 27 55  1  0
M  END
$$$$
