
     RDKit          3D

 37 38  0  0  0  0  0  0  0  0999 V2000
    3.8858   -0.1305   -0.8953 C   0  0  0  0  0  0  0  0  0  0  0  0
    3.9966    0.4216    0.5288 C   0  0  0  0  0  0  0  0  0  0  0  0
    5.4357    0.8693    0.7965 C   0  0  0  0  0  0  0  0  0  0  0  0
    3.0308    1.5961    0.7714 C   0  0  0  0  0  0  0  0  0  0  0  0
    1.5931    1.1858    0.7296 C   0  0  0  0  0  0  0  0  0  0  0  0
    0.8117    1.3036   -0.3245 N   0  0  0  0  0  0  0  0  0  0  0  0
   -0.4627    0.8262   -0.0816 N   0  0  0  0  0  0  0  0  0  0  0  0
   -0.5827    0.3604    1.1374 C   0  0  0  0  0  0  0  0  0  0  0  0
   -1.8411   -0.1525    1.6470 N   0  0  0  0  0  0  0  0  0  0  0  0
   -2.0383   -1.7887    1.3014 S   0  0  0  0  0  6  0  0  0  0  0  0
   -0.9327   -2.3002    0.5207 O   0  0  0  0  0  0  0  0  0  0  0  0
   -2.3333   -2.3818    2.5935 O   0  0  0  0  0  0  0  0  0  0  0  0
   -3.5551   -1.8350    0.3389 C   0  0  0  0  0  0  0  0  0  0  0  0
   -3.4611   -0.9686   -0.8867 C   0  0  0  0  0  0  0  0  0  0  0  0
   -4.1048    0.2773   -0.9265 C   0  0  0  0  0  0  0  0  0  0  0  0
   -4.0223    1.0819   -2.0639 C   0  0  0  0  0  0  0  0  0  0  0  0
   -3.2987    0.6507   -3.1732 C   0  0  0  0  0  0  0  0  0  0  0  0
   -2.6580   -0.5857   -3.1473 C   0  0  0  0  0  0  0  0  0  0  0  0
   -2.7405   -1.3933   -2.0123 C   0  0  0  0  0  0  0  0  0  0  0  0
    0.8077    0.5292    2.1138 S   0  0  0  0  0  0  0  0  0  0  0  0
    4.0780    0.6496   -1.6398 H   0  0  0  0  0  0  0  0  0  0  0  0
    2.8910   -0.5453   -1.0857 H   0  0  0  0  0  0  0  0  0  0  0  0
    4.6107   -0.9358   -1.0558 H   0  0  0  0  0  0  0  0  0  0  0  0
    3.7645   -0.3925    1.2275 H   0  0  0  0  0  0  0  0  0  0  0  0
    6.1349    0.0385    0.6541 H   0  0  0  0  0  0  0  0  0  0  0  0
    5.7315    1.6808    0.1229 H   0  0  0  0  0  0  0  0  0  0  0  0
    5.5473    1.2248    1.8262 H   0  0  0  0  0  0  0  0  0  0  0  0
    3.1988    2.3780    0.0196 H   0  0  0  0  0  0  0  0  0  0  0  0
    3.2445    2.0583    1.7439 H   0  0  0  0  0  0  0  0  0  0  0  0
   -1.9157   -0.0319    2.6558 H   0  0  0  0  0  0  0  0  0  0  0  0
   -3.7361   -2.8792    0.0633 H   0  0  0  0  0  0  0  0  0  0  0  0
   -4.3708   -1.5167    0.9968 H   0  0  0  0  0  0  0  0  0  0  0  0
   -4.6691    0.6388   -0.0698 H   0  0  0  0  0  0  0  0  0  0  0  0
   -4.5143    2.0507   -2.0821 H   0  0  0  0  0  0  0  0  0  0  0  0
   -3.2240    1.2825   -4.0540 H   0  0  0  0  0  0  0  0  0  0  0  0
   -2.0816   -0.9169   -4.0071 H   0  0  0  0  0  0  0  0  0  0  0  0
   -2.2196   -2.3494   -2.0102 H   0  0  0  0  0  0  0  0  0  0  0  0
  1  2  1  0
  2  3  1  0
  2  4  1  0
  4  5  1  0
  5  6  2  0
  6  7  1  0
  7  8  2  0
  8  9  1  0
  9 10  1  0
 10 11  2  0
 10 12  2  0
 10 13  1  0
 13 14  1  0
 14 15  2  0
 15 16  1  0
 16 17  2  0
 17 18  1  0
 18 19  2  0
  8 20  1  0
 20  5  1  0
 19 14  1  0
  1 21  1  0
  1 22  1  0
  1 23  1  0
  2 24  1  0
  3 25  1  0
  3 26  1  0
  3 27  1  0
  4 28  1  0
  4 29  1  0
  9 30  1  0
 13 31  1  0
 13 32  1  0
 15 33  1  0
 16 34  1  0
 17 35  1  0
 18 36  1  0
 19 37  1  0
M  END
$$$$
