
     RDKit          3D

 42 46  0  0  0  0  0  0  0  0999 V2000
    6.2414    0.0732   -3.9941 N   0  0  0  0  0  0  0  0  0  0  0  0
    5.7192    0.0957   -2.6916 C   0  0  0  0  0  0  0  0  0  0  0  0
    6.5289   -0.2749   -1.6100 C   0  0  0  0  0  0  0  0  0  0  0  0
    6.0275   -0.3784   -0.3044 C   0  0  0  0  0  0  0  0  0  0  0  0
    4.6650   -0.1322   -0.1422 C   0  0  0  0  0  0  0  0  0  0  0  0
    3.8426   -0.1500    0.9536 N   0  0  0  0  0  0  0  0  0  0  0  0
    2.5591    0.1541    0.5556 C   0  0  0  0  0  0  0  0  0  0  0  0
    1.4086    0.2205    1.4625 C   0  0  0  0  0  0  0  0  0  0  0  0
    1.5557    0.4334    2.8395 C   0  0  0  0  0  0  0  0  0  0  0  0
    0.4364    0.4893    3.6724 C   0  0  0  0  0  0  0  0  0  0  0  0
   -0.8453    0.3399    3.1389 C   0  0  0  0  0  0  0  0  0  0  0  0
   -1.0252    0.1393    1.7639 C   0  0  0  0  0  0  0  0  0  0  0  0
   -2.3545   -0.0206    1.1658 C   0  0  0  0  0  0  0  0  0  0  0  0
   -2.6194   -0.5847    0.0006 N   0  0  0  0  0  0  0  0  0  0  0  0
   -3.9803   -0.5110   -0.1642 C   0  0  0  0  0  0  0  0  0  0  0  0
   -4.7844   -0.9570   -1.2241 C   0  0  0  0  0  0  0  0  0  0  0  0
   -6.1751   -0.7972   -1.1439 C   0  0  0  0  0  0  0  0  0  0  0  0
   -6.9824   -1.1354   -2.2409 N   0  0  0  0  0  0  0  0  0  0  0  0
   -6.7275   -0.1013   -0.0606 C   0  0  0  0  0  0  0  0  0  0  0  0
   -5.9440    0.3589    1.0075 C   0  0  0  0  0  0  0  0  0  0  0  0
   -4.5729    0.1235    0.9172 C   0  0  0  0  0  0  0  0  0  0  0  0
   -3.5223    0.4300    1.7417 N   0  0  0  0  0  0  0  0  0  0  0  0
    0.1119    0.0790    0.9418 C   0  0  0  0  0  0  0  0  0  0  0  0
    2.5302    0.3467   -0.7513 N   0  0  0  0  0  0  0  0  0  0  0  0
    3.8188    0.1815   -1.1952 C   0  0  0  0  0  0  0  0  0  0  0  0
    4.3426    0.2732   -2.4937 C   0  0  0  0  0  0  0  0  0  0  0  0
    5.7017    0.6232   -4.6561 H   0  0  0  0  0  0  0  0  0  0  0  0
    7.2347    0.2746   -4.0424 H   0  0  0  0  0  0  0  0  0  0  0  0
    7.5817   -0.4922   -1.7781 H   0  0  0  0  0  0  0  0  0  0  0  0
    6.6696   -0.6525    0.5247 H   0  0  0  0  0  0  0  0  0  0  0  0
    4.1246   -0.3799    1.8931 H   0  0  0  0  0  0  0  0  0  0  0  0
    2.5358    0.5749    3.2858 H   0  0  0  0  0  0  0  0  0  0  0  0
    0.5634    0.6498    4.7405 H   0  0  0  0  0  0  0  0  0  0  0  0
   -1.6915    0.3677    3.8193 H   0  0  0  0  0  0  0  0  0  0  0  0
   -4.3151   -1.4227   -2.0825 H   0  0  0  0  0  0  0  0  0  0  0  0
   -7.9527   -1.3078   -1.9997 H   0  0  0  0  0  0  0  0  0  0  0  0
   -6.5903   -1.8719   -2.8203 H   0  0  0  0  0  0  0  0  0  0  0  0
   -7.7976    0.0941   -0.0385 H   0  0  0  0  0  0  0  0  0  0  0  0
   -6.3879    0.8836    1.8456 H   0  0  0  0  0  0  0  0  0  0  0  0
   -3.5891    0.9319    2.6127 H   0  0  0  0  0  0  0  0  0  0  0  0
   -0.0155   -0.0822   -0.1304 H   0  0  0  0  0  0  0  0  0  0  0  0
    3.6732    0.4859   -3.3187 H   0  0  0  0  0  0  0  0  0  0  0  0
  1  2  1  0
  2  3  2  0
  3  4  1  0
  4  5  2  0
  5  6  1  0
  6  7  1  0
  7  8  1  0
  8  9  2  0
  9 10  1  0
 10 11  2  0
 11 12  1  0
 12 13  1  0
 13 14  2  0
 14 15  1  0
 15 16  2  0
 16 17  1  0
 17 18  1  0
 17 19  2  0
 19 20  1  0
 20 21  2  0
 21 22  1  0
 12 23  2  0
  7 24  2  0
 24 25  1  0
 25 26  2  0
 26  2  1  0
 25  5  1  0
 23  8  1  0
 22 13  1  0
 21 15  1  0
  1 27  1  0
  1 28  1  0
  3 29  1  0
  4 30  1  0
  6 31  1  0
  9 32  1  0
 10 33  1  0
 11 34  1  0
 16 35  1  0
 18 36  1  0
 18 37  1  0
 19 38  1  0
 20 39  1  0
 22 40  1  0
 23 41  1  0
 26 42  1  0
M  END
$$$$
