
     RDKit          3D

 62 65  0  0  0  0  0  0  0  0999 V2000
   -0.4816   -1.3664    3.6743 C   0  0  0  0  0  0  0  0  0  0  0  0
   -0.7087   -0.0757    2.9352 C   0  0  0  0  0  0  0  0  0  0  0  0
   -1.4790    0.8937    3.6184 C   0  0  0  0  0  0  0  0  0  0  0  0
   -1.7543    2.1423    3.0636 C   0  0  0  0  0  0  0  0  0  0  0  0
   -2.5014    3.0401    3.7706 O   0  0  0  0  0  0  0  0  0  0  0  0
   -1.2685    2.4845    1.8065 C   0  0  0  0  0  0  0  0  0  0  0  0
   -1.5088    3.8282    1.1381 C   0  0  0  0  0  0  0  0  0  0  0  0
   -0.8601    4.9832    1.9070 C   0  0  0  0  0  0  0  0  0  0  0  0
   -2.9945    4.0933    0.8796 C   0  0  0  0  0  0  0  0  0  0  0  0
   -0.5000    1.5208    1.1294 C   0  0  0  0  0  0  0  0  0  0  0  0
   -0.2217    0.2171    1.6411 C   0  0  0  0  0  0  0  0  0  0  0  0
    0.6423   -0.6866    0.7242 C   0  0  0  0  0  0  0  0  0  0  0  0
    0.1847   -0.7086   -0.7658 C   0  0  0  0  0  0  0  0  0  0  0  0
    1.1653   -0.5410   -1.7782 C   0  0  0  0  0  0  0  0  0  0  0  0
    0.8650   -0.5603   -3.1537 C   0  0  0  0  0  0  0  0  0  0  0  0
    1.9966   -0.3567   -4.1505 C   0  0  0  0  0  0  0  0  0  0  0  0
    1.8063    0.8991   -5.0067 C   0  0  0  0  0  0  0  0  0  0  0  0
    2.2351   -1.5940   -5.0199 C   0  0  0  0  0  0  0  0  0  0  0  0
   -0.4631   -0.7620   -3.5215 C   0  0  0  0  0  0  0  0  0  0  0  0
   -0.8015   -0.7855   -4.8437 O   0  0  0  0  0  0  0  0  0  0  0  0
   -1.4547   -0.9387   -2.5566 C   0  0  0  0  0  0  0  0  0  0  0  0
   -1.1525   -0.9311   -1.1797 C   0  0  0  0  0  0  0  0  0  0  0  0
   -2.3218   -1.0890   -0.2418 C   0  0  0  0  0  0  0  0  0  0  0  0
    1.9427   -0.0008    0.8177 O   0  0  0  0  0  0  0  0  0  0  0  0
    2.9136   -0.7547    1.3929 C   0  0  0  0  0  0  0  0  0  0  0  0
    4.0428   -0.4044    1.6670 O   0  0  0  0  0  0  0  0  0  0  0  0
    2.3524   -2.0802    1.5638 C   0  0  0  0  0  0  0  0  0  0  0  0
    3.0094   -3.2186    2.0056 C   0  0  0  0  0  0  0  0  0  0  0  0
    2.2976   -4.4152    2.0137 C   0  0  0  0  0  0  0  0  0  0  0  0
    0.9696   -4.4456    1.5655 C   0  0  0  0  0  0  0  0  0  0  0  0
    0.3355   -3.2773    1.1229 C   0  0  0  0  0  0  0  0  0  0  0  0
    1.0329   -2.0733    1.1536 C   0  0  0  0  0  0  0  0  0  0  0  0
    0.5844   -1.5889    3.7597 H   0  0  0  0  0  0  0  0  0  0  0  0
   -1.0263   -2.1824    3.1928 H   0  0  0  0  0  0  0  0  0  0  0  0
   -0.8539   -1.3125    4.7042 H   0  0  0  0  0  0  0  0  0  0  0  0
   -1.8669    0.6603    4.6081 H   0  0  0  0  0  0  0  0  0  0  0  0
   -2.5906    2.7269    4.6856 H   0  0  0  0  0  0  0  0  0  0  0  0
   -1.0288    3.8079    0.1492 H   0  0  0  0  0  0  0  0  0  0  0  0
    0.2019    4.7865    2.0863 H   0  0  0  0  0  0  0  0  0  0  0  0
   -1.3361    5.1547    2.8785 H   0  0  0  0  0  0  0  0  0  0  0  0
   -0.9360    5.9146    1.3353 H   0  0  0  0  0  0  0  0  0  0  0  0
   -3.4507    3.2602    0.3321 H   0  0  0  0  0  0  0  0  0  0  0  0
   -3.1207    4.9977    0.2758 H   0  0  0  0  0  0  0  0  0  0  0  0
   -3.5604    4.2355    1.8062 H   0  0  0  0  0  0  0  0  0  0  0  0
   -0.0924    1.7943    0.1533 H   0  0  0  0  0  0  0  0  0  0  0  0
    2.2051   -0.3832   -1.4919 H   0  0  0  0  0  0  0  0  0  0  0  0
    2.9242   -0.1975   -3.5828 H   0  0  0  0  0  0  0  0  0  0  0  0
    2.7040    1.0906   -5.6058 H   0  0  0  0  0  0  0  0  0  0  0  0
    1.6284    1.7788   -4.3785 H   0  0  0  0  0  0  0  0  0  0  0  0
    0.9653    0.8074   -5.7006 H   0  0  0  0  0  0  0  0  0  0  0  0
    1.3925   -1.8055   -5.6868 H   0  0  0  0  0  0  0  0  0  0  0  0
    2.4001   -2.4813   -4.3982 H   0  0  0  0  0  0  0  0  0  0  0  0
    3.1231   -1.4559   -5.6473 H   0  0  0  0  0  0  0  0  0  0  0  0
   -1.7589   -0.9204   -4.9259 H   0  0  0  0  0  0  0  0  0  0  0  0
   -2.4867   -1.0838   -2.8686 H   0  0  0  0  0  0  0  0  0  0  0  0
   -2.0450   -1.5493    0.7064 H   0  0  0  0  0  0  0  0  0  0  0  0
   -2.7818   -0.1124   -0.0492 H   0  0  0  0  0  0  0  0  0  0  0  0
   -3.0835   -1.7451   -0.6824 H   0  0  0  0  0  0  0  0  0  0  0  0
    4.0483   -3.1765    2.3162 H   0  0  0  0  0  0  0  0  0  0  0  0
    2.7778   -5.3323    2.3469 H   0  0  0  0  0  0  0  0  0  0  0  0
    0.4290   -5.3901    1.5506 H   0  0  0  0  0  0  0  0  0  0  0  0
   -0.6848   -3.3354    0.7582 H   0  0  0  0  0  0  0  0  0  0  0  0
  1  2  1  0
  2  3  2  0
  3  4  1  0
  4  5  1  0
  4  6  2  0
  6  7  1  0
  7  8  1  0
  7  9  1  0
  6 10  1  0
 10 11  2  0
 11 12  1  0
 12 13  1  0
 13 14  2  0
 14 15  1  0
 15 16  1  0
 16 17  1  0
 16 18  1  0
 15 19  2  0
 19 20  1  0
 19 21  1  0
 21 22  2  0
 22 23  1  0
 12 24  1  0
 24 25  1  0
 25 26  2  0
 25 27  1  0
 27 28  2  0
 28 29  1  0
 29 30  2  0
 30 31  1  0
 31 32  2  0
 11  2  1  0
 32 12  1  0
 22 13  1  0
 32 27  1  0
  1 33  1  0
  1 34  1  0
  1 35  1  0
  3 36  1  0
  5 37  1  0
  7 38  1  0
  8 39  1  0
  8 40  1  0
  8 41  1  0
  9 42  1  0
  9 43  1  0
  9 44  1  0
 10 45  1  0
 14 46  1  0
 16 47  1  0
 17 48  1  0
 17 49  1  0
 17 50  1  0
 18 51  1  0
 18 52  1  0
 18 53  1  0
 20 54  1  0
 21 55  1  0
 23 56  1  0
 23 57  1  0
 23 58  1  0
 28 59  1  0
 29 60  1  0
 30 61  1  0
 31 62  1  0
M  END
$$$$
