
     RDKit          3D

 50 53  0  0  0  0  0  0  0  0999 V2000
   -4.1780   -3.7996   -2.6253 C   0  0  0  0  0  0  0  0  0  0  0  0
   -4.0138   -3.7437   -1.2150 O   0  0  0  0  0  0  0  0  0  0  0  0
   -3.1638   -2.7899   -0.7312 C   0  0  0  0  0  0  0  0  0  0  0  0
   -2.4282   -1.8865   -1.4926 C   0  0  0  0  0  0  0  0  0  0  0  0
   -1.5871   -0.9581   -0.8702 C   0  0  0  0  0  0  0  0  0  0  0  0
   -1.4578   -0.9235    0.5264 C   0  0  0  0  0  0  0  0  0  0  0  0
   -0.5708    0.0890    1.2360 C   0  0  0  0  0  0  0  0  0  0  0  0
   -1.3010    1.4223    1.4213 C   0  0  0  0  0  0  0  0  0  0  0  0
   -0.5463    2.2765    0.4397 C   0  0  0  0  0  0  0  0  0  0  0  0
   -0.9956    3.6421    0.0870 C   0  0  0  0  0  0  0  0  0  0  0  0
   -0.3544    4.3175   -0.9584 C   0  0  0  0  0  0  0  0  0  0  0  0
   -0.7593    5.6044   -1.3155 C   0  0  0  0  0  0  0  0  0  0  0  0
   -1.8062    6.2230   -0.6296 C   0  0  0  0  0  0  0  0  0  0  0  0
   -2.4432    5.5586    0.4193 C   0  0  0  0  0  0  0  0  0  0  0  0
   -2.0438    4.2680    0.7779 C   0  0  0  0  0  0  0  0  0  0  0  0
    0.5314    1.7375   -0.0430 N   0  0  0  0  0  0  0  0  0  0  0  0
    0.6152    0.4730    0.4678 N   0  0  0  0  0  0  0  0  0  0  0  0
    1.7566   -0.3000    0.2684 C   0  0  0  0  0  0  0  0  0  0  0  0
    2.8625    0.2227   -0.4282 C   0  0  0  0  0  0  0  0  0  0  0  0
    4.0258   -0.5220   -0.6402 C   0  0  0  0  0  0  0  0  0  0  0  0
    4.1019   -1.8214   -0.1470 C   0  0  0  0  0  0  0  0  0  0  0  0
    5.5624   -2.7871   -0.4108 S   0  0  0  0  0  6  0  0  0  0  0  0
    6.3525   -2.6101    1.0656 N   0  0  0  0  0  0  0  0  0  0  0  0
    6.3706   -2.1455   -1.4167 O   0  0  0  0  0  0  0  0  0  0  0  0
    5.1857   -4.1791   -0.4902 O   0  0  0  0  0  0  0  0  0  0  0  0
    3.0213   -2.3823    0.5251 C   0  0  0  0  0  0  0  0  0  0  0  0
    1.8658   -1.6209    0.7338 C   0  0  0  0  0  0  0  0  0  0  0  0
   -2.2061   -1.8343    1.2849 C   0  0  0  0  0  0  0  0  0  0  0  0
   -3.0457   -2.7589    0.6595 C   0  0  0  0  0  0  0  0  0  0  0  0
   -3.2272   -4.0022   -3.1292 H   0  0  0  0  0  0  0  0  0  0  0  0
   -4.8505   -4.6314   -2.8435 H   0  0  0  0  0  0  0  0  0  0  0  0
   -4.6465   -2.8817   -3.0021 H   0  0  0  0  0  0  0  0  0  0  0  0
   -2.4751   -1.8748   -2.5760 H   0  0  0  0  0  0  0  0  0  0  0  0
   -1.0187   -0.2679   -1.4894 H   0  0  0  0  0  0  0  0  0  0  0  0
   -0.2758   -0.3007    2.2196 H   0  0  0  0  0  0  0  0  0  0  0  0
   -1.1311    1.8180    2.4272 H   0  0  0  0  0  0  0  0  0  0  0  0
   -2.3705    1.3842    1.1974 H   0  0  0  0  0  0  0  0  0  0  0  0
    0.4631    3.8456   -1.5022 H   0  0  0  0  0  0  0  0  0  0  0  0
   -0.2495    6.1267   -2.1207 H   0  0  0  0  0  0  0  0  0  0  0  0
   -2.1192    7.2268   -0.9080 H   0  0  0  0  0  0  0  0  0  0  0  0
   -3.2516    6.0482    0.9589 H   0  0  0  0  0  0  0  0  0  0  0  0
   -2.5564    3.7774    1.6010 H   0  0  0  0  0  0  0  0  0  0  0  0
    2.8220    1.2438   -0.8133 H   0  0  0  0  0  0  0  0  0  0  0  0
    4.8520   -0.0780   -1.1847 H   0  0  0  0  0  0  0  0  0  0  0  0
    5.9461   -1.8843    1.6548 H   0  0  0  0  0  0  0  0  0  0  0  0
    6.3924   -3.5182    1.5285 H   0  0  0  0  0  0  0  0  0  0  0  0
    3.0586   -3.4094    0.8887 H   0  0  0  0  0  0  0  0  0  0  0  0
    1.0392   -2.0944    1.2579 H   0  0  0  0  0  0  0  0  0  0  0  0
   -2.1348   -1.8355    2.3699 H   0  0  0  0  0  0  0  0  0  0  0  0
   -3.6169   -3.4639    1.2613 H   0  0  0  0  0  0  0  0  0  0  0  0
  1  2  1  0
  2  3  1  0
  3  4  2  0
  4  5  1  0
  5  6  2  0
  6  7  1  0
  7  8  1  0
  8  9  1  0
  9 10  1  0
 10 11  2  0
 11 12  1  0
 12 13  2  0
 13 14  1  0
 14 15  2  0
  9 16  2  0
 16 17  1  0
 17 18  1  0
 18 19  2  0
 19 20  1  0
 20 21  2  0
 21 22  1  0
 22 23  1  0
 22 24  2  0
 22 25  2  0
 21 26  1  0
 26 27  2  0
  6 28  1  0
 28 29  2  0
 29  3  1  0
 17  7  1  0
 27 18  1  0
 15 10  1  0
  1 30  1  0
  1 31  1  0
  1 32  1  0
  4 33  1  0
  5 34  1  0
  7 35  1  0
  8 36  1  0
  8 37  1  0
 11 38  1  0
 12 39  1  0
 13 40  1  0
 14 41  1  0
 15 42  1  0
 19 43  1  0
 20 44  1  0
 23 45  1  0
 23 46  1  0
 26 47  1  0
 27 48  1  0
 28 49  1  0
 29 50  1  0
M  END
$$$$
