
     RDKit          3D

 33 35  0  0  0  0  0  0  0  0999 V2000
   -0.0827   -1.1051   -0.2409 O   0  0  0  0  0  0  0  0  0  0  0  0
    0.5375   -0.1375   -0.6640 C   0  0  0  0  0  0  0  0  0  0  0  0
    2.0204   -0.0123   -0.7004 C   0  0  0  0  0  0  0  0  0  0  0  0
    2.7917   -0.9847   -0.1953 C   0  0  0  0  0  0  0  0  0  0  0  0
    4.2168   -0.9795   -0.1578 C   0  0  0  0  0  0  0  0  0  0  0  0
    5.1602   -0.5510   -1.0774 C   0  0  0  0  0  0  0  0  0  0  0  0
    6.5028   -0.7409   -0.6360 C   0  0  0  0  0  0  0  0  0  0  0  0
    6.5567   -1.3283    0.6052 C   0  0  0  0  0  0  0  0  0  0  0  0
    5.0011   -1.6564    1.2248 S   0  0  0  0  0  0  0  0  0  0  0  0
    2.4675    1.4996   -1.4022 S   0  0  0  0  0  0  0  0  0  0  0  0
    0.7985    2.0074   -1.6499 C   0  0  0  0  0  0  0  0  0  0  0  0
    0.3729    3.4584   -2.3447 S   0  0  0  0  0  0  0  0  0  0  0  0
   -0.0299    0.9998   -1.2084 N   0  0  0  0  0  0  0  0  0  0  0  0
   -1.5391    1.1353   -1.1560 N   0  0  0  0  0  0  0  0  0  0  0  0
   -2.0938    1.8339    0.3089 S   0  0  0  0  0  6  0  0  0  0  0  0
   -2.7630    3.0735   -0.0153 O   0  0  0  0  0  0  0  0  0  0  0  0
   -1.0100    1.7854    1.2687 O   0  0  0  0  0  0  0  0  0  0  0  0
   -3.3259    0.6554    0.8028 C   0  0  0  0  0  0  0  0  0  0  0  0
   -4.6654    0.8749    0.4686 C   0  0  0  0  0  0  0  0  0  0  0  0
   -5.6297   -0.0531    0.8612 C   0  0  0  0  0  0  0  0  0  0  0  0
   -5.2554   -1.1856    1.5867 C   0  0  0  0  0  0  0  0  0  0  0  0
   -3.9176   -1.3930    1.9277 C   0  0  0  0  0  0  0  0  0  0  0  0
   -2.9469   -0.4696    1.5406 C   0  0  0  0  0  0  0  0  0  0  0  0
    2.3019   -1.8458    0.2605 H   0  0  0  0  0  0  0  0  0  0  0  0
    4.9111   -0.1204   -2.0396 H   0  0  0  0  0  0  0  0  0  0  0  0
    7.3822   -0.4644   -1.2048 H   0  0  0  0  0  0  0  0  0  0  0  0
    7.4367   -1.5891    1.1772 H   0  0  0  0  0  0  0  0  0  0  0  0
   -2.0065    0.2392   -1.3305 H   0  0  0  0  0  0  0  0  0  0  0  0
   -4.9662    1.7605   -0.0880 H   0  0  0  0  0  0  0  0  0  0  0  0
   -6.6753    0.1083    0.6083 H   0  0  0  0  0  0  0  0  0  0  0  0
   -6.0104   -1.9056    1.8948 H   0  0  0  0  0  0  0  0  0  0  0  0
   -3.6329   -2.2730    2.5001 H   0  0  0  0  0  0  0  0  0  0  0  0
   -1.9071   -0.6361    1.8160 H   0  0  0  0  0  0  0  0  0  0  0  0
  1  2  2  0
  2  3  1  0
  3  4  2  3
  4  5  1  0
  5  6  2  0
  6  7  1  0
  7  8  2  0
  8  9  1  0
  3 10  1  0
 10 11  1  0
 11 12  2  0
 11 13  1  0
 13 14  1  0
 14 15  1  0
 15 16  2  0
 15 17  2  0
 15 18  1  0
 18 19  2  0
 19 20  1  0
 20 21  2  0
 21 22  1  0
 22 23  2  0
 13  2  1  0
 23 18  1  0
  9  5  1  0
  4 24  1  0
  6 25  1  0
  7 26  1  0
  8 27  1  0
 14 28  1  0
 19 29  1  0
 20 30  1  0
 21 31  1  0
 22 32  1  0
 23 33  1  0
M  END
$$$$
