
     RDKit          3D

 42 42  0  0  0  0  0  0  0  0999 V2000
   -1.5520   -3.8966    2.2720 C   0  0  0  0  0  0  0  0  0  0  0  0
   -1.4094   -2.4414    1.8505 C   0  0  0  0  0  0  0  0  0  0  0  0
   -1.9730   -2.2103    0.4501 C   0  0  0  0  0  0  0  0  0  0  0  0
   -2.0122   -0.7411    0.0041 C   0  0  0  0  0  0  0  0  0  0  0  0
   -0.6914    0.0547   -0.1071 C   0  0  0  0  0  0  0  0  0  0  0  0
   -1.0039    1.3045   -0.9178 C   0  0  0  0  0  0  0  0  0  0  0  0
   -0.7942    1.4077   -2.1206 O   0  0  0  0  0  0  0  0  0  0  0  0
   -1.5766    2.2743   -0.1592 O   0  0  0  0  0  0  0  0  0  0  0  0
   -1.9196    3.4728   -0.8666 C   0  0  0  0  0  0  0  0  0  0  0  0
   -2.5377    4.4419    0.1215 C   0  0  0  0  0  0  0  0  0  0  0  0
    0.4721   -0.7106   -0.7392 C   0  0  0  0  0  0  0  0  0  0  0  0
    1.7107   -0.1131   -0.0913 C   0  0  0  0  0  0  0  0  0  0  0  0
    2.3789    1.0706   -0.8045 C   0  0  0  0  0  0  0  0  0  0  0  0
    3.0090    0.7124   -2.4725 S   0  0  0  0  0  0  0  0  0  0  0  0
    4.1612   -0.5187   -2.0855 C   0  0  0  0  0  0  0  0  0  0  0  0
    3.8387   -1.7449   -2.2749 N   0  0  0  0  0  0  0  0  0  0  0  0
    5.3462   -0.1378   -1.5813 N   0  0  0  0  0  0  0  0  0  0  0  0
    1.2593    0.3232    1.2010 O   0  0  0  0  0  0  0  0  0  0  0  0
   -0.1034    0.4267    1.2301 C   0  0  0  0  0  0  0  0  0  0  0  0
   -0.7181    0.7802    2.2231 O   0  0  0  0  0  0  0  0  0  0  0  0
   -1.0159   -4.5582    1.5842 H   0  0  0  0  0  0  0  0  0  0  0  0
   -2.6037   -4.1991    2.2912 H   0  0  0  0  0  0  0  0  0  0  0  0
   -1.1390   -4.0425    3.2749 H   0  0  0  0  0  0  0  0  0  0  0  0
   -1.9345   -1.8078    2.5738 H   0  0  0  0  0  0  0  0  0  0  0  0
   -0.3486   -2.1770    1.8853 H   0  0  0  0  0  0  0  0  0  0  0  0
   -3.0048   -2.5851    0.4252 H   0  0  0  0  0  0  0  0  0  0  0  0
   -1.4258   -2.8148   -0.2816 H   0  0  0  0  0  0  0  0  0  0  0  0
   -2.6970   -0.2046    0.6755 H   0  0  0  0  0  0  0  0  0  0  0  0
   -2.5063   -0.7298   -0.9779 H   0  0  0  0  0  0  0  0  0  0  0  0
   -1.0167    3.9135   -1.3041 H   0  0  0  0  0  0  0  0  0  0  0  0
   -2.6399    3.2405   -1.6593 H   0  0  0  0  0  0  0  0  0  0  0  0
   -2.8197    5.3760   -0.3722 H   0  0  0  0  0  0  0  0  0  0  0  0
   -1.8354    4.6670    0.9314 H   0  0  0  0  0  0  0  0  0  0  0  0
   -3.4282    4.0039    0.5847 H   0  0  0  0  0  0  0  0  0  0  0  0
    0.4450   -1.7680   -0.4569 H   0  0  0  0  0  0  0  0  0  0  0  0
    0.4920   -0.6894   -1.8321 H   0  0  0  0  0  0  0  0  0  0  0  0
    2.4525   -0.9004    0.0837 H   0  0  0  0  0  0  0  0  0  0  0  0
    1.6851    1.9141   -0.8796 H   0  0  0  0  0  0  0  0  0  0  0  0
    3.2066    1.4409   -0.1877 H   0  0  0  0  0  0  0  0  0  0  0  0
    2.9094   -1.7521   -2.7095 H   0  0  0  0  0  0  0  0  0  0  0  0
    5.8960   -0.8733   -1.1563 H   0  0  0  0  0  0  0  0  0  0  0  0
    5.4443    0.7919   -1.2018 H   0  0  0  0  0  0  0  0  0  0  0  0
  1  2  1  0
  2  3  1  0
  3  4  1  0
  4  5  1  0
  5  6  1  0
  6  7  2  0
  6  8  1  0
  8  9  1  0
  9 10  1  0
  5 11  1  0
 11 12  1  0
 12 13  1  0
 13 14  1  0
 14 15  1  0
 15 16  2  3
 15 17  1  0
 12 18  1  0
 18 19  1  0
 19 20  2  0
 19  5  1  0
  1 21  1  0
  1 22  1  0
  1 23  1  0
  2 24  1  0
  2 25  1  0
  3 26  1  0
  3 27  1  0
  4 28  1  0
  4 29  1  0
  9 30  1  0
  9 31  1  0
 10 32  1  0
 10 33  1  0
 10 34  1  0
 11 35  1  0
 11 36  1  0
 12 37  1  0
 13 38  1  0
 13 39  1  0
 16 40  1  0
 17 41  1  0
 17 42  1  0
M  END
$$$$
