
     RDKit          3D

 42 46  0  0  0  0  0  0  0  0999 V2000
    7.8929    0.5936   -1.9267 N   0  0  0  0  0  0  0  0  0  0  0  0
    6.5324    0.3112   -1.7323 C   0  0  0  0  0  0  0  0  0  0  0  0
    5.8758   -0.5790   -2.5920 C   0  0  0  0  0  0  0  0  0  0  0  0
    4.5504   -0.9832   -2.3766 C   0  0  0  0  0  0  0  0  0  0  0  0
    3.9277   -0.4834   -1.2339 C   0  0  0  0  0  0  0  0  0  0  0  0
    2.6770   -0.6649   -0.7046 N   0  0  0  0  0  0  0  0  0  0  0  0
    2.5805    0.0556    0.4653 C   0  0  0  0  0  0  0  0  0  0  0  0
    1.3851    0.0852    1.3094 C   0  0  0  0  0  0  0  0  0  0  0  0
    1.5301    0.2167    2.6964 C   0  0  0  0  0  0  0  0  0  0  0  0
    0.4138    0.2166    3.5319 C   0  0  0  0  0  0  0  0  0  0  0  0
   -0.8633    0.1039    2.9840 C   0  0  0  0  0  0  0  0  0  0  0  0
   -1.0411    0.0096    1.5977 C   0  0  0  0  0  0  0  0  0  0  0  0
   -2.3980   -0.0740    1.0550 C   0  0  0  0  0  0  0  0  0  0  0  0
   -3.4433   -0.6140    1.6549 N   0  0  0  0  0  0  0  0  0  0  0  0
   -4.5018   -0.4588    0.7934 C   0  0  0  0  0  0  0  0  0  0  0  0
   -5.8379   -0.8661    0.9265 C   0  0  0  0  0  0  0  0  0  0  0  0
   -6.7554   -0.5487   -0.0851 C   0  0  0  0  0  0  0  0  0  0  0  0
   -8.0660   -1.0462   -0.0218 N   0  0  0  0  0  0  0  0  0  0  0  0
   -6.3033    0.0763   -1.2546 C   0  0  0  0  0  0  0  0  0  0  0  0
   -4.9728    0.4901   -1.4123 C   0  0  0  0  0  0  0  0  0  0  0  0
   -4.1058    0.2050   -0.3586 C   0  0  0  0  0  0  0  0  0  0  0  0
   -2.7714    0.4473   -0.1640 N   0  0  0  0  0  0  0  0  0  0  0  0
    0.0923   -0.0086    0.7678 C   0  0  0  0  0  0  0  0  0  0  0  0
    3.7249    0.6651    0.7165 N   0  0  0  0  0  0  0  0  0  0  0  0
    4.5619    0.3532   -0.3270 C   0  0  0  0  0  0  0  0  0  0  0  0
    5.8903    0.7395   -0.5617 C   0  0  0  0  0  0  0  0  0  0  0  0
    8.1891    0.5481   -2.8963 H   0  0  0  0  0  0  0  0  0  0  0  0
    8.2017    1.4451   -1.4671 H   0  0  0  0  0  0  0  0  0  0  0  0
    6.4032   -0.9763   -3.4570 H   0  0  0  0  0  0  0  0  0  0  0  0
    4.0520   -1.6627   -3.0585 H   0  0  0  0  0  0  0  0  0  0  0  0
    1.9591   -1.2622   -1.0844 H   0  0  0  0  0  0  0  0  0  0  0  0
    2.5245    0.3072    3.1318 H   0  0  0  0  0  0  0  0  0  0  0  0
    0.5391    0.3037    4.6081 H   0  0  0  0  0  0  0  0  0  0  0  0
   -1.7302    0.1015    3.6436 H   0  0  0  0  0  0  0  0  0  0  0  0
   -6.1382   -1.4122    1.8128 H   0  0  0  0  0  0  0  0  0  0  0  0
   -8.3959   -1.2013    0.9263 H   0  0  0  0  0  0  0  0  0  0  0  0
   -8.7319   -0.5228   -0.5810 H   0  0  0  0  0  0  0  0  0  0  0  0
   -6.9998    0.2527   -2.0719 H   0  0  0  0  0  0  0  0  0  0  0  0
   -4.6427    0.9896   -2.3160 H   0  0  0  0  0  0  0  0  0  0  0  0
   -2.1672    0.9502   -0.7949 H   0  0  0  0  0  0  0  0  0  0  0  0
   -0.0326   -0.0968   -0.3072 H   0  0  0  0  0  0  0  0  0  0  0  0
    6.3945    1.3663    0.1641 H   0  0  0  0  0  0  0  0  0  0  0  0
  1  2  1  0
  2  3  2  0
  3  4  1  0
  4  5  2  0
  5  6  1  0
  6  7  1  0
  7  8  1  0
  8  9  2  0
  9 10  1  0
 10 11  2  0
 11 12  1  0
 12 13  1  0
 13 14  2  0
 14 15  1  0
 15 16  2  0
 16 17  1  0
 17 18  1  0
 17 19  2  0
 19 20  1  0
 20 21  2  0
 21 22  1  0
 12 23  2  0
  7 24  2  0
 24 25  1  0
 25 26  2  0
 26  2  1  0
 25  5  1  0
 23  8  1  0
 22 13  1  0
 21 15  1  0
  1 27  1  0
  1 28  1  0
  3 29  1  0
  4 30  1  0
  6 31  1  0
  9 32  1  0
 10 33  1  0
 11 34  1  0
 16 35  1  0
 18 36  1  0
 18 37  1  0
 19 38  1  0
 20 39  1  0
 22 40  1  0
 23 41  1  0
 26 42  1  0
M  END
$$$$
