
     RDKit          3D

 61 63  0  0  0  0  0  0  0  0999 V2000
   -2.3346   -2.4176   -1.9912 C   0  0  0  0  0  0  0  0  0  0  0  0
   -1.0992   -1.5391   -1.9088 C   0  0  0  0  0  0  0  0  0  0  0  0
   -1.2431   -0.6887   -0.7671 O   0  0  0  0  0  0  0  0  0  0  0  0
   -0.1332    0.0182   -0.4160 C   0  0  0  0  0  0  0  0  0  0  0  0
    0.9441   -0.0754   -0.9971 O   0  0  0  0  0  0  0  0  0  0  0  0
   -0.3411    0.8963    0.7398 C   0  0  0  0  0  0  0  0  0  0  0  0
   -1.5900    1.1805    1.4184 C   0  0  0  0  0  0  0  0  0  0  0  0
   -2.9241    0.6956    1.1018 C   0  0  0  0  0  0  0  0  0  0  0  0
   -3.6726    1.3182    0.1000 C   0  0  0  0  0  0  0  0  0  0  0  0
   -4.9431    0.8359   -0.2268 C   0  0  0  0  0  0  0  0  0  0  0  0
   -5.4829   -0.2754    0.4375 C   0  0  0  0  0  0  0  0  0  0  0  0
   -6.8101   -0.7881    0.0800 C   0  0  0  0  0  0  0  0  0  0  0  0
   -7.9659   -0.0391    0.3511 C   0  0  0  0  0  0  0  0  0  0  0  0
   -9.2300   -0.5232    0.0057 C   0  0  0  0  0  0  0  0  0  0  0  0
   -9.3550   -1.7615   -0.6203 C   0  0  0  0  0  0  0  0  0  0  0  0
   -8.2182   -2.5192   -0.8959 C   0  0  0  0  0  0  0  0  0  0  0  0
   -6.9546   -2.0365   -0.5467 C   0  0  0  0  0  0  0  0  0  0  0  0
   -4.7221   -0.8889    1.4466 C   0  0  0  0  0  0  0  0  0  0  0  0
   -3.4533   -0.4059    1.7805 C   0  0  0  0  0  0  0  0  0  0  0  0
   -1.4207    2.0502    2.4765 C   0  0  0  0  0  0  0  0  0  0  0  0
    0.2000    2.5300    2.6576 S   0  0  0  0  0  0  0  0  0  0  0  0
    0.7059    1.5951    1.3332 C   0  0  0  0  0  0  0  0  0  0  0  0
    2.0353    1.5722    0.9445 N   0  0  0  0  0  0  0  0  0  0  0  0
    3.1004    2.2690    1.4881 C   0  0  0  0  0  0  0  0  0  0  0  0
    3.0837    3.0618    2.4235 O   0  0  0  0  0  0  0  0  0  0  0  0
    4.4142    1.9835    0.7446 C   0  0  0  0  0  0  0  0  0  0  0  0
    4.4079    0.6157    0.1882 N   0  0  0  0  0  0  0  0  0  0  0  0
    5.5967    0.3456   -0.6372 C   0  0  0  0  0  0  0  0  0  0  0  0
    6.9246    0.2600    0.1551 C   0  0  0  0  0  0  0  0  0  0  0  0
    8.0524   -0.2613   -0.6410 N   0  0  0  0  0  0  0  0  0  0  0  0
    8.4668    0.6773   -1.6873 C   0  0  0  0  0  0  0  0  0  0  0  0
    9.1893   -0.5581    0.2342 C   0  0  0  0  0  0  0  0  0  0  0  0
   -2.2862   -3.0780   -2.8611 H   0  0  0  0  0  0  0  0  0  0  0  0
   -2.4318   -3.0272   -1.0870 H   0  0  0  0  0  0  0  0  0  0  0  0
   -3.2423   -1.8050   -2.0607 H   0  0  0  0  0  0  0  0  0  0  0  0
   -0.2047   -2.1663   -1.8130 H   0  0  0  0  0  0  0  0  0  0  0  0
   -1.0217   -0.9199   -2.8093 H   0  0  0  0  0  0  0  0  0  0  0  0
   -3.2750    2.1749   -0.4371 H   0  0  0  0  0  0  0  0  0  0  0  0
   -5.5092    1.3260   -1.0166 H   0  0  0  0  0  0  0  0  0  0  0  0
   -7.8850    0.9269    0.8460 H   0  0  0  0  0  0  0  0  0  0  0  0
  -10.1150    0.0667    0.2277 H   0  0  0  0  0  0  0  0  0  0  0  0
  -10.3381   -2.1372   -0.8908 H   0  0  0  0  0  0  0  0  0  0  0  0
   -8.3144   -3.4861   -1.3852 H   0  0  0  0  0  0  0  0  0  0  0  0
   -6.0757   -2.6370   -0.7744 H   0  0  0  0  0  0  0  0  0  0  0  0
   -5.1215   -1.7482    1.9826 H   0  0  0  0  0  0  0  0  0  0  0  0
   -2.8836   -0.8973    2.5653 H   0  0  0  0  0  0  0  0  0  0  0  0
   -2.1745    2.4345    3.1509 H   0  0  0  0  0  0  0  0  0  0  0  0
    2.2781    0.9657    0.1550 H   0  0  0  0  0  0  0  0  0  0  0  0
    5.2343    2.1086    1.4592 H   0  0  0  0  0  0  0  0  0  0  0  0
    4.5066    2.7284   -0.0533 H   0  0  0  0  0  0  0  0  0  0  0  0
    4.3833   -0.0545    0.9590 H   0  0  0  0  0  0  0  0  0  0  0  0
    5.4259   -0.6187   -1.1324 H   0  0  0  0  0  0  0  0  0  0  0  0
    5.6627    1.0956   -1.4344 H   0  0  0  0  0  0  0  0  0  0  0  0
    7.1783    1.2408    0.5795 H   0  0  0  0  0  0  0  0  0  0  0  0
    6.7522   -0.4188    1.0026 H   0  0  0  0  0  0  0  0  0  0  0  0
    9.3171    0.2718   -2.2475 H   0  0  0  0  0  0  0  0  0  0  0  0
    8.7602    1.6512   -1.2757 H   0  0  0  0  0  0  0  0  0  0  0  0
    7.6687    0.8340   -2.4210 H   0  0  0  0  0  0  0  0  0  0  0  0
    8.9089   -1.2934    0.9999 H   0  0  0  0  0  0  0  0  0  0  0  0
    9.5661    0.3393    0.7398 H   0  0  0  0  0  0  0  0  0  0  0  0
   10.0088   -1.0038   -0.3418 H   0  0  0  0  0  0  0  0  0  0  0  0
  1  2  1  0
  2  3  1  0
  3  4  1  0
  4  5  2  0
  4  6  1  0
  6  7  1  0
  7  8  1  0
  8  9  2  0
  9 10  1  0
 10 11  2  0
 11 12  1  0
 12 13  2  0
 13 14  1  0
 14 15  2  0
 15 16  1  0
 16 17  2  0
 11 18  1  0
 18 19  2  0
  7 20  2  0
 20 21  1  0
 21 22  1  0
 22 23  1  0
 23 24  1  0
 24 25  2  0
 24 26  1  0
 26 27  1  0
 27 28  1  0
 28 29  1  0
 29 30  1  0
 30 31  1  0
 30 32  1  0
 22  6  2  0
 19  8  1  0
 17 12  1  0
  1 33  1  0
  1 34  1  0
  1 35  1  0
  2 36  1  0
  2 37  1  0
  9 38  1  0
 10 39  1  0
 13 40  1  0
 14 41  1  0
 15 42  1  0
 16 43  1  0
 17 44  1  0
 18 45  1  0
 19 46  1  0
 20 47  1  0
 23 48  1  0
 26 49  1  0
 26 50  1  0
 27 51  1  0
 28 52  1  0
 28 53  1  0
 29 54  1  0
 29 55  1  0
 31 56  1  0
 31 57  1  0
 31 58  1  0
 32 59  1  0
 32 60  1  0
 32 61  1  0
M  END
$$$$
