
     RDKit          3D

 35 36  0  0  0  0  0  0  0  0999 V2000
   -5.8733    0.2809    0.0813 C   0  0  0  0  0  0  0  0  0  0  0  0
   -4.3895    0.0661    0.0463 C   0  0  0  0  0  0  0  0  0  0  0  0
   -3.8513   -1.2034    0.2737 C   0  0  0  0  0  0  0  0  0  0  0  0
   -2.4666   -1.3964    0.2746 C   0  0  0  0  0  0  0  0  0  0  0  0
   -1.5929   -0.3218    0.0413 C   0  0  0  0  0  0  0  0  0  0  0  0
   -0.1831   -0.5578    0.0572 N   0  0  0  0  0  0  0  0  0  0  0  0
    0.2808   -1.7087    0.6146 N   0  0  0  0  0  0  0  0  0  0  0  0
    1.5983   -1.5406    0.7108 C   0  0  0  0  0  0  0  0  0  0  0  0
    2.4243   -2.5757    1.3815 C   0  0  0  0  0  0  0  0  0  0  0  0
    2.0232   -0.3286    0.1112 C   0  0  0  0  0  0  0  0  0  0  0  0
    3.3412    0.0969    0.0440 N   0  0  0  0  0  0  0  0  0  0  0  0
    3.7994    1.3754   -0.2101 C   0  0  0  0  0  0  0  0  0  0  0  0
    3.1047    2.3699   -0.4058 O   0  0  0  0  0  0  0  0  0  0  0  0
    5.3141    1.4881   -0.2905 C   0  0  0  0  0  0  0  0  0  0  0  0
    6.1296    0.3054    0.7618 Cl  0  0  0  0  0  0  0  0  0  0  0  0
    0.8713    0.2154   -0.4303 C   0  0  0  0  0  0  0  0  0  0  0  0
    0.6985    1.3079   -1.4255 C   0  0  0  0  0  0  0  0  0  0  0  0
   -2.1326    0.9552   -0.1459 C   0  0  0  0  0  0  0  0  0  0  0  0
   -3.5200    1.1449   -0.1444 C   0  0  0  0  0  0  0  0  0  0  0  0
   -6.1947    0.5089    1.1022 H   0  0  0  0  0  0  0  0  0  0  0  0
   -6.4053   -0.6108   -0.2668 H   0  0  0  0  0  0  0  0  0  0  0  0
   -6.1635    1.1084   -0.5747 H   0  0  0  0  0  0  0  0  0  0  0  0
   -4.5040   -2.0546    0.4542 H   0  0  0  0  0  0  0  0  0  0  0  0
   -2.0822   -2.3999    0.4500 H   0  0  0  0  0  0  0  0  0  0  0  0
    3.1393   -3.0086    0.6747 H   0  0  0  0  0  0  0  0  0  0  0  0
    2.9833   -2.1368    2.2142 H   0  0  0  0  0  0  0  0  0  0  0  0
    1.8088   -3.3888    1.7805 H   0  0  0  0  0  0  0  0  0  0  0  0
    4.0321   -0.5473    0.4174 H   0  0  0  0  0  0  0  0  0  0  0  0
    5.6346    1.3179   -1.3215 H   0  0  0  0  0  0  0  0  0  0  0  0
    5.6213    2.4854    0.0352 H   0  0  0  0  0  0  0  0  0  0  0  0
   -0.1667    1.1343   -2.0731 H   0  0  0  0  0  0  0  0  0  0  0  0
    0.5873    2.2782   -0.9337 H   0  0  0  0  0  0  0  0  0  0  0  0
    1.5595    1.3554   -2.1006 H   0  0  0  0  0  0  0  0  0  0  0  0
   -1.5093    1.8363   -0.2467 H   0  0  0  0  0  0  0  0  0  0  0  0
   -3.9167    2.1489   -0.2811 H   0  0  0  0  0  0  0  0  0  0  0  0
  1  2  1  0
  2  3  2  0
  3  4  1  0
  4  5  2  0
  5  6  1  0
  6  7  1  0
  7  8  2  0
  8  9  1  0
  8 10  1  0
 10 11  1  0
 11 12  1  0
 12 13  2  0
 12 14  1  0
 14 15  1  0
 10 16  2  0
 16 17  1  0
  5 18  1  0
 18 19  2  0
 19  2  1  0
 16  6  1  0
  1 20  1  0
  1 21  1  0
  1 22  1  0
  3 23  1  0
  4 24  1  0
  9 25  1  0
  9 26  1  0
  9 27  1  0
 11 28  1  0
 14 29  1  0
 14 30  1  0
 17 31  1  0
 17 32  1  0
 17 33  1  0
 18 34  1  0
 19 35  1  0
M  END
$$$$
