
     RDKit          3D

 39 40  0  0  0  0  0  0  0  0999 V2000
    7.5957   -0.4615    0.8412 C   0  0  0  0  0  0  0  0  0  0  0  0
    6.7427   -0.8065   -0.2426 O   0  0  0  0  0  0  0  0  0  0  0  0
    5.4250   -0.4591   -0.1266 C   0  0  0  0  0  0  0  0  0  0  0  0
    4.8393    0.1921    0.9589 C   0  0  0  0  0  0  0  0  0  0  0  0
    3.4714    0.4888    0.9484 C   0  0  0  0  0  0  0  0  0  0  0  0
    2.6742    0.1417   -0.1488 C   0  0  0  0  0  0  0  0  0  0  0  0
    1.1984    0.4409   -0.1529 C   0  0  0  0  0  0  0  0  0  0  0  0
    0.3728   -0.7455    0.3421 C   0  0  0  0  0  0  0  0  0  0  0  0
   -1.0238   -0.4028    0.3865 O   0  0  0  0  0  0  0  0  0  0  0  0
   -1.6939   -0.5317   -0.7843 C   0  0  0  0  0  0  0  0  0  0  0  0
   -1.2163   -0.8811   -1.8512 O   0  0  0  0  0  0  0  0  0  0  0  0
   -3.1271   -0.1706   -0.6073 C   0  0  0  0  0  0  0  0  0  0  0  0
   -3.9673   -0.2339   -1.7248 C   0  0  0  0  0  0  0  0  0  0  0  0
   -5.3242    0.0938   -1.6159 C   0  0  0  0  0  0  0  0  0  0  0  0
   -5.8736    0.5323   -0.4033 C   0  0  0  0  0  0  0  0  0  0  0  0
   -7.2659    0.7056   -0.3388 N   0  0  0  0  0  0  0  0  0  0  0  0
   -5.0263    0.5410    0.7229 C   0  0  0  0  0  0  0  0  0  0  0  0
   -5.5391    0.9224    2.0399 N   0  0  0  0  0  4  0  0  0  0  0  0
   -6.4655    1.7472    2.0854 O   0  0  0  0  0  0  0  0  0  0  0  0
   -4.9970    0.4154    3.0328 O   0  0  0  0  0  1  0  0  0  0  0  0
   -3.6612    0.2119    0.6268 C   0  0  0  0  0  0  0  0  0  0  0  0
    3.2649   -0.5158   -1.2333 C   0  0  0  0  0  0  0  0  0  0  0  0
    4.6300   -0.8106   -1.2193 C   0  0  0  0  0  0  0  0  0  0  0  0
    8.6060   -0.8006    0.5925 H   0  0  0  0  0  0  0  0  0  0  0  0
    7.6346    0.6236    0.9836 H   0  0  0  0  0  0  0  0  0  0  0  0
    7.2908   -0.9711    1.7613 H   0  0  0  0  0  0  0  0  0  0  0  0
    5.4163    0.4828    1.8301 H   0  0  0  0  0  0  0  0  0  0  0  0
    3.0346    0.9953    1.8065 H   0  0  0  0  0  0  0  0  0  0  0  0
    0.9889    1.3211    0.4686 H   0  0  0  0  0  0  0  0  0  0  0  0
    0.8849    0.7336   -1.1628 H   0  0  0  0  0  0  0  0  0  0  0  0
    0.6640   -1.0086    1.3656 H   0  0  0  0  0  0  0  0  0  0  0  0
    0.5323   -1.6437   -0.2677 H   0  0  0  0  0  0  0  0  0  0  0  0
   -3.5744   -0.5546   -2.6893 H   0  0  0  0  0  0  0  0  0  0  0  0
   -5.9549   -0.0032   -2.4981 H   0  0  0  0  0  0  0  0  0  0  0  0
   -7.7017    0.9903   -1.2117 H   0  0  0  0  0  0  0  0  0  0  0  0
   -7.5728    1.2953    0.4406 H   0  0  0  0  0  0  0  0  0  0  0  0
   -3.0284    0.2487    1.5116 H   0  0  0  0  0  0  0  0  0  0  0  0
    2.6680   -0.8032   -2.0967 H   0  0  0  0  0  0  0  0  0  0  0  0
    5.0783   -1.3200   -2.0689 H   0  0  0  0  0  0  0  0  0  0  0  0
  1  2  1  0
  2  3  1  0
  3  4  2  0
  4  5  1  0
  5  6  2  0
  6  7  1  0
  7  8  1  0
  8  9  1  0
  9 10  1  0
 10 11  2  0
 10 12  1  0
 12 13  2  0
 13 14  1  0
 14 15  2  0
 15 16  1  0
 15 17  1  0
 17 18  1  0
 18 19  2  0
 18 20  1  0
 17 21  2  0
  6 22  1  0
 22 23  2  0
 23  3  1  0
 21 12  1  0
  1 24  1  0
  1 25  1  0
  1 26  1  0
  4 27  1  0
  5 28  1  0
  7 29  1  0
  7 30  1  0
  8 31  1  0
  8 32  1  0
 13 33  1  0
 14 34  1  0
 16 35  1  0
 16 36  1  0
 21 37  1  0
 22 38  1  0
 23 39  1  0
M  CHG  2  18   1  20  -1
M  END
$$$$
