
     RDKit          3D

 53 55  0  0  0  0  0  0  0  0999 V2000
   -6.4048    5.3750    0.6359 C   0  0  0  0  0  0  0  0  0  0  0  0
   -6.3611    4.4816   -0.4670 O   0  0  0  0  0  0  0  0  0  0  0  0
   -5.3323    3.5741   -0.5132 C   0  0  0  0  0  0  0  0  0  0  0  0
   -4.3127    3.4861    0.4387 C   0  0  0  0  0  0  0  0  0  0  0  0
   -3.3040    2.5266    0.3086 C   0  0  0  0  0  0  0  0  0  0  0  0
   -3.3046    1.6340   -0.7666 C   0  0  0  0  0  0  0  0  0  0  0  0
   -2.2116    0.6580   -0.8782 C   0  0  0  0  0  0  0  0  0  0  0  0
   -2.3979   -0.6136   -1.2661 C   0  0  0  0  0  0  0  0  0  0  0  0
   -1.2910   -1.5953   -1.4206 C   0  0  0  0  0  0  0  0  0  0  0  0
   -1.3362   -2.3769   -2.3617 O   0  0  0  0  0  0  0  0  0  0  0  0
   -0.3506   -1.5380   -0.4163 N   0  0  0  0  0  0  0  0  0  0  0  0
    0.8082   -2.3308   -0.2820 C   0  0  0  0  0  0  0  0  0  0  0  0
    1.2026   -3.3022   -1.2072 C   0  0  0  0  0  0  0  0  0  0  0  0
    2.3651   -4.0559   -1.0040 C   0  0  0  0  0  0  0  0  0  0  0  0
    3.1507   -3.8411    0.1243 C   0  0  0  0  0  0  0  0  0  0  0  0
    2.7654   -2.8637    1.0423 C   0  0  0  0  0  0  0  0  0  0  0  0
    3.7769   -2.5777    2.4699 S   0  0  0  0  0  6  0  0  0  0  0  0
    3.9660   -3.8505    3.1305 O   0  0  0  0  0  0  0  0  0  0  0  0
    3.2495   -1.4313    3.1818 O   0  0  0  0  0  0  0  0  0  0  0  0
    5.2561   -2.1099    1.7839 N   0  0  0  0  0  0  0  0  0  0  0  0
    5.2772   -0.8526    0.9877 C   0  0  0  0  0  0  0  0  0  0  0  0
    6.4138   -0.0237    1.5710 C   0  0  0  0  0  0  0  0  0  0  0  0
    7.3600   -1.0725    2.1185 C   0  0  0  0  0  0  0  0  0  0  0  0
    6.4006   -2.0804    2.7307 C   0  0  0  0  0  0  0  0  0  0  0  0
    1.6006   -2.1129    0.8502 C   0  0  0  0  0  0  0  0  0  0  0  0
   -4.3169    1.7331   -1.7319 C   0  0  0  0  0  0  0  0  0  0  0  0
   -5.3329    2.6910   -1.6113 C   0  0  0  0  0  0  0  0  0  0  0  0
   -6.3607    2.8487   -2.5089 O   0  0  0  0  0  0  0  0  0  0  0  0
   -6.4096    1.9680   -3.6220 C   0  0  0  0  0  0  0  0  0  0  0  0
   -5.5256    6.0273    0.6505 H   0  0  0  0  0  0  0  0  0  0  0  0
   -7.2875    6.0107    0.5167 H   0  0  0  0  0  0  0  0  0  0  0  0
   -6.5118    4.8322    1.5808 H   0  0  0  0  0  0  0  0  0  0  0  0
   -4.2716    4.1508    1.2949 H   0  0  0  0  0  0  0  0  0  0  0  0
   -2.5234    2.4826    1.0650 H   0  0  0  0  0  0  0  0  0  0  0  0
   -1.2224    1.0354   -0.6318 H   0  0  0  0  0  0  0  0  0  0  0  0
   -3.3687   -0.9972   -1.5630 H   0  0  0  0  0  0  0  0  0  0  0  0
   -0.5336   -0.8927    0.3408 H   0  0  0  0  0  0  0  0  0  0  0  0
    0.6215   -3.5050   -2.1023 H   0  0  0  0  0  0  0  0  0  0  0  0
    2.6494   -4.8131   -1.7312 H   0  0  0  0  0  0  0  0  0  0  0  0
    4.0518   -4.4288    0.2851 H   0  0  0  0  0  0  0  0  0  0  0  0
    4.3350   -0.2990    1.0203 H   0  0  0  0  0  0  0  0  0  0  0  0
    5.4837   -1.1162   -0.0555 H   0  0  0  0  0  0  0  0  0  0  0  0
    6.8819    0.6258    0.8262 H   0  0  0  0  0  0  0  0  0  0  0  0
    6.0386    0.6062    2.3867 H   0  0  0  0  0  0  0  0  0  0  0  0
    7.9294   -1.5328    1.3021 H   0  0  0  0  0  0  0  0  0  0  0  0
    8.0664   -0.6688    2.8489 H   0  0  0  0  0  0  0  0  0  0  0  0
    6.0793   -1.7400    3.7215 H   0  0  0  0  0  0  0  0  0  0  0  0
    6.8585   -3.0695    2.8164 H   0  0  0  0  0  0  0  0  0  0  0  0
    1.3182   -1.3648    1.5868 H   0  0  0  0  0  0  0  0  0  0  0  0
   -4.2914    1.0613   -2.5835 H   0  0  0  0  0  0  0  0  0  0  0  0
   -7.2921    2.2271   -4.2149 H   0  0  0  0  0  0  0  0  0  0  0  0
   -6.5205    0.9277   -3.2990 H   0  0  0  0  0  0  0  0  0  0  0  0
   -5.5308    2.0933   -4.2631 H   0  0  0  0  0  0  0  0  0  0  0  0
  1  2  1  0
  2  3  1  0
  3  4  2  0
  4  5  1  0
  5  6  2  0
  6  7  1  0
  7  8  2  3
  8  9  1  0
  9 10  2  0
  9 11  1  0
 11 12  1  0
 12 13  2  0
 13 14  1  0
 14 15  2  0
 15 16  1  0
 16 17  1  0
 17 18  2  0
 17 19  2  0
 17 20  1  0
 20 21  1  0
 21 22  1  0
 22 23  1  0
 23 24  1  0
 16 25  2  0
  6 26  1  0
 26 27  2  0
 27 28  1  0
 28 29  1  0
 27  3  1  0
 25 12  1  0
 24 20  1  0
  1 30  1  0
  1 31  1  0
  1 32  1  0
  4 33  1  0
  5 34  1  0
  7 35  1  0
  8 36  1  0
 11 37  1  0
 13 38  1  0
 14 39  1  0
 15 40  1  0
 21 41  1  0
 21 42  1  0
 22 43  1  0
 22 44  1  0
 23 45  1  0
 23 46  1  0
 24 47  1  0
 24 48  1  0
 25 49  1  0
 26 50  1  0
 29 51  1  0
 29 52  1  0
 29 53  1  0
M  END
$$$$
