
     RDKit          3D

 33 34  0  0  0  0  0  0  0  0999 V2000
    7.3271    0.2644   -0.6258 C   0  0  0  0  0  0  0  0  0  0  0  0
    6.7279   -0.5554    0.5091 C   0  0  0  0  0  0  0  0  0  0  0  0
    5.2693   -0.2131    0.8158 C   0  0  0  0  0  0  0  0  0  0  0  0
    4.1498   -0.7130   -0.5287 S   0  0  0  0  0  0  0  0  0  0  0  0
    2.6087   -0.2052    0.1228 C   0  0  0  0  0  0  0  0  0  0  0  0
    2.4832    0.3886    1.2905 N   0  0  0  0  0  0  0  0  0  0  0  0
    1.1656    0.6910    1.5741 N   0  0  0  0  0  0  0  0  0  0  0  0
    0.3530    0.2999    0.6161 C   0  0  0  0  0  0  0  0  0  0  0  0
   -1.0010    0.5190    0.6832 N   0  0  0  0  0  0  0  0  0  0  0  0
   -1.9634    0.0091   -0.1650 C   0  0  0  0  0  0  0  0  0  0  0  0
   -1.7510   -0.7770   -1.0775 O   0  0  0  0  0  0  0  0  0  0  0  0
   -3.2124    0.5183    0.1684 N   0  0  0  0  0  0  0  0  0  0  0  0
   -4.4608    0.1807   -0.3971 C   0  0  0  0  0  0  0  0  0  0  0  0
   -5.5719    0.9293    0.0154 C   0  0  0  0  0  0  0  0  0  0  0  0
   -6.8459    0.6552   -0.4896 C   0  0  0  0  0  0  0  0  0  0  0  0
   -7.0224   -0.3735   -1.4102 C   0  0  0  0  0  0  0  0  0  0  0  0
   -5.9259   -1.1268   -1.8219 C   0  0  0  0  0  0  0  0  0  0  0  0
   -4.6507   -0.8525   -1.3163 C   0  0  0  0  0  0  0  0  0  0  0  0
    1.1305   -0.4316   -0.7107 S   0  0  0  0  0  0  0  0  0  0  0  0
    7.2285    1.3367   -0.4291 H   0  0  0  0  0  0  0  0  0  0  0  0
    6.8482    0.0434   -1.5840 H   0  0  0  0  0  0  0  0  0  0  0  0
    8.3932    0.0373   -0.7288 H   0  0  0  0  0  0  0  0  0  0  0  0
    6.8344   -1.6246    0.2895 H   0  0  0  0  0  0  0  0  0  0  0  0
    7.3193   -0.3646    1.4132 H   0  0  0  0  0  0  0  0  0  0  0  0
    4.9696   -0.7374    1.7298 H   0  0  0  0  0  0  0  0  0  0  0  0
    5.1698    0.8631    0.9941 H   0  0  0  0  0  0  0  0  0  0  0  0
   -1.2907    0.9527    1.5445 H   0  0  0  0  0  0  0  0  0  0  0  0
   -3.2213    1.2983    0.8078 H   0  0  0  0  0  0  0  0  0  0  0  0
   -5.4650    1.7383    0.7331 H   0  0  0  0  0  0  0  0  0  0  0  0
   -7.6991    1.2447   -0.1643 H   0  0  0  0  0  0  0  0  0  0  0  0
   -8.0111   -0.5901   -1.8060 H   0  0  0  0  0  0  0  0  0  0  0  0
   -6.0576   -1.9336   -2.5388 H   0  0  0  0  0  0  0  0  0  0  0  0
   -3.8280   -1.4716   -1.6602 H   0  0  0  0  0  0  0  0  0  0  0  0
  1  2  1  0
  2  3  1  0
  3  4  1  0
  4  5  1  0
  5  6  2  0
  6  7  1  0
  7  8  2  0
  8  9  1  0
  9 10  1  0
 10 11  2  0
 10 12  1  0
 12 13  1  0
 13 14  2  0
 14 15  1  0
 15 16  2  0
 16 17  1  0
 17 18  2  0
  8 19  1  0
 19  5  1  0
 18 13  1  0
  1 20  1  0
  1 21  1  0
  1 22  1  0
  2 23  1  0
  2 24  1  0
  3 25  1  0
  3 26  1  0
  9 27  1  0
 12 28  1  0
 14 29  1  0
 15 30  1  0
 16 31  1  0
 17 32  1  0
 18 33  1  0
M  END
$$$$
