
     RDKit          3D

 52 55  0  0  0  0  0  0  0  0999 V2000
   -4.4807    0.6709   -3.1118 C   0  0  0  0  0  0  0  0  0  0  0  0
   -4.2289    1.0370   -1.6805 C   0  0  0  0  0  0  0  0  0  0  0  0
   -3.7124    0.1018   -0.7752 C   0  0  0  0  0  0  0  0  0  0  0  0
   -3.4534    0.4830    0.5487 C   0  0  0  0  0  0  0  0  0  0  0  0
   -2.7856   -0.7209    1.6767 S   0  0  0  0  0  6  0  0  0  0  0  0
   -3.4091   -1.9874    1.3668 O   0  0  0  0  0  0  0  0  0  0  0  0
   -2.8113   -0.1525    3.0056 O   0  0  0  0  0  0  0  0  0  0  0  0
   -1.1914   -0.8222    1.1861 N   0  0  0  0  0  0  0  0  0  0  0  0
   -0.2929    0.3382    1.3756 C   0  0  0  0  0  0  0  0  0  0  0  0
    1.0024    0.1690    0.5080 C   0  0  0  0  0  0  0  0  0  0  0  0
    2.0298   -0.6462    1.3040 C   0  0  0  0  0  0  0  0  0  0  0  0
    1.8037   -2.0034    1.6434 C   0  0  0  0  0  0  0  0  0  0  0  0
    2.7463   -2.7379    2.3711 C   0  0  0  0  0  0  0  0  0  0  0  0
    3.9053   -2.0983    2.7475 C   0  0  0  0  0  0  0  0  0  0  0  0
    4.1408   -0.7839    2.4256 C   0  0  0  0  0  0  0  0  0  0  0  0
    3.2309   -0.0336    1.7097 C   0  0  0  0  0  0  0  0  0  0  0  0
    5.3415   -0.3428    2.8876 O   0  0  0  0  0  0  0  0  0  0  0  0
    5.8298   -1.5304    3.5471 C   0  0  0  0  0  0  0  0  0  0  0  0
    4.9273   -2.6516    3.4527 O   0  0  0  0  0  0  0  0  0  0  0  0
    0.7073   -0.4075   -0.8430 N   0  0  0  0  0  0  0  0  0  0  0  0
   -0.1210    0.4948   -1.6856 C   0  0  0  0  0  0  0  0  0  0  0  0
    0.6672    1.2486   -2.7690 C   0  0  0  0  0  0  0  0  0  0  0  0
    1.3274    0.3726   -3.6874 O   0  0  0  0  0  0  0  0  0  0  0  0
    1.7134   -0.8739   -3.0946 C   0  0  0  0  0  0  0  0  0  0  0  0
    1.9497   -0.7633   -1.5803 C   0  0  0  0  0  0  0  0  0  0  0  0
   -3.7280    1.7810    0.9903 C   0  0  0  0  0  0  0  0  0  0  0  0
   -4.2346    2.7142    0.0870 C   0  0  0  0  0  0  0  0  0  0  0  0
   -4.4716    2.3405   -1.2346 C   0  0  0  0  0  0  0  0  0  0  0  0
   -4.9424    3.2590   -2.0897 F   0  0  0  0  0  0  0  0  0  0  0  0
   -5.4408    1.0748   -3.4496 H   0  0  0  0  0  0  0  0  0  0  0  0
   -4.5193   -0.4155   -3.2428 H   0  0  0  0  0  0  0  0  0  0  0  0
   -3.6812    1.0675   -3.7453 H   0  0  0  0  0  0  0  0  0  0  0  0
   -3.5143   -0.9199   -1.0959 H   0  0  0  0  0  0  0  0  0  0  0  0
   -1.0417   -1.3269    0.3080 H   0  0  0  0  0  0  0  0  0  0  0  0
   -0.8046    1.2531    1.0632 H   0  0  0  0  0  0  0  0  0  0  0  0
   -0.0501    0.4419    2.4392 H   0  0  0  0  0  0  0  0  0  0  0  0
    1.4251    1.1741    0.3672 H   0  0  0  0  0  0  0  0  0  0  0  0
    0.8855   -2.4992    1.3343 H   0  0  0  0  0  0  0  0  0  0  0  0
    2.5697   -3.7757    2.6306 H   0  0  0  0  0  0  0  0  0  0  0  0
    3.4549    1.0012    1.4730 H   0  0  0  0  0  0  0  0  0  0  0  0
    5.9942   -1.3005    4.6063 H   0  0  0  0  0  0  0  0  0  0  0  0
    6.7880   -1.8126    3.0957 H   0  0  0  0  0  0  0  0  0  0  0  0
   -0.8608   -0.1428   -2.1860 H   0  0  0  0  0  0  0  0  0  0  0  0
   -0.6895    1.2176   -1.0945 H   0  0  0  0  0  0  0  0  0  0  0  0
    1.4184    1.9060   -2.3162 H   0  0  0  0  0  0  0  0  0  0  0  0
   -0.0094    1.8826   -3.3512 H   0  0  0  0  0  0  0  0  0  0  0  0
    2.6289   -1.2047   -3.5954 H   0  0  0  0  0  0  0  0  0  0  0  0
    0.9361   -1.6150   -3.3152 H   0  0  0  0  0  0  0  0  0  0  0  0
    2.7229   -0.0016   -1.4139 H   0  0  0  0  0  0  0  0  0  0  0  0
    2.3282   -1.7252   -1.2192 H   0  0  0  0  0  0  0  0  0  0  0  0
   -3.5497    2.0697    2.0239 H   0  0  0  0  0  0  0  0  0  0  0  0
   -4.4498    3.7311    0.4019 H   0  0  0  0  0  0  0  0  0  0  0  0
  1  2  1  0
  2  3  2  0
  3  4  1  0
  4  5  1  0
  5  6  2  0
  5  7  2  0
  5  8  1  0
  8  9  1  0
  9 10  1  0
 10 11  1  0
 11 12  2  0
 12 13  1  0
 13 14  2  0
 14 15  1  0
 15 16  2  0
 15 17  1  0
 17 18  1  0
 18 19  1  0
 10 20  1  0
 20 21  1  0
 21 22  1  0
 22 23  1  0
 23 24  1  0
 24 25  1  0
  4 26  2  0
 26 27  1  0
 27 28  2  0
 28 29  1  0
 28  2  1  0
 16 11  1  0
 25 20  1  0
 19 14  1  0
  1 30  1  0
  1 31  1  0
  1 32  1  0
  3 33  1  0
  8 34  1  0
  9 35  1  0
  9 36  1  0
 10 37  1  0
 12 38  1  0
 13 39  1  0
 16 40  1  0
 18 41  1  0
 18 42  1  0
 21 43  1  0
 21 44  1  0
 22 45  1  0
 22 46  1  0
 24 47  1  0
 24 48  1  0
 25 49  1  0
 25 50  1  0
 26 51  1  0
 27 52  1  0
M  END
$$$$
