
     RDKit          3D

 43 45  0  0  0  0  0  0  0  0999 V2000
   -7.0948    1.1780   -1.0122 C   0  0  0  0  0  0  0  0  0  0  0  0
   -6.7266    0.7821    0.2136 C   0  0  0  0  0  0  0  0  0  0  0  0
   -6.2236   -0.5958    0.5465 C   0  0  0  0  0  0  0  0  0  0  0  0
   -4.7885   -0.5326    0.7700 N   0  0  0  0  0  0  0  0  0  0  0  0
   -4.3441   -0.2073    2.0426 C   0  0  0  0  0  0  0  0  0  0  0  0
   -5.0855    0.0178    2.9970 O   0  0  0  0  0  0  0  0  0  0  0  0
   -2.9960   -0.1387    2.2158 N   0  0  0  0  0  0  0  0  0  0  0  0
   -2.0762   -0.3675    1.2097 C   0  0  0  0  0  0  0  0  0  0  0  0
   -0.7706   -0.2539    1.5273 N   0  0  0  0  0  0  0  0  0  0  0  0
    0.1129   -0.4872    0.5317 C   0  0  0  0  0  0  0  0  0  0  0  0
    1.4722   -0.3867    0.7856 C   0  0  0  0  0  0  0  0  0  0  0  0
    2.4253   -0.6070   -0.2137 C   0  0  0  0  0  0  0  0  0  0  0  0
    3.7876   -0.5074    0.1034 N   0  0  0  0  0  0  0  0  0  0  0  0
    4.3130    0.6693   -0.0031 C   0  0  0  0  0  0  0  0  0  0  0  0
    5.6256    0.9970    0.2498 N   0  0  0  0  0  0  0  0  0  0  0  0
    6.4916    0.0180    0.8935 C   0  0  0  0  0  0  0  0  0  0  0  0
    6.0140    2.3899    0.3994 C   0  0  0  0  0  0  0  0  0  0  0  0
    2.0038   -0.9704   -1.4990 C   0  0  0  0  0  0  0  0  0  0  0  0
    2.9995   -1.2420   -2.5909 C   0  0  0  0  0  0  0  0  0  0  0  0
    0.6293   -1.0661   -1.7614 C   0  0  0  0  0  0  0  0  0  0  0  0
   -0.3189   -0.8317   -0.7754 C   0  0  0  0  0  0  0  0  0  0  0  0
   -1.6252   -0.9380   -1.0779 N   0  0  0  0  0  0  0  0  0  0  0  0
   -2.4932   -0.7002   -0.0627 C   0  0  0  0  0  0  0  0  0  0  0  0
   -3.9471   -0.8032   -0.3157 C   0  0  0  0  0  0  0  0  0  0  0  0
   -4.3556   -1.1209   -1.4310 O   0  0  0  0  0  0  0  0  0  0  0  0
   -7.4600    2.1851   -1.1876 H   0  0  0  0  0  0  0  0  0  0  0  0
   -7.0259    0.5120   -1.8686 H   0  0  0  0  0  0  0  0  0  0  0  0
   -6.8091    1.4811    1.0437 H   0  0  0  0  0  0  0  0  0  0  0  0
   -6.4535   -1.3043   -0.2575 H   0  0  0  0  0  0  0  0  0  0  0  0
   -6.7328   -0.9576    1.4470 H   0  0  0  0  0  0  0  0  0  0  0  0
   -2.6444    0.1000    3.1325 H   0  0  0  0  0  0  0  0  0  0  0  0
    1.8071   -0.1334    1.7882 H   0  0  0  0  0  0  0  0  0  0  0  0
    3.7136    1.5426   -0.3259 H   0  0  0  0  0  0  0  0  0  0  0  0
    7.5435    0.3154    0.8245 H   0  0  0  0  0  0  0  0  0  0  0  0
    6.2311   -0.0838    1.9521 H   0  0  0  0  0  0  0  0  0  0  0  0
    6.4033   -0.9621    0.4127 H   0  0  0  0  0  0  0  0  0  0  0  0
    5.5221    3.0166   -0.3522 H   0  0  0  0  0  0  0  0  0  0  0  0
    7.0941    2.5145    0.2689 H   0  0  0  0  0  0  0  0  0  0  0  0
    5.7384    2.7571    1.3933 H   0  0  0  0  0  0  0  0  0  0  0  0
    2.5108   -1.6334   -3.4894 H   0  0  0  0  0  0  0  0  0  0  0  0
    3.7308   -1.9894   -2.2663 H   0  0  0  0  0  0  0  0  0  0  0  0
    3.5197   -0.3191   -2.8664 H   0  0  0  0  0  0  0  0  0  0  0  0
    0.2825   -1.3368   -2.7572 H   0  0  0  0  0  0  0  0  0  0  0  0
  1  2  2  0
  2  3  1  0
  3  4  1  0
  4  5  1  0
  5  6  2  0
  5  7  1  0
  7  8  1  0
  8  9  2  0
  9 10  1  0
 10 11  2  0
 11 12  1  0
 12 13  1  0
 13 14  2  3
 14 15  1  0
 15 16  1  0
 15 17  1  0
 12 18  2  0
 18 19  1  0
 18 20  1  0
 20 21  2  0
 21 22  1  0
 22 23  2  0
 23 24  1  0
 24 25  2  0
 24  4  1  0
 23  8  1  0
 21 10  1  0
  1 26  1  0
  1 27  1  0
  2 28  1  0
  3 29  1  0
  3 30  1  0
  7 31  1  0
 11 32  1  0
 14 33  1  0
 16 34  1  0
 16 35  1  0
 16 36  1  0
 17 37  1  0
 17 38  1  0
 17 39  1  0
 19 40  1  0
 19 41  1  0
 19 42  1  0
 20 43  1  0
M  END
$$$$
