
     RDKit          3D

 49 52  0  0  0  0  0  0  0  0999 V2000
   -7.8622    0.1095   -2.3476 C   0  0  0  0  0  0  0  0  0  0  0  0
   -7.2667   -1.1145   -1.9363 O   0  0  0  0  0  0  0  0  0  0  0  0
   -6.4170   -1.0577   -0.8660 C   0  0  0  0  0  0  0  0  0  0  0  0
   -6.0791    0.0871   -0.1453 C   0  0  0  0  0  0  0  0  0  0  0  0
   -5.1919    0.0024    0.9334 C   0  0  0  0  0  0  0  0  0  0  0  0
   -4.6350   -1.2276    1.3098 C   0  0  0  0  0  0  0  0  0  0  0  0
   -3.6600   -1.3019    2.4556 C   0  0  0  0  0  0  0  0  0  0  0  0
   -2.3312   -0.9524    2.0174 N   0  0  0  0  0  0  0  0  0  0  0  0
   -1.8016    0.3076    2.1935 C   0  0  0  0  0  0  0  0  0  0  0  0
   -2.3832    1.1669    2.8530 O   0  0  0  0  0  0  0  0  0  0  0  0
   -0.5185    0.5525    1.5446 C   0  0  0  0  0  0  0  0  0  0  0  0
    0.2114    1.7393    1.5718 C   0  0  0  0  0  0  0  0  0  0  0  0
    1.4056    1.6196    0.8331 C   0  0  0  0  0  0  0  0  0  0  0  0
    1.5435    0.3855    0.2840 C   0  0  0  0  0  0  0  0  0  0  0  0
    0.2930   -0.6660    0.6112 S   0  0  0  0  0  0  0  0  0  0  0  0
    2.7939    0.2517   -0.4830 C   0  0  0  0  0  0  0  0  0  0  0  0
    3.5355    1.5234   -0.1586 N   0  0  0  0  0  0  0  0  0  0  0  0
    4.6503    1.2551    0.7681 C   0  0  0  0  0  0  0  0  0  0  0  0
    5.7794    0.4687    0.1321 C   0  0  0  0  0  0  0  0  0  0  0  0
    6.2807   -0.6846    0.7533 C   0  0  0  0  0  0  0  0  0  0  0  0
    7.3330   -1.3993    0.1775 C   0  0  0  0  0  0  0  0  0  0  0  0
    7.8990   -0.9665   -1.0202 C   0  0  0  0  0  0  0  0  0  0  0  0
    7.4155    0.1822   -1.6433 C   0  0  0  0  0  0  0  0  0  0  0  0
    6.3641    0.8980   -1.0690 C   0  0  0  0  0  0  0  0  0  0  0  0
    2.5594    2.4759    0.4855 C   0  0  0  0  0  0  0  0  0  0  0  0
   -4.9706   -2.3717    0.5769 C   0  0  0  0  0  0  0  0  0  0  0  0
   -5.8576   -2.2837   -0.4991 C   0  0  0  0  0  0  0  0  0  0  0  0
   -7.1031    0.8275   -2.6752 H   0  0  0  0  0  0  0  0  0  0  0  0
   -8.5087   -0.1047   -3.2042 H   0  0  0  0  0  0  0  0  0  0  0  0
   -8.4893    0.5300   -1.5545 H   0  0  0  0  0  0  0  0  0  0  0  0
   -6.4828    1.0625   -0.3950 H   0  0  0  0  0  0  0  0  0  0  0  0
   -4.9308    0.9076    1.4806 H   0  0  0  0  0  0  0  0  0  0  0  0
   -3.9864   -0.6522    3.2753 H   0  0  0  0  0  0  0  0  0  0  0  0
   -3.6138   -2.3225    2.8512 H   0  0  0  0  0  0  0  0  0  0  0  0
   -1.8676   -1.5647    1.3598 H   0  0  0  0  0  0  0  0  0  0  0  0
   -0.1224    2.6253    2.0998 H   0  0  0  0  0  0  0  0  0  0  0  0
    3.3419   -0.6590   -0.2224 H   0  0  0  0  0  0  0  0  0  0  0  0
    2.5842    0.2371   -1.5581 H   0  0  0  0  0  0  0  0  0  0  0  0
    4.2918    0.7470    1.6733 H   0  0  0  0  0  0  0  0  0  0  0  0
    5.0922    2.2055    1.0970 H   0  0  0  0  0  0  0  0  0  0  0  0
    5.8535   -1.0360    1.6897 H   0  0  0  0  0  0  0  0  0  0  0  0
    7.7125   -2.2937    0.6647 H   0  0  0  0  0  0  0  0  0  0  0  0
    8.7179   -1.5234   -1.4676 H   0  0  0  0  0  0  0  0  0  0  0  0
    7.8563    0.5222   -2.5766 H   0  0  0  0  0  0  0  0  0  0  0  0
    5.9928    1.7933   -1.5640 H   0  0  0  0  0  0  0  0  0  0  0  0
    2.9704    2.9910    1.3600 H   0  0  0  0  0  0  0  0  0  0  0  0
    2.2640    3.2266   -0.2555 H   0  0  0  0  0  0  0  0  0  0  0  0
   -4.5477   -3.3395    0.8353 H   0  0  0  0  0  0  0  0  0  0  0  0
   -6.1147   -3.1794   -1.0596 H   0  0  0  0  0  0  0  0  0  0  0  0
  1  2  1  0
  2  3  1  0
  3  4  2  0
  4  5  1  0
  5  6  2  0
  6  7  1  0
  7  8  1  0
  8  9  1  0
  9 10  2  0
  9 11  1  0
 11 12  2  0
 12 13  1  0
 13 14  2  0
 14 15  1  0
 14 16  1  0
 16 17  1  0
 17 18  1  0
 18 19  1  0
 19 20  2  0
 20 21  1  0
 21 22  2  0
 22 23  1  0
 23 24  2  0
 17 25  1  0
  6 26  1  0
 26 27  2  0
 27  3  1  0
 15 11  1  0
 24 19  1  0
 25 13  1  0
  1 28  1  0
  1 29  1  0
  1 30  1  0
  4 31  1  0
  5 32  1  0
  7 33  1  0
  7 34  1  0
  8 35  1  0
 12 36  1  0
 16 37  1  0
 16 38  1  0
 18 39  1  0
 18 40  1  0
 20 41  1  0
 21 42  1  0
 22 43  1  0
 23 44  1  0
 24 45  1  0
 25 46  1  0
 25 47  1  0
 26 48  1  0
 27 49  1  0
M  END
$$$$
