
     RDKit          3D

 41 43  0  0  0  0  0  0  0  0999 V2000
   -4.2050    0.4238    1.2680 O   0  0  0  0  0  0  0  0  0  0  0  0
   -4.4837   -0.0731    0.1873 C   0  0  0  0  0  0  0  0  0  0  0  0
   -3.6047   -0.4858   -0.7967 O   0  0  0  0  0  0  0  0  0  0  0  0
   -2.2528   -0.3099   -0.4839 C   0  0  0  0  0  0  0  0  0  0  0  0
   -1.6424   -1.0873    0.5009 C   0  0  0  0  0  0  0  0  0  0  0  0
   -0.2790   -0.9247    0.7517 C   0  0  0  0  0  0  0  0  0  0  0  0
    0.4602    0.0003    0.0045 C   0  0  0  0  0  0  0  0  0  0  0  0
    1.9030    0.1508    0.2902 C   0  0  0  0  0  0  0  0  0  0  0  0
    2.6434    0.9762   -0.3791 N   0  0  0  0  0  0  0  0  0  0  0  0
    3.9809    1.0288   -0.0904 N   0  0  0  0  0  0  0  0  0  0  0  0
    4.7852   -0.0264    0.3226 C   0  0  0  0  0  0  0  0  0  0  0  0
    4.4182   -1.1519    0.6455 O   0  0  0  0  0  0  0  0  0  0  0  0
    6.2429    0.3247    0.3274 C   0  0  0  0  0  0  0  0  0  0  0  0
    7.1820   -0.6104    0.7460 C   0  0  0  0  0  0  0  0  0  0  0  0
    8.5245   -0.2444    0.7312 C   0  0  0  0  0  0  0  0  0  0  0  0
    8.8796    1.0310    0.3019 C   0  0  0  0  0  0  0  0  0  0  0  0
    7.8748    1.8983   -0.0999 C   0  0  0  0  0  0  0  0  0  0  0  0
    6.5620    1.5804   -0.1004 N   0  0  0  0  0  0  0  0  0  0  0  0
   -0.1584    0.7594   -0.9963 C   0  0  0  0  0  0  0  0  0  0  0  0
   -1.5217    0.5993   -1.2466 C   0  0  0  0  0  0  0  0  0  0  0  0
   -5.8856   -0.3168   -0.2566 C   0  0  0  0  0  0  0  0  0  0  0  0
   -6.9248    0.0759    0.6006 C   0  0  0  0  0  0  0  0  0  0  0  0
   -8.2589   -0.1286    0.2372 C   0  0  0  0  0  0  0  0  0  0  0  0
   -8.5571   -0.7274   -0.9850 C   0  0  0  0  0  0  0  0  0  0  0  0
  -10.3601   -1.0052   -1.4786 Br  0  0  0  0  0  0  0  0  0  0  0  0
   -7.5352   -1.1235   -1.8467 C   0  0  0  0  0  0  0  0  0  0  0  0
   -6.1996   -0.9192   -1.4841 C   0  0  0  0  0  0  0  0  0  0  0  0
   -2.2195   -1.8062    1.0749 H   0  0  0  0  0  0  0  0  0  0  0  0
    0.1969   -1.5223    1.5249 H   0  0  0  0  0  0  0  0  0  0  0  0
    2.2885   -0.4608    1.1226 H   0  0  0  0  0  0  0  0  0  0  0  0
    4.4787    1.8271   -0.4862 H   0  0  0  0  0  0  0  0  0  0  0  0
    6.8763   -1.5988    1.0743 H   0  0  0  0  0  0  0  0  0  0  0  0
    9.2874   -0.9490    1.0516 H   0  0  0  0  0  0  0  0  0  0  0  0
    9.9187    1.3425    0.2802 H   0  0  0  0  0  0  0  0  0  0  0  0
    8.1104    2.9026   -0.4423 H   0  0  0  0  0  0  0  0  0  0  0  0
    0.4174    1.4724   -1.5816 H   0  0  0  0  0  0  0  0  0  0  0  0
   -2.0046    1.1810   -2.0258 H   0  0  0  0  0  0  0  0  0  0  0  0
   -6.6995    0.5448    1.5576 H   0  0  0  0  0  0  0  0  0  0  0  0
   -9.0520    0.1820    0.9128 H   0  0  0  0  0  0  0  0  0  0  0  0
   -7.7659   -1.5914   -2.8008 H   0  0  0  0  0  0  0  0  0  0  0  0
   -5.4202   -1.2378   -2.1724 H   0  0  0  0  0  0  0  0  0  0  0  0
  1  2  2  0
  2  3  1  0
  3  4  1  0
  4  5  2  0
  5  6  1  0
  6  7  2  0
  7  8  1  0
  8  9  2  3
  9 10  1  0
 10 11  1  0
 11 12  2  0
 11 13  1  0
 13 14  2  0
 14 15  1  0
 15 16  2  0
 16 17  1  0
 17 18  2  0
  7 19  1  0
 19 20  2  0
  2 21  1  0
 21 22  2  0
 22 23  1  0
 23 24  2  0
 24 25  1  0
 24 26  1  0
 26 27  2  0
 20  4  1  0
 27 21  1  0
 18 13  1  0
  5 28  1  0
  6 29  1  0
  8 30  1  0
 10 31  1  0
 14 32  1  0
 15 33  1  0
 16 34  1  0
 17 35  1  0
 19 36  1  0
 20 37  1  0
 22 38  1  0
 23 39  1  0
 26 40  1  0
 27 41  1  0
M  END
$$$$
