
     RDKit          3D

 37 40  0  0  0  0  0  0  0  0999 V2000
    2.8940    2.2771    1.3926 C   0  0  0  0  0  0  0  0  0  0  0  0
    3.2047    1.0244    0.6540 C   0  0  0  0  0  0  0  0  0  0  0  0
    4.4957    0.6681    0.5588 N   0  0  0  0  0  0  0  0  0  0  0  0
    4.4628   -0.5202   -0.0534 N   0  0  0  0  0  0  0  0  0  0  0  0
    5.6978   -1.2153   -0.3212 C   0  0  0  0  0  0  0  0  0  0  0  0
    3.2053   -0.9424   -0.3483 C   0  0  0  0  0  0  0  0  0  0  0  0
    2.3300    0.0432    0.0706 C   0  0  0  0  0  0  0  0  0  0  0  0
    0.9160    0.0114   -0.0537 N   0  0  0  0  0  0  0  0  0  0  0  0
    0.2361    1.2270   -0.1903 C   0  0  0  0  0  0  0  0  0  0  0  0
    0.7535    2.3254   -0.3865 O   0  0  0  0  0  0  0  0  0  0  0  0
   -1.2449    1.1868   -0.1814 C   0  0  0  0  0  0  0  0  0  0  0  0
   -1.9526    2.3967   -0.1487 C   0  0  0  0  0  0  0  0  0  0  0  0
   -3.3400    2.3932   -0.1614 C   0  0  0  0  0  0  0  0  0  0  0  0
   -4.0259    1.1812   -0.2235 C   0  0  0  0  0  0  0  0  0  0  0  0
   -3.3442   -0.0565   -0.2723 C   0  0  0  0  0  0  0  0  0  0  0  0
   -4.0124   -1.3068   -0.3660 C   0  0  0  0  0  0  0  0  0  0  0  0
   -5.4152   -1.4366   -0.3080 N   0  0  0  0  0  0  0  0  0  0  0  0
   -3.2720   -2.4913   -0.3232 C   0  0  0  0  0  0  0  0  0  0  0  0
   -1.8828   -2.4598   -0.2762 C   0  0  0  0  0  0  0  0  0  0  0  0
   -1.2069   -1.2344   -0.2365 C   0  0  0  0  0  0  0  0  0  0  0  0
   -1.9204   -0.0350   -0.2309 C   0  0  0  0  0  0  0  0  0  0  0  0
    0.2750   -1.2355   -0.1451 C   0  0  0  0  0  0  0  0  0  0  0  0
    0.8188   -2.3395   -0.1201 O   0  0  0  0  0  0  0  0  0  0  0  0
    1.9333    2.2078    1.9114 H   0  0  0  0  0  0  0  0  0  0  0  0
    2.8805    3.1341    0.7127 H   0  0  0  0  0  0  0  0  0  0  0  0
    3.6528    2.4756    2.1583 H   0  0  0  0  0  0  0  0  0  0  0  0
    6.2013   -1.4032    0.6304 H   0  0  0  0  0  0  0  0  0  0  0  0
    6.3157   -0.5848   -0.9655 H   0  0  0  0  0  0  0  0  0  0  0  0
    5.4825   -2.1622   -0.8224 H   0  0  0  0  0  0  0  0  0  0  0  0
    3.0431   -1.8886   -0.8448 H   0  0  0  0  0  0  0  0  0  0  0  0
   -1.4225    3.3475   -0.1147 H   0  0  0  0  0  0  0  0  0  0  0  0
   -3.8884    3.3319   -0.1324 H   0  0  0  0  0  0  0  0  0  0  0  0
   -5.1117    1.2231   -0.2372 H   0  0  0  0  0  0  0  0  0  0  0  0
   -5.7232   -1.6633    0.6358 H   0  0  0  0  0  0  0  0  0  0  0  0
   -5.9192   -0.6286   -0.6557 H   0  0  0  0  0  0  0  0  0  0  0  0
   -3.7840   -3.4513   -0.3452 H   0  0  0  0  0  0  0  0  0  0  0  0
   -1.3327   -3.3993   -0.2601 H   0  0  0  0  0  0  0  0  0  0  0  0
  1  2  1  0
  2  3  2  0
  3  4  1  0
  4  5  1  0
  4  6  1  0
  6  7  2  0
  7  8  1  0
  8  9  1  0
  9 10  2  0
  9 11  1  0
 11 12  2  0
 12 13  1  0
 13 14  2  0
 14 15  1  0
 15 16  2  0
 16 17  1  0
 16 18  1  0
 18 19  2  0
 19 20  1  0
 20 21  2  0
 20 22  1  0
 22 23  2  0
  7  2  1  0
 22  8  1  0
 21 11  1  0
 21 15  1  0
  1 24  1  0
  1 25  1  0
  1 26  1  0
  5 27  1  0
  5 28  1  0
  5 29  1  0
  6 30  1  0
 12 31  1  0
 13 32  1  0
 14 33  1  0
 17 34  1  0
 17 35  1  0
 18 36  1  0
 19 37  1  0
M  END
$$$$
