
     RDKit          3D

 31 32  0  0  0  0  0  0  0  0999 V2000
    0.7779   -0.1170    2.4785 S   0  0  0  0  0  0  0  0  0  0  0  0
    0.1718   -0.1790    0.9108 C   0  0  0  0  0  0  0  0  0  0  0  0
    0.9234   -0.4629   -0.2218 N   0  0  0  0  0  0  0  0  0  0  0  0
    2.3178   -0.4207   -0.4683 C   0  0  0  0  0  0  0  0  0  0  0  0
    3.1971    0.4060    0.2361 C   0  0  0  0  0  0  0  0  0  0  0  0
    4.5617    0.4246   -0.0756 C   0  0  0  0  0  0  0  0  0  0  0  0
    5.0531   -0.3695   -1.1082 C   0  0  0  0  0  0  0  0  0  0  0  0
    6.7304   -0.3376   -1.4873 Cl  0  0  0  0  0  0  0  0  0  0  0  0
    4.1932   -1.1756   -1.8454 C   0  0  0  0  0  0  0  0  0  0  0  0
    2.8325   -1.1910   -1.5309 C   0  0  0  0  0  0  0  0  0  0  0  0
    1.7910   -2.1942   -2.4863 Cl  0  0  0  0  0  0  0  0  0  0  0  0
   -1.1985   -0.0068    0.6028 N   0  0  0  0  0  0  0  0  0  0  0  0
   -1.6522    0.3662   -0.7488 C   0  0  0  0  0  0  0  0  0  0  0  0
   -2.8605    1.2956   -0.7159 C   0  0  0  0  0  0  0  0  0  0  0  0
   -4.0456    0.6709    0.0163 C   0  0  0  0  0  0  0  0  0  0  0  0
   -3.6169   -0.3291    1.0874 C   0  0  0  0  0  0  0  0  0  0  0  0
   -2.2364   -0.0085    1.6500 C   0  0  0  0  0  0  0  0  0  0  0  0
    0.4096   -1.0075   -0.9068 H   0  0  0  0  0  0  0  0  0  0  0  0
    2.8478    1.0770    1.0144 H   0  0  0  0  0  0  0  0  0  0  0  0
    5.2300    1.0709    0.4890 H   0  0  0  0  0  0  0  0  0  0  0  0
    4.5767   -1.7844   -2.6592 H   0  0  0  0  0  0  0  0  0  0  0  0
   -0.8415    0.8602   -1.2947 H   0  0  0  0  0  0  0  0  0  0  0  0
   -1.8982   -0.5627   -1.2767 H   0  0  0  0  0  0  0  0  0  0  0  0
   -2.5790    2.2267   -0.2072 H   0  0  0  0  0  0  0  0  0  0  0  0
   -3.1574    1.5717   -1.7339 H   0  0  0  0  0  0  0  0  0  0  0  0
   -4.7033    0.1633   -0.6996 H   0  0  0  0  0  0  0  0  0  0  0  0
   -4.6445    1.4707    0.4683 H   0  0  0  0  0  0  0  0  0  0  0  0
   -3.5970   -1.3345    0.6473 H   0  0  0  0  0  0  0  0  0  0  0  0
   -4.3608   -0.3531    1.8915 H   0  0  0  0  0  0  0  0  0  0  0  0
   -1.9866   -0.7509    2.4148 H   0  0  0  0  0  0  0  0  0  0  0  0
   -2.2359    0.9813    2.1222 H   0  0  0  0  0  0  0  0  0  0  0  0
  1  2  2  0
  2  3  1  0
  3  4  1  0
  4  5  2  0
  5  6  1  0
  6  7  2  0
  7  8  1  0
  7  9  1  0
  9 10  2  0
 10 11  1  0
  2 12  1  0
 12 13  1  0
 13 14  1  0
 14 15  1  0
 15 16  1  0
 16 17  1  0
 10  4  1  0
 17 12  1  0
  3 18  1  0
  5 19  1  0
  6 20  1  0
  9 21  1  0
 13 22  1  0
 13 23  1  0
 14 24  1  0
 14 25  1  0
 15 26  1  0
 15 27  1  0
 16 28  1  0
 16 29  1  0
 17 30  1  0
 17 31  1  0
M  END
$$$$
