
     RDKit          3D

 47 49  0  0  0  0  0  0  0  0999 V2000
    7.3653   -1.1646    0.9870 C   0  0  0  0  0  0  0  0  0  0  0  0
    6.1075   -1.6881    0.3111 C   0  0  0  0  0  0  0  0  0  0  0  0
    5.1557   -0.5810   -0.1447 C   0  0  0  0  0  0  0  0  0  0  0  0
    4.5449    0.2082    1.0178 C   0  0  0  0  0  0  0  0  0  0  0  0
    3.5697    1.1935    0.5440 N   0  0  0  0  0  0  0  0  0  0  0  0
    2.2554    0.7891    0.3620 C   0  0  0  0  0  0  0  0  0  0  0  0
    1.8347   -0.3401    0.5740 O   0  0  0  0  0  0  0  0  0  0  0  0
    1.4252    1.9213   -0.1460 C   0  0  0  0  0  0  0  0  0  0  0  0
    0.1119    1.9456   -0.4281 C   0  0  0  0  0  0  0  0  0  0  0  0
   -0.8385    0.8531   -0.2813 C   0  0  0  0  0  0  0  0  0  0  0  0
   -2.1542    0.8024   -0.6104 C   0  0  0  0  0  0  0  0  0  0  0  0
   -2.8032    1.9570   -1.2358 C   0  0  0  0  0  0  0  0  0  0  0  0
   -4.1166    2.0126   -1.4836 C   0  0  0  0  0  0  0  0  0  0  0  0
   -4.9710    0.8887   -1.1130 C   0  0  0  0  0  0  0  0  0  0  0  0
   -6.3569    0.9919   -1.3143 C   0  0  0  0  0  0  0  0  0  0  0  0
   -7.1973   -0.0607   -0.9687 C   0  0  0  0  0  0  0  0  0  0  0  0
   -6.6551   -1.2146   -0.4188 C   0  0  0  0  0  0  0  0  0  0  0  0
   -5.2722   -1.3203   -0.2202 C   0  0  0  0  0  0  0  0  0  0  0  0
   -4.3894   -0.2802   -0.5688 C   0  0  0  0  0  0  0  0  0  0  0  0
   -2.9699   -0.3424   -0.3856 N   0  0  0  0  0  0  0  0  0  0  0  0
   -2.4042   -1.6565   -0.0161 C   0  0  0  0  0  0  0  0  0  0  0  0
   -2.3270   -1.8240    1.4962 C   0  0  0  0  0  0  0  0  0  0  0  0
    2.4272    3.3152   -0.3585 S   0  0  0  0  0  0  0  0  0  0  0  0
    3.8762    2.4910    0.1946 C   0  0  0  0  0  0  0  0  0  0  0  0
    5.3585    3.2551    0.2520 S   0  0  0  0  0  0  0  0  0  0  0  0
    7.8893   -0.4507    0.3437 H   0  0  0  0  0  0  0  0  0  0  0  0
    7.1358   -0.6720    1.9363 H   0  0  0  0  0  0  0  0  0  0  0  0
    8.0487   -1.9927    1.2010 H   0  0  0  0  0  0  0  0  0  0  0  0
    6.4030   -2.2750   -0.5668 H   0  0  0  0  0  0  0  0  0  0  0  0
    5.5862   -2.3736    0.9894 H   0  0  0  0  0  0  0  0  0  0  0  0
    5.6803    0.0978   -0.8277 H   0  0  0  0  0  0  0  0  0  0  0  0
    4.3501   -1.0402   -0.7314 H   0  0  0  0  0  0  0  0  0  0  0  0
    5.3230    0.7175    1.5932 H   0  0  0  0  0  0  0  0  0  0  0  0
    4.0410   -0.4825    1.7045 H   0  0  0  0  0  0  0  0  0  0  0  0
   -0.2919    2.8865   -0.7913 H   0  0  0  0  0  0  0  0  0  0  0  0
   -0.4127   -0.0257    0.1895 H   0  0  0  0  0  0  0  0  0  0  0  0
   -2.2119    2.8141   -1.5310 H   0  0  0  0  0  0  0  0  0  0  0  0
   -4.5610    2.8827   -1.9518 H   0  0  0  0  0  0  0  0  0  0  0  0
   -6.7873    1.8952   -1.7388 H   0  0  0  0  0  0  0  0  0  0  0  0
   -8.2695    0.0220   -1.1227 H   0  0  0  0  0  0  0  0  0  0  0  0
   -7.3053   -2.0388   -0.1365 H   0  0  0  0  0  0  0  0  0  0  0  0
   -4.9201   -2.2409    0.2318 H   0  0  0  0  0  0  0  0  0  0  0  0
   -2.9616   -2.4853   -0.4679 H   0  0  0  0  0  0  0  0  0  0  0  0
   -1.4015   -1.7769   -0.4444 H   0  0  0  0  0  0  0  0  0  0  0  0
   -1.6989   -1.0532    1.9535 H   0  0  0  0  0  0  0  0  0  0  0  0
   -1.8977   -2.7997    1.7448 H   0  0  0  0  0  0  0  0  0  0  0  0
   -3.3146   -1.7607    1.9628 H   0  0  0  0  0  0  0  0  0  0  0  0
  1  2  1  0
  2  3  1  0
  3  4  1  0
  4  5  1  0
  5  6  1  0
  6  7  2  0
  6  8  1  0
  8  9  2  3
  9 10  1  0
 10 11  2  3
 11 12  1  0
 12 13  2  0
 13 14  1  0
 14 15  2  0
 15 16  1  0
 16 17  2  0
 17 18  1  0
 18 19  2  0
 19 20  1  0
 20 21  1  0
 21 22  1  0
  8 23  1  0
 23 24  1  0
 24 25  2  0
 24  5  1  0
 20 11  1  0
 19 14  1  0
  1 26  1  0
  1 27  1  0
  1 28  1  0
  2 29  1  0
  2 30  1  0
  3 31  1  0
  3 32  1  0
  4 33  1  0
  4 34  1  0
  9 35  1  0
 10 36  1  0
 12 37  1  0
 13 38  1  0
 15 39  1  0
 16 40  1  0
 17 41  1  0
 18 42  1  0
 21 43  1  0
 21 44  1  0
 22 45  1  0
 22 46  1  0
 22 47  1  0
M  END
$$$$
