
     RDKit          3D

 36 39  0  0  0  0  0  0  0  0999 V2000
   -6.1365    0.1683   -2.6306 C   0  0  0  0  0  0  0  0  0  0  0  0
   -5.0112    0.0406   -1.6339 C   0  0  0  0  0  0  0  0  0  0  0  0
   -5.3838   -0.0617   -0.1922 C   0  0  0  0  0  0  0  0  0  0  0  0
   -4.3751   -0.1790    0.6921 C   0  0  0  0  0  0  0  0  0  0  0  0
   -4.6683   -0.2859    2.1565 C   0  0  0  0  0  0  0  0  0  0  0  0
   -3.0560   -0.1935    0.1990 N   0  0  0  0  0  0  0  0  0  0  0  0
   -1.8215   -0.3016    0.8108 C   0  0  0  0  0  0  0  0  0  0  0  0
   -1.3919   -0.4984    2.6587 Br  0  0  0  0  0  0  0  0  0  0  0  0
   -0.8786   -0.2363   -0.1965 C   0  0  0  0  0  0  0  0  0  0  0  0
    0.6111   -0.2946   -0.1276 C   0  0  0  0  0  0  0  0  0  0  0  0
    1.2986    1.3267    0.3232 S   0  0  0  0  0  0  0  0  0  0  0  0
    3.0059    0.9460    0.3324 C   0  0  0  0  0  0  0  0  0  0  0  0
    3.4450   -0.2833    0.1989 N   0  0  0  0  0  0  0  0  0  0  0  0
    4.8292   -0.2911    0.2452 C   0  0  0  0  0  0  0  0  0  0  0  0
    5.6534   -1.4290    0.1305 C   0  0  0  0  0  0  0  0  0  0  0  0
    7.0438   -1.2906    0.1961 C   0  0  0  0  0  0  0  0  0  0  0  0
    7.6197   -0.0366    0.3742 C   0  0  0  0  0  0  0  0  0  0  0  0
    6.8246    1.1078    0.4909 C   0  0  0  0  0  0  0  0  0  0  0  0
    5.4296    0.9572    0.4233 C   0  0  0  0  0  0  0  0  0  0  0  0
    4.1993    2.1564    0.5318 S   0  0  0  0  0  0  0  0  0  0  0  0
   -1.5006   -0.1158   -1.4150 N   0  0  0  0  0  0  0  0  0  0  0  0
   -2.7938   -0.0870   -1.1751 C   0  0  0  0  0  0  0  0  0  0  0  0
   -3.7973    0.0272   -2.0902 N   0  0  0  0  0  0  0  0  0  0  0  0
   -6.0197    1.1023   -3.1880 H   0  0  0  0  0  0  0  0  0  0  0  0
   -6.0951   -0.6718   -3.3301 H   0  0  0  0  0  0  0  0  0  0  0  0
   -7.1126    0.1704   -2.1391 H   0  0  0  0  0  0  0  0  0  0  0  0
   -6.4298   -0.0389    0.0843 H   0  0  0  0  0  0  0  0  0  0  0  0
   -5.7455   -0.2488    2.3574 H   0  0  0  0  0  0  0  0  0  0  0  0
   -4.2189    0.5461    2.7071 H   0  0  0  0  0  0  0  0  0  0  0  0
   -4.3078   -1.2373    2.5589 H   0  0  0  0  0  0  0  0  0  0  0  0
    0.9204   -1.0503    0.6023 H   0  0  0  0  0  0  0  0  0  0  0  0
    1.0083   -0.5933   -1.1043 H   0  0  0  0  0  0  0  0  0  0  0  0
    5.2009   -2.4058   -0.0092 H   0  0  0  0  0  0  0  0  0  0  0  0
    7.6761   -2.1710    0.1062 H   0  0  0  0  0  0  0  0  0  0  0  0
    8.7028    0.0568    0.4229 H   0  0  0  0  0  0  0  0  0  0  0  0
    7.2753    2.0860    0.6293 H   0  0  0  0  0  0  0  0  0  0  0  0
  1  2  1  0
  2  3  1  0
  3  4  2  0
  4  5  1  0
  4  6  1  0
  6  7  1  0
  7  8  1  0
  7  9  2  0
  9 10  1  0
 10 11  1  0
 11 12  1  0
 12 13  2  0
 13 14  1  0
 14 15  2  0
 15 16  1  0
 16 17  2  0
 17 18  1  0
 18 19  2  0
 19 20  1  0
  9 21  1  0
 21 22  2  0
 22 23  1  0
 23  2  2  0
 22  6  1  0
 20 12  1  0
 19 14  1  0
  1 24  1  0
  1 25  1  0
  1 26  1  0
  3 27  1  0
  5 28  1  0
  5 29  1  0
  5 30  1  0
 10 31  1  0
 10 32  1  0
 15 33  1  0
 16 34  1  0
 17 35  1  0
 18 36  1  0
M  END
$$$$
