
     RDKit          3D

 44 46  0  0  0  0  0  0  0  0999 V2000
   -4.5437   -0.1635   -3.0177 C   0  0  0  0  0  0  0  0  0  0  0  0
   -4.5130   -0.2622   -1.5209 C   0  0  0  0  0  0  0  0  0  0  0  0
   -5.6581    0.0140   -0.7693 C   0  0  0  0  0  0  0  0  0  0  0  0
   -5.6133   -0.0260    0.6248 C   0  0  0  0  0  0  0  0  0  0  0  0
   -4.4221   -0.3430    1.2920 C   0  0  0  0  0  0  0  0  0  0  0  0
   -4.3890   -0.3675    2.7944 C   0  0  0  0  0  0  0  0  0  0  0  0
   -3.2704   -0.6295    0.5412 C   0  0  0  0  0  0  0  0  0  0  0  0
   -2.1329   -0.9035    1.2568 O   0  0  0  0  0  0  0  0  0  0  0  0
   -1.1925   -1.8005    0.6581 C   0  0  0  0  0  0  0  0  0  0  0  0
   -0.0868   -1.0137    0.0691 C   0  0  0  0  0  0  0  0  0  0  0  0
    0.5116    0.1863    0.3617 C   0  0  0  0  0  0  0  0  0  0  0  0
    1.5366    0.3306   -0.6101 C   0  0  0  0  0  0  0  0  0  0  0  0
    2.4369    1.4831   -0.7541 C   0  0  0  0  0  0  0  0  0  0  0  0
    2.0451    2.6042   -0.4201 O   0  0  0  0  0  0  0  0  0  0  0  0
    3.7274    1.3009   -1.2886 N   0  0  0  0  0  0  0  0  0  0  0  0
    4.5377    2.4973   -1.4397 C   0  0  0  0  0  0  0  0  0  0  0  0
    4.4612    0.0376   -1.1421 C   0  0  0  0  0  0  0  0  0  0  0  0
    4.9849   -0.1094    0.2629 C   0  0  0  0  0  0  0  0  0  0  0  0
    4.2294   -0.1513    1.3440 N   0  0  0  0  0  0  0  0  0  0  0  0
    5.0233   -0.2817    2.4653 C   0  0  0  0  0  0  0  0  0  0  0  0
    6.3787   -0.3459    2.2301 C   0  0  0  0  0  0  0  0  0  0  0  0
    6.6793   -0.2381    0.5473 S   0  0  0  0  0  0  0  0  0  0  0  0
    1.5147   -0.7071   -1.4660 N   0  0  0  0  0  0  0  0  0  0  0  0
    0.5182   -1.5533   -1.0214 O   0  0  0  0  0  0  0  0  0  0  0  0
   -3.3163   -0.5654   -0.8564 C   0  0  0  0  0  0  0  0  0  0  0  0
   -3.8459   -0.8767   -3.4693 H   0  0  0  0  0  0  0  0  0  0  0  0
   -4.2700    0.8484   -3.3317 H   0  0  0  0  0  0  0  0  0  0  0  0
   -5.5411   -0.3964   -3.4052 H   0  0  0  0  0  0  0  0  0  0  0  0
   -6.5916    0.2732   -1.2637 H   0  0  0  0  0  0  0  0  0  0  0  0
   -6.5156    0.2000    1.1885 H   0  0  0  0  0  0  0  0  0  0  0  0
   -3.6930    0.3896    3.1698 H   0  0  0  0  0  0  0  0  0  0  0  0
   -5.3747   -0.1553    3.2218 H   0  0  0  0  0  0  0  0  0  0  0  0
   -4.0799   -1.3552    3.1515 H   0  0  0  0  0  0  0  0  0  0  0  0
   -1.6589   -2.4848   -0.0606 H   0  0  0  0  0  0  0  0  0  0  0  0
   -0.7892   -2.4226    1.4651 H   0  0  0  0  0  0  0  0  0  0  0  0
    0.2570    0.8703    1.1581 H   0  0  0  0  0  0  0  0  0  0  0  0
    5.3181    2.3207   -2.1854 H   0  0  0  0  0  0  0  0  0  0  0  0
    3.9242    3.3391   -1.7751 H   0  0  0  0  0  0  0  0  0  0  0  0
    4.9909    2.7530   -0.4772 H   0  0  0  0  0  0  0  0  0  0  0  0
    5.2696    0.0299   -1.8827 H   0  0  0  0  0  0  0  0  0  0  0  0
    3.8373   -0.8259   -1.3685 H   0  0  0  0  0  0  0  0  0  0  0  0
    4.5567   -0.3265    3.4420 H   0  0  0  0  0  0  0  0  0  0  0  0
    7.1817   -0.4479    2.9456 H   0  0  0  0  0  0  0  0  0  0  0  0
   -2.4223   -0.7255   -1.4523 H   0  0  0  0  0  0  0  0  0  0  0  0
  1  2  1  0
  2  3  2  0
  3  4  1  0
  4  5  2  0
  5  6  1  0
  5  7  1  0
  7  8  1  0
  8  9  1  0
  9 10  1  0
 10 11  2  0
 11 12  1  0
 12 13  1  0
 13 14  2  0
 13 15  1  0
 15 16  1  0
 15 17  1  0
 17 18  1  0
 18 19  2  0
 19 20  1  0
 20 21  2  0
 21 22  1  0
 12 23  2  0
 23 24  1  0
  7 25  2  0
 25  2  1  0
 24 10  1  0
 22 18  1  0
  1 26  1  0
  1 27  1  0
  1 28  1  0
  3 29  1  0
  4 30  1  0
  6 31  1  0
  6 32  1  0
  6 33  1  0
  9 34  1  0
  9 35  1  0
 11 36  1  0
 16 37  1  0
 16 38  1  0
 16 39  1  0
 17 40  1  0
 17 41  1  0
 20 42  1  0
 21 43  1  0
 25 44  1  0
M  END
$$$$
