
     RDKit          3D

 67 72  0  0  0  0  0  0  0  0999 V2000
   -3.1288    4.5318    4.6035 C   0  0  0  0  0  0  0  0  0  0  0  0
   -3.0217    4.6358    3.1893 O   0  0  0  0  0  0  0  0  0  0  0  0
   -2.4531    3.5780    2.5354 C   0  0  0  0  0  0  0  0  0  0  0  0
   -2.2977    3.7549    1.1607 C   0  0  0  0  0  0  0  0  0  0  0  0
   -1.7288    2.7529    0.3706 C   0  0  0  0  0  0  0  0  0  0  0  0
   -1.3071    1.5440    0.9427 C   0  0  0  0  0  0  0  0  0  0  0  0
   -0.6874    0.4782    0.0498 C   0  0  0  0  0  0  0  0  0  0  0  0
   -1.2714   -0.9362    0.3107 C   0  0  0  0  0  0  0  0  0  0  0  0
   -1.7896   -1.5592   -0.9997 C   0  0  0  0  0  0  0  0  0  0  0  0
   -1.0430   -1.7588   -1.9636 O   0  0  0  0  0  0  0  0  0  0  0  0
   -3.2932   -1.9051   -1.0836 C   0  0  0  0  0  0  0  0  0  0  0  0
   -3.6369   -2.9941   -0.0601 C   0  0  0  0  0  0  0  0  0  0  0  0
   -4.1340   -0.6444   -0.8384 C   0  0  0  0  0  0  0  0  0  0  0  0
   -3.6187   -2.4367   -2.4918 C   0  0  0  0  0  0  0  0  0  0  0  0
   -0.1743   -1.7101    0.8637 N   0  0  0  0  0  0  0  0  0  0  0  0
   -0.3898   -2.9399    1.4096 N   0  0  0  0  0  0  0  0  0  0  0  0
    0.6881   -3.6228    1.6658 C   0  0  0  0  0  0  0  0  0  0  0  0
    2.0604   -3.1420    1.4173 C   0  0  0  0  0  0  0  0  0  0  0  0
    3.1347   -4.0283    1.5081 C   0  0  0  0  0  0  0  0  0  0  0  0
    4.4264   -3.5527    1.2956 C   0  0  0  0  0  0  0  0  0  0  0  0
    4.6338   -2.2026    1.0115 C   0  0  0  0  0  0  0  0  0  0  0  0
    3.5523   -1.3180    0.9342 C   0  0  0  0  0  0  0  0  0  0  0  0
    2.2456   -1.7831    1.1157 C   0  0  0  0  0  0  0  0  0  0  0  0
    1.0175   -0.9085    1.1356 C   0  0  0  0  0  0  0  0  0  0  0  0
    0.8545    0.2841    0.1804 C   0  0  0  0  0  0  0  0  0  0  0  0
    1.4053    0.0361   -1.1840 N   0  0  0  0  0  0  0  0  0  0  0  0
    2.1883    1.0436   -1.3885 C   0  0  0  0  0  0  0  0  0  0  0  0
    2.9610    1.3022   -2.6132 C   0  0  0  0  0  0  0  0  0  0  0  0
    2.8656    0.3907   -3.6721 C   0  0  0  0  0  0  0  0  0  0  0  0
    3.5901    0.6030   -4.8460 C   0  0  0  0  0  0  0  0  0  0  0  0
    4.4100    1.7246   -4.9661 C   0  0  0  0  0  0  0  0  0  0  0  0
    4.5068    2.6364   -3.9149 C   0  0  0  0  0  0  0  0  0  0  0  0
    3.7844    2.4281   -2.7377 C   0  0  0  0  0  0  0  0  0  0  0  0
    2.3570    1.9405   -0.4019 O   0  0  0  0  0  0  0  0  0  0  0  0
    1.6281    1.4927    0.6558 C   0  0  0  0  0  0  0  0  0  0  0  0
    1.6672    1.9811    1.7716 O   0  0  0  0  0  0  0  0  0  0  0  0
   -1.4674    1.3742    2.3256 C   0  0  0  0  0  0  0  0  0  0  0  0
   -2.0359    2.3818    3.1146 C   0  0  0  0  0  0  0  0  0  0  0  0
   -2.1439    4.4167    5.0685 H   0  0  0  0  0  0  0  0  0  0  0  0
   -3.7987    3.7138    4.8884 H   0  0  0  0  0  0  0  0  0  0  0  0
   -3.5649    5.4641    4.9752 H   0  0  0  0  0  0  0  0  0  0  0  0
   -2.6188    4.6862    0.7002 H   0  0  0  0  0  0  0  0  0  0  0  0
   -1.6219    2.9325   -0.6974 H   0  0  0  0  0  0  0  0  0  0  0  0
   -0.9252    0.7694   -0.9836 H   0  0  0  0  0  0  0  0  0  0  0  0
   -2.0701   -0.9264    1.0559 H   0  0  0  0  0  0  0  0  0  0  0  0
   -2.9915   -3.8705   -0.1886 H   0  0  0  0  0  0  0  0  0  0  0  0
   -4.6772   -3.3228   -0.1661 H   0  0  0  0  0  0  0  0  0  0  0  0
   -3.5103   -2.6456    0.9699 H   0  0  0  0  0  0  0  0  0  0  0  0
   -5.1981   -0.8376   -1.0155 H   0  0  0  0  0  0  0  0  0  0  0  0
   -3.8240    0.1714   -1.5015 H   0  0  0  0  0  0  0  0  0  0  0  0
   -4.0393   -0.2818    0.1901 H   0  0  0  0  0  0  0  0  0  0  0  0
   -4.6817   -2.6864   -2.5879 H   0  0  0  0  0  0  0  0  0  0  0  0
   -3.0429   -3.3419   -2.7171 H   0  0  0  0  0  0  0  0  0  0  0  0
   -3.3801   -1.6942   -3.2620 H   0  0  0  0  0  0  0  0  0  0  0  0
    0.5706   -4.6372    2.0803 H   0  0  0  0  0  0  0  0  0  0  0  0
    2.9753   -5.0775    1.7368 H   0  0  0  0  0  0  0  0  0  0  0  0
    5.2742   -4.2308    1.3566 H   0  0  0  0  0  0  0  0  0  0  0  0
    5.6454   -1.8326    0.8571 H   0  0  0  0  0  0  0  0  0  0  0  0
    3.7621   -0.2715    0.7424 H   0  0  0  0  0  0  0  0  0  0  0  0
    0.9080   -0.5575    2.1713 H   0  0  0  0  0  0  0  0  0  0  0  0
    2.2289   -0.4896   -3.5886 H   0  0  0  0  0  0  0  0  0  0  0  0
    3.5136   -0.1082   -5.6651 H   0  0  0  0  0  0  0  0  0  0  0  0
    4.9745    1.8885   -5.8810 H   0  0  0  0  0  0  0  0  0  0  0  0
    5.1461    3.5108   -4.0131 H   0  0  0  0  0  0  0  0  0  0  0  0
    3.8755    3.1516   -1.9316 H   0  0  0  0  0  0  0  0  0  0  0  0
   -1.1505    0.4579    2.8205 H   0  0  0  0  0  0  0  0  0  0  0  0
   -2.1336    2.1973    4.1793 H   0  0  0  0  0  0  0  0  0  0  0  0
  1  2  1  0
  2  3  1  0
  3  4  2  0
  4  5  1  0
  5  6  2  0
  6  7  1  0
  7  8  1  0
  8  9  1  0
  9 10  2  0
  9 11  1  0
 11 12  1  0
 11 13  1  0
 11 14  1  0
  8 15  1  0
 15 16  1  0
 16 17  2  0
 17 18  1  0
 18 19  2  0
 19 20  1  0
 20 21  2  0
 21 22  1  0
 22 23  2  0
 23 24  1  0
 24 25  1  0
 25 26  1  0
 26 27  2  0
 27 28  1  0
 28 29  2  0
 29 30  1  0
 30 31  2  0
 31 32  1  0
 32 33  2  0
 27 34  1  0
 34 35  1  0
 35 36  2  0
  6 37  1  0
 37 38  2  0
 38  3  1  0
 25  7  1  0
 33 28  1  0
 24 15  1  0
 35 25  1  0
 23 18  1  0
  1 39  1  0
  1 40  1  0
  1 41  1  0
  4 42  1  0
  5 43  1  0
  7 44  1  0
  8 45  1  0
 12 46  1  0
 12 47  1  0
 12 48  1  0
 13 49  1  0
 13 50  1  0
 13 51  1  0
 14 52  1  0
 14 53  1  0
 14 54  1  0
 17 55  1  0
 19 56  1  0
 20 57  1  0
 21 58  1  0
 22 59  1  0
 24 60  1  0
 29 61  1  0
 30 62  1  0
 31 63  1  0
 32 64  1  0
 33 65  1  0
 37 66  1  0
 38 67  1  0
M  END
$$$$
