
     RDKit          3D

 38 39  0  0  0  0  0  0  0  0999 V2000
    0.6319   -2.3384    0.2381 O   0  0  0  0  0  0  0  0  0  0  0  0
   -0.5405   -2.5904    0.4643 C   0  0  0  0  0  0  0  0  0  0  0  0
   -0.8860   -3.5543    1.3379 O   0  0  0  0  0  0  0  0  0  0  0  0
   -1.7417   -1.9116   -0.1330 C   0  0  0  0  0  0  0  0  0  0  0  0
   -1.3648   -0.9519   -1.2602 C   0  0  0  0  0  0  0  0  0  0  0  0
   -1.3192    0.4914   -0.7686 C   0  0  0  0  0  0  0  0  0  0  0  0
   -0.2620    1.0663   -0.2739 N   0  0  0  0  0  0  0  0  0  0  0  0
    0.9043    0.3836   -0.1406 N   0  0  0  0  0  0  0  0  0  0  0  0
    2.0320    1.0402    0.3214 C   0  0  0  0  0  0  0  0  0  0  0  0
    2.1052    2.2275    0.6243 O   0  0  0  0  0  0  0  0  0  0  0  0
    3.2216    0.1790    0.5264 C   0  0  0  0  0  0  0  0  0  0  0  0
    3.8497    0.2754    1.7788 C   0  0  0  0  0  0  0  0  0  0  0  0
    4.9681   -0.5052    2.0723 C   0  0  0  0  0  0  0  0  0  0  0  0
    5.4729   -1.3803    1.1138 C   0  0  0  0  0  0  0  0  0  0  0  0
    4.8674   -1.4670   -0.1416 C   0  0  0  0  0  0  0  0  0  0  0  0
    3.7450   -0.6850   -0.4438 C   0  0  0  0  0  0  0  0  0  0  0  0
    3.0561   -0.8196   -2.2089 Br  0  0  0  0  0  0  0  0  0  0  0  0
   -2.5735    1.3214   -0.8669 C   0  0  0  0  0  0  0  0  0  0  0  0
   -2.4662    2.7171   -0.7682 C   0  0  0  0  0  0  0  0  0  0  0  0
   -3.6011    3.5267   -0.8541 C   0  0  0  0  0  0  0  0  0  0  0  0
   -4.8555    2.9498   -1.0355 C   0  0  0  0  0  0  0  0  0  0  0  0
   -4.9763    1.5645   -1.1260 C   0  0  0  0  0  0  0  0  0  0  0  0
   -3.8416    0.7510   -1.0400 C   0  0  0  0  0  0  0  0  0  0  0  0
   -0.0361   -3.9035    1.6795 H   0  0  0  0  0  0  0  0  0  0  0  0
   -2.2856   -1.4043    0.6708 H   0  0  0  0  0  0  0  0  0  0  0  0
   -2.3795   -2.7007   -0.5488 H   0  0  0  0  0  0  0  0  0  0  0  0
   -2.1121   -1.0222   -2.0590 H   0  0  0  0  0  0  0  0  0  0  0  0
   -0.4212   -1.2137   -1.7493 H   0  0  0  0  0  0  0  0  0  0  0  0
    0.9387   -0.6259   -0.2755 H   0  0  0  0  0  0  0  0  0  0  0  0
    3.4622    0.9648    2.5274 H   0  0  0  0  0  0  0  0  0  0  0  0
    5.4460   -0.4246    3.0458 H   0  0  0  0  0  0  0  0  0  0  0  0
    6.3478   -1.9862    1.3380 H   0  0  0  0  0  0  0  0  0  0  0  0
    5.2888   -2.1403   -0.8850 H   0  0  0  0  0  0  0  0  0  0  0  0
   -1.4938    3.1871   -0.6244 H   0  0  0  0  0  0  0  0  0  0  0  0
   -3.5008    4.6065   -0.7772 H   0  0  0  0  0  0  0  0  0  0  0  0
   -5.7386    3.5805   -1.1011 H   0  0  0  0  0  0  0  0  0  0  0  0
   -5.9577    1.1153   -1.2603 H   0  0  0  0  0  0  0  0  0  0  0  0
   -3.9837   -0.3229   -1.0984 H   0  0  0  0  0  0  0  0  0  0  0  0
  1  2  2  0
  2  3  1  0
  2  4  1  0
  4  5  1  0
  5  6  1  0
  6  7  2  3
  7  8  1  0
  8  9  1  0
  9 10  2  0
  9 11  1  0
 11 12  2  0
 12 13  1  0
 13 14  2  0
 14 15  1  0
 15 16  2  0
 16 17  1  0
  6 18  1  0
 18 19  2  0
 19 20  1  0
 20 21  2  0
 21 22  1  0
 22 23  2  0
 16 11  1  0
 23 18  1  0
  3 24  1  0
  4 25  1  0
  4 26  1  0
  5 27  1  0
  5 28  1  0
  8 29  1  0
 12 30  1  0
 13 31  1  0
 14 32  1  0
 15 33  1  0
 19 34  1  0
 20 35  1  0
 21 36  1  0
 22 37  1  0
 23 38  1  0
M  END
$$$$
