
     RDKit          3D

 54 56  0  0  0  0  0  0  0  0999 V2000
   -2.7971   -2.4193   -2.2026 C   0  0  0  0  0  0  0  0  0  0  0  0
   -3.5130   -1.8973   -0.9828 C   0  0  0  0  0  0  0  0  0  0  0  0
   -4.3952   -2.7955   -0.3561 C   0  0  0  0  0  0  0  0  0  0  0  0
   -5.1926   -2.3912    0.7035 C   0  0  0  0  0  0  0  0  0  0  0  0
   -5.1216   -1.0781    1.1516 C   0  0  0  0  0  0  0  0  0  0  0  0
   -4.2276   -0.1461    0.5785 C   0  0  0  0  0  0  0  0  0  0  0  0
   -4.2445    1.2490    1.2050 C   0  0  0  0  0  0  0  0  0  0  0  0
   -2.8948    1.6977    1.7727 C   0  0  0  0  0  0  0  0  0  0  0  0
   -4.8704    2.3006    0.2843 C   0  0  0  0  0  0  0  0  0  0  0  0
   -3.3831   -0.5783   -0.4799 C   0  0  0  0  0  0  0  0  0  0  0  0
   -2.4819    0.3489   -1.0585 N   0  0  0  0  0  0  0  0  0  0  0  0
   -1.1597    0.0823   -1.3956 C   0  0  0  0  0  0  0  0  0  0  0  0
   -0.5684   -0.9743   -1.1905 O   0  0  0  0  0  0  0  0  0  0  0  0
   -0.4698    1.2730   -2.0545 C   0  0  0  0  0  0  0  0  0  0  0  0
    0.7924    1.6104   -1.3186 C   0  0  0  0  0  0  0  0  0  0  0  0
    0.9431    2.3456   -0.1593 C   0  0  0  0  0  0  0  0  0  0  0  0
    2.3057    2.4356    0.2460 C   0  0  0  0  0  0  0  0  0  0  0  0
    3.1587    1.7726   -0.6163 C   0  0  0  0  0  0  0  0  0  0  0  0
    4.9284    1.5426   -0.5813 S   0  0  0  0  0  6  0  0  0  0  0  0
    5.3766    1.5844   -1.9561 O   0  0  0  0  0  0  0  0  0  0  0  0
    5.3839    2.5227    0.3841 O   0  0  0  0  0  0  0  0  0  0  0  0
    5.2651    0.0091    0.0540 N   0  0  0  0  0  0  0  0  0  0  0  0
    4.9310   -1.1650   -0.8002 C   0  0  0  0  0  0  0  0  0  0  0  0
    5.5864   -2.4191   -0.2080 C   0  0  0  0  0  0  0  0  0  0  0  0
    5.1559   -2.6388    1.1455 O   0  0  0  0  0  0  0  0  0  0  0  0
    5.5086   -1.5193    1.9721 C   0  0  0  0  0  0  0  0  0  0  0  0
    4.8560   -0.2263    1.4668 C   0  0  0  0  0  0  0  0  0  0  0  0
    2.3049    1.0749   -1.9207 S   0  0  0  0  0  0  0  0  0  0  0  0
   -2.5640   -1.6219   -2.9142 H   0  0  0  0  0  0  0  0  0  0  0  0
   -1.8845   -2.9496   -1.9158 H   0  0  0  0  0  0  0  0  0  0  0  0
   -3.4370   -3.1227   -2.7488 H   0  0  0  0  0  0  0  0  0  0  0  0
   -4.4794   -3.8193   -0.7167 H   0  0  0  0  0  0  0  0  0  0  0  0
   -5.8790   -3.0930    1.1694 H   0  0  0  0  0  0  0  0  0  0  0  0
   -5.7721   -0.7858    1.9745 H   0  0  0  0  0  0  0  0  0  0  0  0
   -4.9077    1.2055    2.0815 H   0  0  0  0  0  0  0  0  0  0  0  0
   -2.4490    0.9132    2.3938 H   0  0  0  0  0  0  0  0  0  0  0  0
   -3.0274    2.5853    2.4019 H   0  0  0  0  0  0  0  0  0  0  0  0
   -2.1722    1.9659    0.9996 H   0  0  0  0  0  0  0  0  0  0  0  0
   -5.8675    1.9857   -0.0434 H   0  0  0  0  0  0  0  0  0  0  0  0
   -4.9808    3.2535    0.8139 H   0  0  0  0  0  0  0  0  0  0  0  0
   -4.2764    2.4938   -0.6123 H   0  0  0  0  0  0  0  0  0  0  0  0
   -2.6801    1.3206   -0.8839 H   0  0  0  0  0  0  0  0  0  0  0  0
   -1.1271    2.1502   -2.0665 H   0  0  0  0  0  0  0  0  0  0  0  0
   -0.2778    1.0086   -3.1010 H   0  0  0  0  0  0  0  0  0  0  0  0
    0.1192    2.7937    0.3834 H   0  0  0  0  0  0  0  0  0  0  0  0
    2.6568    2.9592    1.1281 H   0  0  0  0  0  0  0  0  0  0  0  0
    3.8451   -1.3029   -0.8182 H   0  0  0  0  0  0  0  0  0  0  0  0
    5.2974   -1.0188   -1.8204 H   0  0  0  0  0  0  0  0  0  0  0  0
    6.6801   -2.3426   -0.2266 H   0  0  0  0  0  0  0  0  0  0  0  0
    5.3017   -3.2993   -0.7927 H   0  0  0  0  0  0  0  0  0  0  0  0
    5.1654   -1.7368    2.9884 H   0  0  0  0  0  0  0  0  0  0  0  0
    6.6008   -1.4268    1.9993 H   0  0  0  0  0  0  0  0  0  0  0  0
    5.1735    0.6029    2.1053 H   0  0  0  0  0  0  0  0  0  0  0  0
    3.7652   -0.3196    1.5138 H   0  0  0  0  0  0  0  0  0  0  0  0
  1  2  1  0
  2  3  2  0
  3  4  1  0
  4  5  2  0
  5  6  1  0
  6  7  1  0
  7  8  1  0
  7  9  1  0
  6 10  2  0
 10 11  1  0
 11 12  1  0
 12 13  2  0
 12 14  1  0
 14 15  1  0
 15 16  2  0
 16 17  1  0
 17 18  2  0
 18 19  1  0
 19 20  2  0
 19 21  2  0
 19 22  1  0
 22 23  1  0
 23 24  1  0
 24 25  1  0
 25 26  1  0
 26 27  1  0
 18 28  1  0
 10  2  1  0
 28 15  1  0
 27 22  1  0
  1 29  1  0
  1 30  1  0
  1 31  1  0
  3 32  1  0
  4 33  1  0
  5 34  1  0
  7 35  1  0
  8 36  1  0
  8 37  1  0
  8 38  1  0
  9 39  1  0
  9 40  1  0
  9 41  1  0
 11 42  1  0
 14 43  1  0
 14 44  1  0
 16 45  1  0
 17 46  1  0
 23 47  1  0
 23 48  1  0
 24 49  1  0
 24 50  1  0
 26 51  1  0
 26 52  1  0
 27 53  1  0
 27 54  1  0
M  END
$$$$
