
     RDKit          3D

 41 42  0  0  0  0  0  0  0  0999 V2000
   -1.6956   -1.3849   -0.8275 O   0  0  0  0  0  0  0  0  0  0  0  0
   -1.2706   -0.2527   -0.6164 C   0  0  0  0  0  0  0  0  0  0  0  0
    0.2005    0.0770   -0.3721 C   0  0  0  0  0  0  0  0  0  0  0  0
    1.0055   -1.0914   -0.3892 O   0  0  0  0  0  0  0  0  0  0  0  0
    2.3392   -0.7248   -0.1405 N   0  0  0  0  0  0  0  0  0  0  0  0
    3.0682   -1.7942   -0.1706 C   0  0  0  0  0  0  0  0  0  0  0  0
    4.5249   -1.7514    0.0544 C   0  0  0  0  0  0  0  0  0  0  0  0
    5.2467   -2.9492    0.0043 C   0  0  0  0  0  0  0  0  0  0  0  0
    6.6275   -2.9416    0.2133 C   0  0  0  0  0  0  0  0  0  0  0  0
    7.2889   -1.7395    0.4724 C   0  0  0  0  0  0  0  0  0  0  0  0
    6.5588   -0.5426    0.5211 C   0  0  0  0  0  0  0  0  0  0  0  0
    7.2550    0.7210    0.7940 N   0  0  0  0  0  4  0  0  0  0  0  0
    6.5771    1.7570    0.8363 O   0  0  0  0  0  0  0  0  0  0  0  0
    8.4814    0.6764    0.9667 O   0  0  0  0  0  1  0  0  0  0  0  0
    5.1743   -0.5404    0.3128 C   0  0  0  0  0  0  0  0  0  0  0  0
   -2.0917    0.8649   -0.5851 N   0  0  0  0  0  0  0  0  0  0  0  0
   -3.5400    0.7491   -0.6896 C   0  0  0  0  0  0  0  0  0  0  0  0
   -4.1376    2.0589   -1.2156 C   0  0  0  0  0  0  0  0  0  0  0  0
   -5.6611    1.9973   -1.2828 C   0  0  0  0  0  0  0  0  0  0  0  0
   -6.2677    1.6157    0.0641 C   0  0  0  0  0  0  0  0  0  0  0  0
   -5.6782    0.3133    0.5969 C   0  0  0  0  0  0  0  0  0  0  0  0
   -4.1541    0.3698    0.6648 C   0  0  0  0  0  0  0  0  0  0  0  0
    0.5351    0.7624   -1.1592 H   0  0  0  0  0  0  0  0  0  0  0  0
    0.2867    0.5644    0.6059 H   0  0  0  0  0  0  0  0  0  0  0  0
    2.6169   -2.7840   -0.3684 H   0  0  0  0  0  0  0  0  0  0  0  0
    4.7442   -3.8932   -0.1966 H   0  0  0  0  0  0  0  0  0  0  0  0
    7.1887   -3.8732    0.1742 H   0  0  0  0  0  0  0  0  0  0  0  0
    8.3657   -1.7516    0.6330 H   0  0  0  0  0  0  0  0  0  0  0  0
    4.6018    0.3844    0.3490 H   0  0  0  0  0  0  0  0  0  0  0  0
   -1.7107    1.7264   -0.2144 H   0  0  0  0  0  0  0  0  0  0  0  0
   -3.7608   -0.0506   -1.4086 H   0  0  0  0  0  0  0  0  0  0  0  0
   -3.7355    2.2792   -2.2120 H   0  0  0  0  0  0  0  0  0  0  0  0
   -3.8367    2.8938   -0.5690 H   0  0  0  0  0  0  0  0  0  0  0  0
   -6.0556    2.9683   -1.6027 H   0  0  0  0  0  0  0  0  0  0  0  0
   -5.9635    1.2640   -2.0406 H   0  0  0  0  0  0  0  0  0  0  0  0
   -7.3543    1.5151   -0.0358 H   0  0  0  0  0  0  0  0  0  0  0  0
   -6.0861    2.4206    0.7869 H   0  0  0  0  0  0  0  0  0  0  0  0
   -5.9831   -0.5174   -0.0514 H   0  0  0  0  0  0  0  0  0  0  0  0
   -6.0838    0.1059    1.5935 H   0  0  0  0  0  0  0  0  0  0  0  0
   -3.8507    1.0994    1.4272 H   0  0  0  0  0  0  0  0  0  0  0  0
   -3.7697   -0.6017    0.9977 H   0  0  0  0  0  0  0  0  0  0  0  0
  1  2  2  0
  2  3  1  0
  3  4  1  0
  4  5  1  0
  5  6  2  3
  6  7  1  0
  7  8  2  0
  8  9  1  0
  9 10  2  0
 10 11  1  0
 11 12  1  0
 12 13  2  0
 12 14  1  0
 11 15  2  0
  2 16  1  0
 16 17  1  0
 17 18  1  0
 18 19  1  0
 19 20  1  0
 20 21  1  0
 21 22  1  0
 15  7  1  0
 22 17  1  0
  3 23  1  0
  3 24  1  0
  6 25  1  0
  8 26  1  0
  9 27  1  0
 10 28  1  0
 15 29  1  0
 16 30  1  0
 17 31  1  0
 18 32  1  0
 18 33  1  0
 19 34  1  0
 19 35  1  0
 20 36  1  0
 20 37  1  0
 21 38  1  0
 21 39  1  0
 22 40  1  0
 22 41  1  0
M  CHG  2  12   1  14  -1
M  END
$$$$
