
     RDKit          3D

 43 45  0  0  0  0  0  0  0  0999 V2000
   -6.8783   -2.3179    0.3319 C   0  0  0  0  0  0  0  0  0  0  0  0
   -6.6036   -1.1742    0.9733 C   0  0  0  0  0  0  0  0  0  0  0  0
   -6.2674    0.1234    0.2909 C   0  0  0  0  0  0  0  0  0  0  0  0
   -4.8437    0.3785    0.4379 N   0  0  0  0  0  0  0  0  0  0  0  0
   -4.4161    1.0256    1.5873 C   0  0  0  0  0  0  0  0  0  0  0  0
   -5.1649    1.4096    2.4835 O   0  0  0  0  0  0  0  0  0  0  0  0
   -3.0763    1.2339    1.7040 N   0  0  0  0  0  0  0  0  0  0  0  0
   -2.1487    0.8381    0.7586 C   0  0  0  0  0  0  0  0  0  0  0  0
   -0.8519    1.1041    1.0149 N   0  0  0  0  0  0  0  0  0  0  0  0
    0.0387    0.7150    0.0759 C   0  0  0  0  0  0  0  0  0  0  0  0
    1.3900    0.9546    0.2734 C   0  0  0  0  0  0  0  0  0  0  0  0
    2.3512    0.5609   -0.6629 C   0  0  0  0  0  0  0  0  0  0  0  0
    3.7028    0.8435   -0.4190 N   0  0  0  0  0  0  0  0  0  0  0  0
    4.3578   -0.0439    0.2559 C   0  0  0  0  0  0  0  0  0  0  0  0
    5.6878    0.0213    0.6043 N   0  0  0  0  0  0  0  0  0  0  0  0
    6.4158    1.2668    0.4012 C   0  0  0  0  0  0  0  0  0  0  0  0
    6.2205   -0.8721    1.6199 C   0  0  0  0  0  0  0  0  0  0  0  0
    1.9426   -0.0637   -1.8480 C   0  0  0  0  0  0  0  0  0  0  0  0
    2.9441   -0.4758   -2.8894 C   0  0  0  0  0  0  0  0  0  0  0  0
    0.5771   -0.3142   -2.0480 C   0  0  0  0  0  0  0  0  0  0  0  0
   -0.3772    0.0608   -1.1126 C   0  0  0  0  0  0  0  0  0  0  0  0
   -1.6746   -0.2008   -1.3527 N   0  0  0  0  0  0  0  0  0  0  0  0
   -2.5500    0.1997   -0.3968 C   0  0  0  0  0  0  0  0  0  0  0  0
   -3.9956   -0.0473   -0.5913 C   0  0  0  0  0  0  0  0  0  0  0  0
   -4.3928   -0.5922   -1.6194 O   0  0  0  0  0  0  0  0  0  0  0  0
   -6.8492   -2.3817   -0.7529 H   0  0  0  0  0  0  0  0  0  0  0  0
   -7.1242   -3.2211    0.8814 H   0  0  0  0  0  0  0  0  0  0  0  0
   -6.6415   -1.1537    2.0608 H   0  0  0  0  0  0  0  0  0  0  0  0
   -6.8476    0.9325    0.7491 H   0  0  0  0  0  0  0  0  0  0  0  0
   -6.5420    0.0938   -0.7697 H   0  0  0  0  0  0  0  0  0  0  0  0
   -2.7365    1.7002    2.5335 H   0  0  0  0  0  0  0  0  0  0  0  0
    1.7114    1.4650    1.1776 H   0  0  0  0  0  0  0  0  0  0  0  0
    3.8707   -0.9703    0.6174 H   0  0  0  0  0  0  0  0  0  0  0  0
    6.2395    1.6664   -0.6032 H   0  0  0  0  0  0  0  0  0  0  0  0
    7.4958    1.1137    0.5004 H   0  0  0  0  0  0  0  0  0  0  0  0
    6.1047    2.0149    1.1378 H   0  0  0  0  0  0  0  0  0  0  0  0
    7.3119   -0.9351    1.5567 H   0  0  0  0  0  0  0  0  0  0  0  0
    5.9492   -0.5169    2.6193 H   0  0  0  0  0  0  0  0  0  0  0  0
    5.8293   -1.8872    1.4929 H   0  0  0  0  0  0  0  0  0  0  0  0
    3.5737   -1.2864   -2.5089 H   0  0  0  0  0  0  0  0  0  0  0  0
    2.4507   -0.8325   -3.7997 H   0  0  0  0  0  0  0  0  0  0  0  0
    3.5749    0.3732   -3.1723 H   0  0  0  0  0  0  0  0  0  0  0  0
    0.2416   -0.8084   -2.9581 H   0  0  0  0  0  0  0  0  0  0  0  0
  1  2  2  0
  2  3  1  0
  3  4  1  0
  4  5  1  0
  5  6  2  0
  5  7  1  0
  7  8  1  0
  8  9  2  0
  9 10  1  0
 10 11  2  0
 11 12  1  0
 12 13  1  0
 13 14  2  3
 14 15  1  0
 15 16  1  0
 15 17  1  0
 12 18  2  0
 18 19  1  0
 18 20  1  0
 20 21  2  0
 21 22  1  0
 22 23  2  0
 23 24  1  0
 24 25  2  0
 24  4  1  0
 23  8  1  0
 21 10  1  0
  1 26  1  0
  1 27  1  0
  2 28  1  0
  3 29  1  0
  3 30  1  0
  7 31  1  0
 11 32  1  0
 14 33  1  0
 16 34  1  0
 16 35  1  0
 16 36  1  0
 17 37  1  0
 17 38  1  0
 17 39  1  0
 19 40  1  0
 19 41  1  0
 19 42  1  0
 20 43  1  0
M  END
$$$$
