
     RDKit          3D

 58 61  0  0  0  0  0  0  0  0999 V2000
    8.8468   -1.5078    0.9942 C   0  0  0  0  0  0  0  0  0  0  0  0
    7.7038   -0.6476    0.5428 C   0  0  0  0  0  0  0  0  0  0  0  0
    7.1938    0.3483    1.3832 C   0  0  0  0  0  0  0  0  0  0  0  0
    6.1093    1.1302    0.9789 C   0  0  0  0  0  0  0  0  0  0  0  0
    5.5138    0.9272   -0.2725 C   0  0  0  0  0  0  0  0  0  0  0  0
    4.3193    1.7395   -0.6924 C   0  0  0  0  0  0  0  0  0  0  0  0
    3.0959    1.0602   -0.3362 N   0  0  0  0  0  0  0  0  0  0  0  0
    1.8717    1.5891   -0.6767 C   0  0  0  0  0  0  0  0  0  0  0  0
    1.7533    2.6008   -1.3594 O   0  0  0  0  0  0  0  0  0  0  0  0
    0.6886    0.7837   -0.1376 C   0  0  0  0  0  0  0  0  0  0  0  0
   -0.6227    1.5827   -0.2225 C   0  0  0  0  0  0  0  0  0  0  0  0
   -1.8320    0.6551   -0.2018 C   0  0  0  0  0  0  0  0  0  0  0  0
   -1.8691   -0.2530   -1.4467 C   0  0  0  0  0  0  0  0  0  0  0  0
   -2.6701   -1.5452   -1.1930 C   0  0  0  0  0  0  0  0  0  0  0  0
   -4.0710   -1.2570   -0.9158 N   0  0  0  0  0  0  0  0  0  0  0  0
   -4.6705   -1.0775    0.3236 C   0  0  0  0  0  0  0  0  0  0  0  0
   -4.1001   -1.6596    1.4246 N   0  0  0  0  0  0  0  0  0  0  0  0
   -4.5592   -1.5745    2.7112 C   0  0  0  0  0  0  0  0  0  0  0  0
   -3.6931   -2.3787    3.9015 S   0  0  0  0  0  0  0  0  0  0  0  0
   -5.6858   -0.8440    2.9564 N   0  0  0  0  0  0  0  0  0  0  0  0
   -6.2669   -0.2870    1.9427 C   0  0  0  0  0  0  0  0  0  0  0  0
   -7.5010    0.5115    2.1882 C   0  0  0  0  0  0  0  0  0  0  0  0
   -8.1445    1.1104    1.1780 C   0  0  0  0  0  0  0  0  0  0  0  0
   -7.6865    1.0142   -0.1856 C   0  0  0  0  0  0  0  0  0  0  0  0
   -6.5848    0.3199   -0.5049 C   0  0  0  0  0  0  0  0  0  0  0  0
   -5.8057   -0.3655    0.5143 C   0  0  0  0  0  0  0  0  0  0  0  0
   -0.4508   -0.5785   -1.9607 C   0  0  0  0  0  0  0  0  0  0  0  0
    0.5894   -0.5846   -0.8417 C   0  0  0  0  0  0  0  0  0  0  0  0
    6.0105   -0.0859   -1.1027 C   0  0  0  0  0  0  0  0  0  0  0  0
    7.0953   -0.8670   -0.6977 C   0  0  0  0  0  0  0  0  0  0  0  0
    9.5432   -0.9334    1.6143 H   0  0  0  0  0  0  0  0  0  0  0  0
    8.4703   -2.3560    1.5747 H   0  0  0  0  0  0  0  0  0  0  0  0
    9.4131   -1.8895    0.1375 H   0  0  0  0  0  0  0  0  0  0  0  0
    7.6387    0.5208    2.3605 H   0  0  0  0  0  0  0  0  0  0  0  0
    5.7304    1.8982    1.6498 H   0  0  0  0  0  0  0  0  0  0  0  0
    4.3255    2.7238   -0.2083 H   0  0  0  0  0  0  0  0  0  0  0  0
    4.3283    1.9167   -1.7750 H   0  0  0  0  0  0  0  0  0  0  0  0
    3.1449    0.3480    0.3803 H   0  0  0  0  0  0  0  0  0  0  0  0
    0.8996    0.5977    0.9250 H   0  0  0  0  0  0  0  0  0  0  0  0
   -0.6637    2.1974   -1.1302 H   0  0  0  0  0  0  0  0  0  0  0  0
   -0.6742    2.2815    0.6213 H   0  0  0  0  0  0  0  0  0  0  0  0
   -2.7499    1.2526   -0.1549 H   0  0  0  0  0  0  0  0  0  0  0  0
   -1.7979    0.0542    0.7153 H   0  0  0  0  0  0  0  0  0  0  0  0
   -2.3786    0.2982   -2.2497 H   0  0  0  0  0  0  0  0  0  0  0  0
   -2.6448   -2.1639   -2.0982 H   0  0  0  0  0  0  0  0  0  0  0  0
   -2.2035   -2.1450   -0.4052 H   0  0  0  0  0  0  0  0  0  0  0  0
   -4.5217   -0.7535   -1.6724 H   0  0  0  0  0  0  0  0  0  0  0  0
   -3.2859   -2.2393    1.2986 H   0  0  0  0  0  0  0  0  0  0  0  0
   -7.8436    0.5799    3.2139 H   0  0  0  0  0  0  0  0  0  0  0  0
   -9.0427    1.6903    1.3692 H   0  0  0  0  0  0  0  0  0  0  0  0
   -8.2648    1.5229   -0.9520 H   0  0  0  0  0  0  0  0  0  0  0  0
   -6.2794    0.2706   -1.5427 H   0  0  0  0  0  0  0  0  0  0  0  0
   -0.4367   -1.5396   -2.4884 H   0  0  0  0  0  0  0  0  0  0  0  0
   -0.1596    0.1774   -2.7025 H   0  0  0  0  0  0  0  0  0  0  0  0
    1.5556   -0.8980   -1.2530 H   0  0  0  0  0  0  0  0  0  0  0  0
    0.3077   -1.3467   -0.1036 H   0  0  0  0  0  0  0  0  0  0  0  0
    5.5503   -0.2748   -2.0703 H   0  0  0  0  0  0  0  0  0  0  0  0
    7.4618   -1.6501   -1.3581 H   0  0  0  0  0  0  0  0  0  0  0  0
  1  2  1  0
  2  3  2  0
  3  4  1  0
  4  5  2  0
  5  6  1  0
  6  7  1  0
  7  8  1  0
  8  9  2  0
  8 10  1  0
 10 11  1  0
 11 12  1  0
 12 13  1  0
 13 14  1  0
 14 15  1  0
 15 16  1  0
 16 17  1  0
 17 18  1  0
 18 19  2  0
 18 20  1  0
 20 21  2  0
 21 22  1  0
 22 23  2  0
 23 24  1  0
 24 25  2  0
 25 26  1  0
 13 27  1  0
 27 28  1  0
  5 29  1  0
 29 30  2  0
 30  2  1  0
 28 10  1  0
 26 16  2  0
 26 21  1  0
  1 31  1  0
  1 32  1  0
  1 33  1  0
  3 34  1  0
  4 35  1  0
  6 36  1  0
  6 37  1  0
  7 38  1  0
 10 39  1  0
 11 40  1  0
 11 41  1  0
 12 42  1  0
 12 43  1  0
 13 44  1  0
 14 45  1  0
 14 46  1  0
 15 47  1  0
 17 48  1  0
 22 49  1  0
 23 50  1  0
 24 51  1  0
 25 52  1  0
 27 53  1  0
 27 54  1  0
 28 55  1  0
 28 56  1  0
 29 57  1  0
 30 58  1  0
M  END
$$$$
