
     RDKit          3D

 46 48  0  0  0  0  0  0  0  0999 V2000
   -5.2937    3.4544    0.6292 C   0  0  0  0  0  0  0  0  0  0  0  0
   -5.4038    2.1801    0.0131 O   0  0  0  0  0  0  0  0  0  0  0  0
   -4.2843    1.3853   -0.0175 C   0  0  0  0  0  0  0  0  0  0  0  0
   -3.0441    1.7443    0.5218 C   0  0  0  0  0  0  0  0  0  0  0  0
   -1.9505    0.8674    0.4545 C   0  0  0  0  0  0  0  0  0  0  0  0
   -2.0885   -0.3740   -0.1844 C   0  0  0  0  0  0  0  0  0  0  0  0
   -3.3366   -0.7345   -0.7202 C   0  0  0  0  0  0  0  0  0  0  0  0
   -4.4327    0.1326   -0.6428 C   0  0  0  0  0  0  0  0  0  0  0  0
   -5.6806   -0.1475   -1.1429 O   0  0  0  0  0  0  0  0  0  0  0  0
   -5.8636   -1.3887   -1.8079 C   0  0  0  0  0  0  0  0  0  0  0  0
   -0.9367   -1.3524   -0.2890 C   0  0  0  0  0  0  0  0  0  0  0  0
    0.3592   -0.8075    0.1454 N   0  0  0  0  0  0  0  0  0  0  0  0
    1.5717   -1.4576   -0.1828 C   0  0  0  0  0  0  0  0  0  0  0  0
    1.6512   -2.9696   -0.9171 S   0  0  0  0  0  0  0  0  0  0  0  0
    2.6711   -0.6494    0.0856 N   0  0  0  0  0  0  0  0  0  0  0  0
    4.0392   -0.9774    0.2574 C   0  0  0  0  0  0  0  0  0  0  0  0
    4.4186   -2.2114    0.8038 C   0  0  0  0  0  0  0  0  0  0  0  0
    5.7581   -2.5113    1.0445 C   0  0  0  0  0  0  0  0  0  0  0  0
    6.7363   -1.5658    0.7666 C   0  0  0  0  0  0  0  0  0  0  0  0
    6.3774   -0.3199    0.2458 C   0  0  0  0  0  0  0  0  0  0  0  0
    7.6657    0.8058   -0.0200 Cl  0  0  0  0  0  0  0  0  0  0  0  0
    5.0300   -0.0056   -0.0297 C   0  0  0  0  0  0  0  0  0  0  0  0
    4.6452    1.3373   -0.5993 C   0  0  0  0  0  0  0  0  0  0  0  0
    0.2665    0.0761    1.3162 C   0  0  0  0  0  0  0  0  0  0  0  0
   -0.6170    1.2840    1.0191 C   0  0  0  0  0  0  0  0  0  0  0  0
   -5.0435    3.3599    1.6909 H   0  0  0  0  0  0  0  0  0  0  0  0
   -6.2698    3.9444    0.5610 H   0  0  0  0  0  0  0  0  0  0  0  0
   -4.5685    4.0856    0.1052 H   0  0  0  0  0  0  0  0  0  0  0  0
   -2.9015    2.7061    1.0038 H   0  0  0  0  0  0  0  0  0  0  0  0
   -3.4255   -1.7051   -1.1988 H   0  0  0  0  0  0  0  0  0  0  0  0
   -5.2210   -1.4629   -2.6914 H   0  0  0  0  0  0  0  0  0  0  0  0
   -6.9024   -1.4356   -2.1487 H   0  0  0  0  0  0  0  0  0  0  0  0
   -5.7000   -2.2297   -1.1262 H   0  0  0  0  0  0  0  0  0  0  0  0
   -0.8523   -1.6739   -1.3330 H   0  0  0  0  0  0  0  0  0  0  0  0
   -1.1563   -2.2247    0.3389 H   0  0  0  0  0  0  0  0  0  0  0  0
    2.4684    0.3248   -0.0904 H   0  0  0  0  0  0  0  0  0  0  0  0
    3.6775   -2.9511    1.0932 H   0  0  0  0  0  0  0  0  0  0  0  0
    6.0318   -3.4752    1.4659 H   0  0  0  0  0  0  0  0  0  0  0  0
    7.7786   -1.7999    0.9692 H   0  0  0  0  0  0  0  0  0  0  0  0
    4.2295    1.9713    0.1903 H   0  0  0  0  0  0  0  0  0  0  0  0
    3.9052    1.2203   -1.3985 H   0  0  0  0  0  0  0  0  0  0  0  0
    5.4823    1.8680   -1.0591 H   0  0  0  0  0  0  0  0  0  0  0  0
   -0.1564   -0.5224    2.1341 H   0  0  0  0  0  0  0  0  0  0  0  0
    1.2469    0.4144    1.6624 H   0  0  0  0  0  0  0  0  0  0  0  0
   -0.1225    1.9337    0.2866 H   0  0  0  0  0  0  0  0  0  0  0  0
   -0.7587    1.8575    1.9424 H   0  0  0  0  0  0  0  0  0  0  0  0
  1  2  1  0
  2  3  1  0
  3  4  2  0
  4  5  1  0
  5  6  2  0
  6  7  1  0
  7  8  2  0
  8  9  1  0
  9 10  1  0
  6 11  1  0
 11 12  1  0
 12 13  1  0
 13 14  2  0
 13 15  1  0
 15 16  1  0
 16 17  2  0
 17 18  1  0
 18 19  2  0
 19 20  1  0
 20 21  1  0
 20 22  2  0
 22 23  1  0
 12 24  1  0
 24 25  1  0
  8  3  1  0
 22 16  1  0
 25  5  1  0
  1 26  1  0
  1 27  1  0
  1 28  1  0
  4 29  1  0
  7 30  1  0
 10 31  1  0
 10 32  1  0
 10 33  1  0
 11 34  1  0
 11 35  1  0
 15 36  1  0
 17 37  1  0
 18 38  1  0
 19 39  1  0
 23 40  1  0
 23 41  1  0
 23 42  1  0
 24 43  1  0
 24 44  1  0
 25 45  1  0
 25 46  1  0
M  END
$$$$
