
     RDKit          3D

 48 50  0  0  0  0  0  0  0  0999 V2000
    5.2166   -3.6516   -0.6688 C   0  0  0  0  0  0  0  0  0  0  0  0
    5.0683   -2.3517   -1.4444 C   0  0  0  0  0  0  0  0  0  0  0  0
    3.7564   -1.6217   -1.1758 C   0  0  0  0  0  0  0  0  0  0  0  0
    3.6448   -0.9473    0.4724 S   0  0  0  0  0  6  0  0  0  0  0  0
    3.3673   -2.0178    1.4107 O   0  0  0  0  0  0  0  0  0  0  0  0
    4.7218    0.0025    0.6739 O   0  0  0  0  0  0  0  0  0  0  0  0
    2.1564    0.0143    0.4023 C   0  0  0  0  0  0  0  0  0  0  0  0
    1.3405    0.0862   -0.6259 N   0  0  0  0  0  0  0  0  0  0  0  0
    0.2863    0.9484   -0.3018 C   0  0  0  0  0  0  0  0  0  0  0  0
   -0.9576    1.2643   -1.4924 S   0  0  0  0  0  6  0  0  0  0  0  0
   -0.2298    1.6094   -2.6989 O   0  0  0  0  0  0  0  0  0  0  0  0
   -1.8961    2.1840   -0.8751 O   0  0  0  0  0  0  0  0  0  0  0  0
   -1.7555   -0.2985   -1.7164 C   0  0  0  0  0  0  0  0  0  0  0  0
   -2.7033   -0.7249   -0.7824 C   0  0  0  0  0  0  0  0  0  0  0  0
   -3.3422   -1.9521   -0.9655 C   0  0  0  0  0  0  0  0  0  0  0  0
   -3.0398   -2.7526   -2.0753 C   0  0  0  0  0  0  0  0  0  0  0  0
   -3.7604   -4.0511   -2.2917 C   0  0  0  0  0  0  0  0  0  0  0  0
   -2.1052   -2.2991   -3.0157 C   0  0  0  0  0  0  0  0  0  0  0  0
   -1.4599   -1.0745   -2.8389 C   0  0  0  0  0  0  0  0  0  0  0  0
    0.3082    1.4886    0.9840 C   0  0  0  0  0  0  0  0  0  0  0  0
   -0.6112    2.3044    1.5808 N   0  0  0  0  0  0  0  0  0  0  0  0
   -0.2433    3.2410    2.6396 C   0  0  0  0  0  0  0  0  0  0  0  0
   -1.3958    4.0523    3.1268 C   0  0  0  0  0  0  0  0  0  0  0  0
   -2.5143    3.7508    3.8761 C   0  0  0  0  0  0  0  0  0  0  0  0
   -3.2555    4.9509    3.9880 C   0  0  0  0  0  0  0  0  0  0  0  0
   -2.5454    5.9057    3.2992 C   0  0  0  0  0  0  0  0  0  0  0  0
   -1.4154    5.3701    2.7713 O   0  0  0  0  0  0  0  0  0  0  0  0
    1.7279    0.9066    1.7841 S   0  0  0  0  0  0  0  0  0  0  0  0
    6.1015   -4.1942   -1.0175 H   0  0  0  0  0  0  0  0  0  0  0  0
    4.3459   -4.2978   -0.8066 H   0  0  0  0  0  0  0  0  0  0  0  0
    5.3473   -3.4657    0.4009 H   0  0  0  0  0  0  0  0  0  0  0  0
    5.1148   -2.5868   -2.5147 H   0  0  0  0  0  0  0  0  0  0  0  0
    5.9211   -1.6985   -1.2250 H   0  0  0  0  0  0  0  0  0  0  0  0
    3.6738   -0.7780   -1.8693 H   0  0  0  0  0  0  0  0  0  0  0  0
    2.8989   -2.2862   -1.3210 H   0  0  0  0  0  0  0  0  0  0  0  0
   -2.9539   -0.1125    0.0811 H   0  0  0  0  0  0  0  0  0  0  0  0
   -4.0816   -2.2821   -0.2377 H   0  0  0  0  0  0  0  0  0  0  0  0
   -3.1291   -4.7642   -2.8321 H   0  0  0  0  0  0  0  0  0  0  0  0
   -4.0261   -4.5146   -1.3363 H   0  0  0  0  0  0  0  0  0  0  0  0
   -4.6724   -3.8785   -2.8688 H   0  0  0  0  0  0  0  0  0  0  0  0
   -1.8775   -2.8983   -3.8949 H   0  0  0  0  0  0  0  0  0  0  0  0
   -0.7357   -0.7372   -3.5779 H   0  0  0  0  0  0  0  0  0  0  0  0
   -1.3366    2.7040    0.9707 H   0  0  0  0  0  0  0  0  0  0  0  0
    0.5378    3.9159    2.2693 H   0  0  0  0  0  0  0  0  0  0  0  0
    0.1694    2.7001    3.4983 H   0  0  0  0  0  0  0  0  0  0  0  0
   -2.7640    2.7791    4.2800 H   0  0  0  0  0  0  0  0  0  0  0  0
   -4.1946    5.1027    4.5017 H   0  0  0  0  0  0  0  0  0  0  0  0
   -2.7025    6.9562    3.0975 H   0  0  0  0  0  0  0  0  0  0  0  0
  1  2  1  0
  2  3  1  0
  3  4  1  0
  4  5  2  0
  4  6  2  0
  4  7  1  0
  7  8  2  0
  8  9  1  0
  9 10  1  0
 10 11  2  0
 10 12  2  0
 10 13  1  0
 13 14  2  0
 14 15  1  0
 15 16  2  0
 16 17  1  0
 16 18  1  0
 18 19  2  0
  9 20  2  0
 20 21  1  0
 21 22  1  0
 22 23  1  0
 23 24  2  0
 24 25  1  0
 25 26  2  0
 26 27  1  0
 20 28  1  0
 28  7  1  0
 19 13  1  0
 27 23  1  0
  1 29  1  0
  1 30  1  0
  1 31  1  0
  2 32  1  0
  2 33  1  0
  3 34  1  0
  3 35  1  0
 14 36  1  0
 15 37  1  0
 17 38  1  0
 17 39  1  0
 17 40  1  0
 18 41  1  0
 19 42  1  0
 21 43  1  0
 22 44  1  0
 22 45  1  0
 24 46  1  0
 25 47  1  0
 26 48  1  0
M  END
$$$$
