
     RDKit          3D

 44 46  0  0  0  0  0  0  0  0999 V2000
    6.8621   -0.7244   -3.1273 C   0  0  0  0  0  0  0  0  0  0  0  0
    6.2278    0.4152   -2.5626 O   0  0  0  0  0  0  0  0  0  0  0  0
    5.1498    0.1854   -1.7551 C   0  0  0  0  0  0  0  0  0  0  0  0
    4.6339   -1.0616   -1.4074 C   0  0  0  0  0  0  0  0  0  0  0  0
    3.5139   -1.1582   -0.5683 C   0  0  0  0  0  0  0  0  0  0  0  0
    2.8985   -0.0098   -0.0689 C   0  0  0  0  0  0  0  0  0  0  0  0
    1.7748   -0.0213    0.7766 N   0  0  0  0  0  0  0  0  0  0  0  0
    1.0732   -1.1192    1.2590 C   0  0  0  0  0  0  0  0  0  0  0  0
    1.3143   -2.3026    1.0344 O   0  0  0  0  0  0  0  0  0  0  0  0
   -0.0572   -0.7149    2.2032 C   0  0  0  0  0  0  0  0  0  0  0  0
   -0.6707    0.4749    1.7072 O   0  0  0  0  0  0  0  0  0  0  0  0
   -1.7298    0.8654    2.4582 C   0  0  0  0  0  0  0  0  0  0  0  0
   -1.5349    0.9286    3.7764 N   0  0  0  0  0  0  0  0  0  0  0  0
   -2.9841    1.4893    4.3769 S   0  0  0  0  0  0  0  0  0  0  0  0
   -3.8494    1.6536    2.9681 N   0  0  0  0  0  0  0  0  0  0  0  0
   -3.0392    1.2919    1.9608 C   0  0  0  0  0  0  0  0  0  0  0  0
   -3.4484    1.3293    0.6393 N   0  0  0  0  0  0  0  0  0  0  0  0
   -4.8975    1.3189    0.3633 C   0  0  0  0  0  0  0  0  0  0  0  0
   -5.3764   -0.1337    0.2501 C   0  0  0  0  0  0  0  0  0  0  0  0
   -4.5750   -0.8998   -0.8063 C   0  0  0  0  0  0  0  0  0  0  0  0
   -3.0637   -0.7458   -0.5972 C   0  0  0  0  0  0  0  0  0  0  0  0
   -2.6801    0.7289   -0.4532 C   0  0  0  0  0  0  0  0  0  0  0  0
    3.4205    1.2405   -0.4183 C   0  0  0  0  0  0  0  0  0  0  0  0
    4.5376    1.3348   -1.2532 C   0  0  0  0  0  0  0  0  0  0  0  0
    6.1715   -1.2901   -3.7596 H   0  0  0  0  0  0  0  0  0  0  0  0
    7.2972   -1.3561   -2.3470 H   0  0  0  0  0  0  0  0  0  0  0  0
    7.6774   -0.3706   -3.7634 H   0  0  0  0  0  0  0  0  0  0  0  0
    5.0754   -1.9857   -1.7679 H   0  0  0  0  0  0  0  0  0  0  0  0
    3.1483   -2.1512   -0.3245 H   0  0  0  0  0  0  0  0  0  0  0  0
    1.4087    0.8840    1.0571 H   0  0  0  0  0  0  0  0  0  0  0  0
   -0.7880   -1.5356    2.2330 H   0  0  0  0  0  0  0  0  0  0  0  0
    0.3907   -0.5631    3.1939 H   0  0  0  0  0  0  0  0  0  0  0  0
   -5.0864    1.8431   -0.5847 H   0  0  0  0  0  0  0  0  0  0  0  0
   -5.4782    1.8570    1.1208 H   0  0  0  0  0  0  0  0  0  0  0  0
   -6.4418   -0.1580   -0.0062 H   0  0  0  0  0  0  0  0  0  0  0  0
   -5.2652   -0.6370    1.2195 H   0  0  0  0  0  0  0  0  0  0  0  0
   -4.8507   -1.9612   -0.7848 H   0  0  0  0  0  0  0  0  0  0  0  0
   -4.8416   -0.5199   -1.8011 H   0  0  0  0  0  0  0  0  0  0  0  0
   -2.7640   -1.3028    0.2994 H   0  0  0  0  0  0  0  0  0  0  0  0
   -2.5299   -1.1857   -1.4460 H   0  0  0  0  0  0  0  0  0  0  0  0
   -1.6008    0.8578   -0.3447 H   0  0  0  0  0  0  0  0  0  0  0  0
   -2.9274    1.2553   -1.3869 H   0  0  0  0  0  0  0  0  0  0  0  0
    2.9717    2.1598   -0.0477 H   0  0  0  0  0  0  0  0  0  0  0  0
    4.9330    2.3132   -1.5148 H   0  0  0  0  0  0  0  0  0  0  0  0
  1  2  1  0
  2  3  1  0
  3  4  2  0
  4  5  1  0
  5  6  2  0
  6  7  1  0
  7  8  1  0
  8  9  2  0
  8 10  1  0
 10 11  1  0
 11 12  1  0
 12 13  2  0
 13 14  1  0
 14 15  1  0
 15 16  2  0
 16 17  1  0
 17 18  1  0
 18 19  1  0
 19 20  1  0
 20 21  1  0
 21 22  1  0
  6 23  1  0
 23 24  2  0
 24  3  1  0
 16 12  1  0
 22 17  1  0
  1 25  1  0
  1 26  1  0
  1 27  1  0
  4 28  1  0
  5 29  1  0
  7 30  1  0
 10 31  1  0
 10 32  1  0
 18 33  1  0
 18 34  1  0
 19 35  1  0
 19 36  1  0
 20 37  1  0
 20 38  1  0
 21 39  1  0
 21 40  1  0
 22 41  1  0
 22 42  1  0
 23 43  1  0
 24 44  1  0
M  END
$$$$
