
     RDKit          3D

 50 53  0  0  0  0  0  0  0  0999 V2000
   -7.5396   -1.4793    1.8539 C   0  0  0  0  0  0  0  0  0  0  0  0
   -6.1885   -0.9590    1.4556 C   0  0  0  0  0  0  0  0  0  0  0  0
   -5.1819   -0.7818    2.4086 C   0  0  0  0  0  0  0  0  0  0  0  0
   -3.9168   -0.3232    2.0286 C   0  0  0  0  0  0  0  0  0  0  0  0
   -3.6407   -0.0482    0.6840 C   0  0  0  0  0  0  0  0  0  0  0  0
   -2.2163    0.4677    0.2668 C   0  0  0  0  0  0  0  0  0  0  0  0
   -1.1606    0.7576    1.1239 C   0  0  0  0  0  0  0  0  0  0  0  0
   -0.0799    1.2199    0.3746 N   0  0  0  0  0  4  0  0  0  0  0  0
    1.2607    1.5659    0.8685 C   0  0  0  0  0  0  0  0  0  0  0  0
    2.3042    0.5156    0.4569 C   0  0  0  0  0  0  0  0  0  0  0  0
    2.0178   -0.3698   -0.3461 O   0  0  0  0  0  0  0  0  0  0  0  0
    3.5281    0.6951    1.0822 N   0  0  0  0  0  0  0  0  0  0  0  0
    4.7116   -0.0490    0.8522 C   0  0  0  0  0  0  0  0  0  0  0  0
    5.5368   -0.2196    1.9791 C   0  0  0  0  0  0  0  0  0  0  0  0
    6.7177   -0.9596    1.9089 C   0  0  0  0  0  0  0  0  0  0  0  0
    7.1001   -1.5317    0.7048 C   0  0  0  0  0  0  0  0  0  0  0  0
    6.3175   -1.3339   -0.4306 C   0  0  0  0  0  0  0  0  0  0  0  0
    5.1351   -0.5658   -0.3863 C   0  0  0  0  0  0  0  0  0  0  0  0
    4.4532   -0.3220   -1.7017 C   0  0  0  0  0  0  0  0  0  0  0  0
   -0.4406    1.1817   -0.9053 C   0  0  0  0  0  0  0  0  0  0  0  0
   -1.6945    0.7447   -0.9837 N   0  0  0  0  0  0  0  0  0  0  0  0
   -2.1512    0.6523   -2.3632 C   0  0  0  0  0  0  0  0  0  0  0  0
   -0.8512    0.8393   -3.1934 C   0  0  0  0  0  0  0  0  0  0  0  0
    0.1494    1.5023   -2.2267 C   0  0  0  0  0  0  0  0  0  0  0  0
   -4.6409   -0.2320   -0.2710 C   0  0  0  0  0  0  0  0  0  0  0  0
   -5.9050   -0.6905    0.1126 C   0  0  0  0  0  0  0  0  0  0  0  0
   -8.3289   -0.9755    1.2867 H   0  0  0  0  0  0  0  0  0  0  0  0
   -7.5953   -2.5561    1.6663 H   0  0  0  0  0  0  0  0  0  0  0  0
   -7.7370   -1.2985    2.9159 H   0  0  0  0  0  0  0  0  0  0  0  0
   -5.3784   -0.9998    3.4578 H   0  0  0  0  0  0  0  0  0  0  0  0
   -3.1712   -0.2023    2.8086 H   0  0  0  0  0  0  0  0  0  0  0  0
   -1.0441    0.6986    2.1917 H   0  0  0  0  0  0  0  0  0  0  0  0
    1.5424    2.5348    0.4430 H   0  0  0  0  0  0  0  0  0  0  0  0
    1.2279    1.6456    1.9601 H   0  0  0  0  0  0  0  0  0  0  0  0
    3.5179    1.1948    1.9654 H   0  0  0  0  0  0  0  0  0  0  0  0
    5.2591    0.1931    2.9450 H   0  0  0  0  0  0  0  0  0  0  0  0
    7.3331   -1.0974    2.7955 H   0  0  0  0  0  0  0  0  0  0  0  0
    8.0139   -2.1180    0.6420 H   0  0  0  0  0  0  0  0  0  0  0  0
    6.6525   -1.7668   -1.3721 H   0  0  0  0  0  0  0  0  0  0  0  0
    3.7517   -1.1281   -1.9272 H   0  0  0  0  0  0  0  0  0  0  0  0
    5.1881   -0.2826   -2.5138 H   0  0  0  0  0  0  0  0  0  0  0  0
    3.9418    0.6446   -1.7194 H   0  0  0  0  0  0  0  0  0  0  0  0
   -2.8611    1.4628   -2.5520 H   0  0  0  0  0  0  0  0  0  0  0  0
   -2.6057   -0.3210   -2.5634 H   0  0  0  0  0  0  0  0  0  0  0  0
   -0.4702   -0.1481   -3.4811 H   0  0  0  0  0  0  0  0  0  0  0  0
   -1.0099    1.4184   -4.1069 H   0  0  0  0  0  0  0  0  0  0  0  0
    1.1558    1.0918   -2.2982 H   0  0  0  0  0  0  0  0  0  0  0  0
    0.1502    2.5920   -2.3067 H   0  0  0  0  0  0  0  0  0  0  0  0
   -4.4823   -0.0234   -1.3211 H   0  0  0  0  0  0  0  0  0  0  0  0
   -6.6746   -0.8356   -0.6445 H   0  0  0  0  0  0  0  0  0  0  0  0
  1  2  1  0
  2  3  2  0
  3  4  1  0
  4  5  2  0
  5  6  1  0
  6  7  2  0
  7  8  1  0
  8  9  1  0
  9 10  1  0
 10 11  2  0
 10 12  1  0
 12 13  1  0
 13 14  2  0
 14 15  1  0
 15 16  2  0
 16 17  1  0
 17 18  2  0
 18 19  1  0
  8 20  2  0
 20 21  1  0
 21 22  1  0
 22 23  1  0
 23 24  1  0
  5 25  1  0
 25 26  2  0
 26  2  1  0
 21  6  1  0
 18 13  1  0
 24 20  1  0
  1 27  1  0
  1 28  1  0
  1 29  1  0
  3 30  1  0
  4 31  1  0
  7 32  1  0
  9 33  1  0
  9 34  1  0
 12 35  1  0
 14 36  1  0
 15 37  1  0
 16 38  1  0
 17 39  1  0
 19 40  1  0
 19 41  1  0
 19 42  1  0
 22 43  1  0
 22 44  1  0
 23 45  1  0
 23 46  1  0
 24 47  1  0
 24 48  1  0
 25 49  1  0
 26 50  1  0
M  CHG  1   8   1
M  END
$$$$
