
     RDKit          3D

 51 54  0  0  0  0  0  0  0  0999 V2000
    1.7583    1.7799   -3.4598 O   0  0  0  0  0  0  0  0  0  0  0  0
    1.6028    1.1726   -2.3975 C   0  0  0  0  0  0  0  0  0  0  0  0
    2.7063    0.8793   -1.5009 C   0  0  0  0  0  0  0  0  0  0  0  0
    3.1872   -0.3545   -1.0965 C   0  0  0  0  0  0  0  0  0  0  0  0
    4.2952   -0.2355   -0.2050 C   0  0  0  0  0  0  0  0  0  0  0  0
    4.6197    1.0892    0.0189 C   0  0  0  0  0  0  0  0  0  0  0  0
    3.6128    2.1674   -0.8329 S   0  0  0  0  0  0  0  0  0  0  0  0
    5.7177    1.5705    0.9193 C   0  0  0  0  0  0  0  0  0  0  0  0
    6.6651    0.4163    1.2844 C   0  0  0  0  0  0  0  0  0  0  0  0
    5.8988   -0.8751    1.6113 C   0  0  0  0  0  0  0  0  0  0  0  0
    5.0752   -1.3598    0.4068 C   0  0  0  0  0  0  0  0  0  0  0  0
    0.3445    0.6988   -2.0179 N   0  0  0  0  0  0  0  0  0  0  0  0
   -0.0007    0.2536   -0.6631 C   0  0  0  0  0  0  0  0  0  0  0  0
   -1.4608    0.5727   -0.3069 C   0  0  0  0  0  0  0  0  0  0  0  0
   -2.4139   -0.0740   -1.2614 N   0  0  0  0  0  0  0  0  0  0  0  0
   -4.0268    0.4542   -1.1779 S   0  0  0  0  0  6  0  0  0  0  0  0
   -4.8348   -0.3641   -2.0502 O   0  0  0  0  0  0  0  0  0  0  0  0
   -4.0051    1.8936   -1.3296 O   0  0  0  0  0  0  0  0  0  0  0  0
   -4.4997    0.0709    0.4994 C   0  0  0  0  0  0  0  0  0  0  0  0
   -4.6439    1.1462    1.3923 C   0  0  0  0  0  0  0  0  0  0  0  0
   -5.0566    0.9215    2.7035 C   0  0  0  0  0  0  0  0  0  0  0  0
   -5.3396   -0.3706    3.1273 C   0  0  0  0  0  0  0  0  0  0  0  0
   -5.2043   -1.4412    2.2409 C   0  0  0  0  0  0  0  0  0  0  0  0
   -4.7764   -1.2465    0.9112 C   0  0  0  0  0  0  0  0  0  0  0  0
   -4.6746   -2.4521    0.0024 C   0  0  0  0  0  0  0  0  0  0  0  0
   -3.5601   -2.4781   -0.7709 F   0  0  0  0  0  0  0  0  0  0  0  0
   -5.7444   -2.5937   -0.8208 F   0  0  0  0  0  0  0  0  0  0  0  0
   -4.6222   -3.6194    0.7133 F   0  0  0  0  0  0  0  0  0  0  0  0
   -1.8859   -0.1746   -2.6685 C   0  0  0  0  0  0  0  0  0  0  0  0
   -0.7698    0.8352   -2.9554 C   0  0  0  0  0  0  0  0  0  0  0  0
    2.7777   -1.2969   -1.4466 H   0  0  0  0  0  0  0  0  0  0  0  0
    5.2714    1.9774    1.8362 H   0  0  0  0  0  0  0  0  0  0  0  0
    6.2941    2.3744    0.4453 H   0  0  0  0  0  0  0  0  0  0  0  0
    7.2855    0.7122    2.1392 H   0  0  0  0  0  0  0  0  0  0  0  0
    7.3476    0.2242    0.4461 H   0  0  0  0  0  0  0  0  0  0  0  0
    5.2328   -0.6886    2.4641 H   0  0  0  0  0  0  0  0  0  0  0  0
    6.5994   -1.6616    1.9131 H   0  0  0  0  0  0  0  0  0  0  0  0
    5.7545   -1.7681   -0.3563 H   0  0  0  0  0  0  0  0  0  0  0  0
    4.4030   -2.1717    0.7170 H   0  0  0  0  0  0  0  0  0  0  0  0
    0.1658   -0.8290   -0.6299 H   0  0  0  0  0  0  0  0  0  0  0  0
    0.6587    0.7254    0.0706 H   0  0  0  0  0  0  0  0  0  0  0  0
   -1.6630    0.2005    0.7025 H   0  0  0  0  0  0  0  0  0  0  0  0
   -1.6025    1.6592   -0.3127 H   0  0  0  0  0  0  0  0  0  0  0  0
   -4.4491    2.1683    1.0708 H   0  0  0  0  0  0  0  0  0  0  0  0
   -5.1737    1.7569    3.3889 H   0  0  0  0  0  0  0  0  0  0  0  0
   -5.6765   -0.5473    4.1464 H   0  0  0  0  0  0  0  0  0  0  0  0
   -5.4477   -2.4419    2.5972 H   0  0  0  0  0  0  0  0  0  0  0  0
   -2.6833   -0.0427   -3.4071 H   0  0  0  0  0  0  0  0  0  0  0  0
   -1.5075   -1.1973   -2.7931 H   0  0  0  0  0  0  0  0  0  0  0  0
   -0.4049    0.7033   -3.9789 H   0  0  0  0  0  0  0  0  0  0  0  0
   -1.1463    1.8601   -2.8662 H   0  0  0  0  0  0  0  0  0  0  0  0
  1  2  2  0
  2  3  1  0
  3  4  2  0
  4  5  1  0
  5  6  2  0
  6  7  1  0
  6  8  1  0
  8  9  1  0
  9 10  1  0
 10 11  1  0
  2 12  1  0
 12 13  1  0
 13 14  1  0
 14 15  1  0
 15 16  1  0
 16 17  2  0
 16 18  2  0
 16 19  1  0
 19 20  2  0
 20 21  1  0
 21 22  2  0
 22 23  1  0
 23 24  2  0
 24 25  1  0
 25 26  1  0
 25 27  1  0
 25 28  1  0
 15 29  1  0
 29 30  1  0
  7  3  1  0
 30 12  1  0
 11  5  1  0
 24 19  1  0
  4 31  1  0
  8 32  1  0
  8 33  1  0
  9 34  1  0
  9 35  1  0
 10 36  1  0
 10 37  1  0
 11 38  1  0
 11 39  1  0
 13 40  1  0
 13 41  1  0
 14 42  1  0
 14 43  1  0
 20 44  1  0
 21 45  1  0
 22 46  1  0
 23 47  1  0
 29 48  1  0
 29 49  1  0
 30 50  1  0
 30 51  1  0
M  END
$$$$
