
     RDKit          3D

 34 35  0  0  0  0  0  0  0  0999 V2000
   -3.9121   -2.9208    0.2868 O   0  0  0  0  0  0  0  0  0  0  0  0
   -2.8715   -2.3872   -0.1245 N   0  0  0  0  0  4  0  0  0  0  0  0
   -1.8657   -3.0059   -0.5085 O   0  0  0  0  0  1  0  0  0  0  0  0
   -2.8440   -0.9231   -0.1915 C   0  0  0  0  0  0  0  0  0  0  0  0
   -4.0623   -0.2717   -0.4710 C   0  0  0  0  0  0  0  0  0  0  0  0
   -4.1141    1.1252   -0.5504 C   0  0  0  0  0  0  0  0  0  0  0  0
   -5.4203    1.8267   -0.8345 C   0  0  0  0  0  0  0  0  0  0  0  0
   -6.2565    1.8150    0.2392 F   0  0  0  0  0  0  0  0  0  0  0  0
   -5.2679    3.1348   -1.1804 F   0  0  0  0  0  0  0  0  0  0  0  0
   -6.1100    1.2481   -1.8564 F   0  0  0  0  0  0  0  0  0  0  0  0
   -2.9374    1.8460   -0.3226 C   0  0  0  0  0  0  0  0  0  0  0  0
   -1.7302    1.1878   -0.0415 C   0  0  0  0  0  0  0  0  0  0  0  0
   -1.6358   -0.2134    0.0011 C   0  0  0  0  0  0  0  0  0  0  0  0
   -0.4428   -0.8560    0.3759 N   0  0  0  0  0  0  0  0  0  0  0  0
    0.8480   -0.1759    0.1907 C   0  0  0  0  0  0  0  0  0  0  0  0
    1.9935   -1.1249    0.5614 C   0  0  0  0  0  0  0  0  0  0  0  0
    3.3625   -0.5005    0.4404 C   0  0  0  0  0  0  0  0  0  0  0  0
    4.4637   -1.1569    0.9885 C   0  0  0  0  0  0  0  0  0  0  0  0
    5.7274   -0.5898    0.8483 C   0  0  0  0  0  0  0  0  0  0  0  0
    5.8625    0.6090    0.1609 C   0  0  0  0  0  0  0  0  0  0  0  0
    4.7217    1.1923   -0.3615 C   0  0  0  0  0  0  0  0  0  0  0  0
    3.4824    0.6657   -0.2389 N   0  0  0  0  0  0  0  0  0  0  0  0
   -4.9743   -0.8494   -0.6265 H   0  0  0  0  0  0  0  0  0  0  0  0
   -2.9469    2.9360   -0.3515 H   0  0  0  0  0  0  0  0  0  0  0  0
   -0.8605    1.8109    0.1528 H   0  0  0  0  0  0  0  0  0  0  0  0
   -0.4177   -1.8171    0.0137 H   0  0  0  0  0  0  0  0  0  0  0  0
    0.9009    0.7088    0.8359 H   0  0  0  0  0  0  0  0  0  0  0  0
    0.9477    0.1443   -0.8543 H   0  0  0  0  0  0  0  0  0  0  0  0
    1.9600   -2.0130   -0.0827 H   0  0  0  0  0  0  0  0  0  0  0  0
    1.8499   -1.4678    1.5942 H   0  0  0  0  0  0  0  0  0  0  0  0
    4.3441   -2.0985    1.5158 H   0  0  0  0  0  0  0  0  0  0  0  0
    6.5991   -1.0824    1.2695 H   0  0  0  0  0  0  0  0  0  0  0  0
    6.8324    1.0757    0.0320 H   0  0  0  0  0  0  0  0  0  0  0  0
    4.7741    2.1282   -0.9106 H   0  0  0  0  0  0  0  0  0  0  0  0
  1  2  2  0
  2  3  1  0
  2  4  1  0
  4  5  2  0
  5  6  1  0
  6  7  1  0
  7  8  1  0
  7  9  1  0
  7 10  1  0
  6 11  2  0
 11 12  1  0
 12 13  2  0
 13 14  1  0
 14 15  1  0
 15 16  1  0
 16 17  1  0
 17 18  2  0
 18 19  1  0
 19 20  2  0
 20 21  1  0
 21 22  2  0
 13  4  1  0
 22 17  1  0
  5 23  1  0
 11 24  1  0
 12 25  1  0
 14 26  1  0
 15 27  1  0
 15 28  1  0
 16 29  1  0
 16 30  1  0
 18 31  1  0
 19 32  1  0
 20 33  1  0
 21 34  1  0
M  CHG  2   2   1   3  -1
M  END
$$$$
