
     RDKit          3D

 54 59  0  0  0  0  0  0  0  0999 V2000
    5.1114   -2.1516   -1.1031 C   0  0  0  0  0  0  0  0  0  0  0  0
    5.2962   -0.7445   -0.6039 C   0  0  0  0  0  0  0  0  0  0  0  0
    6.1615    0.1253   -1.2852 C   0  0  0  0  0  0  0  0  0  0  0  0
    6.3423    1.4334   -0.8420 C   0  0  0  0  0  0  0  0  0  0  0  0
    5.6600    1.8821    0.2842 C   0  0  0  0  0  0  0  0  0  0  0  0
    4.7958    1.0252    0.9717 C   0  0  0  0  0  0  0  0  0  0  0  0
    4.6063   -0.2894    0.5362 C   0  0  0  0  0  0  0  0  0  0  0  0
    3.7896   -1.2126    1.1326 O   0  0  0  0  0  0  0  0  0  0  0  0
    3.0006   -0.8239    2.2647 C   0  0  0  0  0  0  0  0  0  0  0  0
    1.7543   -0.0799    1.9033 C   0  0  0  0  0  0  0  0  0  0  0  0
    0.7355   -0.6589    1.1776 N   0  0  0  0  0  0  0  0  0  0  0  0
   -0.1473    0.3083    1.0462 C   0  0  0  0  0  0  0  0  0  0  0  0
   -1.4263    0.4215    0.4067 C   0  0  0  0  0  0  0  0  0  0  0  0
   -2.0619    1.6221    0.5757 C   0  0  0  0  0  0  0  0  0  0  0  0
   -1.5426    2.7129    1.2716 N   0  0  0  0  0  0  0  0  0  0  0  0
   -0.3723    2.5891    1.8179 C   0  0  0  0  0  0  0  0  0  0  0  0
    0.3190    1.4043    1.7115 N   0  0  0  0  0  0  0  0  0  0  0  0
    1.5219    1.1895    2.2784 N   0  0  0  0  0  0  0  0  0  0  0  0
   -3.4297    1.8151    0.0164 C   0  0  0  0  0  0  0  0  0  0  0  0
   -4.2566    2.8619    0.4568 C   0  0  0  0  0  0  0  0  0  0  0  0
   -5.5333    3.0473   -0.0788 C   0  0  0  0  0  0  0  0  0  0  0  0
   -6.0010    2.1921   -1.0709 C   0  0  0  0  0  0  0  0  0  0  0  0
   -5.1938    1.1517   -1.5248 C   0  0  0  0  0  0  0  0  0  0  0  0
   -3.9168    0.9548   -0.9772 C   0  0  0  0  0  0  0  0  0  0  0  0
   -3.0293   -0.1413   -1.4932 C   0  0  0  0  0  0  0  0  0  0  0  0
   -2.0940   -0.7197   -0.3934 C   0  0  0  0  0  0  0  0  0  0  0  0
   -2.8541   -1.6717    0.5571 C   0  0  0  0  0  0  0  0  0  0  0  0
   -3.0222   -2.9836   -0.2112 C   0  0  0  0  0  0  0  0  0  0  0  0
   -1.9642   -2.9779   -1.3126 C   0  0  0  0  0  0  0  0  0  0  0  0
   -1.1293   -1.7203   -1.0775 C   0  0  0  0  0  0  0  0  0  0  0  0
    5.7182   -2.3451   -1.9940 H   0  0  0  0  0  0  0  0  0  0  0  0
    5.4139   -2.8697   -0.3341 H   0  0  0  0  0  0  0  0  0  0  0  0
    4.0640   -2.3239   -1.3714 H   0  0  0  0  0  0  0  0  0  0  0  0
    6.6988   -0.2138   -2.1678 H   0  0  0  0  0  0  0  0  0  0  0  0
    7.0133    2.1012   -1.3756 H   0  0  0  0  0  0  0  0  0  0  0  0
    5.7977    2.9031    0.6309 H   0  0  0  0  0  0  0  0  0  0  0  0
    4.2867    1.4260    1.8414 H   0  0  0  0  0  0  0  0  0  0  0  0
    2.6939   -1.7573    2.7523 H   0  0  0  0  0  0  0  0  0  0  0  0
    3.6057   -0.2944    3.0100 H   0  0  0  0  0  0  0  0  0  0  0  0
    0.0862    3.4187    2.3777 H   0  0  0  0  0  0  0  0  0  0  0  0
   -3.9097    3.5476    1.2271 H   0  0  0  0  0  0  0  0  0  0  0  0
   -6.1562    3.8637    0.2770 H   0  0  0  0  0  0  0  0  0  0  0  0
   -6.9910    2.3390   -1.4946 H   0  0  0  0  0  0  0  0  0  0  0  0
   -5.5638    0.4952   -2.3089 H   0  0  0  0  0  0  0  0  0  0  0  0
   -2.4285    0.2816   -2.3102 H   0  0  0  0  0  0  0  0  0  0  0  0
   -3.6513   -0.9285   -1.9351 H   0  0  0  0  0  0  0  0  0  0  0  0
   -2.2645   -1.8671    1.4627 H   0  0  0  0  0  0  0  0  0  0  0  0
   -3.8216   -1.2764    0.8845 H   0  0  0  0  0  0  0  0  0  0  0  0
   -2.9030   -3.8436    0.4562 H   0  0  0  0  0  0  0  0  0  0  0  0
   -4.0236   -3.0508   -0.6512 H   0  0  0  0  0  0  0  0  0  0  0  0
   -1.3450   -3.8804   -1.2856 H   0  0  0  0  0  0  0  0  0  0  0  0
   -2.4439   -2.9446   -2.2974 H   0  0  0  0  0  0  0  0  0  0  0  0
   -0.2944   -2.0066   -0.4341 H   0  0  0  0  0  0  0  0  0  0  0  0
   -0.7017   -1.3355   -2.0096 H   0  0  0  0  0  0  0  0  0  0  0  0
  1  2  1  0
  2  3  2  0
  3  4  1  0
  4  5  2  0
  5  6  1  0
  6  7  2  0
  7  8  1  0
  8  9  1  0
  9 10  1  0
 10 11  1  0
 11 12  2  0
 12 13  1  0
 13 14  2  0
 14 15  1  0
 15 16  2  0
 16 17  1  0
 17 18  1  0
 14 19  1  0
 19 20  2  0
 20 21  1  0
 21 22  2  0
 22 23  1  0
 23 24  2  0
 24 25  1  0
 25 26  1  0
 26 27  1  0
 27 28  1  0
 28 29  1  0
 29 30  1  0
  7  2  1  0
 18 10  2  0
 24 19  1  0
 30 26  1  0
 17 12  1  0
 26 13  1  0
  1 31  1  0
  1 32  1  0
  1 33  1  0
  3 34  1  0
  4 35  1  0
  5 36  1  0
  6 37  1  0
  9 38  1  0
  9 39  1  0
 16 40  1  0
 20 41  1  0
 21 42  1  0
 22 43  1  0
 23 44  1  0
 25 45  1  0
 25 46  1  0
 27 47  1  0
 27 48  1  0
 28 49  1  0
 28 50  1  0
 29 51  1  0
 29 52  1  0
 30 53  1  0
 30 54  1  0
M  END
$$$$
