
     RDKit          3D

 46 47  0  0  0  0  0  0  0  0999 V2000
    0.2912    2.1520    0.7617 O   0  0  0  0  0  0  0  0  0  0  0  0
    0.4420    1.1032    0.1505 C   0  0  0  0  0  0  0  0  0  0  0  0
   -0.5522    0.3487   -0.4294 N   0  0  0  0  0  0  0  0  0  0  0  0
   -1.9544    0.6924   -0.3313 C   0  0  0  0  0  0  0  0  0  0  0  0
   -2.5555    0.2221    0.9914 C   0  0  0  0  0  0  0  0  0  0  0  0
   -4.0223    0.6388    1.1509 C   0  0  0  0  0  0  0  0  0  0  0  0
   -4.9061    0.1374    0.0864 N   0  0  0  0  0  0  0  0  0  0  0  0
   -6.2339    0.7889    0.1797 C   0  0  0  0  0  0  0  0  0  0  0  0
   -7.2046    0.2474   -0.8810 C   0  0  0  0  0  0  0  0  0  0  0  0
   -7.3694   -1.1705   -0.7536 O   0  0  0  0  0  0  0  0  0  0  0  0
   -6.1013   -1.8233   -0.8909 C   0  0  0  0  0  0  0  0  0  0  0  0
   -5.1001   -1.3284    0.1668 C   0  0  0  0  0  0  0  0  0  0  0  0
    1.8546    0.5061   -0.0122 C   0  0  0  0  0  0  0  0  0  0  0  0
    1.9837   -0.5845   -0.5531 O   0  0  0  0  0  0  0  0  0  0  0  0
    2.8266    1.3341    0.5275 N   0  0  0  0  0  0  0  0  0  0  0  0
    4.1540    1.0419    0.6994 N   0  0  0  0  0  0  0  0  0  0  0  0
    4.7217    0.2175   -0.1262 C   0  0  0  0  0  0  0  0  0  0  0  0
    6.1401   -0.1703    0.0365 C   0  0  0  0  0  0  0  0  0  0  0  0
    6.6862   -1.0621   -0.8941 C   0  0  0  0  0  0  0  0  0  0  0  0
    8.0216   -1.4562   -0.7809 C   0  0  0  0  0  0  0  0  0  0  0  0
    8.8110   -0.9624    0.2585 C   0  0  0  0  0  0  0  0  0  0  0  0
    8.2687   -0.0742    1.1881 C   0  0  0  0  0  0  0  0  0  0  0  0
    6.9375    0.3199    1.0777 C   0  0  0  0  0  0  0  0  0  0  0  0
    6.4773    1.1915    2.0266 O   0  0  0  0  0  0  0  0  0  0  0  0
   -0.2719   -0.5371   -0.8432 H   0  0  0  0  0  0  0  0  0  0  0  0
   -2.0540    1.7792   -0.4295 H   0  0  0  0  0  0  0  0  0  0  0  0
   -2.4548    0.2215   -1.1832 H   0  0  0  0  0  0  0  0  0  0  0  0
   -2.4449   -0.8643    1.0877 H   0  0  0  0  0  0  0  0  0  0  0  0
   -1.9854    0.6527    1.8246 H   0  0  0  0  0  0  0  0  0  0  0  0
   -4.0486    1.7366    1.1505 H   0  0  0  0  0  0  0  0  0  0  0  0
   -4.3825    0.3195    2.1375 H   0  0  0  0  0  0  0  0  0  0  0  0
   -6.6637    0.6171    1.1754 H   0  0  0  0  0  0  0  0  0  0  0  0
   -6.1289    1.8706    0.0371 H   0  0  0  0  0  0  0  0  0  0  0  0
   -6.8586    0.4828   -1.8948 H   0  0  0  0  0  0  0  0  0  0  0  0
   -8.1893    0.7074   -0.7510 H   0  0  0  0  0  0  0  0  0  0  0  0
   -6.2683   -2.8981   -0.7670 H   0  0  0  0  0  0  0  0  0  0  0  0
   -5.7186   -1.6614   -1.9060 H   0  0  0  0  0  0  0  0  0  0  0  0
   -5.4728   -1.6014    1.1627 H   0  0  0  0  0  0  0  0  0  0  0  0
   -4.1515   -1.8498    0.0036 H   0  0  0  0  0  0  0  0  0  0  0  0
    2.4767    2.1239    1.0731 H   0  0  0  0  0  0  0  0  0  0  0  0
    4.2040   -0.2138   -0.9987 H   0  0  0  0  0  0  0  0  0  0  0  0
    6.0838   -1.4579   -1.7080 H   0  0  0  0  0  0  0  0  0  0  0  0
    8.4476   -2.1494   -1.5024 H   0  0  0  0  0  0  0  0  0  0  0  0
    9.8504   -1.2693    0.3468 H   0  0  0  0  0  0  0  0  0  0  0  0
    8.8814    0.3108    1.9989 H   0  0  0  0  0  0  0  0  0  0  0  0
    5.5335    1.3702    1.8225 H   0  0  0  0  0  0  0  0  0  0  0  0
  1  2  2  0
  2  3  1  0
  3  4  1  0
  4  5  1  0
  5  6  1  0
  6  7  1  0
  7  8  1  0
  8  9  1  0
  9 10  1  0
 10 11  1  0
 11 12  1  0
  2 13  1  0
 13 14  2  0
 13 15  1  0
 15 16  1  0
 16 17  2  3
 17 18  1  0
 18 19  2  0
 19 20  1  0
 20 21  2  0
 21 22  1  0
 22 23  2  0
 23 24  1  0
 12  7  1  0
 23 18  1  0
  3 25  1  0
  4 26  1  0
  4 27  1  0
  5 28  1  0
  5 29  1  0
  6 30  1  0
  6 31  1  0
  8 32  1  0
  8 33  1  0
  9 34  1  0
  9 35  1  0
 11 36  1  0
 11 37  1  0
 12 38  1  0
 12 39  1  0
 15 40  1  0
 17 41  1  0
 19 42  1  0
 20 43  1  0
 21 44  1  0
 22 45  1  0
 24 46  1  0
M  END
$$$$
