
     RDKit          3D

 46 49  0  0  0  0  0  0  0  0999 V2000
    3.1935   -1.1258    1.5417 C   0  0  0  0  0  0  0  0  0  0  0  0
    3.6967   -0.4305    0.3508 N   0  0  0  0  0  0  0  0  0  0  0  0
    5.0499   -0.9026    0.0097 C   0  0  0  0  0  0  0  0  0  0  0  0
    5.9967    0.0691    0.6820 C   0  0  0  0  0  0  0  0  0  0  0  0
    5.2841    1.3903    0.4928 C   0  0  0  0  0  0  0  0  0  0  0  0
    3.7955    1.0334    0.5956 C   0  0  0  0  0  0  0  0  0  0  0  0
    2.9641    1.8564   -0.4062 C   0  0  0  0  0  0  0  0  0  0  0  0
    1.4598    1.5744   -0.3373 C   0  0  0  0  0  0  0  0  0  0  0  0
    1.1657    0.2862   -0.9581 N   0  0  0  0  0  0  0  0  0  0  0  0
   -0.0982   -0.2836   -0.8021 C   0  0  0  0  0  0  0  0  0  0  0  0
   -0.2497   -1.6497   -1.0508 C   0  0  0  0  0  0  0  0  0  0  0  0
   -1.5031   -2.2653   -0.9797 C   0  0  0  0  0  0  0  0  0  0  0  0
   -2.6539   -1.5236   -0.6838 C   0  0  0  0  0  0  0  0  0  0  0  0
   -4.1823   -2.4139   -0.6075 S   0  0  0  0  0  0  0  0  0  0  0  0
   -5.3876   -1.1379   -0.3693 C   0  0  0  0  0  0  0  0  0  0  0  0
   -6.7363   -1.5341   -0.3631 C   0  0  0  0  0  0  0  0  0  0  0  0
   -7.7610   -0.6052   -0.1721 C   0  0  0  0  0  0  0  0  0  0  0  0
   -7.4507    0.7356    0.0178 C   0  0  0  0  0  0  0  0  0  0  0  0
   -6.1167    1.1414    0.0149 C   0  0  0  0  0  0  0  0  0  0  0  0
   -5.0796    0.2099   -0.1796 C   0  0  0  0  0  0  0  0  0  0  0  0
   -3.6877    0.7173   -0.1718 C   0  0  0  0  0  0  0  0  0  0  0  0
   -3.4925    1.9040    0.0897 O   0  0  0  0  0  0  0  0  0  0  0  0
   -2.5264   -0.1525   -0.4731 C   0  0  0  0  0  0  0  0  0  0  0  0
   -1.2562    0.4566   -0.5493 C   0  0  0  0  0  0  0  0  0  0  0  0
    3.0999   -2.1989    1.3418 H   0  0  0  0  0  0  0  0  0  0  0  0
    3.8423   -0.9916    2.4145 H   0  0  0  0  0  0  0  0  0  0  0  0
    2.1910   -0.7670    1.7996 H   0  0  0  0  0  0  0  0  0  0  0  0
    5.1698   -0.8436   -1.0792 H   0  0  0  0  0  0  0  0  0  0  0  0
    5.2412   -1.9422    0.2973 H   0  0  0  0  0  0  0  0  0  0  0  0
    6.9922    0.0666    0.2291 H   0  0  0  0  0  0  0  0  0  0  0  0
    6.1009   -0.1604    1.7488 H   0  0  0  0  0  0  0  0  0  0  0  0
    5.5312    1.7999   -0.4944 H   0  0  0  0  0  0  0  0  0  0  0  0
    5.5854    2.1235    1.2477 H   0  0  0  0  0  0  0  0  0  0  0  0
    3.4550    1.2825    1.6102 H   0  0  0  0  0  0  0  0  0  0  0  0
    3.1229    2.9204   -0.1885 H   0  0  0  0  0  0  0  0  0  0  0  0
    3.3251    1.6868   -1.4294 H   0  0  0  0  0  0  0  0  0  0  0  0
    1.1278    1.5956    0.7078 H   0  0  0  0  0  0  0  0  0  0  0  0
    0.9346    2.3667   -0.8830 H   0  0  0  0  0  0  0  0  0  0  0  0
    1.9203   -0.3828   -0.7602 H   0  0  0  0  0  0  0  0  0  0  0  0
    0.6193   -2.2531   -1.3052 H   0  0  0  0  0  0  0  0  0  0  0  0
   -1.5666   -3.3355   -1.1677 H   0  0  0  0  0  0  0  0  0  0  0  0
   -7.0029   -2.5800   -0.5075 H   0  0  0  0  0  0  0  0  0  0  0  0
   -8.7982   -0.9312   -0.1710 H   0  0  0  0  0  0  0  0  0  0  0  0
   -8.2415    1.4663    0.1683 H   0  0  0  0  0  0  0  0  0  0  0  0
   -5.8856    2.1952    0.1646 H   0  0  0  0  0  0  0  0  0  0  0  0
   -1.1882    1.5329   -0.4106 H   0  0  0  0  0  0  0  0  0  0  0  0
  1  2  1  0
  2  3  1  0
  3  4  1  0
  4  5  1  0
  5  6  1  0
  6  7  1  0
  7  8  1  0
  8  9  1  0
  9 10  1  0
 10 11  2  0
 11 12  1  0
 12 13  2  0
 13 14  1  0
 14 15  1  0
 15 16  2  0
 16 17  1  0
 17 18  2  0
 18 19  1  0
 19 20  2  0
 20 21  1  0
 21 22  2  0
 21 23  1  0
 23 24  2  0
  6  2  1  0
 24 10  1  0
 23 13  1  0
 20 15  1  0
  1 25  1  0
  1 26  1  0
  1 27  1  0
  3 28  1  0
  3 29  1  0
  4 30  1  0
  4 31  1  0
  5 32  1  0
  5 33  1  0
  6 34  1  0
  7 35  1  0
  7 36  1  0
  8 37  1  0
  8 38  1  0
  9 39  1  0
 11 40  1  0
 12 41  1  0
 16 42  1  0
 17 43  1  0
 18 44  1  0
 19 45  1  0
 24 46  1  0
M  END
$$$$
