
     RDKit          3D

 53 54  0  0  0  0  0  0  0  0999 V2000
    6.4908   -1.3956    1.7812 C   0  0  0  0  0  0  0  0  0  0  0  0
    5.6821   -0.5658    0.7903 C   0  0  0  0  0  0  0  0  0  0  0  0
    4.2472   -0.5303    1.1181 N   0  0  0  0  0  0  0  0  0  0  0  0
    3.4878    0.0521   -0.0110 C   0  0  0  0  0  0  0  0  0  0  0  0
    1.9749    0.1763    0.2894 C   0  0  0  0  0  0  0  0  0  0  0  0
    1.7201    0.9868    1.4946 N   0  0  0  0  0  0  0  0  0  0  0  0
    0.2833    1.0786    1.8146 C   0  0  0  0  0  0  0  0  0  0  0  0
   -0.4891    1.8443    0.7253 C   0  0  0  0  0  0  0  0  0  0  0  0
   -0.2426    3.0195    0.4593 O   0  0  0  0  0  0  0  0  0  0  0  0
   -1.4564    1.0645    0.1138 N   0  0  0  0  0  0  0  0  0  0  0  0
   -2.3203    1.4100   -0.9484 C   0  0  0  0  0  0  0  0  0  0  0  0
   -2.2697    2.6326   -1.6230 C   0  0  0  0  0  0  0  0  0  0  0  0
   -3.1510    2.9027   -2.6829 C   0  0  0  0  0  0  0  0  0  0  0  0
   -3.0697    4.2201   -3.4157 C   0  0  0  0  0  0  0  0  0  0  0  0
   -2.0416    4.2553   -4.3073 F   0  0  0  0  0  0  0  0  0  0  0  0
   -2.8907    5.2847   -2.5868 F   0  0  0  0  0  0  0  0  0  0  0  0
   -4.1941    4.5004   -4.1365 F   0  0  0  0  0  0  0  0  0  0  0  0
   -4.0763    1.9200   -3.0658 C   0  0  0  0  0  0  0  0  0  0  0  0
   -4.1349    0.6932   -2.3975 C   0  0  0  0  0  0  0  0  0  0  0  0
   -3.2630    0.4336   -1.3386 C   0  0  0  0  0  0  0  0  0  0  0  0
   -3.2515   -0.7221   -0.5929 O   0  0  0  0  0  0  0  0  0  0  0  0
   -4.0250   -1.8260   -1.0738 C   0  0  0  0  0  0  0  0  0  0  0  0
   -3.8364   -3.0025   -0.1155 C   0  0  0  0  0  0  0  0  0  0  0  0
   -2.5016   -3.5058   -0.2321 O   0  0  0  0  0  0  0  0  0  0  0  0
   -2.2711   -4.5943    0.6547 C   0  0  0  0  0  0  0  0  0  0  0  0
    2.4672    0.4140    2.6287 C   0  0  0  0  0  0  0  0  0  0  0  0
    3.9794    0.2763    2.3296 C   0  0  0  0  0  0  0  0  0  0  0  0
    6.5138   -0.9391    2.7762 H   0  0  0  0  0  0  0  0  0  0  0  0
    7.5268   -1.4812    1.4356 H   0  0  0  0  0  0  0  0  0  0  0  0
    6.0823   -2.4096    1.8722 H   0  0  0  0  0  0  0  0  0  0  0  0
    6.1003    0.4479    0.7273 H   0  0  0  0  0  0  0  0  0  0  0  0
    5.8162   -1.0281   -0.1970 H   0  0  0  0  0  0  0  0  0  0  0  0
    3.6080   -0.5849   -0.8967 H   0  0  0  0  0  0  0  0  0  0  0  0
    3.8827    1.0460   -0.2663 H   0  0  0  0  0  0  0  0  0  0  0  0
    1.5013    0.6399   -0.5828 H   0  0  0  0  0  0  0  0  0  0  0  0
    1.5455   -0.8280    0.4000 H   0  0  0  0  0  0  0  0  0  0  0  0
   -0.1486    0.0832    1.9769 H   0  0  0  0  0  0  0  0  0  0  0  0
    0.1365    1.6482    2.7415 H   0  0  0  0  0  0  0  0  0  0  0  0
   -1.5940    0.1132    0.4467 H   0  0  0  0  0  0  0  0  0  0  0  0
   -1.5438    3.3954   -1.3502 H   0  0  0  0  0  0  0  0  0  0  0  0
   -4.7633    2.1079   -3.8906 H   0  0  0  0  0  0  0  0  0  0  0  0
   -4.8763   -0.0305   -2.7240 H   0  0  0  0  0  0  0  0  0  0  0  0
   -3.6821   -2.1054   -2.0772 H   0  0  0  0  0  0  0  0  0  0  0  0
   -5.0866   -1.5569   -1.0858 H   0  0  0  0  0  0  0  0  0  0  0  0
   -4.0069   -2.6766    0.9174 H   0  0  0  0  0  0  0  0  0  0  0  0
   -4.5433   -3.8010   -0.3706 H   0  0  0  0  0  0  0  0  0  0  0  0
   -1.2455   -4.9479    0.5102 H   0  0  0  0  0  0  0  0  0  0  0  0
   -2.9601   -5.4187    0.4398 H   0  0  0  0  0  0  0  0  0  0  0  0
   -2.3838   -4.2692    1.6926 H   0  0  0  0  0  0  0  0  0  0  0  0
    2.3515    1.0617    3.5075 H   0  0  0  0  0  0  0  0  0  0  0  0
    2.0636   -0.5735    2.8949 H   0  0  0  0  0  0  0  0  0  0  0  0
    4.4152    1.2804    2.2284 H   0  0  0  0  0  0  0  0  0  0  0  0
    4.4426   -0.1954    3.2027 H   0  0  0  0  0  0  0  0  0  0  0  0
  1  2  1  0
  2  3  1  0
  3  4  1  0
  4  5  1  0
  5  6  1  0
  6  7  1  0
  7  8  1  0
  8  9  2  0
  8 10  1  0
 10 11  1  0
 11 12  2  0
 12 13  1  0
 13 14  1  0
 14 15  1  0
 14 16  1  0
 14 17  1  0
 13 18  2  0
 18 19  1  0
 19 20  2  0
 20 21  1  0
 21 22  1  0
 22 23  1  0
 23 24  1  0
 24 25  1  0
  6 26  1  0
 26 27  1  0
 27  3  1  0
 20 11  1  0
  1 28  1  0
  1 29  1  0
  1 30  1  0
  2 31  1  0
  2 32  1  0
  4 33  1  0
  4 34  1  0
  5 35  1  0
  5 36  1  0
  7 37  1  0
  7 38  1  0
 10 39  1  0
 12 40  1  0
 18 41  1  0
 19 42  1  0
 22 43  1  0
 22 44  1  0
 23 45  1  0
 23 46  1  0
 25 47  1  0
 25 48  1  0
 25 49  1  0
 26 50  1  0
 26 51  1  0
 27 52  1  0
 27 53  1  0
M  END
$$$$
