
     RDKit          3D

 40 41  0  0  0  0  0  0  0  0999 V2000
    5.9837   -0.5781   -0.6211 C   0  0  0  0  0  0  0  0  0  0  0  0
    5.2098    0.7088   -0.3931 C   0  0  0  0  0  0  0  0  0  0  0  0
    4.5246    0.6753    0.8577 O   0  0  0  0  0  0  0  0  0  0  0  0
    3.2657    0.1469    0.9114 C   0  0  0  0  0  0  0  0  0  0  0  0
    2.5771   -0.4625   -0.1396 C   0  0  0  0  0  0  0  0  0  0  0  0
    1.2872   -0.9640    0.0618 C   0  0  0  0  0  0  0  0  0  0  0  0
    0.6888   -0.8524    1.3196 C   0  0  0  0  0  0  0  0  0  0  0  0
   -0.9515   -1.4915    1.5508 S   0  0  0  0  0  6  0  0  0  0  0  0
   -0.9352   -2.8597    1.0786 O   0  0  0  0  0  0  0  0  0  0  0  0
   -1.3951   -1.1607    2.8890 O   0  0  0  0  0  0  0  0  0  0  0  0
   -1.8880   -0.5469    0.4591 N   0  0  0  0  0  0  0  0  0  0  0  0
   -1.9412    0.9020    0.7979 C   0  0  0  0  0  0  0  0  0  0  0  0
   -2.3755    1.7451   -0.4014 C   0  0  0  0  0  0  0  0  0  0  0  0
   -3.8753    1.6664   -0.6708 C   0  0  0  0  0  0  0  0  0  0  0  0
   -4.3250    0.4685   -1.5035 C   0  0  0  0  0  0  0  0  0  0  0  0
   -3.6193   -0.8633   -1.2562 C   0  0  0  0  0  0  0  0  0  0  0  0
   -3.2362   -1.1304    0.1953 C   0  0  0  0  0  0  0  0  0  0  0  0
    1.3691   -0.2570    2.3810 C   0  0  0  0  0  0  0  0  0  0  0  0
    2.6559    0.2412    2.1686 C   0  0  0  0  0  0  0  0  0  0  0  0
    5.3155   -1.4418   -0.6862 H   0  0  0  0  0  0  0  0  0  0  0  0
    6.6658   -0.7677    0.2144 H   0  0  0  0  0  0  0  0  0  0  0  0
    6.5671   -0.5194   -1.5444 H   0  0  0  0  0  0  0  0  0  0  0  0
    4.5462    0.9531   -1.2296 H   0  0  0  0  0  0  0  0  0  0  0  0
    5.9270    1.5352   -0.3296 H   0  0  0  0  0  0  0  0  0  0  0  0
    3.0152   -0.5752   -1.1254 H   0  0  0  0  0  0  0  0  0  0  0  0
    0.7555   -1.4425   -0.7583 H   0  0  0  0  0  0  0  0  0  0  0  0
   -0.9431    1.2488    1.0829 H   0  0  0  0  0  0  0  0  0  0  0  0
   -2.6013    1.0702    1.6567 H   0  0  0  0  0  0  0  0  0  0  0  0
   -2.1372    2.7907   -0.1683 H   0  0  0  0  0  0  0  0  0  0  0  0
   -1.8021    1.4834   -1.2984 H   0  0  0  0  0  0  0  0  0  0  0  0
   -4.4237    1.6778    0.2795 H   0  0  0  0  0  0  0  0  0  0  0  0
   -4.1863    2.5752   -1.2018 H   0  0  0  0  0  0  0  0  0  0  0  0
   -5.4026    0.3343   -1.3428 H   0  0  0  0  0  0  0  0  0  0  0  0
   -4.2165    0.7140   -2.5679 H   0  0  0  0  0  0  0  0  0  0  0  0
   -2.7288   -0.9256   -1.8952 H   0  0  0  0  0  0  0  0  0  0  0  0
   -4.2915   -1.6602   -1.5990 H   0  0  0  0  0  0  0  0  0  0  0  0
   -3.2045   -2.2177    0.3239 H   0  0  0  0  0  0  0  0  0  0  0  0
   -3.9831   -0.7491    0.8999 H   0  0  0  0  0  0  0  0  0  0  0  0
    0.9148   -0.1779    3.3657 H   0  0  0  0  0  0  0  0  0  0  0  0
    3.1942    0.7066    2.9917 H   0  0  0  0  0  0  0  0  0  0  0  0
  1  2  1  0
  2  3  1  0
  3  4  1  0
  4  5  2  0
  5  6  1  0
  6  7  2  0
  7  8  1  0
  8  9  2  0
  8 10  2  0
  8 11  1  0
 11 12  1  0
 12 13  1  0
 13 14  1  0
 14 15  1  0
 15 16  1  0
 16 17  1  0
  7 18  1  0
 18 19  2  0
 19  4  1  0
 17 11  1  0
  1 20  1  0
  1 21  1  0
  1 22  1  0
  2 23  1  0
  2 24  1  0
  5 25  1  0
  6 26  1  0
 12 27  1  0
 12 28  1  0
 13 29  1  0
 13 30  1  0
 14 31  1  0
 14 32  1  0
 15 33  1  0
 15 34  1  0
 16 35  1  0
 16 36  1  0
 17 37  1  0
 17 38  1  0
 18 39  1  0
 19 40  1  0
M  END
$$$$
