
     RDKit          3D

 72 76  0  0  0  0  0  0  0  0999 V2000
   -2.1729   -4.3126    3.8873 C   0  0  0  0  0  0  0  0  0  0  0  0
   -1.1596   -3.9420    2.8446 C   0  0  0  0  0  0  0  0  0  0  0  0
   -0.2586   -4.8977    2.3611 C   0  0  0  0  0  0  0  0  0  0  0  0
    0.6658   -4.5706    1.3624 C   0  0  0  0  0  0  0  0  0  0  0  0
    1.5878   -5.6183    0.8106 C   0  0  0  0  0  0  0  0  0  0  0  0
    0.6675   -3.2743    0.8309 C   0  0  0  0  0  0  0  0  0  0  0  0
   -0.2194   -2.3020    1.3090 C   0  0  0  0  0  0  0  0  0  0  0  0
   -0.2181   -0.9816    0.7769 N   0  0  0  0  0  0  0  0  0  0  0  0
    0.9380   -0.2463    0.4858 C   0  0  0  0  0  0  0  0  0  0  0  0
    0.8949    0.7561   -0.2333 O   0  0  0  0  0  0  0  0  0  0  0  0
    2.2333   -0.6619    1.1513 C   0  0  0  0  0  0  0  0  0  0  0  0
    2.9496    0.5064    1.6132 N   0  0  0  0  0  0  0  0  0  0  0  0
    2.5210    1.2153    2.6734 N   0  0  0  0  0  0  0  0  0  0  0  0
    3.4636    2.1257    2.8683 N   0  0  0  0  0  0  0  0  0  0  0  0
    4.4519    1.8885    1.9375 C   0  0  0  0  0  0  0  0  0  0  0  0
    5.6596    2.6981    1.8398 C   0  0  0  0  0  0  0  0  0  0  0  0
    5.8729    3.7680    2.7215 C   0  0  0  0  0  0  0  0  0  0  0  0
    7.0297    4.5470    2.6285 C   0  0  0  0  0  0  0  0  0  0  0  0
    7.9835    4.2668    1.6520 C   0  0  0  0  0  0  0  0  0  0  0  0
    7.7834    3.2089    0.7672 C   0  0  0  0  0  0  0  0  0  0  0  0
    6.6283    2.4281    0.8612 C   0  0  0  0  0  0  0  0  0  0  0  0
    4.1773    0.8254    1.1593 N   0  0  0  0  0  0  0  0  0  0  0  0
   -1.5064   -0.4802    0.2215 C   0  0  0  0  0  0  0  0  0  0  0  0
   -1.4263   -0.5487   -1.3372 C   0  0  0  0  0  0  0  0  0  0  0  0
   -0.7290   -1.3893   -1.9169 O   0  0  0  0  0  0  0  0  0  0  0  0
   -2.2417    0.3110   -2.0400 N   0  0  0  0  0  0  0  0  0  0  0  0
   -2.3527    0.3044   -3.4893 C   0  0  0  0  0  0  0  0  0  0  0  0
   -3.3490   -0.7810   -3.9322 C   0  0  0  0  0  0  0  0  0  0  0  0
   -4.0039   -0.4408   -5.2643 C   0  0  0  0  0  0  0  0  0  0  0  0
   -4.7902    0.8698   -5.1943 C   0  0  0  0  0  0  0  0  0  0  0  0
   -4.2319    1.8642   -4.1747 C   0  0  0  0  0  0  0  0  0  0  0  0
   -2.7252    1.7050   -4.0035 C   0  0  0  0  0  0  0  0  0  0  0  0
   -2.0255    0.8340    0.8220 C   0  0  0  0  0  0  0  0  0  0  0  0
   -1.4289    1.4389    1.9308 C   0  0  0  0  0  0  0  0  0  0  0  0
   -1.9859    2.5989    2.4673 C   0  0  0  0  0  0  0  0  0  0  0  0
   -3.1403    3.1253    1.9087 C   0  0  0  0  0  0  0  0  0  0  0  0
   -3.6980    2.4635    0.8331 C   0  0  0  0  0  0  0  0  0  0  0  0
   -3.1810    1.3360    0.2911 N   0  0  0  0  0  0  0  0  0  0  0  0
   -1.1437   -2.6507    2.3018 C   0  0  0  0  0  0  0  0  0  0  0  0
   -1.8057   -5.1280    4.5193 H   0  0  0  0  0  0  0  0  0  0  0  0
   -3.1041   -4.6297    3.4077 H   0  0  0  0  0  0  0  0  0  0  0  0
   -2.3822   -3.4624    4.5453 H   0  0  0  0  0  0  0  0  0  0  0  0
   -0.2849   -5.9112    2.7582 H   0  0  0  0  0  0  0  0  0  0  0  0
    2.5151   -5.1679    0.4417 H   0  0  0  0  0  0  0  0  0  0  0  0
    1.1010   -6.1500   -0.0128 H   0  0  0  0  0  0  0  0  0  0  0  0
    1.8648   -6.3402    1.5856 H   0  0  0  0  0  0  0  0  0  0  0  0
    1.3304   -3.0506   -0.0020 H   0  0  0  0  0  0  0  0  0  0  0  0
    2.8601   -1.1911    0.4277 H   0  0  0  0  0  0  0  0  0  0  0  0
    2.0787   -1.2837    2.0364 H   0  0  0  0  0  0  0  0  0  0  0  0
    5.1383    4.0055    3.4884 H   0  0  0  0  0  0  0  0  0  0  0  0
    7.1832    5.3726    3.3188 H   0  0  0  0  0  0  0  0  0  0  0  0
    8.8820    4.8741    1.5788 H   0  0  0  0  0  0  0  0  0  0  0  0
    8.5243    2.9902    0.0026 H   0  0  0  0  0  0  0  0  0  0  0  0
    6.4854    1.6066    0.1611 H   0  0  0  0  0  0  0  0  0  0  0  0
   -2.2915   -1.2109    0.4638 H   0  0  0  0  0  0  0  0  0  0  0  0
   -2.8895    0.8825   -1.4932 H   0  0  0  0  0  0  0  0  0  0  0  0
   -1.3616    0.0563   -3.8890 H   0  0  0  0  0  0  0  0  0  0  0  0
   -4.1342   -0.9125   -3.1758 H   0  0  0  0  0  0  0  0  0  0  0  0
   -2.8320   -1.7455   -4.0035 H   0  0  0  0  0  0  0  0  0  0  0  0
   -4.6692   -1.2519   -5.5804 H   0  0  0  0  0  0  0  0  0  0  0  0
   -3.2267   -0.3582   -6.0345 H   0  0  0  0  0  0  0  0  0  0  0  0
   -5.8398    0.6643   -4.9493 H   0  0  0  0  0  0  0  0  0  0  0  0
   -4.7944    1.3280   -6.1917 H   0  0  0  0  0  0  0  0  0  0  0  0
   -4.7257    1.7128   -3.2066 H   0  0  0  0  0  0  0  0  0  0  0  0
   -4.4719    2.8861   -4.4899 H   0  0  0  0  0  0  0  0  0  0  0  0
   -2.3386    2.4832   -3.3345 H   0  0  0  0  0  0  0  0  0  0  0  0
   -2.2462    1.8678   -4.9785 H   0  0  0  0  0  0  0  0  0  0  0  0
   -0.5313    1.0398    2.3925 H   0  0  0  0  0  0  0  0  0  0  0  0
   -1.5143    3.0850    3.3173 H   0  0  0  0  0  0  0  0  0  0  0  0
   -3.5912    4.0289    2.3025 H   0  0  0  0  0  0  0  0  0  0  0  0
   -4.6031    2.8342    0.3616 H   0  0  0  0  0  0  0  0  0  0  0  0
   -1.8450   -1.9116    2.6844 H   0  0  0  0  0  0  0  0  0  0  0  0
  1  2  1  0
  2  3  2  0
  3  4  1  0
  4  5  1  0
  4  6  2  0
  6  7  1  0
  7  8  1  0
  8  9  1  0
  9 10  2  0
  9 11  1  0
 11 12  1  0
 12 13  1  0
 13 14  2  0
 14 15  1  0
 15 16  1  0
 16 17  2  0
 17 18  1  0
 18 19  2  0
 19 20  1  0
 20 21  2  0
 15 22  2  0
  8 23  1  0
 23 24  1  0
 24 25  2  0
 24 26  1  0
 26 27  1  0
 27 28  1  0
 28 29  1  0
 29 30  1  0
 30 31  1  0
 31 32  1  0
 23 33  1  0
 33 34  2  0
 34 35  1  0
 35 36  2  0
 36 37  1  0
 37 38  2  0
  7 39  2  0
 39  2  1  0
 22 12  1  0
 32 27  1  0
 38 33  1  0
 21 16  1  0
  1 40  1  0
  1 41  1  0
  1 42  1  0
  3 43  1  0
  5 44  1  0
  5 45  1  0
  5 46  1  0
  6 47  1  0
 11 48  1  0
 11 49  1  0
 17 50  1  0
 18 51  1  0
 19 52  1  0
 20 53  1  0
 21 54  1  0
 23 55  1  0
 26 56  1  0
 27 57  1  0
 28 58  1  0
 28 59  1  0
 29 60  1  0
 29 61  1  0
 30 62  1  0
 30 63  1  0
 31 64  1  0
 31 65  1  0
 32 66  1  0
 32 67  1  0
 34 68  1  0
 35 69  1  0
 36 70  1  0
 37 71  1  0
 39 72  1  0
M  END
$$$$
