
     RDKit          3D

 40 41  0  0  0  0  0  0  0  0999 V2000
   -0.9985   -0.5880   -1.4118 O   0  0  0  0  0  0  0  0  0  0  0  0
   -1.5469   -1.1278   -0.4551 C   0  0  0  0  0  0  0  0  0  0  0  0
   -0.9476   -2.3777    0.2097 C   0  0  0  0  0  0  0  0  0  0  0  0
    0.4461   -2.5345   -0.0481 O   0  0  0  0  0  0  0  0  0  0  0  0
    1.2258   -1.6248    0.6032 C   0  0  0  0  0  0  0  0  0  0  0  0
    0.8161   -0.8279    1.4359 O   0  0  0  0  0  0  0  0  0  0  0  0
    2.6651   -1.7869    0.1738 C   0  0  0  0  0  0  0  0  0  0  0  0
    3.5081   -0.5533    0.4883 C   0  0  0  0  0  0  0  0  0  0  0  0
    3.1603    0.6655   -0.3668 C   0  0  0  0  0  0  0  0  0  0  0  0
    4.3823    1.5708   -0.2448 C   0  0  0  0  0  0  0  0  0  0  0  0
    5.5532    0.6585    0.1212 C   0  0  0  0  0  0  0  0  0  0  0  0
    4.9868   -0.7562    0.1645 C   0  0  0  0  0  0  0  0  0  0  0  0
   -2.7390   -0.7377    0.1353 N   0  0  0  0  0  0  0  0  0  0  0  0
   -3.5784    0.3600   -0.1961 C   0  0  0  0  0  0  0  0  0  0  0  0
   -3.2690    1.2229   -1.2570 C   0  0  0  0  0  0  0  0  0  0  0  0
   -4.0953    2.3052   -1.5844 C   0  0  0  0  0  0  0  0  0  0  0  0
   -5.2538    2.5534   -0.8584 C   0  0  0  0  0  0  0  0  0  0  0  0
   -5.5913    1.7179    0.2021 C   0  0  0  0  0  0  0  0  0  0  0  0
   -4.7621    0.6276    0.5352 C   0  0  0  0  0  0  0  0  0  0  0  0
   -5.1811   -0.2133    1.6705 N   0  0  0  0  0  4  0  0  0  0  0  0
   -4.5392   -1.2521    1.8991 O   0  0  0  0  0  0  0  0  0  0  0  0
   -6.1562    0.1568    2.3396 O   0  0  0  0  0  1  0  0  0  0  0  0
   -1.1377   -2.3821    1.2897 H   0  0  0  0  0  0  0  0  0  0  0  0
   -1.4577   -3.2483   -0.2166 H   0  0  0  0  0  0  0  0  0  0  0  0
    3.0681   -2.6605    0.6985 H   0  0  0  0  0  0  0  0  0  0  0  0
    2.6902   -1.9902   -0.9034 H   0  0  0  0  0  0  0  0  0  0  0  0
    3.4073   -0.2889    1.5498 H   0  0  0  0  0  0  0  0  0  0  0  0
    3.0178    0.3785   -1.4160 H   0  0  0  0  0  0  0  0  0  0  0  0
    2.2481    1.1686   -0.0316 H   0  0  0  0  0  0  0  0  0  0  0  0
    4.5666    2.1152   -1.1766 H   0  0  0  0  0  0  0  0  0  0  0  0
    4.2302    2.3151    0.5453 H   0  0  0  0  0  0  0  0  0  0  0  0
    6.3745    0.7389   -0.5980 H   0  0  0  0  0  0  0  0  0  0  0  0
    5.9485    0.9401    1.1041 H   0  0  0  0  0  0  0  0  0  0  0  0
    5.1100   -1.2346   -0.8151 H   0  0  0  0  0  0  0  0  0  0  0  0
    5.4948   -1.3780    0.9081 H   0  0  0  0  0  0  0  0  0  0  0  0
   -3.0523   -1.3016    0.9267 H   0  0  0  0  0  0  0  0  0  0  0  0
   -2.3782    1.0885   -1.8640 H   0  0  0  0  0  0  0  0  0  0  0  0
   -3.8227    2.9553   -2.4138 H   0  0  0  0  0  0  0  0  0  0  0  0
   -5.8904    3.3965   -1.1173 H   0  0  0  0  0  0  0  0  0  0  0  0
   -6.5025    1.9291    0.7595 H   0  0  0  0  0  0  0  0  0  0  0  0
  1  2  2  0
  2  3  1  0
  3  4  1  0
  4  5  1  0
  5  6  2  0
  5  7  1  0
  7  8  1  0
  8  9  1  0
  9 10  1  0
 10 11  1  0
 11 12  1  0
  2 13  1  0
 13 14  1  0
 14 15  2  0
 15 16  1  0
 16 17  2  0
 17 18  1  0
 18 19  2  0
 19 20  1  0
 20 21  2  0
 20 22  1  0
 12  8  1  0
 19 14  1  0
  3 23  1  0
  3 24  1  0
  7 25  1  0
  7 26  1  0
  8 27  1  0
  9 28  1  0
  9 29  1  0
 10 30  1  0
 10 31  1  0
 11 32  1  0
 11 33  1  0
 12 34  1  0
 12 35  1  0
 13 36  1  0
 15 37  1  0
 16 38  1  0
 17 39  1  0
 18 40  1  0
M  CHG  2  20   1  22  -1
M  END
$$$$
