
     RDKit          3D

 45 47  0  0  0  0  0  0  0  0999 V2000
   -0.5408    3.0338   -0.9471 C   0  0  0  0  0  0  0  0  0  0  0  0
    0.1452    1.7096   -0.9193 C   0  0  0  0  0  0  0  0  0  0  0  0
   -0.3126    0.5945   -1.5127 C   0  0  0  0  0  0  0  0  0  0  0  0
   -1.4487    0.2580   -2.2336 N   0  0  0  0  0  0  0  0  0  0  0  0
   -2.7665    0.0401   -1.5981 C   0  0  0  0  0  0  0  0  0  0  0  0
   -3.6073    1.3150   -1.7106 C   0  0  0  0  0  0  0  0  0  0  0  0
   -2.6602   -0.5867   -0.2158 C   0  0  0  0  0  0  0  0  0  0  0  0
   -2.9541    0.1302    0.9569 C   0  0  0  0  0  0  0  0  0  0  0  0
   -2.8737   -0.4777    2.2156 C   0  0  0  0  0  0  0  0  0  0  0  0
   -2.4926   -1.8134    2.3270 C   0  0  0  0  0  0  0  0  0  0  0  0
   -2.1825   -2.5403    1.1832 C   0  0  0  0  0  0  0  0  0  0  0  0
   -2.2563   -1.9244   -0.0652 C   0  0  0  0  0  0  0  0  0  0  0  0
   -1.8840   -2.6678   -1.1523 O   0  0  0  0  0  0  0  0  0  0  0  0
    0.7419   -0.4485   -1.2364 C   0  0  0  0  0  0  0  0  0  0  0  0
    0.5900   -1.6152   -1.5836 O   0  0  0  0  0  0  0  0  0  0  0  0
    1.7403    0.1692   -0.4827 N   0  0  0  0  0  0  0  0  0  0  0  0
    2.6286   -0.4980    0.4070 C   0  0  0  0  0  0  0  0  0  0  0  0
    3.0298   -1.8196    0.1633 C   0  0  0  0  0  0  0  0  0  0  0  0
    3.9079   -2.4787    1.0305 C   0  0  0  0  0  0  0  0  0  0  0  0
    4.4020   -1.8248    2.1561 C   0  0  0  0  0  0  0  0  0  0  0  0
    4.0112   -0.5142    2.4178 C   0  0  0  0  0  0  0  0  0  0  0  0
    3.1303    0.1411    1.5517 C   0  0  0  0  0  0  0  0  0  0  0  0
    1.4063    1.5473   -0.3142 N   0  0  0  0  0  0  0  0  0  0  0  0
    2.4950    2.4559   -0.7222 C   0  0  0  0  0  0  0  0  0  0  0  0
    0.1484    3.8612   -0.7550 H   0  0  0  0  0  0  0  0  0  0  0  0
   -1.3137    3.0732   -0.1692 H   0  0  0  0  0  0  0  0  0  0  0  0
   -1.0057    3.2201   -1.9218 H   0  0  0  0  0  0  0  0  0  0  0  0
   -1.2314   -0.6170   -2.7242 H   0  0  0  0  0  0  0  0  0  0  0  0
   -3.2964   -0.6925   -2.2245 H   0  0  0  0  0  0  0  0  0  0  0  0
   -3.1878    2.1479   -1.1412 H   0  0  0  0  0  0  0  0  0  0  0  0
   -3.6707    1.6360   -2.7599 H   0  0  0  0  0  0  0  0  0  0  0  0
   -4.6265    1.1454   -1.3495 H   0  0  0  0  0  0  0  0  0  0  0  0
   -3.2435    1.1772    0.9209 H   0  0  0  0  0  0  0  0  0  0  0  0
   -3.1002    0.0952    3.1116 H   0  0  0  0  0  0  0  0  0  0  0  0
   -2.4310   -2.2841    3.3059 H   0  0  0  0  0  0  0  0  0  0  0  0
   -1.8704   -3.5782    1.2634 H   0  0  0  0  0  0  0  0  0  0  0  0
   -0.9411   -2.4233   -1.3180 H   0  0  0  0  0  0  0  0  0  0  0  0
    2.6806   -2.3582   -0.7144 H   0  0  0  0  0  0  0  0  0  0  0  0
    4.2055   -3.5023    0.8198 H   0  0  0  0  0  0  0  0  0  0  0  0
    5.0824   -2.3393    2.8335 H   0  0  0  0  0  0  0  0  0  0  0  0
    4.3835   -0.0028    3.3020 H   0  0  0  0  0  0  0  0  0  0  0  0
    2.8168    1.1502    1.8043 H   0  0  0  0  0  0  0  0  0  0  0  0
    2.5932    2.4832   -1.8129 H   0  0  0  0  0  0  0  0  0  0  0  0
    3.4592    2.1530   -0.3030 H   0  0  0  0  0  0  0  0  0  0  0  0
    2.2997    3.4699   -0.3613 H   0  0  0  0  0  0  0  0  0  0  0  0
  1  2  1  0
  2  3  2  0
  3  4  1  0
  4  5  1  0
  5  6  1  0
  5  7  1  0
  7  8  2  0
  8  9  1  0
  9 10  2  0
 10 11  1  0
 11 12  2  0
 12 13  1  0
  3 14  1  0
 14 15  2  0
 14 16  1  0
 16 17  1  0
 17 18  2  0
 18 19  1  0
 19 20  2  0
 20 21  1  0
 21 22  2  0
 16 23  1  0
 23 24  1  0
 23  2  1  0
 12  7  1  0
 22 17  1  0
  1 25  1  0
  1 26  1  0
  1 27  1  0
  4 28  1  0
  5 29  1  0
  6 30  1  0
  6 31  1  0
  6 32  1  0
  8 33  1  0
  9 34  1  0
 10 35  1  0
 11 36  1  0
 13 37  1  0
 18 38  1  0
 19 39  1  0
 20 40  1  0
 21 41  1  0
 22 42  1  0
 24 43  1  0
 24 44  1  0
 24 45  1  0
M  END
$$$$
