
     RDKit          3D

 55 57  0  0  0  0  0  0  0  0999 V2000
    0.4407   -3.2221   -1.1510 O   0  0  0  0  0  0  0  0  0  0  0  0
    0.5056   -2.0264   -1.4234 C   0  0  0  0  0  0  0  0  0  0  0  0
   -0.6036   -1.2673   -1.7268 N   0  0  0  0  0  0  0  0  0  0  0  0
   -1.9092   -1.8869   -1.8545 C   0  0  0  0  0  0  0  0  0  0  0  0
   -3.0400   -0.8645   -1.7677 C   0  0  0  0  0  0  0  0  0  0  0  0
   -3.1450   -0.2308   -0.3760 C   0  0  0  0  0  0  0  0  0  0  0  0
   -4.2565    0.8172   -0.2919 C   0  0  0  0  0  0  0  0  0  0  0  0
   -4.3409    1.4701    1.0863 C   0  0  0  0  0  0  0  0  0  0  0  0
   -5.7010    2.1539    1.0740 C   0  0  0  0  0  0  0  0  0  0  0  0
   -6.5857    1.2972    0.1692 C   0  0  0  0  0  0  0  0  0  0  0  0
   -5.6674    0.2583   -0.4721 C   0  0  0  0  0  0  0  0  0  0  0  0
    1.8332   -1.2848   -1.3992 C   0  0  0  0  0  0  0  0  0  0  0  0
    2.1555   -0.5906   -2.7150 C   0  0  0  0  0  0  0  0  0  0  0  0
    3.5530   -0.0052   -2.6312 C   0  0  0  0  0  0  0  0  0  0  0  0
    3.7796    0.8793   -1.4196 C   0  0  0  0  0  0  0  0  0  0  0  0
    4.6588    1.7409   -1.4521 O   0  0  0  0  0  0  0  0  0  0  0  0
    3.0326    0.6089   -0.2836 N   0  0  0  0  0  0  0  0  0  0  0  0
    3.2852    1.3923    0.9247 C   0  0  0  0  0  0  0  0  0  0  0  0
    4.0288    0.5885    1.9664 C   0  0  0  0  0  0  0  0  0  0  0  0
    3.3782    0.1268    3.1201 C   0  0  0  0  0  0  0  0  0  0  0  0
    4.0733   -0.6244    4.0712 C   0  0  0  0  0  0  0  0  0  0  0  0
    5.4211   -0.9179    3.8736 C   0  0  0  0  0  0  0  0  0  0  0  0
    6.2747   -1.8431    5.0467 Cl  0  0  0  0  0  0  0  0  0  0  0  0
    6.0811   -0.4674    2.7331 C   0  0  0  0  0  0  0  0  0  0  0  0
    5.3866    0.2831    1.7822 C   0  0  0  0  0  0  0  0  0  0  0  0
    1.8554   -0.2608   -0.2744 C   0  0  0  0  0  0  0  0  0  0  0  0
   -0.4700   -0.3826   -2.1975 H   0  0  0  0  0  0  0  0  0  0  0  0
   -1.9320   -2.3841   -2.8307 H   0  0  0  0  0  0  0  0  0  0  0  0
   -2.0249   -2.6594   -1.0860 H   0  0  0  0  0  0  0  0  0  0  0  0
   -2.8891   -0.0796   -2.5189 H   0  0  0  0  0  0  0  0  0  0  0  0
   -3.9805   -1.3711   -2.0127 H   0  0  0  0  0  0  0  0  0  0  0  0
   -2.1929    0.2485   -0.1170 H   0  0  0  0  0  0  0  0  0  0  0  0
   -3.3136   -1.0180    0.3698 H   0  0  0  0  0  0  0  0  0  0  0  0
   -4.0792    1.5972   -1.0449 H   0  0  0  0  0  0  0  0  0  0  0  0
   -4.3101    0.7142    1.8808 H   0  0  0  0  0  0  0  0  0  0  0  0
   -3.5270    2.1801    1.2624 H   0  0  0  0  0  0  0  0  0  0  0  0
   -6.1162    2.2538    2.0815 H   0  0  0  0  0  0  0  0  0  0  0  0
   -5.6107    3.1622    0.6527 H   0  0  0  0  0  0  0  0  0  0  0  0
   -7.3860    0.8097    0.7359 H   0  0  0  0  0  0  0  0  0  0  0  0
   -7.0605    1.9228   -0.5948 H   0  0  0  0  0  0  0  0  0  0  0  0
   -5.7761   -0.6999    0.0507 H   0  0  0  0  0  0  0  0  0  0  0  0
   -5.9195    0.0939   -1.5244 H   0  0  0  0  0  0  0  0  0  0  0  0
    2.6112   -2.0372   -1.2070 H   0  0  0  0  0  0  0  0  0  0  0  0
    2.0937   -1.2979   -3.5502 H   0  0  0  0  0  0  0  0  0  0  0  0
    1.4392    0.2130   -2.9244 H   0  0  0  0  0  0  0  0  0  0  0  0
    4.3004   -0.8066   -2.5960 H   0  0  0  0  0  0  0  0  0  0  0  0
    3.7444    0.5913   -3.5304 H   0  0  0  0  0  0  0  0  0  0  0  0
    3.8672    2.2931    0.6974 H   0  0  0  0  0  0  0  0  0  0  0  0
    2.3222    1.7453    1.3136 H   0  0  0  0  0  0  0  0  0  0  0  0
    2.3259    0.3462    3.2860 H   0  0  0  0  0  0  0  0  0  0  0  0
    3.5591   -0.9778    4.9609 H   0  0  0  0  0  0  0  0  0  0  0  0
    7.1319   -0.6953    2.5763 H   0  0  0  0  0  0  0  0  0  0  0  0
    5.9077    0.6321    0.8914 H   0  0  0  0  0  0  0  0  0  0  0  0
    0.9821    0.4014   -0.3226 H   0  0  0  0  0  0  0  0  0  0  0  0
    1.8094   -0.7811    0.6893 H   0  0  0  0  0  0  0  0  0  0  0  0
  1  2  2  0
  2  3  1  0
  3  4  1  0
  4  5  1  0
  5  6  1  0
  6  7  1  0
  7  8  1  0
  8  9  1  0
  9 10  1  0
 10 11  1  0
  2 12  1  0
 12 13  1  0
 13 14  1  0
 14 15  1  0
 15 16  2  0
 15 17  1  0
 17 18  1  0
 18 19  1  0
 19 20  2  0
 20 21  1  0
 21 22  2  0
 22 23  1  0
 22 24  1  0
 24 25  2  0
 17 26  1  0
 11  7  1  0
 26 12  1  0
 25 19  1  0
  3 27  1  0
  4 28  1  0
  4 29  1  0
  5 30  1  0
  5 31  1  0
  6 32  1  0
  6 33  1  0
  7 34  1  0
  8 35  1  0
  8 36  1  0
  9 37  1  0
  9 38  1  0
 10 39  1  0
 10 40  1  0
 11 41  1  0
 11 42  1  0
 12 43  1  0
 13 44  1  0
 13 45  1  0
 14 46  1  0
 14 47  1  0
 18 48  1  0
 18 49  1  0
 20 50  1  0
 21 51  1  0
 24 52  1  0
 25 53  1  0
 26 54  1  0
 26 55  1  0
M  END
$$$$
