
     RDKit          3D

 55 57  0  0  0  0  0  0  0  0999 V2000
    5.8635   -1.7053    2.9575 C   0  0  0  0  0  0  0  0  0  0  0  0
    4.8223   -0.6478    3.2756 C   0  0  0  0  0  0  0  0  0  0  0  0
    5.0249    0.4881    2.4316 O   0  0  0  0  0  0  0  0  0  0  0  0
    4.0388    0.7563    1.5210 C   0  0  0  0  0  0  0  0  0  0  0  0
    3.4191   -0.2399    0.7632 C   0  0  0  0  0  0  0  0  0  0  0  0
    2.4419    0.0899   -0.1857 C   0  0  0  0  0  0  0  0  0  0  0  0
    2.0843    1.4262   -0.3985 C   0  0  0  0  0  0  0  0  0  0  0  0
    1.0301    1.8477   -1.3751 C   0  0  0  0  0  0  0  0  0  0  0  0
    0.7297    3.0387   -1.4438 O   0  0  0  0  0  0  0  0  0  0  0  0
    0.2980    0.8141   -2.1910 C   0  0  0  0  0  0  0  0  0  0  0  0
   -0.2044    1.3652   -3.4843 C   0  0  0  0  0  0  0  0  0  0  0  0
    0.4559    1.5594   -4.4882 O   0  0  0  0  0  0  0  0  0  0  0  0
   -1.6935    1.6330   -3.3743 C   0  0  0  0  0  0  0  0  0  0  0  0
   -2.3351    2.2932   -4.1637 O   0  0  0  0  0  0  0  0  0  0  0  0
   -2.1230    1.0128   -2.2161 N   0  0  0  0  0  0  0  0  0  0  0  0
   -3.3836    1.4351   -1.6108 C   0  0  0  0  0  0  0  0  0  0  0  0
   -3.9743    0.5431   -0.4994 C   0  0  0  0  0  0  0  0  0  0  0  0
   -3.2571    0.5592    0.7956 N   0  0  0  0  0  0  0  0  0  0  0  0
   -3.8275   -0.4600    1.6833 C   0  0  0  0  0  0  0  0  0  0  0  0
   -3.3280    1.8703    1.4464 C   0  0  0  0  0  0  0  0  0  0  0  0
   -1.0107    0.4392   -1.4638 C   0  0  0  0  0  0  0  0  0  0  0  0
   -1.1139   -1.0755   -1.3490 C   0  0  0  0  0  0  0  0  0  0  0  0
   -1.4324   -1.8827   -2.4541 C   0  0  0  0  0  0  0  0  0  0  0  0
   -1.4798   -3.2721   -2.3286 C   0  0  0  0  0  0  0  0  0  0  0  0
   -1.2090   -3.8732   -1.1017 C   0  0  0  0  0  0  0  0  0  0  0  0
   -0.8909   -3.0865    0.0023 C   0  0  0  0  0  0  0  0  0  0  0  0
   -0.8430   -1.6975   -0.1205 C   0  0  0  0  0  0  0  0  0  0  0  0
    2.7272    2.4272    0.3432 C   0  0  0  0  0  0  0  0  0  0  0  0
    3.7012    2.0951    1.2894 C   0  0  0  0  0  0  0  0  0  0  0  0
    4.4519    3.3753    2.1735 Cl  0  0  0  0  0  0  0  0  0  0  0  0
    5.7712   -2.0493    1.9230 H   0  0  0  0  0  0  0  0  0  0  0  0
    6.8720   -1.2949    3.0663 H   0  0  0  0  0  0  0  0  0  0  0  0
    5.7599   -2.5655    3.6250 H   0  0  0  0  0  0  0  0  0  0  0  0
    4.9648   -0.3071    4.3070 H   0  0  0  0  0  0  0  0  0  0  0  0
    3.8071   -1.0589    3.2205 H   0  0  0  0  0  0  0  0  0  0  0  0
    3.6977   -1.2832    0.8815 H   0  0  0  0  0  0  0  0  0  0  0  0
    1.9938   -0.7284   -0.7409 H   0  0  0  0  0  0  0  0  0  0  0  0
    0.9388   -0.0373   -2.4339 H   0  0  0  0  0  0  0  0  0  0  0  0
   -4.1184    1.4912   -2.4234 H   0  0  0  0  0  0  0  0  0  0  0  0
   -3.2506    2.4659   -1.2655 H   0  0  0  0  0  0  0  0  0  0  0  0
   -4.0053   -0.4849   -0.8853 H   0  0  0  0  0  0  0  0  0  0  0  0
   -5.0173    0.8467   -0.3378 H   0  0  0  0  0  0  0  0  0  0  0  0
   -3.7507   -1.4555    1.2315 H   0  0  0  0  0  0  0  0  0  0  0  0
   -3.2695   -0.5031    2.6257 H   0  0  0  0  0  0  0  0  0  0  0  0
   -4.8821   -0.2661    1.9130 H   0  0  0  0  0  0  0  0  0  0  0  0
   -4.3610    2.2033    1.6028 H   0  0  0  0  0  0  0  0  0  0  0  0
   -2.8273    1.8428    2.4216 H   0  0  0  0  0  0  0  0  0  0  0  0
   -2.8017    2.6308    0.8626 H   0  0  0  0  0  0  0  0  0  0  0  0
   -1.0222    0.8876   -0.4643 H   0  0  0  0  0  0  0  0  0  0  0  0
   -1.6589   -1.4409   -3.4230 H   0  0  0  0  0  0  0  0  0  0  0  0
   -1.7361   -3.8866   -3.1893 H   0  0  0  0  0  0  0  0  0  0  0  0
   -1.2539   -4.9551   -1.0054 H   0  0  0  0  0  0  0  0  0  0  0  0
   -0.6919   -3.5543    0.9632 H   0  0  0  0  0  0  0  0  0  0  0  0
   -0.6127   -1.1000    0.7603 H   0  0  0  0  0  0  0  0  0  0  0  0
    2.4718    3.4742    0.1843 H   0  0  0  0  0  0  0  0  0  0  0  0
  1  2  1  0
  2  3  1  0
  3  4  1  0
  4  5  2  0
  5  6  1  0
  6  7  2  0
  7  8  1  0
  8  9  2  0
  8 10  1  0
 10 11  1  0
 11 12  2  0
 11 13  1  0
 13 14  2  0
 13 15  1  0
 15 16  1  0
 16 17  1  0
 17 18  1  0
 18 19  1  0
 18 20  1  0
 15 21  1  0
 21 22  1  0
 22 23  2  0
 23 24  1  0
 24 25  2  0
 25 26  1  0
 26 27  2  0
  7 28  1  0
 28 29  2  0
 29 30  1  0
 29  4  1  0
 21 10  1  0
 27 22  1  0
  1 31  1  0
  1 32  1  0
  1 33  1  0
  2 34  1  0
  2 35  1  0
  5 36  1  0
  6 37  1  0
 10 38  1  0
 16 39  1  0
 16 40  1  0
 17 41  1  0
 17 42  1  0
 19 43  1  0
 19 44  1  0
 19 45  1  0
 20 46  1  0
 20 47  1  0
 20 48  1  0
 21 49  1  0
 23 50  1  0
 24 51  1  0
 25 52  1  0
 26 53  1  0
 27 54  1  0
 28 55  1  0
M  END
$$$$
