
     RDKit          3D

 42 43  0  0  0  0  0  0  0  0999 V2000
   -5.6018   -0.4904    3.1140 C   0  0  0  0  0  0  0  0  0  0  0  0
   -4.2791   -1.0276    3.6659 C   0  0  0  0  0  0  0  0  0  0  0  0
   -4.3156   -2.5535    3.7800 C   0  0  0  0  0  0  0  0  0  0  0  0
   -3.0974   -0.5576    2.8367 C   0  0  0  0  0  0  0  0  0  0  0  0
   -2.1153    0.2532    3.4197 C   0  0  0  0  0  0  0  0  0  0  0  0
   -1.0217    0.6952    2.6706 C   0  0  0  0  0  0  0  0  0  0  0  0
   -0.8844    0.3386    1.3287 C   0  0  0  0  0  0  0  0  0  0  0  0
    0.2309    0.8391    0.7179 O   0  0  0  0  0  0  0  0  0  0  0  0
    0.4353    0.4950   -0.6432 C   0  0  0  0  0  0  0  0  0  0  0  0
    1.7203    1.1233   -1.1928 C   0  0  0  0  0  0  0  0  0  0  0  0
    2.4304    1.9029   -0.5652 O   0  0  0  0  0  0  0  0  0  0  0  0
    2.0043    0.7316   -2.4934 N   0  0  0  0  0  0  0  0  0  0  0  0
    3.2314    1.1450   -3.1402 C   0  0  0  0  0  0  0  0  0  0  0  0
    3.1921    0.9462   -4.6504 C   0  0  0  0  0  0  0  0  0  0  0  0
    4.6601    1.0190   -5.0367 C   0  0  0  0  0  0  0  0  0  0  0  0
    5.3954    0.3150   -3.8998 C   0  0  0  0  0  0  0  0  0  0  0  0
    4.4426    0.3189   -2.7030 C   0  0  0  0  0  0  0  0  0  0  0  0
   -1.8564   -0.4670    0.7383 C   0  0  0  0  0  0  0  0  0  0  0  0
   -2.9535   -0.9108    1.4871 C   0  0  0  0  0  0  0  0  0  0  0  0
   -5.8207   -0.8867    2.1164 H   0  0  0  0  0  0  0  0  0  0  0  0
   -5.5810    0.6028    3.0416 H   0  0  0  0  0  0  0  0  0  0  0  0
   -6.4334   -0.7671    3.7711 H   0  0  0  0  0  0  0  0  0  0  0  0
   -4.1704   -0.6313    4.6842 H   0  0  0  0  0  0  0  0  0  0  0  0
   -5.1225   -2.8699    4.4498 H   0  0  0  0  0  0  0  0  0  0  0  0
   -4.4823   -3.0333    2.8096 H   0  0  0  0  0  0  0  0  0  0  0  0
   -3.3732   -2.9384    4.1852 H   0  0  0  0  0  0  0  0  0  0  0  0
   -2.1898    0.5506    4.4631 H   0  0  0  0  0  0  0  0  0  0  0  0
   -0.2682    1.3247    3.1386 H   0  0  0  0  0  0  0  0  0  0  0  0
   -0.3934    0.8682   -1.2571 H   0  0  0  0  0  0  0  0  0  0  0  0
    0.5322   -0.5928   -0.7445 H   0  0  0  0  0  0  0  0  0  0  0  0
    1.5138   -0.0685   -2.8709 H   0  0  0  0  0  0  0  0  0  0  0  0
    3.4119    2.2035   -2.9111 H   0  0  0  0  0  0  0  0  0  0  0  0
    2.7791   -0.0364   -4.9108 H   0  0  0  0  0  0  0  0  0  0  0  0
    2.5902    1.7078   -5.1556 H   0  0  0  0  0  0  0  0  0  0  0  0
    4.9805    2.0664   -5.0918 H   0  0  0  0  0  0  0  0  0  0  0  0
    4.8588    0.5567   -6.0080 H   0  0  0  0  0  0  0  0  0  0  0  0
    5.6401   -0.7163   -4.1786 H   0  0  0  0  0  0  0  0  0  0  0  0
    6.3372    0.8233   -3.6679 H   0  0  0  0  0  0  0  0  0  0  0  0
    4.1542   -0.7112   -2.4594 H   0  0  0  0  0  0  0  0  0  0  0  0
    4.9155    0.7399   -1.8094 H   0  0  0  0  0  0  0  0  0  0  0  0
   -1.7980   -0.7702   -0.3009 H   0  0  0  0  0  0  0  0  0  0  0  0
   -3.6982   -1.5380    1.0019 H   0  0  0  0  0  0  0  0  0  0  0  0
  1  2  1  0
  2  3  1  0
  2  4  1  0
  4  5  2  0
  5  6  1  0
  6  7  2  0
  7  8  1  0
  8  9  1  0
  9 10  1  0
 10 11  2  0
 10 12  1  0
 12 13  1  0
 13 14  1  0
 14 15  1  0
 15 16  1  0
 16 17  1  0
  7 18  1  0
 18 19  2  0
 19  4  1  0
 17 13  1  0
  1 20  1  0
  1 21  1  0
  1 22  1  0
  2 23  1  0
  3 24  1  0
  3 25  1  0
  3 26  1  0
  5 27  1  0
  6 28  1  0
  9 29  1  0
  9 30  1  0
 12 31  1  0
 13 32  1  0
 14 33  1  0
 14 34  1  0
 15 35  1  0
 15 36  1  0
 16 37  1  0
 16 38  1  0
 17 39  1  0
 17 40  1  0
 18 41  1  0
 19 42  1  0
M  END
$$$$
