
     RDKit          3D

 40 42  0  0  0  0  0  0  0  0999 V2000
    5.7127    1.7205    0.9734 C   0  0  0  0  0  0  0  0  0  0  0  0
    5.3707    1.5561   -0.4955 C   0  0  0  0  0  0  0  0  0  0  0  0
    4.1620    0.7984   -0.6400 O   0  0  0  0  0  0  0  0  0  0  0  0
    3.0014    1.5116   -0.5940 C   0  0  0  0  0  0  0  0  0  0  0  0
    2.9253    2.7222   -0.4348 O   0  0  0  0  0  0  0  0  0  0  0  0
    1.8194    0.5948   -0.7613 C   0  0  0  0  0  0  0  0  0  0  0  0
    0.6088    1.1781   -0.7470 N   0  0  0  0  0  0  0  0  0  0  0  0
   -0.4521    0.3652   -0.8743 C   0  0  0  0  0  0  0  0  0  0  0  0
   -1.6938    1.0328   -0.8335 N   0  0  0  0  0  0  0  0  0  0  0  0
   -2.7956    0.7274    0.0072 C   0  0  0  0  0  0  0  0  0  0  0  0
   -4.0730    0.8564   -0.5661 C   0  0  0  0  0  0  0  0  0  0  0  0
   -5.2284    0.6210    0.1778 C   0  0  0  0  0  0  0  0  0  0  0  0
   -5.1239    0.2774    1.5194 C   0  0  0  0  0  0  0  0  0  0  0  0
   -3.8669    0.1933    2.1178 C   0  0  0  0  0  0  0  0  0  0  0  0
   -2.6924    0.4433    1.3834 C   0  0  0  0  0  0  0  0  0  0  0  0
   -1.3787    0.3879    2.1136 C   0  0  0  0  0  0  0  0  0  0  0  0
   -0.3303   -1.0249   -1.0644 C   0  0  0  0  0  0  0  0  0  0  0  0
   -1.3984   -1.9368   -1.2715 C   0  0  0  0  0  0  0  0  0  0  0  0
   -1.1606   -3.2991   -1.4407 C   0  0  0  0  0  0  0  0  0  0  0  0
    0.1433   -3.7702   -1.4135 C   0  0  0  0  0  0  0  0  0  0  0  0
    1.1977   -2.8738   -1.2252 C   0  0  0  0  0  0  0  0  0  0  0  0
    0.9845   -1.5111   -1.0565 C   0  0  0  0  0  0  0  0  0  0  0  0
    2.0497   -0.7239   -0.8995 N   0  0  0  0  0  0  0  0  0  0  0  0
    5.7844    0.7437    1.4630 H   0  0  0  0  0  0  0  0  0  0  0  0
    4.9337    2.2829    1.4978 H   0  0  0  0  0  0  0  0  0  0  0  0
    6.6640    2.2464    1.0936 H   0  0  0  0  0  0  0  0  0  0  0  0
    6.1639    0.9918   -0.9968 H   0  0  0  0  0  0  0  0  0  0  0  0
    5.2972    2.5255   -1.0015 H   0  0  0  0  0  0  0  0  0  0  0  0
   -1.4455    2.0128   -0.6832 H   0  0  0  0  0  0  0  0  0  0  0  0
   -4.1651    1.1254   -1.6164 H   0  0  0  0  0  0  0  0  0  0  0  0
   -6.2047    0.7073   -0.2909 H   0  0  0  0  0  0  0  0  0  0  0  0
   -6.0193    0.0897    2.1062 H   0  0  0  0  0  0  0  0  0  0  0  0
   -3.8081   -0.0546    3.1761 H   0  0  0  0  0  0  0  0  0  0  0  0
   -0.8508   -0.5416    1.8830 H   0  0  0  0  0  0  0  0  0  0  0  0
   -1.5262    0.4250    3.1988 H   0  0  0  0  0  0  0  0  0  0  0  0
   -0.7535    1.2487    1.8577 H   0  0  0  0  0  0  0  0  0  0  0  0
   -2.4257   -1.5837   -1.3086 H   0  0  0  0  0  0  0  0  0  0  0  0
   -1.9908   -3.9838   -1.5945 H   0  0  0  0  0  0  0  0  0  0  0  0
    0.3470   -4.8299   -1.5443 H   0  0  0  0  0  0  0  0  0  0  0  0
    2.2182   -3.2523   -1.2149 H   0  0  0  0  0  0  0  0  0  0  0  0
  1  2  1  0
  2  3  1  0
  3  4  1  0
  4  5  2  0
  4  6  1  0
  6  7  2  0
  7  8  1  0
  8  9  1  0
  9 10  1  0
 10 11  2  0
 11 12  1  0
 12 13  2  0
 13 14  1  0
 14 15  2  0
 15 16  1  0
  8 17  2  0
 17 18  1  0
 18 19  2  0
 19 20  1  0
 20 21  2  0
 21 22  1  0
 22 23  2  0
 23  6  1  0
 15 10  1  0
 22 17  1  0
  1 24  1  0
  1 25  1  0
  1 26  1  0
  2 27  1  0
  2 28  1  0
  9 29  1  0
 11 30  1  0
 12 31  1  0
 13 32  1  0
 14 33  1  0
 16 34  1  0
 16 35  1  0
 16 36  1  0
 18 37  1  0
 19 38  1  0
 20 39  1  0
 21 40  1  0
M  END
$$$$
