
     RDKit          3D

 41 43  0  0  0  0  0  0  0  0999 V2000
   -7.8742   -0.5343   -0.4352 C   0  0  0  0  0  0  0  0  0  0  0  0
   -6.4208   -0.1814   -0.6963 C   0  0  0  0  0  0  0  0  0  0  0  0
   -5.7131   -0.2932    0.5373 O   0  0  0  0  0  0  0  0  0  0  0  0
   -4.3727   -0.0276    0.5121 C   0  0  0  0  0  0  0  0  0  0  0  0
   -3.7270   -0.1670    1.7407 C   0  0  0  0  0  0  0  0  0  0  0  0
   -2.3529    0.0678    1.8593 C   0  0  0  0  0  0  0  0  0  0  0  0
   -1.5974    0.4602    0.7469 C   0  0  0  0  0  0  0  0  0  0  0  0
   -0.1743    0.6859    0.8522 N   0  0  0  0  0  0  0  0  0  0  0  0
    0.6334   -0.0011   -0.0734 C   0  0  0  0  0  0  0  0  0  0  0  0
    0.1943   -0.7561   -0.9445 O   0  0  0  0  0  0  0  0  0  0  0  0
    2.1121    0.2019    0.0433 C   0  0  0  0  0  0  0  0  0  0  0  0
    2.8511   -0.3353   -0.9489 C   0  0  0  0  0  0  0  0  0  0  0  0
    4.2592   -0.2565   -1.1291 C   0  0  0  0  0  0  0  0  0  0  0  0
    5.1601    0.7920   -0.9795 C   0  0  0  0  0  0  0  0  0  0  0  0
    6.4458    0.3275   -1.3466 C   0  0  0  0  0  0  0  0  0  0  0  0
    6.2772   -0.9788   -1.7328 C   0  0  0  0  0  0  0  0  0  0  0  0
    7.1959   -2.0235   -2.2241 C   0  0  0  0  0  0  0  0  0  0  0  0
    4.9704   -1.3307   -1.6217 O   0  0  0  0  0  0  0  0  0  0  0  0
    2.6482    0.9206    1.2121 C   0  0  0  0  0  0  0  0  0  0  0  0
    3.8230    0.9604    1.5505 O   0  0  0  0  0  0  0  0  0  0  0  0
    1.7091    1.5716    1.9557 N   0  0  0  0  0  0  0  0  0  0  0  0
    0.3446    1.5358    1.8367 C   0  0  0  0  0  0  0  0  0  0  0  0
   -0.4770    2.5787    2.8713 S   0  0  0  0  0  0  0  0  0  0  0  0
   -2.2530    0.5864   -0.4872 C   0  0  0  0  0  0  0  0  0  0  0  0
   -3.6294    0.3496   -0.6036 C   0  0  0  0  0  0  0  0  0  0  0  0
   -8.4647   -0.4581   -1.3526 H   0  0  0  0  0  0  0  0  0  0  0  0
   -7.9586   -1.5538   -0.0439 H   0  0  0  0  0  0  0  0  0  0  0  0
   -8.3043    0.1329    0.3195 H   0  0  0  0  0  0  0  0  0  0  0  0
   -6.0110   -0.8794   -1.4355 H   0  0  0  0  0  0  0  0  0  0  0  0
   -6.3639    0.8462   -1.0743 H   0  0  0  0  0  0  0  0  0  0  0  0
   -4.2972   -0.4723    2.6153 H   0  0  0  0  0  0  0  0  0  0  0  0
   -1.8884   -0.0944    2.8285 H   0  0  0  0  0  0  0  0  0  0  0  0
    2.3595   -0.9196   -1.7257 H   0  0  0  0  0  0  0  0  0  0  0  0
    4.9186    1.7879   -0.6354 H   0  0  0  0  0  0  0  0  0  0  0  0
    7.3746    0.8801   -1.3340 H   0  0  0  0  0  0  0  0  0  0  0  0
    6.8084   -2.4766   -3.1422 H   0  0  0  0  0  0  0  0  0  0  0  0
    7.3163   -2.8098   -1.4720 H   0  0  0  0  0  0  0  0  0  0  0  0
    8.1838   -1.6053   -2.4436 H   0  0  0  0  0  0  0  0  0  0  0  0
    2.0821    2.1241    2.7187 H   0  0  0  0  0  0  0  0  0  0  0  0
   -1.7044    0.8804   -1.3795 H   0  0  0  0  0  0  0  0  0  0  0  0
   -4.0831    0.4649   -1.5822 H   0  0  0  0  0  0  0  0  0  0  0  0
  1  2  1  0
  2  3  1  0
  3  4  1  0
  4  5  2  0
  5  6  1  0
  6  7  2  0
  7  8  1  0
  8  9  1  0
  9 10  2  0
  9 11  1  0
 11 12  2  3
 12 13  1  0
 13 14  2  0
 14 15  1  0
 15 16  2  0
 16 17  1  0
 16 18  1  0
 11 19  1  0
 19 20  2  0
 19 21  1  0
 21 22  1  0
 22 23  2  0
  7 24  1  0
 24 25  2  0
 25  4  1  0
 22  8  1  0
 18 13  1  0
  1 26  1  0
  1 27  1  0
  1 28  1  0
  2 29  1  0
  2 30  1  0
  5 31  1  0
  6 32  1  0
 12 33  1  0
 14 34  1  0
 15 35  1  0
 17 36  1  0
 17 37  1  0
 17 38  1  0
 21 39  1  0
 24 40  1  0
 25 41  1  0
M  END
$$$$
