
     RDKit          3D

 50 53  0  0  0  0  0  0  0  0999 V2000
   -7.3838    2.5980    0.4261 C   0  0  0  0  0  0  0  0  0  0  0  0
   -6.0825    1.8507    0.4658 C   0  0  0  0  0  0  0  0  0  0  0  0
   -4.9554    2.4171    1.0678 C   0  0  0  0  0  0  0  0  0  0  0  0
   -3.7358    1.7333    1.0769 C   0  0  0  0  0  0  0  0  0  0  0  0
   -3.6268    0.4773    0.4690 C   0  0  0  0  0  0  0  0  0  0  0  0
   -2.2532   -0.2850    0.4873 C   0  0  0  0  0  0  0  0  0  0  0  0
   -1.0900    0.1259    1.1283 C   0  0  0  0  0  0  0  0  0  0  0  0
   -0.1018   -0.8394    0.9397 N   0  0  0  0  0  4  0  0  0  0  0  0
    1.2965   -0.7747    1.3854 C   0  0  0  0  0  0  0  0  0  0  0  0
    2.2460   -0.4604    0.2182 C   0  0  0  0  0  0  0  0  0  0  0  0
    1.8877   -0.6565   -0.9409 O   0  0  0  0  0  0  0  0  0  0  0  0
    3.4810    0.0125    0.6363 N   0  0  0  0  0  0  0  0  0  0  0  0
    4.5791    0.4015   -0.1736 C   0  0  0  0  0  0  0  0  0  0  0  0
    4.5272    0.3829   -1.5729 C   0  0  0  0  0  0  0  0  0  0  0  0
    5.6273    0.7761   -2.3403 C   0  0  0  0  0  0  0  0  0  0  0  0
    6.7967    1.1948   -1.7204 C   0  0  0  0  0  0  0  0  0  0  0  0
    6.8677    1.2216   -0.3305 C   0  0  0  0  0  0  0  0  0  0  0  0
    5.7700    0.8291    0.4577 C   0  0  0  0  0  0  0  0  0  0  0  0
    5.9256    0.8857    1.9547 C   0  0  0  0  0  0  0  0  0  0  0  0
   -0.6216   -1.7946    0.1736 C   0  0  0  0  0  0  0  0  0  0  0  0
   -1.8865   -1.4838   -0.0967 N   0  0  0  0  0  0  0  0  0  0  0  0
   -2.5140   -2.4705   -0.9643 C   0  0  0  0  0  0  0  0  0  0  0  0
   -1.3234   -3.3426   -1.4481 C   0  0  0  0  0  0  0  0  0  0  0  0
   -0.1957   -3.0784   -0.4318 C   0  0  0  0  0  0  0  0  0  0  0  0
   -4.7471   -0.0864   -0.1419 C   0  0  0  0  0  0  0  0  0  0  0  0
   -5.9657    0.6000   -0.1481 C   0  0  0  0  0  0  0  0  0  0  0  0
   -8.2311    1.9055    0.4680 H   0  0  0  0  0  0  0  0  0  0  0  0
   -7.4498    3.1851   -0.4951 H   0  0  0  0  0  0  0  0  0  0  0  0
   -7.4741    3.2737    1.2832 H   0  0  0  0  0  0  0  0  0  0  0  0
   -5.0225    3.3987    1.5346 H   0  0  0  0  0  0  0  0  0  0  0  0
   -2.8920    2.2176    1.5586 H   0  0  0  0  0  0  0  0  0  0  0  0
   -0.8404    0.9959    1.7114 H   0  0  0  0  0  0  0  0  0  0  0  0
    1.5688   -1.7449    1.8132 H   0  0  0  0  0  0  0  0  0  0  0  0
    1.3848   -0.0044    2.1584 H   0  0  0  0  0  0  0  0  0  0  0  0
    3.6419    0.0882    1.6323 H   0  0  0  0  0  0  0  0  0  0  0  0
    3.6417    0.0707   -2.1157 H   0  0  0  0  0  0  0  0  0  0  0  0
    5.5662    0.7545   -3.4259 H   0  0  0  0  0  0  0  0  0  0  0  0
    7.6525    1.5007   -2.3174 H   0  0  0  0  0  0  0  0  0  0  0  0
    7.7939    1.5534    0.1363 H   0  0  0  0  0  0  0  0  0  0  0  0
    5.7873   -0.1099    2.3886 H   0  0  0  0  0  0  0  0  0  0  0  0
    6.9222    1.2334    2.2470 H   0  0  0  0  0  0  0  0  0  0  0  0
    5.1974    1.5805    2.3856 H   0  0  0  0  0  0  0  0  0  0  0  0
   -3.2205   -3.0602   -0.3731 H   0  0  0  0  0  0  0  0  0  0  0  0
   -3.0152   -1.9899   -1.8076 H   0  0  0  0  0  0  0  0  0  0  0  0
   -1.5806   -4.4016   -1.5349 H   0  0  0  0  0  0  0  0  0  0  0  0
   -1.0045   -2.9907   -2.4364 H   0  0  0  0  0  0  0  0  0  0  0  0
   -0.1836   -3.8117    0.3777 H   0  0  0  0  0  0  0  0  0  0  0  0
    0.7846   -2.9694   -0.8930 H   0  0  0  0  0  0  0  0  0  0  0  0
   -4.7181   -1.0596   -0.6140 H   0  0  0  0  0  0  0  0  0  0  0  0
   -6.8303    0.1502   -0.6341 H   0  0  0  0  0  0  0  0  0  0  0  0
  1  2  1  0
  2  3  2  0
  3  4  1  0
  4  5  2  0
  5  6  1  0
  6  7  2  0
  7  8  1  0
  8  9  1  0
  9 10  1  0
 10 11  2  0
 10 12  1  0
 12 13  1  0
 13 14  2  0
 14 15  1  0
 15 16  2  0
 16 17  1  0
 17 18  2  0
 18 19  1  0
  8 20  2  0
 20 21  1  0
 21 22  1  0
 22 23  1  0
 23 24  1  0
  5 25  1  0
 25 26  2  0
 26  2  1  0
 21  6  1  0
 18 13  1  0
 24 20  1  0
  1 27  1  0
  1 28  1  0
  1 29  1  0
  3 30  1  0
  4 31  1  0
  7 32  1  0
  9 33  1  0
  9 34  1  0
 12 35  1  0
 14 36  1  0
 15 37  1  0
 16 38  1  0
 17 39  1  0
 19 40  1  0
 19 41  1  0
 19 42  1  0
 22 43  1  0
 22 44  1  0
 23 45  1  0
 23 46  1  0
 24 47  1  0
 24 48  1  0
 25 49  1  0
 26 50  1  0
M  CHG  1   8   1
M  END
$$$$
