
     RDKit          3D

 48 53  0  0  0  0  0  0  0  0999 V2000
    2.9292   -1.2872   -1.0386 O   0  0  0  0  0  0  0  0  0  0  0  0
    3.2635   -0.4959   -0.1631 C   0  0  0  0  0  0  0  0  0  0  0  0
    2.4434    0.4408    0.4251 N   0  0  0  0  0  0  0  0  0  0  0  0
    1.1153    0.3455    0.1805 N   0  0  0  0  0  0  0  0  0  0  0  0
    0.2449   -0.3001    1.0341 C   0  0  0  0  0  0  0  0  0  0  0  0
    0.6729   -0.9153    2.1336 O   0  0  0  0  0  0  0  0  0  0  0  0
   -1.0049   -0.1358    0.4845 C   0  0  0  0  0  0  0  0  0  0  0  0
   -0.8624    0.6896   -0.7037 C   0  0  0  0  0  0  0  0  0  0  0  0
    0.4686    1.0114   -0.8392 C   0  0  0  0  0  0  0  0  0  0  0  0
    1.1233    1.7748   -1.7101 O   0  0  0  0  0  0  0  0  0  0  0  0
   -2.1508    1.0054   -1.4316 C   0  0  0  0  0  0  0  0  0  0  0  0
   -2.9796    1.6321   -0.2973 C   0  0  0  0  0  0  0  0  0  0  0  0
   -3.5751    2.8865   -0.3574 C   0  0  0  0  0  0  0  0  0  0  0  0
   -4.3074    3.3355    0.7438 C   0  0  0  0  0  0  0  0  0  0  0  0
   -4.4455    2.5408    1.8919 C   0  0  0  0  0  0  0  0  0  0  0  0
   -3.8543    1.2773    1.9681 C   0  0  0  0  0  0  0  0  0  0  0  0
   -3.1210    0.8165    0.8809 C   0  0  0  0  0  0  0  0  0  0  0  0
   -2.4214   -0.5520    0.8173 C   0  0  0  0  0  0  0  0  0  0  0  0
   -2.8461   -1.2235   -0.4983 C   0  0  0  0  0  0  0  0  0  0  0  0
   -3.3415   -2.5184   -0.5970 C   0  0  0  0  0  0  0  0  0  0  0  0
   -3.6940   -3.0076   -1.8568 C   0  0  0  0  0  0  0  0  0  0  0  0
   -3.5550   -2.2130   -3.0055 C   0  0  0  0  0  0  0  0  0  0  0  0
   -3.0604   -0.9094   -2.9228 C   0  0  0  0  0  0  0  0  0  0  0  0
   -2.7040   -0.4081   -1.6763 C   0  0  0  0  0  0  0  0  0  0  0  0
    4.6593   -0.5400    0.3600 C   0  0  0  0  0  0  0  0  0  0  0  0
    5.2760    0.5842    0.9280 C   0  0  0  0  0  0  0  0  0  0  0  0
    6.5900    0.4973    1.3997 C   0  0  0  0  0  0  0  0  0  0  0  0
    7.2888   -0.7056    1.2958 C   0  0  0  0  0  0  0  0  0  0  0  0
    8.9049   -0.8060    1.8761 Cl  0  0  0  0  0  0  0  0  0  0  0  0
    6.6896   -1.8233    0.7188 C   0  0  0  0  0  0  0  0  0  0  0  0
    5.3767   -1.7394    0.2474 C   0  0  0  0  0  0  0  0  0  0  0  0
    2.6401    0.7631    1.3603 H   0  0  0  0  0  0  0  0  0  0  0  0
   -0.0912   -1.3763    2.5205 H   0  0  0  0  0  0  0  0  0  0  0  0
    0.4921    2.0397   -2.3989 H   0  0  0  0  0  0  0  0  0  0  0  0
   -2.0377    1.6236   -2.3232 H   0  0  0  0  0  0  0  0  0  0  0  0
   -3.4787    3.5107   -1.2395 H   0  0  0  0  0  0  0  0  0  0  0  0
   -4.7797    4.3148    0.7125 H   0  0  0  0  0  0  0  0  0  0  0  0
   -5.0227    2.9160    2.7341 H   0  0  0  0  0  0  0  0  0  0  0  0
   -3.9715    0.6734    2.8629 H   0  0  0  0  0  0  0  0  0  0  0  0
   -2.5230   -1.1698    1.7106 H   0  0  0  0  0  0  0  0  0  0  0  0
   -3.4531   -3.1454    0.2818 H   0  0  0  0  0  0  0  0  0  0  0  0
   -4.0797   -4.0199   -1.9517 H   0  0  0  0  0  0  0  0  0  0  0  0
   -3.8345   -2.6211   -3.9740 H   0  0  0  0  0  0  0  0  0  0  0  0
   -2.9565   -0.3078   -3.8203 H   0  0  0  0  0  0  0  0  0  0  0  0
    4.7604    1.5390    0.9833 H   0  0  0  0  0  0  0  0  0  0  0  0
    7.0654    1.3723    1.8361 H   0  0  0  0  0  0  0  0  0  0  0  0
    7.2350   -2.7585    0.6274 H   0  0  0  0  0  0  0  0  0  0  0  0
    4.9122   -2.6112   -0.2101 H   0  0  0  0  0  0  0  0  0  0  0  0
  1  2  2  0
  2  3  1  0
  3  4  1  0
  4  5  1  0
  5  6  1  0
  5  7  2  0
  7  8  1  0
  8  9  2  0
  9 10  1  0
  8 11  1  0
 11 12  1  0
 12 13  2  0
 13 14  1  0
 14 15  2  0
 15 16  1  0
 16 17  2  0
 17 18  1  0
 18 19  1  0
 19 20  2  0
 20 21  1  0
 21 22  2  0
 22 23  1  0
 23 24  2  0
  2 25  1  0
 25 26  2  0
 26 27  1  0
 27 28  2  0
 28 29  1  0
 28 30  1  0
 30 31  2  0
  9  4  1  0
 24 11  1  0
 31 25  1  0
 18  7  1  0
 24 19  1  0
 17 12  1  0
  3 32  1  0
  6 33  1  0
 10 34  1  0
 11 35  1  0
 13 36  1  0
 14 37  1  0
 15 38  1  0
 16 39  1  0
 18 40  1  0
 20 41  1  0
 21 42  1  0
 22 43  1  0
 23 44  1  0
 26 45  1  0
 27 46  1  0
 30 47  1  0
 31 48  1  0
M  END
$$$$
