
     RDKit          3D

 49 52  0  0  0  0  0  0  0  0999 V2000
   -2.1531    4.1317    0.0327 C   0  0  0  0  0  0  0  0  0  0  0  0
   -3.2832    3.1614   -0.2647 C   0  0  0  0  0  0  0  0  0  0  0  0
   -2.8491    2.1437   -1.1663 O   0  0  0  0  0  0  0  0  0  0  0  0
   -2.3234    0.9910   -0.6570 C   0  0  0  0  0  0  0  0  0  0  0  0
   -1.9972    0.7479    0.6761 C   0  0  0  0  0  0  0  0  0  0  0  0
   -1.4381   -0.4787    1.0530 C   0  0  0  0  0  0  0  0  0  0  0  0
   -1.1999   -1.4736    0.0986 C   0  0  0  0  0  0  0  0  0  0  0  0
   -0.5250   -2.7076    0.4799 C   0  0  0  0  0  0  0  0  0  0  0  0
    0.8078   -2.9391    0.8182 C   0  0  0  0  0  0  0  0  0  0  0  0
    1.9540   -2.0233    0.8903 C   0  0  0  0  0  0  0  0  0  0  0  0
    2.9579   -2.3148    1.5369 O   0  0  0  0  0  0  0  0  0  0  0  0
    1.8165   -0.8365    0.1771 N   0  0  0  0  0  0  0  0  0  0  0  0
    2.7935    0.1169    0.2186 N   0  0  0  0  0  0  0  0  0  0  0  0
    2.5430    1.1934   -0.4569 C   0  0  0  0  0  0  0  0  0  0  0  0
    3.4952    2.3194   -0.5102 C   0  0  0  0  0  0  0  0  0  0  0  0
    4.7189    2.2556    0.1625 C   0  0  0  0  0  0  0  0  0  0  0  0
    5.6017    3.3342    0.0973 C   0  0  0  0  0  0  0  0  0  0  0  0
    5.2622    4.4712   -0.6370 C   0  0  0  0  0  0  0  0  0  0  0  0
    4.0400    4.5337   -1.3079 C   0  0  0  0  0  0  0  0  0  0  0  0
    3.1526    3.4576   -1.2464 C   0  0  0  0  0  0  0  0  0  0  0  0
    0.9569   -4.2640    1.1401 N   0  0  0  0  0  0  0  0  0  0  0  0
   -0.2078   -4.8687    1.0032 N   0  0  0  0  0  0  0  0  0  0  0  0
   -1.1462   -3.9529    0.6401 N   0  0  0  0  0  0  0  0  0  0  0  0
   -2.5110   -4.3143    0.5028 C   0  0  0  0  0  0  0  0  0  0  0  0
   -3.4450   -3.4050    0.2220 N   0  0  0  0  0  0  0  0  0  0  0  0
   -4.6323   -4.1342    0.1939 O   0  0  0  0  0  0  0  0  0  0  0  0
   -4.4048   -5.4796    0.4616 N   0  0  0  0  0  0  0  0  0  0  0  0
   -3.0899   -5.5896    0.6465 C   0  0  0  0  0  0  0  0  0  0  0  0
   -2.4549   -6.7451    0.9197 N   0  0  0  0  0  0  0  0  0  0  0  0
   -1.5278   -1.2306   -1.2385 C   0  0  0  0  0  0  0  0  0  0  0  0
   -2.0856   -0.0047   -1.6084 C   0  0  0  0  0  0  0  0  0  0  0  0
   -1.3185    3.6335    0.5348 H   0  0  0  0  0  0  0  0  0  0  0  0
   -1.7563    4.5534   -0.8969 H   0  0  0  0  0  0  0  0  0  0  0  0
   -2.5036    4.9501    0.6680 H   0  0  0  0  0  0  0  0  0  0  0  0
   -4.0824    3.7086   -0.7777 H   0  0  0  0  0  0  0  0  0  0  0  0
   -3.7357    2.7534    0.6458 H   0  0  0  0  0  0  0  0  0  0  0  0
   -2.1506    1.4924    1.4504 H   0  0  0  0  0  0  0  0  0  0  0  0
   -1.1799   -0.6394    2.0987 H   0  0  0  0  0  0  0  0  0  0  0  0
    1.0036   -0.6649   -0.3984 H   0  0  0  0  0  0  0  0  0  0  0  0
    1.6002    1.3183   -1.0204 H   0  0  0  0  0  0  0  0  0  0  0  0
    4.9894    1.3714    0.7363 H   0  0  0  0  0  0  0  0  0  0  0  0
    6.5543    3.2860    0.6194 H   0  0  0  0  0  0  0  0  0  0  0  0
    5.9529    5.3098   -0.6862 H   0  0  0  0  0  0  0  0  0  0  0  0
    3.7808    5.4219   -1.8790 H   0  0  0  0  0  0  0  0  0  0  0  0
    2.2044    3.5194   -1.7732 H   0  0  0  0  0  0  0  0  0  0  0  0
   -3.0000   -7.5517    1.2061 H   0  0  0  0  0  0  0  0  0  0  0  0
   -1.4902   -6.7515    1.2496 H   0  0  0  0  0  0  0  0  0  0  0  0
   -1.3524   -1.9829   -2.0049 H   0  0  0  0  0  0  0  0  0  0  0  0
   -2.3418    0.1770   -2.6502 H   0  0  0  0  0  0  0  0  0  0  0  0
  1  2  1  0
  2  3  1  0
  3  4  1  0
  4  5  2  0
  5  6  1  0
  6  7  2  0
  7  8  1  0
  8  9  2  0
  9 10  1  0
 10 11  2  0
 10 12  1  0
 12 13  1  0
 13 14  2  3
 14 15  1  0
 15 16  2  0
 16 17  1  0
 17 18  2  0
 18 19  1  0
 19 20  2  0
  9 21  1  0
 21 22  2  0
 22 23  1  0
 23 24  1  0
 24 25  2  0
 25 26  1  0
 26 27  1  0
 27 28  2  0
 28 29  1  0
  7 30  1  0
 30 31  2  0
 31  4  1  0
 23  8  1  0
 28 24  1  0
 20 15  1  0
  1 32  1  0
  1 33  1  0
  1 34  1  0
  2 35  1  0
  2 36  1  0
  5 37  1  0
  6 38  1  0
 12 39  1  0
 14 40  1  0
 16 41  1  0
 17 42  1  0
 18 43  1  0
 19 44  1  0
 20 45  1  0
 29 46  1  0
 29 47  1  0
 30 48  1  0
 31 49  1  0
M  END
$$$$
