
     RDKit          3D

 48 50  0  0  0  0  0  0  0  0999 V2000
   -3.5558    0.8135   -4.2210 C   0  0  0  0  0  0  0  0  0  0  0  0
   -3.8823    1.2377   -2.8011 C   0  0  0  0  0  0  0  0  0  0  0  0
   -3.0721    0.5084   -1.8678 O   0  0  0  0  0  0  0  0  0  0  0  0
   -1.8414    1.0284   -1.6089 C   0  0  0  0  0  0  0  0  0  0  0  0
   -1.4072    2.0495   -2.1318 O   0  0  0  0  0  0  0  0  0  0  0  0
   -1.0498    0.2228   -0.6692 C   0  0  0  0  0  0  0  0  0  0  0  0
    0.3279    0.4004   -0.5523 C   0  0  0  0  0  0  0  0  0  0  0  0
    1.0870    1.3371   -1.2447 N   0  0  0  0  0  0  0  0  0  0  0  0
    2.4274    1.6274   -1.2969 C   0  0  0  0  0  0  0  0  0  0  0  0
    2.8372    2.8265   -2.3951 S   0  0  0  0  0  0  0  0  0  0  0  0
    3.2545    0.9557   -0.4426 N   0  0  0  0  0  0  0  0  0  0  0  0
    4.6593    0.8513   -0.3408 C   0  0  0  0  0  0  0  0  0  0  0  0
    5.5631    1.1730   -1.3527 C   0  0  0  0  0  0  0  0  0  0  0  0
    6.9401    1.0253   -1.1531 C   0  0  0  0  0  0  0  0  0  0  0  0
    7.4288    0.5344    0.0525 C   0  0  0  0  0  0  0  0  0  0  0  0
    6.5388    0.1758    1.0572 C   0  0  0  0  0  0  0  0  0  0  0  0
    5.1632    0.3291    0.8593 C   0  0  0  0  0  0  0  0  0  0  0  0
    1.0272   -0.6973    0.5302 S   0  0  0  0  0  0  0  0  0  0  0  0
   -0.4654   -1.4121    0.9115 C   0  0  0  0  0  0  0  0  0  0  0  0
   -1.5135   -0.8149    0.2388 C   0  0  0  0  0  0  0  0  0  0  0  0
   -2.9250   -1.2575    0.5023 C   0  0  0  0  0  0  0  0  0  0  0  0
   -3.2006   -1.5045    2.0050 C   0  0  0  0  0  0  0  0  0  0  0  0
   -3.0597   -0.2088    2.8280 C   0  0  0  0  0  0  0  0  0  0  0  0
   -4.6413   -2.0275    2.1572 C   0  0  0  0  0  0  0  0  0  0  0  0
   -2.0953   -2.7914    2.7524 S   0  0  0  0  0  0  0  0  0  0  0  0
   -0.5219   -2.5690    1.8549 C   0  0  0  0  0  0  0  0  0  0  0  0
   -4.2160    1.3108   -4.9367 H   0  0  0  0  0  0  0  0  0  0  0  0
   -3.6633   -0.2692   -4.3328 H   0  0  0  0  0  0  0  0  0  0  0  0
   -2.5194    1.0578   -4.4742 H   0  0  0  0  0  0  0  0  0  0  0  0
   -4.9276    0.9930   -2.5762 H   0  0  0  0  0  0  0  0  0  0  0  0
   -3.7696    2.3198   -2.6685 H   0  0  0  0  0  0  0  0  0  0  0  0
    0.5449    1.9306   -1.8774 H   0  0  0  0  0  0  0  0  0  0  0  0
    2.7545    0.5345    0.3265 H   0  0  0  0  0  0  0  0  0  0  0  0
    5.2375    1.5196   -2.3239 H   0  0  0  0  0  0  0  0  0  0  0  0
    7.6282    1.2867   -1.9525 H   0  0  0  0  0  0  0  0  0  0  0  0
    8.4985    0.4203    0.2028 H   0  0  0  0  0  0  0  0  0  0  0  0
    6.9108   -0.2221    1.9983 H   0  0  0  0  0  0  0  0  0  0  0  0
    4.4895    0.0453    1.6669 H   0  0  0  0  0  0  0  0  0  0  0  0
   -3.1168   -2.1679   -0.0811 H   0  0  0  0  0  0  0  0  0  0  0  0
   -3.6389   -0.5036    0.1544 H   0  0  0  0  0  0  0  0  0  0  0  0
   -3.7033    0.5806    2.4168 H   0  0  0  0  0  0  0  0  0  0  0  0
   -2.0329    0.1773    2.8365 H   0  0  0  0  0  0  0  0  0  0  0  0
   -3.3625   -0.3575    3.8723 H   0  0  0  0  0  0  0  0  0  0  0  0
   -5.3639   -1.3067    1.7517 H   0  0  0  0  0  0  0  0  0  0  0  0
   -4.7895   -2.9722    1.6178 H   0  0  0  0  0  0  0  0  0  0  0  0
   -4.9094   -2.1910    3.2084 H   0  0  0  0  0  0  0  0  0  0  0  0
   -0.3496   -3.4914    1.2826 H   0  0  0  0  0  0  0  0  0  0  0  0
    0.2752   -2.5080    2.6096 H   0  0  0  0  0  0  0  0  0  0  0  0
  1  2  1  0
  2  3  1  0
  3  4  1  0
  4  5  2  0
  4  6  1  0
  6  7  2  0
  7  8  1  0
  8  9  1  0
  9 10  2  0
  9 11  1  0
 11 12  1  0
 12 13  2  0
 13 14  1  0
 14 15  2  0
 15 16  1  0
 16 17  2  0
  7 18  1  0
 18 19  1  0
 19 20  2  0
 20 21  1  0
 21 22  1  0
 22 23  1  0
 22 24  1  0
 22 25  1  0
 25 26  1  0
 20  6  1  0
 17 12  1  0
 26 19  1  0
  1 27  1  0
  1 28  1  0
  1 29  1  0
  2 30  1  0
  2 31  1  0
  8 32  1  0
 11 33  1  0
 13 34  1  0
 14 35  1  0
 15 36  1  0
 16 37  1  0
 17 38  1  0
 21 39  1  0
 21 40  1  0
 23 41  1  0
 23 42  1  0
 23 43  1  0
 24 44  1  0
 24 45  1  0
 24 46  1  0
 26 47  1  0
 26 48  1  0
M  END
$$$$
