
     RDKit          3D

 35 36  0  0  0  0  0  0  0  0999 V2000
   -5.1582    1.8716    0.4409 N   0  0  0  0  0  0  0  0  0  0  0  0
   -4.2744    1.0685   -0.2254 C   0  0  0  0  0  0  0  0  0  0  0  0
   -4.3536   -0.3974   -0.0621 C   0  0  0  0  0  0  0  0  0  0  0  0
   -3.4717   -1.1075   -0.7630 C   0  0  0  0  0  0  0  0  0  0  0  0
   -2.5522   -0.4849   -1.5732 N   0  0  0  0  0  0  0  0  0  0  0  0
   -1.5744   -1.2781   -2.3105 C   0  0  0  0  0  0  0  0  0  0  0  0
   -0.2925   -1.4005   -1.4901 C   0  0  0  0  0  0  0  0  0  0  0  0
   -0.0761   -2.3577   -0.7498 O   0  0  0  0  0  0  0  0  0  0  0  0
    0.5590   -0.3207   -1.6065 N   0  0  0  0  0  0  0  0  0  0  0  0
    1.7533   -0.2039   -0.7908 C   0  0  0  0  0  0  0  0  0  0  0  0
    1.4373    0.2306    0.6388 C   0  0  0  0  0  0  0  0  0  0  0  0
    2.6883    0.2730    1.4744 C   0  0  0  0  0  0  0  0  0  0  0  0
    3.0947   -0.8488    2.1935 C   0  0  0  0  0  0  0  0  0  0  0  0
    4.2691   -0.7805    2.9373 C   0  0  0  0  0  0  0  0  0  0  0  0
    5.0052    0.3977    2.9406 C   0  0  0  0  0  0  0  0  0  0  0  0
    4.5343    1.4636    2.1933 C   0  0  0  0  0  0  0  0  0  0  0  0
    3.3997    1.4261    1.4605 N   0  0  0  0  0  0  0  0  0  0  0  0
   -2.4724    0.9066   -1.6589 C   0  0  0  0  0  0  0  0  0  0  0  0
   -1.5785    1.4400   -2.3169 O   0  0  0  0  0  0  0  0  0  0  0  0
   -3.3935    1.6574   -0.9722 N   0  0  0  0  0  0  0  0  0  0  0  0
   -5.4520    1.5636    1.3595 H   0  0  0  0  0  0  0  0  0  0  0  0
   -4.8662    2.8449    0.4274 H   0  0  0  0  0  0  0  0  0  0  0  0
   -5.1003   -0.8372    0.5820 H   0  0  0  0  0  0  0  0  0  0  0  0
   -3.4486   -2.1923   -0.7135 H   0  0  0  0  0  0  0  0  0  0  0  0
   -1.9674   -2.2795   -2.5194 H   0  0  0  0  0  0  0  0  0  0  0  0
   -1.3503   -0.8078   -3.2749 H   0  0  0  0  0  0  0  0  0  0  0  0
    0.1761    0.5336   -2.0167 H   0  0  0  0  0  0  0  0  0  0  0  0
    2.4091    0.5229   -1.2828 H   0  0  0  0  0  0  0  0  0  0  0  0
    2.2662   -1.1731   -0.7956 H   0  0  0  0  0  0  0  0  0  0  0  0
    0.9723    1.2246    0.6304 H   0  0  0  0  0  0  0  0  0  0  0  0
    0.7037   -0.4396    1.1032 H   0  0  0  0  0  0  0  0  0  0  0  0
    2.5098   -1.7635    2.1743 H   0  0  0  0  0  0  0  0  0  0  0  0
    4.6067   -1.6411    3.5074 H   0  0  0  0  0  0  0  0  0  0  0  0
    5.9238    0.4834    3.5094 H   0  0  0  0  0  0  0  0  0  0  0  0
    5.0737    2.4058    2.1611 H   0  0  0  0  0  0  0  0  0  0  0  0
  1  2  1  0
  2  3  1  0
  3  4  2  0
  4  5  1  0
  5  6  1  0
  6  7  1  0
  7  8  2  0
  7  9  1  0
  9 10  1  0
 10 11  1  0
 11 12  1  0
 12 13  2  0
 13 14  1  0
 14 15  2  0
 15 16  1  0
 16 17  2  0
  5 18  1  0
 18 19  2  0
 18 20  1  0
 20  2  2  0
 17 12  1  0
  1 21  1  0
  1 22  1  0
  3 23  1  0
  4 24  1  0
  6 25  1  0
  6 26  1  0
  9 27  1  0
 10 28  1  0
 10 29  1  0
 11 30  1  0
 11 31  1  0
 13 32  1  0
 14 33  1  0
 15 34  1  0
 16 35  1  0
M  END
$$$$
