
     RDKit          3D

 51 55  0  0  0  0  0  0  0  0999 V2000
    1.6269    2.0141    1.1276 C   0  0  0  0  0  0  0  0  0  0  0  0
    1.4331    0.5269    0.8729 C   0  0  0  0  0  0  0  0  0  0  0  0
    2.1097    0.0981   -0.3425 N   0  0  0  0  0  0  0  0  0  0  0  0
    1.6012    0.0674   -1.6472 C   0  0  0  0  0  0  0  0  0  0  0  0
    0.3528    0.2225   -2.1309 C   0  0  0  0  0  0  0  0  0  0  0  0
   -0.8818    0.4805   -1.3933 C   0  0  0  0  0  0  0  0  0  0  0  0
   -1.2557    1.8099   -1.2047 C   0  0  0  0  0  0  0  0  0  0  0  0
   -2.4261    2.1108   -0.5357 C   0  0  0  0  0  0  0  0  0  0  0  0
   -3.2350    1.0786   -0.0765 C   0  0  0  0  0  0  0  0  0  0  0  0
   -4.4305    1.3844    0.5928 C   0  0  0  0  0  0  0  0  0  0  0  0
   -5.2737    0.3741    1.0621 C   0  0  0  0  0  0  0  0  0  0  0  0
   -6.5668    0.7166    1.7457 C   0  0  0  0  0  0  0  0  0  0  0  0
   -4.9265   -0.9547    0.8286 C   0  0  0  0  0  0  0  0  0  0  0  0
   -3.7361   -1.2741    0.1641 C   0  0  0  0  0  0  0  0  0  0  0  0
   -2.8558   -0.2749   -0.2941 C   0  0  0  0  0  0  0  0  0  0  0  0
   -1.6699   -0.5429   -0.9424 N   0  0  0  0  0  4  0  0  0  0  0  0
   -1.2225   -1.9558   -1.1492 C   0  0  0  0  0  0  0  0  0  0  0  0
   -1.8013   -2.4952   -2.4435 C   0  0  0  0  0  0  0  0  0  0  0  0
    2.8179   -0.3055   -2.8936 S   0  0  0  0  0  0  0  0  0  0  0  0
    4.0571   -0.4056   -1.6129 C   0  0  0  0  0  0  0  0  0  0  0  0
    5.3812   -0.6921   -1.8808 C   0  0  0  0  0  0  0  0  0  0  0  0
    6.2764   -0.7384   -0.8247 C   0  0  0  0  0  0  0  0  0  0  0  0
    5.8162   -0.4832    0.4848 C   0  0  0  0  0  0  0  0  0  0  0  0
    6.8191   -0.5016    1.8892 S   0  0  0  0  0  0  0  0  0  0  0  0
    5.5249   -0.1021    2.9054 C   0  0  0  0  0  0  0  0  0  0  0  0
    4.3497    0.0391    2.2052 C   0  0  0  0  0  0  0  0  0  0  0  0
    4.4726   -0.1834    0.7816 C   0  0  0  0  0  0  0  0  0  0  0  0
    3.5388   -0.1498   -0.3061 C   0  0  0  0  0  0  0  0  0  0  0  0
    1.2492    2.6116    0.2923 H   0  0  0  0  0  0  0  0  0  0  0  0
    1.0876    2.3154    2.0311 H   0  0  0  0  0  0  0  0  0  0  0  0
    2.6811    2.2734    1.2611 H   0  0  0  0  0  0  0  0  0  0  0  0
    1.7362   -0.0777    1.7295 H   0  0  0  0  0  0  0  0  0  0  0  0
    0.3616    0.3238    0.8108 H   0  0  0  0  0  0  0  0  0  0  0  0
    0.1833    0.1541   -3.2065 H   0  0  0  0  0  0  0  0  0  0  0  0
   -0.6301    2.6205   -1.5777 H   0  0  0  0  0  0  0  0  0  0  0  0
   -2.7034    3.1545   -0.3882 H   0  0  0  0  0  0  0  0  0  0  0  0
   -4.7196    2.4243    0.7530 H   0  0  0  0  0  0  0  0  0  0  0  0
   -6.8530   -0.0668    2.4554 H   0  0  0  0  0  0  0  0  0  0  0  0
   -7.3630    0.8303    1.0037 H   0  0  0  0  0  0  0  0  0  0  0  0
   -6.4730    1.6491    2.3121 H   0  0  0  0  0  0  0  0  0  0  0  0
   -5.5859   -1.7565    1.1623 H   0  0  0  0  0  0  0  0  0  0  0  0
   -3.5495   -2.3331    0.0159 H   0  0  0  0  0  0  0  0  0  0  0  0
   -0.1316   -2.0032   -1.1580 H   0  0  0  0  0  0  0  0  0  0  0  0
   -1.5166   -2.5540   -0.2829 H   0  0  0  0  0  0  0  0  0  0  0  0
   -1.4699   -1.9049   -3.3032 H   0  0  0  0  0  0  0  0  0  0  0  0
   -1.4807   -3.5299   -2.5983 H   0  0  0  0  0  0  0  0  0  0  0  0
   -2.8951   -2.4765   -2.4341 H   0  0  0  0  0  0  0  0  0  0  0  0
    5.7247   -0.8773   -2.8945 H   0  0  0  0  0  0  0  0  0  0  0  0
    7.3254   -0.9626   -1.0058 H   0  0  0  0  0  0  0  0  0  0  0  0
    5.6805    0.0158    3.9696 H   0  0  0  0  0  0  0  0  0  0  0  0
    3.4459    0.3061    2.7294 H   0  0  0  0  0  0  0  0  0  0  0  0
  1  2  1  0
  2  3  1  0
  3  4  1  0
  4  5  2  3
  5  6  1  0
  6  7  2  0
  7  8  1  0
  8  9  2  0
  9 10  1  0
 10 11  2  0
 11 12  1  0
 11 13  1  0
 13 14  2  0
 14 15  1  0
 15 16  2  0
 16 17  1  0
 17 18  1  0
  4 19  1  0
 19 20  1  0
 20 21  2  0
 21 22  1  0
 22 23  2  0
 23 24  1  0
 24 25  1  0
 25 26  2  0
 26 27  1  0
 27 28  2  0
 28  3  1  0
 16  6  1  0
 28 20  1  0
 15  9  1  0
 27 23  1  0
  1 29  1  0
  1 30  1  0
  1 31  1  0
  2 32  1  0
  2 33  1  0
  5 34  1  0
  7 35  1  0
  8 36  1  0
 10 37  1  0
 12 38  1  0
 12 39  1  0
 12 40  1  0
 13 41  1  0
 14 42  1  0
 17 43  1  0
 17 44  1  0
 18 45  1  0
 18 46  1  0
 18 47  1  0
 21 48  1  0
 22 49  1  0
 25 50  1  0
 26 51  1  0
M  CHG  1  16   1
M  END
$$$$
