
     RDKit          3D

 30 31  0  0  0  0  0  0  0  0999 V2000
    5.1163   -1.4000    3.7662 N   0  0  0  0  0  0  0  0  0  0  0  0
    4.1331   -1.0442    3.2642 C   0  0  0  0  0  0  0  0  0  0  0  0
    2.9052   -0.5868    2.6097 C   0  0  0  0  0  0  0  0  0  0  0  0
    3.0499   -0.6889    1.0993 C   0  0  0  0  0  0  0  0  0  0  0  0
    1.8792   -0.1761    0.4145 N   0  0  0  0  0  0  0  0  0  0  0  0
    1.8100    0.9322   -0.3670 C   0  0  0  0  0  0  0  0  0  0  0  0
    0.4994    1.0236   -0.7950 C   0  0  0  0  0  0  0  0  0  0  0  0
   -0.0600    2.0647   -1.6240 C   0  0  0  0  0  0  0  0  0  0  0  0
    0.7178    2.9807   -2.1058 N   0  0  0  0  0  0  0  0  0  0  0  0
   -0.0467    3.8721   -2.8703 O   0  0  0  0  0  0  0  0  0  0  0  0
   -0.1470   -0.1123   -0.2187 C   0  0  0  0  0  0  0  0  0  0  0  0
   -1.5365   -0.5423   -0.3570 C   0  0  0  0  0  0  0  0  0  0  0  0
   -2.1349   -0.6455   -1.6206 C   0  0  0  0  0  0  0  0  0  0  0  0
   -3.4660   -1.0574   -1.7399 C   0  0  0  0  0  0  0  0  0  0  0  0
   -4.1992   -1.3742   -0.5976 C   0  0  0  0  0  0  0  0  0  0  0  0
   -5.8364   -1.8804   -0.7468 Cl  0  0  0  0  0  0  0  0  0  0  0  0
   -3.6128   -1.2891    0.6632 C   0  0  0  0  0  0  0  0  0  0  0  0
   -2.2824   -0.8777    0.7823 C   0  0  0  0  0  0  0  0  0  0  0  0
    0.7071   -0.8144    0.5455 N   0  0  0  0  0  0  0  0  0  0  0  0
    2.0572   -1.1884    2.9575 H   0  0  0  0  0  0  0  0  0  0  0  0
    2.6957    0.4497    2.9005 H   0  0  0  0  0  0  0  0  0  0  0  0
    3.1818   -1.7290    0.7767 H   0  0  0  0  0  0  0  0  0  0  0  0
    3.9194   -0.1215    0.7456 H   0  0  0  0  0  0  0  0  0  0  0  0
    2.6662    1.5662   -0.5559 H   0  0  0  0  0  0  0  0  0  0  0  0
   -1.1446    2.0582   -1.8254 H   0  0  0  0  0  0  0  0  0  0  0  0
    0.6224    4.5133   -3.1767 H   0  0  0  0  0  0  0  0  0  0  0  0
   -1.5688   -0.4284   -2.5237 H   0  0  0  0  0  0  0  0  0  0  0  0
   -3.9200   -1.1370   -2.7242 H   0  0  0  0  0  0  0  0  0  0  0  0
   -4.1795   -1.5448    1.5544 H   0  0  0  0  0  0  0  0  0  0  0  0
   -1.8259   -0.8224    1.7689 H   0  0  0  0  0  0  0  0  0  0  0  0
  1  2  3  0
  2  3  1  0
  3  4  1  0
  4  5  1  0
  5  6  1  0
  6  7  2  0
  7  8  1  0
  8  9  2  3
  9 10  1  0
  7 11  1  0
 11 12  1  0
 12 13  2  0
 13 14  1  0
 14 15  2  0
 15 16  1  0
 15 17  1  0
 17 18  2  0
 11 19  2  0
 19  5  1  0
 18 12  1  0
  3 20  1  0
  3 21  1  0
  4 22  1  0
  4 23  1  0
  6 24  1  0
  8 25  1  0
 10 26  1  0
 13 27  1  0
 14 28  1  0
 17 29  1  0
 18 30  1  0
M  END
$$$$
