
     RDKit          3D

 46 48  0  0  0  0  0  0  0  0999 V2000
   -4.0322    1.7542    2.1285 C   0  0  0  0  0  0  0  0  0  0  0  0
   -5.2156    1.4191    1.3053 C   0  0  0  0  0  0  0  0  0  0  0  0
   -6.3980    1.9180    1.7692 O   0  0  0  0  0  0  0  0  0  0  0  0
   -7.3592    1.5761    0.8785 C   0  0  0  0  0  0  0  0  0  0  0  0
   -6.8144    0.8554   -0.1542 C   0  0  0  0  0  0  0  0  0  0  0  0
   -5.4189    0.7203    0.1229 C   0  0  0  0  0  0  0  0  0  0  0  0
   -4.4495    0.0260   -0.7125 C   0  0  0  0  0  0  0  0  0  0  0  0
   -4.6687   -0.2114   -1.8963 O   0  0  0  0  0  0  0  0  0  0  0  0
   -3.3020   -0.3867   -0.0770 N   0  0  0  0  0  0  0  0  0  0  0  0
   -2.3382   -1.2031   -0.7724 C   0  0  0  0  0  0  0  0  0  0  0  0
   -1.0873   -1.3557    0.0507 C   0  0  0  0  0  0  0  0  0  0  0  0
   -0.8666   -2.5139    0.8067 C   0  0  0  0  0  0  0  0  0  0  0  0
    0.2817   -2.6385    1.5882 C   0  0  0  0  0  0  0  0  0  0  0  0
    1.2156   -1.6037    1.6294 C   0  0  0  0  0  0  0  0  0  0  0  0
    1.0068   -0.4283    0.8960 C   0  0  0  0  0  0  0  0  0  0  0  0
    2.0311    0.6740    0.9227 C   0  0  0  0  0  0  0  0  0  0  0  0
    3.1222    0.3702    0.0305 N   0  0  0  0  0  0  0  0  0  0  0  0
    4.2508    1.1555    0.0206 C   0  0  0  0  0  0  0  0  0  0  0  0
    4.4110    2.0883    0.8016 O   0  0  0  0  0  0  0  0  0  0  0  0
    5.2279    0.8444   -1.0131 C   0  0  0  0  0  0  0  0  0  0  0  0
    6.2297    1.7349   -1.5091 C   0  0  0  0  0  0  0  0  0  0  0  0
    6.9346    1.0504   -2.4667 C   0  0  0  0  0  0  0  0  0  0  0  0
    6.4568   -0.2111   -2.5879 O   0  0  0  0  0  0  0  0  0  0  0  0
    5.4344   -0.3476   -1.6944 C   0  0  0  0  0  0  0  0  0  0  0  0
    4.8276   -1.6965   -1.6436 C   0  0  0  0  0  0  0  0  0  0  0  0
   -0.1457   -0.3158    0.1047 C   0  0  0  0  0  0  0  0  0  0  0  0
   -4.2333    2.6142    2.7755 H   0  0  0  0  0  0  0  0  0  0  0  0
   -3.1759    2.0094    1.4970 H   0  0  0  0  0  0  0  0  0  0  0  0
   -3.7588    0.9084    2.7664 H   0  0  0  0  0  0  0  0  0  0  0  0
   -8.3584    1.9174    1.1109 H   0  0  0  0  0  0  0  0  0  0  0  0
   -7.3447    0.4597   -1.0099 H   0  0  0  0  0  0  0  0  0  0  0  0
   -3.3058   -0.4314    0.9311 H   0  0  0  0  0  0  0  0  0  0  0  0
   -2.1059   -0.7499   -1.7436 H   0  0  0  0  0  0  0  0  0  0  0  0
   -2.7975   -2.1778   -0.9754 H   0  0  0  0  0  0  0  0  0  0  0  0
   -1.5870   -3.3293    0.7899 H   0  0  0  0  0  0  0  0  0  0  0  0
    0.4501   -3.5439    2.1664 H   0  0  0  0  0  0  0  0  0  0  0  0
    2.1109   -1.7166    2.2383 H   0  0  0  0  0  0  0  0  0  0  0  0
    1.5894    1.6283    0.6120 H   0  0  0  0  0  0  0  0  0  0  0  0
    2.4172    0.8161    1.9392 H   0  0  0  0  0  0  0  0  0  0  0  0
    2.9111   -0.1733   -0.7929 H   0  0  0  0  0  0  0  0  0  0  0  0
    6.3980    2.7569   -1.1969 H   0  0  0  0  0  0  0  0  0  0  0  0
    7.7644    1.3028   -3.1122 H   0  0  0  0  0  0  0  0  0  0  0  0
    4.6192   -1.9933   -0.6113 H   0  0  0  0  0  0  0  0  0  0  0  0
    5.4991   -2.4469   -2.0736 H   0  0  0  0  0  0  0  0  0  0  0  0
    3.8921   -1.7159   -2.2107 H   0  0  0  0  0  0  0  0  0  0  0  0
   -0.3183    0.5906   -0.4748 H   0  0  0  0  0  0  0  0  0  0  0  0
  1  2  1  0
  2  3  1  0
  3  4  1  0
  4  5  2  0
  5  6  1  0
  6  7  1  0
  7  8  2  0
  7  9  1  0
  9 10  1  0
 10 11  1  0
 11 12  2  0
 12 13  1  0
 13 14  2  0
 14 15  1  0
 15 16  1  0
 16 17  1  0
 17 18  1  0
 18 19  2  0
 18 20  1  0
 20 21  1  0
 21 22  2  0
 22 23  1  0
 23 24  1  0
 24 25  1  0
 15 26  2  0
  6  2  2  0
 26 11  1  0
 24 20  2  0
  1 27  1  0
  1 28  1  0
  1 29  1  0
  4 30  1  0
  5 31  1  0
  9 32  1  0
 10 33  1  0
 10 34  1  0
 12 35  1  0
 13 36  1  0
 14 37  1  0
 16 38  1  0
 16 39  1  0
 17 40  1  0
 21 41  1  0
 22 42  1  0
 25 43  1  0
 25 44  1  0
 25 45  1  0
 26 46  1  0
M  END
$$$$
