
     RDKit          3D

 36 38  0  0  0  0  0  0  0  0999 V2000
   -1.3299    4.2882   -0.7799 C   0  0  0  0  0  0  0  0  0  0  0  0
   -1.8089    2.9091   -0.4386 C   0  0  0  0  0  0  0  0  0  0  0  0
   -2.9838    2.7205    0.2848 C   0  0  0  0  0  0  0  0  0  0  0  0
   -3.4267    1.4270    0.5787 C   0  0  0  0  0  0  0  0  0  0  0  0
   -2.7363    0.2983    0.1580 C   0  0  0  0  0  0  0  0  0  0  0  0
   -3.2207   -0.9040    0.4867 N   0  0  0  0  0  0  0  0  0  0  0  0
   -2.5442   -2.0052    0.0939 C   0  0  0  0  0  0  0  0  0  0  0  0
   -3.0956   -3.3944    0.4523 C   0  0  0  0  0  0  0  0  0  0  0  0
   -3.9024   -4.1111   -0.9861 Cl  0  0  0  0  0  0  0  0  0  0  0  0
   -1.7689   -4.4978    0.9780 Cl  0  0  0  0  0  0  0  0  0  0  0  0
   -4.2941   -3.3421    1.7959 Cl  0  0  0  0  0  0  0  0  0  0  0  0
   -1.4250   -1.9424   -0.6559 N   0  0  0  0  0  0  0  0  0  0  0  0
   -0.9505   -0.7276   -0.9935 C   0  0  0  0  0  0  0  0  0  0  0  0
    0.2485   -0.7208   -1.7669 N   0  0  0  0  0  0  0  0  0  0  0  0
    1.3753   -0.3199   -1.0856 N   0  0  0  0  0  0  0  0  0  0  0  0
    1.9247   -1.2822   -0.4087 C   0  0  0  0  0  0  0  0  0  0  0  0
    3.1310   -1.0715    0.4103 C   0  0  0  0  0  0  0  0  0  0  0  0
    3.6596   -2.1494    1.1151 C   0  0  0  0  0  0  0  0  0  0  0  0
    4.7909   -1.9224    1.8774 C   0  0  0  0  0  0  0  0  0  0  0  0
    5.4029   -0.7219    1.9724 N   0  0  0  0  0  0  0  0  0  0  0  0
    4.8621    0.3019    1.2757 C   0  0  0  0  0  0  0  0  0  0  0  0
    3.7348    0.1808    0.4855 C   0  0  0  0  0  0  0  0  0  0  0  0
   -1.5701    0.4676   -0.5910 C   0  0  0  0  0  0  0  0  0  0  0  0
   -1.1131    1.7812   -0.8843 C   0  0  0  0  0  0  0  0  0  0  0  0
   -0.2363    4.3203   -0.8270 H   0  0  0  0  0  0  0  0  0  0  0  0
   -1.6432    5.0110   -0.0192 H   0  0  0  0  0  0  0  0  0  0  0  0
   -1.7359    4.5964   -1.7482 H   0  0  0  0  0  0  0  0  0  0  0  0
   -3.5630    3.5727    0.6339 H   0  0  0  0  0  0  0  0  0  0  0  0
   -4.3407    1.3002    1.1560 H   0  0  0  0  0  0  0  0  0  0  0  0
    0.0655   -0.1079   -2.5635 H   0  0  0  0  0  0  0  0  0  0  0  0
    1.5038   -2.3055   -0.4220 H   0  0  0  0  0  0  0  0  0  0  0  0
    3.2123   -3.1360    1.0793 H   0  0  0  0  0  0  0  0  0  0  0  0
    5.2514   -2.7223    2.4508 H   0  0  0  0  0  0  0  0  0  0  0  0
    5.3779    1.2529    1.3746 H   0  0  0  0  0  0  0  0  0  0  0  0
    3.3428    1.0366   -0.0520 H   0  0  0  0  0  0  0  0  0  0  0  0
   -0.1943    1.9195   -1.4516 H   0  0  0  0  0  0  0  0  0  0  0  0
  1  2  1  0
  2  3  2  0
  3  4  1  0
  4  5  2  0
  5  6  1  0
  6  7  2  0
  7  8  1  0
  8  9  1  0
  8 10  1  0
  8 11  1  0
  7 12  1  0
 12 13  2  0
 13 14  1  0
 14 15  1  0
 15 16  2  3
 16 17  1  0
 17 18  2  0
 18 19  1  0
 19 20  2  0
 20 21  1  0
 21 22  2  0
 13 23  1  0
 23 24  2  0
 24  2  1  0
 23  5  1  0
 22 17  1  0
  1 25  1  0
  1 26  1  0
  1 27  1  0
  3 28  1  0
  4 29  1  0
 14 30  1  0
 16 31  1  0
 18 32  1  0
 19 33  1  0
 21 34  1  0
 22 35  1  0
 24 36  1  0
M  END
$$$$
