
     RDKit          3D

 35 37  0  0  0  0  0  0  0  0999 V2000
    2.4134   -1.1427    1.1771 O   0  0  0  0  0  0  0  0  0  0  0  0
    1.9293   -0.5331    0.2304 C   0  0  0  0  0  0  0  0  0  0  0  0
    0.6037   -0.1707    0.1591 N   0  0  0  0  0  0  0  0  0  0  0  0
   -0.3429   -0.5164    1.2132 C   0  0  0  0  0  0  0  0  0  0  0  0
   -0.8001   -1.9781    1.0838 C   0  0  0  0  0  0  0  0  0  0  0  0
   -1.7750   -2.1455   -0.0777 C   0  0  0  0  0  0  0  0  0  0  0  0
   -3.0359   -1.3182    0.1574 C   0  0  0  0  0  0  0  0  0  0  0  0
   -2.7551    0.0892    0.6240 C   0  0  0  0  0  0  0  0  0  0  0  0
   -3.7895    1.0367    0.5762 C   0  0  0  0  0  0  0  0  0  0  0  0
   -3.5870    2.3366    1.0387 C   0  0  0  0  0  0  0  0  0  0  0  0
   -2.3514    2.7041    1.5622 C   0  0  0  0  0  0  0  0  0  0  0  0
   -1.3178    1.7707    1.6241 C   0  0  0  0  0  0  0  0  0  0  0  0
   -1.5075    0.4554    1.1644 C   0  0  0  0  0  0  0  0  0  0  0  0
    2.7990   -0.1245   -0.8958 C   0  0  0  0  0  0  0  0  0  0  0  0
    2.3160    0.0502   -2.1873 C   0  0  0  0  0  0  0  0  0  0  0  0
    3.0874    0.4219   -3.2395 N   0  0  0  0  0  0  0  0  0  0  0  0
    4.4060    0.6074   -2.9877 C   0  0  0  0  0  0  0  0  0  0  0  0
    4.9809    0.4358   -1.7369 C   0  0  0  0  0  0  0  0  0  0  0  0
    6.8285    0.7075   -1.4807 Br  0  0  0  0  0  0  0  0  0  0  0  0
    4.1667    0.0603   -0.6739 C   0  0  0  0  0  0  0  0  0  0  0  0
    0.2653    0.4416   -0.5704 H   0  0  0  0  0  0  0  0  0  0  0  0
    0.1692   -0.4111    2.1785 H   0  0  0  0  0  0  0  0  0  0  0  0
    0.0585   -2.6446    0.9428 H   0  0  0  0  0  0  0  0  0  0  0  0
   -1.2957   -2.2898    2.0126 H   0  0  0  0  0  0  0  0  0  0  0  0
   -2.0465   -3.2011   -0.1922 H   0  0  0  0  0  0  0  0  0  0  0  0
   -1.2953   -1.8379   -1.0152 H   0  0  0  0  0  0  0  0  0  0  0  0
   -3.6185   -1.2938   -0.7713 H   0  0  0  0  0  0  0  0  0  0  0  0
   -3.6520   -1.8099    0.9208 H   0  0  0  0  0  0  0  0  0  0  0  0
   -4.7652    0.7620    0.1804 H   0  0  0  0  0  0  0  0  0  0  0  0
   -4.3963    3.0608    0.9951 H   0  0  0  0  0  0  0  0  0  0  0  0
   -2.1928    3.7164    1.9247 H   0  0  0  0  0  0  0  0  0  0  0  0
   -0.3552    2.0710    2.0348 H   0  0  0  0  0  0  0  0  0  0  0  0
    1.2750   -0.1237   -2.4422 H   0  0  0  0  0  0  0  0  0  0  0  0
    4.9986    0.9020   -3.8496 H   0  0  0  0  0  0  0  0  0  0  0  0
    4.5822   -0.0884    0.3201 H   0  0  0  0  0  0  0  0  0  0  0  0
  1  2  2  0
  2  3  1  0
  3  4  1  0
  4  5  1  0
  5  6  1  0
  6  7  1  0
  7  8  1  0
  8  9  2  0
  9 10  1  0
 10 11  2  0
 11 12  1  0
 12 13  2  0
  2 14  1  0
 14 15  2  0
 15 16  1  0
 16 17  2  0
 17 18  1  0
 18 19  1  0
 18 20  2  0
 13  4  1  0
 20 14  1  0
 13  8  1  0
  3 21  1  0
  4 22  1  0
  5 23  1  0
  5 24  1  0
  6 25  1  0
  6 26  1  0
  7 27  1  0
  7 28  1  0
  9 29  1  0
 10 30  1  0
 11 31  1  0
 12 32  1  0
 15 33  1  0
 17 34  1  0
 20 35  1  0
M  END
$$$$
