
     RDKit          3D

 39 41  0  0  0  0  0  0  0  0999 V2000
   -0.8352    2.5181    1.4817 O   0  0  0  0  0  0  0  0  0  0  0  0
   -1.3798    1.7399    0.7005 C   0  0  0  0  0  0  0  0  0  0  0  0
   -2.5211    0.8210    1.1265 C   0  0  0  0  0  0  0  0  0  0  0  0
   -2.7883   -0.1316    0.1021 O   0  0  0  0  0  0  0  0  0  0  0  0
   -3.8089   -1.0222    0.2999 C   0  0  0  0  0  0  0  0  0  0  0  0
   -4.5699   -1.1133    1.4692 C   0  0  0  0  0  0  0  0  0  0  0  0
   -5.5916   -2.0642    1.5715 C   0  0  0  0  0  0  0  0  0  0  0  0
   -5.8549   -2.9258    0.5083 C   0  0  0  0  0  0  0  0  0  0  0  0
   -7.1134   -4.0900    0.6458 Cl  0  0  0  0  0  0  0  0  0  0  0  0
   -5.1074   -2.8501   -0.6617 C   0  0  0  0  0  0  0  0  0  0  0  0
   -4.0884   -1.9010   -0.7624 C   0  0  0  0  0  0  0  0  0  0  0  0
   -3.1822   -1.8333   -2.2357 Cl  0  0  0  0  0  0  0  0  0  0  0  0
   -1.0413    1.6342   -0.6385 N   0  0  0  0  0  0  0  0  0  0  0  0
    0.1873    2.2009   -1.0208 N   0  0  0  0  0  0  0  0  0  0  0  0
    1.3461    1.4671   -0.8218 C   0  0  0  0  0  0  0  0  0  0  0  0
    1.3896    0.3127   -0.4201 O   0  0  0  0  0  0  0  0  0  0  0  0
    2.5207    2.3022   -1.2133 C   0  0  0  0  0  0  0  0  0  0  0  0
    3.8204    1.9790   -1.1493 C   0  0  0  0  0  0  0  0  0  0  0  0
    4.3735    0.7190   -0.6484 C   0  0  0  0  0  0  0  0  0  0  0  0
    5.0152   -0.1523   -1.5366 C   0  0  0  0  0  0  0  0  0  0  0  0
    5.5673   -1.3495   -1.0730 C   0  0  0  0  0  0  0  0  0  0  0  0
    5.4833   -1.6728    0.2800 C   0  0  0  0  0  0  0  0  0  0  0  0
    6.1639   -3.1465    0.8501 Cl  0  0  0  0  0  0  0  0  0  0  0  0
    4.8552   -0.8084    1.1740 C   0  0  0  0  0  0  0  0  0  0  0  0
    4.3038    0.3892    0.7109 C   0  0  0  0  0  0  0  0  0  0  0  0
    1.9815    3.8379   -1.8165 S   0  0  0  0  0  0  0  0  0  0  0  0
    0.2809    3.4719   -1.5444 C   0  0  0  0  0  0  0  0  0  0  0  0
   -0.9554    4.5275   -1.9175 S   0  0  0  0  0  0  0  0  0  0  0  0
   -2.2021    0.3097    2.0416 H   0  0  0  0  0  0  0  0  0  0  0  0
   -3.3991    1.4515    1.3056 H   0  0  0  0  0  0  0  0  0  0  0  0
   -4.3971   -0.4656    2.3232 H   0  0  0  0  0  0  0  0  0  0  0  0
   -6.1777   -2.1275    2.4858 H   0  0  0  0  0  0  0  0  0  0  0  0
   -5.3146   -3.5232   -1.4890 H   0  0  0  0  0  0  0  0  0  0  0  0
   -1.2786    0.7529   -1.0935 H   0  0  0  0  0  0  0  0  0  0  0  0
    4.5745    2.6840   -1.4951 H   0  0  0  0  0  0  0  0  0  0  0  0
    5.0859    0.0885   -2.5950 H   0  0  0  0  0  0  0  0  0  0  0  0
    6.0578   -2.0232   -1.7702 H   0  0  0  0  0  0  0  0  0  0  0  0
    4.7871   -1.0600    2.2288 H   0  0  0  0  0  0  0  0  0  0  0  0
    3.8129    1.0535    1.4186 H   0  0  0  0  0  0  0  0  0  0  0  0
  1  2  2  0
  2  3  1  0
  3  4  1  0
  4  5  1  0
  5  6  2  0
  6  7  1  0
  7  8  2  0
  8  9  1  0
  8 10  1  0
 10 11  2  0
 11 12  1  0
  2 13  1  0
 13 14  1  0
 14 15  1  0
 15 16  2  0
 15 17  1  0
 17 18  2  3
 18 19  1  0
 19 20  2  0
 20 21  1  0
 21 22  2  0
 22 23  1  0
 22 24  1  0
 24 25  2  0
 17 26  1  0
 26 27  1  0
 27 28  2  0
 11  5  1  0
 27 14  1  0
 25 19  1  0
  3 29  1  0
  3 30  1  0
  6 31  1  0
  7 32  1  0
 10 33  1  0
 13 34  1  0
 18 35  1  0
 20 36  1  0
 21 37  1  0
 24 38  1  0
 25 39  1  0
M  END
$$$$
