
     RDKit          3D

 57 61  0  0  0  0  0  0  0  0999 V2000
   -9.0459   -2.8177   -1.6659 C   0  0  0  0  0  0  0  0  0  0  0  0
   -7.8179   -2.0315   -1.3148 C   0  0  0  0  0  0  0  0  0  0  0  0
   -6.5573   -2.6332   -1.3099 C   0  0  0  0  0  0  0  0  0  0  0  0
   -5.4127   -1.8859   -1.0040 C   0  0  0  0  0  0  0  0  0  0  0  0
   -5.4900   -0.5146   -0.6959 C   0  0  0  0  0  0  0  0  0  0  0  0
   -4.2940    0.2911   -0.3600 C   0  0  0  0  0  0  0  0  0  0  0  0
   -3.1507   -0.2440    0.2087 C   0  0  0  0  0  0  0  0  0  0  0  0
   -2.0772    0.6058    0.4831 C   0  0  0  0  0  0  0  0  0  0  0  0
   -0.8716   -0.0377    1.0555 C   0  0  0  0  0  0  0  0  0  0  0  0
   -1.0100   -0.7078    2.0681 O   0  0  0  0  0  0  0  0  0  0  0  0
    0.2823    0.1541    0.3152 N   0  0  0  0  0  0  0  0  0  0  0  0
    1.5752   -0.3237    0.6139 C   0  0  0  0  0  0  0  0  0  0  0  0
    1.8925   -1.0306    1.7774 C   0  0  0  0  0  0  0  0  0  0  0  0
    3.2008   -1.4680    2.0098 C   0  0  0  0  0  0  0  0  0  0  0  0
    4.1983   -1.1900    1.0753 C   0  0  0  0  0  0  0  0  0  0  0  0
    5.8657   -1.7440    1.3506 S   0  0  0  0  0  6  0  0  0  0  0  0
    5.8992   -2.3832    2.6515 O   0  0  0  0  0  0  0  0  0  0  0  0
    6.2805   -2.4501    0.1585 O   0  0  0  0  0  0  0  0  0  0  0  0
    6.6515   -0.2760    1.5545 N   0  0  0  0  0  0  0  0  0  0  0  0
    7.7738   -0.1412    0.7437 C   0  0  0  0  0  0  0  0  0  0  0  0
    8.9321   -0.1996    1.4031 N   0  0  0  0  0  0  0  0  0  0  0  0
   10.0290   -0.0570    0.6380 C   0  0  0  0  0  0  0  0  0  0  0  0
    9.9837    0.1475   -0.7226 C   0  0  0  0  0  0  0  0  0  0  0  0
    8.7236    0.2129   -1.2741 C   0  0  0  0  0  0  0  0  0  0  0  0
    7.5921    0.0906   -0.5579 N   0  0  0  0  0  0  0  0  0  0  0  0
    3.8989   -0.4865   -0.0924 C   0  0  0  0  0  0  0  0  0  0  0  0
    2.5892   -0.0535   -0.3167 C   0  0  0  0  0  0  0  0  0  0  0  0
   -2.1610    1.9929    0.2377 C   0  0  0  0  0  0  0  0  0  0  0  0
   -1.1574    2.9437    0.5555 C   0  0  0  0  0  0  0  0  0  0  0  0
   -1.3335    4.2967    0.2691 C   0  0  0  0  0  0  0  0  0  0  0  0
   -2.5132    4.7224   -0.3268 C   0  0  0  0  0  0  0  0  0  0  0  0
   -3.5117    3.7921   -0.6205 C   0  0  0  0  0  0  0  0  0  0  0  0
   -3.3617    2.4392   -0.3437 C   0  0  0  0  0  0  0  0  0  0  0  0
   -4.3807    1.6168   -0.6394 N   0  0  0  0  0  0  0  0  0  0  0  0
   -6.7686    0.0771   -0.7257 C   0  0  0  0  0  0  0  0  0  0  0  0
   -7.9142   -0.6660   -1.0318 C   0  0  0  0  0  0  0  0  0  0  0  0
   -9.3735   -2.5653   -2.6802 H   0  0  0  0  0  0  0  0  0  0  0  0
   -8.8582   -3.8942   -1.6211 H   0  0  0  0  0  0  0  0  0  0  0  0
   -9.8584   -2.5983   -0.9631 H   0  0  0  0  0  0  0  0  0  0  0  0
   -6.4499   -3.6906   -1.5466 H   0  0  0  0  0  0  0  0  0  0  0  0
   -4.4538   -2.4000   -1.0300 H   0  0  0  0  0  0  0  0  0  0  0  0
   -3.0805   -1.2988    0.4579 H   0  0  0  0  0  0  0  0  0  0  0  0
    0.1867    0.6632   -0.5551 H   0  0  0  0  0  0  0  0  0  0  0  0
    1.1413   -1.2628    2.5278 H   0  0  0  0  0  0  0  0  0  0  0  0
    3.4223   -2.0256    2.9173 H   0  0  0  0  0  0  0  0  0  0  0  0
    6.9625   -0.2264    2.5208 H   0  0  0  0  0  0  0  0  0  0  0  0
   10.9745   -0.1142    1.1699 H   0  0  0  0  0  0  0  0  0  0  0  0
   10.8784    0.2488   -1.3207 H   0  0  0  0  0  0  0  0  0  0  0  0
    8.5863    0.3688   -2.3410 H   0  0  0  0  0  0  0  0  0  0  0  0
    4.6757   -0.2769   -0.8247 H   0  0  0  0  0  0  0  0  0  0  0  0
    2.3742    0.4908   -1.2327 H   0  0  0  0  0  0  0  0  0  0  0  0
   -0.2359    2.6420    1.0532 H   0  0  0  0  0  0  0  0  0  0  0  0
   -0.5584    5.0140    0.5233 H   0  0  0  0  0  0  0  0  0  0  0  0
   -2.6687    5.7765   -0.5523 H   0  0  0  0  0  0  0  0  0  0  0  0
   -4.4417    4.1348   -1.0707 H   0  0  0  0  0  0  0  0  0  0  0  0
   -6.8801    1.1392   -0.5059 H   0  0  0  0  0  0  0  0  0  0  0  0
   -8.8817   -0.1661   -1.0451 H   0  0  0  0  0  0  0  0  0  0  0  0
  1  2  1  0
  2  3  2  0
  3  4  1  0
  4  5  2  0
  5  6  1  0
  6  7  2  0
  7  8  1  0
  8  9  1  0
  9 10  2  0
  9 11  1  0
 11 12  1  0
 12 13  2  0
 13 14  1  0
 14 15  2  0
 15 16  1  0
 16 17  2  0
 16 18  2  0
 16 19  1  0
 19 20  1  0
 20 21  2  0
 21 22  1  0
 22 23  2  0
 23 24  1  0
 24 25  2  0
 15 26  1  0
 26 27  2  0
  8 28  2  0
 28 29  1  0
 29 30  2  0
 30 31  1  0
 31 32  2  0
 32 33  1  0
 33 34  2  0
  5 35  1  0
 35 36  2  0
 36  2  1  0
 34  6  1  0
 27 12  1  0
 33 28  1  0
 25 20  1  0
  1 37  1  0
  1 38  1  0
  1 39  1  0
  3 40  1  0
  4 41  1  0
  7 42  1  0
 11 43  1  0
 13 44  1  0
 14 45  1  0
 19 46  1  0
 22 47  1  0
 23 48  1  0
 24 49  1  0
 26 50  1  0
 27 51  1  0
 29 52  1  0
 30 53  1  0
 31 54  1  0
 32 55  1  0
 35 56  1  0
 36 57  1  0
M  END
$$$$
