
     RDKit          3D

 52 57  0  0  0  0  0  0  0  0999 V2000
   -6.0431   -2.5133    0.1865 C   0  0  0  0  0  0  0  0  0  0  0  0
   -4.6535   -1.9408    0.1640 C   0  0  0  0  0  0  0  0  0  0  0  0
   -4.2741   -1.0510   -0.8532 C   0  0  0  0  0  0  0  0  0  0  0  0
   -2.9980   -0.4893   -0.8594 C   0  0  0  0  0  0  0  0  0  0  0  0
   -2.1210   -0.8225    0.1663 C   0  0  0  0  0  0  0  0  0  0  0  0
   -0.7860   -0.2542    0.1500 N   0  0  0  0  0  0  0  0  0  0  0  0
   -0.4340    1.1076    0.0712 C   0  0  0  0  0  0  0  0  0  0  0  0
   -1.3135    2.4166    0.2190 C   0  0  0  0  0  0  0  0  0  0  0  0
   -0.7821    3.6549   -0.1694 C   0  0  0  0  0  0  0  0  0  0  0  0
   -1.5423    4.8222   -0.0411 C   0  0  0  0  0  0  0  0  0  0  0  0
   -2.8283    4.7573    0.4871 C   0  0  0  0  0  0  0  0  0  0  0  0
   -3.8545    6.3329    0.6621 Br  0  0  0  0  0  0  0  0  0  0  0  0
   -3.3573    3.5363    0.8953 C   0  0  0  0  0  0  0  0  0  0  0  0
   -2.5986    2.3677    0.7664 C   0  0  0  0  0  0  0  0  0  0  0  0
    0.9312    1.1031   -0.1369 C   0  0  0  0  0  0  0  0  0  0  0  0
    1.3839   -0.1999   -0.0841 N   0  0  0  0  0  4  0  0  0  0  0  0
    0.3275   -1.0152    0.0716 C   0  0  0  0  0  0  0  0  0  0  0  0
    0.4684   -2.5030    0.1111 C   0  0  0  0  0  0  0  0  0  0  0  0
    1.6763   -2.9682   -0.6767 C   0  0  0  0  0  0  0  0  0  0  0  0
    2.8800   -2.1049   -0.4054 C   0  0  0  0  0  0  0  0  0  0  0  0
    4.1550   -2.6609   -0.4996 C   0  0  0  0  0  0  0  0  0  0  0  0
    5.2787   -1.8564   -0.3265 C   0  0  0  0  0  0  0  0  0  0  0  0
    5.1523   -0.4814   -0.0652 C   0  0  0  0  0  0  0  0  0  0  0  0
    6.2967    0.3068    0.1157 C   0  0  0  0  0  0  0  0  0  0  0  0
    6.1755    1.6614    0.3877 C   0  0  0  0  0  0  0  0  0  0  0  0
    4.9056    2.1873    0.4701 C   0  0  0  0  0  0  0  0  0  0  0  0
    3.7786    1.4584    0.2959 N   0  0  0  0  0  0  0  0  0  0  0  0
    3.8820    0.1298    0.0247 C   0  0  0  0  0  0  0  0  0  0  0  0
    2.7692   -0.7209   -0.1593 C   0  0  0  0  0  0  0  0  0  0  0  0
   -2.4682   -1.6909    1.1939 C   0  0  0  0  0  0  0  0  0  0  0  0
   -3.7478   -2.2454    1.1926 C   0  0  0  0  0  0  0  0  0  0  0  0
   -6.7113   -1.8494    0.7435 H   0  0  0  0  0  0  0  0  0  0  0  0
   -6.0501   -3.5015    0.6582 H   0  0  0  0  0  0  0  0  0  0  0  0
   -6.4308   -2.6359   -0.8303 H   0  0  0  0  0  0  0  0  0  0  0  0
   -4.9766   -0.7951   -1.6456 H   0  0  0  0  0  0  0  0  0  0  0  0
   -2.7082    0.1850   -1.6585 H   0  0  0  0  0  0  0  0  0  0  0  0
    0.2138    3.7482   -0.5943 H   0  0  0  0  0  0  0  0  0  0  0  0
   -1.1235    5.7759   -0.3558 H   0  0  0  0  0  0  0  0  0  0  0  0
   -4.3551    3.4846    1.3264 H   0  0  0  0  0  0  0  0  0  0  0  0
   -3.0323    1.4483    1.1435 H   0  0  0  0  0  0  0  0  0  0  0  0
    1.6312    1.9049   -0.2854 H   0  0  0  0  0  0  0  0  0  0  0  0
    0.5633   -2.7477    1.1741 H   0  0  0  0  0  0  0  0  0  0  0  0
   -0.4432   -2.9494   -0.2909 H   0  0  0  0  0  0  0  0  0  0  0  0
    1.8811   -4.0174   -0.4349 H   0  0  0  0  0  0  0  0  0  0  0  0
    1.4614   -2.9112   -1.7510 H   0  0  0  0  0  0  0  0  0  0  0  0
    4.2911   -3.7201   -0.7161 H   0  0  0  0  0  0  0  0  0  0  0  0
    6.2660   -2.3137   -0.4001 H   0  0  0  0  0  0  0  0  0  0  0  0
    7.2921   -0.1295    0.0511 H   0  0  0  0  0  0  0  0  0  0  0  0
    7.0502    2.2862    0.5344 H   0  0  0  0  0  0  0  0  0  0  0  0
    4.7527    3.2418    0.6861 H   0  0  0  0  0  0  0  0  0  0  0  0
   -1.7851   -1.9150    2.0057 H   0  0  0  0  0  0  0  0  0  0  0  0
   -4.0454   -2.9129    2.0006 H   0  0  0  0  0  0  0  0  0  0  0  0
  1  2  1  0
  2  3  2  0
  3  4  1  0
  4  5  2  0
  5  6  1  0
  6  7  1  0
  7  8  1  0
  8  9  2  0
  9 10  1  0
 10 11  2  0
 11 12  1  0
 11 13  1  0
 13 14  2  0
  7 15  2  0
 15 16  1  0
 16 17  2  0
 17 18  1  0
 18 19  1  0
 19 20  1  0
 20 21  2  0
 21 22  1  0
 22 23  2  0
 23 24  1  0
 24 25  2  0
 25 26  1  0
 26 27  2  0
 27 28  1  0
 28 29  2  0
  5 30  1  0
 30 31  2  0
 31  2  1  0
 17  6  1  0
 29 20  1  0
 14  8  1  0
 29 16  1  0
 28 23  1  0
  1 32  1  0
  1 33  1  0
  1 34  1  0
  3 35  1  0
  4 36  1  0
  9 37  1  0
 10 38  1  0
 13 39  1  0
 14 40  1  0
 15 41  1  0
 18 42  1  0
 18 43  1  0
 19 44  1  0
 19 45  1  0
 21 46  1  0
 22 47  1  0
 24 48  1  0
 25 49  1  0
 26 50  1  0
 30 51  1  0
 31 52  1  0
M  CHG  1  16   1
M  END
$$$$
