
     RDKit          3D

 56 58  0  0  0  0  0  0  0  0999 V2000
   -7.7235    0.4952    1.8984 C   0  0  0  0  0  0  0  0  0  0  0  0
   -6.7631    1.3104    1.0551 C   0  0  0  0  0  0  0  0  0  0  0  0
   -5.4300    0.8909    1.3670 O   0  0  0  0  0  0  0  0  0  0  0  0
   -4.4627    1.5210    0.6419 C   0  0  0  0  0  0  0  0  0  0  0  0
   -4.6670    2.3757   -0.2116 O   0  0  0  0  0  0  0  0  0  0  0  0
   -3.0993    0.9825    1.0034 C   0  0  0  0  0  0  0  0  0  0  0  0
   -2.2345    2.0836    1.5704 C   0  0  0  0  0  0  0  0  0  0  0  0
   -2.6833    2.9868    2.2748 O   0  0  0  0  0  0  0  0  0  0  0  0
   -0.7663    2.0243    1.3655 C   0  0  0  0  0  0  0  0  0  0  0  0
   -0.1819    1.0244    0.6845 C   0  0  0  0  0  0  0  0  0  0  0  0
    1.2744    0.9891    0.5893 C   0  0  0  0  0  0  0  0  0  0  0  0
    2.0125    0.0026    0.0533 C   0  0  0  0  0  0  0  0  0  0  0  0
    3.4805    0.0314   -0.0106 C   0  0  0  0  0  0  0  0  0  0  0  0
    4.2699    0.4636    1.0537 C   0  0  0  0  0  0  0  0  0  0  0  0
    5.6712    0.4480    0.9596 C   0  0  0  0  0  0  0  0  0  0  0  0
    6.3451   -0.0159   -0.1834 C   0  0  0  0  0  0  0  0  0  0  0  0
    7.7417   -0.0114   -0.2810 N   0  0  0  0  0  0  0  0  0  0  0  0
    8.3791   -0.8140   -1.3237 C   0  0  0  0  0  0  0  0  0  0  0  0
    8.5390    0.2035    0.9251 C   0  0  0  0  0  0  0  0  0  0  0  0
    5.5236   -0.4462   -1.2399 C   0  0  0  0  0  0  0  0  0  0  0  0
    4.1220   -0.4352   -1.1563 C   0  0  0  0  0  0  0  0  0  0  0  0
   -0.9982   -0.0580    0.0159 C   0  0  0  0  0  0  0  0  0  0  0  0
   -2.4574    0.3645   -0.2485 C   0  0  0  0  0  0  0  0  0  0  0  0
   -3.2623   -0.8053   -0.8026 C   0  0  0  0  0  0  0  0  0  0  0  0
   -3.8190   -0.7155   -2.0877 C   0  0  0  0  0  0  0  0  0  0  0  0
   -4.5735   -1.7661   -2.6121 C   0  0  0  0  0  0  0  0  0  0  0  0
   -4.7830   -2.9188   -1.8597 C   0  0  0  0  0  0  0  0  0  0  0  0
   -4.2396   -3.0213   -0.5815 C   0  0  0  0  0  0  0  0  0  0  0  0
   -3.4848   -1.9717   -0.0543 C   0  0  0  0  0  0  0  0  0  0  0  0
   -7.6030   -0.5740    1.6943 H   0  0  0  0  0  0  0  0  0  0  0  0
   -8.7596    0.7794    1.6948 H   0  0  0  0  0  0  0  0  0  0  0  0
   -7.5197    0.6406    2.9644 H   0  0  0  0  0  0  0  0  0  0  0  0
   -6.8774    2.3755    1.2857 H   0  0  0  0  0  0  0  0  0  0  0  0
   -6.9679    1.1377   -0.0075 H   0  0  0  0  0  0  0  0  0  0  0  0
   -3.2017    0.2317    1.7978 H   0  0  0  0  0  0  0  0  0  0  0  0
   -0.2065    2.8198    1.8472 H   0  0  0  0  0  0  0  0  0  0  0  0
    1.7936    1.8566    0.9993 H   0  0  0  0  0  0  0  0  0  0  0  0
    1.5563   -0.8817   -0.3823 H   0  0  0  0  0  0  0  0  0  0  0  0
    3.8154    0.8137    1.9769 H   0  0  0  0  0  0  0  0  0  0  0  0
    6.2198    0.8124    1.8226 H   0  0  0  0  0  0  0  0  0  0  0  0
    8.1159   -1.8729   -1.2218 H   0  0  0  0  0  0  0  0  0  0  0  0
    8.1027   -0.4596   -2.3225 H   0  0  0  0  0  0  0  0  0  0  0  0
    9.4712   -0.7395   -1.2716 H   0  0  0  0  0  0  0  0  0  0  0  0
    9.6112    0.1969    0.6985 H   0  0  0  0  0  0  0  0  0  0  0  0
    8.3335    1.1841    1.3676 H   0  0  0  0  0  0  0  0  0  0  0  0
    8.3524   -0.5823    1.6655 H   0  0  0  0  0  0  0  0  0  0  0  0
    5.9525   -0.8008   -2.1720 H   0  0  0  0  0  0  0  0  0  0  0  0
    3.5449   -0.7835   -2.0097 H   0  0  0  0  0  0  0  0  0  0  0  0
   -0.9509   -0.9580    0.6422 H   0  0  0  0  0  0  0  0  0  0  0  0
   -0.5585   -0.3214   -0.9551 H   0  0  0  0  0  0  0  0  0  0  0  0
   -2.4179    1.1433   -1.0263 H   0  0  0  0  0  0  0  0  0  0  0  0
   -3.6782    0.1799   -2.6910 H   0  0  0  0  0  0  0  0  0  0  0  0
   -5.0012   -1.6817   -3.6080 H   0  0  0  0  0  0  0  0  0  0  0  0
   -5.3720   -3.7357   -2.2684 H   0  0  0  0  0  0  0  0  0  0  0  0
   -4.4062   -3.9197    0.0075 H   0  0  0  0  0  0  0  0  0  0  0  0
   -3.0783   -2.0791    0.9487 H   0  0  0  0  0  0  0  0  0  0  0  0
  1  2  1  0
  2  3  1  0
  3  4  1  0
  4  5  2  0
  4  6  1  0
  6  7  1  0
  7  8  2  0
  7  9  1  0
  9 10  2  0
 10 11  1  0
 11 12  2  3
 12 13  1  0
 13 14  2  0
 14 15  1  0
 15 16  2  0
 16 17  1  0
 17 18  1  0
 17 19  1  0
 16 20  1  0
 20 21  2  0
 10 22  1  0
 22 23  1  0
 23 24  1  0
 24 25  2  0
 25 26  1  0
 26 27  2  0
 27 28  1  0
 28 29  2  0
 23  6  1  0
 29 24  1  0
 21 13  1  0
  1 30  1  0
  1 31  1  0
  1 32  1  0
  2 33  1  0
  2 34  1  0
  6 35  1  0
  9 36  1  0
 11 37  1  0
 12 38  1  0
 14 39  1  0
 15 40  1  0
 18 41  1  0
 18 42  1  0
 18 43  1  0
 19 44  1  0
 19 45  1  0
 19 46  1  0
 20 47  1  0
 21 48  1  0
 22 49  1  0
 22 50  1  0
 23 51  1  0
 25 52  1  0
 26 53  1  0
 27 54  1  0
 28 55  1  0
 29 56  1  0
M  END
$$$$
