
     RDKit          3D

 36 37  0  0  0  0  0  0  0  0999 V2000
   -3.4139   -1.9422    2.3244 C   0  0  0  0  0  0  0  0  0  0  0  0
   -2.3796   -1.0278    1.6714 C   0  0  0  0  0  0  0  0  0  0  0  0
   -3.0656    0.1373    0.9404 C   0  0  0  0  0  0  0  0  0  0  0  0
   -2.1876    0.7286   -0.1742 C   0  0  0  0  0  0  0  0  0  0  0  0
   -2.5010    2.2070   -0.3903 C   0  0  0  0  0  0  0  0  0  0  0  0
   -0.7040    0.5119    0.1336 C   0  0  0  0  0  0  0  0  0  0  0  0
   -0.3947   -0.9438    0.1521 N   0  0  0  0  0  0  0  0  0  0  0  0
    1.1858   -1.3461    0.6475 S   0  0  0  0  0  6  0  0  0  0  0  0
    1.4224   -0.7086    1.9257 O   0  0  0  0  0  0  0  0  0  0  0  0
    1.3878   -2.7668    0.4650 O   0  0  0  0  0  0  0  0  0  0  0  0
    2.3356   -0.5694   -0.4627 C   0  0  0  0  0  0  0  0  0  0  0  0
    3.3899    0.2974   -0.2538 C   0  0  0  0  0  0  0  0  0  0  0  0
    4.0670    0.6836   -1.4690 C   0  0  0  0  0  0  0  0  0  0  0  0
    5.2054    1.5875   -1.4861 C   0  0  0  0  0  0  0  0  0  0  0  0
    5.6731    2.1234   -0.4911 O   0  0  0  0  0  0  0  0  0  0  0  0
    5.7583    1.8317   -2.6899 O   0  0  0  0  0  0  0  0  0  0  0  0
    3.4604    0.0676   -2.5436 C   0  0  0  0  0  0  0  0  0  0  0  0
    3.8350    0.1688   -4.2238 Cl  0  0  0  0  0  0  0  0  0  0  0  0
    2.1484   -0.9268   -2.1200 S   0  0  0  0  0  0  0  0  0  0  0  0
   -1.4664   -1.8096    0.7251 C   0  0  0  0  0  0  0  0  0  0  0  0
   -4.0555   -2.4171    1.5745 H   0  0  0  0  0  0  0  0  0  0  0  0
   -4.0534   -1.3767    3.0104 H   0  0  0  0  0  0  0  0  0  0  0  0
   -2.9233   -2.7345    2.8995 H   0  0  0  0  0  0  0  0  0  0  0  0
   -1.7596   -0.6069    2.4750 H   0  0  0  0  0  0  0  0  0  0  0  0
   -3.3255    0.9041    1.6816 H   0  0  0  0  0  0  0  0  0  0  0  0
   -4.0154   -0.1873    0.4960 H   0  0  0  0  0  0  0  0  0  0  0  0
   -2.4248    0.2002   -1.1082 H   0  0  0  0  0  0  0  0  0  0  0  0
   -2.2631    2.7987    0.5002 H   0  0  0  0  0  0  0  0  0  0  0  0
   -3.5623    2.3490   -0.6198 H   0  0  0  0  0  0  0  0  0  0  0  0
   -1.9199    2.6085   -1.2272 H   0  0  0  0  0  0  0  0  0  0  0  0
   -0.1016    0.9874   -0.6480 H   0  0  0  0  0  0  0  0  0  0  0  0
   -0.4437    0.9756    1.0923 H   0  0  0  0  0  0  0  0  0  0  0  0
    3.6732    0.6430    0.7359 H   0  0  0  0  0  0  0  0  0  0  0  0
    6.4960    2.4432   -2.4884 H   0  0  0  0  0  0  0  0  0  0  0  0
   -2.0408   -2.2249   -0.1124 H   0  0  0  0  0  0  0  0  0  0  0  0
   -1.0366   -2.6660    1.2563 H   0  0  0  0  0  0  0  0  0  0  0  0
  1  2  1  0
  2  3  1  0
  3  4  1  0
  4  5  1  0
  4  6  1  0
  6  7  1  0
  7  8  1  0
  8  9  2  0
  8 10  2  0
  8 11  1  0
 11 12  2  0
 12 13  1  0
 13 14  1  0
 14 15  2  0
 14 16  1  0
 13 17  2  0
 17 18  1  0
 17 19  1  0
  7 20  1  0
 20  2  1  0
 19 11  1  0
  1 21  1  0
  1 22  1  0
  1 23  1  0
  2 24  1  0
  3 25  1  0
  3 26  1  0
  4 27  1  0
  5 28  1  0
  5 29  1  0
  5 30  1  0
  6 31  1  0
  6 32  1  0
 12 33  1  0
 16 34  1  0
 20 35  1  0
 20 36  1  0
M  END
$$$$
