
     RDKit          3D

 57 61  0  0  0  0  0  0  0  0999 V2000
    5.7835    0.2676   -0.2586 C   0  0  0  0  0  0  0  0  0  0  0  0
    4.9580    1.5184    0.0200 C   0  0  0  0  0  0  0  0  0  0  0  0
    4.7001    1.7565    1.5035 C   0  0  0  0  0  0  0  0  0  0  0  0
    3.7166    1.6170   -0.8722 C   0  0  0  0  0  0  0  0  0  0  0  0
    3.7705    2.3646   -1.8570 O   0  0  0  0  0  0  0  0  0  0  0  0
    2.5726    0.8778   -0.6139 N   0  0  0  0  0  0  0  0  0  0  0  0
    2.3932   -0.1126    0.4440 C   0  0  0  0  0  0  0  0  0  0  0  0
    1.4309   -1.2153    0.0114 C   0  0  0  0  0  0  0  0  0  0  0  0
    0.0089   -0.6816   -0.3423 C   0  0  0  0  0  0  0  0  0  0  0  0
    0.1057    0.8161   -0.7399 C   0  0  0  0  0  0  0  0  0  0  0  0
    1.4106    1.1201   -1.4698 C   0  0  0  0  0  0  0  0  0  0  0  0
   -0.4475   -1.3440   -1.5527 O   0  0  0  0  0  0  0  0  0  0  0  0
   -0.8415   -2.6442   -1.4175 C   0  0  0  0  0  0  0  0  0  0  0  0
   -0.8933   -3.3955   -2.5913 C   0  0  0  0  0  0  0  0  0  0  0  0
   -1.2703   -4.7398   -2.5449 C   0  0  0  0  0  0  0  0  0  0  0  0
   -1.6004   -5.3270   -1.3235 C   0  0  0  0  0  0  0  0  0  0  0  0
   -2.0624   -6.9824   -1.2714 Cl  0  0  0  0  0  0  0  0  0  0  0  0
   -1.5664   -4.5800   -0.1488 C   0  0  0  0  0  0  0  0  0  0  0  0
   -1.1943   -3.2327   -0.2054 C   0  0  0  0  0  0  0  0  0  0  0  0
   -1.1950   -2.4065    1.0155 C   0  0  0  0  0  0  0  0  0  0  0  0
   -1.3776   -2.9395    2.1053 O   0  0  0  0  0  0  0  0  0  0  0  0
   -1.0171   -0.9058    0.8044 C   0  0  0  0  0  0  0  0  0  0  0  0
   -2.4008   -0.3042    0.5902 C   0  0  0  0  0  0  0  0  0  0  0  0
   -2.3226    0.8355    1.5449 C   0  0  0  0  0  0  0  0  0  0  0  0
   -3.3586    1.8942    1.5910 C   0  0  0  0  0  0  0  0  0  0  0  0
   -3.1713    2.9891    2.4460 C   0  0  0  0  0  0  0  0  0  0  0  0
   -4.1275    4.0064    2.5102 C   0  0  0  0  0  0  0  0  0  0  0  0
   -5.2726    3.9292    1.7213 C   0  0  0  0  0  0  0  0  0  0  0  0
   -6.4511    5.1792    1.7976 Cl  0  0  0  0  0  0  0  0  0  0  0  0
   -5.4701    2.8426    0.8703 C   0  0  0  0  0  0  0  0  0  0  0  0
   -4.5143    1.8230    0.8039 C   0  0  0  0  0  0  0  0  0  0  0  0
   -1.2879    0.8267    2.3218 N   0  0  0  0  0  0  0  0  0  0  0  0
   -0.5312   -0.3269    2.0212 O   0  0  0  0  0  0  0  0  0  0  0  0
    6.7722    0.3528    0.2052 H   0  0  0  0  0  0  0  0  0  0  0  0
    5.9286    0.1311   -1.3358 H   0  0  0  0  0  0  0  0  0  0  0  0
    5.3215   -0.6440    0.1257 H   0  0  0  0  0  0  0  0  0  0  0  0
    5.5807    2.3683   -0.2994 H   0  0  0  0  0  0  0  0  0  0  0  0
    5.6230    2.0794    1.9984 H   0  0  0  0  0  0  0  0  0  0  0  0
    3.9475    2.5375    1.6541 H   0  0  0  0  0  0  0  0  0  0  0  0
    4.3652    0.8561    2.0244 H   0  0  0  0  0  0  0  0  0  0  0  0
    2.0177    0.4106    1.3301 H   0  0  0  0  0  0  0  0  0  0  0  0
    3.3447   -0.5692    0.7072 H   0  0  0  0  0  0  0  0  0  0  0  0
    1.8612   -1.7264   -0.8610 H   0  0  0  0  0  0  0  0  0  0  0  0
    1.3868   -1.9700    0.8047 H   0  0  0  0  0  0  0  0  0  0  0  0
    0.0624    1.4646    0.1416 H   0  0  0  0  0  0  0  0  0  0  0  0
   -0.7292    1.0941   -1.3944 H   0  0  0  0  0  0  0  0  0  0  0  0
    1.5192    0.4924   -2.3622 H   0  0  0  0  0  0  0  0  0  0  0  0
    1.4019    2.1644   -1.8020 H   0  0  0  0  0  0  0  0  0  0  0  0
   -0.6284   -2.9405   -3.5433 H   0  0  0  0  0  0  0  0  0  0  0  0
   -1.3008   -5.3230   -3.4624 H   0  0  0  0  0  0  0  0  0  0  0  0
   -1.8347   -5.0376    0.8013 H   0  0  0  0  0  0  0  0  0  0  0  0
   -3.2147   -0.9684    0.9017 H   0  0  0  0  0  0  0  0  0  0  0  0
   -2.5812    0.0244   -0.4357 H   0  0  0  0  0  0  0  0  0  0  0  0
   -2.2811    3.0584    3.0693 H   0  0  0  0  0  0  0  0  0  0  0  0
   -3.9715    4.8506    3.1770 H   0  0  0  0  0  0  0  0  0  0  0  0
   -6.3671    2.7826    0.2585 H   0  0  0  0  0  0  0  0  0  0  0  0
   -4.7006    0.9857    0.1379 H   0  0  0  0  0  0  0  0  0  0  0  0
  1  2  1  0
  2  3  1  0
  2  4  1  0
  4  5  2  0
  4  6  1  0
  6  7  1  0
  7  8  1  0
  8  9  1  0
  9 10  1  0
 10 11  1  0
  9 12  1  0
 12 13  1  0
 13 14  2  0
 14 15  1  0
 15 16  2  0
 16 17  1  0
 16 18  1  0
 18 19  2  0
 19 20  1  0
 20 21  2  0
 20 22  1  0
 22 23  1  0
 23 24  1  0
 24 25  1  0
 25 26  2  0
 26 27  1  0
 27 28  2  0
 28 29  1  0
 28 30  1  0
 30 31  2  0
 24 32  2  0
 32 33  1  0
 11  6  1  0
 19 13  1  0
 33 22  1  0
 22  9  1  0
 31 25  1  0
  1 34  1  0
  1 35  1  0
  1 36  1  0
  2 37  1  0
  3 38  1  0
  3 39  1  0
  3 40  1  0
  7 41  1  0
  7 42  1  0
  8 43  1  0
  8 44  1  0
 10 45  1  0
 10 46  1  0
 11 47  1  0
 11 48  1  0
 14 49  1  0
 15 50  1  0
 18 51  1  0
 23 52  1  0
 23 53  1  0
 26 54  1  0
 27 55  1  0
 30 56  1  0
 31 57  1  0
M  END
$$$$
