
     RDKit          3D

 67 72  0  0  0  0  0  0  0  0999 V2000
   -2.8240   -2.6269   -0.2836 O   0  0  0  0  0  0  0  0  0  0  0  0
   -2.3818   -1.4896   -0.1044 C   0  0  0  0  0  0  0  0  0  0  0  0
   -3.2227   -0.2295   -0.4115 C   0  0  0  0  0  0  0  0  0  0  0  0
   -4.7186   -0.5889   -0.4607 C   0  0  0  0  0  0  0  0  0  0  0  0
   -5.5876    0.5525   -0.9423 C   0  0  0  0  0  0  0  0  0  0  0  0
   -5.7188    0.8168   -2.3126 C   0  0  0  0  0  0  0  0  0  0  0  0
   -6.5056    1.8816   -2.7541 C   0  0  0  0  0  0  0  0  0  0  0  0
   -7.1653    2.6921   -1.8319 C   0  0  0  0  0  0  0  0  0  0  0  0
   -7.0407    2.4382   -0.4672 C   0  0  0  0  0  0  0  0  0  0  0  0
   -6.2566    1.3729   -0.0234 C   0  0  0  0  0  0  0  0  0  0  0  0
   -2.9767    0.7920    0.6108 N   0  0  0  0  0  0  0  0  0  0  0  0
   -1.6166    1.1022    0.7206 C   0  0  0  0  0  0  0  0  0  0  0  0
   -1.3494    2.3784    1.0247 N   0  0  0  0  0  0  0  0  0  0  0  0
   -0.0601    2.6740    1.1868 C   0  0  0  0  0  0  0  0  0  0  0  0
    0.9691    1.8377    1.0108 N   0  0  0  0  0  0  0  0  0  0  0  0
    0.6897    0.5654    0.6567 C   0  0  0  0  0  0  0  0  0  0  0  0
    1.7789   -0.2396    0.2712 N   0  0  0  0  0  0  0  0  0  0  0  0
    1.8205   -0.4800   -1.2003 C   0  0  0  0  0  0  0  0  0  0  0  0
    3.0304    0.1964   -1.8844 C   0  0  0  0  0  0  0  0  0  0  0  0
    4.3203   -0.2448   -1.2878 N   0  0  0  0  0  0  0  0  0  0  0  0
    5.3935    0.5383   -1.7397 C   0  0  0  0  0  0  0  0  0  0  0  0
    6.0527    1.4871   -0.9468 C   0  0  0  0  0  0  0  0  0  0  0  0
    7.1077    2.2521   -1.4578 C   0  0  0  0  0  0  0  0  0  0  0  0
    7.5223    2.0823   -2.7755 C   0  0  0  0  0  0  0  0  0  0  0  0
    6.8807    1.1495   -3.5829 C   0  0  0  0  0  0  0  0  0  0  0  0
    5.8267    0.3899   -3.0677 C   0  0  0  0  0  0  0  0  0  0  0  0
    4.2406   -0.5858    0.1537 C   0  0  0  0  0  0  0  0  0  0  0  0
    3.0856    0.1627    0.8518 C   0  0  0  0  0  0  0  0  0  0  0  0
   -0.6372    0.1126    0.5630 C   0  0  0  0  0  0  0  0  0  0  0  0
   -1.0602   -1.2420    0.3013 N   0  0  0  0  0  0  0  0  0  0  0  0
   -0.2923   -2.3799    0.8061 C   0  0  0  0  0  0  0  0  0  0  0  0
   -0.5171   -2.6238    2.2855 C   0  0  0  0  0  0  0  0  0  0  0  0
   -1.5919   -3.4124    2.7231 C   0  0  0  0  0  0  0  0  0  0  0  0
   -1.8106   -3.6239    4.0854 C   0  0  0  0  0  0  0  0  0  0  0  0
   -0.9602   -3.0473    5.0261 C   0  0  0  0  0  0  0  0  0  0  0  0
    0.1085   -2.2580    4.6056 C   0  0  0  0  0  0  0  0  0  0  0  0
    0.3286   -2.0464    3.2434 C   0  0  0  0  0  0  0  0  0  0  0  0
   -2.9045    0.1414   -1.3960 H   0  0  0  0  0  0  0  0  0  0  0  0
   -4.8855   -1.4433   -1.1296 H   0  0  0  0  0  0  0  0  0  0  0  0
   -5.0620   -0.9206    0.5283 H   0  0  0  0  0  0  0  0  0  0  0  0
   -5.2145    0.1919   -3.0462 H   0  0  0  0  0  0  0  0  0  0  0  0
   -6.6067    2.0777   -3.8186 H   0  0  0  0  0  0  0  0  0  0  0  0
   -7.7784    3.5207   -2.1765 H   0  0  0  0  0  0  0  0  0  0  0  0
   -7.5557    3.0695    0.2525 H   0  0  0  0  0  0  0  0  0  0  0  0
   -6.1679    1.1872    1.0456 H   0  0  0  0  0  0  0  0  0  0  0  0
   -3.4940    1.6625    0.5140 H   0  0  0  0  0  0  0  0  0  0  0  0
    0.1791    3.6926    1.4725 H   0  0  0  0  0  0  0  0  0  0  0  0
    0.9026   -0.1521   -1.7045 H   0  0  0  0  0  0  0  0  0  0  0  0
    1.8941   -1.5635   -1.3553 H   0  0  0  0  0  0  0  0  0  0  0  0
    3.0098   -0.0557   -2.9511 H   0  0  0  0  0  0  0  0  0  0  0  0
    2.9232    1.2859   -1.7925 H   0  0  0  0  0  0  0  0  0  0  0  0
    5.7446    1.6717    0.0771 H   0  0  0  0  0  0  0  0  0  0  0  0
    7.6006    2.9845   -0.8242 H   0  0  0  0  0  0  0  0  0  0  0  0
    8.3420    2.6755   -3.1714 H   0  0  0  0  0  0  0  0  0  0  0  0
    7.1997    1.0058   -4.6113 H   0  0  0  0  0  0  0  0  0  0  0  0
    5.3484   -0.3472   -3.7083 H   0  0  0  0  0  0  0  0  0  0  0  0
    4.0553   -1.6658    0.2215 H   0  0  0  0  0  0  0  0  0  0  0  0
    5.1862   -0.4149    0.6802 H   0  0  0  0  0  0  0  0  0  0  0  0
    3.2673    1.2401    0.7495 H   0  0  0  0  0  0  0  0  0  0  0  0
    3.0907   -0.0836    1.9198 H   0  0  0  0  0  0  0  0  0  0  0  0
   -0.5915   -3.2835    0.2588 H   0  0  0  0  0  0  0  0  0  0  0  0
    0.7735   -2.2956    0.6027 H   0  0  0  0  0  0  0  0  0  0  0  0
   -2.2699   -3.8648    2.0014 H   0  0  0  0  0  0  0  0  0  0  0  0
   -2.6482   -4.2354    4.4105 H   0  0  0  0  0  0  0  0  0  0  0  0
   -1.1332   -3.2095    6.0864 H   0  0  0  0  0  0  0  0  0  0  0  0
    0.7690   -1.8032    5.3390 H   0  0  0  0  0  0  0  0  0  0  0  0
    1.1643   -1.4243    2.9336 H   0  0  0  0  0  0  0  0  0  0  0  0
  1  2  2  0
  2  3  1  0
  3  4  1  0
  4  5  1  0
  5  6  2  0
  6  7  1  0
  7  8  2  0
  8  9  1  0
  9 10  2  0
  3 11  1  0
 11 12  1  0
 12 13  2  0
 13 14  1  0
 14 15  2  0
 15 16  1  0
 16 17  1  0
 17 18  1  0
 18 19  1  0
 19 20  1  0
 20 21  1  0
 21 22  2  0
 22 23  1  0
 23 24  2  0
 24 25  1  0
 25 26  2  0
 20 27  1  0
 27 28  1  0
 16 29  2  0
 29 30  1  0
 30 31  1  0
 31 32  1  0
 32 33  2  0
 33 34  1  0
 34 35  2  0
 35 36  1  0
 36 37  2  0
 30  2  1  0
 37 32  1  0
 10  5  1  0
 29 12  1  0
 28 17  1  0
 26 21  1  0
  3 38  1  0
  4 39  1  0
  4 40  1  0
  6 41  1  0
  7 42  1  0
  8 43  1  0
  9 44  1  0
 10 45  1  0
 11 46  1  0
 14 47  1  0
 18 48  1  0
 18 49  1  0
 19 50  1  0
 19 51  1  0
 22 52  1  0
 23 53  1  0
 24 54  1  0
 25 55  1  0
 26 56  1  0
 27 57  1  0
 27 58  1  0
 28 59  1  0
 28 60  1  0
 31 61  1  0
 31 62  1  0
 33 63  1  0
 34 64  1  0
 35 65  1  0
 36 66  1  0
 37 67  1  0
M  END
$$$$
