
     RDKit          3D

 62 65  0  0  0  0  0  0  0  0999 V2000
   -6.7843   -3.0312   -1.2817 C   0  0  0  0  0  0  0  0  0  0  0  0
   -7.1770   -1.7525   -1.7648 O   0  0  0  0  0  0  0  0  0  0  0  0
   -6.8468   -0.6983   -0.8643 C   0  0  0  0  0  0  0  0  0  0  0  0
   -5.4293   -0.2767   -1.0868 C   0  0  0  0  0  0  0  0  0  0  0  0
   -4.4925   -0.2459   -0.1248 C   0  0  0  0  0  0  0  0  0  0  0  0
   -3.1128    0.1627   -0.3375 C   0  0  0  0  0  0  0  0  0  0  0  0
   -2.3737   -0.5140   -1.2496 C   0  0  0  0  0  0  0  0  0  0  0  0
   -0.9760   -0.1427   -1.4780 C   0  0  0  0  0  0  0  0  0  0  0  0
   -0.2427   -0.8233   -2.3697 C   0  0  0  0  0  0  0  0  0  0  0  0
    1.1705   -0.4815   -2.6471 C   0  0  0  0  0  0  0  0  0  0  0  0
    1.8099   -1.2202   -3.3997 O   0  0  0  0  0  0  0  0  0  0  0  0
    1.7696    0.7985   -2.0583 C   0  0  0  0  0  0  0  0  0  0  0  0
    1.7531    1.8449   -3.1843 C   0  0  0  0  0  0  0  0  0  0  0  0
    3.1576    0.6172   -1.7231 O   0  0  0  0  0  0  0  0  0  0  0  0
    3.3912   -0.2861   -0.7318 C   0  0  0  0  0  0  0  0  0  0  0  0
    2.5161   -0.9114   -0.1526 O   0  0  0  0  0  0  0  0  0  0  0  0
    4.8514   -0.4023   -0.4571 C   0  0  0  0  0  0  0  0  0  0  0  0
    5.7923    0.3440   -1.1458 C   0  0  0  0  0  0  0  0  0  0  0  0
    7.1236    0.2459   -0.9026 N   0  0  0  0  0  0  0  0  0  0  0  0
    7.4948   -0.6259    0.0557 C   0  0  0  0  0  0  0  0  0  0  0  0
    8.8415   -0.7810    0.3603 C   0  0  0  0  0  0  0  0  0  0  0  0
    9.2652   -1.6735    1.3461 C   0  0  0  0  0  0  0  0  0  0  0  0
    8.3257   -2.4250    2.0402 C   0  0  0  0  0  0  0  0  0  0  0  0
    6.9698   -2.2780    1.7432 C   0  0  0  0  0  0  0  0  0  0  0  0
    6.5353   -1.3930    0.7645 C   0  0  0  0  0  0  0  0  0  0  0  0
    5.2177   -1.2830    0.5108 N   0  0  0  0  0  0  0  0  0  0  0  0
    0.9903    1.4050   -0.8913 C   0  0  0  0  0  0  0  0  0  0  0  0
    1.4856    2.2674   -0.1611 O   0  0  0  0  0  0  0  0  0  0  0  0
   -0.4140    0.9569   -0.7071 C   0  0  0  0  0  0  0  0  0  0  0  0
   -1.2106    1.5734    0.1837 C   0  0  0  0  0  0  0  0  0  0  0  0
   -2.5511    1.2205    0.4237 N   0  0  0  0  0  0  0  0  0  0  0  0
   -3.3302    2.0168    1.3988 C   0  0  0  0  0  0  0  0  0  0  0  0
   -2.9000    1.7400    2.8542 C   0  0  0  0  0  0  0  0  0  0  0  0
   -3.5837    2.7359    3.7943 C   0  0  0  0  0  0  0  0  0  0  0  0
   -3.2195    0.3115    3.2963 C   0  0  0  0  0  0  0  0  0  0  0  0
   -5.6986   -3.0876   -1.1613 H   0  0  0  0  0  0  0  0  0  0  0  0
   -7.0896   -3.7826   -2.0152 H   0  0  0  0  0  0  0  0  0  0  0  0
   -7.2816   -3.2526   -0.3324 H   0  0  0  0  0  0  0  0  0  0  0  0
   -7.0528   -0.9888    0.1727 H   0  0  0  0  0  0  0  0  0  0  0  0
   -7.5005    0.1475   -1.1023 H   0  0  0  0  0  0  0  0  0  0  0  0
   -5.1819    0.0236   -2.1025 H   0  0  0  0  0  0  0  0  0  0  0  0
   -4.7474   -0.5310    0.8922 H   0  0  0  0  0  0  0  0  0  0  0  0
   -2.7960   -1.3394   -1.8152 H   0  0  0  0  0  0  0  0  0  0  0  0
   -0.6329   -1.6653   -2.9315 H   0  0  0  0  0  0  0  0  0  0  0  0
    2.3313    1.5005   -4.0501 H   0  0  0  0  0  0  0  0  0  0  0  0
    0.7343    2.0656   -3.5223 H   0  0  0  0  0  0  0  0  0  0  0  0
    2.2131    2.7843   -2.8555 H   0  0  0  0  0  0  0  0  0  0  0  0
    5.5226    1.0523   -1.9211 H   0  0  0  0  0  0  0  0  0  0  0  0
    9.5762   -0.1921   -0.1838 H   0  0  0  0  0  0  0  0  0  0  0  0
   10.3245   -1.7782    1.5674 H   0  0  0  0  0  0  0  0  0  0  0  0
    8.6414   -3.1242    2.8106 H   0  0  0  0  0  0  0  0  0  0  0  0
    6.2333   -2.8661    2.2861 H   0  0  0  0  0  0  0  0  0  0  0  0
   -0.8514    2.4048    0.7863 H   0  0  0  0  0  0  0  0  0  0  0  0
   -4.4093    1.8583    1.2912 H   0  0  0  0  0  0  0  0  0  0  0  0
   -3.1746    3.0802    1.1704 H   0  0  0  0  0  0  0  0  0  0  0  0
   -1.8169    1.8857    2.9491 H   0  0  0  0  0  0  0  0  0  0  0  0
   -3.2657    2.5752    4.8299 H   0  0  0  0  0  0  0  0  0  0  0  0
   -3.3269    3.7654    3.5236 H   0  0  0  0  0  0  0  0  0  0  0  0
   -4.6738    2.6361    3.7550 H   0  0  0  0  0  0  0  0  0  0  0  0
   -2.6906   -0.4233    2.6817 H   0  0  0  0  0  0  0  0  0  0  0  0
   -4.2931    0.1060    3.2322 H   0  0  0  0  0  0  0  0  0  0  0  0
   -2.9103    0.1508    4.3348 H   0  0  0  0  0  0  0  0  0  0  0  0
  1  2  1  0
  2  3  1  0
  3  4  1  0
  4  5  2  3
  5  6  1  0
  6  7  2  0
  7  8  1  0
  8  9  2  0
  9 10  1  0
 10 11  2  0
 10 12  1  0
 12 13  1  0
 12 14  1  0
 14 15  1  0
 15 16  2  0
 15 17  1  0
 17 18  2  0
 18 19  1  0
 19 20  2  0
 20 21  1  0
 21 22  2  0
 22 23  1  0
 23 24  2  0
 24 25  1  0
 25 26  2  0
 12 27  1  0
 27 28  2  0
 27 29  1  0
 29 30  2  0
 30 31  1  0
 31 32  1  0
 32 33  1  0
 33 34  1  0
 33 35  1  0
 31  6  1  0
 29  8  1  0
 26 17  1  0
 25 20  1  0
  1 36  1  0
  1 37  1  0
  1 38  1  0
  3 39  1  0
  3 40  1  0
  4 41  1  0
  5 42  1  0
  7 43  1  0
  9 44  1  0
 13 45  1  0
 13 46  1  0
 13 47  1  0
 18 48  1  0
 21 49  1  0
 22 50  1  0
 23 51  1  0
 24 52  1  0
 30 53  1  0
 32 54  1  0
 32 55  1  0
 33 56  1  0
 34 57  1  0
 34 58  1  0
 34 59  1  0
 35 60  1  0
 35 61  1  0
 35 62  1  0
M  END
$$$$
