
     RDKit          3D

 60 63  0  0  0  0  0  0  0  0999 V2000
   -6.3127    2.8940   -1.9964 C   0  0  0  0  0  0  0  0  0  0  0  0
   -5.9979    1.5544   -1.6460 O   0  0  0  0  0  0  0  0  0  0  0  0
   -4.6836    1.2477   -1.3910 C   0  0  0  0  0  0  0  0  0  0  0  0
   -3.6513    2.1899   -1.3187 C   0  0  0  0  0  0  0  0  0  0  0  0
   -2.3388    1.7905   -1.0437 C   0  0  0  0  0  0  0  0  0  0  0  0
   -1.2743    2.6457   -0.9246 O   0  0  0  0  0  0  0  0  0  0  0  0
   -1.5089    4.0365   -1.1069 C   0  0  0  0  0  0  0  0  0  0  0  0
   -2.0372    0.4279   -0.8448 C   0  0  0  0  0  0  0  0  0  0  0  0
   -0.5941    0.0304   -0.5114 C   0  0  0  0  0  0  0  0  0  0  0  0
   -0.3037    0.2020    0.9853 C   0  0  0  0  0  0  0  0  0  0  0  0
    1.1305    0.6684    1.1971 C   0  0  0  0  0  0  0  0  0  0  0  0
    1.3383    1.8599    1.4139 O   0  0  0  0  0  0  0  0  0  0  0  0
    2.0937   -0.3186    1.0899 N   0  0  0  0  0  0  0  0  0  0  0  0
    3.5015   -0.1790    1.1836 C   0  0  0  0  0  0  0  0  0  0  0  0
    4.1277    1.0595    1.3557 C   0  0  0  0  0  0  0  0  0  0  0  0
    5.5200    1.1581    1.4468 C   0  0  0  0  0  0  0  0  0  0  0  0
    6.3189    0.0182    1.3742 C   0  0  0  0  0  0  0  0  0  0  0  0
    7.8125    0.1330    1.4398 C   0  0  0  0  0  0  0  0  0  0  0  0
    5.7040   -1.2223    1.1820 C   0  0  0  0  0  0  0  0  0  0  0  0
    4.3035   -1.3386    1.0895 C   0  0  0  0  0  0  0  0  0  0  0  0
    3.7203   -2.7132    0.8820 C   0  0  0  0  0  0  0  0  0  0  0  0
   -0.6330   -1.0580    1.7686 C   0  0  0  0  0  0  0  0  0  0  0  0
   -0.9787   -0.8988    3.2282 C   0  0  0  0  0  0  0  0  0  0  0  0
   -0.5737   -2.2594    1.2761 N   0  0  0  0  0  0  0  0  0  0  0  0
   -0.2589   -2.3920   -0.0348 C   0  0  0  0  0  0  0  0  0  0  0  0
    0.1372   -3.4528   -0.7013 N   0  0  0  0  0  0  0  0  0  0  0  0
    0.3396   -2.9870   -1.9712 C   0  0  0  0  0  0  0  0  0  0  0  0
    0.1163   -1.6819   -2.1422 N   0  0  0  0  0  0  0  0  0  0  0  0
   -0.2876   -1.3353   -0.9099 N   0  0  0  0  0  0  0  0  0  0  0  0
   -3.0871   -0.5101   -0.9028 C   0  0  0  0  0  0  0  0  0  0  0  0
   -4.4000   -0.1129   -1.1798 C   0  0  0  0  0  0  0  0  0  0  0  0
   -5.4694   -0.9707   -1.2518 O   0  0  0  0  0  0  0  0  0  0  0  0
   -5.2069   -2.3664   -1.1924 C   0  0  0  0  0  0  0  0  0  0  0  0
   -5.7640    3.2106   -2.8898 H   0  0  0  0  0  0  0  0  0  0  0  0
   -7.3810    2.9365   -2.2303 H   0  0  0  0  0  0  0  0  0  0  0  0
   -6.1298    3.5730   -1.1570 H   0  0  0  0  0  0  0  0  0  0  0  0
   -3.8740    3.2379   -1.4676 H   0  0  0  0  0  0  0  0  0  0  0  0
   -0.5540    4.5553   -0.9802 H   0  0  0  0  0  0  0  0  0  0  0  0
   -1.8703    4.2460   -2.1189 H   0  0  0  0  0  0  0  0  0  0  0  0
   -2.1998    4.4214   -0.3503 H   0  0  0  0  0  0  0  0  0  0  0  0
    0.0877    0.6479   -1.1124 H   0  0  0  0  0  0  0  0  0  0  0  0
   -0.9340    0.9992    1.4045 H   0  0  0  0  0  0  0  0  0  0  0  0
    1.7806   -1.2754    0.9787 H   0  0  0  0  0  0  0  0  0  0  0  0
    3.5640    1.9842    1.4189 H   0  0  0  0  0  0  0  0  0  0  0  0
    5.9717    2.1394    1.5750 H   0  0  0  0  0  0  0  0  0  0  0  0
    8.1103    0.9105    2.1520 H   0  0  0  0  0  0  0  0  0  0  0  0
    8.2656   -0.8055    1.7763 H   0  0  0  0  0  0  0  0  0  0  0  0
    8.2127    0.3820    0.4521 H   0  0  0  0  0  0  0  0  0  0  0  0
    6.3242   -2.1136    1.1024 H   0  0  0  0  0  0  0  0  0  0  0  0
    3.1787   -2.7545   -0.0685 H   0  0  0  0  0  0  0  0  0  0  0  0
    3.0451   -2.9688    1.7050 H   0  0  0  0  0  0  0  0  0  0  0  0
    4.4987   -3.4833    0.8484 H   0  0  0  0  0  0  0  0  0  0  0  0
   -1.8291   -0.2193    3.3279 H   0  0  0  0  0  0  0  0  0  0  0  0
   -0.1198   -0.4822    3.7604 H   0  0  0  0  0  0  0  0  0  0  0  0
   -1.2404   -1.8638    3.6702 H   0  0  0  0  0  0  0  0  0  0  0  0
    0.6682   -3.6162   -2.7891 H   0  0  0  0  0  0  0  0  0  0  0  0
   -2.8761   -1.5599   -0.7286 H   0  0  0  0  0  0  0  0  0  0  0  0
   -6.1544   -2.8911   -1.3451 H   0  0  0  0  0  0  0  0  0  0  0  0
   -4.5230   -2.6774   -1.9891 H   0  0  0  0  0  0  0  0  0  0  0  0
   -4.8244   -2.6519   -0.2070 H   0  0  0  0  0  0  0  0  0  0  0  0
  1  2  1  0
  2  3  1  0
  3  4  2  0
  4  5  1  0
  5  6  1  0
  6  7  1  0
  5  8  2  0
  8  9  1  0
  9 10  1  0
 10 11  1  0
 11 12  2  0
 11 13  1  0
 13 14  1  0
 14 15  2  0
 15 16  1  0
 16 17  2  0
 17 18  1  0
 17 19  1  0
 19 20  2  0
 20 21  1  0
 10 22  1  0
 22 23  1  0
 22 24  2  0
 24 25  1  0
 25 26  2  0
 26 27  1  0
 27 28  2  0
 28 29  1  0
  8 30  1  0
 30 31  2  0
 31 32  1  0
 32 33  1  0
 31  3  1  0
 29  9  1  0
 20 14  1  0
 29 25  1  0
  1 34  1  0
  1 35  1  0
  1 36  1  0
  4 37  1  0
  7 38  1  0
  7 39  1  0
  7 40  1  0
  9 41  1  0
 10 42  1  0
 13 43  1  0
 15 44  1  0
 16 45  1  0
 18 46  1  0
 18 47  1  0
 18 48  1  0
 19 49  1  0
 21 50  1  0
 21 51  1  0
 21 52  1  0
 23 53  1  0
 23 54  1  0
 23 55  1  0
 27 56  1  0
 30 57  1  0
 33 58  1  0
 33 59  1  0
 33 60  1  0
M  END
$$$$
