
     RDKit          3D

 52 56  0  0  0  0  0  0  0  0999 V2000
   -3.6456   -1.6160    0.5162 C   0  0  0  0  0  0  0  0  0  0  0  0
   -2.1459   -1.8018    0.3303 C   0  0  0  0  0  0  0  0  0  0  0  0
   -1.4411   -0.5097   -0.0969 C   0  0  0  0  0  0  0  0  0  0  0  0
   -1.6500    0.6832    0.8137 C   0  0  0  0  0  0  0  0  0  0  0  0
   -2.5811    1.4466    0.5875 O   0  0  0  0  0  0  0  0  0  0  0  0
   -0.7490    0.9255    1.9738 C   0  0  0  0  0  0  0  0  0  0  0  0
   -0.6166    2.2429    2.4343 C   0  0  0  0  0  0  0  0  0  0  0  0
    0.2551    2.5384    3.4842 C   0  0  0  0  0  0  0  0  0  0  0  0
    0.9840    1.5147    4.0870 C   0  0  0  0  0  0  0  0  0  0  0  0
    2.0722    1.8772    5.3671 Cl  0  0  0  0  0  0  0  0  0  0  0  0
    0.8424    0.1993    3.6533 C   0  0  0  0  0  0  0  0  0  0  0  0
   -0.0216   -0.0976    2.5933 C   0  0  0  0  0  0  0  0  0  0  0  0
   -1.4300   -0.1805   -1.5922 C   0  0  0  0  0  0  0  0  0  0  0  0
   -1.8916   -1.1031   -2.6771 C   0  0  0  0  0  0  0  0  0  0  0  0
   -3.0749   -0.8670   -3.3909 C   0  0  0  0  0  0  0  0  0  0  0  0
   -3.4684   -1.7049   -4.4391 C   0  0  0  0  0  0  0  0  0  0  0  0
   -2.6804   -2.7983   -4.7954 C   0  0  0  0  0  0  0  0  0  0  0  0
   -1.5047   -3.0586   -4.0986 C   0  0  0  0  0  0  0  0  0  0  0  0
   -1.1298   -2.2137   -3.0527 C   0  0  0  0  0  0  0  0  0  0  0  0
    0.0388   -2.5756   -2.3465 O   0  0  0  0  0  0  0  0  0  0  0  0
    0.4562   -1.9065   -1.1964 C   0  0  0  0  0  0  0  0  0  0  0  0
    1.2712   -2.3872   -0.4145 O   0  0  0  0  0  0  0  0  0  0  0  0
   -0.1185   -0.5584   -0.9257 C   0  0  0  0  0  0  0  0  0  0  0  0
    0.8905    0.5608   -0.7720 C   0  0  0  0  0  0  0  0  0  0  0  0
    0.6839    1.6310   -1.3274 O   0  0  0  0  0  0  0  0  0  0  0  0
    1.9590    0.2551    0.0476 N   0  0  0  0  0  0  0  0  0  0  0  0
    2.9562    1.1288    0.5251 C   0  0  0  0  0  0  0  0  0  0  0  0
    3.0204    2.4875    0.2121 C   0  0  0  0  0  0  0  0  0  0  0  0
    4.0281    3.2921    0.7534 C   0  0  0  0  0  0  0  0  0  0  0  0
    4.9748    2.7462    1.6172 C   0  0  0  0  0  0  0  0  0  0  0  0
    4.9185    1.3929    1.9383 C   0  0  0  0  0  0  0  0  0  0  0  0
    3.9159    0.5879    1.3921 C   0  0  0  0  0  0  0  0  0  0  0  0
   -4.1122   -1.1964   -0.3782 H   0  0  0  0  0  0  0  0  0  0  0  0
   -4.1220   -2.5778    0.7327 H   0  0  0  0  0  0  0  0  0  0  0  0
   -3.8572   -0.9462    1.3548 H   0  0  0  0  0  0  0  0  0  0  0  0
   -1.9889   -2.6120   -0.3876 H   0  0  0  0  0  0  0  0  0  0  0  0
   -1.7175   -2.1593    1.2708 H   0  0  0  0  0  0  0  0  0  0  0  0
   -1.1741    3.0491    1.9598 H   0  0  0  0  0  0  0  0  0  0  0  0
    0.3665    3.5641    3.8203 H   0  0  0  0  0  0  0  0  0  0  0  0
    1.4117   -0.5977    4.1262 H   0  0  0  0  0  0  0  0  0  0  0  0
   -0.0949   -1.1298    2.2725 H   0  0  0  0  0  0  0  0  0  0  0  0
   -1.5737    0.8761   -1.8307 H   0  0  0  0  0  0  0  0  0  0  0  0
   -3.6972   -0.0105   -3.1318 H   0  0  0  0  0  0  0  0  0  0  0  0
   -4.3891   -1.4984   -4.9800 H   0  0  0  0  0  0  0  0  0  0  0  0
   -2.9853   -3.4465   -5.6128 H   0  0  0  0  0  0  0  0  0  0  0  0
   -0.8898   -3.9141   -4.3650 H   0  0  0  0  0  0  0  0  0  0  0  0
    2.0319   -0.7105    0.3660 H   0  0  0  0  0  0  0  0  0  0  0  0
    2.3016    2.9597   -0.4498 H   0  0  0  0  0  0  0  0  0  0  0  0
    4.0713    4.3473    0.4948 H   0  0  0  0  0  0  0  0  0  0  0  0
    5.7537    3.3754    2.0393 H   0  0  0  0  0  0  0  0  0  0  0  0
    5.6530    0.9632    2.6168 H   0  0  0  0  0  0  0  0  0  0  0  0
    3.8942   -0.4667    1.6596 H   0  0  0  0  0  0  0  0  0  0  0  0
  1  2  1  0
  2  3  1  0
  3  4  1  0
  4  5  2  0
  4  6  1  0
  6  7  2  0
  7  8  1  0
  8  9  2  0
  9 10  1  0
  9 11  1  0
 11 12  2  0
  3 13  1  0
 13 14  1  0
 14 15  2  0
 15 16  1  0
 16 17  2  0
 17 18  1  0
 18 19  2  0
 19 20  1  0
 20 21  1  0
 21 22  2  0
 21 23  1  0
 23 24  1  0
 24 25  2  0
 24 26  1  0
 26 27  1  0
 27 28  2  0
 28 29  1  0
 29 30  2  0
 30 31  1  0
 31 32  2  0
 23  3  1  0
 32 27  1  0
 12  6  1  0
 23 13  1  0
 19 14  1  0
  1 33  1  0
  1 34  1  0
  1 35  1  0
  2 36  1  0
  2 37  1  0
  7 38  1  0
  8 39  1  0
 11 40  1  0
 12 41  1  0
 13 42  1  0
 15 43  1  0
 16 44  1  0
 17 45  1  0
 18 46  1  0
 26 47  1  0
 28 48  1  0
 29 49  1  0
 30 50  1  0
 31 51  1  0
 32 52  1  0
M  END
$$$$
