
     RDKit          3D

 44 47  0  0  0  0  0  0  0  0999 V2000
   -6.0389    0.5807   -2.4822 C   0  0  0  0  0  0  0  0  0  0  0  0
   -6.2496    0.1951   -1.0260 C   0  0  0  0  0  0  0  0  0  0  0  0
   -4.9547   -0.1783   -0.3522 C   0  0  0  0  0  0  0  0  0  0  0  0
   -4.1747    0.7937    0.2817 C   0  0  0  0  0  0  0  0  0  0  0  0
   -2.9660    0.4439    0.8912 C   0  0  0  0  0  0  0  0  0  0  0  0
   -2.5122   -0.8806    0.8755 C   0  0  0  0  0  0  0  0  0  0  0  0
   -1.2836   -1.1422    1.5123 N   0  0  0  0  0  0  0  0  0  0  0  0
   -0.6224   -2.3555    1.6284 C   0  0  0  0  0  0  0  0  0  0  0  0
   -1.0303   -3.4432    1.2274 O   0  0  0  0  0  0  0  0  0  0  0  0
    0.6990   -2.2508    2.3948 C   0  0  0  0  0  0  0  0  0  0  0  0
    1.6945   -1.4727    1.6612 N   0  0  0  0  0  0  0  0  0  0  0  0
    2.6500   -2.2015    0.9534 N   0  0  0  0  0  0  0  0  0  0  0  0
    3.5715   -1.5563    0.3011 C   0  0  0  0  0  0  0  0  0  0  0  0
    3.6261   -0.1693    0.3061 N   0  0  0  0  0  0  0  0  0  0  0  0
    2.7094    0.5773    0.9940 C   0  0  0  0  0  0  0  0  0  0  0  0
    3.0169    1.9080    0.8157 C   0  0  0  0  0  0  0  0  0  0  0  0
    4.1696    1.9720   -0.0140 C   0  0  0  0  0  0  0  0  0  0  0  0
    4.9351    3.0348   -0.5313 C   0  0  0  0  0  0  0  0  0  0  0  0
    6.0414    2.7560   -1.3402 C   0  0  0  0  0  0  0  0  0  0  0  0
    6.3898    1.4415   -1.6366 C   0  0  0  0  0  0  0  0  0  0  0  0
    5.6467    0.3681   -1.1360 C   0  0  0  0  0  0  0  0  0  0  0  0
    4.5371    0.6573   -0.3242 C   0  0  0  0  0  0  0  0  0  0  0  0
    1.6587   -0.0713    1.7245 C   0  0  0  0  0  0  0  0  0  0  0  0
    0.7798    0.5378    2.3335 O   0  0  0  0  0  0  0  0  0  0  0  0
   -3.2859   -1.8486    0.2368 C   0  0  0  0  0  0  0  0  0  0  0  0
   -4.4965   -1.5002   -0.3740 C   0  0  0  0  0  0  0  0  0  0  0  0
   -6.9944    0.8468   -2.9452 H   0  0  0  0  0  0  0  0  0  0  0  0
   -5.3669    1.4410   -2.5723 H   0  0  0  0  0  0  0  0  0  0  0  0
   -5.6038   -0.2464   -3.0533 H   0  0  0  0  0  0  0  0  0  0  0  0
   -6.9537   -0.6435   -0.9628 H   0  0  0  0  0  0  0  0  0  0  0  0
   -6.7196    1.0266   -0.4868 H   0  0  0  0  0  0  0  0  0  0  0  0
   -4.5011    1.8309    0.3054 H   0  0  0  0  0  0  0  0  0  0  0  0
   -2.3837    1.2236    1.3766 H   0  0  0  0  0  0  0  0  0  0  0  0
   -0.8225   -0.3338    1.9312 H   0  0  0  0  0  0  0  0  0  0  0  0
    0.5080   -1.7838    3.3677 H   0  0  0  0  0  0  0  0  0  0  0  0
    1.0902   -3.2580    2.5758 H   0  0  0  0  0  0  0  0  0  0  0  0
    4.3311   -2.1144   -0.2675 H   0  0  0  0  0  0  0  0  0  0  0  0
    2.4706    2.7433    1.2363 H   0  0  0  0  0  0  0  0  0  0  0  0
    4.6709    4.0646   -0.3064 H   0  0  0  0  0  0  0  0  0  0  0  0
    6.6332    3.5759   -1.7408 H   0  0  0  0  0  0  0  0  0  0  0  0
    7.2539    1.2460   -2.2686 H   0  0  0  0  0  0  0  0  0  0  0  0
    5.9319   -0.6511   -1.3780 H   0  0  0  0  0  0  0  0  0  0  0  0
   -2.9771   -2.8879    0.1915 H   0  0  0  0  0  0  0  0  0  0  0  0
   -5.0776   -2.2755   -0.8687 H   0  0  0  0  0  0  0  0  0  0  0  0
  1  2  1  0
  2  3  1  0
  3  4  2  0
  4  5  1  0
  5  6  2  0
  6  7  1  0
  7  8  1  0
  8  9  2  0
  8 10  1  0
 10 11  1  0
 11 12  1  0
 12 13  2  0
 13 14  1  0
 14 15  1  0
 15 16  2  0
 16 17  1  0
 17 18  2  0
 18 19  1  0
 19 20  2  0
 20 21  1  0
 21 22  2  0
 15 23  1  0
 23 24  2  0
  6 25  1  0
 25 26  2  0
 26  3  1  0
 23 11  1  0
 22 14  1  0
 22 17  1  0
  1 27  1  0
  1 28  1  0
  1 29  1  0
  2 30  1  0
  2 31  1  0
  4 32  1  0
  5 33  1  0
  7 34  1  0
 10 35  1  0
 10 36  1  0
 13 37  1  0
 16 38  1  0
 18 39  1  0
 19 40  1  0
 20 41  1  0
 21 42  1  0
 25 43  1  0
 26 44  1  0
M  END
$$$$
