
     RDKit          3D

 37 37  0  0  0  0  0  0  0  0999 V2000
    4.6863   -1.0309    1.3168 C   0  0  0  0  0  0  0  0  0  0  0  0
    3.7884   -1.0556    0.0895 C   0  0  0  0  0  0  0  0  0  0  0  0
    3.1072    0.2847   -0.1998 C   0  0  0  0  0  0  0  0  0  0  0  0
    2.0914    0.6899    0.8712 C   0  0  0  0  0  0  0  0  0  0  0  0
    1.4058    2.0298    0.5824 C   0  0  0  0  0  0  0  0  0  0  0  0
    0.5905    2.0989   -0.7131 C   0  0  0  0  0  0  0  0  0  0  0  0
   -0.4896    1.0261   -0.8759 C   0  0  0  0  0  0  0  0  0  0  0  0
   -1.5526    1.0629    0.2249 C   0  0  0  0  0  0  0  0  0  0  0  0
   -2.6026    0.0658   -0.0444 N   0  0  0  0  0  0  0  0  0  0  0  0
   -3.7270    0.3923   -0.7927 C   0  0  0  0  0  0  0  0  0  0  0  0
   -4.7051   -0.4677   -1.1027 C   0  0  0  0  0  0  0  0  0  0  0  0
   -4.5861   -1.8667   -0.6241 C   0  0  0  0  0  0  0  0  0  0  0  0
   -5.5151   -2.7236   -0.9001 N   0  0  0  0  0  0  0  0  0  0  0  0
   -3.3731   -2.2141    0.1631 C   0  0  0  0  0  0  0  0  0  0  0  0
   -2.4765   -1.2462    0.3954 C   0  0  0  0  0  0  0  0  0  0  0  0
    4.1091   -0.8874    2.2346 H   0  0  0  0  0  0  0  0  0  0  0  0
    5.2215   -1.9815    1.4089 H   0  0  0  0  0  0  0  0  0  0  0  0
    5.4289   -0.2301    1.2447 H   0  0  0  0  0  0  0  0  0  0  0  0
    4.3981   -1.3285   -0.7802 H   0  0  0  0  0  0  0  0  0  0  0  0
    3.0327   -1.8413    0.2052 H   0  0  0  0  0  0  0  0  0  0  0  0
    2.6039    0.1974   -1.1693 H   0  0  0  0  0  0  0  0  0  0  0  0
    3.8669    1.0684   -0.3057 H   0  0  0  0  0  0  0  0  0  0  0  0
    1.3409   -0.0996    0.9908 H   0  0  0  0  0  0  0  0  0  0  0  0
    2.5978    0.7828    1.8388 H   0  0  0  0  0  0  0  0  0  0  0  0
    2.1689    2.8179    0.5503 H   0  0  0  0  0  0  0  0  0  0  0  0
    0.7566    2.2777    1.4308 H   0  0  0  0  0  0  0  0  0  0  0  0
    0.1181    3.0879   -0.7689 H   0  0  0  0  0  0  0  0  0  0  0  0
    1.2693    2.0442   -1.5725 H   0  0  0  0  0  0  0  0  0  0  0  0
   -0.0298    0.0320   -0.9222 H   0  0  0  0  0  0  0  0  0  0  0  0
   -0.9735    1.1763   -1.8497 H   0  0  0  0  0  0  0  0  0  0  0  0
   -1.9937    2.0657    0.2881 H   0  0  0  0  0  0  0  0  0  0  0  0
   -1.1027    0.8630    1.2045 H   0  0  0  0  0  0  0  0  0  0  0  0
   -3.7723    1.4248   -1.1267 H   0  0  0  0  0  0  0  0  0  0  0  0
   -5.5752   -0.1985   -1.6845 H   0  0  0  0  0  0  0  0  0  0  0  0
   -5.2899   -3.6401   -0.5038 H   0  0  0  0  0  0  0  0  0  0  0  0
   -3.2451   -3.2249    0.5210 H   0  0  0  0  0  0  0  0  0  0  0  0
   -1.5725   -1.4518    0.9614 H   0  0  0  0  0  0  0  0  0  0  0  0
  1  2  1  0
  2  3  1  0
  3  4  1  0
  4  5  1  0
  5  6  1  0
  6  7  1  0
  7  8  1  0
  8  9  1  0
  9 10  1  0
 10 11  2  0
 11 12  1  0
 12 13  2  3
 12 14  1  0
 14 15  2  0
 15  9  1  0
  1 16  1  0
  1 17  1  0
  1 18  1  0
  2 19  1  0
  2 20  1  0
  3 21  1  0
  3 22  1  0
  4 23  1  0
  4 24  1  0
  5 25  1  0
  5 26  1  0
  6 27  1  0
  6 28  1  0
  7 29  1  0
  7 30  1  0
  8 31  1  0
  8 32  1  0
 10 33  1  0
 11 34  1  0
 13 35  1  0
 14 36  1  0
 15 37  1  0
M  END
$$$$
