
     RDKit          3D

 57 59  0  0  0  0  0  0  0  0999 V2000
   -4.4815   -2.5279    1.3513 C   0  0  0  0  0  0  0  0  0  0  0  0
   -4.1092   -1.1185    1.7872 C   0  0  0  0  0  0  0  0  0  0  0  0
   -3.5447   -0.3327    0.6805 N   0  0  0  0  0  0  0  0  0  0  0  0
   -2.1726   -0.4933    0.4416 C   0  0  0  0  0  0  0  0  0  0  0  0
   -1.4792   -1.2484    1.1297 O   0  0  0  0  0  0  0  0  0  0  0  0
   -1.5360    0.3176   -0.6967 C   0  0  0  0  0  0  0  0  0  0  0  0
   -0.1643   -0.0419   -0.8923 O   0  0  0  0  0  0  0  0  0  0  0  0
    0.0004   -1.1929   -1.5959 C   0  0  0  0  0  0  0  0  0  0  0  0
   -0.8744   -1.8086   -2.1770 O   0  0  0  0  0  0  0  0  0  0  0  0
    1.4280   -1.5842   -1.5422 C   0  0  0  0  0  0  0  0  0  0  0  0
    2.4126   -0.5901   -1.6660 C   0  0  0  0  0  0  0  0  0  0  0  0
    3.7824   -0.9153   -1.6231 C   0  0  0  0  0  0  0  0  0  0  0  0
    4.9349    0.4282   -1.8304 S   0  0  0  0  0  6  0  0  0  0  0  0
    4.1866    1.5224   -2.4180 O   0  0  0  0  0  0  0  0  0  0  0  0
    6.1252   -0.0600   -2.4863 O   0  0  0  0  0  0  0  0  0  0  0  0
    5.3262    0.8932   -0.2521 N   0  0  0  0  0  0  0  0  0  0  0  0
    6.2094   -0.0014    0.5445 C   0  0  0  0  0  0  0  0  0  0  0  0
    6.7406    0.7613    1.7646 C   0  0  0  0  0  0  0  0  0  0  0  0
    5.6605    1.2643    2.5676 O   0  0  0  0  0  0  0  0  0  0  0  0
    4.8560    2.1755    1.8034 C   0  0  0  0  0  0  0  0  0  0  0  0
    4.2410    1.4765    0.5852 C   0  0  0  0  0  0  0  0  0  0  0  0
    4.1674   -2.2501   -1.4932 C   0  0  0  0  0  0  0  0  0  0  0  0
    5.7962   -2.8110   -1.4301 Cl  0  0  0  0  0  0  0  0  0  0  0  0
    3.1805   -3.2400   -1.3720 C   0  0  0  0  0  0  0  0  0  0  0  0
    1.8182   -2.9162   -1.3918 C   0  0  0  0  0  0  0  0  0  0  0  0
    0.7017   -4.2149   -1.1778 Cl  0  0  0  0  0  0  0  0  0  0  0  0
   -4.3938    0.6620   -0.0022 C   0  0  0  0  0  0  0  0  0  0  0  0
   -4.5605    1.9429    0.8312 C   0  0  0  0  0  0  0  0  0  0  0  0
   -5.5174    2.8300    0.0454 C   0  0  0  0  0  0  0  0  0  0  0  0
   -6.6822    1.7129   -0.7211 S   0  0  0  0  0  6  0  0  0  0  0  0
   -6.6450    1.9299   -2.1518 O   0  0  0  0  0  0  0  0  0  0  0  0
   -7.9143    1.7320    0.0377 O   0  0  0  0  0  0  0  0  0  0  0  0
   -5.8098    0.2002   -0.3538 C   0  0  0  0  0  0  0  0  0  0  0  0
   -3.6062   -3.0743    0.9853 H   0  0  0  0  0  0  0  0  0  0  0  0
   -4.9030   -3.0856    2.1931 H   0  0  0  0  0  0  0  0  0  0  0  0
   -5.2223   -2.5139    0.5462 H   0  0  0  0  0  0  0  0  0  0  0  0
   -3.3734   -1.1780    2.5978 H   0  0  0  0  0  0  0  0  0  0  0  0
   -4.9793   -0.6023    2.2038 H   0  0  0  0  0  0  0  0  0  0  0  0
   -1.5535    1.3751   -0.4151 H   0  0  0  0  0  0  0  0  0  0  0  0
   -2.0946    0.1954   -1.6300 H   0  0  0  0  0  0  0  0  0  0  0  0
    2.1050    0.4465   -1.8061 H   0  0  0  0  0  0  0  0  0  0  0  0
    7.0591   -0.3399   -0.0546 H   0  0  0  0  0  0  0  0  0  0  0  0
    5.6291   -0.8653    0.8851 H   0  0  0  0  0  0  0  0  0  0  0  0
    7.3359    0.0910    2.3923 H   0  0  0  0  0  0  0  0  0  0  0  0
    7.3823    1.5976    1.4625 H   0  0  0  0  0  0  0  0  0  0  0  0
    4.0624    2.5471    2.4589 H   0  0  0  0  0  0  0  0  0  0  0  0
    5.4713    3.0316    1.5018 H   0  0  0  0  0  0  0  0  0  0  0  0
    3.5782    0.6712    0.9214 H   0  0  0  0  0  0  0  0  0  0  0  0
    3.6589    2.2058    0.0145 H   0  0  0  0  0  0  0  0  0  0  0  0
    3.4764   -4.2825   -1.2545 H   0  0  0  0  0  0  0  0  0  0  0  0
   -3.9111    0.9514   -0.9402 H   0  0  0  0  0  0  0  0  0  0  0  0
   -3.6050    2.4475    1.0073 H   0  0  0  0  0  0  0  0  0  0  0  0
   -4.9920    1.7113    1.8124 H   0  0  0  0  0  0  0  0  0  0  0  0
   -4.9917    3.3638   -0.7517 H   0  0  0  0  0  0  0  0  0  0  0  0
   -6.0481    3.5399    0.6831 H   0  0  0  0  0  0  0  0  0  0  0  0
   -5.8298   -0.4602   -1.2237 H   0  0  0  0  0  0  0  0  0  0  0  0
   -6.3317   -0.2748    0.4800 H   0  0  0  0  0  0  0  0  0  0  0  0
  1  2  1  0
  2  3  1  0
  3  4  1  0
  4  5  2  0
  4  6  1  0
  6  7  1  0
  7  8  1  0
  8  9  2  0
  8 10  1  0
 10 11  2  0
 11 12  1  0
 12 13  1  0
 13 14  2  0
 13 15  2  0
 13 16  1  0
 16 17  1  0
 17 18  1  0
 18 19  1  0
 19 20  1  0
 20 21  1  0
 12 22  2  0
 22 23  1  0
 22 24  1  0
 24 25  2  0
 25 26  1  0
  3 27  1  0
 27 28  1  0
 28 29  1  0
 29 30  1  0
 30 31  2  0
 30 32  2  0
 30 33  1  0
 25 10  1  0
 33 27  1  0
 21 16  1  0
  1 34  1  0
  1 35  1  0
  1 36  1  0
  2 37  1  0
  2 38  1  0
  6 39  1  0
  6 40  1  0
 11 41  1  0
 17 42  1  0
 17 43  1  0
 18 44  1  0
 18 45  1  0
 20 46  1  0
 20 47  1  0
 21 48  1  0
 21 49  1  0
 24 50  1  0
 27 51  1  0
 28 52  1  0
 28 53  1  0
 29 54  1  0
 29 55  1  0
 33 56  1  0
 33 57  1  0
M  END
$$$$
