
     RDKit          3D

 77 83  0  0  0  0  0  0  0  0999 V2000
   -6.9337   -1.5293   -0.2097 C   0  0  0  0  0  0  0  0  0  0  0  0
   -5.9348   -1.4127   -1.3669 C   0  0  0  0  0  0  0  0  0  0  0  0
   -6.3503   -0.2288   -2.2542 C   0  0  0  0  0  0  0  0  0  0  0  0
   -5.9002   -2.6805   -2.2262 C   0  0  0  0  0  0  0  0  0  0  0  0
   -4.6093   -1.0654   -0.8922 O   0  0  0  0  0  0  0  0  0  0  0  0
   -3.9313   -1.8806   -0.0454 C   0  0  0  0  0  0  0  0  0  0  0  0
   -4.3522   -2.9513    0.3732 O   0  0  0  0  0  0  0  0  0  0  0  0
   -2.6962   -1.3647    0.2895 N   0  0  0  0  0  0  0  0  0  0  0  0
   -1.8084   -2.1286    1.1686 C   0  0  0  0  0  0  0  0  0  0  0  0
   -0.3258   -1.7953    0.9204 C   0  0  0  0  0  0  0  0  0  0  0  0
   -0.0441   -0.3770    1.1178 N   0  0  0  0  0  0  0  0  0  0  0  0
   -1.1625    0.5526    0.7538 C   0  0  2  0  0  0  0  0  0  0  0  0
   -2.2081   -0.0642   -0.1906 C   0  0  0  0  0  0  0  0  0  0  0  0
   -0.4394    1.7127    0.1976 C   0  0  0  0  0  0  0  0  0  0  0  0
    0.9404    1.5081    0.1810 C   0  0  0  0  0  0  0  0  0  0  0  0
    1.5469    2.6342   -0.3109 C   0  0  0  0  0  0  0  0  0  0  0  0
    2.8395    2.8195   -0.5766 O   0  0  0  0  0  0  0  0  0  0  0  0
    0.5264    3.5686   -0.5724 N   0  0  0  0  0  0  0  0  0  0  0  0
    0.7087    4.8886   -1.0790 C   0  0  0  0  0  0  0  0  0  0  0  0
   -0.1924    5.4121   -2.0161 C   0  0  0  0  0  0  0  0  0  0  0  0
   -0.0116    6.7056   -2.5084 C   0  0  0  0  0  0  0  0  0  0  0  0
    1.0620    7.4787   -2.0683 C   0  0  0  0  0  0  0  0  0  0  0  0
    1.9598    6.9616   -1.1360 C   0  0  0  0  0  0  0  0  0  0  0  0
    1.7868    5.6681   -0.6388 C   0  0  0  0  0  0  0  0  0  0  0  0
   -0.7092    2.9762   -0.2482 C   0  0  0  0  0  0  0  0  0  0  0  0
   -1.8879    3.5930   -0.2968 O   0  0  0  0  0  0  0  0  0  0  0  0
    1.2801    0.1507    0.6580 C   0  0  1  0  0  0  0  0  0  0  0  0
    2.3135    0.1145    1.8131 C   0  0  0  0  0  0  0  0  0  0  0  0
    2.1996    0.5910    2.9364 O   0  0  0  0  0  0  0  0  0  0  0  0
    3.4179   -0.6130    1.3368 N   0  0  0  0  0  0  0  0  0  0  0  0
    4.5548   -0.9503    2.1592 C   0  0  0  0  0  0  0  0  0  0  0  0
    4.4619   -2.3486    2.7294 C   0  0  0  0  0  0  0  0  0  0  0  0
    3.4483   -2.6776    3.6437 C   0  0  0  0  0  0  0  0  0  0  0  0
    3.3509   -3.9689    4.1635 C   0  0  0  0  0  0  0  0  0  0  0  0
    4.2683   -4.9451    3.7809 C   0  0  0  0  0  0  0  0  0  0  0  0
    5.2861   -4.6296    2.8821 C   0  0  0  0  0  0  0  0  0  0  0  0
    5.3839   -3.3385    2.3588 C   0  0  0  0  0  0  0  0  0  0  0  0
    3.2362   -1.0040    0.0018 C   0  0  0  0  0  0  0  0  0  0  0  0
    4.1030   -1.7092   -0.8149 C   0  0  0  0  0  0  0  0  0  0  0  0
    3.7092   -1.9637   -2.1316 C   0  0  0  0  0  0  0  0  0  0  0  0
    2.4701   -1.5116   -2.6105 C   0  0  0  0  0  0  0  0  0  0  0  0
    1.6027   -0.8026   -1.7770 C   0  0  0  0  0  0  0  0  0  0  0  0
    1.9930   -0.5588   -0.4643 C   0  0  0  0  0  0  0  0  0  0  0  0
   -6.8575   -0.6629    0.4581 H   0  0  0  0  0  0  0  0  0  0  0  0
   -6.7485   -2.4164    0.4039 H   0  0  0  0  0  0  0  0  0  0  0  0
   -7.9639   -1.5971   -0.5776 H   0  0  0  0  0  0  0  0  0  0  0  0
   -6.3466    0.7066   -1.6816 H   0  0  0  0  0  0  0  0  0  0  0  0
   -5.6395   -0.0910   -3.0778 H   0  0  0  0  0  0  0  0  0  0  0  0
   -7.3499   -0.3689   -2.6799 H   0  0  0  0  0  0  0  0  0  0  0  0
   -5.6713   -3.5704   -1.6319 H   0  0  0  0  0  0  0  0  0  0  0  0
   -5.1212   -2.6072   -2.9932 H   0  0  0  0  0  0  0  0  0  0  0  0
   -6.8619   -2.8559   -2.7188 H   0  0  0  0  0  0  0  0  0  0  0  0
   -1.9780   -3.2019    1.0246 H   0  0  0  0  0  0  0  0  0  0  0  0
   -2.0886   -1.8872    2.2016 H   0  0  0  0  0  0  0  0  0  0  0  0
    0.2972   -2.3907    1.5969 H   0  0  0  0  0  0  0  0  0  0  0  0
   -0.1015   -2.1128   -0.1027 H   0  0  0  0  0  0  0  0  0  0  0  0
   -1.6568    0.8423    1.6899 H   0  0  0  0  0  0  0  0  0  0  0  0
   -1.7813   -0.2407   -1.1864 H   0  0  0  0  0  0  0  0  0  0  0  0
   -3.0480    0.6279   -0.3208 H   0  0  0  0  0  0  0  0  0  0  0  0
    2.9339    3.5387   -1.2261 H   0  0  0  0  0  0  0  0  0  0  0  0
   -1.0138    4.8151   -2.4090 H   0  0  0  0  0  0  0  0  0  0  0  0
   -0.7042    7.1083   -3.2437 H   0  0  0  0  0  0  0  0  0  0  0  0
    1.1982    8.4873   -2.4529 H   0  0  0  0  0  0  0  0  0  0  0  0
    2.7900    7.5713   -0.7866 H   0  0  0  0  0  0  0  0  0  0  0  0
    2.4758    5.3078    0.1226 H   0  0  0  0  0  0  0  0  0  0  0  0
   -1.7410    4.5538   -0.2162 H   0  0  0  0  0  0  0  0  0  0  0  0
    5.4712   -0.8197    1.5717 H   0  0  0  0  0  0  0  0  0  0  0  0
    4.6213   -0.2421    2.9943 H   0  0  0  0  0  0  0  0  0  0  0  0
    2.7265   -1.9242    3.9572 H   0  0  0  0  0  0  0  0  0  0  0  0
    2.5588   -4.2105    4.8675 H   0  0  0  0  0  0  0  0  0  0  0  0
    4.1909   -5.9507    4.1861 H   0  0  0  0  0  0  0  0  0  0  0  0
    6.0040   -5.3918    2.5886 H   0  0  0  0  0  0  0  0  0  0  0  0
    6.1858   -3.1131    1.6600 H   0  0  0  0  0  0  0  0  0  0  0  0
    5.0662   -2.0577   -0.4636 H   0  0  0  0  0  0  0  0  0  0  0  0
    4.3720   -2.5149   -2.7954 H   0  0  0  0  0  0  0  0  0  0  0  0
    2.1835   -1.7155   -3.6400 H   0  0  0  0  0  0  0  0  0  0  0  0
    0.6455   -0.4517   -2.1493 H   0  0  0  0  0  0  0  0  0  0  0  0
  1  2  1  0
  2  3  1  0
  2  4  1  0
  2  5  1  0
  5  6  1  0
  6  7  2  0
  6  8  1  0
  8  9  1  0
  9 10  1  0
 10 11  1  0
 11 12  1  0
 12 13  1  0
 12 14  1  0
 14 15  1  0
 15 16  2  0
 16 17  1  0
 16 18  1  0
 18 19  1  0
 19 20  2  0
 20 21  1  0
 21 22  2  0
 22 23  1  0
 23 24  2  0
 18 25  1  0
 25 26  1  0
 15 27  1  0
 27 28  1  0
 28 29  2  0
 28 30  1  0
 30 31  1  0
 31 32  1  0
 32 33  2  0
 33 34  1  0
 34 35  2  0
 35 36  1  0
 36 37  2  0
 30 38  1  0
 38 39  2  0
 39 40  1  0
 40 41  2  0
 41 42  1  0
 42 43  2  0
 13  8  1  0
 25 14  2  0
 43 27  1  0
 27 11  1  1
 37 32  1  0
 43 38  1  0
 24 19  1  0
  1 44  1  0
  1 45  1  0
  1 46  1  0
  3 47  1  0
  3 48  1  0
  3 49  1  0
  4 50  1  0
  4 51  1  0
  4 52  1  0
  9 53  1  0
  9 54  1  0
 10 55  1  0
 10 56  1  0
 12 57  1  1
 13 58  1  0
 13 59  1  0
 17 60  1  0
 20 61  1  0
 21 62  1  0
 22 63  1  0
 23 64  1  0
 24 65  1  0
 26 66  1  0
 31 67  1  0
 31 68  1  0
 33 69  1  0
 34 70  1  0
 35 71  1  0
 36 72  1  0
 37 73  1  0
 39 74  1  0
 40 75  1  0
 41 76  1  0
 42 77  1  0
M  END
$$$$
