
     RDKit          3D

 50 50  0  0  0  0  0  0  0  0999 V2000
    7.6160    3.1168    2.0709 C   0  0  0  0  0  0  0  0  0  0  0  0
    7.5936    1.8185    1.7201 C   0  0  0  0  0  0  0  0  0  0  0  0
    8.8508    0.9908    1.7040 C   0  0  0  0  0  0  0  0  0  0  0  0
    6.3073    1.1047    1.3746 C   0  0  0  0  0  0  0  0  0  0  0  0
    6.1699    0.9121   -0.4249 S   0  0  0  0  0  0  0  0  0  0  0  0
    4.6803    0.0304   -0.5273 C   0  0  0  0  0  0  0  0  0  0  0  0
    3.9327   -0.3278    0.4980 N   0  0  0  0  0  0  0  0  0  0  0  0
    2.8521   -1.0130   -0.0157 N   0  0  0  0  0  0  0  0  0  0  0  0
    3.0089   -1.0171   -1.3219 C   0  0  0  0  0  0  0  0  0  0  0  0
    2.1574   -1.6053   -2.3821 C   0  0  0  0  0  0  0  0  0  0  0  0
    0.6591   -1.4709   -2.0940 C   0  0  0  0  0  0  0  0  0  0  0  0
    0.1754   -0.0155   -2.1146 C   0  0  0  0  0  0  0  0  0  0  0  0
   -1.3485    0.1134   -2.0386 C   0  0  0  0  0  0  0  0  0  0  0  0
   -1.9365   -0.3568   -0.7119 C   0  0  0  0  0  0  0  0  0  0  0  0
   -3.3714   -0.1850   -0.6934 N   0  0  0  0  0  0  0  0  0  0  0  0
   -4.0845   -0.2142    0.4675 C   0  0  0  0  0  0  0  0  0  0  0  0
   -3.6060   -0.2006    1.5897 O   0  0  0  0  0  0  0  0  0  0  0  0
   -5.3993   -0.2818    0.1576 O   0  0  0  0  0  0  0  0  0  0  0  0
   -6.4041   -0.3435    1.2029 C   0  0  0  0  0  0  0  0  0  0  0  0
   -6.2514   -1.6129    2.0495 C   0  0  0  0  0  0  0  0  0  0  0  0
   -6.3930    0.9247    2.0640 C   0  0  0  0  0  0  0  0  0  0  0  0
   -7.7422   -0.4147    0.4512 C   0  0  0  0  0  0  0  0  0  0  0  0
    4.1499   -0.3801   -1.7234 O   0  0  0  0  0  0  0  0  0  0  0  0
    8.5429    3.6200    2.3321 H   0  0  0  0  0  0  0  0  0  0  0  0
    6.7083    3.7138    2.1018 H   0  0  0  0  0  0  0  0  0  0  0  0
    9.7242    1.5656    2.0312 H   0  0  0  0  0  0  0  0  0  0  0  0
    8.7499    0.1329    2.3775 H   0  0  0  0  0  0  0  0  0  0  0  0
    9.0601    0.6185    0.6962 H   0  0  0  0  0  0  0  0  0  0  0  0
    6.2839    0.1264    1.8676 H   0  0  0  0  0  0  0  0  0  0  0  0
    5.4435    1.6749    1.7349 H   0  0  0  0  0  0  0  0  0  0  0  0
    2.3882   -1.1435   -3.3496 H   0  0  0  0  0  0  0  0  0  0  0  0
    2.4071   -2.6694   -2.4714 H   0  0  0  0  0  0  0  0  0  0  0  0
    0.4268   -1.9315   -1.1265 H   0  0  0  0  0  0  0  0  0  0  0  0
    0.1123   -2.0396   -2.8565 H   0  0  0  0  0  0  0  0  0  0  0  0
    0.5115    0.4606   -3.0444 H   0  0  0  0  0  0  0  0  0  0  0  0
    0.6282    0.5463   -1.2894 H   0  0  0  0  0  0  0  0  0  0  0  0
   -1.6150    1.1667   -2.1913 H   0  0  0  0  0  0  0  0  0  0  0  0
   -1.8073   -0.4397   -2.8669 H   0  0  0  0  0  0  0  0  0  0  0  0
   -1.7436   -1.4212   -0.5462 H   0  0  0  0  0  0  0  0  0  0  0  0
   -1.4990    0.1978    0.1250 H   0  0  0  0  0  0  0  0  0  0  0  0
   -3.9175   -0.3911   -1.5190 H   0  0  0  0  0  0  0  0  0  0  0  0
   -5.3485   -1.5863    2.6667 H   0  0  0  0  0  0  0  0  0  0  0  0
   -7.1043   -1.7469    2.7240 H   0  0  0  0  0  0  0  0  0  0  0  0
   -6.1695   -2.4994    1.4103 H   0  0  0  0  0  0  0  0  0  0  0  0
   -5.4885    0.9955    2.6754 H   0  0  0  0  0  0  0  0  0  0  0  0
   -6.4186    1.8223    1.4349 H   0  0  0  0  0  0  0  0  0  0  0  0
   -7.2518    0.9522    2.7448 H   0  0  0  0  0  0  0  0  0  0  0  0
   -7.7732   -1.2904   -0.2074 H   0  0  0  0  0  0  0  0  0  0  0  0
   -7.8733    0.4618   -0.1940 H   0  0  0  0  0  0  0  0  0  0  0  0
   -8.5934   -0.4682    1.1383 H   0  0  0  0  0  0  0  0  0  0  0  0
  1  2  2  0
  2  3  1  0
  2  4  1  0
  4  5  1  0
  5  6  1  0
  6  7  2  0
  7  8  1  0
  8  9  2  0
  9 10  1  0
 10 11  1  0
 11 12  1  0
 12 13  1  0
 13 14  1  0
 14 15  1  0
 15 16  1  0
 16 17  2  0
 16 18  1  0
 18 19  1  0
 19 20  1  0
 19 21  1  0
 19 22  1  0
  9 23  1  0
 23  6  1  0
  1 24  1  0
  1 25  1  0
  3 26  1  0
  3 27  1  0
  3 28  1  0
  4 29  1  0
  4 30  1  0
 10 31  1  0
 10 32  1  0
 11 33  1  0
 11 34  1  0
 12 35  1  0
 12 36  1  0
 13 37  1  0
 13 38  1  0
 14 39  1  0
 14 40  1  0
 15 41  1  0
 20 42  1  0
 20 43  1  0
 20 44  1  0
 21 45  1  0
 21 46  1  0
 21 47  1  0
 22 48  1  0
 22 49  1  0
 22 50  1  0
M  END
$$$$
