
     RDKit          3D

 58 62  0  0  0  0  0  0  0  0999 V2000
   -4.4110    1.3744   -3.1340 C   0  0  0  0  0  0  0  0  0  0  0  0
   -5.0837    0.6554   -2.1003 O   0  0  0  0  0  0  0  0  0  0  0  0
   -4.8259    1.1599   -0.8523 C   0  0  0  0  0  0  0  0  0  0  0  0
   -5.0644    2.5062   -0.5548 C   0  0  0  0  0  0  0  0  0  0  0  0
   -4.8410    2.9899    0.7338 C   0  0  0  0  0  0  0  0  0  0  0  0
   -4.3966    2.1269    1.7312 C   0  0  0  0  0  0  0  0  0  0  0  0
   -4.1783    0.7792    1.4414 C   0  0  0  0  0  0  0  0  0  0  0  0
   -4.3905    0.2753    0.1459 C   0  0  0  0  0  0  0  0  0  0  0  0
   -4.1376   -1.1895   -0.1425 C   0  0  0  0  0  0  0  0  0  0  0  0
   -2.7194   -1.5462   -0.0799 N   0  0  0  0  0  0  0  0  0  0  0  0
   -2.1972   -2.0907    1.0869 C   0  0  0  0  0  0  0  0  0  0  0  0
   -2.8724   -2.3206    2.0889 O   0  0  0  0  0  0  0  0  0  0  0  0
   -0.7456   -2.4342    1.1131 C   0  0  0  0  0  0  0  0  0  0  0  0
   -0.2189   -3.0288    2.2700 C   0  0  0  0  0  0  0  0  0  0  0  0
    1.1239   -3.3952    2.3238 C   0  0  0  0  0  0  0  0  0  0  0  0
    1.9422   -3.1797    1.2192 C   0  0  0  0  0  0  0  0  0  0  0  0
    1.4285   -2.5855    0.0618 C   0  0  0  0  0  0  0  0  0  0  0  0
    0.0865   -2.1933    0.0096 C   0  0  0  0  0  0  0  0  0  0  0  0
   -0.5133   -1.5765   -1.1092 N   0  0  0  0  0  0  0  0  0  0  0  0
   -0.0489   -1.1026   -2.3209 C   0  0  0  0  0  0  0  0  0  0  0  0
    1.5983   -0.9194   -2.8257 S   0  0  0  0  0  0  0  0  0  0  0  0
    1.8361    0.8354   -2.4033 C   0  0  0  0  0  0  0  0  0  0  0  0
    1.9749    0.9867   -0.8950 C   0  0  0  0  0  0  0  0  0  0  0  0
    0.9593    1.1215   -0.2051 O   0  0  0  0  0  0  0  0  0  0  0  0
    3.2504    0.9559   -0.3253 N   0  0  0  0  0  0  0  0  0  0  0  0
    4.4057    0.3345   -0.9795 C   0  0  0  0  0  0  0  0  0  0  0  0
    5.7292    0.9169   -0.4926 C   0  0  0  0  0  0  0  0  0  0  0  0
    5.8243    0.8882    1.0281 C   0  0  0  0  0  0  0  0  0  0  0  0
    4.6253    1.5998    1.6420 C   0  0  0  0  0  0  0  0  0  0  0  0
    3.3121    1.0113    1.1373 C   0  0  0  0  0  0  0  0  0  0  0  0
   -1.0522   -0.6900   -3.0627 N   0  0  0  0  0  0  0  0  0  0  0  0
   -2.1969   -0.8263   -2.3276 N   0  0  0  0  0  0  0  0  0  0  0  0
   -1.8704   -1.3081   -1.1484 C   0  0  0  0  0  0  0  0  0  0  0  0
   -5.0020    2.2448   -3.4362 H   0  0  0  0  0  0  0  0  0  0  0  0
   -3.4010    1.6820   -2.8380 H   0  0  0  0  0  0  0  0  0  0  0  0
   -4.3230    0.7114   -4.0001 H   0  0  0  0  0  0  0  0  0  0  0  0
   -5.4413    3.1824   -1.3155 H   0  0  0  0  0  0  0  0  0  0  0  0
   -5.0237    4.0364    0.9610 H   0  0  0  0  0  0  0  0  0  0  0  0
   -4.2260    2.4985    2.7381 H   0  0  0  0  0  0  0  0  0  0  0  0
   -3.8441    0.1173    2.2383 H   0  0  0  0  0  0  0  0  0  0  0  0
   -4.7018   -1.7842    0.5871 H   0  0  0  0  0  0  0  0  0  0  0  0
   -4.5248   -1.4913   -1.1225 H   0  0  0  0  0  0  0  0  0  0  0  0
   -0.8570   -3.2136    3.1329 H   0  0  0  0  0  0  0  0  0  0  0  0
    1.5254   -3.8583    3.2220 H   0  0  0  0  0  0  0  0  0  0  0  0
    2.9869   -3.4823    1.2546 H   0  0  0  0  0  0  0  0  0  0  0  0
    2.1117   -2.4737   -0.7696 H   0  0  0  0  0  0  0  0  0  0  0  0
    0.9758    1.4276   -2.7354 H   0  0  0  0  0  0  0  0  0  0  0  0
    2.7006    1.2454   -2.9292 H   0  0  0  0  0  0  0  0  0  0  0  0
    4.3566    0.4414   -2.0638 H   0  0  0  0  0  0  0  0  0  0  0  0
    4.3599   -0.7391   -0.7601 H   0  0  0  0  0  0  0  0  0  0  0  0
    6.5640    0.3577   -0.9292 H   0  0  0  0  0  0  0  0  0  0  0  0
    5.8182    1.9542   -0.8396 H   0  0  0  0  0  0  0  0  0  0  0  0
    5.8594   -0.1506    1.3787 H   0  0  0  0  0  0  0  0  0  0  0  0
    6.7521    1.3720    1.3532 H   0  0  0  0  0  0  0  0  0  0  0  0
    4.6681    2.6653    1.3830 H   0  0  0  0  0  0  0  0  0  0  0  0
    4.6684    1.5312    2.7345 H   0  0  0  0  0  0  0  0  0  0  0  0
    3.1833   -0.0128    1.5083 H   0  0  0  0  0  0  0  0  0  0  0  0
    2.4817    1.6072    1.5316 H   0  0  0  0  0  0  0  0  0  0  0  0
  1  2  1  0
  2  3  1  0
  3  4  2  0
  4  5  1  0
  5  6  2  0
  6  7  1  0
  7  8  2  0
  8  9  1  0
  9 10  1  0
 10 11  1  0
 11 12  2  0
 11 13  1  0
 13 14  2  0
 14 15  1  0
 15 16  2  0
 16 17  1  0
 17 18  2  0
 18 19  1  0
 19 20  1  0
 20 21  1  0
 21 22  1  0
 22 23  1  0
 23 24  2  0
 23 25  1  0
 25 26  1  0
 26 27  1  0
 27 28  1  0
 28 29  1  0
 29 30  1  0
 20 31  2  0
 31 32  1  0
 32 33  2  0
  8  3  1  0
 33 10  1  0
 18 13  1  0
 33 19  1  0
 30 25  1  0
  1 34  1  0
  1 35  1  0
  1 36  1  0
  4 37  1  0
  5 38  1  0
  6 39  1  0
  7 40  1  0
  9 41  1  0
  9 42  1  0
 14 43  1  0
 15 44  1  0
 16 45  1  0
 17 46  1  0
 22 47  1  0
 22 48  1  0
 26 49  1  0
 26 50  1  0
 27 51  1  0
 27 52  1  0
 28 53  1  0
 28 54  1  0
 29 55  1  0
 29 56  1  0
 30 57  1  0
 30 58  1  0
M  END
$$$$
