
     RDKit          3D

 43 45  0  0  0  0  0  0  0  0999 V2000
    3.4469    0.8140   -3.1220 C   0  0  0  0  0  0  0  0  0  0  0  0
    3.7501    0.2409   -1.7681 C   0  0  0  0  0  0  0  0  0  0  0  0
    4.6883   -0.7852   -1.6278 C   0  0  0  0  0  0  0  0  0  0  0  0
    4.9420   -1.3404   -0.3729 C   0  0  0  0  0  0  0  0  0  0  0  0
    4.2635   -0.8758    0.7630 C   0  0  0  0  0  0  0  0  0  0  0  0
    4.5425   -1.4993    2.1027 C   0  0  0  0  0  0  0  0  0  0  0  0
    3.3112    0.1516    0.6295 C   0  0  0  0  0  0  0  0  0  0  0  0
    2.6833    0.5285    1.7884 O   0  0  0  0  0  0  0  0  0  0  0  0
    1.8996    1.7228    1.7968 C   0  0  0  0  0  0  0  0  0  0  0  0
    0.4978    1.3688    1.4858 C   0  0  0  0  0  0  0  0  0  0  0  0
   -0.3991    0.4634    1.9933 C   0  0  0  0  0  0  0  0  0  0  0  0
   -1.5791    0.6414    1.2199 C   0  0  0  0  0  0  0  0  0  0  0  0
   -2.8417   -0.0952    1.4027 C   0  0  0  0  0  0  0  0  0  0  0  0
   -3.0349   -0.7116    2.4533 O   0  0  0  0  0  0  0  0  0  0  0  0
   -3.8147   -0.1007    0.3887 N   0  0  0  0  0  0  0  0  0  0  0  0
   -5.0159   -0.8958    0.6386 C   0  0  0  0  0  0  0  0  0  0  0  0
   -6.1569   -0.4978   -0.2922 C   0  0  0  0  0  0  0  0  0  0  0  0
   -5.7541   -0.6088   -1.6737 N   0  0  0  0  0  0  0  0  0  0  0  0
   -4.5119   -0.2158   -2.0960 C   0  0  0  0  0  0  0  0  0  0  0  0
   -4.2594   -0.1660   -3.2986 O   0  0  0  0  0  0  0  0  0  0  0  0
   -3.4873    0.1875   -1.0208 C   0  0  0  0  0  0  0  0  0  0  0  0
   -1.3969    1.6265    0.3246 N   0  0  0  0  0  0  0  0  0  0  0  0
   -0.1016    2.0711    0.4902 O   0  0  0  0  0  0  0  0  0  0  0  0
    3.0510    0.6896   -0.6370 C   0  0  0  0  0  0  0  0  0  0  0  0
    2.6481    0.2402   -3.6043 H   0  0  0  0  0  0  0  0  0  0  0  0
    4.3356    0.7941   -3.7620 H   0  0  0  0  0  0  0  0  0  0  0  0
    3.1315    1.8609   -3.0401 H   0  0  0  0  0  0  0  0  0  0  0  0
    5.2254   -1.1620   -2.4957 H   0  0  0  0  0  0  0  0  0  0  0  0
    5.6731   -2.1410   -0.2871 H   0  0  0  0  0  0  0  0  0  0  0  0
    4.7940   -0.7304    2.8403 H   0  0  0  0  0  0  0  0  0  0  0  0
    5.3900   -2.1921    2.0552 H   0  0  0  0  0  0  0  0  0  0  0  0
    3.6655   -2.0605    2.4436 H   0  0  0  0  0  0  0  0  0  0  0  0
    2.3099    2.5032    1.1473 H   0  0  0  0  0  0  0  0  0  0  0  0
    1.9407    2.1213    2.8171 H   0  0  0  0  0  0  0  0  0  0  0  0
   -0.2372   -0.2396    2.7977 H   0  0  0  0  0  0  0  0  0  0  0  0
   -4.7428   -1.9460    0.4793 H   0  0  0  0  0  0  0  0  0  0  0  0
   -5.3295   -0.7866    1.6834 H   0  0  0  0  0  0  0  0  0  0  0  0
   -6.4558    0.5423   -0.1206 H   0  0  0  0  0  0  0  0  0  0  0  0
   -7.0276   -1.1428   -0.1407 H   0  0  0  0  0  0  0  0  0  0  0  0
   -6.4346   -0.7758   -2.4059 H   0  0  0  0  0  0  0  0  0  0  0  0
   -3.3569    1.2707   -1.1211 H   0  0  0  0  0  0  0  0  0  0  0  0
   -2.5487   -0.3259   -1.2608 H   0  0  0  0  0  0  0  0  0  0  0  0
    2.2966    1.4562   -0.7825 H   0  0  0  0  0  0  0  0  0  0  0  0
  1  2  1  0
  2  3  2  0
  3  4  1  0
  4  5  2  0
  5  6  1  0
  5  7  1  0
  7  8  1  0
  8  9  1  0
  9 10  1  0
 10 11  2  0
 11 12  1  0
 12 13  1  0
 13 14  2  0
 13 15  1  0
 15 16  1  0
 16 17  1  0
 17 18  1  0
 18 19  1  0
 19 20  2  0
 19 21  1  0
 12 22  2  0
 22 23  1  0
  7 24  2  0
 24  2  1  0
 23 10  1  0
 21 15  1  0
  1 25  1  0
  1 26  1  0
  1 27  1  0
  3 28  1  0
  4 29  1  0
  6 30  1  0
  6 31  1  0
  6 32  1  0
  9 33  1  0
  9 34  1  0
 11 35  1  0
 16 36  1  0
 16 37  1  0
 17 38  1  0
 17 39  1  0
 18 40  1  0
 21 41  1  0
 21 42  1  0
 24 43  1  0
M  END
$$$$
