
     RDKit          3D

 47 49  0  0  0  0  0  0  0  0999 V2000
    3.5878    1.8965   -1.0785 C   0  0  0  0  0  0  0  0  0  0  0  0
    3.7350    0.5670   -0.3873 C   0  0  0  0  0  0  0  0  0  0  0  0
    3.0991    0.3704    0.8532 C   0  0  0  0  0  0  0  0  0  0  0  0
    3.2041   -0.8462    1.5257 C   0  0  0  0  0  0  0  0  0  0  0  0
    2.6160   -1.1691    2.7187 O   0  0  0  0  0  0  0  0  0  0  0  0
    1.9473   -0.1419    3.4586 C   0  0  0  0  0  0  0  0  0  0  0  0
    0.5769    0.0245    2.9246 C   0  0  0  0  0  0  0  0  0  0  0  0
   -0.3861   -0.8345    2.4514 C   0  0  0  0  0  0  0  0  0  0  0  0
   -1.4400    0.0147    2.0304 C   0  0  0  0  0  0  0  0  0  0  0  0
   -2.6989   -0.3710    1.3982 C   0  0  0  0  0  0  0  0  0  0  0  0
   -3.7466   -0.3924    2.0441 O   0  0  0  0  0  0  0  0  0  0  0  0
   -2.6455   -0.7317    0.0455 N   0  0  0  0  0  0  0  0  0  0  0  0
   -1.5010   -0.4282   -0.8066 C   0  0  0  0  0  0  0  0  0  0  0  0
   -3.9194   -0.9587   -0.6373 C   0  0  0  0  0  0  0  0  0  0  0  0
   -4.4618    0.2831   -1.3151 C   0  0  0  0  0  0  0  0  0  0  0  0
   -5.1805    1.2299   -0.5879 C   0  0  0  0  0  0  0  0  0  0  0  0
   -5.6340    2.3745   -1.2379 C   0  0  0  0  0  0  0  0  0  0  0  0
   -5.3568    2.5471   -2.5883 C   0  0  0  0  0  0  0  0  0  0  0  0
   -4.6302    1.5639   -3.2371 C   0  0  0  0  0  0  0  0  0  0  0  0
   -4.1748    0.4429   -2.6348 N   0  0  0  0  0  0  0  0  0  0  0  0
   -1.1458    1.3027    2.2759 N   0  0  0  0  0  0  0  0  0  0  0  0
    0.1172    1.3017    2.8381 O   0  0  0  0  0  0  0  0  0  0  0  0
    3.9505   -1.8786    0.9529 C   0  0  0  0  0  0  0  0  0  0  0  0
    4.6015   -1.7146   -0.2806 C   0  0  0  0  0  0  0  0  0  0  0  0
    5.3916   -2.8619   -0.8484 C   0  0  0  0  0  0  0  0  0  0  0  0
    4.4857   -0.4834   -0.9491 C   0  0  0  0  0  0  0  0  0  0  0  0
    5.2702   -0.2584   -2.4815 Cl  0  0  0  0  0  0  0  0  0  0  0  0
    3.1037    1.7701   -2.0529 H   0  0  0  0  0  0  0  0  0  0  0  0
    2.9700    2.5884   -0.4952 H   0  0  0  0  0  0  0  0  0  0  0  0
    4.5673    2.3678   -1.2109 H   0  0  0  0  0  0  0  0  0  0  0  0
    2.5162    1.1902    1.2624 H   0  0  0  0  0  0  0  0  0  0  0  0
    2.5253    0.7894    3.4738 H   0  0  0  0  0  0  0  0  0  0  0  0
    1.8834   -0.4855    4.4968 H   0  0  0  0  0  0  0  0  0  0  0  0
   -0.3271   -1.9115    2.3813 H   0  0  0  0  0  0  0  0  0  0  0  0
   -0.5607   -0.6550   -0.3011 H   0  0  0  0  0  0  0  0  0  0  0  0
   -1.5191    0.6362   -1.0591 H   0  0  0  0  0  0  0  0  0  0  0  0
   -1.5466   -1.0281   -1.7193 H   0  0  0  0  0  0  0  0  0  0  0  0
   -3.7593   -1.7449   -1.3855 H   0  0  0  0  0  0  0  0  0  0  0  0
   -4.6680   -1.3500    0.0610 H   0  0  0  0  0  0  0  0  0  0  0  0
   -5.3792    1.0854    0.4708 H   0  0  0  0  0  0  0  0  0  0  0  0
   -6.1942    3.1276   -0.6909 H   0  0  0  0  0  0  0  0  0  0  0  0
   -5.6951    3.4287   -3.1211 H   0  0  0  0  0  0  0  0  0  0  0  0
   -4.3852    1.6551   -4.2915 H   0  0  0  0  0  0  0  0  0  0  0  0
    4.0225   -2.8267    1.4833 H   0  0  0  0  0  0  0  0  0  0  0  0
    6.4348   -2.5695   -1.0042 H   0  0  0  0  0  0  0  0  0  0  0  0
    5.3940   -3.7216   -0.1692 H   0  0  0  0  0  0  0  0  0  0  0  0
    4.9560   -3.1941   -1.7961 H   0  0  0  0  0  0  0  0  0  0  0  0
  1  2  1  0
  2  3  2  0
  3  4  1  0
  4  5  1  0
  5  6  1  0
  6  7  1  0
  7  8  2  0
  8  9  1  0
  9 10  1  0
 10 11  2  0
 10 12  1  0
 12 13  1  0
 12 14  1  0
 14 15  1  0
 15 16  2  0
 16 17  1  0
 17 18  2  0
 18 19  1  0
 19 20  2  0
  9 21  2  0
 21 22  1  0
  4 23  2  0
 23 24  1  0
 24 25  1  0
 24 26  2  0
 26 27  1  0
 26  2  1  0
 22  7  1  0
 20 15  1  0
  1 28  1  0
  1 29  1  0
  1 30  1  0
  3 31  1  0
  6 32  1  0
  6 33  1  0
  8 34  1  0
 13 35  1  0
 13 36  1  0
 13 37  1  0
 14 38  1  0
 14 39  1  0
 16 40  1  0
 17 41  1  0
 18 42  1  0
 19 43  1  0
 23 44  1  0
 25 45  1  0
 25 46  1  0
 25 47  1  0
M  END
$$$$
