
     RDKit          3D

 49 52  0  0  0  0  0  0  0  0999 V2000
    1.3078    2.4955    1.2946 O   0  0  0  0  0  0  0  0  0  0  0  0
    1.2186    1.3347    1.6876 C   0  0  0  0  0  0  0  0  0  0  0  0
    2.4274    0.6120    2.2883 C   0  0  0  0  0  0  0  0  0  0  0  0
    2.8530   -0.5152    1.4628 N   0  0  0  0  0  0  0  0  0  0  0  0
    3.9429   -0.2980    0.6507 N   0  0  0  0  0  0  0  0  0  0  0  0
    4.3792   -1.2861   -0.0683 C   0  0  0  0  0  0  0  0  0  0  0  0
    5.5547   -1.0657   -0.9585 C   0  0  0  0  0  0  0  0  0  0  0  0
    5.7176    0.1969   -1.5499 C   0  0  0  0  0  0  0  0  0  0  0  0
    6.8079    0.4462   -2.3858 C   0  0  0  0  0  0  0  0  0  0  0  0
    7.7354   -0.5618   -2.6195 C   0  0  0  0  0  0  0  0  0  0  0  0
    8.7823   -0.3237   -3.4197 F   0  0  0  0  0  0  0  0  0  0  0  0
    7.5972   -1.8134   -2.0288 C   0  0  0  0  0  0  0  0  0  0  0  0
    6.5072   -2.0685   -1.1920 C   0  0  0  0  0  0  0  0  0  0  0  0
    3.7640   -2.6322   -0.0796 C   0  0  0  0  0  0  0  0  0  0  0  0
    2.7118   -2.8233    0.7178 C   0  0  0  0  0  0  0  0  0  0  0  0
    2.1913   -1.7273    1.5561 C   0  0  0  0  0  0  0  0  0  0  0  0
    1.1963   -1.9165    2.2551 O   0  0  0  0  0  0  0  0  0  0  0  0
    0.0628    0.5673    1.7044 N   0  0  0  0  0  0  0  0  0  0  0  0
   -1.2231    0.9242    1.2576 C   0  0  0  0  0  0  0  0  0  0  0  0
   -2.2247   -0.0504    1.3653 C   0  0  0  0  0  0  0  0  0  0  0  0
   -3.5329    0.2147    0.9446 C   0  0  0  0  0  0  0  0  0  0  0  0
   -3.8514    1.4637    0.4019 C   0  0  0  0  0  0  0  0  0  0  0  0
   -5.2273    1.7974   -0.0583 C   0  0  0  0  0  0  0  0  0  0  0  0
   -5.6266    2.9558   -0.0115 O   0  0  0  0  0  0  0  0  0  0  0  0
   -5.9718    0.7432   -0.5557 N   0  0  0  0  0  0  0  0  0  0  0  0
   -7.2907    0.9295   -1.0721 C   0  0  0  0  0  0  0  0  0  0  0  0
   -8.1701   -0.2529   -1.3740 C   0  0  0  0  0  0  0  0  0  0  0  0
   -8.4898    0.6413   -0.2126 C   0  0  0  0  0  0  0  0  0  0  0  0
   -2.8593    2.4449    0.3104 C   0  0  0  0  0  0  0  0  0  0  0  0
   -1.5512    2.1737    0.7305 C   0  0  0  0  0  0  0  0  0  0  0  0
    3.2561    1.3216    2.3903 H   0  0  0  0  0  0  0  0  0  0  0  0
    2.1636    0.2549    3.2905 H   0  0  0  0  0  0  0  0  0  0  0  0
    4.9950    0.9901   -1.3648 H   0  0  0  0  0  0  0  0  0  0  0  0
    6.9392    1.4188   -2.8500 H   0  0  0  0  0  0  0  0  0  0  0  0
    8.3449   -2.5780   -2.2169 H   0  0  0  0  0  0  0  0  0  0  0  0
    6.4354   -3.0411   -0.7139 H   0  0  0  0  0  0  0  0  0  0  0  0
    4.1341   -3.4130   -0.7286 H   0  0  0  0  0  0  0  0  0  0  0  0
    2.1862   -3.7677    0.7704 H   0  0  0  0  0  0  0  0  0  0  0  0
    0.1639   -0.3816    2.0680 H   0  0  0  0  0  0  0  0  0  0  0  0
   -1.9998   -1.0275    1.7884 H   0  0  0  0  0  0  0  0  0  0  0  0
   -4.2909   -0.5518    1.0771 H   0  0  0  0  0  0  0  0  0  0  0  0
   -5.5124   -0.1388   -0.7397 H   0  0  0  0  0  0  0  0  0  0  0  0
   -7.3679    1.7799   -1.7475 H   0  0  0  0  0  0  0  0  0  0  0  0
   -7.8041   -1.2487   -1.1563 H   0  0  0  0  0  0  0  0  0  0  0  0
   -8.8095   -0.1951   -2.2475 H   0  0  0  0  0  0  0  0  0  0  0  0
   -8.3225    0.2642    0.7893 H   0  0  0  0  0  0  0  0  0  0  0  0
   -9.3364    1.3129   -0.2969 H   0  0  0  0  0  0  0  0  0  0  0  0
   -3.0978    3.4285   -0.0909 H   0  0  0  0  0  0  0  0  0  0  0  0
   -0.8153    2.9663    0.6355 H   0  0  0  0  0  0  0  0  0  0  0  0
  1  2  2  0
  2  3  1  0
  3  4  1  0
  4  5  1  0
  5  6  2  0
  6  7  1  0
  7  8  2  0
  8  9  1  0
  9 10  2  0
 10 11  1  0
 10 12  1  0
 12 13  2  0
  6 14  1  0
 14 15  2  0
 15 16  1  0
 16 17  2  0
  2 18  1  0
 18 19  1  0
 19 20  2  0
 20 21  1  0
 21 22  2  0
 22 23  1  0
 23 24  2  0
 23 25  1  0
 25 26  1  0
 26 27  1  0
 27 28  1  0
 22 29  1  0
 29 30  2  0
 16  4  1  0
 30 19  1  0
 13  7  1  0
 28 26  1  0
  3 31  1  0
  3 32  1  0
  8 33  1  0
  9 34  1  0
 12 35  1  0
 13 36  1  0
 14 37  1  0
 15 38  1  0
 18 39  1  0
 20 40  1  0
 21 41  1  0
 25 42  1  0
 26 43  1  0
 27 44  1  0
 27 45  1  0
 28 46  1  0
 28 47  1  0
 29 48  1  0
 30 49  1  0
M  END
$$$$
