
     RDKit          3D

 32 33  0  0  0  0  0  0  0  0999 V2000
    0.1455    2.3322   -1.0374 O   0  0  0  0  0  0  0  0  0  0  0  0
    0.2585    1.1093   -1.0516 C   0  0  0  0  0  0  0  0  0  0  0  0
   -0.6636    0.2632   -1.5825 N   0  0  0  0  0  0  0  0  0  0  0  0
   -1.9493    0.7161   -2.0546 C   0  0  0  0  0  0  0  0  0  0  0  0
   -2.9900    0.6127   -0.9687 C   0  0  0  0  0  0  0  0  0  0  0  0
   -3.1735    1.6656   -0.0592 C   0  0  0  0  0  0  0  0  0  0  0  0
   -4.1213    1.5668    0.9620 C   0  0  0  0  0  0  0  0  0  0  0  0
   -4.8889    0.4101    1.0898 C   0  0  0  0  0  0  0  0  0  0  0  0
   -4.7017   -0.6458    0.1999 C   0  0  0  0  0  0  0  0  0  0  0  0
   -5.6414   -2.0788    0.3680 Cl  0  0  0  0  0  0  0  0  0  0  0  0
   -3.7586   -0.5518   -0.8243 C   0  0  0  0  0  0  0  0  0  0  0  0
    1.3809    0.5365   -0.5148 N   0  0  0  0  0  0  0  0  0  0  0  0
    1.6403   -0.8032   -0.2983 C   0  0  0  0  0  0  0  0  0  0  0  0
    0.8700   -1.7021   -0.6295 O   0  0  0  0  0  0  0  0  0  0  0  0
    2.9161   -1.0975    0.3701 C   0  0  0  0  0  0  0  0  0  0  0  0
    3.2333   -2.3874    0.7730 C   0  0  0  0  0  0  0  0  0  0  0  0
    4.7645   -2.5075    1.5259 S   0  0  0  0  0  0  0  0  0  0  0  0
    5.0393   -0.8465    1.3345 C   0  0  0  0  0  0  0  0  0  0  0  0
    6.2604   -0.2425    1.8050 N   0  0  0  0  0  4  0  0  0  0  0  0
    6.3506    0.9842    1.6578 O   0  0  0  0  0  0  0  0  0  0  0  0
    7.1207   -0.9695    2.3142 O   0  0  0  0  0  1  0  0  0  0  0  0
    3.9956   -0.2007    0.7013 C   0  0  0  0  0  0  0  0  0  0  0  0
   -0.5585   -0.7252   -1.3689 H   0  0  0  0  0  0  0  0  0  0  0  0
   -2.2263    0.0860   -2.9074 H   0  0  0  0  0  0  0  0  0  0  0  0
   -1.8815    1.7468   -2.4216 H   0  0  0  0  0  0  0  0  0  0  0  0
   -2.5711    2.5697   -0.1427 H   0  0  0  0  0  0  0  0  0  0  0  0
   -4.2575    2.3923    1.6571 H   0  0  0  0  0  0  0  0  0  0  0  0
   -5.6250    0.3370    1.8860 H   0  0  0  0  0  0  0  0  0  0  0  0
   -3.6202   -1.3865   -1.5075 H   0  0  0  0  0  0  0  0  0  0  0  0
    2.0073    1.2324   -0.1463 H   0  0  0  0  0  0  0  0  0  0  0  0
    2.6244   -3.2770    0.6608 H   0  0  0  0  0  0  0  0  0  0  0  0
    4.0206    0.8611    0.4856 H   0  0  0  0  0  0  0  0  0  0  0  0
  1  2  2  0
  2  3  1  0
  3  4  1  0
  4  5  1  0
  5  6  2  0
  6  7  1  0
  7  8  2  0
  8  9  1  0
  9 10  1  0
  9 11  2  0
  2 12  1  0
 12 13  1  0
 13 14  2  0
 13 15  1  0
 15 16  2  0
 16 17  1  0
 17 18  1  0
 18 19  1  0
 19 20  2  0
 19 21  1  0
 18 22  2  0
 11  5  1  0
 22 15  1  0
  3 23  1  0
  4 24  1  0
  4 25  1  0
  6 26  1  0
  7 27  1  0
  8 28  1  0
 11 29  1  0
 12 30  1  0
 16 31  1  0
 22 32  1  0
M  CHG  2  19   1  21  -1
M  END
$$$$
