
     RDKit          3D

 41 42  0  0  0  0  0  0  0  0999 V2000
   -3.1968   -1.3830   -2.4185 C   0  0  0  0  0  0  0  0  0  0  0  0
   -3.2666    0.0344   -2.2532 O   0  0  0  0  0  0  0  0  0  0  0  0
   -2.8041    0.4046   -1.0176 C   0  0  0  0  0  0  0  0  0  0  0  0
   -3.5629    0.1126    0.1198 C   0  0  0  0  0  0  0  0  0  0  0  0
   -3.1205    0.5205    1.3767 C   0  0  0  0  0  0  0  0  0  0  0  0
   -1.9311    1.2350    1.4942 C   0  0  0  0  0  0  0  0  0  0  0  0
   -1.1861    1.5464    0.3546 C   0  0  0  0  0  0  0  0  0  0  0  0
   -1.6116    1.1345   -0.9211 C   0  0  0  0  0  0  0  0  0  0  0  0
   -0.7890    1.4781   -2.1395 C   0  0  0  0  0  0  0  0  0  0  0  0
    0.5445    0.9234   -2.0524 N   0  0  0  0  0  0  0  0  0  0  0  0
    0.8312   -0.3526   -2.4899 C   0  0  0  0  0  0  0  0  0  0  0  0
    0.0838   -1.0317   -3.1881 O   0  0  0  0  0  0  0  0  0  0  0  0
    2.2125   -0.8507   -2.0546 C   0  0  0  0  0  0  0  0  0  0  0  0
    2.6668   -0.3158   -0.8181 O   0  0  0  0  0  0  0  0  0  0  0  0
    2.0397   -0.7097    0.3400 C   0  0  0  0  0  0  0  0  0  0  0  0
    1.1288   -1.7670    0.4324 C   0  0  0  0  0  0  0  0  0  0  0  0
    0.5375   -2.0810    1.6575 C   0  0  0  0  0  0  0  0  0  0  0  0
    0.8545   -1.3465    2.7959 C   0  0  0  0  0  0  0  0  0  0  0  0
    1.7635   -0.2905    2.7161 C   0  0  0  0  0  0  0  0  0  0  0  0
    2.3615    0.0346    1.4938 C   0  0  0  0  0  0  0  0  0  0  0  0
    3.2393    1.0757    1.3129 O   0  0  0  0  0  0  0  0  0  0  0  0
    3.7396    1.7153    2.4790 C   0  0  0  0  0  0  0  0  0  0  0  0
   -2.2686   -1.8031   -2.0148 H   0  0  0  0  0  0  0  0  0  0  0  0
   -3.2289   -1.5971   -3.4909 H   0  0  0  0  0  0  0  0  0  0  0  0
   -4.0627   -1.8624   -1.9507 H   0  0  0  0  0  0  0  0  0  0  0  0
   -4.5042   -0.4209    0.0269 H   0  0  0  0  0  0  0  0  0  0  0  0
   -3.7074    0.2893    2.2612 H   0  0  0  0  0  0  0  0  0  0  0  0
   -1.5825    1.5548    2.4726 H   0  0  0  0  0  0  0  0  0  0  0  0
   -0.2635    2.1109    0.4695 H   0  0  0  0  0  0  0  0  0  0  0  0
   -1.2574    1.1369   -3.0678 H   0  0  0  0  0  0  0  0  0  0  0  0
   -0.6868    2.5670   -2.2062 H   0  0  0  0  0  0  0  0  0  0  0  0
    1.1636    1.2938   -1.3390 H   0  0  0  0  0  0  0  0  0  0  0  0
    2.9196   -0.5224   -2.8250 H   0  0  0  0  0  0  0  0  0  0  0  0
    2.2421   -1.9457   -2.0487 H   0  0  0  0  0  0  0  0  0  0  0  0
    0.8482   -2.3675   -0.4265 H   0  0  0  0  0  0  0  0  0  0  0  0
   -0.1765   -2.8988    1.7194 H   0  0  0  0  0  0  0  0  0  0  0  0
    0.3884   -1.5924    3.7467 H   0  0  0  0  0  0  0  0  0  0  0  0
    1.9751    0.2653    3.6230 H   0  0  0  0  0  0  0  0  0  0  0  0
    4.2235    0.9987    3.1511 H   0  0  0  0  0  0  0  0  0  0  0  0
    2.9464    2.2679    2.9929 H   0  0  0  0  0  0  0  0  0  0  0  0
    4.4973    2.4392    2.1640 H   0  0  0  0  0  0  0  0  0  0  0  0
  1  2  1  0
  2  3  1  0
  3  4  2  0
  4  5  1  0
  5  6  2  0
  6  7  1  0
  7  8  2  0
  8  9  1  0
  9 10  1  0
 10 11  1  0
 11 12  2  0
 11 13  1  0
 13 14  1  0
 14 15  1  0
 15 16  2  0
 16 17  1  0
 17 18  2  0
 18 19  1  0
 19 20  2  0
 20 21  1  0
 21 22  1  0
  8  3  1  0
 20 15  1  0
  1 23  1  0
  1 24  1  0
  1 25  1  0
  4 26  1  0
  5 27  1  0
  6 28  1  0
  7 29  1  0
  9 30  1  0
  9 31  1  0
 10 32  1  0
 13 33  1  0
 13 34  1  0
 16 35  1  0
 17 36  1  0
 18 37  1  0
 19 38  1  0
 22 39  1  0
 22 40  1  0
 22 41  1  0
M  END
$$$$
