
     RDKit          3D

 43 45  0  0  0  0  0  0  0  0999 V2000
    6.5057   -2.4375   -0.1557 C   0  0  0  0  0  0  0  0  0  0  0  0
    5.7458   -1.1447   -0.0927 C   0  0  0  0  0  0  0  0  0  0  0  0
    6.4248    0.0644    0.0764 C   0  0  0  0  0  0  0  0  0  0  0  0
    5.7169    1.2627    0.1694 C   0  0  0  0  0  0  0  0  0  0  0  0
    4.3169    1.2708    0.1049 C   0  0  0  0  0  0  0  0  0  0  0  0
    3.5731    2.5746    0.2055 C   0  0  0  0  0  0  0  0  0  0  0  0
    3.6250    0.0561   -0.0494 C   0  0  0  0  0  0  0  0  0  0  0  0
    2.2587    0.1579   -0.0888 O   0  0  0  0  0  0  0  0  0  0  0  0
    1.5132   -1.0374   -0.3049 C   0  0  0  0  0  0  0  0  0  0  0  0
    0.0792   -0.6642   -0.3203 C   0  0  0  0  0  0  0  0  0  0  0  0
   -0.6326    0.4850   -0.0808 C   0  0  0  0  0  0  0  0  0  0  0  0
   -1.9964    0.1245   -0.2655 C   0  0  0  0  0  0  0  0  0  0  0  0
   -3.1428    1.0435   -0.1559 C   0  0  0  0  0  0  0  0  0  0  0  0
   -2.9407    2.2606   -0.1833 O   0  0  0  0  0  0  0  0  0  0  0  0
   -4.4523    0.5576   -0.0196 N   0  0  0  0  0  0  0  0  0  0  0  0
   -4.8295   -0.8545    0.0692 C   0  0  0  0  0  0  0  0  0  0  0  0
   -6.1796   -1.0407    0.7590 C   0  0  0  0  0  0  0  0  0  0  0  0
   -7.2111   -0.2442    0.1433 N   0  0  0  0  0  0  0  0  0  0  0  0
   -6.9818    1.0612   -0.2033 C   0  0  0  0  0  0  0  0  0  0  0  0
   -7.9302    1.8063   -0.4407 O   0  0  0  0  0  0  0  0  0  0  0  0
   -5.5211    1.5252   -0.3009 C   0  0  0  0  0  0  0  0  0  0  0  0
   -2.0811   -1.1678   -0.6268 N   0  0  0  0  0  0  0  0  0  0  0  0
   -0.7911   -1.6571   -0.6420 O   0  0  0  0  0  0  0  0  0  0  0  0
    4.3434   -1.1422   -0.1418 C   0  0  0  0  0  0  0  0  0  0  0  0
    7.4997   -2.2868   -0.5917 H   0  0  0  0  0  0  0  0  0  0  0  0
    6.6203   -2.8520    0.8511 H   0  0  0  0  0  0  0  0  0  0  0  0
    5.9837   -3.1673   -0.7838 H   0  0  0  0  0  0  0  0  0  0  0  0
    7.5107    0.0828    0.1368 H   0  0  0  0  0  0  0  0  0  0  0  0
    6.2666    2.1929    0.2956 H   0  0  0  0  0  0  0  0  0  0  0  0
    2.9212    2.5719    1.0854 H   0  0  0  0  0  0  0  0  0  0  0  0
    2.9704    2.7376   -0.6940 H   0  0  0  0  0  0  0  0  0  0  0  0
    4.2590    3.4231    0.3025 H   0  0  0  0  0  0  0  0  0  0  0  0
    1.6861   -1.7493    0.5108 H   0  0  0  0  0  0  0  0  0  0  0  0
    1.7817   -1.4848   -1.2692 H   0  0  0  0  0  0  0  0  0  0  0  0
   -0.2379    1.4553    0.1863 H   0  0  0  0  0  0  0  0  0  0  0  0
   -4.0838   -1.4091    0.6434 H   0  0  0  0  0  0  0  0  0  0  0  0
   -4.8654   -1.2470   -0.9536 H   0  0  0  0  0  0  0  0  0  0  0  0
   -6.4935   -2.0884    0.7230 H   0  0  0  0  0  0  0  0  0  0  0  0
   -6.1158   -0.7320    1.8089 H   0  0  0  0  0  0  0  0  0  0  0  0
   -8.1875   -0.4701    0.2925 H   0  0  0  0  0  0  0  0  0  0  0  0
   -5.3681    1.8893   -1.3245 H   0  0  0  0  0  0  0  0  0  0  0  0
   -5.3989    2.3703    0.3867 H   0  0  0  0  0  0  0  0  0  0  0  0
    3.8389   -2.0965   -0.2505 H   0  0  0  0  0  0  0  0  0  0  0  0
  1  2  1  0
  2  3  2  0
  3  4  1  0
  4  5  2  0
  5  6  1  0
  5  7  1  0
  7  8  1  0
  8  9  1  0
  9 10  1  0
 10 11  2  0
 11 12  1  0
 12 13  1  0
 13 14  2  0
 13 15  1  0
 15 16  1  0
 16 17  1  0
 17 18  1  0
 18 19  1  0
 19 20  2  0
 19 21  1  0
 12 22  2  0
 22 23  1  0
  7 24  2  0
 24  2  1  0
 23 10  1  0
 21 15  1  0
  1 25  1  0
  1 26  1  0
  1 27  1  0
  3 28  1  0
  4 29  1  0
  6 30  1  0
  6 31  1  0
  6 32  1  0
  9 33  1  0
  9 34  1  0
 11 35  1  0
 16 36  1  0
 16 37  1  0
 17 38  1  0
 17 39  1  0
 18 40  1  0
 21 41  1  0
 21 42  1  0
 24 43  1  0
M  END
$$$$
