
     RDKit          3D

 50 53  0  0  0  0  0  0  0  0999 V2000
   -6.4644    4.7130   -2.2102 C   0  0  0  0  0  0  0  0  0  0  0  0
   -6.3467    3.3756   -1.6047 C   0  0  0  0  0  0  0  0  0  0  0  0
   -6.7992    2.8005   -0.4425 C   0  0  0  0  0  0  0  0  0  0  0  0
   -6.3198    1.4732   -0.4950 C   0  0  0  0  0  0  0  0  0  0  0  0
   -6.5347    0.5364    0.4991 N   0  0  0  0  0  0  0  0  0  0  0  0
   -6.0539   -1.0577    0.4352 S   0  0  0  0  0  6  0  0  0  0  0  0
   -6.4534   -1.6243    1.7102 O   0  0  0  0  0  0  0  0  0  0  0  0
   -6.4946   -1.6612   -0.8030 O   0  0  0  0  0  0  0  0  0  0  0  0
   -4.2801   -0.9665    0.4497 C   0  0  0  0  0  0  0  0  0  0  0  0
   -3.6097   -0.7794    1.6603 C   0  0  0  0  0  0  0  0  0  0  0  0
   -2.2116   -0.7462    1.6760 C   0  0  0  0  0  0  0  0  0  0  0  0
   -1.4755   -0.9106    0.4931 C   0  0  0  0  0  0  0  0  0  0  0  0
   -0.0697   -0.8669    0.6018 N   0  0  0  0  0  0  0  0  0  0  0  0
    0.8604   -1.0107   -0.4163 C   0  0  0  0  0  0  0  0  0  0  0  0
    0.6216   -1.1962   -1.6035 O   0  0  0  0  0  0  0  0  0  0  0  0
    2.2796   -0.9079    0.1075 C   0  0  0  0  0  0  0  0  0  0  0  0
    3.2934   -1.0931   -1.0153 C   0  0  0  0  0  0  0  0  0  0  0  0
    4.6576   -0.9987   -0.5254 N   0  0  0  0  0  0  0  0  0  0  0  0
    5.3357   -2.0385    0.0519 C   0  0  0  0  0  0  0  0  0  0  0  0
    4.9590   -3.1741    0.2701 O   0  0  0  0  0  0  0  0  0  0  0  0
    6.6526   -1.5213    0.4198 C   0  0  0  0  0  0  0  0  0  0  0  0
    7.7331   -2.1545    1.0022 C   0  0  0  0  0  0  0  0  0  0  0  0
    8.8746   -1.3802    1.2383 C   0  0  0  0  0  0  0  0  0  0  0  0
    8.9058   -0.0114    0.8952 C   0  0  0  0  0  0  0  0  0  0  0  0
    7.7961    0.6070    0.3104 C   0  0  0  0  0  0  0  0  0  0  0  0
    6.6829   -0.1790    0.0841 C   0  0  0  0  0  0  0  0  0  0  0  0
    5.3840    0.1614   -0.4948 C   0  0  0  0  0  0  0  0  0  0  0  0
    5.0584    1.2827   -0.8347 O   0  0  0  0  0  0  0  0  0  0  0  0
   -2.1618   -1.1119   -0.7076 C   0  0  0  0  0  0  0  0  0  0  0  0
   -3.5609   -1.1474   -0.7319 C   0  0  0  0  0  0  0  0  0  0  0  0
   -5.6189    1.2609   -1.6091 N   0  0  0  0  0  0  0  0  0  0  0  0
   -5.6379    2.4536   -2.3079 O   0  0  0  0  0  0  0  0  0  0  0  0
   -7.0319    5.3882   -1.5616 H   0  0  0  0  0  0  0  0  0  0  0  0
   -6.9790    4.6545   -3.1745 H   0  0  0  0  0  0  0  0  0  0  0  0
   -5.4741    5.1492   -2.3743 H   0  0  0  0  0  0  0  0  0  0  0  0
   -7.3903    3.2730    0.3268 H   0  0  0  0  0  0  0  0  0  0  0  0
   -7.0473    0.7810    1.3394 H   0  0  0  0  0  0  0  0  0  0  0  0
   -4.1622   -0.6683    2.5903 H   0  0  0  0  0  0  0  0  0  0  0  0
   -1.7083   -0.5979    2.6279 H   0  0  0  0  0  0  0  0  0  0  0  0
    0.2973   -0.7241    1.5346 H   0  0  0  0  0  0  0  0  0  0  0  0
    2.4107    0.0741    0.5773 H   0  0  0  0  0  0  0  0  0  0  0  0
    2.4252   -1.6734    0.8791 H   0  0  0  0  0  0  0  0  0  0  0  0
    3.1474   -0.3291   -1.7886 H   0  0  0  0  0  0  0  0  0  0  0  0
    3.1655   -2.0767   -1.4816 H   0  0  0  0  0  0  0  0  0  0  0  0
    7.6952   -3.2079    1.2618 H   0  0  0  0  0  0  0  0  0  0  0  0
    9.7521   -1.8389    1.6913 H   0  0  0  0  0  0  0  0  0  0  0  0
    9.8073    0.5688    1.0878 H   0  0  0  0  0  0  0  0  0  0  0  0
    7.8065    1.6590    0.0400 H   0  0  0  0  0  0  0  0  0  0  0  0
   -1.6410   -1.2498   -1.6504 H   0  0  0  0  0  0  0  0  0  0  0  0
   -4.0753   -1.3085   -1.6782 H   0  0  0  0  0  0  0  0  0  0  0  0
  1  2  1  0
  2  3  2  0
  3  4  1  0
  4  5  1  0
  5  6  1  0
  6  7  2  0
  6  8  2  0
  6  9  1  0
  9 10  2  0
 10 11  1  0
 11 12  2  0
 12 13  1  0
 13 14  1  0
 14 15  2  0
 14 16  1  0
 16 17  1  0
 17 18  1  0
 18 19  1  0
 19 20  2  0
 19 21  1  0
 21 22  2  0
 22 23  1  0
 23 24  2  0
 24 25  1  0
 25 26  2  0
 26 27  1  0
 27 28  2  0
 12 29  1  0
 29 30  2  0
  4 31  2  0
 31 32  1  0
 32  2  1  0
 30  9  1  0
 27 18  1  0
 26 21  1  0
  1 33  1  0
  1 34  1  0
  1 35  1  0
  3 36  1  0
  5 37  1  0
 10 38  1  0
 11 39  1  0
 13 40  1  0
 16 41  1  0
 16 42  1  0
 17 43  1  0
 17 44  1  0
 22 45  1  0
 23 46  1  0
 24 47  1  0
 25 48  1  0
 29 49  1  0
 30 50  1  0
M  END
$$$$
