
     RDKit          3D

 62 65  0  0  0  0  0  0  0  0999 V2000
    2.5371   -0.2623    0.1171 C   0  0  0  0  0  0  0  0  0  0  0  0
    1.5502    0.6793    0.7610 C   0  0  0  0  0  0  0  0  0  0  0  0
    2.0465    1.9447    1.1347 C   0  0  0  0  0  0  0  0  0  0  0  0
    1.2199    2.9120    1.7049 C   0  0  0  0  0  0  0  0  0  0  0  0
    1.7467    4.1217    2.0551 O   0  0  0  0  0  0  0  0  0  0  0  0
   -0.1334    2.6607    1.9198 C   0  0  0  0  0  0  0  0  0  0  0  0
   -1.0918    3.6671    2.5400 C   0  0  0  0  0  0  0  0  0  0  0  0
   -0.7118    4.0221    3.9795 C   0  0  0  0  0  0  0  0  0  0  0  0
   -1.2596    4.9215    1.6789 C   0  0  0  0  0  0  0  0  0  0  0  0
   -0.6324    1.4014    1.5357 C   0  0  0  0  0  0  0  0  0  0  0  0
    0.1733    0.3946    0.9409 C   0  0  0  0  0  0  0  0  0  0  0  0
   -0.4886   -0.9682    0.5710 C   0  0  0  0  0  0  0  0  0  0  0  0
   -0.1286   -1.4784   -0.8466 C   0  0  0  0  0  0  0  0  0  0  0  0
   -0.2728   -0.5215   -1.8970 C   0  0  0  0  0  0  0  0  0  0  0  0
    0.0431   -0.7669   -3.2495 C   0  0  0  0  0  0  0  0  0  0  0  0
   -0.1597    0.3747   -4.2331 C   0  0  0  0  0  0  0  0  0  0  0  0
   -1.1483    0.0417   -5.3518 C   0  0  0  0  0  0  0  0  0  0  0  0
    1.1653    0.9165   -4.7770 C   0  0  0  0  0  0  0  0  0  0  0  0
    0.5192   -2.0351   -3.5580 C   0  0  0  0  0  0  0  0  0  0  0  0
    0.9115   -2.4340   -4.8018 O   0  0  0  0  0  0  0  0  0  0  0  0
    0.6238   -3.0150   -2.5705 C   0  0  0  0  0  0  0  0  0  0  0  0
    0.2852   -2.7736   -1.2218 C   0  0  0  0  0  0  0  0  0  0  0  0
    0.4139   -3.9505   -0.2951 C   0  0  0  0  0  0  0  0  0  0  0  0
   -1.9413   -0.7716    0.4331 O   0  0  0  0  0  0  0  0  0  0  0  0
   -2.6759   -1.5639    1.2556 C   0  0  0  0  0  0  0  0  0  0  0  0
   -3.8874   -1.6492    1.2961 O   0  0  0  0  0  0  0  0  0  0  0  0
   -1.7309   -2.2431    2.1198 C   0  0  0  0  0  0  0  0  0  0  0  0
   -2.0220   -3.0732    3.1920 C   0  0  0  0  0  0  0  0  0  0  0  0
   -0.9544   -3.5568    3.9438 C   0  0  0  0  0  0  0  0  0  0  0  0
    0.3584   -3.1854    3.6203 C   0  0  0  0  0  0  0  0  0  0  0  0
    0.6176   -2.3410    2.5331 C   0  0  0  0  0  0  0  0  0  0  0  0
   -0.4448   -1.8897    1.7565 C   0  0  0  0  0  0  0  0  0  0  0  0
    2.5441   -0.1194   -0.9679 H   0  0  0  0  0  0  0  0  0  0  0  0
    3.5502   -0.0721    0.4877 H   0  0  0  0  0  0  0  0  0  0  0  0
    2.3298   -1.3062    0.3450 H   0  0  0  0  0  0  0  0  0  0  0  0
    3.0980    2.1681    0.9705 H   0  0  0  0  0  0  0  0  0  0  0  0
    2.6962    4.1277    1.8512 H   0  0  0  0  0  0  0  0  0  0  0  0
   -2.0853    3.2023    2.5949 H   0  0  0  0  0  0  0  0  0  0  0  0
   -1.4862    4.6479    4.4366 H   0  0  0  0  0  0  0  0  0  0  0  0
    0.2311    4.5720    4.0387 H   0  0  0  0  0  0  0  0  0  0  0  0
   -0.6085    3.1187    4.5909 H   0  0  0  0  0  0  0  0  0  0  0  0
   -0.3400    5.5103    1.6164 H   0  0  0  0  0  0  0  0  0  0  0  0
   -2.0374    5.5705    2.0973 H   0  0  0  0  0  0  0  0  0  0  0  0
   -1.5571    4.6590    0.6583 H   0  0  0  0  0  0  0  0  0  0  0  0
   -1.6919    1.2060    1.7056 H   0  0  0  0  0  0  0  0  0  0  0  0
   -0.6524    0.4687   -1.6352 H   0  0  0  0  0  0  0  0  0  0  0  0
   -0.6175    1.2095   -3.6851 H   0  0  0  0  0  0  0  0  0  0  0  0
   -1.3956    0.9460   -5.9190 H   0  0  0  0  0  0  0  0  0  0  0  0
   -0.7557   -0.6868   -6.0664 H   0  0  0  0  0  0  0  0  0  0  0  0
   -2.0811   -0.3618   -4.9424 H   0  0  0  0  0  0  0  0  0  0  0  0
    1.7054    0.1854   -5.3847 H   0  0  0  0  0  0  0  0  0  0  0  0
    1.8266    1.2159   -3.9575 H   0  0  0  0  0  0  0  0  0  0  0  0
    0.9905    1.7998   -5.4023 H   0  0  0  0  0  0  0  0  0  0  0  0
    0.8514   -1.6898   -5.4161 H   0  0  0  0  0  0  0  0  0  0  0  0
    0.9743   -3.9992   -2.8738 H   0  0  0  0  0  0  0  0  0  0  0  0
    1.2793   -3.8302    0.3612 H   0  0  0  0  0  0  0  0  0  0  0  0
    0.5678   -4.8832   -0.8502 H   0  0  0  0  0  0  0  0  0  0  0  0
   -0.5035   -4.1027    0.2761 H   0  0  0  0  0  0  0  0  0  0  0  0
   -3.0484   -3.3209    3.4423 H   0  0  0  0  0  0  0  0  0  0  0  0
   -1.1386   -4.2079    4.7954 H   0  0  0  0  0  0  0  0  0  0  0  0
    1.1855   -3.5516    4.2259 H   0  0  0  0  0  0  0  0  0  0  0  0
    1.6408   -2.0550    2.3197 H   0  0  0  0  0  0  0  0  0  0  0  0
  1  2  1  0
  2  3  2  0
  3  4  1  0
  4  5  1  0
  4  6  2  0
  6  7  1  0
  7  8  1  0
  7  9  1  0
  6 10  1  0
 10 11  2  0
 11 12  1  0
 12 13  1  0
 13 14  2  0
 14 15  1  0
 15 16  1  0
 16 17  1  0
 16 18  1  0
 15 19  2  0
 19 20  1  0
 19 21  1  0
 21 22  2  0
 22 23  1  0
 12 24  1  0
 24 25  1  0
 25 26  2  0
 25 27  1  0
 27 28  2  0
 28 29  1  0
 29 30  2  0
 30 31  1  0
 31 32  2  0
 11  2  1  0
 32 12  1  0
 22 13  1  0
 32 27  1  0
  1 33  1  0
  1 34  1  0
  1 35  1  0
  3 36  1  0
  5 37  1  0
  7 38  1  0
  8 39  1  0
  8 40  1  0
  8 41  1  0
  9 42  1  0
  9 43  1  0
  9 44  1  0
 10 45  1  0
 14 46  1  0
 16 47  1  0
 17 48  1  0
 17 49  1  0
 17 50  1  0
 18 51  1  0
 18 52  1  0
 18 53  1  0
 20 54  1  0
 21 55  1  0
 23 56  1  0
 23 57  1  0
 23 58  1  0
 28 59  1  0
 29 60  1  0
 30 61  1  0
 31 62  1  0
M  END
$$$$
