
     RDKit          3D

 61 63  0  0  0  0  0  0  0  0999 V2000
   -1.9593   -3.4232   -0.2249 C   0  0  0  0  0  0  0  0  0  0  0  0
   -0.6138   -2.8627    0.1938 C   0  0  0  0  0  0  0  0  0  0  0  0
   -0.8063   -1.4982    0.5826 O   0  0  0  0  0  0  0  0  0  0  0  0
    0.3271   -0.8170    0.9039 C   0  0  0  0  0  0  0  0  0  0  0  0
    1.4470   -1.3183    0.8713 O   0  0  0  0  0  0  0  0  0  0  0  0
    0.0836    0.5737    1.3052 C   0  0  0  0  0  0  0  0  0  0  0  0
   -1.1824    1.2794    1.3229 C   0  0  0  0  0  0  0  0  0  0  0  0
   -2.4948    0.7983    0.9196 C   0  0  0  0  0  0  0  0  0  0  0  0
   -2.8320    0.7349   -0.4334 C   0  0  0  0  0  0  0  0  0  0  0  0
   -4.0871    0.2544   -0.8221 C   0  0  0  0  0  0  0  0  0  0  0  0
   -5.0303   -0.1670    0.1280 C   0  0  0  0  0  0  0  0  0  0  0  0
   -6.3529   -0.6713   -0.2814 C   0  0  0  0  0  0  0  0  0  0  0  0
   -7.1675    0.0581   -1.1635 C   0  0  0  0  0  0  0  0  0  0  0  0
   -8.4246   -0.4162   -1.5460 C   0  0  0  0  0  0  0  0  0  0  0  0
   -8.8909   -1.6312   -1.0515 C   0  0  0  0  0  0  0  0  0  0  0  0
   -8.1001   -2.3702   -0.1765 C   0  0  0  0  0  0  0  0  0  0  0  0
   -6.8428   -1.8946    0.2040 C   0  0  0  0  0  0  0  0  0  0  0  0
   -4.6740   -0.0909    1.4864 C   0  0  0  0  0  0  0  0  0  0  0  0
   -3.4198    0.3871    1.8806 C   0  0  0  0  0  0  0  0  0  0  0  0
   -1.0513    2.5741    1.7742 C   0  0  0  0  0  0  0  0  0  0  0  0
    0.5579    2.9511    2.1764 S   0  0  0  0  0  0  0  0  0  0  0  0
    1.1103    1.4088    1.7361 C   0  0  0  0  0  0  0  0  0  0  0  0
    2.4547    1.0857    1.8191 N   0  0  0  0  0  0  0  0  0  0  0  0
    3.5117    1.8894    2.2099 C   0  0  0  0  0  0  0  0  0  0  0  0
    3.4636    3.0384    2.6367 O   0  0  0  0  0  0  0  0  0  0  0  0
    4.8579    1.1508    2.1307 C   0  0  0  0  0  0  0  0  0  0  0  0
    4.8482    0.0509    1.1382 N   0  0  0  0  0  0  0  0  0  0  0  0
    4.9339    0.5424   -0.2521 C   0  0  0  0  0  0  0  0  0  0  0  0
    6.3634    0.9226   -0.6981 C   0  0  0  0  0  0  0  0  0  0  0  0
    6.4246    1.4956   -2.0551 N   0  0  0  0  0  0  0  0  0  0  0  0
    7.7539    2.0563   -2.3034 C   0  0  0  0  0  0  0  0  0  0  0  0
    6.1061    0.5115   -3.0876 C   0  0  0  0  0  0  0  0  0  0  0  0
   -1.8690   -4.4646   -0.5469 H   0  0  0  0  0  0  0  0  0  0  0  0
   -2.6729   -3.3713    0.6048 H   0  0  0  0  0  0  0  0  0  0  0  0
   -2.3845   -2.8340   -1.0458 H   0  0  0  0  0  0  0  0  0  0  0  0
   -0.2236   -3.4340    1.0430 H   0  0  0  0  0  0  0  0  0  0  0  0
    0.0874   -2.9195   -0.6442 H   0  0  0  0  0  0  0  0  0  0  0  0
   -2.1224    1.0501   -1.1934 H   0  0  0  0  0  0  0  0  0  0  0  0
   -4.3202    0.1991   -1.8824 H   0  0  0  0  0  0  0  0  0  0  0  0
   -6.8300    1.0164   -1.5533 H   0  0  0  0  0  0  0  0  0  0  0  0
   -9.0404    0.1677   -2.2262 H   0  0  0  0  0  0  0  0  0  0  0  0
   -9.8687   -2.0017   -1.3483 H   0  0  0  0  0  0  0  0  0  0  0  0
   -8.4593   -3.3192    0.2103 H   0  0  0  0  0  0  0  0  0  0  0  0
   -6.2362   -2.4975    0.8759 H   0  0  0  0  0  0  0  0  0  0  0  0
   -5.3823   -0.3949    2.2552 H   0  0  0  0  0  0  0  0  0  0  0  0
   -3.1745    0.4324    2.9390 H   0  0  0  0  0  0  0  0  0  0  0  0
   -1.8241    3.3230    1.8825 H   0  0  0  0  0  0  0  0  0  0  0  0
    2.7314    0.1563    1.4888 H   0  0  0  0  0  0  0  0  0  0  0  0
    5.6566    1.8702    1.9317 H   0  0  0  0  0  0  0  0  0  0  0  0
    5.0320    0.7173    3.1200 H   0  0  0  0  0  0  0  0  0  0  0  0
    5.6490   -0.5562    1.3191 H   0  0  0  0  0  0  0  0  0  0  0  0
    4.5688   -0.2755   -0.8822 H   0  0  0  0  0  0  0  0  0  0  0  0
    4.2484    1.3838   -0.4151 H   0  0  0  0  0  0  0  0  0  0  0  0
    6.7479    1.6698    0.0057 H   0  0  0  0  0  0  0  0  0  0  0  0
    7.0210    0.0463   -0.6158 H   0  0  0  0  0  0  0  0  0  0  0  0
    8.5410    1.2948   -2.2430 H   0  0  0  0  0  0  0  0  0  0  0  0
    7.9802    2.8486   -1.5801 H   0  0  0  0  0  0  0  0  0  0  0  0
    7.7983    2.5217   -3.2955 H   0  0  0  0  0  0  0  0  0  0  0  0
    6.7764   -0.3545   -3.0523 H   0  0  0  0  0  0  0  0  0  0  0  0
    5.0752    0.1593   -2.9961 H   0  0  0  0  0  0  0  0  0  0  0  0
    6.1805    0.9634   -4.0816 H   0  0  0  0  0  0  0  0  0  0  0  0
  1  2  1  0
  2  3  1  0
  3  4  1  0
  4  5  2  0
  4  6  1  0
  6  7  1  0
  7  8  1  0
  8  9  2  0
  9 10  1  0
 10 11  2  0
 11 12  1  0
 12 13  2  0
 13 14  1  0
 14 15  2  0
 15 16  1  0
 16 17  2  0
 11 18  1  0
 18 19  2  0
  7 20  2  0
 20 21  1  0
 21 22  1  0
 22 23  1  0
 23 24  1  0
 24 25  2  0
 24 26  1  0
 26 27  1  0
 27 28  1  0
 28 29  1  0
 29 30  1  0
 30 31  1  0
 30 32  1  0
 22  6  2  0
 19  8  1  0
 17 12  1  0
  1 33  1  0
  1 34  1  0
  1 35  1  0
  2 36  1  0
  2 37  1  0
  9 38  1  0
 10 39  1  0
 13 40  1  0
 14 41  1  0
 15 42  1  0
 16 43  1  0
 17 44  1  0
 18 45  1  0
 19 46  1  0
 20 47  1  0
 23 48  1  0
 26 49  1  0
 26 50  1  0
 27 51  1  0
 28 52  1  0
 28 53  1  0
 29 54  1  0
 29 55  1  0
 31 56  1  0
 31 57  1  0
 31 58  1  0
 32 59  1  0
 32 60  1  0
 32 61  1  0
M  END
$$$$
