
     RDKit          3D

 41 42  0  0  0  0  0  0  0  0999 V2000
   -4.6589    0.0046   -4.3234 C   0  0  0  0  0  0  0  0  0  0  0  0
   -3.4805    1.3645   -4.1058 S   0  0  0  0  0  0  0  0  0  0  0  0
   -3.0186    1.1071   -2.4022 C   0  0  0  0  0  0  0  0  0  0  0  0
   -3.1512    2.1643   -1.4978 C   0  0  0  0  0  0  0  0  0  0  0  0
   -2.7875    2.0025   -0.1575 C   0  0  0  0  0  0  0  0  0  0  0  0
   -2.2723    0.7814    0.2960 C   0  0  0  0  0  0  0  0  0  0  0  0
   -1.8745    0.5997    1.7458 C   0  0  0  0  0  0  0  0  0  0  0  0
   -0.4447    0.2696    1.9018 N   0  0  0  0  0  0  0  0  0  0  0  0
   -0.2091   -0.2365    3.2625 C   0  0  0  0  0  0  0  0  0  0  0  0
    0.3982    1.4771    1.6634 C   0  0  0  0  0  0  0  0  0  0  0  0
    1.8616    1.0857    1.4042 C   0  0  0  0  0  0  0  0  0  0  0  0
    2.7841    1.8257    1.7309 O   0  0  0  0  0  0  0  0  0  0  0  0
    1.9605   -0.1234    0.7382 N   0  0  0  0  0  0  0  0  0  0  0  0
    3.1139   -0.7868    0.2902 C   0  0  0  0  0  0  0  0  0  0  0  0
    4.4040   -0.2653    0.4074 C   0  0  0  0  0  0  0  0  0  0  0  0
    5.5065   -0.9853   -0.0649 C   0  0  0  0  0  0  0  0  0  0  0  0
    5.3273   -2.2325   -0.6594 C   0  0  0  0  0  0  0  0  0  0  0  0
    4.0421   -2.7533   -0.7794 C   0  0  0  0  0  0  0  0  0  0  0  0
    3.7884   -4.4450   -1.5862 Br  0  0  0  0  0  0  0  0  0  0  0  0
    2.9383   -2.0393   -0.3100 C   0  0  0  0  0  0  0  0  0  0  0  0
   -2.1326   -0.2739   -0.6172 C   0  0  0  0  0  0  0  0  0  0  0  0
   -2.4967   -0.1097   -1.9566 C   0  0  0  0  0  0  0  0  0  0  0  0
   -4.1525   -0.9629   -4.2771 H   0  0  0  0  0  0  0  0  0  0  0  0
   -5.1314    0.0971   -5.3051 H   0  0  0  0  0  0  0  0  0  0  0  0
   -5.4390    0.0458   -3.5582 H   0  0  0  0  0  0  0  0  0  0  0  0
   -3.5406    3.1244   -1.8291 H   0  0  0  0  0  0  0  0  0  0  0  0
   -2.9037    2.8416    0.5248 H   0  0  0  0  0  0  0  0  0  0  0  0
   -2.1384    1.4864    2.3376 H   0  0  0  0  0  0  0  0  0  0  0  0
   -2.4947   -0.2212    2.1315 H   0  0  0  0  0  0  0  0  0  0  0  0
   -0.7871   -1.1519    3.4325 H   0  0  0  0  0  0  0  0  0  0  0  0
    0.8423   -0.5052    3.4097 H   0  0  0  0  0  0  0  0  0  0  0  0
   -0.4887    0.4948    4.0297 H   0  0  0  0  0  0  0  0  0  0  0  0
    0.0804    2.0149    0.7629 H   0  0  0  0  0  0  0  0  0  0  0  0
    0.3511    2.1713    2.5108 H   0  0  0  0  0  0  0  0  0  0  0  0
    1.0634   -0.5915    0.6273 H   0  0  0  0  0  0  0  0  0  0  0  0
    4.5859    0.7045    0.8610 H   0  0  0  0  0  0  0  0  0  0  0  0
    6.5049   -0.5661    0.0331 H   0  0  0  0  0  0  0  0  0  0  0  0
    6.1896   -2.7840   -1.0237 H   0  0  0  0  0  0  0  0  0  0  0  0
    1.9432   -2.4624   -0.4144 H   0  0  0  0  0  0  0  0  0  0  0  0
   -1.7291   -1.2289   -0.2874 H   0  0  0  0  0  0  0  0  0  0  0  0
   -2.3539   -0.9378   -2.6455 H   0  0  0  0  0  0  0  0  0  0  0  0
  1  2  1  0
  2  3  1  0
  3  4  2  0
  4  5  1  0
  5  6  2  0
  6  7  1  0
  7  8  1  0
  8  9  1  0
  8 10  1  0
 10 11  1  0
 11 12  2  0
 11 13  1  0
 13 14  1  0
 14 15  2  0
 15 16  1  0
 16 17  2  0
 17 18  1  0
 18 19  1  0
 18 20  2  0
  6 21  1  0
 21 22  2  0
 22  3  1  0
 20 14  1  0
  1 23  1  0
  1 24  1  0
  1 25  1  0
  4 26  1  0
  5 27  1  0
  7 28  1  0
  7 29  1  0
  9 30  1  0
  9 31  1  0
  9 32  1  0
 10 33  1  0
 10 34  1  0
 13 35  1  0
 15 36  1  0
 16 37  1  0
 17 38  1  0
 20 39  1  0
 21 40  1  0
 22 41  1  0
M  END
$$$$
