
     RDKit          3D

 45 46  0  0  0  0  0  0  0  0999 V2000
    4.0847   -4.5737    0.9965 C   0  0  0  0  0  0  0  0  0  0  0  0
    3.8768   -3.1239    0.6733 C   0  0  0  0  0  0  0  0  0  0  0  0
    4.9646   -2.2486    0.6089 C   0  0  0  0  0  0  0  0  0  0  0  0
    4.7666   -0.9068    0.2871 C   0  0  0  0  0  0  0  0  0  0  0  0
    3.4834   -0.4318    0.0053 C   0  0  0  0  0  0  0  0  0  0  0  0
    2.3911   -1.2993    0.0203 C   0  0  0  0  0  0  0  0  0  0  0  0
    1.0626   -0.8845   -0.2200 N   0  0  0  0  0  0  0  0  0  0  0  0
    0.5678    0.1866   -0.9538 C   0  0  0  0  0  0  0  0  0  0  0  0
    1.3817    0.8357   -2.2816 S   0  0  0  0  0  0  0  0  0  0  0  0
   -0.7143    0.6118   -0.5138 N   0  0  0  0  0  0  0  0  0  0  0  0
   -1.5506    1.5373   -1.3216 C   0  0  0  0  0  0  0  0  0  0  0  0
   -2.2905    2.6653   -0.5565 C   0  0  0  0  0  0  0  0  0  0  0  0
   -1.4798    3.4447    0.3995 N   0  0  0  0  0  0  0  0  0  0  0  0
   -2.3302    4.3802    1.1386 C   0  0  0  0  0  0  0  0  0  0  0  0
   -0.4027    4.1767   -0.2699 C   0  0  0  0  0  0  0  0  0  0  0  0
   -1.3275    0.0884    0.7233 C   0  0  0  0  0  0  0  0  0  0  0  0
   -2.3404   -0.9785    0.4062 C   0  0  0  0  0  0  0  0  0  0  0  0
   -3.7166   -0.8567    0.3409 C   0  0  0  0  0  0  0  0  0  0  0  0
   -4.3611   -2.0868    0.0236 C   0  0  0  0  0  0  0  0  0  0  0  0
   -3.4594   -3.1144   -0.1317 C   0  0  0  0  0  0  0  0  0  0  0  0
   -1.8501   -2.5968    0.1128 S   0  0  0  0  0  0  0  0  0  0  0  0
    2.5942   -2.6403    0.3742 C   0  0  0  0  0  0  0  0  0  0  0  0
    3.2198   -4.9821    1.5299 H   0  0  0  0  0  0  0  0  0  0  0  0
    4.2347   -5.1446    0.0751 H   0  0  0  0  0  0  0  0  0  0  0  0
    4.9580   -4.7098    1.6429 H   0  0  0  0  0  0  0  0  0  0  0  0
    5.9714   -2.6031    0.8174 H   0  0  0  0  0  0  0  0  0  0  0  0
    5.6116   -0.2237    0.2597 H   0  0  0  0  0  0  0  0  0  0  0  0
    3.3611    0.6272   -0.1976 H   0  0  0  0  0  0  0  0  0  0  0  0
    0.3615   -1.5914   -0.0350 H   0  0  0  0  0  0  0  0  0  0  0  0
   -0.9705    2.0073   -2.1174 H   0  0  0  0  0  0  0  0  0  0  0  0
   -2.2962    0.9141   -1.8310 H   0  0  0  0  0  0  0  0  0  0  0  0
   -2.7557    3.3319   -1.2956 H   0  0  0  0  0  0  0  0  0  0  0  0
   -3.1217    2.2037   -0.0099 H   0  0  0  0  0  0  0  0  0  0  0  0
   -2.8148    5.1091    0.4789 H   0  0  0  0  0  0  0  0  0  0  0  0
   -3.1091    3.8404    1.6887 H   0  0  0  0  0  0  0  0  0  0  0  0
   -1.7439    4.9265    1.8860 H   0  0  0  0  0  0  0  0  0  0  0  0
   -0.7832    4.8581   -1.0393 H   0  0  0  0  0  0  0  0  0  0  0  0
    0.1699    4.7655    0.4560 H   0  0  0  0  0  0  0  0  0  0  0  0
    0.3130    3.4938   -0.7339 H   0  0  0  0  0  0  0  0  0  0  0  0
   -1.8015    0.9046    1.2750 H   0  0  0  0  0  0  0  0  0  0  0  0
   -0.5655   -0.2993    1.4080 H   0  0  0  0  0  0  0  0  0  0  0  0
   -4.2415    0.0751    0.5133 H   0  0  0  0  0  0  0  0  0  0  0  0
   -5.4319   -2.2122   -0.0821 H   0  0  0  0  0  0  0  0  0  0  0  0
   -3.6682   -4.1480   -0.3718 H   0  0  0  0  0  0  0  0  0  0  0  0
    1.7520   -3.3278    0.4057 H   0  0  0  0  0  0  0  0  0  0  0  0
  1  2  1  0
  2  3  2  0
  3  4  1  0
  4  5  2  0
  5  6  1  0
  6  7  1  0
  7  8  1  0
  8  9  2  0
  8 10  1  0
 10 11  1  0
 11 12  1  0
 12 13  1  0
 13 14  1  0
 13 15  1  0
 10 16  1  0
 16 17  1  0
 17 18  2  0
 18 19  1  0
 19 20  2  0
 20 21  1  0
  6 22  2  0
 22  2  1  0
 21 17  1  0
  1 23  1  0
  1 24  1  0
  1 25  1  0
  3 26  1  0
  4 27  1  0
  5 28  1  0
  7 29  1  0
 11 30  1  0
 11 31  1  0
 12 32  1  0
 12 33  1  0
 14 34  1  0
 14 35  1  0
 14 36  1  0
 15 37  1  0
 15 38  1  0
 15 39  1  0
 16 40  1  0
 16 41  1  0
 18 42  1  0
 19 43  1  0
 20 44  1  0
 22 45  1  0
M  END
$$$$
