
     RDKit          3D

 66 68  0  0  0  0  0  0  0  0999 V2000
   -3.9800    6.8964    3.1097 C   0  0  0  0  0  0  0  0  0  0  0  0
   -4.5113    5.5777    3.1276 O   0  0  0  0  0  0  0  0  0  0  0  0
   -3.7332    4.6886    2.3229 C   0  0  0  0  0  0  0  0  0  0  0  0
   -4.3276    3.2830    2.4245 C   0  0  0  0  0  0  0  0  0  0  0  0
   -3.7456    2.3373    1.4704 N   0  0  0  0  0  0  0  0  0  0  0  0
   -2.5496    1.6546    1.5961 C   0  0  0  0  0  0  0  0  0  0  0  0
   -1.5513    1.8016    2.9375 S   0  0  0  0  0  0  0  0  0  0  0  0
   -2.2694    0.8417    0.4871 N   0  0  0  0  0  0  0  0  0  0  0  0
   -2.8259    1.0841   -0.8504 C   0  0  0  0  0  0  0  0  0  0  0  0
   -3.5808   -0.1454   -1.3368 C   0  0  0  0  0  0  0  0  0  0  0  0
   -2.7469   -1.3955   -1.2039 C   0  0  0  0  0  0  0  0  0  0  0  0
   -3.1071   -2.5396   -1.9360 C   0  0  0  0  0  0  0  0  0  0  0  0
   -2.3845   -3.7308   -1.8114 C   0  0  0  0  0  0  0  0  0  0  0  0
   -2.6639   -4.8853   -2.5001 O   0  0  0  0  0  0  0  0  0  0  0  0
   -3.7770   -4.8780   -3.3806 C   0  0  0  0  0  0  0  0  0  0  0  0
   -1.2894   -3.7856   -0.9308 C   0  0  0  0  0  0  0  0  0  0  0  0
   -0.6293   -4.9884   -0.8580 O   0  0  0  0  0  0  0  0  0  0  0  0
    0.5947   -5.0203   -0.1364 C   0  0  0  0  0  0  0  0  0  0  0  0
   -0.9475   -2.6528   -0.1829 C   0  0  0  0  0  0  0  0  0  0  0  0
   -1.6595   -1.4458   -0.3129 C   0  0  0  0  0  0  0  0  0  0  0  0
   -1.2313   -0.2264    0.5176 C   0  0  0  0  0  0  0  0  0  0  0  0
    0.1493    0.3129    0.0511 C   0  0  0  0  0  0  0  0  0  0  0  0
    1.1938   -0.5071    0.5897 O   0  0  0  0  0  0  0  0  0  0  0  0
    2.4737   -0.2233    0.2036 C   0  0  0  0  0  0  0  0  0  0  0  0
    3.4344   -1.1246    0.6634 C   0  0  0  0  0  0  0  0  0  0  0  0
    4.7839   -0.9564    0.3427 C   0  0  0  0  0  0  0  0  0  0  0  0
    5.1998    0.1258   -0.4434 C   0  0  0  0  0  0  0  0  0  0  0  0
    6.6581    0.3344   -0.8100 C   0  0  0  0  0  0  0  0  0  0  0  0
    7.5423    0.4847    0.4308 C   0  0  0  0  0  0  0  0  0  0  0  0
    7.1710   -0.7912   -1.7114 C   0  0  0  0  0  0  0  0  0  0  0  0
    4.2287    1.0292   -0.8986 C   0  0  0  0  0  0  0  0  0  0  0  0
    2.8765    0.8580   -0.5771 C   0  0  0  0  0  0  0  0  0  0  0  0
   -2.9648    6.9069    3.5168 H   0  0  0  0  0  0  0  0  0  0  0  0
   -4.6128    7.5309    3.7359 H   0  0  0  0  0  0  0  0  0  0  0  0
   -3.9828    7.2960    2.0920 H   0  0  0  0  0  0  0  0  0  0  0  0
   -3.7605    5.0309    1.2811 H   0  0  0  0  0  0  0  0  0  0  0  0
   -2.6923    4.6988    2.6623 H   0  0  0  0  0  0  0  0  0  0  0  0
   -4.2420    2.8934    3.4447 H   0  0  0  0  0  0  0  0  0  0  0  0
   -5.4012    3.3301    2.2054 H   0  0  0  0  0  0  0  0  0  0  0  0
   -4.4351    1.8409    0.9244 H   0  0  0  0  0  0  0  0  0  0  0  0
   -3.4737    1.9645   -0.8811 H   0  0  0  0  0  0  0  0  0  0  0  0
   -1.9860    1.3093   -1.5198 H   0  0  0  0  0  0  0  0  0  0  0  0
   -3.8739    0.0057   -2.3820 H   0  0  0  0  0  0  0  0  0  0  0  0
   -4.4928   -0.2788   -0.7423 H   0  0  0  0  0  0  0  0  0  0  0  0
   -3.9631   -2.4742   -2.6001 H   0  0  0  0  0  0  0  0  0  0  0  0
   -3.8547   -5.8725   -3.8303 H   0  0  0  0  0  0  0  0  0  0  0  0
   -4.7086   -4.6853   -2.8388 H   0  0  0  0  0  0  0  0  0  0  0  0
   -3.6339   -4.1574   -4.1923 H   0  0  0  0  0  0  0  0  0  0  0  0
    1.3080   -4.2866   -0.5270 H   0  0  0  0  0  0  0  0  0  0  0  0
    1.0351   -6.0132   -0.2684 H   0  0  0  0  0  0  0  0  0  0  0  0
    0.4214   -4.8748    0.9349 H   0  0  0  0  0  0  0  0  0  0  0  0
   -0.1232   -2.6876    0.5234 H   0  0  0  0  0  0  0  0  0  0  0  0
   -1.1474   -0.5874    1.5498 H   0  0  0  0  0  0  0  0  0  0  0  0
    0.2891    1.3375    0.4147 H   0  0  0  0  0  0  0  0  0  0  0  0
    0.1975    0.3156   -1.0457 H   0  0  0  0  0  0  0  0  0  0  0  0
    3.1319   -1.9676    1.2789 H   0  0  0  0  0  0  0  0  0  0  0  0
    5.5042   -1.6803    0.7157 H   0  0  0  0  0  0  0  0  0  0  0  0
    6.7440    1.2700   -1.3785 H   0  0  0  0  0  0  0  0  0  0  0  0
    8.5719    0.7233    0.1430 H   0  0  0  0  0  0  0  0  0  0  0  0
    7.5709   -0.4324    1.0290 H   0  0  0  0  0  0  0  0  0  0  0  0
    7.1783    1.2929    1.0746 H   0  0  0  0  0  0  0  0  0  0  0  0
    6.5558   -0.8809   -2.6144 H   0  0  0  0  0  0  0  0  0  0  0  0
    8.2009   -0.5930   -2.0266 H   0  0  0  0  0  0  0  0  0  0  0  0
    7.1586   -1.7618   -1.2026 H   0  0  0  0  0  0  0  0  0  0  0  0
    4.5168    1.8819   -1.5099 H   0  0  0  0  0  0  0  0  0  0  0  0
    2.1696    1.5915   -0.9487 H   0  0  0  0  0  0  0  0  0  0  0  0
  1  2  1  0
  2  3  1  0
  3  4  1  0
  4  5  1  0
  5  6  1  0
  6  7  2  0
  6  8  1  0
  8  9  1  0
  9 10  1  0
 10 11  1  0
 11 12  2  0
 12 13  1  0
 13 14  1  0
 14 15  1  0
 13 16  2  0
 16 17  1  0
 17 18  1  0
 16 19  1  0
 19 20  2  0
 20 21  1  0
 21 22  1  0
 22 23  1  0
 23 24  1  0
 24 25  2  0
 25 26  1  0
 26 27  2  0
 27 28  1  0
 28 29  1  0
 28 30  1  0
 27 31  1  0
 31 32  2  0
 21  8  1  0
 32 24  1  0
 20 11  1  0
  1 33  1  0
  1 34  1  0
  1 35  1  0
  3 36  1  0
  3 37  1  0
  4 38  1  0
  4 39  1  0
  5 40  1  0
  9 41  1  0
  9 42  1  0
 10 43  1  0
 10 44  1  0
 12 45  1  0
 15 46  1  0
 15 47  1  0
 15 48  1  0
 18 49  1  0
 18 50  1  0
 18 51  1  0
 19 52  1  0
 21 53  1  0
 22 54  1  0
 22 55  1  0
 25 56  1  0
 26 57  1  0
 28 58  1  0
 29 59  1  0
 29 60  1  0
 29 61  1  0
 30 62  1  0
 30 63  1  0
 30 64  1  0
 31 65  1  0
 32 66  1  0
M  END
$$$$
