
     RDKit          3D

 59 62  0  0  0  0  0  0  0  0999 V2000
    5.6745    3.3518   -4.5457 C   0  0  0  0  0  0  0  0  0  0  0  0
    5.7416    2.0795   -3.7547 C   0  0  0  0  0  0  0  0  0  0  0  0
    6.3048    0.9255   -4.3114 C   0  0  0  0  0  0  0  0  0  0  0  0
    6.3388   -0.2687   -3.5865 C   0  0  0  0  0  0  0  0  0  0  0  0
    5.8067   -0.3294   -2.2921 C   0  0  0  0  0  0  0  0  0  0  0  0
    5.8110   -1.6194   -1.5126 C   0  0  0  0  0  0  0  0  0  0  0  0
    4.5496   -2.3105   -1.6639 N   0  0  0  0  0  0  0  0  0  0  0  0
    3.5309   -2.1477   -0.7509 C   0  0  0  0  0  0  0  0  0  0  0  0
    3.6604   -1.5509    0.3107 O   0  0  0  0  0  0  0  0  0  0  0  0
    2.2387   -2.8123   -1.1827 C   0  0  0  0  0  0  0  0  0  0  0  0
    1.0242   -2.3694   -0.3687 C   0  0  0  0  0  0  0  0  0  0  0  0
    0.6657   -0.9006   -0.6115 C   0  0  0  0  0  0  0  0  0  0  0  0
   -0.6733   -0.5893   -0.1191 N   0  0  0  0  0  0  0  0  0  0  0  0
   -1.7181   -0.8547   -1.0145 N   0  0  0  0  0  0  0  0  0  0  0  0
   -2.9601   -0.6440   -0.6793 C   0  0  0  0  0  0  0  0  0  0  0  0
   -4.0315   -0.9513   -1.6860 C   0  0  0  0  0  0  0  0  0  0  0  0
   -3.2634   -0.1271    0.6318 C   0  0  0  0  0  0  0  0  0  0  0  0
   -4.4282    0.2733    1.2659 C   0  0  0  0  0  0  0  0  0  0  0  0
   -5.8015    0.4351    0.7223 C   0  0  0  0  0  0  0  0  0  0  0  0
   -4.0478    0.5830    2.5779 N   0  0  0  0  0  0  0  0  0  0  0  0
   -4.8392    0.8549    3.7373 C   0  0  0  0  0  0  0  0  0  0  0  0
   -4.2302    1.4790    4.8407 C   0  0  0  0  0  0  0  0  0  0  0  0
   -4.9640    1.7602    5.9955 C   0  0  0  0  0  0  0  0  0  0  0  0
   -6.3080    1.4063    6.0694 C   0  0  0  0  0  0  0  0  0  0  0  0
   -6.9154    0.7621    4.9935 C   0  0  0  0  0  0  0  0  0  0  0  0
   -6.1852    0.4813    3.8330 C   0  0  0  0  0  0  0  0  0  0  0  0
   -2.6930    0.6076    2.6969 N   0  0  0  0  0  0  0  0  0  0  0  0
   -2.2322    0.1153    1.5450 C   0  0  0  0  0  0  0  0  0  0  0  0
   -0.8356   -0.1278    1.2047 C   0  0  0  0  0  0  0  0  0  0  0  0
    0.0937    0.0541    1.9867 O   0  0  0  0  0  0  0  0  0  0  0  0
    5.2248    0.8224   -1.7452 C   0  0  0  0  0  0  0  0  0  0  0  0
    5.1896    2.0146   -2.4710 C   0  0  0  0  0  0  0  0  0  0  0  0
    5.7021    4.2248   -3.8848 H   0  0  0  0  0  0  0  0  0  0  0  0
    4.7505    3.3800   -5.1311 H   0  0  0  0  0  0  0  0  0  0  0  0
    6.5282    3.4333   -5.2266 H   0  0  0  0  0  0  0  0  0  0  0  0
    6.7223    0.9500   -5.3154 H   0  0  0  0  0  0  0  0  0  0  0  0
    6.7846   -1.1503   -4.0410 H   0  0  0  0  0  0  0  0  0  0  0  0
    6.0241   -1.4257   -0.4552 H   0  0  0  0  0  0  0  0  0  0  0  0
    6.5952   -2.2879   -1.8848 H   0  0  0  0  0  0  0  0  0  0  0  0
    4.3241   -2.6571   -2.5858 H   0  0  0  0  0  0  0  0  0  0  0  0
    2.0649   -2.6121   -2.2467 H   0  0  0  0  0  0  0  0  0  0  0  0
    2.3743   -3.8939   -1.0642 H   0  0  0  0  0  0  0  0  0  0  0  0
    0.1758   -3.0050   -0.6521 H   0  0  0  0  0  0  0  0  0  0  0  0
    1.1923   -2.5364    0.7022 H   0  0  0  0  0  0  0  0  0  0  0  0
    1.3909   -0.2407   -0.1235 H   0  0  0  0  0  0  0  0  0  0  0  0
    0.6857   -0.6690   -1.6833 H   0  0  0  0  0  0  0  0  0  0  0  0
   -4.8396   -1.5201   -1.2195 H   0  0  0  0  0  0  0  0  0  0  0  0
   -4.4253   -0.0175   -2.0950 H   0  0  0  0  0  0  0  0  0  0  0  0
   -3.6202   -1.5434   -2.5092 H   0  0  0  0  0  0  0  0  0  0  0  0
   -5.7730    0.6957   -0.3394 H   0  0  0  0  0  0  0  0  0  0  0  0
   -6.3414    1.2534    1.2082 H   0  0  0  0  0  0  0  0  0  0  0  0
   -6.3722   -0.4922    0.8252 H   0  0  0  0  0  0  0  0  0  0  0  0
   -3.1790    1.7651    4.8121 H   0  0  0  0  0  0  0  0  0  0  0  0
   -4.4805    2.2517    6.8361 H   0  0  0  0  0  0  0  0  0  0  0  0
   -6.8775    1.6199    6.9703 H   0  0  0  0  0  0  0  0  0  0  0  0
   -7.9587    0.4630    5.0636 H   0  0  0  0  0  0  0  0  0  0  0  0
   -6.6915   -0.0724    3.0519 H   0  0  0  0  0  0  0  0  0  0  0  0
    4.7886    0.7922   -0.7470 H   0  0  0  0  0  0  0  0  0  0  0  0
    4.7271    2.8920   -2.0242 H   0  0  0  0  0  0  0  0  0  0  0  0
  1  2  1  0
  2  3  2  0
  3  4  1  0
  4  5  2  0
  5  6  1  0
  6  7  1  0
  7  8  1  0
  8  9  2  0
  8 10  1  0
 10 11  1  0
 11 12  1  0
 12 13  1  0
 13 14  1  0
 14 15  2  0
 15 16  1  0
 15 17  1  0
 17 18  2  0
 18 19  1  0
 18 20  1  0
 20 21  1  0
 21 22  2  0
 22 23  1  0
 23 24  2  0
 24 25  1  0
 25 26  2  0
 20 27  1  0
 27 28  2  0
 28 29  1  0
 29 30  2  0
  5 31  1  0
 31 32  2  0
 32  2  1  0
 29 13  1  0
 28 17  1  0
 26 21  1  0
  1 33  1  0
  1 34  1  0
  1 35  1  0
  3 36  1  0
  4 37  1  0
  6 38  1  0
  6 39  1  0
  7 40  1  0
 10 41  1  0
 10 42  1  0
 11 43  1  0
 11 44  1  0
 12 45  1  0
 12 46  1  0
 16 47  1  0
 16 48  1  0
 16 49  1  0
 19 50  1  0
 19 51  1  0
 19 52  1  0
 22 53  1  0
 23 54  1  0
 24 55  1  0
 25 56  1  0
 26 57  1  0
 31 58  1  0
 32 59  1  0
M  END
$$$$
