
     RDKit          3D

 53 55  0  0  0  0  0  0  0  0999 V2000
   -2.8481    3.4028   -3.5862 C   0  0  0  0  0  0  0  0  0  0  0  0
   -3.8224    2.5172   -3.0515 O   0  0  0  0  0  0  0  0  0  0  0  0
   -3.6573    2.1157   -1.7530 C   0  0  0  0  0  0  0  0  0  0  0  0
   -2.7209    2.6467   -0.8636 C   0  0  0  0  0  0  0  0  0  0  0  0
   -2.6213    2.1479    0.4415 C   0  0  0  0  0  0  0  0  0  0  0  0
   -3.4458    1.1016    0.8717 C   0  0  0  0  0  0  0  0  0  0  0  0
   -3.3251    0.5393    2.2196 C   0  0  0  0  0  0  0  0  0  0  0  0
   -2.2209    0.0096    2.7714 C   0  0  0  0  0  0  0  0  0  0  0  0
   -0.8756   -0.1538    2.1518 C   0  0  0  0  0  0  0  0  0  0  0  0
    0.1113    0.0626    2.8443 O   0  0  0  0  0  0  0  0  0  0  0  0
   -0.9057   -0.6217    0.8592 N   0  0  0  0  0  0  0  0  0  0  0  0
    0.1857   -0.8342   -0.0046 C   0  0  0  0  0  0  0  0  0  0  0  0
   -0.0966   -1.3870   -1.2630 C   0  0  0  0  0  0  0  0  0  0  0  0
    0.9255   -1.6474   -2.1805 C   0  0  0  0  0  0  0  0  0  0  0  0
    2.2447   -1.3516   -1.8515 C   0  0  0  0  0  0  0  0  0  0  0  0
    2.5247   -0.7829   -0.6074 C   0  0  0  0  0  0  0  0  0  0  0  0
    4.2018   -0.3963   -0.1804 S   0  0  0  0  0  6  0  0  0  0  0  0
    4.2999    1.0439   -0.0909 O   0  0  0  0  0  0  0  0  0  0  0  0
    5.0769   -1.1511   -1.0554 O   0  0  0  0  0  0  0  0  0  0  0  0
    4.3749   -1.0451    1.3745 N   0  0  0  0  0  0  0  0  0  0  0  0
    4.1915   -2.5071    1.5341 C   0  0  0  0  0  0  0  0  0  0  0  0
    4.9688   -2.8342    2.7995 C   0  0  0  0  0  0  0  0  0  0  0  0
    6.1829   -1.9372    2.6696 C   0  0  0  0  0  0  0  0  0  0  0  0
    5.6095   -0.6451    2.1016 C   0  0  0  0  0  0  0  0  0  0  0  0
    1.5049   -0.5190    0.3165 C   0  0  0  0  0  0  0  0  0  0  0  0
   -4.3985    0.5820   -0.0055 C   0  0  0  0  0  0  0  0  0  0  0  0
   -4.5095    1.0978   -1.2994 C   0  0  0  0  0  0  0  0  0  0  0  0
   -5.4263    0.5073   -2.1343 O   0  0  0  0  0  0  0  0  0  0  0  0
   -6.6161    1.2957   -2.1907 C   0  0  0  0  0  0  0  0  0  0  0  0
   -1.8413    2.9777   -3.5149 H   0  0  0  0  0  0  0  0  0  0  0  0
   -2.9006    4.3835   -3.1012 H   0  0  0  0  0  0  0  0  0  0  0  0
   -3.0749    3.5459   -4.6480 H   0  0  0  0  0  0  0  0  0  0  0  0
   -2.0467    3.4470   -1.1520 H   0  0  0  0  0  0  0  0  0  0  0  0
   -1.8801    2.5779    1.1134 H   0  0  0  0  0  0  0  0  0  0  0  0
   -4.2343    0.5861    2.8157 H   0  0  0  0  0  0  0  0  0  0  0  0
   -2.2445   -0.3050    3.8107 H   0  0  0  0  0  0  0  0  0  0  0  0
   -1.8175   -0.8398    0.4785 H   0  0  0  0  0  0  0  0  0  0  0  0
   -1.1199   -1.6242   -1.5478 H   0  0  0  0  0  0  0  0  0  0  0  0
    0.6888   -2.0785   -3.1503 H   0  0  0  0  0  0  0  0  0  0  0  0
    3.0404   -1.5527   -2.5654 H   0  0  0  0  0  0  0  0  0  0  0  0
    3.1350   -2.7626    1.6454 H   0  0  0  0  0  0  0  0  0  0  0  0
    4.6104   -3.0551    0.6838 H   0  0  0  0  0  0  0  0  0  0  0  0
    5.2282   -3.8940    2.8701 H   0  0  0  0  0  0  0  0  0  0  0  0
    4.3883   -2.5580    3.6876 H   0  0  0  0  0  0  0  0  0  0  0  0
    6.7021   -1.7817    3.6195 H   0  0  0  0  0  0  0  0  0  0  0  0
    6.8953   -2.3746    1.9599 H   0  0  0  0  0  0  0  0  0  0  0  0
    6.3430   -0.1487    1.4597 H   0  0  0  0  0  0  0  0  0  0  0  0
    5.3266    0.0446    2.9028 H   0  0  0  0  0  0  0  0  0  0  0  0
    1.7679   -0.0661    1.2682 H   0  0  0  0  0  0  0  0  0  0  0  0
   -5.0525   -0.2308    0.2981 H   0  0  0  0  0  0  0  0  0  0  0  0
   -6.4217    2.3076   -2.5652 H   0  0  0  0  0  0  0  0  0  0  0  0
   -7.3066    0.8057   -2.8838 H   0  0  0  0  0  0  0  0  0  0  0  0
   -7.0985    1.3395   -1.2072 H   0  0  0  0  0  0  0  0  0  0  0  0
  1  2  1  0
  2  3  1  0
  3  4  2  0
  4  5  1  0
  5  6  2  0
  6  7  1  0
  7  8  2  3
  8  9  1  0
  9 10  2  0
  9 11  1  0
 11 12  1  0
 12 13  2  0
 13 14  1  0
 14 15  2  0
 15 16  1  0
 16 17  1  0
 17 18  2  0
 17 19  2  0
 17 20  1  0
 20 21  1  0
 21 22  1  0
 22 23  1  0
 23 24  1  0
 16 25  2  0
  6 26  1  0
 26 27  2  0
 27 28  1  0
 28 29  1  0
 27  3  1  0
 25 12  1  0
 24 20  1  0
  1 30  1  0
  1 31  1  0
  1 32  1  0
  4 33  1  0
  5 34  1  0
  7 35  1  0
  8 36  1  0
 11 37  1  0
 13 38  1  0
 14 39  1  0
 15 40  1  0
 21 41  1  0
 21 42  1  0
 22 43  1  0
 22 44  1  0
 23 45  1  0
 23 46  1  0
 24 47  1  0
 24 48  1  0
 25 49  1  0
 26 50  1  0
 29 51  1  0
 29 52  1  0
 29 53  1  0
M  END
$$$$
