
     RDKit          3D

 92 93  0  0  0  0  0  0  0  0999 V2000
    9.6348   -2.2255    3.0732 C   0  0  0  0  0  0  0  0  0  0  0  0
    8.5290   -1.7744    2.1311 C   0  0  0  0  0  0  0  0  0  0  0  0
    8.3130   -0.2614    2.2049 C   0  0  0  0  0  0  0  0  0  0  0  0
    7.1106    0.2228    1.3881 C   0  0  0  0  0  0  0  0  0  0  0  0
    7.3121    0.0868   -0.1245 C   0  0  0  0  0  0  0  0  0  0  0  0
    6.0669    0.4720   -0.9293 C   0  0  0  0  0  0  0  0  0  0  0  0
    5.7586    1.9729   -0.9020 C   0  0  0  0  0  0  0  0  0  0  0  0
    4.5351    2.3370   -1.7520 C   0  0  0  0  0  0  0  0  0  0  0  0
    3.2163    1.9272   -1.0887 C   0  0  0  0  0  0  0  0  0  0  0  0
    1.9777    2.2511   -1.9301 C   0  0  0  0  0  0  0  0  0  0  0  0
    1.8800    1.5403   -3.2820 C   0  0  0  0  0  0  0  0  0  0  0  0
    2.0717    0.0176   -3.2966 C   0  0  0  0  0  0  0  0  0  0  0  0
    0.9227   -0.8158   -2.7132 C   0  0  0  0  0  0  0  0  0  0  0  0
    0.9404   -0.9296   -1.1890 C   0  0  0  0  0  0  0  0  0  0  0  0
    0.0311   -2.0289   -0.6384 C   0  0  0  0  0  0  0  0  0  0  0  0
   -1.4485   -2.0372   -1.0394 C   0  0  0  0  0  0  0  0  0  0  0  0
   -2.3428   -0.9103   -0.4750 N   0  0  0  0  0  4  0  0  0  0  0  0
   -3.7907   -1.4023   -0.6579 C   0  0  0  0  0  0  0  0  0  0  0  0
   -2.2036    0.3718   -1.2771 C   0  0  0  0  0  0  0  0  0  0  0  0
   -2.0465   -0.6750    1.0358 C   0  0  0  0  0  0  0  0  0  0  0  0
   -3.0030    0.2912    1.7922 C   0  0  0  0  0  0  0  0  0  0  0  0
   -4.3530   -0.2433    2.0221 N   0  0  0  0  0  0  0  0  0  0  0  0
   -5.4065    0.7578    2.2657 C   0  0  0  0  0  0  0  0  0  0  0  0
   -6.1144    1.0685    0.9660 C   0  0  0  0  0  0  0  0  0  0  0  0
   -5.8560    2.2492    0.2560 C   0  0  0  0  0  0  0  0  0  0  0  0
   -6.4972    2.5016   -0.9627 C   0  0  0  0  0  0  0  0  0  0  0  0
   -7.4048    1.5786   -1.4847 C   0  0  0  0  0  0  0  0  0  0  0  0
   -8.0777    1.6975   -2.6686 O   0  0  0  0  0  0  0  0  0  0  0  0
   -8.0861    2.9845   -3.2747 C   0  0  0  0  0  0  0  0  0  0  0  0
   -7.6657    0.4030   -0.7797 C   0  0  0  0  0  0  0  0  0  0  0  0
   -7.0338    0.1500    0.4383 C   0  0  0  0  0  0  0  0  0  0  0  0
   -4.4318   -1.2945    2.9430 C   0  0  0  0  0  0  0  0  0  0  0  0
   -3.3079   -1.7427    3.5278 N   0  0  0  0  0  0  0  0  0  0  0  0
   -3.4234   -2.7723    4.3933 C   0  0  0  0  0  0  0  0  0  0  0  0
   -4.6127   -3.3930    4.6812 C   0  0  0  0  0  0  0  0  0  0  0  0
   -5.7005   -2.8928    4.0171 C   0  0  0  0  0  0  0  0  0  0  0  0
   -5.6284   -1.8655    3.1473 N   0  0  0  0  0  0  0  0  0  0  0  0
    9.7699   -3.3101    3.0062 H   0  0  0  0  0  0  0  0  0  0  0  0
   10.5865   -1.7469    2.8172 H   0  0  0  0  0  0  0  0  0  0  0  0
    9.3924   -1.9782    4.1116 H   0  0  0  0  0  0  0  0  0  0  0  0
    7.6014   -2.2961    2.3935 H   0  0  0  0  0  0  0  0  0  0  0  0
    8.7952   -2.0733    1.1112 H   0  0  0  0  0  0  0  0  0  0  0  0
    9.2192    0.2618    1.8738 H   0  0  0  0  0  0  0  0  0  0  0  0
    8.1481    0.0224    3.2533 H   0  0  0  0  0  0  0  0  0  0  0  0
    6.2134   -0.3287    1.6963 H   0  0  0  0  0  0  0  0  0  0  0  0
    6.9377    1.2763    1.6403 H   0  0  0  0  0  0  0  0  0  0  0  0
    7.5521   -0.9531   -0.3721 H   0  0  0  0  0  0  0  0  0  0  0  0
    8.1675    0.6946   -0.4439 H   0  0  0  0  0  0  0  0  0  0  0  0
    6.2265    0.1652   -1.9709 H   0  0  0  0  0  0  0  0  0  0  0  0
    5.2133   -0.1061   -0.5605 H   0  0  0  0  0  0  0  0  0  0  0  0
    6.6276    2.5143   -1.2941 H   0  0  0  0  0  0  0  0  0  0  0  0
    5.6047    2.3217    0.1260 H   0  0  0  0  0  0  0  0  0  0  0  0
    4.6336    1.8776   -2.7408 H   0  0  0  0  0  0  0  0  0  0  0  0
    4.5285    3.4230   -1.9062 H   0  0  0  0  0  0  0  0  0  0  0  0
    3.2258    0.8624   -0.8433 H   0  0  0  0  0  0  0  0  0  0  0  0
    3.1254    2.4553   -0.1309 H   0  0  0  0  0  0  0  0  0  0  0  0
    1.0826    2.0342   -1.3391 H   0  0  0  0  0  0  0  0  0  0  0  0
    1.9494    3.3324   -2.1121 H   0  0  0  0  0  0  0  0  0  0  0  0
    0.9086    1.7832   -3.7320 H   0  0  0  0  0  0  0  0  0  0  0  0
    2.6319    1.9756   -3.9535 H   0  0  0  0  0  0  0  0  0  0  0  0
    3.0237   -0.2659   -2.8353 H   0  0  0  0  0  0  0  0  0  0  0  0
    2.1642   -0.2694   -4.3544 H   0  0  0  0  0  0  0  0  0  0  0  0
    1.0074   -1.8266   -3.1322 H   0  0  0  0  0  0  0  0  0  0  0  0
   -0.0338   -0.4158   -3.0622 H   0  0  0  0  0  0  0  0  0  0  0  0
    1.9615   -1.1645   -0.8646 H   0  0  0  0  0  0  0  0  0  0  0  0
    0.6899    0.0208   -0.7191 H   0  0  0  0  0  0  0  0  0  0  0  0
    0.4496   -2.9875   -0.9720 H   0  0  0  0  0  0  0  0  0  0  0  0
    0.1310   -2.0504    0.4514 H   0  0  0  0  0  0  0  0  0  0  0  0
   -1.5702   -2.0390   -2.1280 H   0  0  0  0  0  0  0  0  0  0  0  0
   -1.8777   -2.9753   -0.6640 H   0  0  0  0  0  0  0  0  0  0  0  0
   -3.9690   -2.2394    0.0242 H   0  0  0  0  0  0  0  0  0  0  0  0
   -4.4707   -0.5738   -0.4860 H   0  0  0  0  0  0  0  0  0  0  0  0
   -3.9068   -1.7357   -1.6951 H   0  0  0  0  0  0  0  0  0  0  0  0
   -1.2366    0.8266   -1.0656 H   0  0  0  0  0  0  0  0  0  0  0  0
   -2.9990    1.0640   -0.9889 H   0  0  0  0  0  0  0  0  0  0  0  0
   -2.2994    0.1341   -2.3401 H   0  0  0  0  0  0  0  0  0  0  0  0
   -2.0070   -1.6676    1.4903 H   0  0  0  0  0  0  0  0  0  0  0  0
   -1.0434   -0.2392    1.0770 H   0  0  0  0  0  0  0  0  0  0  0  0
   -2.5443    0.5754    2.7490 H   0  0  0  0  0  0  0  0  0  0  0  0
   -3.0751    1.2231    1.2223 H   0  0  0  0  0  0  0  0  0  0  0  0
   -6.1660    0.4537    3.0000 H   0  0  0  0  0  0  0  0  0  0  0  0
   -4.9679    1.6762    2.6850 H   0  0  0  0  0  0  0  0  0  0  0  0
   -5.1601    2.9885    0.6474 H   0  0  0  0  0  0  0  0  0  0  0  0
   -6.2704    3.4295   -1.4797 H   0  0  0  0  0  0  0  0  0  0  0  0
   -8.4801    3.7417   -2.5867 H   0  0  0  0  0  0  0  0  0  0  0  0
   -7.0883    3.2565   -3.6341 H   0  0  0  0  0  0  0  0  0  0  0  0
   -8.7530    2.9435   -4.1415 H   0  0  0  0  0  0  0  0  0  0  0  0
   -8.3781   -0.3170   -1.1771 H   0  0  0  0  0  0  0  0  0  0  0  0
   -7.2572   -0.7724    0.9756 H   0  0  0  0  0  0  0  0  0  0  0  0
   -2.4994   -3.0930    4.8655 H   0  0  0  0  0  0  0  0  0  0  0  0
   -4.6875   -4.2147    5.3814 H   0  0  0  0  0  0  0  0  0  0  0  0
   -6.6928   -3.3111    4.1624 H   0  0  0  0  0  0  0  0  0  0  0  0
  1  2  1  0
  2  3  1  0
  3  4  1  0
  4  5  1  0
  5  6  1  0
  6  7  1  0
  7  8  1  0
  8  9  1  0
  9 10  1  0
 10 11  1  0
 11 12  1  0
 12 13  1  0
 13 14  1  0
 14 15  1  0
 15 16  1  0
 16 17  1  0
 17 18  1  0
 17 19  1  0
 17 20  1  0
 20 21  1  0
 21 22  1  0
 22 23  1  0
 23 24  1  0
 24 25  2  0
 25 26  1  0
 26 27  2  0
 27 28  1  0
 28 29  1  0
 27 30  1  0
 30 31  2  0
 22 32  1  0
 32 33  2  0
 33 34  1  0
 34 35  2  0
 35 36  1  0
 36 37  2  0
 31 24  1  0
 37 32  1  0
  1 38  1  0
  1 39  1  0
  1 40  1  0
  2 41  1  0
  2 42  1  0
  3 43  1  0
  3 44  1  0
  4 45  1  0
  4 46  1  0
  5 47  1  0
  5 48  1  0
  6 49  1  0
  6 50  1  0
  7 51  1  0
  7 52  1  0
  8 53  1  0
  8 54  1  0
  9 55  1  0
  9 56  1  0
 10 57  1  0
 10 58  1  0
 11 59  1  0
 11 60  1  0
 12 61  1  0
 12 62  1  0
 13 63  1  0
 13 64  1  0
 14 65  1  0
 14 66  1  0
 15 67  1  0
 15 68  1  0
 16 69  1  0
 16 70  1  0
 18 71  1  0
 18 72  1  0
 18 73  1  0
 19 74  1  0
 19 75  1  0
 19 76  1  0
 20 77  1  0
 20 78  1  0
 21 79  1  0
 21 80  1  0
 23 81  1  0
 23 82  1  0
 25 83  1  0
 26 84  1  0
 29 85  1  0
 29 86  1  0
 29 87  1  0
 30 88  1  0
 31 89  1  0
 34 90  1  0
 35 91  1  0
 36 92  1  0
M  CHG  1  17   1
M  END
$$$$
