
     RDKit          3D

 41 44  0  0  0  0  0  0  0  0999 V2000
    2.9495    0.0433    2.2365 C   0  0  0  0  0  0  0  0  0  0  0  0
    3.3856   -0.0772    0.8045 C   0  0  0  0  0  0  0  0  0  0  0  0
    4.6659   -0.6016    0.5456 C   0  0  0  0  0  0  0  0  0  0  0  0
    5.1446   -0.7377   -0.7593 C   0  0  0  0  0  0  0  0  0  0  0  0
    4.3552   -0.3493   -1.8355 C   0  0  0  0  0  0  0  0  0  0  0  0
    3.0848    0.1739   -1.6055 C   0  0  0  0  0  0  0  0  0  0  0  0
    2.5929    0.3060   -0.2939 C   0  0  0  0  0  0  0  0  0  0  0  0
    0.9592    1.0115   -0.1410 S   0  0  0  0  0  6  0  0  0  0  0  0
    0.9125    2.1475   -1.0411 O   0  0  0  0  0  0  0  0  0  0  0  0
    0.5827    1.1780    1.2464 O   0  0  0  0  0  0  0  0  0  0  0  0
   -0.0364   -0.1563   -0.8317 N   0  0  0  0  0  0  0  0  0  0  0  0
   -0.3925   -1.2272    0.0147 C   0  0  0  0  0  0  0  0  0  0  0  0
    0.5927   -2.1005    0.2678 N   0  0  0  0  0  0  0  0  0  0  0  0
    0.3215   -3.1200    1.0927 C   0  0  0  0  0  0  0  0  0  0  0  0
   -0.8324   -3.3771    1.7137 N   0  0  0  0  0  0  0  0  0  0  0  0
   -1.7813   -2.4655    1.4402 C   0  0  0  0  0  0  0  0  0  0  0  0
   -3.3310   -2.5974    2.1351 S   0  0  0  0  0  0  0  0  0  0  0  0
   -3.8709   -1.1826    1.3428 C   0  0  0  0  0  0  0  0  0  0  0  0
   -2.8843   -0.6164    0.5590 C   0  0  0  0  0  0  0  0  0  0  0  0
   -3.1546    0.5913   -0.1998 C   0  0  0  0  0  0  0  0  0  0  0  0
   -2.6855    1.8258    0.2600 C   0  0  0  0  0  0  0  0  0  0  0  0
   -2.8958    2.9774   -0.4987 C   0  0  0  0  0  0  0  0  0  0  0  0
   -3.5810    2.8998   -1.7108 C   0  0  0  0  0  0  0  0  0  0  0  0
   -4.0581    1.6715   -2.1675 C   0  0  0  0  0  0  0  0  0  0  0  0
   -3.8448    0.5160   -1.4147 C   0  0  0  0  0  0  0  0  0  0  0  0
   -1.6521   -1.3630    0.6092 C   0  0  0  0  0  0  0  0  0  0  0  0
    2.7923    1.0929    2.5023 H   0  0  0  0  0  0  0  0  0  0  0  0
    3.7118   -0.3459    2.9209 H   0  0  0  0  0  0  0  0  0  0  0  0
    2.0417   -0.5396    2.4164 H   0  0  0  0  0  0  0  0  0  0  0  0
    5.3087   -0.9100    1.3686 H   0  0  0  0  0  0  0  0  0  0  0  0
    6.1376   -1.1453   -0.9325 H   0  0  0  0  0  0  0  0  0  0  0  0
    4.7277   -0.4506   -2.8514 H   0  0  0  0  0  0  0  0  0  0  0  0
    2.4763    0.4802   -2.4543 H   0  0  0  0  0  0  0  0  0  0  0  0
   -0.7791    0.2856   -1.3688 H   0  0  0  0  0  0  0  0  0  0  0  0
    1.1341   -3.8161    1.2779 H   0  0  0  0  0  0  0  0  0  0  0  0
   -4.8847   -0.8345    1.4943 H   0  0  0  0  0  0  0  0  0  0  0  0
   -2.1438    1.9010    1.2017 H   0  0  0  0  0  0  0  0  0  0  0  0
   -2.5184    3.9346   -0.1462 H   0  0  0  0  0  0  0  0  0  0  0  0
   -3.7419    3.7997   -2.3000 H   0  0  0  0  0  0  0  0  0  0  0  0
   -4.5937    1.6153   -3.1121 H   0  0  0  0  0  0  0  0  0  0  0  0
   -4.2150   -0.4374   -1.7853 H   0  0  0  0  0  0  0  0  0  0  0  0
  1  2  1  0
  2  3  2  0
  3  4  1  0
  4  5  2  0
  5  6  1  0
  6  7  2  0
  7  8  1  0
  8  9  2  0
  8 10  2  0
  8 11  1  0
 11 12  1  0
 12 13  2  0
 13 14  1  0
 14 15  2  0
 15 16  1  0
 16 17  1  0
 17 18  1  0
 18 19  2  0
 19 20  1  0
 20 21  2  0
 21 22  1  0
 22 23  2  0
 23 24  1  0
 24 25  2  0
 19 26  1  0
  7  2  1  0
 26 12  1  0
 26 16  2  0
 25 20  1  0
  1 27  1  0
  1 28  1  0
  1 29  1  0
  3 30  1  0
  4 31  1  0
  5 32  1  0
  6 33  1  0
 11 34  1  0
 14 35  1  0
 18 36  1  0
 21 37  1  0
 22 38  1  0
 23 39  1  0
 24 40  1  0
 25 41  1  0
M  END
$$$$
