
     RDKit          3D

 46 49  0  0  0  0  0  0  0  0999 V2000
    6.5962   -1.2125    0.2725 N   0  0  0  0  0  0  0  0  0  0  0  0
    5.9802    0.1692    1.0165 S   0  0  0  0  0  6  0  0  0  0  0  0
    6.5068    1.3178    0.3186 O   0  0  0  0  0  0  0  0  0  0  0  0
    6.1711   -0.0353    2.4340 O   0  0  0  0  0  0  0  0  0  0  0  0
    4.2543    0.0225    0.6488 C   0  0  0  0  0  0  0  0  0  0  0  0
    3.4118   -0.6511    1.5284 C   0  0  0  0  0  0  0  0  0  0  0  0
    2.0519   -0.7637    1.2207 C   0  0  0  0  0  0  0  0  0  0  0  0
    1.4999   -0.2079    0.0503 C   0  0  0  0  0  0  0  0  0  0  0  0
    0.1404   -0.3404   -0.2253 N   0  0  0  0  0  0  0  0  0  0  0  0
   -0.6749   -1.0552    0.6056 N   0  0  0  0  0  0  0  0  0  0  0  0
   -1.8350   -1.1400    0.0277 C   0  0  0  0  0  0  0  0  0  0  0  0
   -2.9967   -1.8263    0.6401 C   0  0  0  0  0  0  0  0  0  0  0  0
   -2.8785   -2.3278    1.9425 C   0  0  0  0  0  0  0  0  0  0  0  0
   -3.9556   -2.9787    2.5469 C   0  0  0  0  0  0  0  0  0  0  0  0
   -5.1546   -3.1324    1.8534 C   0  0  0  0  0  0  0  0  0  0  0  0
   -5.2782   -2.6369    0.5559 C   0  0  0  0  0  0  0  0  0  0  0  0
   -4.2023   -1.9847   -0.0526 C   0  0  0  0  0  0  0  0  0  0  0  0
   -1.9129   -0.5171   -1.3388 C   0  0  0  0  0  0  0  0  0  0  0  0
   -0.5606    0.1960   -1.3950 C   0  0  0  0  0  0  0  0  0  0  0  0
   -0.7416    1.7063   -1.3590 C   0  0  0  0  0  0  0  0  0  0  0  0
   -0.7517    2.4294   -2.5640 C   0  0  0  0  0  0  0  0  0  0  0  0
   -0.9398    3.8129   -2.5637 C   0  0  0  0  0  0  0  0  0  0  0  0
   -1.1264    4.4918   -1.3618 C   0  0  0  0  0  0  0  0  0  0  0  0
   -1.1273    3.7889   -0.1594 C   0  0  0  0  0  0  0  0  0  0  0  0
   -0.9405    2.4057   -0.1574 C   0  0  0  0  0  0  0  0  0  0  0  0
    2.3800    0.4785   -0.8036 C   0  0  0  0  0  0  0  0  0  0  0  0
    3.7447    0.5995   -0.5128 C   0  0  0  0  0  0  0  0  0  0  0  0
    5.9088   -1.6899   -0.3098 H   0  0  0  0  0  0  0  0  0  0  0  0
    6.9765   -1.8282    0.9933 H   0  0  0  0  0  0  0  0  0  0  0  0
    3.7899   -1.0857    2.4505 H   0  0  0  0  0  0  0  0  0  0  0  0
    1.4038   -1.2925    1.9177 H   0  0  0  0  0  0  0  0  0  0  0  0
   -1.9480   -2.2133    2.4949 H   0  0  0  0  0  0  0  0  0  0  0  0
   -3.8572   -3.3643    3.5586 H   0  0  0  0  0  0  0  0  0  0  0  0
   -5.9933   -3.6391    2.3249 H   0  0  0  0  0  0  0  0  0  0  0  0
   -6.2150   -2.7593    0.0173 H   0  0  0  0  0  0  0  0  0  0  0  0
   -4.3298   -1.6135   -1.0648 H   0  0  0  0  0  0  0  0  0  0  0  0
   -2.7753    0.1474   -1.4397 H   0  0  0  0  0  0  0  0  0  0  0  0
   -1.9663   -1.3159   -2.0863 H   0  0  0  0  0  0  0  0  0  0  0  0
   -0.0372   -0.0938   -2.3152 H   0  0  0  0  0  0  0  0  0  0  0  0
   -0.6100    1.9202   -3.5149 H   0  0  0  0  0  0  0  0  0  0  0  0
   -0.9396    4.3627   -3.5015 H   0  0  0  0  0  0  0  0  0  0  0  0
   -1.2691    5.5692   -1.3607 H   0  0  0  0  0  0  0  0  0  0  0  0
   -1.2695    4.3163    0.7804 H   0  0  0  0  0  0  0  0  0  0  0  0
   -0.9398    1.8748    0.7939 H   0  0  0  0  0  0  0  0  0  0  0  0
    2.0182    0.9475   -1.7141 H   0  0  0  0  0  0  0  0  0  0  0  0
    4.3925    1.1486   -1.1932 H   0  0  0  0  0  0  0  0  0  0  0  0
  1  2  1  0
  2  3  2  0
  2  4  2  0
  2  5  1  0
  5  6  2  0
  6  7  1  0
  7  8  2  0
  8  9  1  0
  9 10  1  0
 10 11  2  0
 11 12  1  0
 12 13  2  0
 13 14  1  0
 14 15  2  0
 15 16  1  0
 16 17  2  0
 11 18  1  0
 18 19  1  0
 19 20  1  0
 20 21  2  0
 21 22  1  0
 22 23  2  0
 23 24  1  0
 24 25  2  0
  8 26  1  0
 26 27  2  0
 27  5  1  0
 19  9  1  0
 25 20  1  0
 17 12  1  0
  1 28  1  0
  1 29  1  0
  6 30  1  0
  7 31  1  0
 13 32  1  0
 14 33  1  0
 15 34  1  0
 16 35  1  0
 17 36  1  0
 18 37  1  0
 18 38  1  0
 19 39  1  0
 21 40  1  0
 22 41  1  0
 23 42  1  0
 24 43  1  0
 25 44  1  0
 26 45  1  0
 27 46  1  0
M  END
$$$$
