
     RDKit          3D

 54 58  0  0  0  0  0  0  0  0999 V2000
   -6.2496   -0.1638    4.8519 O   0  0  0  0  0  0  0  0  0  0  0  0
   -6.3845    0.0350    3.6591 C   0  0  0  0  0  0  0  0  0  0  0  0
   -7.5950    0.2736    3.1250 O   0  0  0  0  0  0  0  0  0  0  0  0
   -5.2992    0.0409    2.6492 C   0  0  0  0  0  0  0  0  0  0  0  0
   -5.5440    0.2609    1.2929 C   0  0  0  0  0  0  0  0  0  0  0  0
   -4.4848    0.2507    0.3742 C   0  0  0  0  0  0  0  0  0  0  0  0
   -3.1624    0.0160    0.7813 C   0  0  0  0  0  0  0  0  0  0  0  0
   -2.0813   -0.0039   -0.1566 N   0  0  0  0  0  0  0  0  0  0  0  0
   -0.7615    0.3777    0.2107 C   0  0  0  0  0  0  0  0  0  0  0  0
   -0.3237    0.7278    1.2913 O   0  0  0  0  0  0  0  0  0  0  0  0
    0.0222    0.2896   -1.0735 C   0  0  0  0  0  0  0  0  0  0  0  0
    1.3155    0.5255   -1.3331 C   0  0  0  0  0  0  0  0  0  0  0  0
    2.3027    0.9821   -0.4203 C   0  0  0  0  0  0  0  0  0  0  0  0
    2.2584    1.8971    0.6227 C   0  0  0  0  0  0  0  0  0  0  0  0
    3.5569    1.9972    1.1789 C   0  0  0  0  0  0  0  0  0  0  0  0
    4.3617    1.1586    0.4419 C   0  0  0  0  0  0  0  0  0  0  0  0
    5.7782    0.7998    0.4796 C   0  0  0  0  0  0  0  0  0  0  0  0
    6.6328    1.3686    1.4384 C   0  0  0  0  0  0  0  0  0  0  0  0
    7.9914    1.0332    1.4856 C   0  0  0  0  0  0  0  0  0  0  0  0
    8.5087    0.1164    0.5640 C   0  0  0  0  0  0  0  0  0  0  0  0
    9.9323   -0.2394    0.6087 N   0  0  0  0  0  4  0  0  0  0  0  0
   10.3480   -1.0620   -0.2201 O   0  0  0  0  0  0  0  0  0  0  0  0
   10.6354    0.3045    1.4722 O   0  0  0  0  0  1  0  0  0  0  0  0
    7.6772   -0.4630   -0.3996 C   0  0  0  0  0  0  0  0  0  0  0  0
    6.3211   -0.1188   -0.4355 C   0  0  0  0  0  0  0  0  0  0  0  0
    3.6124    0.5632   -0.5294 O   0  0  0  0  0  0  0  0  0  0  0  0
   -0.9051   -0.1706   -2.0806 C   0  0  0  0  0  0  0  0  0  0  0  0
   -2.1110   -0.3235   -1.5146 C   0  0  0  0  0  0  0  0  0  0  0  0
   -3.2329   -0.9068   -2.2532 C   0  0  0  0  0  0  0  0  0  0  0  0
   -3.7709   -2.1426   -1.8667 C   0  0  0  0  0  0  0  0  0  0  0  0
   -4.8293   -2.7083   -2.5804 C   0  0  0  0  0  0  0  0  0  0  0  0
   -5.3536   -2.0486   -3.6904 C   0  0  0  0  0  0  0  0  0  0  0  0
   -4.8205   -0.8244   -4.0903 C   0  0  0  0  0  0  0  0  0  0  0  0
   -3.7616   -0.2566   -3.3782 C   0  0  0  0  0  0  0  0  0  0  0  0
   -2.9356   -0.1875    2.1517 C   0  0  0  0  0  0  0  0  0  0  0  0
   -3.9889   -0.1805    3.0762 C   0  0  0  0  0  0  0  0  0  0  0  0
   -8.1995    0.2378    3.8960 H   0  0  0  0  0  0  0  0  0  0  0  0
   -6.5527    0.4520    0.9337 H   0  0  0  0  0  0  0  0  0  0  0  0
   -4.7261    0.4740   -0.6603 H   0  0  0  0  0  0  0  0  0  0  0  0
    1.6900    0.3250   -2.3341 H   0  0  0  0  0  0  0  0  0  0  0  0
    1.3825    2.4397    0.9519 H   0  0  0  0  0  0  0  0  0  0  0  0
    3.8558    2.6150    2.0128 H   0  0  0  0  0  0  0  0  0  0  0  0
    6.2511    2.0824    2.1653 H   0  0  0  0  0  0  0  0  0  0  0  0
    8.6236    1.4928    2.2425 H   0  0  0  0  0  0  0  0  0  0  0  0
    8.0602   -1.1783   -1.1244 H   0  0  0  0  0  0  0  0  0  0  0  0
    5.6860   -0.5799   -1.1907 H   0  0  0  0  0  0  0  0  0  0  0  0
   -0.6451   -0.3961   -3.1039 H   0  0  0  0  0  0  0  0  0  0  0  0
   -3.3689   -2.6727   -1.0056 H   0  0  0  0  0  0  0  0  0  0  0  0
   -5.2420   -3.6652   -2.2706 H   0  0  0  0  0  0  0  0  0  0  0  0
   -6.1769   -2.4907   -4.2462 H   0  0  0  0  0  0  0  0  0  0  0  0
   -5.2275   -0.3132   -4.9594 H   0  0  0  0  0  0  0  0  0  0  0  0
   -3.3577    0.6996   -3.7043 H   0  0  0  0  0  0  0  0  0  0  0  0
   -1.9379   -0.3885    2.5349 H   0  0  0  0  0  0  0  0  0  0  0  0
   -3.7743   -0.3519    4.1297 H   0  0  0  0  0  0  0  0  0  0  0  0
  1  2  2  0
  2  3  1  0
  2  4  1  0
  4  5  2  0
  5  6  1  0
  6  7  2  0
  7  8  1  0
  8  9  1  0
  9 10  2  0
  9 11  1  0
 11 12  2  3
 12 13  1  0
 13 14  2  0
 14 15  1  0
 15 16  2  0
 16 17  1  0
 17 18  2  0
 18 19  1  0
 19 20  2  0
 20 21  1  0
 21 22  2  0
 21 23  1  0
 20 24  1  0
 24 25  2  0
 16 26  1  0
 11 27  1  0
 27 28  2  0
 28 29  1  0
 29 30  2  0
 30 31  1  0
 31 32  2  0
 32 33  1  0
 33 34  2  0
  7 35  1  0
 35 36  2  0
 36  4  1  0
 28  8  1  0
 34 29  1  0
 26 13  1  0
 25 17  1  0
  3 37  1  0
  5 38  1  0
  6 39  1  0
 12 40  1  0
 14 41  1  0
 15 42  1  0
 18 43  1  0
 19 44  1  0
 24 45  1  0
 25 46  1  0
 27 47  1  0
 30 48  1  0
 31 49  1  0
 32 50  1  0
 33 51  1  0
 34 52  1  0
 35 53  1  0
 36 54  1  0
M  CHG  2  21   1  23  -1
M  END
$$$$
