
     RDKit          3D

 48 51  0  0  0  0  0  0  0  0999 V2000
    6.5947   -2.9459    1.1041 O   0  0  0  0  0  0  0  0  0  0  0  0
    5.4076   -2.6077    0.3488 S   0  0  0  0  0  6  0  0  0  0  0  0
    5.1062   -3.2547   -0.9095 O   0  0  0  0  0  0  0  0  0  0  0  0
    4.1047   -2.7849    1.4041 N   0  0  0  0  0  0  0  0  0  0  0  0
    2.8350   -2.2559    1.0489 C   0  0  0  0  0  0  0  0  0  0  0  0
    2.2958   -1.2222    1.8078 C   0  0  0  0  0  0  0  0  0  0  0  0
    1.0642   -0.6627    1.4483 C   0  0  0  0  0  0  0  0  0  0  0  0
    0.3414   -1.1188    0.3279 C   0  0  0  0  0  0  0  0  0  0  0  0
   -0.9558   -0.5106   -0.0307 C   0  0  0  0  0  0  0  0  0  0  0  0
   -1.4830   -0.4917   -1.3131 C   0  0  0  0  0  0  0  0  0  0  0  0
   -2.7215    0.1153   -1.5404 C   0  0  0  0  0  0  0  0  0  0  0  0
   -3.4255    0.6936   -0.4910 C   0  0  0  0  0  0  0  0  0  0  0  0
   -4.6651    1.3224   -0.7322 N   0  0  0  0  0  0  0  0  0  0  0  0
   -5.1699    2.0549    0.4533 C   0  0  0  0  0  0  0  0  0  0  0  0
   -6.4833    2.7696    0.0994 C   0  0  0  0  0  0  0  0  0  0  0  0
   -7.4706    1.8421   -0.3815 O   0  0  0  0  0  0  0  0  0  0  0  0
   -6.9879    1.1709   -1.5552 C   0  0  0  0  0  0  0  0  0  0  0  0
   -5.6874    0.3988   -1.2736 C   0  0  0  0  0  0  0  0  0  0  0  0
   -2.8688    0.6798    0.7364 N   0  0  0  0  0  0  0  0  0  0  0  0
   -1.6433    0.0741    0.9716 N   0  0  0  0  0  0  0  0  0  0  0  0
    0.9069   -2.1747   -0.4107 C   0  0  0  0  0  0  0  0  0  0  0  0
    2.1405   -2.7357   -0.0569 C   0  0  0  0  0  0  0  0  0  0  0  0
    5.4506   -0.8509    0.0634 C   0  0  0  0  0  0  0  0  0  0  0  0
    4.8921   -0.3199   -1.1026 C   0  0  0  0  0  0  0  0  0  0  0  0
    4.9357    1.0586   -1.3183 C   0  0  0  0  0  0  0  0  0  0  0  0
    5.5434    1.8999   -0.3792 C   0  0  0  0  0  0  0  0  0  0  0  0
    5.5543    3.5951   -0.7101 Cl  0  0  0  0  0  0  0  0  0  0  0  0
    6.1165    1.3569    0.7789 C   0  0  0  0  0  0  0  0  0  0  0  0
    6.8842    2.3360    1.9775 Cl  0  0  0  0  0  0  0  0  0  0  0  0
    6.0766   -0.0224    0.9995 C   0  0  0  0  0  0  0  0  0  0  0  0
    4.3846   -2.7511    2.3832 H   0  0  0  0  0  0  0  0  0  0  0  0
    2.8174   -0.8321    2.6772 H   0  0  0  0  0  0  0  0  0  0  0  0
    0.6655    0.1487    2.0579 H   0  0  0  0  0  0  0  0  0  0  0  0
   -0.9446   -0.9161   -2.1531 H   0  0  0  0  0  0  0  0  0  0  0  0
   -3.1118    0.1577   -2.5517 H   0  0  0  0  0  0  0  0  0  0  0  0
   -4.4416    2.8046    0.7850 H   0  0  0  0  0  0  0  0  0  0  0  0
   -5.3613    1.3527    1.2757 H   0  0  0  0  0  0  0  0  0  0  0  0
   -6.3201    3.5420   -0.6618 H   0  0  0  0  0  0  0  0  0  0  0  0
   -6.8929    3.2576    0.9893 H   0  0  0  0  0  0  0  0  0  0  0  0
   -6.8410    1.9098   -2.3521 H   0  0  0  0  0  0  0  0  0  0  0  0
   -7.7674    0.4762   -1.8838 H   0  0  0  0  0  0  0  0  0  0  0  0
   -5.3578   -0.0676   -2.2082 H   0  0  0  0  0  0  0  0  0  0  0  0
   -5.8889   -0.3943   -0.5415 H   0  0  0  0  0  0  0  0  0  0  0  0
    0.3865   -2.5983   -1.2670 H   0  0  0  0  0  0  0  0  0  0  0  0
    2.5381   -3.5596   -0.6456 H   0  0  0  0  0  0  0  0  0  0  0  0
    4.4204   -0.9666   -1.8404 H   0  0  0  0  0  0  0  0  0  0  0  0
    4.4948    1.4731   -2.2226 H   0  0  0  0  0  0  0  0  0  0  0  0
    6.5320   -0.4457    1.8923 H   0  0  0  0  0  0  0  0  0  0  0  0
  1  2  2  0
  2  3  2  0
  2  4  1  0
  4  5  1  0
  5  6  2  0
  6  7  1  0
  7  8  2  0
  8  9  1  0
  9 10  2  0
 10 11  1  0
 11 12  2  0
 12 13  1  0
 13 14  1  0
 14 15  1  0
 15 16  1  0
 16 17  1  0
 17 18  1  0
 12 19  1  0
 19 20  2  0
  8 21  1  0
 21 22  2  0
  2 23  1  0
 23 24  2  0
 24 25  1  0
 25 26  2  0
 26 27  1  0
 26 28  1  0
 28 29  1  0
 28 30  2  0
 22  5  1  0
 30 23  1  0
 20  9  1  0
 18 13  1  0
  4 31  1  0
  6 32  1  0
  7 33  1  0
 10 34  1  0
 11 35  1  0
 14 36  1  0
 14 37  1  0
 15 38  1  0
 15 39  1  0
 17 40  1  0
 17 41  1  0
 18 42  1  0
 18 43  1  0
 21 44  1  0
 22 45  1  0
 24 46  1  0
 25 47  1  0
 30 48  1  0
M  END
$$$$
