
     RDKit          3D

 61 64  0  0  0  0  0  0  0  0999 V2000
    8.1740   -2.9771    3.8575 C   0  0  0  0  0  0  0  0  0  0  0  0
    7.0612   -3.1502    2.8556 C   0  0  0  0  0  0  0  0  0  0  0  0
    6.5423   -4.2459    2.6748 O   0  0  0  0  0  0  0  0  0  0  0  0
    6.7360   -1.9553    2.2351 N   0  0  0  0  0  0  0  0  0  0  0  0
    5.7523   -1.7410    1.2480 C   0  0  0  0  0  0  0  0  0  0  0  0
    4.9253   -2.7462    0.7377 C   0  0  0  0  0  0  0  0  0  0  0  0
    3.9725   -2.4520   -0.2435 C   0  0  0  0  0  0  0  0  0  0  0  0
    3.8451   -1.1444   -0.7144 C   0  0  0  0  0  0  0  0  0  0  0  0
    2.6371   -0.7910   -1.9656 S   0  0  0  0  0  6  0  0  0  0  0  0
    2.6794    0.6267   -2.2605 O   0  0  0  0  0  0  0  0  0  0  0  0
    2.7932   -1.7809   -3.0095 O   0  0  0  0  0  0  0  0  0  0  0  0
    1.1649   -1.0935   -1.1618 N   0  0  0  0  0  0  0  0  0  0  0  0
    0.8287   -0.1404   -0.0448 C   0  0  0  0  0  0  0  0  0  0  0  0
   -0.1883    0.9197   -0.4963 C   0  0  0  0  0  0  0  0  0  0  0  0
   -1.4854    0.3155   -0.9068 N   0  0  0  0  0  0  0  0  0  0  0  0
   -2.4663    0.4403    0.0299 C   0  0  0  0  0  0  0  0  0  0  0  0
   -2.3454    0.2800    1.3280 N   0  0  0  0  0  0  0  0  0  0  0  0
   -3.5929    0.5167    1.8461 C   0  0  0  0  0  0  0  0  0  0  0  0
   -4.0272    0.4675    3.1800 C   0  0  0  0  0  0  0  0  0  0  0  0
   -5.3669    0.7600    3.4647 C   0  0  0  0  0  0  0  0  0  0  0  0
   -6.2574    1.0909    2.4424 C   0  0  0  0  0  0  0  0  0  0  0  0
   -5.8431    1.1425    1.1066 C   0  0  0  0  0  0  0  0  0  0  0  0
   -4.4990    0.8496    0.8431 C   0  0  0  0  0  0  0  0  0  0  0  0
   -3.7458    0.8181   -0.3105 N   0  0  0  0  0  0  0  0  0  0  0  0
   -4.2230    1.1567   -1.6384 C   0  0  0  0  0  0  0  0  0  0  0  0
   -4.3381    2.6708   -1.8942 C   0  0  0  0  0  0  0  0  0  0  0  0
   -2.9746    3.3666   -1.8720 C   0  0  0  0  0  0  0  0  0  0  0  0
   -5.0229    2.9182   -3.2395 C   0  0  0  0  0  0  0  0  0  0  0  0
   -1.3405   -1.0756   -1.4168 C   0  0  0  0  0  0  0  0  0  0  0  0
    0.0143   -1.2876   -2.1109 C   0  0  0  0  0  0  0  0  0  0  0  0
    4.6680   -0.1305   -0.2239 C   0  0  0  0  0  0  0  0  0  0  0  0
    5.6156   -0.4329    0.7585 C   0  0  0  0  0  0  0  0  0  0  0  0
    9.0444   -2.5177    3.3801 H   0  0  0  0  0  0  0  0  0  0  0  0
    7.8307   -2.3498    4.6837 H   0  0  0  0  0  0  0  0  0  0  0  0
    8.4691   -3.9529    4.2515 H   0  0  0  0  0  0  0  0  0  0  0  0
    7.2631   -1.1412    2.5213 H   0  0  0  0  0  0  0  0  0  0  0  0
    4.9976   -3.7743    1.0807 H   0  0  0  0  0  0  0  0  0  0  0  0
    3.3385   -3.2454   -0.6348 H   0  0  0  0  0  0  0  0  0  0  0  0
    0.4310   -0.7341    0.7879 H   0  0  0  0  0  0  0  0  0  0  0  0
    1.7283    0.3563    0.3320 H   0  0  0  0  0  0  0  0  0  0  0  0
    0.2059    1.4685   -1.3597 H   0  0  0  0  0  0  0  0  0  0  0  0
   -0.3251    1.6646    0.2974 H   0  0  0  0  0  0  0  0  0  0  0  0
   -3.3294    0.2084    3.9675 H   0  0  0  0  0  0  0  0  0  0  0  0
   -5.7136    0.7308    4.4948 H   0  0  0  0  0  0  0  0  0  0  0  0
   -7.2934    1.3160    2.6881 H   0  0  0  0  0  0  0  0  0  0  0  0
   -6.5397    1.4048    0.3174 H   0  0  0  0  0  0  0  0  0  0  0  0
   -3.5686    0.6877   -2.3807 H   0  0  0  0  0  0  0  0  0  0  0  0
   -5.2029    0.6764   -1.7480 H   0  0  0  0  0  0  0  0  0  0  0  0
   -4.9606    3.1236   -1.1119 H   0  0  0  0  0  0  0  0  0  0  0  0
   -2.2972    2.9412   -2.6193 H   0  0  0  0  0  0  0  0  0  0  0  0
   -3.0800    4.4356   -2.0811 H   0  0  0  0  0  0  0  0  0  0  0  0
   -2.5005    3.2766   -0.8910 H   0  0  0  0  0  0  0  0  0  0  0  0
   -5.1459    3.9900   -3.4196 H   0  0  0  0  0  0  0  0  0  0  0  0
   -6.0183    2.4603   -3.2614 H   0  0  0  0  0  0  0  0  0  0  0  0
   -4.4378    2.5002   -4.0662 H   0  0  0  0  0  0  0  0  0  0  0  0
   -2.1461   -1.2803   -2.1317 H   0  0  0  0  0  0  0  0  0  0  0  0
   -1.4363   -1.7986   -0.5945 H   0  0  0  0  0  0  0  0  0  0  0  0
    0.0999   -0.5890   -2.9524 H   0  0  0  0  0  0  0  0  0  0  0  0
    0.0625   -2.3097   -2.5020 H   0  0  0  0  0  0  0  0  0  0  0  0
    4.5822    0.8878   -0.5965 H   0  0  0  0  0  0  0  0  0  0  0  0
    6.2490    0.3693    1.1308 H   0  0  0  0  0  0  0  0  0  0  0  0
  1  2  1  0
  2  3  2  0
  2  4  1  0
  4  5  1  0
  5  6  2  0
  6  7  1  0
  7  8  2  0
  8  9  1  0
  9 10  2  0
  9 11  2  0
  9 12  1  0
 12 13  1  0
 13 14  1  0
 14 15  1  0
 15 16  1  0
 16 17  2  0
 17 18  1  0
 18 19  2  0
 19 20  1  0
 20 21  2  0
 21 22  1  0
 22 23  2  0
 23 24  1  0
 24 25  1  0
 25 26  1  0
 26 27  1  0
 26 28  1  0
 15 29  1  0
 29 30  1  0
  8 31  1  0
 31 32  2  0
 32  5  1  0
 30 12  1  0
 24 16  1  0
 23 18  1  0
  1 33  1  0
  1 34  1  0
  1 35  1  0
  4 36  1  0
  6 37  1  0
  7 38  1  0
 13 39  1  0
 13 40  1  0
 14 41  1  0
 14 42  1  0
 19 43  1  0
 20 44  1  0
 21 45  1  0
 22 46  1  0
 25 47  1  0
 25 48  1  0
 26 49  1  0
 27 50  1  0
 27 51  1  0
 27 52  1  0
 28 53  1  0
 28 54  1  0
 28 55  1  0
 29 56  1  0
 29 57  1  0
 30 58  1  0
 30 59  1  0
 31 60  1  0
 32 61  1  0
M  END
$$$$
