
     RDKit          3D

 54 58  0  0  0  0  0  0  0  0999 V2000
   -5.9617   -3.2506    1.0583 C   0  0  0  0  0  0  0  0  0  0  0  0
   -4.5640   -2.6902    1.2805 C   0  0  0  0  0  0  0  0  0  0  0  0
   -3.9023   -2.1649   -0.0091 C   0  0  0  0  0  0  0  0  0  0  0  0
   -3.6509   -3.2709   -1.0400 C   0  0  0  0  0  0  0  0  0  0  0  0
   -2.6594   -1.4363    0.3017 N   0  0  0  0  0  0  0  0  0  0  0  0
   -1.5701   -2.1063    0.8528 C   0  0  0  0  0  0  0  0  0  0  0  0
   -0.4285   -1.5820    1.1833 N   0  0  0  0  0  0  0  0  0  0  0  0
   -0.3632   -0.2530    0.9386 C   0  0  0  0  0  0  0  0  0  0  0  0
   -1.3573    0.5485    0.4177 C   0  0  0  0  0  0  0  0  0  0  0  0
   -2.6215   -0.0493    0.0689 C   0  0  0  0  0  0  0  0  0  0  0  0
   -3.5662    0.5936   -0.3778 O   0  0  0  0  0  0  0  0  0  0  0  0
   -0.8588    1.8635    0.3561 C   0  0  0  0  0  0  0  0  0  0  0  0
   -1.4243    3.0226   -0.0612 N   0  0  0  0  0  0  0  0  0  0  0  0
   -0.6304    4.1001    0.0372 C   0  0  0  0  0  0  0  0  0  0  0  0
   -1.1351    5.3267   -0.3748 C   0  0  0  0  0  0  0  0  0  0  0  0
   -0.3726    6.4932   -0.3030 C   0  0  0  0  0  0  0  0  0  0  0  0
    0.9225    6.4336    0.1915 C   0  0  0  0  0  0  0  0  0  0  0  0
    1.4431    5.2080    0.6096 C   0  0  0  0  0  0  0  0  0  0  0  0
    0.6964    4.0383    0.5439 C   0  0  0  0  0  0  0  0  0  0  0  0
    1.2657    2.8953    0.9648 N   0  0  0  0  0  0  0  0  0  0  0  0
    0.4456    1.8307    0.8445 C   0  0  0  0  0  0  0  0  0  0  0  0
    0.7403    0.5298    1.1742 N   0  0  0  0  0  0  0  0  0  0  0  0
    2.0061    0.0782    1.7250 C   0  0  0  0  0  0  0  0  0  0  0  0
    2.9622   -0.3474    0.6381 C   0  0  0  0  0  0  0  0  0  0  0  0
    3.8107    0.5851    0.0290 C   0  0  0  0  0  0  0  0  0  0  0  0
    4.6851    0.1877   -0.9852 C   0  0  0  0  0  0  0  0  0  0  0  0
    4.7253   -1.1408   -1.4130 C   0  0  0  0  0  0  0  0  0  0  0  0
    5.6257   -1.3934   -2.4111 O   0  0  0  0  0  0  0  0  0  0  0  0
    5.6905   -2.7289   -2.8940 C   0  0  0  0  0  0  0  0  0  0  0  0
    3.8767   -2.0731   -0.8169 C   0  0  0  0  0  0  0  0  0  0  0  0
    2.9996   -1.6780    0.1997 C   0  0  0  0  0  0  0  0  0  0  0  0
   -6.6095   -2.5124    0.5752 H   0  0  0  0  0  0  0  0  0  0  0  0
   -6.4141   -3.5206    2.0180 H   0  0  0  0  0  0  0  0  0  0  0  0
   -5.9388   -4.1517    0.4386 H   0  0  0  0  0  0  0  0  0  0  0  0
   -4.6334   -1.8693    2.0057 H   0  0  0  0  0  0  0  0  0  0  0  0
   -3.9424   -3.4635    1.7471 H   0  0  0  0  0  0  0  0  0  0  0  0
   -4.6065   -1.4646   -0.4735 H   0  0  0  0  0  0  0  0  0  0  0  0
   -3.0620   -4.0938   -0.6224 H   0  0  0  0  0  0  0  0  0  0  0  0
   -3.1053   -2.8754   -1.9040 H   0  0  0  0  0  0  0  0  0  0  0  0
   -4.5931   -3.6881   -1.4087 H   0  0  0  0  0  0  0  0  0  0  0  0
   -1.7283   -3.1842    1.0101 H   0  0  0  0  0  0  0  0  0  0  0  0
   -2.1506    5.3728   -0.7627 H   0  0  0  0  0  0  0  0  0  0  0  0
   -0.7932    7.4396   -0.6333 H   0  0  0  0  0  0  0  0  0  0  0  0
    1.5293    7.3334    0.2533 H   0  0  0  0  0  0  0  0  0  0  0  0
    2.4585    5.1634    0.9964 H   0  0  0  0  0  0  0  0  0  0  0  0
    2.4336    0.8898    2.3255 H   0  0  0  0  0  0  0  0  0  0  0  0
    1.8076   -0.7467    2.4192 H   0  0  0  0  0  0  0  0  0  0  0  0
    3.7911    1.6300    0.3337 H   0  0  0  0  0  0  0  0  0  0  0  0
    5.3374    0.9228   -1.4500 H   0  0  0  0  0  0  0  0  0  0  0  0
    6.0051   -3.4195   -2.1045 H   0  0  0  0  0  0  0  0  0  0  0  0
    4.7358   -3.0373   -3.3328 H   0  0  0  0  0  0  0  0  0  0  0  0
    6.4460   -2.7621   -3.6850 H   0  0  0  0  0  0  0  0  0  0  0  0
    3.8672   -3.1144   -1.1199 H   0  0  0  0  0  0  0  0  0  0  0  0
    2.3363   -2.4179    0.6447 H   0  0  0  0  0  0  0  0  0  0  0  0
  1  2  1  0
  2  3  1  0
  3  4  1  0
  3  5  1  0
  5  6  1  0
  6  7  2  0
  7  8  1  0
  8  9  2  0
  9 10  1  0
 10 11  2  0
  9 12  1  0
 12 13  2  0
 13 14  1  0
 14 15  2  0
 15 16  1  0
 16 17  2  0
 17 18  1  0
 18 19  2  0
 19 20  1  0
 20 21  2  0
 21 22  1  0
 22 23  1  0
 23 24  1  0
 24 25  2  0
 25 26  1  0
 26 27  2  0
 27 28  1  0
 28 29  1  0
 27 30  1  0
 30 31  2  0
 10  5  1  0
 21 12  1  0
 31 24  1  0
 22  8  1  0
 19 14  1  0
  1 32  1  0
  1 33  1  0
  1 34  1  0
  2 35  1  0
  2 36  1  0
  3 37  1  0
  4 38  1  0
  4 39  1  0
  4 40  1  0
  6 41  1  0
 15 42  1  0
 16 43  1  0
 17 44  1  0
 18 45  1  0
 23 46  1  0
 23 47  1  0
 25 48  1  0
 26 49  1  0
 29 50  1  0
 29 51  1  0
 29 52  1  0
 30 53  1  0
 31 54  1  0
M  END
$$$$
