
     RDKit          3D

 68 73  0  0  0  0  0  0  0  0999 V2000
   -3.5894    4.8192   -2.2850 C   0  0  0  0  0  0  0  0  0  0  0  0
   -2.7384    3.7832   -1.8073 O   0  0  0  0  0  0  0  0  0  0  0  0
   -2.8907    3.4118   -0.4972 C   0  0  0  0  0  0  0  0  0  0  0  0
   -3.7660    4.0105    0.4280 C   0  0  0  0  0  0  0  0  0  0  0  0
   -3.8518    3.5409    1.7446 C   0  0  0  0  0  0  0  0  0  0  0  0
   -3.0432    2.4814    2.0996 C   0  0  0  0  0  0  0  0  0  0  0  0
   -2.1522    1.8822    1.2060 C   0  0  0  0  0  0  0  0  0  0  0  0
   -2.0810    2.3381   -0.1049 C   0  0  0  0  0  0  0  0  0  0  0  0
   -1.4380    0.7575    1.9125 C   0  0  1  0  0  0  0  0  0  0  0  0
   -2.1092    0.7707    3.3221 C   0  0  0  0  0  0  0  0  0  0  0  0
   -1.9161    0.0233    4.2719 O   0  0  0  0  0  0  0  0  0  0  0  0
   -3.0026    1.8461    3.3332 N   0  0  0  0  0  0  0  0  0  0  0  0
   -1.6779   -0.4834    1.1518 C   0  0  0  0  0  0  0  0  0  0  0  0
   -0.4885   -1.1631    0.8940 C   0  0  0  0  0  0  0  0  0  0  0  0
   -0.7789   -2.3201    0.2173 C   0  0  0  0  0  0  0  0  0  0  0  0
    0.0299   -3.2765   -0.2305 O   0  0  0  0  0  0  0  0  0  0  0  0
   -2.1673   -2.3153   -0.0302 N   0  0  0  0  0  0  0  0  0  0  0  0
   -2.8913   -3.2283   -0.8617 C   0  0  0  0  0  0  0  0  0  0  0  0
   -2.4791   -4.5595   -1.0006 C   0  0  0  0  0  0  0  0  0  0  0  0
   -3.1984   -5.4386   -1.8160 C   0  0  0  0  0  0  0  0  0  0  0  0
   -4.3238   -4.9941   -2.5055 C   0  0  0  0  0  0  0  0  0  0  0  0
   -4.7327   -3.6674   -2.3864 C   0  0  0  0  0  0  0  0  0  0  0  0
   -4.0183   -2.7852   -1.5722 C   0  0  0  0  0  0  0  0  0  0  0  0
   -2.7219   -1.2243    0.6678 C   0  0  0  0  0  0  0  0  0  0  0  0
   -4.0255   -1.0125    0.8404 O   0  0  0  0  0  0  0  0  0  0  0  0
    0.6758   -0.4408    1.4535 C   0  0  1  0  0  0  0  0  0  0  0  0
    1.7864   -0.1546    0.4224 C   0  0  0  0  0  0  0  0  0  0  0  0
    2.7715    0.8071    0.9277 N   0  0  0  0  0  0  0  0  0  0  0  0
    4.1156    0.7660    0.6200 C   0  0  0  0  0  0  0  0  0  0  0  0
    4.9308    1.5717    1.0480 O   0  0  0  0  0  0  0  0  0  0  0  0
    4.4152   -0.2699   -0.2028 O   0  0  0  0  0  0  0  0  0  0  0  0
    5.7793   -0.5309   -0.6215 C   0  0  0  0  0  0  0  0  0  0  0  0
    5.6772   -1.7922   -1.4943 C   0  0  0  0  0  0  0  0  0  0  0  0
    6.3312    0.6182   -1.4745 C   0  0  0  0  0  0  0  0  0  0  0  0
    6.6835   -0.8422    0.5778 C   0  0  0  0  0  0  0  0  0  0  0  0
    2.2686    1.8854    1.7822 C   0  0  0  0  0  0  0  0  0  0  0  0
    0.7381    2.0352    1.7026 C   0  0  0  0  0  0  0  0  0  0  0  0
    0.0549    0.7911    2.0557 N   0  0  0  0  0  0  0  0  0  0  0  0
   -3.3638    4.9773   -3.3449 H   0  0  0  0  0  0  0  0  0  0  0  0
   -3.3947    5.7611   -1.7607 H   0  0  0  0  0  0  0  0  0  0  0  0
   -4.6436    4.5316   -2.2071 H   0  0  0  0  0  0  0  0  0  0  0  0
   -4.4022    4.8446    0.1469 H   0  0  0  0  0  0  0  0  0  0  0  0
   -4.5398    3.9925    2.4512 H   0  0  0  0  0  0  0  0  0  0  0  0
   -1.4172    1.8645   -0.8226 H   0  0  0  0  0  0  0  0  0  0  0  0
   -3.5797    2.0602    4.1325 H   0  0  0  0  0  0  0  0  0  0  0  0
    0.9179   -3.1279    0.1410 H   0  0  0  0  0  0  0  0  0  0  0  0
   -1.6207   -4.9482   -0.4608 H   0  0  0  0  0  0  0  0  0  0  0  0
   -2.8773   -6.4738   -1.9124 H   0  0  0  0  0  0  0  0  0  0  0  0
   -4.8767   -5.6788   -3.1449 H   0  0  0  0  0  0  0  0  0  0  0  0
   -5.5971   -3.3147   -2.9424 H   0  0  0  0  0  0  0  0  0  0  0  0
   -4.3298   -1.7423   -1.5495 H   0  0  0  0  0  0  0  0  0  0  0  0
   -4.5006   -1.8547    0.6993 H   0  0  0  0  0  0  0  0  0  0  0  0
    1.1025   -1.0194    2.2826 H   0  0  0  0  0  0  0  0  0  0  0  0
    2.2751   -1.0938    0.1379 H   0  0  0  0  0  0  0  0  0  0  0  0
    1.3670    0.2775   -0.4968 H   0  0  0  0  0  0  0  0  0  0  0  0
    5.0242   -1.6166   -2.3576 H   0  0  0  0  0  0  0  0  0  0  0  0
    6.6557   -2.1193   -1.8623 H   0  0  0  0  0  0  0  0  0  0  0  0
    5.2218   -2.6162   -0.9264 H   0  0  0  0  0  0  0  0  0  0  0  0
    6.5041    1.5180   -0.8762 H   0  0  0  0  0  0  0  0  0  0  0  0
    5.6230    0.8965   -2.2631 H   0  0  0  0  0  0  0  0  0  0  0  0
    7.2836    0.3452   -1.9401 H   0  0  0  0  0  0  0  0  0  0  0  0
    6.8612    0.0443    1.1945 H   0  0  0  0  0  0  0  0  0  0  0  0
    6.2182   -1.5919    1.2315 H   0  0  0  0  0  0  0  0  0  0  0  0
    7.6607   -1.2195    0.2541 H   0  0  0  0  0  0  0  0  0  0  0  0
    2.5788    1.6570    2.8108 H   0  0  0  0  0  0  0  0  0  0  0  0
    2.7508    2.8271    1.4937 H   0  0  0  0  0  0  0  0  0  0  0  0
    0.4237    2.8381    2.3793 H   0  0  0  0  0  0  0  0  0  0  0  0
    0.4990    2.3408    0.6778 H   0  0  0  0  0  0  0  0  0  0  0  0
  1  2  1  0
  2  3  1  0
  3  4  2  0
  4  5  1  0
  5  6  2  0
  6  7  1  0
  7  8  2  0
  7  9  1  0
  9 10  1  0
 10 11  2  0
 10 12  1  0
  9 13  1  0
 13 14  1  0
 14 15  2  0
 15 16  1  0
 15 17  1  0
 17 18  1  0
 18 19  2  0
 19 20  1  0
 20 21  2  0
 21 22  1  0
 22 23  2  0
 17 24  1  0
 24 25  1  0
 14 26  1  0
 26 27  1  0
 27 28  1  0
 28 29  1  0
 29 30  2  0
 29 31  1  0
 31 32  1  0
 32 33  1  0
 32 34  1  0
 32 35  1  0
 28 36  1  0
 36 37  1  0
 37 38  1  0
  8  3  1  0
  9 38  1  1
 12  6  1  0
 24 13  2  0
 38 26  1  0
 23 18  1  0
  1 39  1  0
  1 40  1  0
  1 41  1  0
  4 42  1  0
  5 43  1  0
  8 44  1  0
 12 45  1  0
 16 46  1  0
 19 47  1  0
 20 48  1  0
 21 49  1  0
 22 50  1  0
 23 51  1  0
 25 52  1  0
 26 53  1  1
 27 54  1  0
 27 55  1  0
 33 56  1  0
 33 57  1  0
 33 58  1  0
 34 59  1  0
 34 60  1  0
 34 61  1  0
 35 62  1  0
 35 63  1  0
 35 64  1  0
 36 65  1  0
 36 66  1  0
 37 67  1  0
 37 68  1  0
M  END
$$$$
