
     RDKit          3D

 30 31  0  0  0  0  0  0  0  0999 V2000
   -4.7257    0.3631   -0.9931 C   0  0  0  0  0  0  0  0  0  0  0  0
   -4.1786   -0.4104    0.1918 C   0  0  0  0  0  0  0  0  0  0  0  0
   -2.7539   -0.5312    0.0890 O   0  0  0  0  0  0  0  0  0  0  0  0
   -2.0267    0.5032    0.6037 C   0  0  0  0  0  0  0  0  0  0  0  0
   -2.5137    1.4990    1.1270 O   0  0  0  0  0  0  0  0  0  0  0  0
   -0.6088    0.2532    0.4373 C   0  0  0  0  0  0  0  0  0  0  0  0
   -0.1943   -0.9048   -0.1777 O   0  0  0  0  0  0  0  0  0  0  0  0
    1.1535   -0.8699   -0.2020 C   0  0  0  0  0  0  0  0  0  0  0  0
    1.6427    0.2732    0.3830 C   0  0  0  0  0  0  0  0  0  0  0  0
    0.5018    1.0162    0.8042 C   0  0  0  0  0  0  0  0  0  0  0  0
    0.4739    2.3345    1.4911 C   0  0  0  0  0  0  0  0  0  0  0  0
    3.0779    0.4965    0.4511 C   0  0  0  0  0  0  0  0  0  0  0  0
    3.5675    1.5130    0.9352 O   0  0  0  0  0  0  0  0  0  0  0  0
    3.9599   -0.6506   -0.0520 C   0  0  0  0  0  0  0  0  0  0  0  0
    3.3079   -1.4555   -1.1905 C   0  0  0  0  0  0  0  0  0  0  0  0
    1.9114   -1.9808   -0.8166 C   0  0  0  0  0  0  0  0  0  0  0  0
   -4.3329    1.3846   -1.0113 H   0  0  0  0  0  0  0  0  0  0  0  0
   -5.8177    0.4097   -0.9550 H   0  0  0  0  0  0  0  0  0  0  0  0
   -4.4248   -0.1105   -1.9334 H   0  0  0  0  0  0  0  0  0  0  0  0
   -4.5868   -1.4264    0.1871 H   0  0  0  0  0  0  0  0  0  0  0  0
   -4.4734    0.0490    1.1423 H   0  0  0  0  0  0  0  0  0  0  0  0
    0.0134    3.0890    0.8452 H   0  0  0  0  0  0  0  0  0  0  0  0
   -0.1055    2.2710    2.4180 H   0  0  0  0  0  0  0  0  0  0  0  0
    1.4754    2.6838    1.7537 H   0  0  0  0  0  0  0  0  0  0  0  0
    4.9067   -0.2277   -0.4052 H   0  0  0  0  0  0  0  0  0  0  0  0
    4.1735   -1.3064    0.7998 H   0  0  0  0  0  0  0  0  0  0  0  0
    3.9545   -2.2934   -1.4739 H   0  0  0  0  0  0  0  0  0  0  0  0
    3.2198   -0.8059   -2.0718 H   0  0  0  0  0  0  0  0  0  0  0  0
    2.0011   -2.8033   -0.0983 H   0  0  0  0  0  0  0  0  0  0  0  0
    1.4020   -2.3621   -1.7075 H   0  0  0  0  0  0  0  0  0  0  0  0
  1  2  1  0
  2  3  1  0
  3  4  1  0
  4  5  2  0
  4  6  1  0
  6  7  1  0
  7  8  1  0
  8  9  2  0
  9 10  1  0
 10 11  1  0
  9 12  1  0
 12 13  2  0
 12 14  1  0
 14 15  1  0
 15 16  1  0
 10  6  2  0
 16  8  1  0
  1 17  1  0
  1 18  1  0
  1 19  1  0
  2 20  1  0
  2 21  1  0
 11 22  1  0
 11 23  1  0
 11 24  1  0
 14 25  1  0
 14 26  1  0
 15 27  1  0
 15 28  1  0
 16 29  1  0
 16 30  1  0
M  END
$$$$
