
     RDKit          3D

 51 53  0  0  0  0  0  0  0  0999 V2000
    5.4190   -2.5128    0.8081 O   0  0  0  0  0  0  0  0  0  0  0  0
    4.8135   -2.1155   -0.1783 C   0  0  0  0  0  0  0  0  0  0  0  0
    3.7403   -2.7278   -0.7769 N   0  0  0  0  0  0  0  0  0  0  0  0
    3.0474   -3.8338   -0.1694 C   0  0  0  0  0  0  0  0  0  0  0  0
    1.8700   -3.3070    0.5633 C   0  0  0  0  0  0  0  0  0  0  0  0
    1.5451   -3.2277    1.9003 C   0  0  0  0  0  0  0  0  0  0  0  0
    0.2739   -2.6086    1.9660 C   0  0  0  0  0  0  0  0  0  0  0  0
   -0.1032   -2.3397    0.6654 C   0  0  0  0  0  0  0  0  0  0  0  0
   -1.2697   -1.7199    0.1077 C   0  0  0  0  0  0  0  0  0  0  0  0
   -2.2422   -1.3267    0.8677 N   0  0  0  0  0  0  0  0  0  0  0  0
   -3.2910   -0.7416    0.2218 N   0  0  0  0  0  0  0  0  0  0  0  0
   -4.3937   -0.2956    0.9256 C   0  0  0  0  0  0  0  0  0  0  0  0
   -4.6134   -0.3656    2.1278 O   0  0  0  0  0  0  0  0  0  0  0  0
   -5.4357    0.3664    0.0071 C   0  0  0  0  0  0  0  0  0  0  0  0
   -5.1934    0.4404   -1.1907 O   0  0  0  0  0  0  0  0  0  0  0  0
   -6.5393    0.8048    0.7035 N   0  0  0  0  0  0  0  0  0  0  0  0
   -7.6812    1.4700    0.2135 C   0  0  0  0  0  0  0  0  0  0  0  0
   -7.8550    1.7767   -1.1397 C   0  0  0  0  0  0  0  0  0  0  0  0
   -9.0049    2.4431   -1.5779 C   0  0  0  0  0  0  0  0  0  0  0  0
   -9.9939    2.8109   -0.6699 C   0  0  0  0  0  0  0  0  0  0  0  0
   -9.8384    2.5113    0.6817 C   0  0  0  0  0  0  0  0  0  0  0  0
   -8.6899    1.8448    1.1199 C   0  0  0  0  0  0  0  0  0  0  0  0
   -8.5440    1.4670    2.9786 Br  0  0  0  0  0  0  0  0  0  0  0  0
    0.8682   -2.7693   -0.1941 O   0  0  0  0  0  0  0  0  0  0  0  0
    5.2425   -0.8016   -0.8690 C   0  0  0  0  0  0  0  0  0  0  0  0
    4.5633   -0.3757   -1.7921 O   0  0  0  0  0  0  0  0  0  0  0  0
    6.3889   -0.2802   -0.3091 N   0  0  0  0  0  0  0  0  0  0  0  0
    7.0771    0.8871   -0.6796 C   0  0  0  0  0  0  0  0  0  0  0  0
    8.2309    1.2097    0.0462 C   0  0  0  0  0  0  0  0  0  0  0  0
    8.9725    2.3518   -0.2658 C   0  0  0  0  0  0  0  0  0  0  0  0
    8.5661    3.1823   -1.3064 C   0  0  0  0  0  0  0  0  0  0  0  0
    7.4191    2.8696   -2.0324 C   0  0  0  0  0  0  0  0  0  0  0  0
    6.6763    1.7258   -1.7209 C   0  0  0  0  0  0  0  0  0  0  0  0
    3.2691   -2.1955   -1.5037 H   0  0  0  0  0  0  0  0  0  0  0  0
    3.7167   -4.3816    0.5016 H   0  0  0  0  0  0  0  0  0  0  0  0
    2.7269   -4.5063   -0.9710 H   0  0  0  0  0  0  0  0  0  0  0  0
    2.1550   -3.5681    2.7269 H   0  0  0  0  0  0  0  0  0  0  0  0
   -0.3047   -2.3729    2.8500 H   0  0  0  0  0  0  0  0  0  0  0  0
   -1.2954   -1.5969   -0.9896 H   0  0  0  0  0  0  0  0  0  0  0  0
   -3.2757   -0.5877   -0.7858 H   0  0  0  0  0  0  0  0  0  0  0  0
   -6.5065    0.6302    1.7090 H   0  0  0  0  0  0  0  0  0  0  0  0
   -7.1138    1.5105   -1.8858 H   0  0  0  0  0  0  0  0  0  0  0  0
   -9.1238    2.6742   -2.6341 H   0  0  0  0  0  0  0  0  0  0  0  0
  -10.8848    3.3300   -1.0151 H   0  0  0  0  0  0  0  0  0  0  0  0
  -10.6145    2.8010    1.3854 H   0  0  0  0  0  0  0  0  0  0  0  0
    6.7617   -0.8235    0.4661 H   0  0  0  0  0  0  0  0  0  0  0  0
    8.5685    0.5774    0.8636 H   0  0  0  0  0  0  0  0  0  0  0  0
    9.8669    2.5920    0.3033 H   0  0  0  0  0  0  0  0  0  0  0  0
    9.1416    4.0710   -1.5537 H   0  0  0  0  0  0  0  0  0  0  0  0
    7.0973    3.5156   -2.8459 H   0  0  0  0  0  0  0  0  0  0  0  0
    5.7903    1.5182   -2.3131 H   0  0  0  0  0  0  0  0  0  0  0  0
  1  2  2  0
  2  3  1  0
  3  4  1  0
  4  5  1  0
  5  6  2  0
  6  7  1  0
  7  8  2  0
  8  9  1  0
  9 10  2  3
 10 11  1  0
 11 12  1  0
 12 13  2  0
 12 14  1  0
 14 15  2  0
 14 16  1  0
 16 17  1  0
 17 18  2  0
 18 19  1  0
 19 20  2  0
 20 21  1  0
 21 22  2  0
 22 23  1  0
  8 24  1  0
  2 25  1  0
 25 26  2  0
 25 27  1  0
 27 28  1  0
 28 29  2  0
 29 30  1  0
 30 31  2  0
 31 32  1  0
 32 33  2  0
 24  5  1  0
 33 28  1  0
 22 17  1  0
  3 34  1  0
  4 35  1  0
  4 36  1  0
  6 37  1  0
  7 38  1  0
  9 39  1  0
 11 40  1  0
 16 41  1  0
 18 42  1  0
 19 43  1  0
 20 44  1  0
 21 45  1  0
 27 46  1  0
 29 47  1  0
 30 48  1  0
 31 49  1  0
 32 50  1  0
 33 51  1  0
M  END
$$$$
