
     RDKit          3D

 51 53  0  0  0  0  0  0  0  0999 V2000
   -0.1928    4.5388   -3.6521 C   0  0  0  0  0  0  0  0  0  0  0  0
    0.0534    4.3615   -2.1601 C   0  0  0  0  0  0  0  0  0  0  0  0
   -1.2067    4.5021   -1.3035 C   0  0  0  0  0  0  0  0  0  0  0  0
   -2.4753    3.2239   -1.6189 S   0  0  0  0  0  0  0  0  0  0  0  0
   -1.7461    1.7911   -0.8369 C   0  0  0  0  0  0  0  0  0  0  0  0
   -2.2980    0.5545   -1.0882 C   0  0  0  0  0  0  0  0  0  0  0  0
   -1.7201   -0.5380   -0.4705 C   0  0  0  0  0  0  0  0  0  0  0  0
   -2.2472   -1.8246   -0.6963 N   0  0  0  0  0  0  0  0  0  0  0  0
   -1.7174   -2.8872    0.1873 C   0  0  0  0  0  0  0  0  0  0  0  0
   -0.5996   -3.6943   -0.5077 C   0  0  0  0  0  0  0  0  0  0  0  0
   -1.0100   -4.3484   -1.7742 N   0  0  0  0  0  0  0  0  0  0  0  0
   -1.2066   -5.7852   -1.6047 C   0  0  0  0  0  0  0  0  0  0  0  0
   -2.2267   -3.7201   -2.3363 C   0  0  0  0  0  0  0  0  0  0  0  0
   -2.2673   -2.1878   -2.1362 C   0  0  0  0  0  0  0  0  0  0  0  0
   -0.6756   -0.3786    0.3579 N   0  0  0  0  0  0  0  0  0  0  0  0
   -0.1993    0.8649    0.5544 C   0  0  0  0  0  0  0  0  0  0  0  0
    0.9599    1.0237    1.4571 C   0  0  0  0  0  0  0  0  0  0  0  0
    1.5069    2.2884    1.7395 C   0  0  0  0  0  0  0  0  0  0  0  0
    2.6067    2.4347    2.5934 C   0  0  0  0  0  0  0  0  0  0  0  0
    3.1960    1.3227    3.1929 C   0  0  0  0  0  0  0  0  0  0  0  0
    4.2610    1.6036    4.0021 O   0  0  0  0  0  0  0  0  0  0  0  0
    4.8932    0.5000    4.6379 C   0  0  0  0  0  0  0  0  0  0  0  0
    2.6737    0.0592    2.9303 C   0  0  0  0  0  0  0  0  0  0  0  0
    1.5715   -0.0842    2.0744 C   0  0  0  0  0  0  0  0  0  0  0  0
   -0.7001    1.9685   -0.0201 N   0  0  0  0  0  0  0  0  0  0  0  0
   -0.8096    3.7328   -4.0601 H   0  0  0  0  0  0  0  0  0  0  0  0
    0.7597    4.5302   -4.1920 H   0  0  0  0  0  0  0  0  0  0  0  0
   -0.6882    5.4929   -3.8580 H   0  0  0  0  0  0  0  0  0  0  0  0
    0.5432    3.3974   -1.9848 H   0  0  0  0  0  0  0  0  0  0  0  0
    0.7672    5.1306   -1.8398 H   0  0  0  0  0  0  0  0  0  0  0  0
   -1.6745    5.4710   -1.5121 H   0  0  0  0  0  0  0  0  0  0  0  0
   -0.9467    4.5113   -0.2398 H   0  0  0  0  0  0  0  0  0  0  0  0
   -3.1618    0.4457   -1.7299 H   0  0  0  0  0  0  0  0  0  0  0  0
   -2.5471   -3.5644    0.4296 H   0  0  0  0  0  0  0  0  0  0  0  0
   -1.3721   -2.5081    1.1566 H   0  0  0  0  0  0  0  0  0  0  0  0
   -0.1841   -4.4239    0.1985 H   0  0  0  0  0  0  0  0  0  0  0  0
    0.2245   -3.0119   -0.7513 H   0  0  0  0  0  0  0  0  0  0  0  0
   -0.2753   -6.2644   -1.2835 H   0  0  0  0  0  0  0  0  0  0  0  0
   -1.9838   -6.0119   -0.8662 H   0  0  0  0  0  0  0  0  0  0  0  0
   -1.4867   -6.2505   -2.5563 H   0  0  0  0  0  0  0  0  0  0  0  0
   -3.1292   -4.1490   -1.8794 H   0  0  0  0  0  0  0  0  0  0  0  0
   -2.2730   -3.9400   -3.4093 H   0  0  0  0  0  0  0  0  0  0  0  0
   -3.1843   -1.7980   -2.5936 H   0  0  0  0  0  0  0  0  0  0  0  0
   -1.4110   -1.7476   -2.6664 H   0  0  0  0  0  0  0  0  0  0  0  0
    1.0758    3.1825    1.2923 H   0  0  0  0  0  0  0  0  0  0  0  0
    3.0043    3.4274    2.7903 H   0  0  0  0  0  0  0  0  0  0  0  0
    5.7168    0.8900    5.2436 H   0  0  0  0  0  0  0  0  0  0  0  0
    5.3191   -0.1890    3.9012 H   0  0  0  0  0  0  0  0  0  0  0  0
    4.2013   -0.0175    5.3105 H   0  0  0  0  0  0  0  0  0  0  0  0
    3.0946   -0.8384    3.3703 H   0  0  0  0  0  0  0  0  0  0  0  0
    1.1876   -1.0865    1.8889 H   0  0  0  0  0  0  0  0  0  0  0  0
  1  2  1  0
  2  3  1  0
  3  4  1  0
  4  5  1  0
  5  6  2  0
  6  7  1  0
  7  8  1  0
  8  9  1  0
  9 10  1  0
 10 11  1  0
 11 12  1  0
 11 13  1  0
 13 14  1  0
  7 15  2  0
 15 16  1  0
 16 17  1  0
 17 18  2  0
 18 19  1  0
 19 20  2  0
 20 21  1  0
 21 22  1  0
 20 23  1  0
 23 24  2  0
 16 25  2  0
 25  5  1  0
 14  8  1  0
 24 17  1  0
  1 26  1  0
  1 27  1  0
  1 28  1  0
  2 29  1  0
  2 30  1  0
  3 31  1  0
  3 32  1  0
  6 33  1  0
  9 34  1  0
  9 35  1  0
 10 36  1  0
 10 37  1  0
 12 38  1  0
 12 39  1  0
 12 40  1  0
 13 41  1  0
 13 42  1  0
 14 43  1  0
 14 44  1  0
 18 45  1  0
 19 46  1  0
 22 47  1  0
 22 48  1  0
 22 49  1  0
 23 50  1  0
 24 51  1  0
M  END
$$$$
