
     RDKit          3D

 52 55  0  0  0  0  0  0  0  0999 V2000
    2.9509   -2.3189   -1.5111 O   0  0  0  0  0  0  0  0  0  0  0  0
    2.9307   -1.0929   -1.5882 C   0  0  0  0  0  0  0  0  0  0  0  0
    1.8300   -0.3777   -2.0279 N   0  0  0  0  0  0  0  0  0  0  0  0
    0.6422   -1.1174   -2.2666 N   0  0  0  0  0  0  0  0  0  0  0  0
   -0.3926   -0.7744   -1.3596 C   0  0  0  0  0  0  0  0  0  0  0  0
   -0.9342    0.4931   -1.3617 C   0  0  0  0  0  0  0  0  0  0  0  0
   -1.9338    0.7591   -0.4543 C   0  0  0  0  0  0  0  0  0  0  0  0
   -2.5386    1.9946   -0.3857 N   0  0  0  0  0  0  0  0  0  0  0  0
   -3.5467    2.2434    0.6385 C   0  0  0  0  0  0  0  0  0  0  0  0
   -3.8971    3.7134    0.4263 C   0  0  0  0  0  0  0  0  0  0  0  0
   -2.5640    4.3184    0.0184 C   0  0  0  0  0  0  0  0  0  0  0  0
   -1.9237    3.2326   -0.8475 C   0  0  0  0  0  0  0  0  0  0  0  0
   -2.3664   -0.2079    0.3712 N   0  0  0  0  0  0  0  0  0  0  0  0
   -1.8110   -1.4280    0.3091 C   0  0  0  0  0  0  0  0  0  0  0  0
   -2.2520   -2.3941    1.1752 N   0  0  0  0  0  0  0  0  0  0  0  0
   -3.5401   -2.2594    1.8337 C   0  0  0  0  0  0  0  0  0  0  0  0
   -4.0039   -3.7039    2.0356 C   0  0  0  0  0  0  0  0  0  0  0  0
   -2.7101   -4.5063    2.0287 C   0  0  0  0  0  0  0  0  0  0  0  0
   -1.8686   -3.7794    0.9825 C   0  0  0  0  0  0  0  0  0  0  0  0
   -0.8257   -1.7368   -0.5419 N   0  0  0  0  0  0  0  0  0  0  0  0
    4.1098   -0.2913   -1.1607 C   0  0  0  0  0  0  0  0  0  0  0  0
    4.9771   -0.8484   -0.2082 C   0  0  0  0  0  0  0  0  0  0  0  0
    6.0940   -0.1350    0.2383 C   0  0  0  0  0  0  0  0  0  0  0  0
    6.3485    1.1385   -0.2824 C   0  0  0  0  0  0  0  0  0  0  0  0
    7.5176    1.8960    0.1850 N   0  0  0  0  0  4  0  0  0  0  0  0
    7.6868    3.0324   -0.2785 O   0  0  0  0  0  0  0  0  0  0  0  0
    8.2619    1.3542    1.0148 O   0  0  0  0  0  1  0  0  0  0  0  0
    5.4973    1.6977   -1.2487 C   0  0  0  0  0  0  0  0  0  0  0  0
    4.3810    0.9789   -1.6900 C   0  0  0  0  0  0  0  0  0  0  0  0
    1.7360    0.6248   -1.9198 H   0  0  0  0  0  0  0  0  0  0  0  0
    0.8267   -2.1126   -2.0644 H   0  0  0  0  0  0  0  0  0  0  0  0
   -0.6012    1.2307   -2.0749 H   0  0  0  0  0  0  0  0  0  0  0  0
   -4.4308    1.6081    0.5162 H   0  0  0  0  0  0  0  0  0  0  0  0
   -3.1283    2.0969    1.6420 H   0  0  0  0  0  0  0  0  0  0  0  0
   -4.6189    3.8168   -0.3916 H   0  0  0  0  0  0  0  0  0  0  0  0
   -4.3193    4.1788    1.3206 H   0  0  0  0  0  0  0  0  0  0  0  0
   -2.6727    5.2677   -0.5141 H   0  0  0  0  0  0  0  0  0  0  0  0
   -1.9478    4.4976    0.9080 H   0  0  0  0  0  0  0  0  0  0  0  0
   -2.1619    3.3899   -1.9056 H   0  0  0  0  0  0  0  0  0  0  0  0
   -0.8363    3.2470   -0.7196 H   0  0  0  0  0  0  0  0  0  0  0  0
   -4.2836   -1.7109    1.2442 H   0  0  0  0  0  0  0  0  0  0  0  0
   -3.4113   -1.7569    2.7983 H   0  0  0  0  0  0  0  0  0  0  0  0
   -4.6354   -4.0132    1.1946 H   0  0  0  0  0  0  0  0  0  0  0  0
   -4.5789   -3.8327    2.9573 H   0  0  0  0  0  0  0  0  0  0  0  0
   -2.8660   -5.5607    1.7820 H   0  0  0  0  0  0  0  0  0  0  0  0
   -2.2278   -4.4475    3.0128 H   0  0  0  0  0  0  0  0  0  0  0  0
   -0.8000   -3.9456    1.1505 H   0  0  0  0  0  0  0  0  0  0  0  0
   -2.1352   -4.1273   -0.0238 H   0  0  0  0  0  0  0  0  0  0  0  0
    4.7794   -1.8417    0.1939 H   0  0  0  0  0  0  0  0  0  0  0  0
    6.7467   -0.5835    0.9852 H   0  0  0  0  0  0  0  0  0  0  0  0
    5.6940    2.6814   -1.6693 H   0  0  0  0  0  0  0  0  0  0  0  0
    3.7535    1.4127   -2.4667 H   0  0  0  0  0  0  0  0  0  0  0  0
  1  2  2  0
  2  3  1  0
  3  4  1  0
  4  5  1  0
  5  6  2  0
  6  7  1  0
  7  8  1  0
  8  9  1  0
  9 10  1  0
 10 11  1  0
 11 12  1  0
  7 13  2  0
 13 14  1  0
 14 15  1  0
 15 16  1  0
 16 17  1  0
 17 18  1  0
 18 19  1  0
 14 20  2  0
  2 21  1  0
 21 22  2  0
 22 23  1  0
 23 24  2  0
 24 25  1  0
 25 26  2  0
 25 27  1  0
 24 28  1  0
 28 29  2  0
 20  5  1  0
 29 21  1  0
 12  8  1  0
 19 15  1  0
  3 30  1  0
  4 31  1  0
  6 32  1  0
  9 33  1  0
  9 34  1  0
 10 35  1  0
 10 36  1  0
 11 37  1  0
 11 38  1  0
 12 39  1  0
 12 40  1  0
 16 41  1  0
 16 42  1  0
 17 43  1  0
 17 44  1  0
 18 45  1  0
 18 46  1  0
 19 47  1  0
 19 48  1  0
 22 49  1  0
 23 50  1  0
 28 51  1  0
 29 52  1  0
M  CHG  2  25   1  27  -1
M  END
$$$$
