
     RDKit          3D

 40 42  0  0  0  0  0  0  0  0999 V2000
    0.7192   -4.2763    0.7528 C   0  0  0  0  0  0  0  0  0  0  0  0
    0.0745   -3.0319    0.4793 O   0  0  0  0  0  0  0  0  0  0  0  0
    0.9265   -1.9873    0.2837 C   0  0  0  0  0  0  0  0  0  0  0  0
    2.1509   -2.0830    0.3347 O   0  0  0  0  0  0  0  0  0  0  0  0
    0.2449   -0.7144    0.0202 C   0  0  0  0  0  0  0  0  0  0  0  0
    0.9555    0.4772   -0.1051 C   0  0  0  0  0  0  0  0  0  0  0  0
    2.3362    0.6095   -0.0280 N   0  0  0  0  0  0  0  0  0  0  0  0
    3.0975    1.7638   -0.1447 C   0  0  0  0  0  0  0  0  0  0  0  0
    2.6469    2.8882   -0.3402 O   0  0  0  0  0  0  0  0  0  0  0  0
    4.5326    1.5250   -0.0119 C   0  0  0  0  0  0  0  0  0  0  0  0
    5.3021    0.3916    0.2075 C   0  0  0  0  0  0  0  0  0  0  0  0
    6.6569    0.8080    0.2384 C   0  0  0  0  0  0  0  0  0  0  0  0
    6.6424    2.1655    0.0373 C   0  0  0  0  0  0  0  0  0  0  0  0
    5.3706    2.6080   -0.1145 O   0  0  0  0  0  0  0  0  0  0  0  0
   -0.0518    1.8166   -0.3608 S   0  0  0  0  0  0  0  0  0  0  0  0
   -1.4542    0.8662   -0.3198 C   0  0  0  0  0  0  0  0  0  0  0  0
   -1.1746   -0.4761   -0.1418 C   0  0  0  0  0  0  0  0  0  0  0  0
   -2.3004   -1.4695   -0.1025 C   0  0  0  0  0  0  0  0  0  0  0  0
   -3.5754   -0.8882   -0.7340 C   0  0  0  0  0  0  0  0  0  0  0  0
   -3.8603    0.4767   -0.2699 N   0  0  0  0  0  0  0  0  0  0  0  0
   -5.1872    0.8243   -0.0468 C   0  0  0  0  0  0  0  0  0  0  0  0
   -5.4766    2.2685    0.2798 C   0  0  0  0  0  0  0  0  0  0  0  0
   -6.1069    0.0071   -0.0922 O   0  0  0  0  0  0  0  0  0  0  0  0
   -2.8095    1.4826   -0.4835 C   0  0  0  0  0  0  0  0  0  0  0  0
    1.3505   -4.5743   -0.0900 H   0  0  0  0  0  0  0  0  0  0  0  0
   -0.0555   -5.0356    0.8904 H   0  0  0  0  0  0  0  0  0  0  0  0
    1.3062   -4.2095    1.6741 H   0  0  0  0  0  0  0  0  0  0  0  0
    2.8281   -0.2655    0.1279 H   0  0  0  0  0  0  0  0  0  0  0  0
    4.9456   -0.6214    0.3326 H   0  0  0  0  0  0  0  0  0  0  0  0
    7.5343    0.1945    0.3885 H   0  0  0  0  0  0  0  0  0  0  0  0
    7.4102    2.9247   -0.0223 H   0  0  0  0  0  0  0  0  0  0  0  0
   -2.0369   -2.3856   -0.6404 H   0  0  0  0  0  0  0  0  0  0  0  0
   -2.4966   -1.7303    0.9446 H   0  0  0  0  0  0  0  0  0  0  0  0
   -3.4712   -0.8354   -1.8255 H   0  0  0  0  0  0  0  0  0  0  0  0
   -4.4140   -1.5604   -0.5241 H   0  0  0  0  0  0  0  0  0  0  0  0
   -6.5550    2.3994    0.4134 H   0  0  0  0  0  0  0  0  0  0  0  0
   -5.1563    2.9175   -0.5392 H   0  0  0  0  0  0  0  0  0  0  0  0
   -4.9813    2.5498    1.2126 H   0  0  0  0  0  0  0  0  0  0  0  0
   -2.9356    2.3070    0.2245 H   0  0  0  0  0  0  0  0  0  0  0  0
   -2.9323    1.8730   -1.5005 H   0  0  0  0  0  0  0  0  0  0  0  0
  1  2  1  0
  2  3  1  0
  3  4  2  0
  3  5  1  0
  5  6  2  0
  6  7  1  0
  7  8  1  0
  8  9  2  0
  8 10  1  0
 10 11  2  0
 11 12  1  0
 12 13  2  0
 13 14  1  0
  6 15  1  0
 15 16  1  0
 16 17  2  0
 17 18  1  0
 18 19  1  0
 19 20  1  0
 20 21  1  0
 21 22  1  0
 21 23  2  0
 20 24  1  0
 17  5  1  0
 14 10  1  0
 24 16  1  0
  1 25  1  0
  1 26  1  0
  1 27  1  0
  7 28  1  0
 11 29  1  0
 12 30  1  0
 13 31  1  0
 18 32  1  0
 18 33  1  0
 19 34  1  0
 19 35  1  0
 22 36  1  0
 22 37  1  0
 22 38  1  0
 24 39  1  0
 24 40  1  0
M  END
$$$$
