
     RDKit          3D

 54 56  0  0  0  0  0  0  0  0999 V2000
    5.4245    2.4385   -0.7877 C   0  0  0  0  0  0  0  0  0  0  0  0
    6.1230    1.2573   -0.1186 C   0  0  0  0  0  0  0  0  0  0  0  0
    5.2565    0.2074    0.4191 N   0  0  0  0  0  0  0  0  0  0  0  0
    4.3583    0.6551    1.5015 C   0  0  0  0  0  0  0  0  0  0  0  0
    2.8493    0.5942    1.1697 C   0  0  0  0  0  0  0  0  0  0  0  0
    2.4660   -0.7664    0.7587 N   0  0  0  0  0  0  0  0  0  0  0  0
    1.1103   -0.9921    0.5457 C   0  0  0  0  0  0  0  0  0  0  0  0
    0.6284   -2.2632    0.3071 C   0  0  0  0  0  0  0  0  0  0  0  0
   -0.7287   -2.4052    0.1137 C   0  0  0  0  0  0  0  0  0  0  0  0
   -1.3763   -4.0443   -0.1929 S   0  0  0  0  0  0  0  0  0  0  0  0
   -3.0787   -3.6757   -0.7738 C   0  0  0  0  0  0  0  0  0  0  0  0
   -3.0559   -3.1586   -2.2100 C   0  0  0  0  0  0  0  0  0  0  0  0
   -3.8997   -4.9614   -0.6865 C   0  0  0  0  0  0  0  0  0  0  0  0
   -1.5838   -1.3766    0.1654 N   0  0  0  0  0  0  0  0  0  0  0  0
   -1.0494   -0.1743    0.4236 C   0  0  0  0  0  0  0  0  0  0  0  0
   -1.9625    0.9856    0.4911 C   0  0  0  0  0  0  0  0  0  0  0  0
   -3.3511    0.8440    0.3046 C   0  0  0  0  0  0  0  0  0  0  0  0
   -4.2228    1.9416    0.3659 C   0  0  0  0  0  0  0  0  0  0  0  0
   -3.7250    3.2173    0.6167 C   0  0  0  0  0  0  0  0  0  0  0  0
   -4.4583    4.3678    0.7009 O   0  0  0  0  0  0  0  0  0  0  0  0
   -5.8633    4.2484    0.5168 C   0  0  0  0  0  0  0  0  0  0  0  0
   -2.3535    3.3819    0.8051 C   0  0  0  0  0  0  0  0  0  0  0  0
   -1.4862    2.2845    0.7436 C   0  0  0  0  0  0  0  0  0  0  0  0
    0.2633    0.0484    0.6180 N   0  0  0  0  0  0  0  0  0  0  0  0
    3.4573   -1.5030   -0.0473 C   0  0  0  0  0  0  0  0  0  0  0  0
    4.5460   -0.5607   -0.6165 C   0  0  0  0  0  0  0  0  0  0  0  0
    6.1709    3.1744   -1.1059 H   0  0  0  0  0  0  0  0  0  0  0  0
    4.7345    2.9450   -0.1066 H   0  0  0  0  0  0  0  0  0  0  0  0
    4.8683    2.1332   -1.6783 H   0  0  0  0  0  0  0  0  0  0  0  0
    6.8229    0.8103   -0.8355 H   0  0  0  0  0  0  0  0  0  0  0  0
    6.7510    1.6404    0.6957 H   0  0  0  0  0  0  0  0  0  0  0  0
    4.6134    1.6614    1.8545 H   0  0  0  0  0  0  0  0  0  0  0  0
    4.5420   -0.0100    2.3556 H   0  0  0  0  0  0  0  0  0  0  0  0
    2.6200    1.3153    0.3743 H   0  0  0  0  0  0  0  0  0  0  0  0
    2.2919    0.8881    2.0679 H   0  0  0  0  0  0  0  0  0  0  0  0
    1.2844   -3.1230    0.2933 H   0  0  0  0  0  0  0  0  0  0  0  0
   -3.5446   -2.9360   -0.1145 H   0  0  0  0  0  0  0  0  0  0  0  0
   -4.0757   -2.9541   -2.5549 H   0  0  0  0  0  0  0  0  0  0  0  0
   -2.6173   -3.8900   -2.8984 H   0  0  0  0  0  0  0  0  0  0  0  0
   -2.4927   -2.2244   -2.3009 H   0  0  0  0  0  0  0  0  0  0  0  0
   -4.9279   -4.7796   -1.0197 H   0  0  0  0  0  0  0  0  0  0  0  0
   -3.4858   -5.7568   -1.3170 H   0  0  0  0  0  0  0  0  0  0  0  0
   -3.9535   -5.3306    0.3441 H   0  0  0  0  0  0  0  0  0  0  0  0
   -3.7734   -0.1404    0.1074 H   0  0  0  0  0  0  0  0  0  0  0  0
   -5.2809    1.7585    0.2127 H   0  0  0  0  0  0  0  0  0  0  0  0
   -6.3107    3.6134    1.2888 H   0  0  0  0  0  0  0  0  0  0  0  0
   -6.2991    5.2474    0.6140 H   0  0  0  0  0  0  0  0  0  0  0  0
   -6.0996    3.8785   -0.4863 H   0  0  0  0  0  0  0  0  0  0  0  0
   -1.9514    4.3727    1.0022 H   0  0  0  0  0  0  0  0  0  0  0  0
   -0.4217    2.4549    0.8966 H   0  0  0  0  0  0  0  0  0  0  0  0
    2.9941   -2.0177   -0.8979 H   0  0  0  0  0  0  0  0  0  0  0  0
    3.9235   -2.2671    0.5864 H   0  0  0  0  0  0  0  0  0  0  0  0
    5.2716   -1.1625   -1.1762 H   0  0  0  0  0  0  0  0  0  0  0  0
    4.0586    0.1083   -1.3357 H   0  0  0  0  0  0  0  0  0  0  0  0
  1  2  1  0
  2  3  1  0
  3  4  1  0
  4  5  1  0
  5  6  1  0
  6  7  1  0
  7  8  2  0
  8  9  1  0
  9 10  1  0
 10 11  1  0
 11 12  1  0
 11 13  1  0
  9 14  2  0
 14 15  1  0
 15 16  1  0
 16 17  2  0
 17 18  1  0
 18 19  2  0
 19 20  1  0
 20 21  1  0
 19 22  1  0
 22 23  2  0
 15 24  2  0
  6 25  1  0
 25 26  1  0
 26  3  1  0
 24  7  1  0
 23 16  1  0
  1 27  1  0
  1 28  1  0
  1 29  1  0
  2 30  1  0
  2 31  1  0
  4 32  1  0
  4 33  1  0
  5 34  1  0
  5 35  1  0
  8 36  1  0
 11 37  1  0
 12 38  1  0
 12 39  1  0
 12 40  1  0
 13 41  1  0
 13 42  1  0
 13 43  1  0
 17 44  1  0
 18 45  1  0
 21 46  1  0
 21 47  1  0
 21 48  1  0
 22 49  1  0
 23 50  1  0
 25 51  1  0
 25 52  1  0
 26 53  1  0
 26 54  1  0
M  END
$$$$
