
     RDKit          3D

 50 53  0  0  0  0  0  0  0  0999 V2000
   -1.8121   -1.8642    0.3851 O   0  0  0  0  0  0  0  0  0  0  0  0
   -2.2435   -0.7534    0.0692 C   0  0  0  0  0  0  0  0  0  0  0  0
   -3.7401   -0.4344    0.1985 C   0  0  0  0  0  0  0  0  0  0  0  0
   -4.3749   -1.2362    1.3552 C   0  0  0  0  0  0  0  0  0  0  0  0
   -4.9776   -2.5574    0.8890 C   0  0  0  0  0  0  0  0  0  0  0  0
   -6.0760   -2.3511   -0.1533 C   0  0  0  0  0  0  0  0  0  0  0  0
   -5.9031   -1.0751   -0.9751 C   0  0  0  0  0  0  0  0  0  0  0  0
   -4.4358   -0.7025   -1.1496 C   0  0  0  0  0  0  0  0  0  0  0  0
   -1.4064    0.2248   -0.4622 N   0  0  0  0  0  0  0  0  0  0  0  0
   -1.8212    1.5977   -0.7555 C   0  0  0  0  0  0  0  0  0  0  0  0
   -0.7850    2.3594   -1.5735 C   0  0  0  0  0  0  0  0  0  0  0  0
    0.5819    2.3859   -0.8882 C   0  0  0  0  0  0  0  0  0  0  0  0
    0.8993    1.0863   -0.1261 C   0  0  0  0  0  0  0  0  0  0  0  0
    2.3458    0.7515   -0.2079 C   0  0  0  0  0  0  0  0  0  0  0  0
    3.2701    0.8228    0.7212 N   0  0  0  0  0  0  0  0  0  0  0  0
    4.4016    0.3999    0.0539 C   0  0  0  0  0  0  0  0  0  0  0  0
    5.7034    0.3085    0.7084 C   0  0  0  0  0  0  0  0  0  0  0  0
    6.8432   -0.1101    0.0006 C   0  0  0  0  0  0  0  0  0  0  0  0
    8.0845   -0.1933    0.6379 C   0  0  0  0  0  0  0  0  0  0  0  0
    8.1892    0.1408    1.9823 C   0  0  0  0  0  0  0  0  0  0  0  0
    9.3790    0.0613    2.5917 F   0  0  0  0  0  0  0  0  0  0  0  0
    7.0769    0.5568    2.7033 C   0  0  0  0  0  0  0  0  0  0  0  0
    5.8352    0.6405    2.0675 C   0  0  0  0  0  0  0  0  0  0  0  0
    4.1845    0.0919   -1.2361 N   0  0  0  0  0  0  0  0  0  0  0  0
    2.8241    0.3245   -1.4111 O   0  0  0  0  0  0  0  0  0  0  0  0
    0.0253   -0.0797   -0.5998 C   0  0  0  0  0  0  0  0  0  0  0  0
   -3.8515    0.6213    0.4699 H   0  0  0  0  0  0  0  0  0  0  0  0
   -3.6456   -1.4206    2.1528 H   0  0  0  0  0  0  0  0  0  0  0  0
   -5.1732   -0.6326    1.8072 H   0  0  0  0  0  0  0  0  0  0  0  0
   -4.1884   -3.1881    0.4621 H   0  0  0  0  0  0  0  0  0  0  0  0
   -5.3841   -3.1093    1.7442 H   0  0  0  0  0  0  0  0  0  0  0  0
   -7.0555   -2.3215    0.3394 H   0  0  0  0  0  0  0  0  0  0  0  0
   -6.0968   -3.2225   -0.8190 H   0  0  0  0  0  0  0  0  0  0  0  0
   -6.3813   -1.2012   -1.9531 H   0  0  0  0  0  0  0  0  0  0  0  0
   -6.4261   -0.2482   -0.4783 H   0  0  0  0  0  0  0  0  0  0  0  0
   -3.9241   -1.5068   -1.6944 H   0  0  0  0  0  0  0  0  0  0  0  0
   -4.3685    0.1839   -1.7893 H   0  0  0  0  0  0  0  0  0  0  0  0
   -2.7701    1.5894   -1.2952 H   0  0  0  0  0  0  0  0  0  0  0  0
   -1.9881    2.0996    0.2050 H   0  0  0  0  0  0  0  0  0  0  0  0
   -0.6812    1.8809   -2.5559 H   0  0  0  0  0  0  0  0  0  0  0  0
   -1.1265    3.3841   -1.7580 H   0  0  0  0  0  0  0  0  0  0  0  0
    0.6129    3.2216   -0.1766 H   0  0  0  0  0  0  0  0  0  0  0  0
    1.3439    2.6143   -1.6443 H   0  0  0  0  0  0  0  0  0  0  0  0
    0.6622    1.2623    0.9330 H   0  0  0  0  0  0  0  0  0  0  0  0
    6.7742   -0.3752   -1.0529 H   0  0  0  0  0  0  0  0  0  0  0  0
    8.9661   -0.5165    0.0935 H   0  0  0  0  0  0  0  0  0  0  0  0
    7.1804    0.8124    3.7531 H   0  0  0  0  0  0  0  0  0  0  0  0
    4.9686    0.9660    2.6405 H   0  0  0  0  0  0  0  0  0  0  0  0
    0.1994   -0.2985   -1.6614 H   0  0  0  0  0  0  0  0  0  0  0  0
    0.2849   -0.9900   -0.0475 H   0  0  0  0  0  0  0  0  0  0  0  0
  1  2  2  0
  2  3  1  0
  3  4  1  0
  4  5  1  0
  5  6  1  0
  6  7  1  0
  7  8  1  0
  2  9  1  0
  9 10  1  0
 10 11  1  0
 11 12  1  0
 12 13  1  0
 13 14  1  0
 14 15  2  0
 15 16  1  0
 16 17  1  0
 17 18  2  0
 18 19  1  0
 19 20  2  0
 20 21  1  0
 20 22  1  0
 22 23  2  0
 16 24  2  0
 24 25  1  0
 13 26  1  0
  8  3  1  0
 26  9  1  0
 25 14  1  0
 23 17  1  0
  3 27  1  0
  4 28  1  0
  4 29  1  0
  5 30  1  0
  5 31  1  0
  6 32  1  0
  6 33  1  0
  7 34  1  0
  7 35  1  0
  8 36  1  0
  8 37  1  0
 10 38  1  0
 10 39  1  0
 11 40  1  0
 11 41  1  0
 12 42  1  0
 12 43  1  0
 13 44  1  0
 18 45  1  0
 19 46  1  0
 22 47  1  0
 23 48  1  0
 26 49  1  0
 26 50  1  0
M  END
$$$$
