
     RDKit          3D

 49 52  0  0  0  0  0  0  0  0999 V2000
    3.6671    2.0848   -0.8403 O   0  0  0  0  0  0  0  0  0  0  0  0
    3.1951    1.1517   -1.4862 C   0  0  0  0  0  0  0  0  0  0  0  0
    2.3734    1.4190   -2.7404 C   0  0  0  0  0  0  0  0  0  0  0  0
    0.6738    1.8800   -2.2835 S   0  0  0  0  0  0  0  0  0  0  0  0
    0.1076    0.3581   -1.6942 C   0  0  0  0  0  0  0  0  0  0  0  0
    0.5401   -0.8102   -2.0995 N   0  0  0  0  0  0  0  0  0  0  0  0
   -0.0653   -1.7617   -1.3243 N   0  0  0  0  0  0  0  0  0  0  0  0
   -0.8758   -1.1609   -0.4703 C   0  0  0  0  0  0  0  0  0  0  0  0
   -1.6388   -1.8413    0.5678 C   0  0  0  0  0  0  0  0  0  0  0  0
   -0.9659   -2.5910    1.5336 C   0  0  0  0  0  0  0  0  0  0  0  0
   -1.7115   -3.2282    2.5102 C   0  0  0  0  0  0  0  0  0  0  0  0
   -3.0583   -3.1711    2.5810 N   0  0  0  0  0  0  0  0  0  0  0  0
   -3.6882   -2.4655    1.6179 C   0  0  0  0  0  0  0  0  0  0  0  0
   -3.0312   -1.7941    0.6008 C   0  0  0  0  0  0  0  0  0  0  0  0
   -0.8006    0.2020   -0.6816 N   0  0  0  0  0  0  0  0  0  0  0  0
   -1.3995    1.2560    0.1188 C   0  0  0  0  0  0  0  0  0  0  0  0
   -2.5435    1.9737   -0.5971 C   0  0  0  0  0  0  0  0  0  0  0  0
   -2.8841    3.3124    0.0399 C   0  0  0  0  0  0  0  0  0  0  0  0
   -4.3140    3.5016   -0.3994 C   0  0  0  0  0  0  0  0  0  0  0  0
   -4.8596    2.0930   -0.3043 C   0  0  0  0  0  0  0  0  0  0  0  0
   -3.7564    1.1993   -0.5269 O   0  0  0  0  0  0  0  0  0  0  0  0
    3.3170   -0.1924   -1.1805 N   0  0  0  0  0  0  0  0  0  0  0  0
    4.0362   -0.7832   -0.1122 C   0  0  0  0  0  0  0  0  0  0  0  0
    4.7951   -0.0444    0.8013 C   0  0  0  0  0  0  0  0  0  0  0  0
    5.4816   -0.6811    1.8423 C   0  0  0  0  0  0  0  0  0  0  0  0
    5.4254   -2.0651    1.9817 C   0  0  0  0  0  0  0  0  0  0  0  0
    4.6835   -2.8187    1.0761 C   0  0  0  0  0  0  0  0  0  0  0  0
    3.9958   -2.1832    0.0372 C   0  0  0  0  0  0  0  0  0  0  0  0
    3.1142   -3.1806   -1.0684 Cl  0  0  0  0  0  0  0  0  0  0  0  0
    2.3851    0.5596   -3.4178 H   0  0  0  0  0  0  0  0  0  0  0  0
    2.8368    2.2537   -3.2766 H   0  0  0  0  0  0  0  0  0  0  0  0
    0.1159   -2.6815    1.5229 H   0  0  0  0  0  0  0  0  0  0  0  0
   -1.2310   -3.8208    3.2834 H   0  0  0  0  0  0  0  0  0  0  0  0
   -4.7725   -2.4575    1.6834 H   0  0  0  0  0  0  0  0  0  0  0  0
   -3.6017   -1.2638   -0.1539 H   0  0  0  0  0  0  0  0  0  0  0  0
   -1.7455    0.8175    1.0602 H   0  0  0  0  0  0  0  0  0  0  0  0
   -0.5943    1.9555    0.3706 H   0  0  0  0  0  0  0  0  0  0  0  0
   -2.3262    2.1189   -1.6615 H   0  0  0  0  0  0  0  0  0  0  0  0
   -2.2200    4.1181   -0.2864 H   0  0  0  0  0  0  0  0  0  0  0  0
   -2.8402    3.2490    1.1342 H   0  0  0  0  0  0  0  0  0  0  0  0
   -4.8719    4.2167    0.2104 H   0  0  0  0  0  0  0  0  0  0  0  0
   -4.3415    3.8448   -1.4404 H   0  0  0  0  0  0  0  0  0  0  0  0
   -5.2555    1.8868    0.6958 H   0  0  0  0  0  0  0  0  0  0  0  0
   -5.6456    1.8970   -1.0387 H   0  0  0  0  0  0  0  0  0  0  0  0
    2.7446   -0.8471   -1.7184 H   0  0  0  0  0  0  0  0  0  0  0  0
    4.8772    1.0358    0.7356 H   0  0  0  0  0  0  0  0  0  0  0  0
    6.0629   -0.0870    2.5440 H   0  0  0  0  0  0  0  0  0  0  0  0
    5.9631   -2.5548    2.7899 H   0  0  0  0  0  0  0  0  0  0  0  0
    4.6469   -3.9000    1.1790 H   0  0  0  0  0  0  0  0  0  0  0  0
  1  2  2  0
  2  3  1  0
  3  4  1  0
  4  5  1  0
  5  6  2  0
  6  7  1  0
  7  8  2  0
  8  9  1  0
  9 10  2  0
 10 11  1  0
 11 12  2  0
 12 13  1  0
 13 14  2  0
  8 15  1  0
 15 16  1  0
 16 17  1  0
 17 18  1  0
 18 19  1  0
 19 20  1  0
 20 21  1  0
  2 22  1  0
 22 23  1  0
 23 24  2  0
 24 25  1  0
 25 26  2  0
 26 27  1  0
 27 28  2  0
 28 29  1  0
 15  5  1  0
 21 17  1  0
 28 23  1  0
 14  9  1  0
  3 30  1  0
  3 31  1  0
 10 32  1  0
 11 33  1  0
 13 34  1  0
 14 35  1  0
 16 36  1  0
 16 37  1  0
 17 38  1  0
 18 39  1  0
 18 40  1  0
 19 41  1  0
 19 42  1  0
 20 43  1  0
 20 44  1  0
 22 45  1  0
 24 46  1  0
 25 47  1  0
 26 48  1  0
 27 49  1  0
M  END
$$$$
