
     RDKit          3D

 45 48  0  0  0  0  0  0  0  0999 V2000
    1.0862   -2.5416    0.2408 O   0  0  0  0  0  0  0  0  0  0  0  0
   -0.1318   -2.4049    0.1691 C   0  0  0  0  0  0  0  0  0  0  0  0
   -0.8002   -1.2167    0.2875 N   0  0  0  0  0  0  0  0  0  0  0  0
   -0.4537   -0.2285   -0.4572 C   0  0  0  0  0  0  0  0  0  0  0  0
    0.5499   -0.2704   -1.3768 N   0  0  0  0  0  0  0  0  0  0  0  0
    1.7134    0.1116   -0.9580 C   0  0  0  0  0  0  0  0  0  0  0  0
    2.8676    0.0799   -1.7061 N   0  0  0  0  0  0  0  0  0  0  0  0
    3.8896    0.3603   -0.8263 C   0  0  0  0  0  0  0  0  0  0  0  0
    5.2513    0.4154   -1.0086 C   0  0  0  0  0  0  0  0  0  0  0  0
    6.0349    0.8206    0.0786 C   0  0  0  0  0  0  0  0  0  0  0  0
    5.4414    1.1761    1.3062 C   0  0  0  0  0  0  0  0  0  0  0  0
    4.0544    1.1369    1.4647 C   0  0  0  0  0  0  0  0  0  0  0  0
    3.3111    0.7330    0.3777 C   0  0  0  0  0  0  0  0  0  0  0  0
    1.9277    0.6214    0.3341 O   0  0  0  0  0  0  0  0  0  0  0  0
   -1.1149    0.9724   -0.4322 N   0  0  0  0  0  0  0  0  0  0  0  0
   -2.2162    1.3110    0.3335 C   0  0  0  0  0  0  0  0  0  0  0  0
   -2.9767    0.5298    0.8919 O   0  0  0  0  0  0  0  0  0  0  0  0
   -2.5300    2.7672    0.3594 C   0  0  0  0  0  0  0  0  0  0  0  0
   -1.5185    3.7379    0.3423 C   0  0  0  0  0  0  0  0  0  0  0  0
   -1.8541    5.0935    0.3669 C   0  0  0  0  0  0  0  0  0  0  0  0
   -3.1930    5.4821    0.4173 C   0  0  0  0  0  0  0  0  0  0  0  0
   -4.2010    4.5189    0.4535 C   0  0  0  0  0  0  0  0  0  0  0  0
   -3.8713    3.1630    0.4302 C   0  0  0  0  0  0  0  0  0  0  0  0
   -0.9968   -3.6115   -0.0110 C   0  0  0  0  0  0  0  0  0  0  0  0
   -2.3952   -3.5166    0.0256 C   0  0  0  0  0  0  0  0  0  0  0  0
   -3.1807   -4.6583   -0.1491 C   0  0  0  0  0  0  0  0  0  0  0  0
   -2.5760   -5.8973   -0.3600 C   0  0  0  0  0  0  0  0  0  0  0  0
   -1.1856   -6.0000   -0.3948 C   0  0  0  0  0  0  0  0  0  0  0  0
   -0.3966   -4.8610   -0.2201 C   0  0  0  0  0  0  0  0  0  0  0  0
    2.9645   -0.6491   -2.3949 H   0  0  0  0  0  0  0  0  0  0  0  0
    5.7085    0.1595   -1.9574 H   0  0  0  0  0  0  0  0  0  0  0  0
    7.1171    0.8664   -0.0249 H   0  0  0  0  0  0  0  0  0  0  0  0
    6.0712    1.4848    2.1378 H   0  0  0  0  0  0  0  0  0  0  0  0
    3.5823    1.4049    2.4024 H   0  0  0  0  0  0  0  0  0  0  0  0
   -0.7180    1.6645   -1.0456 H   0  0  0  0  0  0  0  0  0  0  0  0
   -0.4682    3.4588    0.3421 H   0  0  0  0  0  0  0  0  0  0  0  0
   -1.0715    5.8487    0.3595 H   0  0  0  0  0  0  0  0  0  0  0  0
   -3.4519    6.5382    0.4412 H   0  0  0  0  0  0  0  0  0  0  0  0
   -5.2438    4.8225    0.5060 H   0  0  0  0  0  0  0  0  0  0  0  0
   -4.6611    2.4149    0.4670 H   0  0  0  0  0  0  0  0  0  0  0  0
   -2.8824   -2.5582    0.1984 H   0  0  0  0  0  0  0  0  0  0  0  0
   -4.2645   -4.5784   -0.1160 H   0  0  0  0  0  0  0  0  0  0  0  0
   -3.1899   -6.7846   -0.4935 H   0  0  0  0  0  0  0  0  0  0  0  0
   -0.7148   -6.9666   -0.5553 H   0  0  0  0  0  0  0  0  0  0  0  0
    0.6873   -4.9502   -0.2459 H   0  0  0  0  0  0  0  0  0  0  0  0
  1  2  2  0
  2  3  1  0
  3  4  2  3
  4  5  1  0
  5  6  2  3
  6  7  1  0
  7  8  1  0
  8  9  2  0
  9 10  1  0
 10 11  2  0
 11 12  1  0
 12 13  2  0
 13 14  1  0
  4 15  1  0
 15 16  1  0
 16 17  2  0
 16 18  1  0
 18 19  2  0
 19 20  1  0
 20 21  2  0
 21 22  1  0
 22 23  2  0
  2 24  1  0
 24 25  2  0
 25 26  1  0
 26 27  2  0
 27 28  1  0
 28 29  2  0
 14  6  1  0
 23 18  1  0
 29 24  1  0
 13  8  1  0
  7 30  1  0
  9 31  1  0
 10 32  1  0
 11 33  1  0
 12 34  1  0
 15 35  1  0
 19 36  1  0
 20 37  1  0
 21 38  1  0
 22 39  1  0
 23 40  1  0
 25 41  1  0
 26 42  1  0
 27 43  1  0
 28 44  1  0
 29 45  1  0
M  END
$$$$
