
     RDKit          3D

 45 47  0  0  0  0  0  0  0  0999 V2000
    1.7545   -0.2383   -3.7829 C   0  0  0  0  0  0  0  0  0  0  0  0
    1.6676   -0.0556   -2.3761 O   0  0  0  0  0  0  0  0  0  0  0  0
    2.7821   -0.3607   -1.6323 C   0  0  0  0  0  0  0  0  0  0  0  0
    3.8920   -1.0595   -2.1174 C   0  0  0  0  0  0  0  0  0  0  0  0
    4.9649   -1.3433   -1.2712 C   0  0  0  0  0  0  0  0  0  0  0  0
    4.9306   -0.9353    0.0593 C   0  0  0  0  0  0  0  0  0  0  0  0
    3.8241   -0.2401    0.5531 C   0  0  0  0  0  0  0  0  0  0  0  0
    2.7449    0.0543   -0.2830 C   0  0  0  0  0  0  0  0  0  0  0  0
    1.5959    0.7594    0.1424 N   0  0  0  0  0  0  0  0  0  0  0  0
    1.2780    1.2004    1.4154 C   0  0  0  0  0  0  0  0  0  0  0  0
    1.9906    1.0882    2.4104 O   0  0  0  0  0  0  0  0  0  0  0  0
   -0.0958    1.8965    1.4797 C   0  0  0  0  0  0  0  0  0  0  0  0
   -0.5314    2.2492    2.9029 C   0  0  0  0  0  0  0  0  0  0  0  0
   -1.2655    1.0028    3.3600 C   0  0  0  0  0  0  0  0  0  0  0  0
   -2.0481    0.6098    2.1178 C   0  0  0  0  0  0  0  0  0  0  0  0
   -1.1446    0.9407    0.9869 N   0  0  0  0  0  0  0  0  0  0  0  0
   -1.8540    1.3604   -0.4853 S   0  0  0  0  0  6  0  0  0  0  0  0
   -0.7752    1.5827   -1.4242 O   0  0  0  0  0  0  0  0  0  0  0  0
   -2.8454    2.3807   -0.2248 O   0  0  0  0  0  0  0  0  0  0  0  0
   -2.6735   -0.1401   -0.9542 C   0  0  0  0  0  0  0  0  0  0  0  0
   -1.8991   -1.2562   -1.2917 C   0  0  0  0  0  0  0  0  0  0  0  0
   -2.5319   -2.4423   -1.6674 C   0  0  0  0  0  0  0  0  0  0  0  0
   -3.9258   -2.5014   -1.7086 C   0  0  0  0  0  0  0  0  0  0  0  0
   -4.7032   -3.9645   -2.1721 Cl  0  0  0  0  0  0  0  0  0  0  0  0
   -4.6955   -1.3840   -1.3787 C   0  0  0  0  0  0  0  0  0  0  0  0
   -4.0694   -0.1941   -1.0009 C   0  0  0  0  0  0  0  0  0  0  0  0
    2.5980    0.3170   -4.2064 H   0  0  0  0  0  0  0  0  0  0  0  0
    1.8129   -1.3018   -4.0356 H   0  0  0  0  0  0  0  0  0  0  0  0
    0.8370    0.1587   -4.2279 H   0  0  0  0  0  0  0  0  0  0  0  0
    3.9487   -1.4039   -3.1441 H   0  0  0  0  0  0  0  0  0  0  0  0
    5.8273   -1.8866   -1.6493 H   0  0  0  0  0  0  0  0  0  0  0  0
    5.7656   -1.1565    0.7196 H   0  0  0  0  0  0  0  0  0  0  0  0
    3.8389    0.0631    1.5947 H   0  0  0  0  0  0  0  0  0  0  0  0
    0.9114    0.9250   -0.5993 H   0  0  0  0  0  0  0  0  0  0  0  0
   -0.0359    2.8107    0.8786 H   0  0  0  0  0  0  0  0  0  0  0  0
   -1.2298    3.0951    2.8759 H   0  0  0  0  0  0  0  0  0  0  0  0
    0.2919    2.5161    3.5714 H   0  0  0  0  0  0  0  0  0  0  0  0
   -0.5520    0.2148    3.6284 H   0  0  0  0  0  0  0  0  0  0  0  0
   -1.9146    1.1855    4.2209 H   0  0  0  0  0  0  0  0  0  0  0  0
   -2.2891   -0.4567    2.1208 H   0  0  0  0  0  0  0  0  0  0  0  0
   -2.9770    1.1873    2.0665 H   0  0  0  0  0  0  0  0  0  0  0  0
   -0.8119   -1.2074   -1.2619 H   0  0  0  0  0  0  0  0  0  0  0  0
   -1.9351   -3.3130   -1.9274 H   0  0  0  0  0  0  0  0  0  0  0  0
   -5.7811   -1.4338   -1.4177 H   0  0  0  0  0  0  0  0  0  0  0  0
   -4.6719    0.6766   -0.7510 H   0  0  0  0  0  0  0  0  0  0  0  0
  1  2  1  0
  2  3  1  0
  3  4  2  0
  4  5  1  0
  5  6  2  0
  6  7  1  0
  7  8  2  0
  8  9  1  0
  9 10  1  0
 10 11  2  0
 10 12  1  0
 12 13  1  0
 13 14  1  0
 14 15  1  0
 15 16  1  0
 16 17  1  0
 17 18  2  0
 17 19  2  0
 17 20  1  0
 20 21  2  0
 21 22  1  0
 22 23  2  0
 23 24  1  0
 23 25  1  0
 25 26  2  0
  8  3  1  0
 16 12  1  0
 26 20  1  0
  1 27  1  0
  1 28  1  0
  1 29  1  0
  4 30  1  0
  5 31  1  0
  6 32  1  0
  7 33  1  0
  9 34  1  0
 12 35  1  0
 13 36  1  0
 13 37  1  0
 14 38  1  0
 14 39  1  0
 15 40  1  0
 15 41  1  0
 21 42  1  0
 22 43  1  0
 25 44  1  0
 26 45  1  0
M  END
$$$$
