
     RDKit          3D

 35 36  0  0  0  0  0  0  0  0999 V2000
    3.6926    2.8461   -0.7317 C   0  0  0  0  0  0  0  0  0  0  0  0
    3.8062    1.9367    0.4793 C   0  0  0  0  0  0  0  0  0  0  0  0
    3.7324    0.5282    0.1216 N   0  0  0  0  0  0  0  0  0  0  0  0
    4.9017   -0.1253   -0.0726 N   0  0  0  0  0  0  0  0  0  0  0  0
    4.5306   -1.3675   -0.3703 C   0  0  0  0  0  0  0  0  0  0  0  0
    3.1387   -1.5028   -0.3762 C   0  0  0  0  0  0  0  0  0  0  0  0
    2.3002   -3.1301   -0.7831 Br  0  0  0  0  0  0  0  0  0  0  0  0
    2.6089   -0.2654   -0.0512 C   0  0  0  0  0  0  0  0  0  0  0  0
    1.2412    0.2141    0.0934 C   0  0  0  0  0  0  0  0  0  0  0  0
    0.9963    1.3962    0.3086 O   0  0  0  0  0  0  0  0  0  0  0  0
    0.2696   -0.7610   -0.0293 N   0  0  0  0  0  0  0  0  0  0  0  0
   -1.1312   -0.6244    0.0735 C   0  0  0  0  0  0  0  0  0  0  0  0
   -1.8948   -1.7862   -0.1095 C   0  0  0  0  0  0  0  0  0  0  0  0
   -3.2936   -1.7565   -0.0236 C   0  0  0  0  0  0  0  0  0  0  0  0
   -4.0935   -3.0036   -0.2647 C   0  0  0  0  0  0  0  0  0  0  0  0
   -3.9333   -0.5397    0.2330 C   0  0  0  0  0  0  0  0  0  0  0  0
   -3.1888    0.6271    0.4345 C   0  0  0  0  0  0  0  0  0  0  0  0
   -3.8760    1.9367    0.6912 C   0  0  0  0  0  0  0  0  0  0  0  0
   -1.7888    0.5772    0.3425 C   0  0  0  0  0  0  0  0  0  0  0  0
    4.4975    2.6489   -1.4475 H   0  0  0  0  0  0  0  0  0  0  0  0
    2.7430    2.7031   -1.2562 H   0  0  0  0  0  0  0  0  0  0  0  0
    3.7585    3.8953   -0.4264 H   0  0  0  0  0  0  0  0  0  0  0  0
    3.0384    2.1514    1.2272 H   0  0  0  0  0  0  0  0  0  0  0  0
    4.7717    2.0980    0.9737 H   0  0  0  0  0  0  0  0  0  0  0  0
    5.2928   -2.1088   -0.5741 H   0  0  0  0  0  0  0  0  0  0  0  0
    0.5988   -1.6989   -0.2118 H   0  0  0  0  0  0  0  0  0  0  0  0
   -1.4061   -2.7333   -0.3282 H   0  0  0  0  0  0  0  0  0  0  0  0
   -5.0725   -2.9434    0.2222 H   0  0  0  0  0  0  0  0  0  0  0  0
   -3.5801   -3.8783    0.1485 H   0  0  0  0  0  0  0  0  0  0  0  0
   -4.2434   -3.1519   -1.3389 H   0  0  0  0  0  0  0  0  0  0  0  0
   -5.0196   -0.4992    0.2787 H   0  0  0  0  0  0  0  0  0  0  0  0
   -3.9418    2.5136   -0.2368 H   0  0  0  0  0  0  0  0  0  0  0  0
   -3.3284    2.5187    1.4394 H   0  0  0  0  0  0  0  0  0  0  0  0
   -4.8890    1.7834    1.0786 H   0  0  0  0  0  0  0  0  0  0  0  0
   -1.2380    1.5016    0.4860 H   0  0  0  0  0  0  0  0  0  0  0  0
  1  2  1  0
  2  3  1  0
  3  4  1  0
  4  5  2  0
  5  6  1  0
  6  7  1  0
  6  8  2  0
  8  9  1  0
  9 10  2  0
  9 11  1  0
 11 12  1  0
 12 13  2  0
 13 14  1  0
 14 15  1  0
 14 16  2  0
 16 17  1  0
 17 18  1  0
 17 19  2  0
  8  3  1  0
 19 12  1  0
  1 20  1  0
  1 21  1  0
  1 22  1  0
  2 23  1  0
  2 24  1  0
  5 25  1  0
 11 26  1  0
 13 27  1  0
 15 28  1  0
 15 29  1  0
 15 30  1  0
 16 31  1  0
 18 32  1  0
 18 33  1  0
 18 34  1  0
 19 35  1  0
M  END
$$$$
