
     RDKit          3D

 46 48  0  0  0  0  0  0  0  0999 V2000
   -6.2921   -1.0013    2.2234 C   0  0  0  0  0  0  0  0  0  0  0  0
   -4.9617   -1.6198    1.8157 C   0  0  0  0  0  0  0  0  0  0  0  0
   -4.9084   -2.0673    0.3533 C   0  0  0  0  0  0  0  0  0  0  0  0
   -5.0733   -0.7045   -0.8546 S   0  0  0  0  0  0  0  0  0  0  0  0
   -3.4929    0.1209   -0.6966 C   0  0  0  0  0  0  0  0  0  0  0  0
   -2.4896   -0.5990   -0.1377 N   0  0  0  0  0  0  0  0  0  0  0  0
   -1.2563   -0.0362   -0.0048 C   0  0  0  0  0  0  0  0  0  0  0  0
   -0.2187   -0.9219    0.6225 C   0  0  0  0  0  0  0  0  0  0  0  0
   -0.9784    1.2667   -0.4260 C   0  0  0  0  0  0  0  0  0  0  0  0
    0.3368    1.8731   -0.2902 C   0  0  0  0  0  0  0  0  0  0  0  0
    0.5422    3.1268    0.2432 C   0  0  0  0  0  0  0  0  0  0  0  0
    2.2086    3.5045    0.2199 S   0  0  0  0  0  0  0  0  0  0  0  0
    2.5625    1.9668   -0.5200 C   0  0  0  0  0  0  0  0  0  0  0  0
    3.9172    1.6220   -0.8571 C   0  0  0  0  0  0  0  0  0  0  0  0
    4.8060    2.6420   -1.3270 C   0  0  0  0  0  0  0  0  0  0  0  0
    5.5354    3.4625   -1.7050 N   0  0  0  0  0  0  0  0  0  0  0  0
    4.3527    0.3438   -0.7587 C   0  0  0  0  0  0  0  0  0  0  0  0
    3.5599   -0.8436   -0.2606 C   0  0  0  0  0  0  0  0  0  0  0  0
    4.6182   -1.9112   -0.0153 C   0  0  0  0  0  0  0  0  0  0  0  0
    5.6570   -1.6368   -1.0877 C   0  0  0  0  0  0  0  0  0  0  0  0
    5.7518   -0.1169   -1.1163 C   0  0  0  0  0  0  0  0  0  0  0  0
    1.4839    1.2189   -0.6995 N   0  0  0  0  0  0  0  0  0  0  0  0
   -2.0246    1.9930   -1.0082 C   0  0  0  0  0  0  0  0  0  0  0  0
   -3.2956    1.4211   -1.1511 C   0  0  0  0  0  0  0  0  0  0  0  0
   -4.3368    2.1971   -1.7521 C   0  0  0  0  0  0  0  0  0  0  0  0
   -5.1462    2.8726   -2.2377 N   0  0  0  0  0  0  0  0  0  0  0  0
   -6.2970   -0.8010    3.2998 H   0  0  0  0  0  0  0  0  0  0  0  0
   -6.4721   -0.0520    1.7107 H   0  0  0  0  0  0  0  0  0  0  0  0
   -7.1237   -1.6779    2.0027 H   0  0  0  0  0  0  0  0  0  0  0  0
   -4.7895   -2.5012    2.4456 H   0  0  0  0  0  0  0  0  0  0  0  0
   -4.1508   -0.9187    2.0414 H   0  0  0  0  0  0  0  0  0  0  0  0
   -5.7347   -2.7611    0.1616 H   0  0  0  0  0  0  0  0  0  0  0  0
   -3.9882   -2.6278    0.1584 H   0  0  0  0  0  0  0  0  0  0  0  0
    0.3085   -0.4017    1.4281 H   0  0  0  0  0  0  0  0  0  0  0  0
   -0.6860   -1.8106    1.0605 H   0  0  0  0  0  0  0  0  0  0  0  0
    0.4957   -1.2600   -0.1330 H   0  0  0  0  0  0  0  0  0  0  0  0
   -0.1798    3.8262    0.6412 H   0  0  0  0  0  0  0  0  0  0  0  0
    2.8683   -1.1812   -1.0405 H   0  0  0  0  0  0  0  0  0  0  0  0
    3.0061   -0.6356    0.6593 H   0  0  0  0  0  0  0  0  0  0  0  0
    4.2076   -2.9230   -0.0827 H   0  0  0  0  0  0  0  0  0  0  0  0
    5.0597   -1.7892    0.9817 H   0  0  0  0  0  0  0  0  0  0  0  0
    5.3105   -2.0154   -2.0574 H   0  0  0  0  0  0  0  0  0  0  0  0
    6.6195   -2.1068   -0.8653 H   0  0  0  0  0  0  0  0  0  0  0  0
    6.0782    0.2306   -2.1011 H   0  0  0  0  0  0  0  0  0  0  0  0
    6.4613    0.2278   -0.3552 H   0  0  0  0  0  0  0  0  0  0  0  0
   -1.8513    3.0053   -1.3720 H   0  0  0  0  0  0  0  0  0  0  0  0
  1  2  1  0
  2  3  1  0
  3  4  1  0
  4  5  1  0
  5  6  2  0
  6  7  1  0
  7  8  1  0
  7  9  2  0
  9 10  1  0
 10 11  2  0
 11 12  1  0
 12 13  1  0
 13 14  1  0
 14 15  1  0
 15 16  3  0
 14 17  2  3
 17 18  1  0
 18 19  1  0
 19 20  1  0
 20 21  1  0
 13 22  2  0
  9 23  1  0
 23 24  2  0
 24 25  1  0
 25 26  3  0
 24  5  1  0
 22 10  1  0
 21 17  1  0
  1 27  1  0
  1 28  1  0
  1 29  1  0
  2 30  1  0
  2 31  1  0
  3 32  1  0
  3 33  1  0
  8 34  1  0
  8 35  1  0
  8 36  1  0
 11 37  1  0
 18 38  1  0
 18 39  1  0
 19 40  1  0
 19 41  1  0
 20 42  1  0
 20 43  1  0
 21 44  1  0
 21 45  1  0
 23 46  1  0
M  END
$$$$
