
     RDKit          3D

 36 37  0  0  0  0  0  0  0  0999 V2000
    4.5044    0.9476   -0.3061 C   0  0  0  0  0  0  0  0  0  0  0  0
    4.5036   -0.4393   -0.7271 N   0  0  0  0  0  0  0  0  0  0  0  0
    3.4031   -1.1495   -1.1180 C   0  0  0  0  0  0  0  0  0  0  0  0
    3.6484   -2.3142   -2.2984 S   0  0  0  0  0  0  0  0  0  0  0  0
    2.1936   -0.8390   -0.5202 N   0  0  0  0  0  0  0  0  0  0  0  0
    2.1177   -0.7012    0.9369 C   0  0  0  0  0  0  0  0  0  0  0  0
    1.1122    0.3763    1.3327 C   0  0  0  0  0  0  0  0  0  0  0  0
   -0.2116    0.1914    0.6332 C   0  0  0  0  0  0  0  0  0  0  0  0
   -1.3619    0.8162    1.1392 C   0  0  0  0  0  0  0  0  0  0  0  0
   -2.5946    0.6807    0.4910 C   0  0  0  0  0  0  0  0  0  0  0  0
   -3.7660    1.2528    0.9232 O   0  0  0  0  0  0  0  0  0  0  0  0
   -3.7223    2.0339    2.1079 C   0  0  0  0  0  0  0  0  0  0  0  0
   -2.6789   -0.0852   -0.6875 C   0  0  0  0  0  0  0  0  0  0  0  0
   -3.9237   -0.1740   -1.2610 O   0  0  0  0  0  0  0  0  0  0  0  0
   -4.0457   -0.9179   -2.4643 C   0  0  0  0  0  0  0  0  0  0  0  0
   -1.5279   -0.6974   -1.1971 C   0  0  0  0  0  0  0  0  0  0  0  0
   -0.2876   -0.5568   -0.5522 C   0  0  0  0  0  0  0  0  0  0  0  0
    0.9256   -1.2539   -1.1321 C   0  0  0  0  0  0  0  0  0  0  0  0
    4.7938    0.9927    0.7463 H   0  0  0  0  0  0  0  0  0  0  0  0
    3.5301    1.4162   -0.4599 H   0  0  0  0  0  0  0  0  0  0  0  0
    5.2521    1.4798   -0.9006 H   0  0  0  0  0  0  0  0  0  0  0  0
    5.3470   -0.7476   -1.1984 H   0  0  0  0  0  0  0  0  0  0  0  0
    1.8097   -1.6780    1.3343 H   0  0  0  0  0  0  0  0  0  0  0  0
    3.0938   -0.4934    1.3825 H   0  0  0  0  0  0  0  0  0  0  0  0
    1.5028    1.3651    1.0639 H   0  0  0  0  0  0  0  0  0  0  0  0
    0.9722    0.3511    2.4196 H   0  0  0  0  0  0  0  0  0  0  0  0
   -1.2678    1.4059    2.0453 H   0  0  0  0  0  0  0  0  0  0  0  0
   -3.4214    1.4290    2.9696 H   0  0  0  0  0  0  0  0  0  0  0  0
   -3.0673    2.9026    1.9847 H   0  0  0  0  0  0  0  0  0  0  0  0
   -4.7332    2.4058    2.3009 H   0  0  0  0  0  0  0  0  0  0  0  0
   -3.7934   -1.9713   -2.3046 H   0  0  0  0  0  0  0  0  0  0  0  0
   -3.4379   -0.4807   -3.2633 H   0  0  0  0  0  0  0  0  0  0  0  0
   -5.0922   -0.8721   -2.7811 H   0  0  0  0  0  0  0  0  0  0  0  0
   -1.5670   -1.2937   -2.1036 H   0  0  0  0  0  0  0  0  0  0  0  0
    0.8144   -2.3351   -0.9823 H   0  0  0  0  0  0  0  0  0  0  0  0
    0.9757   -1.0470   -2.2075 H   0  0  0  0  0  0  0  0  0  0  0  0
  1  2  1  0
  2  3  1  0
  3  4  2  0
  3  5  1  0
  5  6  1  0
  6  7  1  0
  7  8  1  0
  8  9  2  0
  9 10  1  0
 10 11  1  0
 11 12  1  0
 10 13  2  0
 13 14  1  0
 14 15  1  0
 13 16  1  0
 16 17  2  0
 17 18  1  0
 18  5  1  0
 17  8  1  0
  1 19  1  0
  1 20  1  0
  1 21  1  0
  2 22  1  0
  6 23  1  0
  6 24  1  0
  7 25  1  0
  7 26  1  0
  9 27  1  0
 12 28  1  0
 12 29  1  0
 12 30  1  0
 15 31  1  0
 15 32  1  0
 15 33  1  0
 16 34  1  0
 18 35  1  0
 18 36  1  0
M  END
$$$$
