
     RDKit          3D

 36 38  0  0  0  0  0  0  0  0999 V2000
    4.7622   -0.9268    1.9856 C   0  0  0  0  0  0  0  0  0  0  0  0
    3.7336   -0.4587    0.9976 C   0  0  0  0  0  0  0  0  0  0  0  0
    3.1578    0.8126    1.1251 C   0  0  0  0  0  0  0  0  0  0  0  0
    2.2275    1.2652    0.1881 C   0  0  0  0  0  0  0  0  0  0  0  0
    1.8656    0.4389   -0.8793 C   0  0  0  0  0  0  0  0  0  0  0  0
    0.7009    1.0269   -2.0899 S   0  0  0  0  0  6  0  0  0  0  0  0
    0.7623    2.4729   -2.0849 O   0  0  0  0  0  0  0  0  0  0  0  0
    0.9123    0.2729   -3.3069 O   0  0  0  0  0  0  0  0  0  0  0  0
   -0.7974    0.5728   -1.4575 N   0  0  0  0  0  0  0  0  0  0  0  0
   -1.1389   -0.8763   -1.5132 C   0  0  0  0  0  0  0  0  0  0  0  0
   -2.4247   -1.3213   -0.8123 C   0  0  0  0  0  0  0  0  0  0  0  0
   -2.8311   -2.4801   -0.8974 O   0  0  0  0  0  0  0  0  0  0  0  0
   -3.0434   -0.3950   -0.0165 N   0  0  0  0  0  0  0  0  0  0  0  0
   -4.1930   -0.6218    0.8010 C   0  0  0  0  0  0  0  0  0  0  0  0
   -4.0797    0.5239    1.7834 C   0  0  0  0  0  0  0  0  0  0  0  0
   -3.3126    1.5603    1.1274 O   0  0  0  0  0  0  0  0  0  0  0  0
   -2.7592    1.0071   -0.0734 C   0  0  0  0  0  0  0  0  0  0  0  0
   -1.2590    1.2615   -0.2234 C   0  0  0  0  0  0  0  0  0  0  0  0
    2.4636   -0.8134   -1.0417 C   0  0  0  0  0  0  0  0  0  0  0  0
    3.3929   -1.2600   -0.1007 C   0  0  0  0  0  0  0  0  0  0  0  0
    4.7396   -2.0170    2.0854 H   0  0  0  0  0  0  0  0  0  0  0  0
    5.7609   -0.6213    1.6588 H   0  0  0  0  0  0  0  0  0  0  0  0
    4.5696   -0.5060    2.9781 H   0  0  0  0  0  0  0  0  0  0  0  0
    3.4400    1.4617    1.9520 H   0  0  0  0  0  0  0  0  0  0  0  0
    1.8016    2.2608    0.2921 H   0  0  0  0  0  0  0  0  0  0  0  0
   -0.3336   -1.4596   -1.0559 H   0  0  0  0  0  0  0  0  0  0  0  0
   -1.2418   -1.1643   -2.5652 H   0  0  0  0  0  0  0  0  0  0  0  0
   -5.0818   -0.5201    0.1690 H   0  0  0  0  0  0  0  0  0  0  0  0
   -4.1918   -1.6110    1.2660 H   0  0  0  0  0  0  0  0  0  0  0  0
   -3.5196    0.2244    2.6757 H   0  0  0  0  0  0  0  0  0  0  0  0
   -5.0509    0.9181    2.0946 H   0  0  0  0  0  0  0  0  0  0  0  0
   -3.3060    1.4292   -0.9260 H   0  0  0  0  0  0  0  0  0  0  0  0
   -1.0853    2.3406   -0.2798 H   0  0  0  0  0  0  0  0  0  0  0  0
   -0.7195    0.8797    0.6509 H   0  0  0  0  0  0  0  0  0  0  0  0
    2.2211   -1.4418   -1.8960 H   0  0  0  0  0  0  0  0  0  0  0  0
    3.8582   -2.2350   -0.2335 H   0  0  0  0  0  0  0  0  0  0  0  0
  1  2  1  0
  2  3  2  0
  3  4  1  0
  4  5  2  0
  5  6  1  0
  6  7  2  0
  6  8  2  0
  6  9  1  0
  9 10  1  0
 10 11  1  0
 11 12  2  0
 11 13  1  0
 13 14  1  0
 14 15  1  0
 15 16  1  0
 16 17  1  0
 17 18  1  0
  5 19  1  0
 19 20  2  0
 20  2  1  0
 18  9  1  0
 17 13  1  0
  1 21  1  0
  1 22  1  0
  1 23  1  0
  3 24  1  0
  4 25  1  0
 10 26  1  0
 10 27  1  0
 14 28  1  0
 14 29  1  0
 15 30  1  0
 15 31  1  0
 17 32  1  0
 18 33  1  0
 18 34  1  0
 19 35  1  0
 20 36  1  0
M  END
$$$$
