
     RDKit          3D

 37 39  0  0  0  0  0  0  0  0999 V2000
    0.0412   -2.9447   -2.1659 C   0  0  0  0  0  0  0  0  0  0  0  0
   -1.0122   -2.3335   -2.8998 O   0  0  0  0  0  0  0  0  0  0  0  0
   -1.4450   -1.0952   -2.4334 C   0  0  0  0  0  0  0  0  0  0  0  0
   -2.4740   -0.5434   -3.2075 C   0  0  0  0  0  0  0  0  0  0  0  0
   -3.0297    0.6932   -2.8919 C   0  0  0  0  0  0  0  0  0  0  0  0
   -2.5786    1.4273   -1.7889 C   0  0  0  0  0  0  0  0  0  0  0  0
   -3.0667    2.6491   -1.4072 O   0  0  0  0  0  0  0  0  0  0  0  0
   -4.1387    3.1933   -2.1657 C   0  0  0  0  0  0  0  0  0  0  0  0
   -1.5412    0.8607   -1.0138 C   0  0  0  0  0  0  0  0  0  0  0  0
   -0.7778    1.5093    0.3897 S   0  0  0  0  0  0  0  0  0  0  0  0
    0.2461    0.1273    0.5192 C   0  0  0  0  0  0  0  0  0  0  0  0
    1.1869   -0.0323    1.4967 N   0  0  0  0  0  0  0  0  0  0  0  0
    2.1167   -1.1572    1.4035 C   0  0  0  0  0  0  0  0  0  0  0  0
    3.4969   -0.7409    1.9058 C   0  0  0  0  0  0  0  0  0  0  0  0
    3.4623   -0.2559    3.3533 C   0  0  0  0  0  0  0  0  0  0  0  0
    2.0924    0.2784    3.7645 C   0  0  0  0  0  0  0  0  0  0  0  0
    1.3464    0.9175    2.5954 C   0  0  0  0  0  0  0  0  0  0  0  0
    0.0412   -0.7616   -0.4260 N   0  0  0  0  0  0  0  0  0  0  0  0
   -0.9647   -0.3772   -1.3058 C   0  0  0  0  0  0  0  0  0  0  0  0
   -0.2697   -3.1751   -1.1420 H   0  0  0  0  0  0  0  0  0  0  0  0
    0.9496   -2.3349   -2.1933 H   0  0  0  0  0  0  0  0  0  0  0  0
    0.2755   -3.8956   -2.6558 H   0  0  0  0  0  0  0  0  0  0  0  0
   -2.8412   -1.0930   -4.0717 H   0  0  0  0  0  0  0  0  0  0  0  0
   -3.8222    1.0637   -3.5348 H   0  0  0  0  0  0  0  0  0  0  0  0
   -4.4129    4.1523   -1.7161 H   0  0  0  0  0  0  0  0  0  0  0  0
   -3.8325    3.3868   -3.1989 H   0  0  0  0  0  0  0  0  0  0  0  0
   -5.0195    2.5441   -2.1276 H   0  0  0  0  0  0  0  0  0  0  0  0
    2.2308   -1.5098    0.3713 H   0  0  0  0  0  0  0  0  0  0  0  0
    1.7332   -1.9982    1.9932 H   0  0  0  0  0  0  0  0  0  0  0  0
    3.8766    0.0693    1.2697 H   0  0  0  0  0  0  0  0  0  0  0  0
    4.2053   -1.5717    1.8100 H   0  0  0  0  0  0  0  0  0  0  0  0
    4.2236    0.5215    3.4859 H   0  0  0  0  0  0  0  0  0  0  0  0
    3.7397   -1.0739    4.0281 H   0  0  0  0  0  0  0  0  0  0  0  0
    1.4925   -0.5516    4.1605 H   0  0  0  0  0  0  0  0  0  0  0  0
    2.2052    0.9986    4.5827 H   0  0  0  0  0  0  0  0  0  0  0  0
    1.8919    1.8016    2.2428 H   0  0  0  0  0  0  0  0  0  0  0  0
    0.3728    1.2513    2.9738 H   0  0  0  0  0  0  0  0  0  0  0  0
  1  2  1  0
  2  3  1  0
  3  4  2  0
  4  5  1  0
  5  6  2  0
  6  7  1  0
  7  8  1  0
  6  9  1  0
  9 10  1  0
 10 11  1  0
 11 12  1  0
 12 13  1  0
 13 14  1  0
 14 15  1  0
 15 16  1  0
 16 17  1  0
 11 18  2  0
 18 19  1  0
 19  3  1  0
 19  9  2  0
 17 12  1  0
  1 20  1  0
  1 21  1  0
  1 22  1  0
  4 23  1  0
  5 24  1  0
  8 25  1  0
  8 26  1  0
  8 27  1  0
 13 28  1  0
 13 29  1  0
 14 30  1  0
 14 31  1  0
 15 32  1  0
 15 33  1  0
 16 34  1  0
 16 35  1  0
 17 36  1  0
 17 37  1  0
M  END
$$$$
