
     RDKit          3D

 44 46  0  0  0  0  0  0  0  0999 V2000
    6.9039    0.3020   -0.1170 C   0  0  0  0  0  0  0  0  0  0  0  0
    5.6754   -0.1251   -0.6886 O   0  0  0  0  0  0  0  0  0  0  0  0
    4.5784    0.7318   -0.3857 C   0  0  0  0  0  0  0  0  0  0  0  0
    3.9871    0.4456    0.9911 C   0  0  0  0  0  0  0  0  0  0  0  0
    3.4323   -0.9802    1.1439 C   0  0  0  0  0  0  0  0  0  0  0  0
    2.2088   -1.2275    0.3582 N   0  0  0  0  0  0  0  0  0  0  0  0
    2.1904   -2.0902   -0.7385 C   0  0  0  0  0  0  0  0  0  0  0  0
    3.4584   -3.0002   -1.3520 S   0  0  0  0  0  0  0  0  0  0  0  0
    0.9984   -2.2247   -1.3992 N   0  0  0  0  0  0  0  0  0  0  0  0
   -0.1792   -1.5861   -1.0283 C   0  0  0  0  0  0  0  0  0  0  0  0
   -1.3423   -1.7820   -1.7623 C   0  0  0  0  0  0  0  0  0  0  0  0
   -2.5205   -1.1365   -1.3697 C   0  0  0  0  0  0  0  0  0  0  0  0
   -2.5671   -0.2833   -0.2513 C   0  0  0  0  0  0  0  0  0  0  0  0
   -3.7820    0.3222    0.1035 N   0  0  0  0  0  0  0  0  0  0  0  0
   -3.8894    0.9401    1.4456 C   0  0  0  0  0  0  0  0  0  0  0  0
   -5.3464    1.3435    1.7218 C   0  0  0  0  0  0  0  0  0  0  0  0
   -5.8396    2.2422    0.7153 O   0  0  0  0  0  0  0  0  0  0  0  0
   -5.7863    1.6110   -0.5734 C   0  0  0  0  0  0  0  0  0  0  0  0
   -4.3521    1.2017   -0.9489 C   0  0  0  0  0  0  0  0  0  0  0  0
   -1.3794   -0.1216    0.4759 C   0  0  0  0  0  0  0  0  0  0  0  0
   -0.1951   -0.7648    0.0837 C   0  0  0  0  0  0  0  0  0  0  0  0
    1.0550   -0.5853    0.8429 C   0  0  0  0  0  0  0  0  0  0  0  0
    1.0299    0.1085    1.8588 O   0  0  0  0  0  0  0  0  0  0  0  0
    7.1631    1.3056   -0.4676 H   0  0  0  0  0  0  0  0  0  0  0  0
    6.8566    0.2840    0.9749 H   0  0  0  0  0  0  0  0  0  0  0  0
    7.6879   -0.3894   -0.4377 H   0  0  0  0  0  0  0  0  0  0  0  0
    4.8881    1.7810   -0.4605 H   0  0  0  0  0  0  0  0  0  0  0  0
    3.8174    0.5732   -1.1569 H   0  0  0  0  0  0  0  0  0  0  0  0
    3.2092    1.1885    1.1958 H   0  0  0  0  0  0  0  0  0  0  0  0
    4.7600    0.5835    1.7555 H   0  0  0  0  0  0  0  0  0  0  0  0
    3.1732   -1.1320    2.2001 H   0  0  0  0  0  0  0  0  0  0  0  0
    4.2142   -1.7108    0.9245 H   0  0  0  0  0  0  0  0  0  0  0  0
    1.0015   -2.8455   -2.2011 H   0  0  0  0  0  0  0  0  0  0  0  0
   -1.3580   -2.4355   -2.6297 H   0  0  0  0  0  0  0  0  0  0  0  0
   -3.4284   -1.3330   -1.9363 H   0  0  0  0  0  0  0  0  0  0  0  0
   -3.2587    1.8370    1.4904 H   0  0  0  0  0  0  0  0  0  0  0  0
   -3.5704    0.2360    2.2228 H   0  0  0  0  0  0  0  0  0  0  0  0
   -5.4129    1.8575    2.6858 H   0  0  0  0  0  0  0  0  0  0  0  0
   -5.9988    0.4631    1.7655 H   0  0  0  0  0  0  0  0  0  0  0  0
   -6.4544    0.7413   -0.5715 H   0  0  0  0  0  0  0  0  0  0  0  0
   -6.1716    2.3255   -1.3077 H   0  0  0  0  0  0  0  0  0  0  0  0
   -3.7282    2.1005   -1.0374 H   0  0  0  0  0  0  0  0  0  0  0  0
   -4.3836    0.7097   -1.9266 H   0  0  0  0  0  0  0  0  0  0  0  0
   -1.3443    0.5186    1.3527 H   0  0  0  0  0  0  0  0  0  0  0  0
  1  2  1  0
  2  3  1  0
  3  4  1  0
  4  5  1  0
  5  6  1  0
  6  7  1  0
  7  8  2  0
  7  9  1  0
  9 10  1  0
 10 11  2  0
 11 12  1  0
 12 13  2  0
 13 14  1  0
 14 15  1  0
 15 16  1  0
 16 17  1  0
 17 18  1  0
 18 19  1  0
 13 20  1  0
 20 21  2  0
 21 22  1  0
 22 23  2  0
 22  6  1  0
 21 10  1  0
 19 14  1  0
  1 24  1  0
  1 25  1  0
  1 26  1  0
  3 27  1  0
  3 28  1  0
  4 29  1  0
  4 30  1  0
  5 31  1  0
  5 32  1  0
  9 33  1  0
 11 34  1  0
 12 35  1  0
 15 36  1  0
 15 37  1  0
 16 38  1  0
 16 39  1  0
 18 40  1  0
 18 41  1  0
 19 42  1  0
 19 43  1  0
 20 44  1  0
M  END
$$$$
