
     RDKit          3D

 55 58  0  0  0  0  0  0  0  0999 V2000
   -5.0005   -4.4254    1.7959 C   0  0  0  0  0  0  0  0  0  0  0  0
   -4.8297   -3.0552    2.2813 N   0  0  0  0  0  0  0  0  0  0  0  0
   -4.9264   -2.9154    3.7384 C   0  0  0  0  0  0  0  0  0  0  0  0
   -3.8638   -2.2464    1.6638 C   0  0  0  0  0  0  0  0  0  0  0  0
   -2.9835   -2.7103    0.6827 C   0  0  0  0  0  0  0  0  0  0  0  0
   -2.0319   -1.8701    0.0758 C   0  0  0  0  0  0  0  0  0  0  0  0
   -1.9136   -0.5135    0.4021 C   0  0  0  0  0  0  0  0  0  0  0  0
   -0.9622    0.3176   -0.2224 N   0  0  0  0  0  0  0  0  0  0  0  0
    0.2245   -0.1088   -0.8171 C   0  0  0  0  0  0  0  0  0  0  0  0
    0.7897   -1.2612   -0.6742 N   0  0  0  0  0  0  0  0  0  0  0  0
    1.9686   -1.5198   -1.3220 C   0  0  0  0  0  0  0  0  0  0  0  0
    2.0400   -1.7918   -2.5156 O   0  0  0  0  0  0  0  0  0  0  0  0
    3.1611   -1.5930   -0.3851 C   0  0  0  0  0  0  0  0  0  0  0  0
    4.4851   -1.2901   -1.0798 C   0  0  0  0  0  0  0  0  0  0  0  0
    4.6524    0.1719   -1.4186 C   0  0  0  0  0  0  0  0  0  0  0  0
    4.5231    0.6090   -2.7432 C   0  0  0  0  0  0  0  0  0  0  0  0
    4.6592    1.9614   -3.0606 C   0  0  0  0  0  0  0  0  0  0  0  0
    4.9218    2.8903   -2.0570 C   0  0  0  0  0  0  0  0  0  0  0  0
    5.0510    2.4674   -0.7354 C   0  0  0  0  0  0  0  0  0  0  0  0
    4.9201    1.1144   -0.4168 C   0  0  0  0  0  0  0  0  0  0  0  0
    0.9267    1.2217   -1.7681 S   0  0  0  0  0  0  0  0  0  0  0  0
   -0.5635    2.2481   -1.5971 C   0  0  0  0  0  0  0  0  0  0  0  0
   -0.2861    3.7374   -1.5064 C   0  0  0  0  0  0  0  0  0  0  0  0
   -0.2563    4.1359    0.2281 S   0  0  0  0  0  6  0  0  0  0  0  0
   -1.4501    4.8980    0.5321 O   0  0  0  0  0  0  0  0  0  0  0  0
    1.0645    4.5933    0.5988 O   0  0  0  0  0  0  0  0  0  0  0  0
   -0.4970    2.4970    0.8566 C   0  0  0  0  0  0  0  0  0  0  0  0
   -1.1994    1.7666   -0.2853 C   0  0  0  0  0  0  0  0  0  0  0  0
   -2.8180   -0.0412    1.3614 C   0  0  0  0  0  0  0  0  0  0  0  0
   -3.7651   -0.8841    1.9713 C   0  0  0  0  0  0  0  0  0  0  0  0
   -4.1292   -5.0451    2.0380 H   0  0  0  0  0  0  0  0  0  0  0  0
   -5.1788   -4.4464    0.7153 H   0  0  0  0  0  0  0  0  0  0  0  0
   -5.8797   -4.8864    2.2607 H   0  0  0  0  0  0  0  0  0  0  0  0
   -5.6858   -3.5956    4.1411 H   0  0  0  0  0  0  0  0  0  0  0  0
   -5.2343   -1.9092    4.0377 H   0  0  0  0  0  0  0  0  0  0  0  0
   -3.9710   -3.1595    4.2180 H   0  0  0  0  0  0  0  0  0  0  0  0
   -2.9978   -3.7472    0.3569 H   0  0  0  0  0  0  0  0  0  0  0  0
   -1.4016   -2.3155   -0.6920 H   0  0  0  0  0  0  0  0  0  0  0  0
    3.0007   -0.9106    0.4585 H   0  0  0  0  0  0  0  0  0  0  0  0
    3.1851   -2.6138    0.0143 H   0  0  0  0  0  0  0  0  0  0  0  0
    5.3116   -1.5846   -0.4216 H   0  0  0  0  0  0  0  0  0  0  0  0
    4.5963   -1.8989   -1.9850 H   0  0  0  0  0  0  0  0  0  0  0  0
    4.3004   -0.1020   -3.5370 H   0  0  0  0  0  0  0  0  0  0  0  0
    4.5531    2.2862   -4.0918 H   0  0  0  0  0  0  0  0  0  0  0  0
    5.0251    3.9433   -2.3028 H   0  0  0  0  0  0  0  0  0  0  0  0
    5.2549    3.1945    0.0471 H   0  0  0  0  0  0  0  0  0  0  0  0
    5.0286    0.8026    0.6187 H   0  0  0  0  0  0  0  0  0  0  0  0
   -1.2012    2.0199   -2.4582 H   0  0  0  0  0  0  0  0  0  0  0  0
   -1.1119    4.3067   -1.9458 H   0  0  0  0  0  0  0  0  0  0  0  0
    0.6503    4.0485   -1.9755 H   0  0  0  0  0  0  0  0  0  0  0  0
    0.4829    2.0769    1.1015 H   0  0  0  0  0  0  0  0  0  0  0  0
   -1.0970    2.5454    1.7679 H   0  0  0  0  0  0  0  0  0  0  0  0
   -2.2662    2.0246   -0.3140 H   0  0  0  0  0  0  0  0  0  0  0  0
   -2.8220    0.9951    1.6825 H   0  0  0  0  0  0  0  0  0  0  0  0
   -4.4530   -0.4326    2.6818 H   0  0  0  0  0  0  0  0  0  0  0  0
  1  2  1  0
  2  3  1  0
  2  4  1  0
  4  5  2  0
  5  6  1  0
  6  7  2  0
  7  8  1  0
  8  9  1  0
  9 10  2  3
 10 11  1  0
 11 12  2  0
 11 13  1  0
 13 14  1  0
 14 15  1  0
 15 16  2  0
 16 17  1  0
 17 18  2  0
 18 19  1  0
 19 20  2  0
  9 21  1  0
 21 22  1  0
 22 23  1  0
 23 24  1  0
 24 25  2  0
 24 26  2  0
 24 27  1  0
 27 28  1  0
  7 29  1  0
 29 30  2  0
 30  4  1  0
 28  8  1  0
 20 15  1  0
 28 22  1  0
  1 31  1  0
  1 32  1  0
  1 33  1  0
  3 34  1  0
  3 35  1  0
  3 36  1  0
  5 37  1  0
  6 38  1  0
 13 39  1  0
 13 40  1  0
 14 41  1  0
 14 42  1  0
 16 43  1  0
 17 44  1  0
 18 45  1  0
 19 46  1  0
 20 47  1  0
 22 48  1  0
 23 49  1  0
 23 50  1  0
 27 51  1  0
 27 52  1  0
 28 53  1  0
 29 54  1  0
 30 55  1  0
M  END
$$$$
