
     RDKit          3D

 45 49  0  0  0  0  0  0  0  0999 V2000
    0.4904   -0.1672   -0.3877 O   0  0  0  0  0  0  0  0  0  0  0  0
    0.5232    0.3787    0.7069 C   0  0  0  0  0  0  0  0  0  0  0  0
   -0.6414    0.6608    1.6212 C   0  0  0  0  0  0  0  0  0  0  0  0
   -1.9197    0.3905    0.9885 N   0  0  0  0  0  0  0  0  0  0  0  0
   -2.6312   -0.7937    1.1152 C   0  0  0  0  0  0  0  0  0  0  0  0
   -2.1776   -1.8040    1.8425 O   0  0  0  0  0  0  0  0  0  0  0  0
   -3.7588   -0.6333    0.3664 C   0  0  0  0  0  0  0  0  0  0  0  0
   -3.7401    0.6566   -0.2099 C   0  0  0  0  0  0  0  0  0  0  0  0
   -2.6003    1.2926    0.1822 C   0  0  0  0  0  0  0  0  0  0  0  0
   -2.1106    2.4957   -0.0803 O   0  0  0  0  0  0  0  0  0  0  0  0
   -4.9855    0.7932   -1.0264 C   0  0  0  0  0  0  0  0  0  0  0  0
   -4.8607   -0.1548   -2.2473 C   0  0  0  0  0  0  0  0  0  0  0  0
   -4.8816   -1.5829   -1.6092 C   0  0  0  0  0  0  0  0  0  0  0  0
   -5.0159   -1.3024   -0.0900 C   0  0  0  0  0  0  0  0  0  0  0  0
   -5.9634   -0.0588   -0.1515 C   0  0  0  0  0  0  0  0  0  0  0  0
    1.6789    0.8356    1.3550 O   0  0  0  0  0  0  0  0  0  0  0  0
    2.8799    0.6883    0.6496 C   0  0  0  0  0  0  0  0  0  0  0  0
    3.0902    1.3469   -0.5578 C   0  0  0  0  0  0  0  0  0  0  0  0
    4.3222    1.2157   -1.1993 C   0  0  0  0  0  0  0  0  0  0  0  0
    5.3503    0.4437   -0.6309 C   0  0  0  0  0  0  0  0  0  0  0  0
    6.5941    0.3030   -1.2666 C   0  0  0  0  0  0  0  0  0  0  0  0
    7.6081   -0.4636   -0.6896 C   0  0  0  0  0  0  0  0  0  0  0  0
    7.3928   -1.0988    0.5300 C   0  0  0  0  0  0  0  0  0  0  0  0
    6.1622   -0.9704    1.1760 C   0  0  0  0  0  0  0  0  0  0  0  0
    5.1307   -0.2045    0.6090 C   0  0  0  0  0  0  0  0  0  0  0  0
    3.8879   -0.0679    1.2457 C   0  0  0  0  0  0  0  0  0  0  0  0
   -0.6351    1.7153    1.9166 H   0  0  0  0  0  0  0  0  0  0  0  0
   -0.5593    0.0411    2.5193 H   0  0  0  0  0  0  0  0  0  0  0  0
   -2.8124   -2.5336    1.7285 H   0  0  0  0  0  0  0  0  0  0  0  0
   -2.7341    2.9180   -0.6983 H   0  0  0  0  0  0  0  0  0  0  0  0
   -5.3071    1.8117   -1.2423 H   0  0  0  0  0  0  0  0  0  0  0  0
   -5.7152   -0.0375   -2.9230 H   0  0  0  0  0  0  0  0  0  0  0  0
   -3.9402    0.0129   -2.8168 H   0  0  0  0  0  0  0  0  0  0  0  0
   -5.7465   -2.1434   -1.9819 H   0  0  0  0  0  0  0  0  0  0  0  0
   -3.9719   -2.1419   -1.8544 H   0  0  0  0  0  0  0  0  0  0  0  0
   -5.3642   -2.1346    0.5210 H   0  0  0  0  0  0  0  0  0  0  0  0
   -6.9208   -0.2643   -0.6424 H   0  0  0  0  0  0  0  0  0  0  0  0
   -6.1398    0.3853    0.8363 H   0  0  0  0  0  0  0  0  0  0  0  0
    2.3059    1.9486   -1.0072 H   0  0  0  0  0  0  0  0  0  0  0  0
    4.4749    1.7210   -2.1502 H   0  0  0  0  0  0  0  0  0  0  0  0
    6.7817    0.7908   -2.2206 H   0  0  0  0  0  0  0  0  0  0  0  0
    8.5654   -0.5646   -1.1942 H   0  0  0  0  0  0  0  0  0  0  0  0
    8.1816   -1.6967    0.9790 H   0  0  0  0  0  0  0  0  0  0  0  0
    6.0127   -1.4764    2.1270 H   0  0  0  0  0  0  0  0  0  0  0  0
    3.7006   -0.5505    2.2006 H   0  0  0  0  0  0  0  0  0  0  0  0
  1  2  2  0
  2  3  1  0
  3  4  1  0
  4  5  1  0
  5  6  1  0
  5  7  2  0
  7  8  1  0
  8  9  2  0
  9 10  1  0
  8 11  1  0
 11 12  1  0
 12 13  1  0
 13 14  1  0
 14 15  1  0
  2 16  1  0
 16 17  1  0
 17 18  2  0
 18 19  1  0
 19 20  2  0
 20 21  1  0
 21 22  2  0
 22 23  1  0
 23 24  2  0
 24 25  1  0
 25 26  2  0
  9  4  1  0
 15 11  1  0
 26 17  1  0
 14  7  1  0
 25 20  1  0
  3 27  1  0
  3 28  1  0
  6 29  1  0
 10 30  1  0
 11 31  1  0
 12 32  1  0
 12 33  1  0
 13 34  1  0
 13 35  1  0
 14 36  1  0
 15 37  1  0
 15 38  1  0
 18 39  1  0
 19 40  1  0
 21 41  1  0
 22 42  1  0
 23 43  1  0
 24 44  1  0
 26 45  1  0
M  END
$$$$
