
     RDKit          3D

 57 61  0  0  0  0  0  0  0  0999 V2000
   -3.5160    3.9901    0.2549 C   0  0  0  0  0  0  0  0  0  0  0  0
   -4.8215    3.3297    0.4289 N   0  0  0  0  0  0  0  0  0  0  0  0
   -5.1139    2.9747    1.8283 C   0  0  0  0  0  0  0  0  0  0  0  0
   -5.2922    2.2113   -0.7675 S   0  0  0  0  0  6  0  0  0  0  0  0
   -4.9961    2.7850   -2.0633 O   0  0  0  0  0  0  0  0  0  0  0  0
   -6.6173    1.7304   -0.4418 O   0  0  0  0  0  0  0  0  0  0  0  0
   -4.1654    0.8571   -0.5081 C   0  0  0  0  0  0  0  0  0  0  0  0
   -4.4955   -0.1611    0.3788 C   0  0  0  0  0  0  0  0  0  0  0  0
   -3.5960   -1.2142    0.5959 C   0  0  0  0  0  0  0  0  0  0  0  0
   -2.3588   -1.3071   -0.0766 C   0  0  0  0  0  0  0  0  0  0  0  0
   -1.5015   -2.3823    0.1513 N   0  0  0  0  0  0  0  0  0  0  0  0
   -1.7808   -3.4011    1.1738 C   0  0  0  0  0  0  0  0  0  0  0  0
   -0.7368   -4.4764    0.9019 C   0  0  0  0  0  0  0  0  0  0  0  0
   -0.6937   -4.4975   -0.6141 C   0  0  0  0  0  0  0  0  0  0  0  0
   -0.8159   -3.0212   -0.9951 C   0  0  0  0  0  0  0  0  0  0  0  0
   -2.0538   -0.2339   -0.9544 C   0  0  0  0  0  0  0  0  0  0  0  0
   -0.7185   -0.0506   -1.5808 C   0  0  0  0  0  0  0  0  0  0  0  0
   -0.6668    0.1254   -2.7908 O   0  0  0  0  0  0  0  0  0  0  0  0
    0.3093   -0.0210   -0.6690 N   0  0  0  0  0  0  0  0  0  0  0  0
    1.6378    0.1965   -0.9211 C   0  0  0  0  0  0  0  0  0  0  0  0
    2.5060    0.2649    0.0587 N   0  0  0  0  0  0  0  0  0  0  0  0
    3.7835    0.4877   -0.4513 C   0  0  0  0  0  0  0  0  0  0  0  0
    3.8460    0.5672   -1.8446 C   0  0  0  0  0  0  0  0  0  0  0  0
    5.0530    0.7759   -2.5293 C   0  0  0  0  0  0  0  0  0  0  0  0
    6.2276    0.9133   -1.7820 C   0  0  0  0  0  0  0  0  0  0  0  0
    6.2147    0.8493   -0.3834 C   0  0  0  0  0  0  0  0  0  0  0  0
    7.3891    0.9932    0.3737 C   0  0  0  0  0  0  0  0  0  0  0  0
    7.3535    0.9222    1.7699 C   0  0  0  0  0  0  0  0  0  0  0  0
    6.1459    0.7084    2.4317 C   0  0  0  0  0  0  0  0  0  0  0  0
    4.9663    0.5668    1.7014 C   0  0  0  0  0  0  0  0  0  0  0  0
    4.9906    0.6330    0.2940 C   0  0  0  0  0  0  0  0  0  0  0  0
    2.2609    0.3799   -2.4887 S   0  0  0  0  0  0  0  0  0  0  0  0
   -2.9573    0.8174   -1.1964 C   0  0  0  0  0  0  0  0  0  0  0  0
   -2.6947    3.3075    0.4934 H   0  0  0  0  0  0  0  0  0  0  0  0
   -3.4468    4.8569    0.9218 H   0  0  0  0  0  0  0  0  0  0  0  0
   -3.3955    4.3680   -0.7654 H   0  0  0  0  0  0  0  0  0  0  0  0
   -6.1291    2.5805    1.9338 H   0  0  0  0  0  0  0  0  0  0  0  0
   -5.0552    3.8709    2.4561 H   0  0  0  0  0  0  0  0  0  0  0  0
   -4.3965    2.2406    2.2053 H   0  0  0  0  0  0  0  0  0  0  0  0
   -5.4458   -0.1497    0.9107 H   0  0  0  0  0  0  0  0  0  0  0  0
   -3.9016   -1.9712    1.3108 H   0  0  0  0  0  0  0  0  0  0  0  0
   -2.7782   -3.8356    1.0424 H   0  0  0  0  0  0  0  0  0  0  0  0
   -1.6886   -2.9983    2.1876 H   0  0  0  0  0  0  0  0  0  0  0  0
    0.2373   -4.1743    1.3071 H   0  0  0  0  0  0  0  0  0  0  0  0
   -1.0056   -5.4457    1.3313 H   0  0  0  0  0  0  0  0  0  0  0  0
    0.2227   -4.9518   -1.0024 H   0  0  0  0  0  0  0  0  0  0  0  0
   -1.5453   -5.0620   -1.0137 H   0  0  0  0  0  0  0  0  0  0  0  0
   -1.3671   -2.9165   -1.9378 H   0  0  0  0  0  0  0  0  0  0  0  0
    0.1885   -2.6033   -1.1130 H   0  0  0  0  0  0  0  0  0  0  0  0
    0.1011   -0.1995    0.3058 H   0  0  0  0  0  0  0  0  0  0  0  0
    5.0762    0.8306   -3.6152 H   0  0  0  0  0  0  0  0  0  0  0  0
    7.1641    1.0769   -2.3127 H   0  0  0  0  0  0  0  0  0  0  0  0
    8.3451    1.1600   -0.1181 H   0  0  0  0  0  0  0  0  0  0  0  0
    8.2725    1.0364    2.3394 H   0  0  0  0  0  0  0  0  0  0  0  0
    6.1213    0.6528    3.5163 H   0  0  0  0  0  0  0  0  0  0  0  0
    4.0261    0.4030    2.2245 H   0  0  0  0  0  0  0  0  0  0  0  0
   -2.6919    1.6106   -1.8930 H   0  0  0  0  0  0  0  0  0  0  0  0
  1  2  1  0
  2  3  1  0
  2  4  1  0
  4  5  2  0
  4  6  2  0
  4  7  1  0
  7  8  2  0
  8  9  1  0
  9 10  2  0
 10 11  1  0
 11 12  1  0
 12 13  1  0
 13 14  1  0
 14 15  1  0
 10 16  1  0
 16 17  1  0
 17 18  2  0
 17 19  1  0
 19 20  1  0
 20 21  2  0
 21 22  1  0
 22 23  2  0
 23 24  1  0
 24 25  2  0
 25 26  1  0
 26 27  2  0
 27 28  1  0
 28 29  2  0
 29 30  1  0
 30 31  2  0
 23 32  1  0
 16 33  2  0
 33  7  1  0
 15 11  1  0
 32 20  1  0
 31 22  1  0
 31 26  1  0
  1 34  1  0
  1 35  1  0
  1 36  1  0
  3 37  1  0
  3 38  1  0
  3 39  1  0
  8 40  1  0
  9 41  1  0
 12 42  1  0
 12 43  1  0
 13 44  1  0
 13 45  1  0
 14 46  1  0
 14 47  1  0
 15 48  1  0
 15 49  1  0
 19 50  1  0
 24 51  1  0
 25 52  1  0
 27 53  1  0
 28 54  1  0
 29 55  1  0
 30 56  1  0
 33 57  1  0
M  END
$$$$
