
     RDKit          3D

 45 47  0  0  0  0  0  0  0  0999 V2000
    1.5872   -0.1019   -2.6527 O   0  0  0  0  0  0  0  0  0  0  0  0
    1.2385    0.3207   -1.5622 C   0  0  0  0  0  0  0  0  0  0  0  0
    1.7601   -0.0475   -0.3440 N   0  0  0  0  0  0  0  0  0  0  0  0
    2.9956   -0.7883   -0.2944 C   0  0  0  0  0  0  0  0  0  0  0  0
    3.2040   -1.2565    1.0958 C   0  0  0  0  0  0  0  0  0  0  0  0
    3.2453   -2.5049    1.6812 C   0  0  0  0  0  0  0  0  0  0  0  0
    3.4879   -2.2917    3.0597 C   0  0  0  0  0  0  0  0  0  0  0  0
    3.5740   -0.9300    3.2287 C   0  0  0  0  0  0  0  0  0  0  0  0
    3.3960   -0.2914    2.0440 O   0  0  0  0  0  0  0  0  0  0  0  0
    0.0891    1.3222   -1.4598 C   0  0  0  0  0  0  0  0  0  0  0  0
   -1.2881    0.8231   -1.7517 C   0  0  0  0  0  0  0  0  0  0  0  0
   -1.5907   -0.4415   -2.0826 C   0  0  0  0  0  0  0  0  0  0  0  0
   -2.9850   -0.9142   -2.3855 C   0  0  0  0  0  0  0  0  0  0  0  0
   -3.4492   -1.9724   -1.4143 C   0  0  0  0  0  0  0  0  0  0  0  0
   -4.1364   -1.6147   -0.2461 C   0  0  0  0  0  0  0  0  0  0  0  0
   -4.5519   -2.5938    0.6580 C   0  0  0  0  0  0  0  0  0  0  0  0
   -4.2790   -3.9371    0.4074 C   0  0  0  0  0  0  0  0  0  0  0  0
   -3.5878   -4.3035   -0.7457 C   0  0  0  0  0  0  0  0  0  0  0  0
   -3.1721   -3.3265   -1.6513 C   0  0  0  0  0  0  0  0  0  0  0  0
    0.2275    2.5659   -1.0966 N   0  0  0  0  0  0  0  0  0  0  0  0
    1.4862    3.0699   -0.8662 C   0  0  0  0  0  0  0  0  0  0  0  0
    2.5072    2.7092   -1.4355 O   0  0  0  0  0  0  0  0  0  0  0  0
    1.4375    4.1061    0.1480 C   0  0  0  0  0  0  0  0  0  0  0  0
    0.3926    4.6870    0.8488 C   0  0  0  0  0  0  0  0  0  0  0  0
    0.9628    5.6471    1.7202 C   0  0  0  0  0  0  0  0  0  0  0  0
    2.3205    5.5969    1.5077 C   0  0  0  0  0  0  0  0  0  0  0  0
    3.6129    6.6663    2.4035 Br  0  0  0  0  0  0  0  0  0  0  0  0
    2.6175    4.6708    0.5601 O   0  0  0  0  0  0  0  0  0  0  0  0
    1.5282    0.5035    0.4722 H   0  0  0  0  0  0  0  0  0  0  0  0
    2.9452   -1.6283   -0.9957 H   0  0  0  0  0  0  0  0  0  0  0  0
    3.8088   -0.1252   -0.6087 H   0  0  0  0  0  0  0  0  0  0  0  0
    3.1195   -3.4507    1.1723 H   0  0  0  0  0  0  0  0  0  0  0  0
    3.5887   -3.0375    3.8358 H   0  0  0  0  0  0  0  0  0  0  0  0
    3.7516   -0.2906    4.0826 H   0  0  0  0  0  0  0  0  0  0  0  0
   -2.0653    1.5779   -1.6783 H   0  0  0  0  0  0  0  0  0  0  0  0
   -0.8150   -1.1996   -2.1692 H   0  0  0  0  0  0  0  0  0  0  0  0
   -3.0098   -1.3180   -3.4054 H   0  0  0  0  0  0  0  0  0  0  0  0
   -3.6968   -0.0790   -2.3819 H   0  0  0  0  0  0  0  0  0  0  0  0
   -4.3545   -0.5708   -0.0346 H   0  0  0  0  0  0  0  0  0  0  0  0
   -5.0893   -2.3087    1.5583 H   0  0  0  0  0  0  0  0  0  0  0  0
   -4.6039   -4.6989    1.1108 H   0  0  0  0  0  0  0  0  0  0  0  0
   -3.3719   -5.3509   -0.9403 H   0  0  0  0  0  0  0  0  0  0  0  0
   -2.6298   -3.6277   -2.5449 H   0  0  0  0  0  0  0  0  0  0  0  0
   -0.6548    4.4420    0.7365 H   0  0  0  0  0  0  0  0  0  0  0  0
    0.4468    6.2933    2.4161 H   0  0  0  0  0  0  0  0  0  0  0  0
  1  2  2  0
  2  3  1  0
  3  4  1  0
  4  5  1  0
  5  6  2  0
  6  7  1  0
  7  8  2  0
  8  9  1  0
  2 10  1  0
 10 11  1  0
 11 12  2  3
 12 13  1  0
 13 14  1  0
 14 15  2  0
 15 16  1  0
 16 17  2  0
 17 18  1  0
 18 19  2  0
 10 20  2  3
 20 21  1  0
 21 22  2  0
 21 23  1  0
 23 24  2  0
 24 25  1  0
 25 26  2  0
 26 27  1  0
 26 28  1  0
  9  5  1  0
 19 14  1  0
 28 23  1  0
  3 29  1  0
  4 30  1  0
  4 31  1  0
  6 32  1  0
  7 33  1  0
  8 34  1  0
 11 35  1  0
 12 36  1  0
 13 37  1  0
 13 38  1  0
 15 39  1  0
 16 40  1  0
 17 41  1  0
 18 42  1  0
 19 43  1  0
 24 44  1  0
 25 45  1  0
M  END
$$$$
