
     RDKit          3D

 46 47  0  0  0  0  0  0  0  0999 V2000
    2.3720   -3.3849    2.6660 C   0  0  0  0  0  0  0  0  0  0  0  0
    1.9631   -2.2227    3.5523 C   0  0  0  0  0  0  0  0  0  0  0  0
    2.3279   -0.9809    2.9361 O   0  0  0  0  0  0  0  0  0  0  0  0
    1.4219   -0.4638    2.0540 C   0  0  0  0  0  0  0  0  0  0  0  0
    0.3368   -0.9756    1.8123 O   0  0  0  0  0  0  0  0  0  0  0  0
    1.8861    0.7819    1.4447 C   0  0  0  0  0  0  0  0  0  0  0  0
    2.7444    1.7157    2.0232 C   0  0  0  0  0  0  0  0  0  0  0  0
    3.4131    1.7403    3.3527 C   0  0  0  0  0  0  0  0  0  0  0  0
    2.9210    2.7434    1.1302 N   0  0  0  0  0  0  0  0  0  0  0  0
    2.2018    2.5122   -0.0147 C   0  0  0  0  0  0  0  0  0  0  0  0
    2.2302    3.4774   -1.1452 C   0  0  0  0  0  0  0  0  0  0  0  0
    1.5560    1.2933    0.1459 C   0  0  0  0  0  0  0  0  0  0  0  0
    0.5532    0.4650   -1.0110 S   0  0  0  0  0  6  0  0  0  0  0  0
    0.5543    1.3130   -2.1829 O   0  0  0  0  0  0  0  0  0  0  0  0
    1.0840   -0.8784   -1.0435 O   0  0  0  0  0  0  0  0  0  0  0  0
   -1.0179    0.4982   -0.4229 N   0  0  0  0  0  0  0  0  0  0  0  0
   -1.7684   -0.7650   -0.4596 C   0  0  0  0  0  0  0  0  0  0  0  0
   -2.5674   -0.9140   -1.7352 C   0  0  0  0  0  0  0  0  0  0  0  0
   -1.9642   -1.5577   -2.8311 C   0  0  0  0  0  0  0  0  0  0  0  0
   -2.6418   -1.7007   -4.0410 C   0  0  0  0  0  0  0  0  0  0  0  0
   -3.9317   -1.1996   -4.1754 C   0  0  0  0  0  0  0  0  0  0  0  0
   -4.5424   -0.5505   -3.1024 C   0  0  0  0  0  0  0  0  0  0  0  0
   -3.8706   -0.3899   -1.8789 C   0  0  0  0  0  0  0  0  0  0  0  0
   -4.5761    0.3112   -0.7492 C   0  0  0  0  0  0  0  0  0  0  0  0
    1.8424   -3.3548    1.7080 H   0  0  0  0  0  0  0  0  0  0  0  0
    2.1564   -4.3394    3.1543 H   0  0  0  0  0  0  0  0  0  0  0  0
    3.4433   -3.3369    2.4393 H   0  0  0  0  0  0  0  0  0  0  0  0
    0.8931   -2.2546    3.7903 H   0  0  0  0  0  0  0  0  0  0  0  0
    2.5038   -2.2778    4.5032 H   0  0  0  0  0  0  0  0  0  0  0  0
    4.2400    1.0230    3.3759 H   0  0  0  0  0  0  0  0  0  0  0  0
    3.8189    2.7321    3.5787 H   0  0  0  0  0  0  0  0  0  0  0  0
    2.7041    1.4837    4.1470 H   0  0  0  0  0  0  0  0  0  0  0  0
    3.5022    3.5570    1.2926 H   0  0  0  0  0  0  0  0  0  0  0  0
    1.2181    3.8156   -1.3879 H   0  0  0  0  0  0  0  0  0  0  0  0
    2.6732    3.0160   -2.0332 H   0  0  0  0  0  0  0  0  0  0  0  0
    2.8248    4.3642   -0.9006 H   0  0  0  0  0  0  0  0  0  0  0  0
   -1.5241    1.2665   -0.8619 H   0  0  0  0  0  0  0  0  0  0  0  0
   -2.4430   -0.7745    0.4041 H   0  0  0  0  0  0  0  0  0  0  0  0
   -1.1275   -1.6392   -0.3042 H   0  0  0  0  0  0  0  0  0  0  0  0
   -0.9518   -1.9521   -2.7458 H   0  0  0  0  0  0  0  0  0  0  0  0
   -2.1594   -2.2005   -4.8772 H   0  0  0  0  0  0  0  0  0  0  0  0
   -4.4630   -1.3122   -5.1166 H   0  0  0  0  0  0  0  0  0  0  0  0
   -5.5525   -0.1660   -3.2297 H   0  0  0  0  0  0  0  0  0  0  0  0
   -4.8136   -0.4020    0.0471 H   0  0  0  0  0  0  0  0  0  0  0  0
   -5.5153    0.7657   -1.0830 H   0  0  0  0  0  0  0  0  0  0  0  0
   -3.9555    1.1180   -0.3465 H   0  0  0  0  0  0  0  0  0  0  0  0
  1  2  1  0
  2  3  1  0
  3  4  1  0
  4  5  2  0
  4  6  1  0
  6  7  2  0
  7  8  1  0
  7  9  1  0
  9 10  1  0
 10 11  1  0
 10 12  2  0
 12 13  1  0
 13 14  2  0
 13 15  2  0
 13 16  1  0
 16 17  1  0
 17 18  1  0
 18 19  2  0
 19 20  1  0
 20 21  2  0
 21 22  1  0
 22 23  2  0
 23 24  1  0
 12  6  1  0
 23 18  1  0
  1 25  1  0
  1 26  1  0
  1 27  1  0
  2 28  1  0
  2 29  1  0
  8 30  1  0
  8 31  1  0
  8 32  1  0
  9 33  1  0
 11 34  1  0
 11 35  1  0
 11 36  1  0
 16 37  1  0
 17 38  1  0
 17 39  1  0
 19 40  1  0
 20 41  1  0
 21 42  1  0
 22 43  1  0
 24 44  1  0
 24 45  1  0
 24 46  1  0
M  END
$$$$
