
     RDKit          3D

 44 46  0  0  0  0  0  0  0  0999 V2000
    4.0016    1.8725   -2.5230 C   0  0  0  0  0  0  0  0  0  0  0  0
    3.1025    1.4836   -1.4397 N   0  0  0  0  0  0  0  0  0  0  0  0
    2.9083    0.0191   -1.4241 C   0  0  0  0  0  0  0  0  0  0  0  0
    1.6280   -0.4185   -0.6886 C   0  0  0  0  0  0  0  0  0  0  0  0
    0.4298    0.1620   -1.3056 N   0  0  0  0  0  0  0  0  0  0  0  0
   -0.8257   -0.4257   -1.3240 C   0  0  0  0  0  0  0  0  0  0  0  0
   -1.7610   -0.0182   -2.0078 O   0  0  0  0  0  0  0  0  0  0  0  0
   -1.0560   -1.6225   -0.4907 C   0  0  0  0  0  0  0  0  0  0  0  0
   -1.1052   -2.8553   -1.1587 C   0  0  0  0  0  0  0  0  0  0  0  0
   -1.3265   -4.0269   -0.4395 C   0  0  0  0  0  0  0  0  0  0  0  0
   -1.5110   -3.9663    0.9394 C   0  0  0  0  0  0  0  0  0  0  0  0
   -1.4825   -2.7338    1.6004 C   0  0  0  0  0  0  0  0  0  0  0  0
   -1.2631   -1.5309    0.9009 C   0  0  0  0  0  0  0  0  0  0  0  0
   -1.2513   -0.2542    1.6454 C   0  0  0  0  0  0  0  0  0  0  0  0
   -0.1916   -0.0331    2.5536 C   0  0  0  0  0  0  0  0  0  0  0  0
   -0.0675    1.1627    3.2644 C   0  0  0  0  0  0  0  0  0  0  0  0
   -1.0045    2.1721    3.0891 C   0  0  0  0  0  0  0  0  0  0  0  0
   -2.0714    1.9772    2.2142 C   0  0  0  0  0  0  0  0  0  0  0  0
   -2.2143    0.7701    1.5025 C   0  0  0  0  0  0  0  0  0  0  0  0
   -3.4194    0.6907    0.6369 C   0  0  0  0  0  0  0  0  0  0  0  0
   -4.0129    1.6478    0.1709 O   0  0  0  0  0  0  0  0  0  0  0  0
   -3.8820   -0.5583    0.4730 O   0  0  0  0  0  0  0  0  0  0  0  0
    0.6249    1.4132   -2.0373 C   0  0  0  0  0  0  0  0  0  0  0  0
    1.8204    2.2196   -1.4990 C   0  0  0  0  0  0  0  0  0  0  0  0
    4.9552    1.3389   -2.4427 H   0  0  0  0  0  0  0  0  0  0  0  0
    3.5715    1.6674   -3.5099 H   0  0  0  0  0  0  0  0  0  0  0  0
    4.2349    2.9413   -2.4634 H   0  0  0  0  0  0  0  0  0  0  0  0
    3.7764   -0.4473   -0.9445 H   0  0  0  0  0  0  0  0  0  0  0  0
    2.8544   -0.3700   -2.4503 H   0  0  0  0  0  0  0  0  0  0  0  0
    1.5593   -1.5103   -0.6866 H   0  0  0  0  0  0  0  0  0  0  0  0
    1.6632   -0.0790    0.3513 H   0  0  0  0  0  0  0  0  0  0  0  0
   -0.9770   -2.8948   -2.2379 H   0  0  0  0  0  0  0  0  0  0  0  0
   -1.3666   -4.9835   -0.9543 H   0  0  0  0  0  0  0  0  0  0  0  0
   -1.6947   -4.8778    1.5034 H   0  0  0  0  0  0  0  0  0  0  0  0
   -1.6559   -2.7129    2.6754 H   0  0  0  0  0  0  0  0  0  0  0  0
    0.5679   -0.8008    2.6981 H   0  0  0  0  0  0  0  0  0  0  0  0
    0.7668    1.3058    3.9468 H   0  0  0  0  0  0  0  0  0  0  0  0
   -0.9103    3.1086    3.6330 H   0  0  0  0  0  0  0  0  0  0  0  0
   -2.8055    2.7724    2.0900 H   0  0  0  0  0  0  0  0  0  0  0  0
   -4.6083   -0.4496   -0.1754 H   0  0  0  0  0  0  0  0  0  0  0  0
    0.7833    1.1542   -3.0911 H   0  0  0  0  0  0  0  0  0  0  0  0
   -0.2884    2.0160   -1.9788 H   0  0  0  0  0  0  0  0  0  0  0  0
    1.9188    3.1544   -2.0645 H   0  0  0  0  0  0  0  0  0  0  0  0
    1.5854    2.5204   -0.4694 H   0  0  0  0  0  0  0  0  0  0  0  0
  1  2  1  0
  2  3  1  0
  3  4  1  0
  4  5  1  0
  5  6  1  0
  6  7  2  0
  6  8  1  0
  8  9  2  0
  9 10  1  0
 10 11  2  0
 11 12  1  0
 12 13  2  0
 13 14  1  0
 14 15  2  0
 15 16  1  0
 16 17  2  0
 17 18  1  0
 18 19  2  0
 19 20  1  0
 20 21  2  0
 20 22  1  0
  5 23  1  0
 23 24  1  0
 24  2  1  0
 13  8  1  0
 19 14  1  0
  1 25  1  0
  1 26  1  0
  1 27  1  0
  3 28  1  0
  3 29  1  0
  4 30  1  0
  4 31  1  0
  9 32  1  0
 10 33  1  0
 11 34  1  0
 12 35  1  0
 15 36  1  0
 16 37  1  0
 17 38  1  0
 18 39  1  0
 22 40  1  0
 23 41  1  0
 23 42  1  0
 24 43  1  0
 24 44  1  0
M  END
$$$$
