
     RDKit          3D

 39 41  0  0  0  0  0  0  0  0999 V2000
   -1.8896   -0.8002   -2.5542 C   0  0  0  0  0  0  0  0  0  0  0  0
   -2.6669   -0.3891   -1.3303 C   0  0  0  0  0  0  0  0  0  0  0  0
   -4.0688   -0.4583   -1.3908 C   0  0  0  0  0  0  0  0  0  0  0  0
   -4.8456   -0.0713   -0.3065 C   0  0  0  0  0  0  0  0  0  0  0  0
   -4.2291    0.3582    0.8632 C   0  0  0  0  0  0  0  0  0  0  0  0
   -2.8263    0.4138    0.9711 C   0  0  0  0  0  0  0  0  0  0  0  0
   -2.2736    0.7801    2.3229 C   0  0  0  0  0  0  0  0  0  0  0  0
   -2.0364    0.0895   -0.1535 C   0  0  0  0  0  0  0  0  0  0  0  0
   -0.6193    0.1530   -0.1520 N   0  0  0  0  0  0  0  0  0  0  0  0
    0.1454    1.1639    0.3946 C   0  0  0  0  0  0  0  0  0  0  0  0
   -0.2948    2.2040    0.8794 O   0  0  0  0  0  0  0  0  0  0  0  0
    1.6576    0.9381    0.3473 C   0  0  0  0  0  0  0  0  0  0  0  0
    2.2694    0.7381   -1.0509 C   0  0  0  0  0  0  0  0  0  0  0  0
    3.1502   -0.5133   -0.8626 C   0  0  0  0  0  0  0  0  0  0  0  0
    4.3110   -0.1828    0.0961 C   0  0  0  0  0  0  0  0  0  0  0  0
    3.6199   -0.1094    1.4695 C   0  0  0  0  0  0  0  0  0  0  0  0
    2.1354   -0.3218    1.1120 C   0  0  0  0  0  0  0  0  0  0  0  0
    2.2662   -1.3884    0.0199 C   0  0  0  0  0  0  0  0  0  0  0  0
   -2.5521   -1.0794   -3.3806 H   0  0  0  0  0  0  0  0  0  0  0  0
   -1.2645    0.0274   -2.9050 H   0  0  0  0  0  0  0  0  0  0  0  0
   -1.2616   -1.6686   -2.3305 H   0  0  0  0  0  0  0  0  0  0  0  0
   -4.5665   -0.8052   -2.2938 H   0  0  0  0  0  0  0  0  0  0  0  0
   -5.9297   -0.1166   -0.3659 H   0  0  0  0  0  0  0  0  0  0  0  0
   -4.8512    0.6329    1.7132 H   0  0  0  0  0  0  0  0  0  0  0  0
   -1.2986    0.3189    2.5040 H   0  0  0  0  0  0  0  0  0  0  0  0
   -2.9296    0.4062    3.1180 H   0  0  0  0  0  0  0  0  0  0  0  0
   -2.2049    1.8662    2.4291 H   0  0  0  0  0  0  0  0  0  0  0  0
   -0.1659   -0.3596   -0.8915 H   0  0  0  0  0  0  0  0  0  0  0  0
    2.0985    1.8351    0.8044 H   0  0  0  0  0  0  0  0  0  0  0  0
    1.5116    0.5705   -1.8229 H   0  0  0  0  0  0  0  0  0  0  0  0
    2.8636    1.6066   -1.3552 H   0  0  0  0  0  0  0  0  0  0  0  0
    3.4739   -0.9641   -1.8027 H   0  0  0  0  0  0  0  0  0  0  0  0
    5.0595   -0.9831    0.0954 H   0  0  0  0  0  0  0  0  0  0  0  0
    4.8122    0.7553   -0.1628 H   0  0  0  0  0  0  0  0  0  0  0  0
    3.9826   -0.9155    2.1179 H   0  0  0  0  0  0  0  0  0  0  0  0
    3.8071    0.8426    1.9759 H   0  0  0  0  0  0  0  0  0  0  0  0
    1.5139   -0.6034    1.9647 H   0  0  0  0  0  0  0  0  0  0  0  0
    1.3253   -1.6736   -0.4536 H   0  0  0  0  0  0  0  0  0  0  0  0
    2.7719   -2.2967    0.3668 H   0  0  0  0  0  0  0  0  0  0  0  0
  1  2  1  0
  2  3  2  0
  3  4  1  0
  4  5  2  0
  5  6  1  0
  6  7  1  0
  6  8  2  0
  8  9  1  0
  9 10  1  0
 10 11  2  0
 10 12  1  0
 12 13  1  0
 13 14  1  0
 14 15  1  0
 15 16  1  0
 16 17  1  0
 17 18  1  0
  8  2  1  0
 17 12  1  0
 18 14  1  0
  1 19  1  0
  1 20  1  0
  1 21  1  0
  3 22  1  0
  4 23  1  0
  5 24  1  0
  7 25  1  0
  7 26  1  0
  7 27  1  0
  9 28  1  0
 12 29  1  0
 13 30  1  0
 13 31  1  0
 14 32  1  0
 15 33  1  0
 15 34  1  0
 16 35  1  0
 16 36  1  0
 17 37  1  0
 18 38  1  0
 18 39  1  0
M  END
$$$$
