
     RDKit          3D

 64 67  0  0  0  0  0  0  0  0999 V2000
    0.3639    0.5681   -3.1247 C   0  0  0  0  0  0  0  0  0  0  0  0
   -0.8112    0.1677   -2.4147 O   0  0  0  0  0  0  0  0  0  0  0  0
   -1.2592    1.1780   -1.5966 C   0  0  0  0  0  0  0  0  0  0  0  0
   -1.8571    2.2986   -2.1915 C   0  0  0  0  0  0  0  0  0  0  0  0
   -2.3387    3.3443   -1.4051 C   0  0  0  0  0  0  0  0  0  0  0  0
   -2.9281    4.4791   -1.9045 O   0  0  0  0  0  0  0  0  0  0  0  0
   -3.2143    4.5099   -3.2981 C   0  0  0  0  0  0  0  0  0  0  0  0
   -2.2100    3.2608   -0.0082 C   0  0  0  0  0  0  0  0  0  0  0  0
   -2.6715    4.3306    0.8777 C   0  0  0  0  0  0  0  0  0  0  0  0
   -2.5278    4.2330    2.2015 C   0  0  0  0  0  0  0  0  0  0  0  0
   -1.9054    3.0637    2.8299 C   0  0  0  0  0  0  0  0  0  0  0  0
   -1.7677    2.9957    4.0452 O   0  0  0  0  0  0  0  0  0  0  0  0
   -1.4864    2.0567    1.9739 O   0  0  0  0  0  0  0  0  0  0  0  0
   -1.6303    2.1159    0.5667 C   0  0  0  0  0  0  0  0  0  0  0  0
   -1.1673    1.0313   -0.1990 C   0  0  0  0  0  0  0  0  0  0  0  0
   -0.5537   -0.2512    0.3837 C   0  0  0  0  0  0  0  0  0  0  0  0
   -1.1362   -0.7268    1.7398 C   0  0  0  0  0  0  0  0  0  0  0  0
   -0.8227   -2.1945    2.0850 C   0  0  0  0  0  0  0  0  0  0  0  0
   -1.3199   -3.1610    1.1025 N   0  0  0  0  0  0  0  0  0  0  0  0
   -0.8847   -4.5250    1.4105 C   0  0  0  0  0  0  0  0  0  0  0  0
   -1.8060   -5.3952    0.5688 C   0  0  0  0  0  0  0  0  0  0  0  0
   -3.0071   -4.5153    0.2441 C   0  0  0  0  0  0  0  0  0  0  0  0
   -2.7794   -3.2364    1.0343 C   0  0  0  0  0  0  0  0  0  0  0  0
    0.9717   -0.1955    0.4183 C   0  0  0  0  0  0  0  0  0  0  0  0
    1.7197   -1.1430   -0.2853 C   0  0  0  0  0  0  0  0  0  0  0  0
    3.1218   -1.1138   -0.2687 C   0  0  0  0  0  0  0  0  0  0  0  0
    3.8459   -0.1402    0.4389 C   0  0  0  0  0  0  0  0  0  0  0  0
    5.2463   -0.1244    0.4611 N   0  0  0  0  0  0  0  0  0  0  0  0
    5.9336    1.0356    1.0249 C   0  0  0  0  0  0  0  0  0  0  0  0
    5.9735   -0.8446   -0.5809 C   0  0  0  0  0  0  0  0  0  0  0  0
    3.0724    0.7846    1.1606 C   0  0  0  0  0  0  0  0  0  0  0  0
    1.6688    0.7642    1.1525 C   0  0  0  0  0  0  0  0  0  0  0  0
    1.0742    1.0996   -2.4815 H   0  0  0  0  0  0  0  0  0  0  0  0
    0.0977    1.1869   -3.9875 H   0  0  0  0  0  0  0  0  0  0  0  0
    0.8553   -0.3362   -3.4976 H   0  0  0  0  0  0  0  0  0  0  0  0
   -1.9361    2.3180   -3.2732 H   0  0  0  0  0  0  0  0  0  0  0  0
   -3.7504    5.4407   -3.5094 H   0  0  0  0  0  0  0  0  0  0  0  0
   -2.2930    4.5166   -3.8876 H   0  0  0  0  0  0  0  0  0  0  0  0
   -3.8652    3.6780   -3.5858 H   0  0  0  0  0  0  0  0  0  0  0  0
   -3.1352    5.2074    0.4379 H   0  0  0  0  0  0  0  0  0  0  0  0
   -2.8639    5.0142    2.8729 H   0  0  0  0  0  0  0  0  0  0  0  0
   -0.8390   -1.0370   -0.3281 H   0  0  0  0  0  0  0  0  0  0  0  0
   -0.7383   -0.1219    2.5637 H   0  0  0  0  0  0  0  0  0  0  0  0
   -2.2249   -0.5847    1.7462 H   0  0  0  0  0  0  0  0  0  0  0  0
    0.2647   -2.3048    2.1791 H   0  0  0  0  0  0  0  0  0  0  0  0
   -1.2374   -2.4118    3.0782 H   0  0  0  0  0  0  0  0  0  0  0  0
   -1.0203   -4.7661    2.4729 H   0  0  0  0  0  0  0  0  0  0  0  0
    0.1661   -4.6852    1.1497 H   0  0  0  0  0  0  0  0  0  0  0  0
   -2.1048   -6.2973    1.1131 H   0  0  0  0  0  0  0  0  0  0  0  0
   -1.3145   -5.7141   -0.3563 H   0  0  0  0  0  0  0  0  0  0  0  0
   -3.9526   -4.9964    0.5117 H   0  0  0  0  0  0  0  0  0  0  0  0
   -3.0289   -4.3056   -0.8321 H   0  0  0  0  0  0  0  0  0  0  0  0
   -3.2278   -3.3271    2.0323 H   0  0  0  0  0  0  0  0  0  0  0  0
   -3.2228   -2.3756    0.5239 H   0  0  0  0  0  0  0  0  0  0  0  0
    1.2166   -1.9256   -0.8494 H   0  0  0  0  0  0  0  0  0  0  0  0
    3.6305   -1.8945   -0.8245 H   0  0  0  0  0  0  0  0  0  0  0  0
    7.0210    0.9054    0.9956 H   0  0  0  0  0  0  0  0  0  0  0  0
    5.6780    1.1727    2.0810 H   0  0  0  0  0  0  0  0  0  0  0  0
    5.6938    1.9463    0.4644 H   0  0  0  0  0  0  0  0  0  0  0  0
    5.7006   -0.4789   -1.5773 H   0  0  0  0  0  0  0  0  0  0  0  0
    5.7896   -1.9219   -0.5210 H   0  0  0  0  0  0  0  0  0  0  0  0
    7.0565   -0.7199   -0.4687 H   0  0  0  0  0  0  0  0  0  0  0  0
    3.5410    1.5581    1.7601 H   0  0  0  0  0  0  0  0  0  0  0  0
    1.1368    1.5096    1.7370 H   0  0  0  0  0  0  0  0  0  0  0  0
  1  2  1  0
  2  3  1  0
  3  4  2  0
  4  5  1  0
  5  6  1  0
  6  7  1  0
  5  8  2  0
  8  9  1  0
  9 10  2  0
 10 11  1  0
 11 12  2  0
 11 13  1  0
 13 14  1  0
 14 15  2  0
 15 16  1  0
 16 17  1  0
 17 18  1  0
 18 19  1  0
 19 20  1  0
 20 21  1  0
 21 22  1  0
 22 23  1  0
 16 24  1  0
 24 25  2  0
 25 26  1  0
 26 27  2  0
 27 28  1  0
 28 29  1  0
 28 30  1  0
 27 31  1  0
 31 32  2  0
 15  3  1  0
 23 19  1  0
 32 24  1  0
 14  8  1  0
  1 33  1  0
  1 34  1  0
  1 35  1  0
  4 36  1  0
  7 37  1  0
  7 38  1  0
  7 39  1  0
  9 40  1  0
 10 41  1  0
 16 42  1  0
 17 43  1  0
 17 44  1  0
 18 45  1  0
 18 46  1  0
 20 47  1  0
 20 48  1  0
 21 49  1  0
 21 50  1  0
 22 51  1  0
 22 52  1  0
 23 53  1  0
 23 54  1  0
 25 55  1  0
 26 56  1  0
 29 57  1  0
 29 58  1  0
 29 59  1  0
 30 60  1  0
 30 61  1  0
 30 62  1  0
 31 63  1  0
 32 64  1  0
M  END
$$$$
