
     RDKit          3D

 33 36  0  0  0  0  0  0  0  0999 V2000
   -1.2144    0.1709    2.4096 O   0  0  0  0  0  0  0  0  0  0  0  0
   -0.6835    0.0433    1.3074 C   0  0  0  0  0  0  0  0  0  0  0  0
    0.8008    0.0684    1.2784 C   0  0  0  0  0  0  0  0  0  0  0  0
    1.4973    0.1696    2.4915 C   0  0  0  0  0  0  0  0  0  0  0  0
    2.8829    0.2509    2.4986 C   0  0  0  0  0  0  0  0  0  0  0  0
    3.5807    0.2362    1.2932 C   0  0  0  0  0  0  0  0  0  0  0  0
    2.9099    0.1277    0.0489 C   0  0  0  0  0  0  0  0  0  0  0  0
    3.5524    0.1097   -1.2176 C   0  0  0  0  0  0  0  0  0  0  0  0
    5.0004    0.1862   -1.3187 N   0  0  0  0  0  4  0  0  0  0  0  0
    5.4683    1.1536   -1.9326 O   0  0  0  0  0  0  0  0  0  0  0  0
    5.6545   -0.7284   -0.8016 O   0  0  0  0  0  1  0  0  0  0  0  0
    2.8456    0.0193   -2.4206 C   0  0  0  0  0  0  0  0  0  0  0  0
    1.4607   -0.0785   -2.3772 C   0  0  0  0  0  0  0  0  0  0  0  0
    0.7863   -0.0731   -1.1440 C   0  0  0  0  0  0  0  0  0  0  0  0
    1.4888    0.0408    0.0613 C   0  0  0  0  0  0  0  0  0  0  0  0
   -0.6883   -0.2325   -1.1399 C   0  0  0  0  0  0  0  0  0  0  0  0
   -1.1955   -0.5854   -2.2036 O   0  0  0  0  0  0  0  0  0  0  0  0
   -1.3505   -0.0714    0.0840 N   0  0  0  0  0  0  0  0  0  0  0  0
   -2.7873   -0.0296    0.0486 C   0  0  0  0  0  0  0  0  0  0  0  0
   -3.5712   -0.5067    1.1038 C   0  0  0  0  0  0  0  0  0  0  0  0
   -4.9671   -0.4334    1.0331 C   0  0  0  0  0  0  0  0  0  0  0  0
   -5.5612    0.1139   -0.0914 C   0  0  0  0  0  0  0  0  0  0  0  0
   -7.2668    0.2200   -0.2236 Cl  0  0  0  0  0  0  0  0  0  0  0  0
   -4.7342    0.5653   -1.1005 C   0  0  0  0  0  0  0  0  0  0  0  0
   -3.3801    0.5081   -1.0475 N   0  0  0  0  0  0  0  0  0  0  0  0
    0.9605    0.1967    3.4391 H   0  0  0  0  0  0  0  0  0  0  0  0
    3.4208    0.3328    3.4409 H   0  0  0  0  0  0  0  0  0  0  0  0
    4.6672    0.3089    1.3457 H   0  0  0  0  0  0  0  0  0  0  0  0
    3.3602    0.0144   -3.3798 H   0  0  0  0  0  0  0  0  0  0  0  0
    0.9023   -0.1657   -3.3097 H   0  0  0  0  0  0  0  0  0  0  0  0
   -3.1326   -0.9710    1.9810 H   0  0  0  0  0  0  0  0  0  0  0  0
   -5.5705   -0.8102    1.8540 H   0  0  0  0  0  0  0  0  0  0  0  0
   -5.1364    0.9998   -2.0110 H   0  0  0  0  0  0  0  0  0  0  0  0
  1  2  2  0
  2  3  1  0
  3  4  1  0
  4  5  2  0
  5  6  1  0
  6  7  2  0
  7  8  1  0
  8  9  1  0
  9 10  2  0
  9 11  1  0
  8 12  2  0
 12 13  1  0
 13 14  2  0
 14 15  1  0
 14 16  1  0
 16 17  2  0
 16 18  1  0
 18 19  1  0
 19 20  2  0
 20 21  1  0
 21 22  2  0
 22 23  1  0
 22 24  1  0
 24 25  2  0
 18  2  1  0
 25 19  1  0
 15  3  2  0
 15  7  1  0
  4 26  1  0
  5 27  1  0
  6 28  1  0
 12 29  1  0
 13 30  1  0
 20 31  1  0
 21 32  1  0
 24 33  1  0
M  CHG  2   9   1  11  -1
M  END
$$$$
