
     RDKit          3D

 54 56  0  0  0  0  0  0  0  0999 V2000
   -2.8227   -1.9579   -2.7113 C   0  0  0  0  0  0  0  0  0  0  0  0
   -4.0245   -1.7267   -1.8297 C   0  0  0  0  0  0  0  0  0  0  0  0
   -5.1296   -2.5676   -2.0508 C   0  0  0  0  0  0  0  0  0  0  0  0
   -6.3172   -2.3829   -1.3587 C   0  0  0  0  0  0  0  0  0  0  0  0
   -6.4178   -1.3525   -0.4316 C   0  0  0  0  0  0  0  0  0  0  0  0
   -5.3272   -0.5001   -0.1490 C   0  0  0  0  0  0  0  0  0  0  0  0
   -5.5735    0.5510    0.9345 C   0  0  0  0  0  0  0  0  0  0  0  0
   -5.6973    1.9676    0.3638 C   0  0  0  0  0  0  0  0  0  0  0  0
   -4.5972    0.4819    2.1145 C   0  0  0  0  0  0  0  0  0  0  0  0
   -4.1057   -0.7147   -0.8410 C   0  0  0  0  0  0  0  0  0  0  0  0
   -3.0099    0.1415   -0.5809 N   0  0  0  0  0  0  0  0  0  0  0  0
   -1.7085   -0.2946   -0.3309 C   0  0  0  0  0  0  0  0  0  0  0  0
   -1.3539   -1.4673   -0.2801 O   0  0  0  0  0  0  0  0  0  0  0  0
   -0.7779    0.8845   -0.0588 C   0  0  0  0  0  0  0  0  0  0  0  0
    0.6468    0.4563    0.1294 C   0  0  0  0  0  0  0  0  0  0  0  0
    1.2005   -0.2364    1.1895 C   0  0  0  0  0  0  0  0  0  0  0  0
    2.5986   -0.4493    1.0231 C   0  0  0  0  0  0  0  0  0  0  0  0
    3.0787    0.1080   -0.1458 C   0  0  0  0  0  0  0  0  0  0  0  0
    4.7075    0.1577   -0.8593 S   0  0  0  0  0  6  0  0  0  0  0  0
    4.7530   -0.9728   -1.7602 O   0  0  0  0  0  0  0  0  0  0  0  0
    4.9159    1.5129   -1.3214 O   0  0  0  0  0  0  0  0  0  0  0  0
    5.8058   -0.1358    0.4108 N   0  0  0  0  0  0  0  0  0  0  0  0
    5.9404    0.9473    1.4352 C   0  0  0  0  0  0  0  0  0  0  0  0
    6.9479    2.0252    1.0108 C   0  0  0  0  0  0  0  0  0  0  0  0
    8.2176    1.4510    0.6681 O   0  0  0  0  0  0  0  0  0  0  0  0
    8.0699    0.5216   -0.4158 C   0  0  0  0  0  0  0  0  0  0  0  0
    7.1515   -0.6331   -0.0101 C   0  0  0  0  0  0  0  0  0  0  0  0
    1.8290    0.8423   -1.0514 S   0  0  0  0  0  0  0  0  0  0  0  0
   -2.2332   -1.0487   -2.8551 H   0  0  0  0  0  0  0  0  0  0  0  0
   -3.1378   -2.2753   -3.7135 H   0  0  0  0  0  0  0  0  0  0  0  0
   -2.1920   -2.7480   -2.2941 H   0  0  0  0  0  0  0  0  0  0  0  0
   -5.0682   -3.3659   -2.7875 H   0  0  0  0  0  0  0  0  0  0  0  0
   -7.1664   -3.0347   -1.5470 H   0  0  0  0  0  0  0  0  0  0  0  0
   -7.3649   -1.2292    0.0911 H   0  0  0  0  0  0  0  0  0  0  0  0
   -6.5544    0.3324    1.3834 H   0  0  0  0  0  0  0  0  0  0  0  0
   -4.7609    2.3392   -0.0597 H   0  0  0  0  0  0  0  0  0  0  0  0
   -6.4537    2.0041   -0.4280 H   0  0  0  0  0  0  0  0  0  0  0  0
   -6.0028    2.6693    1.1499 H   0  0  0  0  0  0  0  0  0  0  0  0
   -4.9585    1.1106    2.9366 H   0  0  0  0  0  0  0  0  0  0  0  0
   -4.5091   -0.5429    2.4920 H   0  0  0  0  0  0  0  0  0  0  0  0
   -3.5950    0.8365    1.8660 H   0  0  0  0  0  0  0  0  0  0  0  0
   -3.2339    1.0386   -0.1820 H   0  0  0  0  0  0  0  0  0  0  0  0
   -0.8708    1.5979   -0.8871 H   0  0  0  0  0  0  0  0  0  0  0  0
   -1.1217    1.3879    0.8532 H   0  0  0  0  0  0  0  0  0  0  0  0
    0.6231   -0.6002    2.0312 H   0  0  0  0  0  0  0  0  0  0  0  0
    3.2276   -0.9887    1.7219 H   0  0  0  0  0  0  0  0  0  0  0  0
    6.2879    0.4676    2.3596 H   0  0  0  0  0  0  0  0  0  0  0  0
    4.9685    1.3973    1.6602 H   0  0  0  0  0  0  0  0  0  0  0  0
    7.1148    2.7147    1.8450 H   0  0  0  0  0  0  0  0  0  0  0  0
    6.5881    2.6231    0.1668 H   0  0  0  0  0  0  0  0  0  0  0  0
    7.6985    1.0499   -1.3014 H   0  0  0  0  0  0  0  0  0  0  0  0
    9.0662    0.1350   -0.6527 H   0  0  0  0  0  0  0  0  0  0  0  0
    7.5812   -1.1608    0.8509 H   0  0  0  0  0  0  0  0  0  0  0  0
    7.0671   -1.3670   -0.8169 H   0  0  0  0  0  0  0  0  0  0  0  0
  1  2  1  0
  2  3  2  0
  3  4  1  0
  4  5  2  0
  5  6  1  0
  6  7  1  0
  7  8  1  0
  7  9  1  0
  6 10  2  0
 10 11  1  0
 11 12  1  0
 12 13  2  0
 12 14  1  0
 14 15  1  0
 15 16  2  0
 16 17  1  0
 17 18  2  0
 18 19  1  0
 19 20  2  0
 19 21  2  0
 19 22  1  0
 22 23  1  0
 23 24  1  0
 24 25  1  0
 25 26  1  0
 26 27  1  0
 18 28  1  0
 10  2  1  0
 28 15  1  0
 27 22  1  0
  1 29  1  0
  1 30  1  0
  1 31  1  0
  3 32  1  0
  4 33  1  0
  5 34  1  0
  7 35  1  0
  8 36  1  0
  8 37  1  0
  8 38  1  0
  9 39  1  0
  9 40  1  0
  9 41  1  0
 11 42  1  0
 14 43  1  0
 14 44  1  0
 16 45  1  0
 17 46  1  0
 23 47  1  0
 23 48  1  0
 24 49  1  0
 24 50  1  0
 26 51  1  0
 26 52  1  0
 27 53  1  0
 27 54  1  0
M  END
$$$$
