
     RDKit          3D

 41 42  0  0  0  0  0  0  0  0999 V2000
   -3.3874    1.5950   -1.1425 C   0  0  0  0  0  0  0  0  0  0  0  0
   -2.4137    0.6059   -1.4382 O   0  0  0  0  0  0  0  0  0  0  0  0
   -2.3713   -0.4969   -0.6242 C   0  0  0  0  0  0  0  0  0  0  0  0
   -3.0778   -0.6265    0.5760 C   0  0  0  0  0  0  0  0  0  0  0  0
   -2.9589   -1.7853    1.3457 C   0  0  0  0  0  0  0  0  0  0  0  0
   -2.1287   -2.8239    0.9265 C   0  0  0  0  0  0  0  0  0  0  0  0
   -1.4135   -2.7000   -0.2626 C   0  0  0  0  0  0  0  0  0  0  0  0
   -1.5333   -1.5427   -1.0526 C   0  0  0  0  0  0  0  0  0  0  0  0
   -0.7254   -1.4324   -2.3226 C   0  0  0  0  0  0  0  0  0  0  0  0
    0.4953   -0.6989   -2.0951 N   0  0  0  0  0  0  0  0  0  0  0  0
    1.6935   -1.3489   -1.8679 C   0  0  0  0  0  0  0  0  0  0  0  0
    1.8354   -2.5641   -1.9666 O   0  0  0  0  0  0  0  0  0  0  0  0
    2.8438   -0.4147   -1.4734 C   0  0  0  0  0  0  0  0  0  0  0  0
    3.2032   -0.4700   -0.0953 O   0  0  0  0  0  0  0  0  0  0  0  0
    2.2265    0.0546    0.7094 C   0  0  0  0  0  0  0  0  0  0  0  0
    1.4942   -0.8432    1.4862 C   0  0  0  0  0  0  0  0  0  0  0  0
    0.5035   -0.3711    2.3447 C   0  0  0  0  0  0  0  0  0  0  0  0
    0.2608    1.0002    2.4434 C   0  0  0  0  0  0  0  0  0  0  0  0
    1.0126    1.9057    1.6876 C   0  0  0  0  0  0  0  0  0  0  0  0
    2.0129    1.4374    0.8297 C   0  0  0  0  0  0  0  0  0  0  0  0
    2.7695    2.2878    0.0590 O   0  0  0  0  0  0  0  0  0  0  0  0
    3.3147    3.3861    0.7913 C   0  0  0  0  0  0  0  0  0  0  0  0
   -3.1517    2.1108   -0.2082 H   0  0  0  0  0  0  0  0  0  0  0  0
   -4.3946    1.1664   -1.1172 H   0  0  0  0  0  0  0  0  0  0  0  0
   -3.3632    2.3396   -1.9488 H   0  0  0  0  0  0  0  0  0  0  0  0
   -3.7223    0.1637    0.9487 H   0  0  0  0  0  0  0  0  0  0  0  0
   -3.5105   -1.8756    2.2776 H   0  0  0  0  0  0  0  0  0  0  0  0
   -2.0259   -3.7219    1.5302 H   0  0  0  0  0  0  0  0  0  0  0  0
   -0.7503   -3.5076   -0.5752 H   0  0  0  0  0  0  0  0  0  0  0  0
   -0.5008   -2.4285   -2.7226 H   0  0  0  0  0  0  0  0  0  0  0  0
   -1.2918   -0.9094   -3.0995 H   0  0  0  0  0  0  0  0  0  0  0  0
    0.3858    0.2392   -1.7264 H   0  0  0  0  0  0  0  0  0  0  0  0
    3.7214   -0.7385   -2.0474 H   0  0  0  0  0  0  0  0  0  0  0  0
    2.6381    0.6108   -1.8038 H   0  0  0  0  0  0  0  0  0  0  0  0
    1.6788   -1.9130    1.4024 H   0  0  0  0  0  0  0  0  0  0  0  0
   -0.0835   -1.0734    2.9305 H   0  0  0  0  0  0  0  0  0  0  0  0
   -0.5179    1.3665    3.1104 H   0  0  0  0  0  0  0  0  0  0  0  0
    0.8087    2.9705    1.7838 H   0  0  0  0  0  0  0  0  0  0  0  0
    4.1370    3.7989    0.2026 H   0  0  0  0  0  0  0  0  0  0  0  0
    3.7199    3.0720    1.7615 H   0  0  0  0  0  0  0  0  0  0  0  0
    2.5672    4.1752    0.9206 H   0  0  0  0  0  0  0  0  0  0  0  0
  1  2  1  0
  2  3  1  0
  3  4  2  0
  4  5  1  0
  5  6  2  0
  6  7  1  0
  7  8  2  0
  8  9  1  0
  9 10  1  0
 10 11  1  0
 11 12  2  0
 11 13  1  0
 13 14  1  0
 14 15  1  0
 15 16  2  0
 16 17  1  0
 17 18  2  0
 18 19  1  0
 19 20  2  0
 20 21  1  0
 21 22  1  0
  8  3  1  0
 20 15  1  0
  1 23  1  0
  1 24  1  0
  1 25  1  0
  4 26  1  0
  5 27  1  0
  6 28  1  0
  7 29  1  0
  9 30  1  0
  9 31  1  0
 10 32  1  0
 13 33  1  0
 13 34  1  0
 16 35  1  0
 17 36  1  0
 18 37  1  0
 19 38  1  0
 22 39  1  0
 22 40  1  0
 22 41  1  0
M  END
$$$$
