
     RDKit          3D

 28 29  0  0  0  0  0  0  0  0999 V2000
    0.3277    1.6006   -0.9785 O   0  0  0  0  0  0  0  0  0  0  0  0
    0.5063    0.5378   -0.3890 C   0  0  0  0  0  0  0  0  0  0  0  0
   -0.4789   -0.2498    0.1631 N   0  0  0  0  0  0  0  0  0  0  0  0
   -1.8893   -0.1100    0.0970 C   0  0  0  0  0  0  0  0  0  0  0  0
   -2.6100   -1.0149    0.9000 C   0  0  0  0  0  0  0  0  0  0  0  0
   -4.0079   -1.0151    0.9300 C   0  0  0  0  0  0  0  0  0  0  0  0
   -4.7164   -0.1110    0.1496 C   0  0  0  0  0  0  0  0  0  0  0  0
   -4.0239    0.7880   -0.6564 C   0  0  0  0  0  0  0  0  0  0  0  0
   -2.6243    0.7935   -0.6844 C   0  0  0  0  0  0  0  0  0  0  0  0
   -2.0980    1.7217   -1.5345 O   0  0  0  0  0  0  0  0  0  0  0  0
    1.9096    0.0775   -0.1884 C   0  0  0  0  0  0  0  0  0  0  0  0
    2.2216   -1.2872   -0.0840 C   0  0  0  0  0  0  0  0  0  0  0  0
    3.5437   -1.6923    0.1217 C   0  0  0  0  0  0  0  0  0  0  0  0
    4.5605   -0.7427    0.2154 C   0  0  0  0  0  0  0  0  0  0  0  0
    4.2630    0.6133    0.0870 C   0  0  0  0  0  0  0  0  0  0  0  0
    2.9474    1.0197   -0.1269 C   0  0  0  0  0  0  0  0  0  0  0  0
    2.7473    2.3672   -0.2676 O   0  0  0  0  0  0  0  0  0  0  0  0
   -0.1618   -0.9886    0.7778 H   0  0  0  0  0  0  0  0  0  0  0  0
   -2.0923   -1.7398    1.5241 H   0  0  0  0  0  0  0  0  0  0  0  0
   -4.5400   -1.7221    1.5614 H   0  0  0  0  0  0  0  0  0  0  0  0
   -5.8029   -0.1037    0.1637 H   0  0  0  0  0  0  0  0  0  0  0  0
   -4.5733    1.4954   -1.2734 H   0  0  0  0  0  0  0  0  0  0  0  0
   -1.1309    1.7627   -1.3921 H   0  0  0  0  0  0  0  0  0  0  0  0
    1.4581   -2.0529   -0.1902 H   0  0  0  0  0  0  0  0  0  0  0  0
    3.7843   -2.7504    0.1992 H   0  0  0  0  0  0  0  0  0  0  0  0
    5.5892   -1.0578    0.3741 H   0  0  0  0  0  0  0  0  0  0  0  0
    5.0559    1.3549    0.1430 H   0  0  0  0  0  0  0  0  0  0  0  0
    1.8354    2.5058   -0.6054 H   0  0  0  0  0  0  0  0  0  0  0  0
  1  2  2  0
  2  3  1  0
  3  4  1  0
  4  5  2  0
  5  6  1  0
  6  7  2  0
  7  8  1  0
  8  9  2  0
  9 10  1  0
  2 11  1  0
 11 12  2  0
 12 13  1  0
 13 14  2  0
 14 15  1  0
 15 16  2  0
 16 17  1  0
  9  4  1  0
 16 11  1  0
  3 18  1  0
  5 19  1  0
  6 20  1  0
  7 21  1  0
  8 22  1  0
 10 23  1  0
 12 24  1  0
 13 25  1  0
 14 26  1  0
 15 27  1  0
 17 28  1  0
M  END
$$$$
