
     RDKit          3D

 42 44  0  0  0  0  0  0  0  0999 V2000
    3.4643    0.7333    2.2009 C   0  0  0  0  0  0  0  0  0  0  0  0
    3.8852    0.2289    0.8228 C   0  0  0  0  0  0  0  0  0  0  0  0
    5.3969    0.0102    0.7776 C   0  0  0  0  0  0  0  0  0  0  0  0
    3.0657   -1.3700    0.4419 S   0  0  0  0  0  0  0  0  0  0  0  0
    1.3978   -0.8447    0.0660 C   0  0  0  0  0  0  0  0  0  0  0  0
    0.4005   -1.7968    0.0361 C   0  0  0  0  0  0  0  0  0  0  0  0
   -0.8770   -1.3749   -0.2691 C   0  0  0  0  0  0  0  0  0  0  0  0
   -1.9342   -2.2561   -0.3353 N   0  0  0  0  0  0  0  0  0  0  0  0
   -3.2751   -1.7350   -0.5856 C   0  0  0  0  0  0  0  0  0  0  0  0
   -4.1534   -2.9745   -0.4516 C   0  0  0  0  0  0  0  0  0  0  0  0
   -3.4715   -3.7410    0.6702 C   0  0  0  0  0  0  0  0  0  0  0  0
   -1.9814   -3.5066    0.4161 C   0  0  0  0  0  0  0  0  0  0  0  0
   -1.1109   -0.0826   -0.5513 N   0  0  0  0  0  0  0  0  0  0  0  0
   -0.0870    0.7825   -0.4849 C   0  0  0  0  0  0  0  0  0  0  0  0
   -0.3476    2.1866   -0.8204 C   0  0  0  0  0  0  0  0  0  0  0  0
    0.5024    2.8416   -1.7391 C   0  0  0  0  0  0  0  0  0  0  0  0
    0.2967    4.1729   -2.1104 C   0  0  0  0  0  0  0  0  0  0  0  0
   -0.7644    4.8867   -1.5664 C   0  0  0  0  0  0  0  0  0  0  0  0
   -1.6116    4.2704   -0.6473 C   0  0  0  0  0  0  0  0  0  0  0  0
   -1.4063    2.9341   -0.2727 C   0  0  0  0  0  0  0  0  0  0  0  0
   -2.4817    2.2973    0.9282 Cl  0  0  0  0  0  0  0  0  0  0  0  0
    1.1799    0.4490   -0.2004 N   0  0  0  0  0  0  0  0  0  0  0  0
    2.3878    0.9239    2.2566 H   0  0  0  0  0  0  0  0  0  0  0  0
    3.9706    1.6777    2.4298 H   0  0  0  0  0  0  0  0  0  0  0  0
    3.7260    0.0209    2.9916 H   0  0  0  0  0  0  0  0  0  0  0  0
    3.6308    0.9690    0.0569 H   0  0  0  0  0  0  0  0  0  0  0  0
    5.7206   -0.3340   -0.2111 H   0  0  0  0  0  0  0  0  0  0  0  0
    5.9233    0.9493    0.9823 H   0  0  0  0  0  0  0  0  0  0  0  0
    5.7283   -0.7214    1.5235 H   0  0  0  0  0  0  0  0  0  0  0  0
    0.6224   -2.8369    0.2308 H   0  0  0  0  0  0  0  0  0  0  0  0
   -3.3700   -1.2911   -1.5822 H   0  0  0  0  0  0  0  0  0  0  0  0
   -3.5563   -0.9935    0.1725 H   0  0  0  0  0  0  0  0  0  0  0  0
   -5.1951   -2.7292   -0.2278 H   0  0  0  0  0  0  0  0  0  0  0  0
   -4.1260   -3.5616   -1.3775 H   0  0  0  0  0  0  0  0  0  0  0  0
   -3.7316   -4.8032    0.6802 H   0  0  0  0  0  0  0  0  0  0  0  0
   -3.7556   -3.3124    1.6391 H   0  0  0  0  0  0  0  0  0  0  0  0
   -1.5603   -4.3160   -0.1903 H   0  0  0  0  0  0  0  0  0  0  0  0
   -1.4450   -3.4590    1.3704 H   0  0  0  0  0  0  0  0  0  0  0  0
    1.3381    2.2976   -2.1794 H   0  0  0  0  0  0  0  0  0  0  0  0
    0.9659    4.6468   -2.8245 H   0  0  0  0  0  0  0  0  0  0  0  0
   -0.9296    5.9227   -1.8509 H   0  0  0  0  0  0  0  0  0  0  0  0
   -2.4318    4.8394   -0.2156 H   0  0  0  0  0  0  0  0  0  0  0  0
  1  2  1  0
  2  3  1  0
  2  4  1  0
  4  5  1  0
  5  6  2  0
  6  7  1  0
  7  8  1  0
  8  9  1  0
  9 10  1  0
 10 11  1  0
 11 12  1  0
  7 13  2  0
 13 14  1  0
 14 15  1  0
 15 16  2  0
 16 17  1  0
 17 18  2  0
 18 19  1  0
 19 20  2  0
 20 21  1  0
 14 22  2  0
 22  5  1  0
 12  8  1  0
 20 15  1  0
  1 23  1  0
  1 24  1  0
  1 25  1  0
  2 26  1  0
  3 27  1  0
  3 28  1  0
  3 29  1  0
  6 30  1  0
  9 31  1  0
  9 32  1  0
 10 33  1  0
 10 34  1  0
 11 35  1  0
 11 36  1  0
 12 37  1  0
 12 38  1  0
 16 39  1  0
 17 40  1  0
 18 41  1  0
 19 42  1  0
M  END
$$$$
