
     RDKit          3D

 49 52  0  0  0  0  0  0  0  0999 V2000
   -1.6553    5.0593   -2.4628 C   0  0  0  0  0  0  0  0  0  0  0  0
   -1.4119    3.9004   -1.5424 C   0  0  0  0  0  0  0  0  0  0  0  0
   -1.2330    2.6128   -2.0576 C   0  0  0  0  0  0  0  0  0  0  0  0
   -0.9711    1.5376   -1.2052 C   0  0  0  0  0  0  0  0  0  0  0  0
   -0.8636    1.7289    0.1807 C   0  0  0  0  0  0  0  0  0  0  0  0
   -0.6045    0.5762    1.1390 C   0  0  0  0  0  0  0  0  0  0  0  0
   -1.9016   -0.1693    1.4587 C   0  0  0  0  0  0  0  0  0  0  0  0
   -1.6427   -1.4761    0.7612 C   0  0  0  0  0  0  0  0  0  0  0  0
   -2.6923   -2.5144    0.6341 C   0  0  0  0  0  0  0  0  0  0  0  0
   -2.4069   -3.6825   -0.0840 C   0  0  0  0  0  0  0  0  0  0  0  0
   -3.3753   -4.6786   -0.2219 C   0  0  0  0  0  0  0  0  0  0  0  0
   -4.6320   -4.5133    0.3573 C   0  0  0  0  0  0  0  0  0  0  0  0
   -4.9220   -3.3534    1.0748 C   0  0  0  0  0  0  0  0  0  0  0  0
   -3.9554   -2.3538    1.2151 C   0  0  0  0  0  0  0  0  0  0  0  0
   -0.4335   -1.6305    0.3131 N   0  0  0  0  0  0  0  0  0  0  0  0
    0.2470   -0.4760    0.5774 N   0  0  0  0  0  0  0  0  0  0  0  0
    1.6185   -0.3877    0.3473 C   0  0  0  0  0  0  0  0  0  0  0  0
    2.3620    0.7660    0.6487 C   0  0  0  0  0  0  0  0  0  0  0  0
    3.7409    0.8365    0.4137 C   0  0  0  0  0  0  0  0  0  0  0  0
    4.4036   -0.2633   -0.1277 C   0  0  0  0  0  0  0  0  0  0  0  0
    6.1478   -0.1791   -0.4209 S   0  0  0  0  0  6  0  0  0  0  0  0
    6.7579   -0.7548    1.0415 N   0  0  0  0  0  0  0  0  0  0  0  0
    6.5006   -1.1742   -1.4073 O   0  0  0  0  0  0  0  0  0  0  0  0
    6.5310    1.2072   -0.5434 O   0  0  0  0  0  0  0  0  0  0  0  0
    3.6994   -1.4184   -0.4553 C   0  0  0  0  0  0  0  0  0  0  0  0
    2.3230   -1.4716   -0.2117 C   0  0  0  0  0  0  0  0  0  0  0  0
   -1.0383    3.0253    0.6908 C   0  0  0  0  0  0  0  0  0  0  0  0
   -1.3013    4.1001   -0.1627 C   0  0  0  0  0  0  0  0  0  0  0  0
   -2.2071    4.7415   -3.3537 H   0  0  0  0  0  0  0  0  0  0  0  0
   -0.7016    5.4965   -2.7742 H   0  0  0  0  0  0  0  0  0  0  0  0
   -2.2543    5.8315   -1.9686 H   0  0  0  0  0  0  0  0  0  0  0  0
   -1.2927    2.4352   -3.1292 H   0  0  0  0  0  0  0  0  0  0  0  0
   -0.8370    0.5456   -1.6348 H   0  0  0  0  0  0  0  0  0  0  0  0
   -0.1683    0.9582    2.0709 H   0  0  0  0  0  0  0  0  0  0  0  0
   -1.9911   -0.3569    2.5341 H   0  0  0  0  0  0  0  0  0  0  0  0
   -2.8051    0.3230    1.0888 H   0  0  0  0  0  0  0  0  0  0  0  0
   -1.4298   -3.8232   -0.5418 H   0  0  0  0  0  0  0  0  0  0  0  0
   -3.1472   -5.5822   -0.7818 H   0  0  0  0  0  0  0  0  0  0  0  0
   -5.3859   -5.2893    0.2491 H   0  0  0  0  0  0  0  0  0  0  0  0
   -5.9034   -3.2278    1.5261 H   0  0  0  0  0  0  0  0  0  0  0  0
   -4.2115   -1.4645    1.7825 H   0  0  0  0  0  0  0  0  0  0  0  0
    1.8790    1.6455    1.0647 H   0  0  0  0  0  0  0  0  0  0  0  0
    4.2801    1.7517    0.6496 H   0  0  0  0  0  0  0  0  0  0  0  0
    6.0402   -0.8566    1.7584 H   0  0  0  0  0  0  0  0  0  0  0  0
    7.2472   -1.6341    0.8664 H   0  0  0  0  0  0  0  0  0  0  0  0
    4.1980   -2.2759   -0.9006 H   0  0  0  0  0  0  0  0  0  0  0  0
    1.7840   -2.3808   -0.4733 H   0  0  0  0  0  0  0  0  0  0  0  0
   -0.9656    3.2126    1.7600 H   0  0  0  0  0  0  0  0  0  0  0  0
   -1.4190    5.0969    0.2568 H   0  0  0  0  0  0  0  0  0  0  0  0
  1  2  1  0
  2  3  2  0
  3  4  1  0
  4  5  2  0
  5  6  1  0
  6  7  1  0
  7  8  1  0
  8  9  1  0
  9 10  2  0
 10 11  1  0
 11 12  2  0
 12 13  1  0
 13 14  2  0
  8 15  2  0
 15 16  1  0
 16 17  1  0
 17 18  2  0
 18 19  1  0
 19 20  2  0
 20 21  1  0
 21 22  1  0
 21 23  2  0
 21 24  2  0
 20 25  1  0
 25 26  2  0
  5 27  1  0
 27 28  2  0
 28  2  1  0
 16  6  1  0
 26 17  1  0
 14  9  1  0
  1 29  1  0
  1 30  1  0
  1 31  1  0
  3 32  1  0
  4 33  1  0
  6 34  1  0
  7 35  1  0
  7 36  1  0
 10 37  1  0
 11 38  1  0
 12 39  1  0
 13 40  1  0
 14 41  1  0
 18 42  1  0
 19 43  1  0
 22 44  1  0
 22 45  1  0
 25 46  1  0
 26 47  1  0
 27 48  1  0
 28 49  1  0
M  END
$$$$
