
     RDKit          3D

 44 46  0  0  0  0  0  0  0  0999 V2000
    3.3160   -3.3714    0.9801 C   0  0  0  0  0  0  0  0  0  0  0  0
    2.3428   -2.3948    0.4119 C   0  0  0  0  0  0  0  0  0  0  0  0
    0.9709   -2.5193    0.3824 C   0  0  0  0  0  0  0  0  0  0  0  0
    0.4044   -1.3238   -0.1366 C   0  0  0  0  0  0  0  0  0  0  0  0
   -1.0486   -1.0983   -0.2555 C   0  0  0  0  0  0  0  0  0  0  0  0
   -1.8273   -2.0286   -0.0347 O   0  0  0  0  0  0  0  0  0  0  0  0
   -1.5695    0.2946   -0.5967 C   0  0  0  0  0  0  0  0  0  0  0  0
   -2.9918    0.3712   -0.4684 O   0  0  0  0  0  0  0  0  0  0  0  0
   -3.4848    1.6234   -0.3399 C   0  0  0  0  0  0  0  0  0  0  0  0
   -2.8173    2.6456   -0.2567 O   0  0  0  0  0  0  0  0  0  0  0  0
   -4.9518    1.5906   -0.2313 C   0  0  0  0  0  0  0  0  0  0  0  0
   -5.5404    2.3949    0.6743 C   0  0  0  0  0  0  0  0  0  0  0  0
   -6.9740    2.3875    0.8607 C   0  0  0  0  0  0  0  0  0  0  0  0
   -7.7345    1.5680    0.1257 C   0  0  0  0  0  0  0  0  0  0  0  0
   -7.1589    0.7526   -0.8135 N   0  0  0  0  0  0  0  0  0  0  0  0
   -5.8054    0.7139   -1.0817 C   0  0  0  0  0  0  0  0  0  0  0  0
   -5.3612    0.0231   -1.9919 O   0  0  0  0  0  0  0  0  0  0  0  0
    1.4800   -0.5092   -0.4936 C   0  0  0  0  0  0  0  0  0  0  0  0
    1.4872    0.7757   -1.2623 C   0  0  0  0  0  0  0  0  0  0  0  0
    2.6642   -1.1383   -0.0846 N   0  0  0  0  0  0  0  0  0  0  0  0
    3.9739   -0.5749   -0.1377 C   0  0  0  0  0  0  0  0  0  0  0  0
    5.0496   -1.3281   -0.6279 C   0  0  0  0  0  0  0  0  0  0  0  0
    6.3284   -0.7685   -0.6686 C   0  0  0  0  0  0  0  0  0  0  0  0
    6.5256    0.5319   -0.2182 C   0  0  0  0  0  0  0  0  0  0  0  0
    7.7539    1.0642   -0.2578 F   0  0  0  0  0  0  0  0  0  0  0  0
    5.4676    1.2887    0.2720 C   0  0  0  0  0  0  0  0  0  0  0  0
    4.1856    0.7373    0.3132 C   0  0  0  0  0  0  0  0  0  0  0  0
    4.0764   -2.8780    1.5927 H   0  0  0  0  0  0  0  0  0  0  0  0
    2.8016   -4.0900    1.6280 H   0  0  0  0  0  0  0  0  0  0  0  0
    3.8029   -3.9421    0.1841 H   0  0  0  0  0  0  0  0  0  0  0  0
    0.4117   -3.3782    0.7384 H   0  0  0  0  0  0  0  0  0  0  0  0
   -1.3270    0.5109   -1.6398 H   0  0  0  0  0  0  0  0  0  0  0  0
   -1.0855    1.0064    0.0808 H   0  0  0  0  0  0  0  0  0  0  0  0
   -4.9561    3.0583    1.3066 H   0  0  0  0  0  0  0  0  0  0  0  0
   -7.4081    3.0454    1.6067 H   0  0  0  0  0  0  0  0  0  0  0  0
   -8.8137    1.5167    0.2280 H   0  0  0  0  0  0  0  0  0  0  0  0
   -7.7349    0.1506   -1.3904 H   0  0  0  0  0  0  0  0  0  0  0  0
    1.2383    1.6167   -0.6085 H   0  0  0  0  0  0  0  0  0  0  0  0
    2.4482    0.9772   -1.7436 H   0  0  0  0  0  0  0  0  0  0  0  0
    0.7627    0.7378   -2.0801 H   0  0  0  0  0  0  0  0  0  0  0  0
    4.9060   -2.3311   -1.0201 H   0  0  0  0  0  0  0  0  0  0  0  0
    7.1696   -1.3353   -1.0553 H   0  0  0  0  0  0  0  0  0  0  0  0
    5.6493    2.2988    0.6257 H   0  0  0  0  0  0  0  0  0  0  0  0
    3.3740    1.3278    0.7311 H   0  0  0  0  0  0  0  0  0  0  0  0
  1  2  1  0
  2  3  2  0
  3  4  1  0
  4  5  1  0
  5  6  2  0
  5  7  1  0
  7  8  1  0
  8  9  1  0
  9 10  2  0
  9 11  1  0
 11 12  2  0
 12 13  1  0
 13 14  2  0
 14 15  1  0
 15 16  1  0
 16 17  2  0
  4 18  2  0
 18 19  1  0
 18 20  1  0
 20 21  1  0
 21 22  2  0
 22 23  1  0
 23 24  2  0
 24 25  1  0
 24 26  1  0
 26 27  2  0
 20  2  1  0
 27 21  1  0
 16 11  1  0
  1 28  1  0
  1 29  1  0
  1 30  1  0
  3 31  1  0
  7 32  1  0
  7 33  1  0
 12 34  1  0
 13 35  1  0
 14 36  1  0
 15 37  1  0
 19 38  1  0
 19 39  1  0
 19 40  1  0
 22 41  1  0
 23 42  1  0
 26 43  1  0
 27 44  1  0
M  END
$$$$
