
     RDKit          3D

 66 70  0  0  0  0  0  0  0  0999 V2000
    2.7974   -0.1576    0.0472 C   0  0  0  0  0  0  0  0  0  0  0  0
    2.9026    1.1301   -0.6855 C   0  0  0  0  0  0  0  0  0  0  0  0
    2.2623    1.5023   -1.8558 C   0  0  0  0  0  0  0  0  0  0  0  0
    1.3009    0.7288   -2.7196 C   0  0  0  0  0  0  0  0  0  0  0  0
   -0.1585    1.1236   -2.4766 C   0  0  0  0  0  0  0  0  0  0  0  0
   -0.5822    0.8553   -1.1273 O   0  0  0  0  0  0  0  0  0  0  0  0
   -0.9381   -0.4353   -0.8725 C   0  0  0  0  0  0  0  0  0  0  0  0
   -0.7454   -1.3705   -1.6346 O   0  0  0  0  0  0  0  0  0  0  0  0
   -1.5790   -0.5539    0.4892 C   0  0  0  0  0  0  0  0  0  0  0  0
   -3.1191   -0.4980    0.4763 C   0  0  0  0  0  0  0  0  0  0  0  0
   -3.6419    0.8299   -0.1261 C   0  0  0  0  0  0  0  0  0  0  0  0
   -5.1784    0.8827   -0.0753 C   0  0  0  0  0  0  0  0  0  0  0  0
   -5.6448    0.7777    1.3838 C   0  0  0  0  0  0  0  0  0  0  0  0
   -5.1615   -0.5457    1.9941 C   0  0  0  0  0  0  0  0  0  0  0  0
   -5.7360   -1.7209    1.1884 C   0  0  0  0  0  0  0  0  0  0  0  0
   -5.2751   -1.6391   -0.2840 C   0  0  0  0  0  0  0  0  0  0  0  0
   -5.8549   -2.8087   -1.0851 C   0  0  0  0  0  0  0  0  0  0  0  0
   -5.7534   -0.2948   -0.8794 C   0  0  0  0  0  0  0  0  0  0  0  0
   -3.7281   -1.6767   -0.3258 C   0  0  0  0  0  0  0  0  0  0  0  0
   -3.6271   -0.5980    1.9399 C   0  0  0  0  0  0  0  0  0  0  0  0
    2.7247    3.0977   -2.2990 S   0  0  0  0  0  0  0  0  0  0  0  0
    3.7401    3.2457   -0.9360 C   0  0  0  0  0  0  0  0  0  0  0  0
    3.7445    2.1376   -0.2133 N   0  0  0  0  0  4  0  0  0  0  0  0
    4.5649    2.0531    1.0043 C   0  0  0  0  0  0  0  0  0  0  0  0
    5.7532    1.1369    0.8001 C   0  0  0  0  0  0  0  0  0  0  0  0
    6.6415    1.3174   -0.2749 C   0  0  0  0  0  0  0  0  0  0  0  0
    7.7445    0.4728   -0.4402 C   0  0  0  0  0  0  0  0  0  0  0  0
    7.9750   -0.5570    0.4791 C   0  0  0  0  0  0  0  0  0  0  0  0
    9.1352   -1.4420    0.3091 N   0  0  0  0  0  4  0  0  0  0  0  0
    9.2046   -2.4385    1.0398 O   0  0  0  0  0  0  0  0  0  0  0  0
    9.9671   -1.1327   -0.5550 O   0  0  0  0  0  1  0  0  0  0  0  0
    7.1114   -0.7407    1.5639 C   0  0  0  0  0  0  0  0  0  0  0  0
    6.0105    0.1075    1.7240 C   0  0  0  0  0  0  0  0  0  0  0  0
    2.6331    0.0029    1.1162 H   0  0  0  0  0  0  0  0  0  0  0  0
    3.7033   -0.7539   -0.0921 H   0  0  0  0  0  0  0  0  0  0  0  0
    1.9566   -0.7570   -0.3125 H   0  0  0  0  0  0  0  0  0  0  0  0
    1.5447    0.8954   -3.7763 H   0  0  0  0  0  0  0  0  0  0  0  0
    1.4420   -0.3420   -2.5390 H   0  0  0  0  0  0  0  0  0  0  0  0
   -0.8193    0.6082   -3.1845 H   0  0  0  0  0  0  0  0  0  0  0  0
   -0.3021    2.1970   -2.6428 H   0  0  0  0  0  0  0  0  0  0  0  0
   -1.1688    0.2358    1.1322 H   0  0  0  0  0  0  0  0  0  0  0  0
   -1.2288   -1.4968    0.9283 H   0  0  0  0  0  0  0  0  0  0  0  0
   -3.2248    1.6842    0.4224 H   0  0  0  0  0  0  0  0  0  0  0  0
   -3.3189    0.9347   -1.1691 H   0  0  0  0  0  0  0  0  0  0  0  0
   -5.5283    1.8276   -0.5063 H   0  0  0  0  0  0  0  0  0  0  0  0
   -5.2545    1.6231    1.9635 H   0  0  0  0  0  0  0  0  0  0  0  0
   -6.7391    0.8364    1.4332 H   0  0  0  0  0  0  0  0  0  0  0  0
   -5.4959   -0.6154    3.0354 H   0  0  0  0  0  0  0  0  0  0  0  0
   -5.4117   -2.6691    1.6365 H   0  0  0  0  0  0  0  0  0  0  0  0
   -6.8321   -1.7053    1.2446 H   0  0  0  0  0  0  0  0  0  0  0  0
   -5.5323   -2.7698   -2.1316 H   0  0  0  0  0  0  0  0  0  0  0  0
   -6.9505   -2.7914   -1.0721 H   0  0  0  0  0  0  0  0  0  0  0  0
   -5.5312   -3.7706   -0.6716 H   0  0  0  0  0  0  0  0  0  0  0  0
   -5.4421   -0.2116   -1.9287 H   0  0  0  0  0  0  0  0  0  0  0  0
   -6.8498   -0.2447   -0.8717 H   0  0  0  0  0  0  0  0  0  0  0  0
   -3.3962   -1.6364   -1.3710 H   0  0  0  0  0  0  0  0  0  0  0  0
   -3.3659   -2.6302    0.0812 H   0  0  0  0  0  0  0  0  0  0  0  0
   -3.2127    0.2223    2.5406 H   0  0  0  0  0  0  0  0  0  0  0  0
   -3.2757   -1.5311    2.3993 H   0  0  0  0  0  0  0  0  0  0  0  0
    4.3119    4.1395   -0.7161 H   0  0  0  0  0  0  0  0  0  0  0  0
    3.9287    1.7143    1.8297 H   0  0  0  0  0  0  0  0  0  0  0  0
    4.9326    3.0483    1.2838 H   0  0  0  0  0  0  0  0  0  0  0  0
    6.5030    2.1183   -0.9998 H   0  0  0  0  0  0  0  0  0  0  0  0
    8.4170    0.6314   -1.2830 H   0  0  0  0  0  0  0  0  0  0  0  0
    7.2877   -1.5318    2.2926 H   0  0  0  0  0  0  0  0  0  0  0  0
    5.3630   -0.0513    2.5865 H   0  0  0  0  0  0  0  0  0  0  0  0
  1  2  1  0
  2  3  2  0
  3  4  1  0
  4  5  1  0
  5  6  1  0
  6  7  1  0
  7  8  2  0
  7  9  1  0
  9 10  1  0
 10 11  1  0
 11 12  1  0
 12 13  1  0
 13 14  1  0
 14 15  1  0
 15 16  1  0
 16 17  1  0
 16 18  1  0
 16 19  1  0
 14 20  1  0
  3 21  1  0
 21 22  1  0
 22 23  2  0
 23 24  1  0
 24 25  1  0
 25 26  2  0
 26 27  1  0
 27 28  2  0
 28 29  1  0
 29 30  2  0
 29 31  1  0
 28 32  1  0
 32 33  2  0
 23  2  1  0
 33 25  1  0
 19 10  1  0
 20 10  1  0
 18 12  1  0
  1 34  1  0
  1 35  1  0
  1 36  1  0
  4 37  1  0
  4 38  1  0
  5 39  1  0
  5 40  1  0
  9 41  1  0
  9 42  1  0
 11 43  1  0
 11 44  1  0
 12 45  1  0
 13 46  1  0
 13 47  1  0
 14 48  1  0
 15 49  1  0
 15 50  1  0
 17 51  1  0
 17 52  1  0
 17 53  1  0
 18 54  1  0
 18 55  1  0
 19 56  1  0
 19 57  1  0
 20 58  1  0
 20 59  1  0
 22 60  1  0
 24 61  1  0
 24 62  1  0
 26 63  1  0
 27 64  1  0
 32 65  1  0
 33 66  1  0
M  CHG  3  23   1  29   1  31  -1
M  END
$$$$
