
     RDKit          3D

 42 44  0  0  0  0  0  0  0  0999 V2000
   -3.5287    4.1407   -0.1000 C   0  0  0  0  0  0  0  0  0  0  0  0
   -3.5381    3.2708   -1.2283 O   0  0  0  0  0  0  0  0  0  0  0  0
   -2.5745    2.2938   -1.2645 C   0  0  0  0  0  0  0  0  0  0  0  0
   -1.6145    2.0519   -0.2785 C   0  0  0  0  0  0  0  0  0  0  0  0
   -0.6946    0.9979   -0.4276 C   0  0  0  0  0  0  0  0  0  0  0  0
    0.2886    0.7529    0.6353 C   0  0  0  0  0  0  0  0  0  0  0  0
    1.6220    0.8954    0.5027 C   0  0  0  0  0  0  0  0  0  0  0  0
    2.2621    1.3531   -0.6805 C   0  0  0  0  0  0  0  0  0  0  0  0
    2.7638    1.6955   -1.6694 N   0  0  0  0  0  0  0  0  0  0  0  0
    2.4790    0.6850    1.6941 C   0  0  0  0  0  0  0  0  0  0  0  0
    3.1653    1.6004    2.1392 O   0  0  0  0  0  0  0  0  0  0  0  0
    2.4053   -0.6324    2.3213 C   0  0  0  0  0  0  0  0  0  0  0  0
    2.6573   -0.8288    3.6688 C   0  0  0  0  0  0  0  0  0  0  0  0
    2.4961   -2.1530    3.9607 N   0  0  0  0  0  0  0  0  0  0  0  0
    2.1629   -2.8483    2.8235 C   0  0  0  0  0  0  0  0  0  0  0  0
    1.9172   -4.2172    2.6578 C   0  0  0  0  0  0  0  0  0  0  0  0
    1.6299   -4.6756    1.3721 C   0  0  0  0  0  0  0  0  0  0  0  0
    1.6014   -3.7992    0.2939 C   0  0  0  0  0  0  0  0  0  0  0  0
    1.8482   -2.4328    0.4769 C   0  0  0  0  0  0  0  0  0  0  0  0
    2.1195   -1.9306    1.7696 C   0  0  0  0  0  0  0  0  0  0  0  0
   -0.7445    0.1909   -1.5672 C   0  0  0  0  0  0  0  0  0  0  0  0
   -1.6784    0.4504   -2.5697 C   0  0  0  0  0  0  0  0  0  0  0  0
   -1.6809   -0.4015   -3.6423 O   0  0  0  0  0  0  0  0  0  0  0  0
   -1.2922    0.2810   -4.8352 C   0  0  0  0  0  0  0  0  0  0  0  0
   -2.5998    1.4838   -2.4080 C   0  0  0  0  0  0  0  0  0  0  0  0
   -3.5627    1.7093   -3.3578 O   0  0  0  0  0  0  0  0  0  0  0  0
   -3.6906    3.5844    0.8288 H   0  0  0  0  0  0  0  0  0  0  0  0
   -2.5960    4.7156   -0.0627 H   0  0  0  0  0  0  0  0  0  0  0  0
   -4.3602    4.8449   -0.2128 H   0  0  0  0  0  0  0  0  0  0  0  0
   -1.5666    2.6635    0.6180 H   0  0  0  0  0  0  0  0  0  0  0  0
   -0.1486    0.4644    1.5907 H   0  0  0  0  0  0  0  0  0  0  0  0
    2.9351   -0.1225    4.4422 H   0  0  0  0  0  0  0  0  0  0  0  0
    2.6223   -2.5709    4.8731 H   0  0  0  0  0  0  0  0  0  0  0  0
    1.9567   -4.9064    3.4960 H   0  0  0  0  0  0  0  0  0  0  0  0
    1.4386   -5.7345    1.2108 H   0  0  0  0  0  0  0  0  0  0  0  0
    1.3919   -4.1777   -0.7037 H   0  0  0  0  0  0  0  0  0  0  0  0
    1.8404   -1.7844   -0.3931 H   0  0  0  0  0  0  0  0  0  0  0  0
   -0.0620   -0.6456   -1.6936 H   0  0  0  0  0  0  0  0  0  0  0  0
   -1.1098   -0.4758   -5.6032 H   0  0  0  0  0  0  0  0  0  0  0  0
   -2.0876    0.9370   -5.2021 H   0  0  0  0  0  0  0  0  0  0  0  0
   -0.3590    0.8427   -4.6946 H   0  0  0  0  0  0  0  0  0  0  0  0
   -4.1142    2.4320   -2.9992 H   0  0  0  0  0  0  0  0  0  0  0  0
  1  2  1  0
  2  3  1  0
  3  4  2  0
  4  5  1  0
  5  6  1  0
  6  7  2  3
  7  8  1  0
  8  9  3  0
  7 10  1  0
 10 11  2  0
 10 12  1  0
 12 13  2  0
 13 14  1  0
 14 15  1  0
 15 16  2  0
 16 17  1  0
 17 18  2  0
 18 19  1  0
 19 20  2  0
  5 21  2  0
 21 22  1  0
 22 23  1  0
 23 24  1  0
 22 25  2  0
 25 26  1  0
 25  3  1  0
 20 12  1  0
 20 15  1  0
  1 27  1  0
  1 28  1  0
  1 29  1  0
  4 30  1  0
  6 31  1  0
 13 32  1  0
 14 33  1  0
 16 34  1  0
 17 35  1  0
 18 36  1  0
 19 37  1  0
 21 38  1  0
 24 39  1  0
 24 40  1  0
 24 41  1  0
 26 42  1  0
M  END
$$$$
