
     RDKit          3D

 49 52  0  0  0  0  0  0  0  0999 V2000
   -1.2742    5.4260    0.6306 C   0  0  0  0  0  0  0  0  0  0  0  0
   -1.0410    4.1208   -0.0714 C   0  0  0  0  0  0  0  0  0  0  0  0
   -0.7446    4.0961   -1.4379 C   0  0  0  0  0  0  0  0  0  0  0  0
   -0.4979    2.8858   -2.0840 C   0  0  0  0  0  0  0  0  0  0  0  0
   -0.5336    1.6897   -1.3680 C   0  0  0  0  0  0  0  0  0  0  0  0
   -0.8050    1.6876    0.0086 C   0  0  0  0  0  0  0  0  0  0  0  0
   -0.8713    0.3998    0.8164 C   0  0  0  0  0  0  0  0  0  0  0  0
   -2.2392   -0.2684    0.6658 C   0  0  0  0  0  0  0  0  0  0  0  0
   -1.8572   -1.5023   -0.1037 C   0  0  0  0  0  0  0  0  0  0  0  0
   -2.8767   -2.4370   -0.6359 C   0  0  0  0  0  0  0  0  0  0  0  0
   -2.4568   -3.5426   -1.3862 C   0  0  0  0  0  0  0  0  0  0  0  0
   -3.3932   -4.4408   -1.9013 C   0  0  0  0  0  0  0  0  0  0  0  0
   -4.7525   -4.2396   -1.6688 C   0  0  0  0  0  0  0  0  0  0  0  0
   -5.1771   -3.1418   -0.9213 C   0  0  0  0  0  0  0  0  0  0  0  0
   -4.2427   -2.2403   -0.4038 C   0  0  0  0  0  0  0  0  0  0  0  0
   -0.5799   -1.6957   -0.2355 N   0  0  0  0  0  0  0  0  0  0  0  0
    0.0536   -0.6346    0.3464 N   0  0  0  0  0  0  0  0  0  0  0  0
    1.4318   -0.6545    0.5562 C   0  0  0  0  0  0  0  0  0  0  0  0
    2.2074   -1.7483    0.1263 C   0  0  0  0  0  0  0  0  0  0  0  0
    3.5925   -1.7994    0.3186 C   0  0  0  0  0  0  0  0  0  0  0  0
    4.2344   -0.7337    0.9434 C   0  0  0  0  0  0  0  0  0  0  0  0
    5.9779   -0.7968    1.2173 S   0  0  0  0  0  6  0  0  0  0  0  0
    6.5784   -0.1177   -0.1956 N   0  0  0  0  0  0  0  0  0  0  0  0
    6.4153   -2.1734    1.2124 O   0  0  0  0  0  0  0  0  0  0  0  0
    6.3292    0.1212    2.2761 O   0  0  0  0  0  0  0  0  0  0  0  0
    3.5002    0.3626    1.3919 C   0  0  0  0  0  0  0  0  0  0  0  0
    2.1139    0.3963    1.1929 C   0  0  0  0  0  0  0  0  0  0  0  0
   -1.0598    2.9158    0.6449 C   0  0  0  0  0  0  0  0  0  0  0  0
   -0.3275    5.8189    1.0139 H   0  0  0  0  0  0  0  0  0  0  0  0
   -1.9705    5.3004    1.4664 H   0  0  0  0  0  0  0  0  0  0  0  0
   -1.7139    6.1630   -0.0496 H   0  0  0  0  0  0  0  0  0  0  0  0
   -0.7038    5.0207   -2.0093 H   0  0  0  0  0  0  0  0  0  0  0  0
   -0.2714    2.8724   -3.1470 H   0  0  0  0  0  0  0  0  0  0  0  0
   -0.3335    0.7547   -1.8898 H   0  0  0  0  0  0  0  0  0  0  0  0
   -0.6910    0.6158    1.8774 H   0  0  0  0  0  0  0  0  0  0  0  0
   -2.6380   -0.5698    1.6403 H   0  0  0  0  0  0  0  0  0  0  0  0
   -2.9773    0.3358    0.1311 H   0  0  0  0  0  0  0  0  0  0  0  0
   -1.3982   -3.7107   -1.5745 H   0  0  0  0  0  0  0  0  0  0  0  0
   -3.0598   -5.2966   -2.4830 H   0  0  0  0  0  0  0  0  0  0  0  0
   -5.4813   -4.9398   -2.0701 H   0  0  0  0  0  0  0  0  0  0  0  0
   -6.2383   -2.9884   -0.7405 H   0  0  0  0  0  0  0  0  0  0  0  0
   -4.6054   -1.3979    0.1768 H   0  0  0  0  0  0  0  0  0  0  0  0
    1.7212   -2.5866   -0.3694 H   0  0  0  0  0  0  0  0  0  0  0  0
    4.1494   -2.6683   -0.0224 H   0  0  0  0  0  0  0  0  0  0  0  0
    7.1325   -0.8074   -0.7031 H   0  0  0  0  0  0  0  0  0  0  0  0
    7.0802    0.7436    0.0193 H   0  0  0  0  0  0  0  0  0  0  0  0
    3.9903    1.1948    1.8916 H   0  0  0  0  0  0  0  0  0  0  0  0
    1.5792    1.2737    1.5445 H   0  0  0  0  0  0  0  0  0  0  0  0
   -1.2745    2.9368    1.7121 H   0  0  0  0  0  0  0  0  0  0  0  0
  1  2  1  0
  2  3  2  0
  3  4  1  0
  4  5  2  0
  5  6  1  0
  6  7  1  0
  7  8  1  0
  8  9  1  0
  9 10  1  0
 10 11  2  0
 11 12  1  0
 12 13  2  0
 13 14  1  0
 14 15  2  0
  9 16  2  0
 16 17  1  0
 17 18  1  0
 18 19  2  0
 19 20  1  0
 20 21  2  0
 21 22  1  0
 22 23  1  0
 22 24  2  0
 22 25  2  0
 21 26  1  0
 26 27  2  0
  6 28  2  0
 28  2  1  0
 17  7  1  0
 27 18  1  0
 15 10  1  0
  1 29  1  0
  1 30  1  0
  1 31  1  0
  3 32  1  0
  4 33  1  0
  5 34  1  0
  7 35  1  0
  8 36  1  0
  8 37  1  0
 11 38  1  0
 12 39  1  0
 13 40  1  0
 14 41  1  0
 15 42  1  0
 19 43  1  0
 20 44  1  0
 23 45  1  0
 23 46  1  0
 26 47  1  0
 27 48  1  0
 28 49  1  0
M  END
$$$$
