
     RDKit          3D

 49 52  0  0  0  0  0  0  0  0999 V2000
   -0.2405   -3.0609    3.2600 O   0  0  0  0  0  0  0  0  0  0  0  0
    0.5965   -2.4592    2.5914 C   0  0  0  0  0  0  0  0  0  0  0  0
    2.0922   -2.7472    2.7609 C   0  0  0  0  0  0  0  0  0  0  0  0
    2.9371   -1.6300    2.3300 N   0  0  0  0  0  0  0  0  0  0  0  0
    3.1128   -1.4695    0.9673 N   0  0  0  0  0  0  0  0  0  0  0  0
    3.8515   -0.4811    0.5610 C   0  0  0  0  0  0  0  0  0  0  0  0
    4.0389   -0.2775   -0.9034 C   0  0  0  0  0  0  0  0  0  0  0  0
    4.0757   -1.4043   -1.7391 C   0  0  0  0  0  0  0  0  0  0  0  0
    4.2279   -1.2500   -3.1187 C   0  0  0  0  0  0  0  0  0  0  0  0
    4.3324    0.0265   -3.6581 C   0  0  0  0  0  0  0  0  0  0  0  0
    4.4737    0.1754   -4.9811 F   0  0  0  0  0  0  0  0  0  0  0  0
    4.2831    1.1536   -2.8449 C   0  0  0  0  0  0  0  0  0  0  0  0
    4.1317    1.0053   -1.4637 C   0  0  0  0  0  0  0  0  0  0  0  0
    4.5342    0.4667    1.4665 C   0  0  0  0  0  0  0  0  0  0  0  0
    4.3095    0.3224    2.7732 C   0  0  0  0  0  0  0  0  0  0  0  0
    3.4392   -0.7549    3.2835 C   0  0  0  0  0  0  0  0  0  0  0  0
    3.2270   -0.8253    4.4896 O   0  0  0  0  0  0  0  0  0  0  0  0
    0.3299   -1.6006    1.5387 N   0  0  0  0  0  0  0  0  0  0  0  0
   -0.9133   -1.1641    1.0546 C   0  0  0  0  0  0  0  0  0  0  0  0
   -2.1380   -1.5148    1.6243 C   0  0  0  0  0  0  0  0  0  0  0  0
   -3.3358   -1.0400    1.0767 C   0  0  0  0  0  0  0  0  0  0  0  0
   -3.3192   -0.1977   -0.0386 C   0  0  0  0  0  0  0  0  0  0  0  0
   -4.6160    0.2793   -0.5898 C   0  0  0  0  0  0  0  0  0  0  0  0
   -5.6146   -0.4268   -0.5068 O   0  0  0  0  0  0  0  0  0  0  0  0
   -4.6046    1.5413   -1.1541 N   0  0  0  0  0  0  0  0  0  0  0  0
   -5.7893    2.1391   -1.6829 C   0  0  0  0  0  0  0  0  0  0  0  0
   -5.8953    3.6324   -1.8360 C   0  0  0  0  0  0  0  0  0  0  0  0
   -6.7139    2.9253   -0.7952 C   0  0  0  0  0  0  0  0  0  0  0  0
   -2.0958    0.1490   -0.6211 C   0  0  0  0  0  0  0  0  0  0  0  0
   -0.9015   -0.3313   -0.0721 C   0  0  0  0  0  0  0  0  0  0  0  0
    2.2815   -2.9724    3.8153 H   0  0  0  0  0  0  0  0  0  0  0  0
    2.3487   -3.6272    2.1615 H   0  0  0  0  0  0  0  0  0  0  0  0
    3.9932   -2.4058   -1.3226 H   0  0  0  0  0  0  0  0  0  0  0  0
    4.2629   -2.1162   -3.7730 H   0  0  0  0  0  0  0  0  0  0  0  0
    4.3543    2.1399   -3.2939 H   0  0  0  0  0  0  0  0  0  0  0  0
    4.0643    1.8990   -0.8497 H   0  0  0  0  0  0  0  0  0  0  0  0
    5.2007    1.2281    1.0862 H   0  0  0  0  0  0  0  0  0  0  0  0
    4.7631    0.9655    3.5168 H   0  0  0  0  0  0  0  0  0  0  0  0
    1.1665   -1.2863    1.0477 H   0  0  0  0  0  0  0  0  0  0  0  0
   -2.1989   -2.1588    2.4961 H   0  0  0  0  0  0  0  0  0  0  0  0
   -4.2825   -1.3316    1.5278 H   0  0  0  0  0  0  0  0  0  0  0  0
   -3.7839    2.1226   -1.0487 H   0  0  0  0  0  0  0  0  0  0  0  0
   -6.2590    1.5305   -2.4538 H   0  0  0  0  0  0  0  0  0  0  0  0
   -5.0799    4.2571   -1.4920 H   0  0  0  0  0  0  0  0  0  0  0  0
   -6.4088    4.0131   -2.7116 H   0  0  0  0  0  0  0  0  0  0  0  0
   -6.4428    3.0450    0.2473 H   0  0  0  0  0  0  0  0  0  0  0  0
   -7.7791    2.8142   -0.9644 H   0  0  0  0  0  0  0  0  0  0  0  0
   -2.0542    0.7599   -1.5177 H   0  0  0  0  0  0  0  0  0  0  0  0
    0.0386   -0.0577   -0.5458 H   0  0  0  0  0  0  0  0  0  0  0  0
  1  2  2  0
  2  3  1  0
  3  4  1  0
  4  5  1  0
  5  6  2  0
  6  7  1  0
  7  8  2  0
  8  9  1  0
  9 10  2  0
 10 11  1  0
 10 12  1  0
 12 13  2  0
  6 14  1  0
 14 15  2  0
 15 16  1  0
 16 17  2  0
  2 18  1  0
 18 19  1  0
 19 20  2  0
 20 21  1  0
 21 22  2  0
 22 23  1  0
 23 24  2  0
 23 25  1  0
 25 26  1  0
 26 27  1  0
 27 28  1  0
 22 29  1  0
 29 30  2  0
 16  4  1  0
 30 19  1  0
 13  7  1  0
 28 26  1  0
  3 31  1  0
  3 32  1  0
  8 33  1  0
  9 34  1  0
 12 35  1  0
 13 36  1  0
 14 37  1  0
 15 38  1  0
 18 39  1  0
 20 40  1  0
 21 41  1  0
 25 42  1  0
 26 43  1  0
 27 44  1  0
 27 45  1  0
 28 46  1  0
 28 47  1  0
 29 48  1  0
 30 49  1  0
M  END
$$$$
