
     RDKit          3D

 67 71  0  0  0  0  0  0  0  0999 V2000
    0.3948    0.4547    1.4225 C   0  0  0  0  0  0  0  0  0  0  0  0
    0.2250   -0.6746    0.5120 N   0  0  0  0  0  0  0  0  0  0  0  0
    1.1802   -0.6659   -0.5959 C   0  0  0  0  0  0  0  0  0  0  0  0
    0.9430    0.4118   -1.6114 C   0  0  0  0  0  0  0  0  0  0  0  0
    1.8938    1.1163   -2.2564 C   0  0  0  0  0  0  0  0  0  0  0  0
    3.3318    0.9284   -2.0699 C   0  0  0  0  0  0  0  0  0  0  0  0
    4.0006    1.5562   -1.0193 C   0  0  0  0  0  0  0  0  0  0  0  0
    5.3797    1.3737   -0.8488 C   0  0  0  0  0  0  0  0  0  0  0  0
    6.1254    0.5569   -1.7117 C   0  0  0  0  0  0  0  0  0  0  0  0
    7.5099    0.3629   -1.5927 N   0  0  0  0  0  0  0  0  0  0  0  0
    8.2693    1.2640   -0.6992 C   0  0  0  0  0  0  0  0  0  0  0  0
    9.7778    1.0370   -0.8866 C   0  0  0  0  0  0  0  0  0  0  0  0
   10.1346   -0.3328   -0.6393 O   0  0  0  0  0  0  0  0  0  0  0  0
    9.4361   -1.1922   -1.5542 C   0  0  0  0  0  0  0  0  0  0  0  0
    7.9102   -1.0555   -1.4140 C   0  0  0  0  0  0  0  0  0  0  0  0
    5.4292   -0.0544   -2.7689 C   0  0  0  0  0  0  0  0  0  0  0  0
    4.0521    0.1217   -2.9483 C   0  0  0  0  0  0  0  0  0  0  0  0
   -0.4751    0.7489   -1.9430 C   0  0  0  0  0  0  0  0  0  0  0  0
   -0.7612    1.4109   -2.9390 O   0  0  0  0  0  0  0  0  0  0  0  0
   -1.5284    0.2584   -1.0014 C   0  0  0  0  0  0  0  0  0  0  0  0
   -2.7453    0.8264   -1.1177 C   0  0  0  0  0  0  0  0  0  0  0  0
   -3.9106    0.4911   -0.2977 C   0  0  0  0  0  0  0  0  0  0  0  0
   -4.4296    1.4357    0.5844 C   0  0  0  0  0  0  0  0  0  0  0  0
   -5.5502    1.1296    1.3692 C   0  0  0  0  0  0  0  0  0  0  0  0
   -6.1918   -0.1177    1.3015 C   0  0  0  0  0  0  0  0  0  0  0  0
   -7.2952   -0.4118    2.0808 N   0  0  0  0  0  0  0  0  0  0  0  0
   -8.1441    0.6422    2.6607 C   0  0  0  0  0  0  0  0  0  0  0  0
   -9.5830    0.1267    2.8370 C   0  0  0  0  0  0  0  0  0  0  0  0
   -9.6922   -1.0310    3.6770 O   0  0  0  0  0  0  0  0  0  0  0  0
   -8.5231   -1.8627    3.6502 C   0  0  0  0  0  0  0  0  0  0  0  0
   -7.7342   -1.7939    2.3312 C   0  0  0  0  0  0  0  0  0  0  0  0
   -5.6497   -1.0480    0.4000 C   0  0  0  0  0  0  0  0  0  0  0  0
   -4.5316   -0.7530   -0.3929 C   0  0  0  0  0  0  0  0  0  0  0  0
   -1.1398   -0.7914   -0.0025 C   0  0  0  0  0  0  0  0  0  0  0  0
    0.2139    1.4256    0.9494 H   0  0  0  0  0  0  0  0  0  0  0  0
   -0.2868    0.3612    2.2750 H   0  0  0  0  0  0  0  0  0  0  0  0
    1.4096    0.4619    1.8359 H   0  0  0  0  0  0  0  0  0  0  0  0
    2.1935   -0.6224   -0.1808 H   0  0  0  0  0  0  0  0  0  0  0  0
    1.1274   -1.6353   -1.1098 H   0  0  0  0  0  0  0  0  0  0  0  0
    1.6311    1.8807   -2.9872 H   0  0  0  0  0  0  0  0  0  0  0  0
    3.4599    2.1960   -0.3258 H   0  0  0  0  0  0  0  0  0  0  0  0
    5.8495    1.8809   -0.0120 H   0  0  0  0  0  0  0  0  0  0  0  0
    8.0461    2.3131   -0.9254 H   0  0  0  0  0  0  0  0  0  0  0  0
    8.0063    1.0558    0.3456 H   0  0  0  0  0  0  0  0  0  0  0  0
   10.3369    1.6579   -0.1792 H   0  0  0  0  0  0  0  0  0  0  0  0
   10.0963    1.3128   -1.8994 H   0  0  0  0  0  0  0  0  0  0  0  0
    9.7584   -0.9592   -2.5766 H   0  0  0  0  0  0  0  0  0  0  0  0
    9.7374   -2.2220   -1.3366 H   0  0  0  0  0  0  0  0  0  0  0  0
    7.6054   -1.3883   -0.4132 H   0  0  0  0  0  0  0  0  0  0  0  0
    7.4408   -1.7153   -2.1515 H   0  0  0  0  0  0  0  0  0  0  0  0
    5.9690   -0.6566   -3.4960 H   0  0  0  0  0  0  0  0  0  0  0  0
    3.5579   -0.3643   -3.7866 H   0  0  0  0  0  0  0  0  0  0  0  0
   -2.9284    1.6061   -1.8566 H   0  0  0  0  0  0  0  0  0  0  0  0
   -3.9686    2.4164    0.6786 H   0  0  0  0  0  0  0  0  0  0  0  0
   -5.8996    1.8922    2.0601 H   0  0  0  0  0  0  0  0  0  0  0  0
   -8.1827    1.5247    2.0119 H   0  0  0  0  0  0  0  0  0  0  0  0
   -7.7310    0.9349    3.6331 H   0  0  0  0  0  0  0  0  0  0  0  0
  -10.2114    0.9098    3.2739 H   0  0  0  0  0  0  0  0  0  0  0  0
  -10.0142   -0.1318    1.8621 H   0  0  0  0  0  0  0  0  0  0  0  0
   -8.8471   -2.8909    3.8420 H   0  0  0  0  0  0  0  0  0  0  0  0
   -7.8846   -1.5593    4.4891 H   0  0  0  0  0  0  0  0  0  0  0  0
   -8.3677   -2.1242    1.4994 H   0  0  0  0  0  0  0  0  0  0  0  0
   -6.8770   -2.4719    2.4163 H   0  0  0  0  0  0  0  0  0  0  0  0
   -6.1084   -2.0247    0.2721 H   0  0  0  0  0  0  0  0  0  0  0  0
   -4.1650   -1.5031   -1.0897 H   0  0  0  0  0  0  0  0  0  0  0  0
   -1.2459   -1.7731   -0.4832 H   0  0  0  0  0  0  0  0  0  0  0  0
   -1.8293   -0.8140    0.8494 H   0  0  0  0  0  0  0  0  0  0  0  0
  1  2  1  0
  2  3  1  0
  3  4  1  0
  4  5  2  3
  5  6  1  0
  6  7  2  0
  7  8  1  0
  8  9  2  0
  9 10  1  0
 10 11  1  0
 11 12  1  0
 12 13  1  0
 13 14  1  0
 14 15  1  0
  9 16  1  0
 16 17  2  0
  4 18  1  0
 18 19  2  0
 18 20  1  0
 20 21  2  3
 21 22  1  0
 22 23  2  0
 23 24  1  0
 24 25  2  0
 25 26  1  0
 26 27  1  0
 27 28  1  0
 28 29  1  0
 29 30  1  0
 30 31  1  0
 25 32  1  0
 32 33  2  0
 20 34  1  0
 34  2  1  0
 17  6  1  0
 33 22  1  0
 15 10  1  0
 31 26  1  0
  1 35  1  0
  1 36  1  0
  1 37  1  0
  3 38  1  0
  3 39  1  0
  5 40  1  0
  7 41  1  0
  8 42  1  0
 11 43  1  0
 11 44  1  0
 12 45  1  0
 12 46  1  0
 14 47  1  0
 14 48  1  0
 15 49  1  0
 15 50  1  0
 16 51  1  0
 17 52  1  0
 21 53  1  0
 23 54  1  0
 24 55  1  0
 27 56  1  0
 27 57  1  0
 28 58  1  0
 28 59  1  0
 30 60  1  0
 30 61  1  0
 31 62  1  0
 31 63  1  0
 32 64  1  0
 33 65  1  0
 34 66  1  0
 34 67  1  0
M  END
$$$$
