
     RDKit          3D

 42 44  0  0  0  0  0  0  0  0999 V2000
    5.9003    0.6687    0.2951 C   0  0  0  0  0  0  0  0  0  0  0  0
    5.0942   -0.5770    0.6296 C   0  0  0  0  0  0  0  0  0  0  0  0
    3.6229   -0.3790    0.3695 C   0  0  0  0  0  0  0  0  0  0  0  0
    3.0772   -0.6692   -0.8856 C   0  0  0  0  0  0  0  0  0  0  0  0
    1.7165   -0.4682   -1.1328 C   0  0  0  0  0  0  0  0  0  0  0  0
    0.8708    0.0364   -0.1325 C   0  0  0  0  0  0  0  0  0  0  0  0
   -0.6184    0.2124   -0.4210 C   0  0  0  0  0  0  0  0  0  0  0  0
   -1.4404   -0.9892    0.0983 C   0  0  0  0  0  0  0  0  0  0  0  0
   -1.2435   -1.2431    1.5803 C   0  0  0  0  0  0  0  0  0  0  0  0
   -1.5228   -0.5025    2.5086 O   0  0  0  0  0  0  0  0  0  0  0  0
   -0.7174   -2.4626    1.8304 O   0  0  0  0  0  0  0  0  0  0  0  0
   -2.9069   -0.7953   -0.2031 C   0  0  0  0  0  0  0  0  0  0  0  0
   -3.7535   -1.9052   -0.3601 C   0  0  0  0  0  0  0  0  0  0  0  0
   -5.1158   -1.7248   -0.5986 C   0  0  0  0  0  0  0  0  0  0  0  0
   -5.6462   -0.4393   -0.6747 C   0  0  0  0  0  0  0  0  0  0  0  0
   -4.8132    0.6685   -0.5137 C   0  0  0  0  0  0  0  0  0  0  0  0
   -3.4418    0.4975   -0.2782 C   0  0  0  0  0  0  0  0  0  0  0  0
   -2.5796    1.7059   -0.1272 C   0  0  0  0  0  0  0  0  0  0  0  0
   -3.1136    2.8126   -0.1115 O   0  0  0  0  0  0  0  0  0  0  0  0
   -1.1891    1.5217   -0.0498 N   0  0  0  0  0  0  0  0  0  0  0  0
   -0.3872    2.7240   -0.2564 C   0  0  0  0  0  0  0  0  0  0  0  0
    1.4265    0.3273    1.1236 C   0  0  0  0  0  0  0  0  0  0  0  0
    2.7868    0.1268    1.3701 C   0  0  0  0  0  0  0  0  0  0  0  0
    5.5774    1.5246    0.8974 H   0  0  0  0  0  0  0  0  0  0  0  0
    6.9629    0.4962    0.4932 H   0  0  0  0  0  0  0  0  0  0  0  0
    5.7917    0.9407   -0.7603 H   0  0  0  0  0  0  0  0  0  0  0  0
    5.4620   -1.4259    0.0404 H   0  0  0  0  0  0  0  0  0  0  0  0
    5.2498   -0.8481    1.6810 H   0  0  0  0  0  0  0  0  0  0  0  0
    3.7108   -1.0544   -1.6818 H   0  0  0  0  0  0  0  0  0  0  0  0
    1.3257   -0.7095   -2.1193 H   0  0  0  0  0  0  0  0  0  0  0  0
   -0.7244    0.2083   -1.5179 H   0  0  0  0  0  0  0  0  0  0  0  0
   -1.0945   -1.8820   -0.4429 H   0  0  0  0  0  0  0  0  0  0  0  0
   -0.6417   -2.4890    2.8080 H   0  0  0  0  0  0  0  0  0  0  0  0
   -3.3581   -2.9171   -0.2899 H   0  0  0  0  0  0  0  0  0  0  0  0
   -5.7668   -2.5877   -0.7178 H   0  0  0  0  0  0  0  0  0  0  0  0
   -6.7088   -0.2962   -0.8549 H   0  0  0  0  0  0  0  0  0  0  0  0
   -5.2376    1.6693   -0.5712 H   0  0  0  0  0  0  0  0  0  0  0  0
   -0.1770    2.8249   -1.3257 H   0  0  0  0  0  0  0  0  0  0  0  0
    0.5472    2.6743    0.3032 H   0  0  0  0  0  0  0  0  0  0  0  0
   -0.9184    3.6198    0.0787 H   0  0  0  0  0  0  0  0  0  0  0  0
    0.8046    0.7320    1.9216 H   0  0  0  0  0  0  0  0  0  0  0  0
    3.1895    0.3736    2.3503 H   0  0  0  0  0  0  0  0  0  0  0  0
  1  2  1  0
  2  3  1  0
  3  4  2  0
  4  5  1  0
  5  6  2  0
  6  7  1  0
  7  8  1  0
  8  9  1  0
  9 10  2  0
  9 11  1  0
  8 12  1  0
 12 13  2  0
 13 14  1  0
 14 15  2  0
 15 16  1  0
 16 17  2  0
 17 18  1  0
 18 19  2  0
 18 20  1  0
 20 21  1  0
  6 22  1  0
 22 23  2  0
 23  3  1  0
 20  7  1  0
 17 12  1  0
  1 24  1  0
  1 25  1  0
  1 26  1  0
  2 27  1  0
  2 28  1  0
  4 29  1  0
  5 30  1  0
  7 31  1  0
  8 32  1  0
 11 33  1  0
 13 34  1  0
 14 35  1  0
 15 36  1  0
 16 37  1  0
 21 38  1  0
 21 39  1  0
 21 40  1  0
 22 41  1  0
 23 42  1  0
M  END
$$$$
