
     RDKit          3D

 41 43  0  0  0  0  0  0  0  0999 V2000
    4.1045    0.7739   -0.2793 Cl  0  0  0  0  0  0  0  0  0  0  0  0
    4.5255   -0.7328   -1.0173 C   0  0  0  0  0  0  0  0  0  0  0  0
    5.6531   -1.3957   -0.5204 C   0  0  0  0  0  0  0  0  0  0  0  0
    6.0599   -2.6076   -1.0768 C   0  0  0  0  0  0  0  0  0  0  0  0
    5.3410   -3.1600   -2.1324 C   0  0  0  0  0  0  0  0  0  0  0  0
    4.2141   -2.5027   -2.6297 C   0  0  0  0  0  0  0  0  0  0  0  0
    3.7852   -1.2787   -2.0800 C   0  0  0  0  0  0  0  0  0  0  0  0
    2.5530   -0.6179   -2.6459 C   0  0  0  0  0  0  0  0  0  0  0  0
    0.9957   -1.4613   -2.2314 S   0  0  0  0  0  0  0  0  0  0  0  0
    0.9368   -1.2050   -0.5239 C   0  0  0  0  0  0  0  0  0  0  0  0
    1.5836   -1.8846    0.3957 N   0  0  0  0  0  0  0  0  0  0  0  0
    1.2720   -1.3268    1.6210 N   0  0  0  0  0  0  0  0  0  0  0  0
    0.4373   -0.3331    1.4050 C   0  0  0  0  0  0  0  0  0  0  0  0
    0.1691   -0.2355    0.0702 N   0  0  0  0  0  0  0  0  0  0  0  0
   -0.7050    0.7250   -0.5479 N   0  0  0  0  0  0  0  0  0  0  0  0
   -2.0831    0.2340   -0.5161 C   0  0  0  0  0  0  0  0  0  0  0  0
   -3.0037    1.2921   -1.0482 C   0  0  0  0  0  0  0  0  0  0  0  0
   -3.8917    2.0176   -0.3474 C   0  0  0  0  0  0  0  0  0  0  0  0
   -4.0684    1.9417    1.1040 C   0  0  0  0  0  0  0  0  0  0  0  0
   -3.0697    2.4018    1.9696 C   0  0  0  0  0  0  0  0  0  0  0  0
   -3.2452    2.3235    3.3525 C   0  0  0  0  0  0  0  0  0  0  0  0
   -4.4217    1.7862    3.8755 C   0  0  0  0  0  0  0  0  0  0  0  0
   -5.4227    1.3292    3.0176 C   0  0  0  0  0  0  0  0  0  0  0  0
   -5.2485    1.4103    1.6349 C   0  0  0  0  0  0  0  0  0  0  0  0
    6.2158   -0.9736    0.3089 H   0  0  0  0  0  0  0  0  0  0  0  0
    6.9318   -3.1222   -0.6812 H   0  0  0  0  0  0  0  0  0  0  0  0
    5.6504   -4.1089   -2.5635 H   0  0  0  0  0  0  0  0  0  0  0  0
    3.6600   -2.9607   -3.4480 H   0  0  0  0  0  0  0  0  0  0  0  0
    2.6399   -0.6124   -3.7397 H   0  0  0  0  0  0  0  0  0  0  0  0
    2.4712    0.4361   -2.3645 H   0  0  0  0  0  0  0  0  0  0  0  0
    0.0025    0.3195    2.1472 H   0  0  0  0  0  0  0  0  0  0  0  0
   -0.4381    0.8711   -1.5197 H   0  0  0  0  0  0  0  0  0  0  0  0
   -2.3678   -0.0613    0.4999 H   0  0  0  0  0  0  0  0  0  0  0  0
   -2.1864   -0.6608   -1.1422 H   0  0  0  0  0  0  0  0  0  0  0  0
   -2.9629    1.4544   -2.1239 H   0  0  0  0  0  0  0  0  0  0  0  0
   -4.5356    2.7304   -0.8578 H   0  0  0  0  0  0  0  0  0  0  0  0
   -2.1502    2.8241    1.5705 H   0  0  0  0  0  0  0  0  0  0  0  0
   -2.4664    2.6822    4.0202 H   0  0  0  0  0  0  0  0  0  0  0  0
   -4.5582    1.7242    4.9520 H   0  0  0  0  0  0  0  0  0  0  0  0
   -6.3390    0.9108    3.4260 H   0  0  0  0  0  0  0  0  0  0  0  0
   -6.0379    1.0535    0.9776 H   0  0  0  0  0  0  0  0  0  0  0  0
  1  2  1  0
  2  3  2  0
  3  4  1  0
  4  5  2  0
  5  6  1  0
  6  7  2  0
  7  8  1  0
  8  9  1  0
  9 10  1  0
 10 11  2  0
 11 12  1  0
 12 13  2  0
 13 14  1  0
 14 15  1  0
 15 16  1  0
 16 17  1  0
 17 18  2  3
 18 19  1  0
 19 20  2  0
 20 21  1  0
 21 22  2  0
 22 23  1  0
 23 24  2  0
  7  2  1  0
 14 10  1  0
 24 19  1  0
  3 25  1  0
  4 26  1  0
  5 27  1  0
  6 28  1  0
  8 29  1  0
  8 30  1  0
 13 31  1  0
 15 32  1  0
 16 33  1  0
 16 34  1  0
 17 35  1  0
 18 36  1  0
 20 37  1  0
 21 38  1  0
 22 39  1  0
 23 40  1  0
 24 41  1  0
M  END
$$$$
