
     RDKit          3D

 43 45  0  0  0  0  0  0  0  0999 V2000
    4.9460   -2.6685   -1.9567 C   0  0  0  0  0  0  0  0  0  0  0  0
    5.6728   -1.5100   -1.5642 O   0  0  0  0  0  0  0  0  0  0  0  0
    4.9799   -0.5574   -0.8648 C   0  0  0  0  0  0  0  0  0  0  0  0
    5.7399    0.5488   -0.4847 C   0  0  0  0  0  0  0  0  0  0  0  0
    5.1822    1.6093    0.2364 C   0  0  0  0  0  0  0  0  0  0  0  0
    3.8259    1.5227    0.5648 C   0  0  0  0  0  0  0  0  0  0  0  0
    3.0286    2.4007    1.2569 N   0  0  0  0  0  0  0  0  0  0  0  0
    1.7518    1.9123    1.3464 C   0  0  0  0  0  0  0  0  0  0  0  0
    1.7012    0.6871    0.7009 C   0  0  0  0  0  0  0  0  0  0  0  0
    0.5188   -0.1805    0.5608 C   0  0  0  0  0  0  0  0  0  0  0  0
    0.6162   -1.2779    0.0117 O   0  0  0  0  0  0  0  0  0  0  0  0
   -0.8078    0.3500    1.1448 C   0  0  0  0  0  0  0  0  0  0  0  0
   -1.9898   -0.4868    0.8259 N   0  0  0  0  0  0  0  0  0  0  0  0
   -3.1610   -0.0940    1.6234 C   0  0  0  0  0  0  0  0  0  0  0  0
   -4.1037    0.8633    0.8952 C   0  0  0  0  0  0  0  0  0  0  0  0
   -4.6518    0.2455   -0.4017 C   0  0  0  0  0  0  0  0  0  0  0  0
   -6.0621   -0.3118   -0.2097 C   0  0  0  0  0  0  0  0  0  0  0  0
   -3.7155   -0.8454   -0.9439 C   0  0  0  0  0  0  0  0  0  0  0  0
   -2.2553   -0.5245   -0.6242 C   0  0  0  0  0  0  0  0  0  0  0  0
    3.0276    0.4370    0.2042 C   0  0  0  0  0  0  0  0  0  0  0  0
    3.6237   -0.6198   -0.5247 C   0  0  0  0  0  0  0  0  0  0  0  0
    4.1332   -2.4107   -2.6437 H   0  0  0  0  0  0  0  0  0  0  0  0
    5.6354   -3.3292   -2.4913 H   0  0  0  0  0  0  0  0  0  0  0  0
    4.5714   -3.2148   -1.0847 H   0  0  0  0  0  0  0  0  0  0  0  0
    6.7932    0.5870   -0.7547 H   0  0  0  0  0  0  0  0  0  0  0  0
    5.7882    2.4615    0.5254 H   0  0  0  0  0  0  0  0  0  0  0  0
    3.3485    3.2788    1.6431 H   0  0  0  0  0  0  0  0  0  0  0  0
    0.9954    2.4846    1.8669 H   0  0  0  0  0  0  0  0  0  0  0  0
   -0.9728    1.3760    0.7950 H   0  0  0  0  0  0  0  0  0  0  0  0
   -0.6648    0.3688    2.2327 H   0  0  0  0  0  0  0  0  0  0  0  0
   -2.8636    0.3410    2.5854 H   0  0  0  0  0  0  0  0  0  0  0  0
   -3.7143   -1.0063    1.8813 H   0  0  0  0  0  0  0  0  0  0  0  0
   -4.9203    1.1641    1.5621 H   0  0  0  0  0  0  0  0  0  0  0  0
   -3.5565    1.7835    0.6510 H   0  0  0  0  0  0  0  0  0  0  0  0
   -4.7189    1.0492   -1.1471 H   0  0  0  0  0  0  0  0  0  0  0  0
   -6.0801   -1.0972    0.5535 H   0  0  0  0  0  0  0  0  0  0  0  0
   -6.7525    0.4788    0.1026 H   0  0  0  0  0  0  0  0  0  0  0  0
   -6.4419   -0.7369   -1.1448 H   0  0  0  0  0  0  0  0  0  0  0  0
   -3.9715   -1.8258   -0.5209 H   0  0  0  0  0  0  0  0  0  0  0  0
   -3.8483   -0.9341   -2.0290 H   0  0  0  0  0  0  0  0  0  0  0  0
   -2.0048    0.4350   -1.0960 H   0  0  0  0  0  0  0  0  0  0  0  0
   -1.6260   -1.2894   -1.0909 H   0  0  0  0  0  0  0  0  0  0  0  0
    3.0032   -1.4641   -0.8038 H   0  0  0  0  0  0  0  0  0  0  0  0
  1  2  1  0
  2  3  1  0
  3  4  2  0
  4  5  1  0
  5  6  2  0
  6  7  1  0
  7  8  1  0
  8  9  2  0
  9 10  1  0
 10 11  2  0
 10 12  1  0
 12 13  1  0
 13 14  1  0
 14 15  1  0
 15 16  1  0
 16 17  1  0
 16 18  1  0
 18 19  1  0
  9 20  1  0
 20 21  2  0
 21  3  1  0
 20  6  1  0
 19 13  1  0
  1 22  1  0
  1 23  1  0
  1 24  1  0
  4 25  1  0
  5 26  1  0
  7 27  1  0
  8 28  1  0
 12 29  1  0
 12 30  1  0
 14 31  1  0
 14 32  1  0
 15 33  1  0
 15 34  1  0
 16 35  1  0
 17 36  1  0
 17 37  1  0
 17 38  1  0
 18 39  1  0
 18 40  1  0
 19 41  1  0
 19 42  1  0
 21 43  1  0
M  END
$$$$
