
     RDKit          3D

 41 43  0  0  0  0  0  0  0  0999 V2000
   -3.9047   -0.9321   -2.1533 O   0  0  0  0  0  0  0  0  0  0  0  0
   -4.3982   -0.5475   -1.1040 C   0  0  0  0  0  0  0  0  0  0  0  0
   -3.7378    0.0028   -0.0203 O   0  0  0  0  0  0  0  0  0  0  0  0
   -2.3487    0.1341   -0.1478 C   0  0  0  0  0  0  0  0  0  0  0  0
   -1.7825    0.9310   -1.1439 C   0  0  0  0  0  0  0  0  0  0  0  0
   -0.3948    1.0730   -1.2012 C   0  0  0  0  0  0  0  0  0  0  0  0
    0.4084    0.4327   -0.2504 C   0  0  0  0  0  0  0  0  0  0  0  0
    1.8735    0.5970   -0.3291 C   0  0  0  0  0  0  0  0  0  0  0  0
    2.6654    0.0587    0.5416 N   0  0  0  0  0  0  0  0  0  0  0  0
    3.9897    0.2940    0.3412 N   0  0  0  0  0  0  0  0  0  0  0  0
    4.9454   -0.2207    1.2007 C   0  0  0  0  0  0  0  0  0  0  0  0
    4.7357   -0.9064    2.1960 O   0  0  0  0  0  0  0  0  0  0  0  0
    6.3409    0.1453    0.7998 C   0  0  0  0  0  0  0  0  0  0  0  0
    7.4182   -0.2964    1.5583 C   0  0  0  0  0  0  0  0  0  0  0  0
    8.6989    0.0649    1.1518 C   0  0  0  0  0  0  0  0  0  0  0  0
    8.8577    0.8478    0.0121 C   0  0  0  0  0  0  0  0  0  0  0  0
    7.7250    1.2435   -0.6838 C   0  0  0  0  0  0  0  0  0  0  0  0
    6.4653    0.9147   -0.3228 N   0  0  0  0  0  0  0  0  0  0  0  0
   -0.1704   -0.3456    0.7590 C   0  0  0  0  0  0  0  0  0  0  0  0
   -1.5569   -0.4910    0.8144 C   0  0  0  0  0  0  0  0  0  0  0  0
   -5.8594   -0.6202   -0.8186 C   0  0  0  0  0  0  0  0  0  0  0  0
   -6.4244   -0.1464    0.3749 C   0  0  0  0  0  0  0  0  0  0  0  0
   -7.8040   -0.2402    0.5863 C   0  0  0  0  0  0  0  0  0  0  0  0
   -8.6198   -0.8061   -0.3925 C   0  0  0  0  0  0  0  0  0  0  0  0
  -10.4832   -0.9306   -0.1031 Br  0  0  0  0  0  0  0  0  0  0  0  0
   -8.0712   -1.2802   -1.5823 C   0  0  0  0  0  0  0  0  0  0  0  0
   -6.6929   -1.1870   -1.7948 C   0  0  0  0  0  0  0  0  0  0  0  0
   -2.4101    1.4295   -1.8770 H   0  0  0  0  0  0  0  0  0  0  0  0
    0.0450    1.6820   -1.9862 H   0  0  0  0  0  0  0  0  0  0  0  0
    2.2602    1.2046   -1.1673 H   0  0  0  0  0  0  0  0  0  0  0  0
    4.3170    0.8466   -0.4488 H   0  0  0  0  0  0  0  0  0  0  0  0
    7.2625   -0.9065    2.4426 H   0  0  0  0  0  0  0  0  0  0  0  0
    9.5655   -0.2624    1.7201 H   0  0  0  0  0  0  0  0  0  0  0  0
    9.8452    1.1433   -0.3269 H   0  0  0  0  0  0  0  0  0  0  0  0
    7.8084    1.8550   -1.5784 H   0  0  0  0  0  0  0  0  0  0  0  0
    0.4544   -0.8382    1.5018 H   0  0  0  0  0  0  0  0  0  0  0  0
   -2.0094   -1.0896    1.5994 H   0  0  0  0  0  0  0  0  0  0  0  0
   -5.8092    0.2995    1.1530 H   0  0  0  0  0  0  0  0  0  0  0  0
   -8.2302    0.1302    1.5157 H   0  0  0  0  0  0  0  0  0  0  0  0
   -8.7029   -1.7228   -2.3486 H   0  0  0  0  0  0  0  0  0  0  0  0
   -6.2716   -1.5606   -2.7271 H   0  0  0  0  0  0  0  0  0  0  0  0
  1  2  2  0
  2  3  1  0
  3  4  1  0
  4  5  2  0
  5  6  1  0
  6  7  2  0
  7  8  1  0
  8  9  2  3
  9 10  1  0
 10 11  1  0
 11 12  2  0
 11 13  1  0
 13 14  2  0
 14 15  1  0
 15 16  2  0
 16 17  1  0
 17 18  2  0
  7 19  1  0
 19 20  2  0
  2 21  1  0
 21 22  2  0
 22 23  1  0
 23 24  2  0
 24 25  1  0
 24 26  1  0
 26 27  2  0
 20  4  1  0
 27 21  1  0
 18 13  1  0
  5 28  1  0
  6 29  1  0
  8 30  1  0
 10 31  1  0
 14 32  1  0
 15 33  1  0
 16 34  1  0
 17 35  1  0
 19 36  1  0
 20 37  1  0
 22 38  1  0
 23 39  1  0
 26 40  1  0
 27 41  1  0
M  END
$$$$
