
     RDKit          3D

 52 55  0  0  0  0  0  0  0  0999 V2000
   -3.6560    0.9610   -1.6842 C   0  0  0  0  0  0  0  0  0  0  0  0
   -3.3540    1.0264   -0.2921 O   0  0  0  0  0  0  0  0  0  0  0  0
   -4.3661    1.5764    0.4731 C   0  0  0  0  0  0  0  0  0  0  0  0
   -5.5157    1.9285   -0.1600 N   0  0  0  0  0  0  0  0  0  0  0  0
   -6.5068    2.4480    0.5948 C   0  0  0  0  0  0  0  0  0  0  0  0
   -6.4115    2.6350    1.9609 C   0  0  0  0  0  0  0  0  0  0  0  0
   -5.2260    2.2676    2.5914 C   0  0  0  0  0  0  0  0  0  0  0  0
   -4.1674    1.7267    1.8469 C   0  0  0  0  0  0  0  0  0  0  0  0
   -2.9250    1.3558    2.5837 C   0  0  0  0  0  0  0  0  0  0  0  0
   -2.9050    1.4057    3.8107 O   0  0  0  0  0  0  0  0  0  0  0  0
   -1.8298    0.9710    1.8492 N   0  0  0  0  0  0  0  0  0  0  0  0
   -0.6056    0.5052    2.4698 C   0  0  0  0  0  0  0  0  0  0  0  0
   -0.7277   -0.9730    2.9069 C   0  0  0  0  0  0  0  0  0  0  0  0
   -0.6569   -1.9371    1.7071 C   0  0  0  0  0  0  0  0  0  0  0  0
    0.6750   -1.8205    0.9390 C   0  0  0  0  0  0  0  0  0  0  0  0
    1.0615   -0.3914    0.7650 C   0  0  0  0  0  0  0  0  0  0  0  0
    0.4787    0.6559    1.4587 C   0  0  0  0  0  0  0  0  0  0  0  0
    1.0947    1.8051    0.9575 C   0  0  0  0  0  0  0  0  0  0  0  0
    1.9893    1.5265    0.0132 N   0  0  0  0  0  0  0  0  0  0  0  0
    2.0206    0.1616   -0.0764 N   0  0  0  0  0  0  0  0  0  0  0  0
    2.9665   -0.4489   -0.9600 C   0  0  0  0  0  0  0  0  0  0  0  0
    3.2333   -1.8225   -0.9552 C   0  0  0  0  0  0  0  0  0  0  0  0
    4.1697   -2.3785   -1.8434 C   0  0  0  0  0  0  0  0  0  0  0  0
    4.4777   -3.8475   -1.7962 C   0  0  0  0  0  0  0  0  0  0  0  0
    4.8642   -1.5433   -2.7255 C   0  0  0  0  0  0  0  0  0  0  0  0
    4.6154   -0.1683   -2.7490 C   0  0  0  0  0  0  0  0  0  0  0  0
    5.3860    0.7294   -3.6714 C   0  0  0  0  0  0  0  0  0  0  0  0
    3.6790    0.3707   -1.8557 C   0  0  0  0  0  0  0  0  0  0  0  0
   -4.5160    0.3090   -1.8735 H   0  0  0  0  0  0  0  0  0  0  0  0
   -2.7900    0.5226   -2.1905 H   0  0  0  0  0  0  0  0  0  0  0  0
   -3.8153    1.9610   -2.1027 H   0  0  0  0  0  0  0  0  0  0  0  0
   -7.4097    2.7182    0.0538 H   0  0  0  0  0  0  0  0  0  0  0  0
   -7.2369    3.0564    2.5245 H   0  0  0  0  0  0  0  0  0  0  0  0
   -5.1275    2.4057    3.6666 H   0  0  0  0  0  0  0  0  0  0  0  0
   -1.9308    0.8560    0.8453 H   0  0  0  0  0  0  0  0  0  0  0  0
   -0.4001    1.1259    3.3498 H   0  0  0  0  0  0  0  0  0  0  0  0
    0.0945   -1.2143    3.5935 H   0  0  0  0  0  0  0  0  0  0  0  0
   -1.6616   -1.1390    3.4561 H   0  0  0  0  0  0  0  0  0  0  0  0
   -1.4911   -1.7270    1.0256 H   0  0  0  0  0  0  0  0  0  0  0  0
   -0.7850   -2.9694    2.0523 H   0  0  0  0  0  0  0  0  0  0  0  0
    0.5594   -2.3227   -0.0271 H   0  0  0  0  0  0  0  0  0  0  0  0
    1.4518   -2.3354    1.5159 H   0  0  0  0  0  0  0  0  0  0  0  0
    0.9142    2.8393    1.2228 H   0  0  0  0  0  0  0  0  0  0  0  0
    2.7638   -2.4953   -0.2506 H   0  0  0  0  0  0  0  0  0  0  0  0
    4.7909   -4.2132   -2.7798 H   0  0  0  0  0  0  0  0  0  0  0  0
    5.2787   -4.0385   -1.0754 H   0  0  0  0  0  0  0  0  0  0  0  0
    3.5929   -4.4224   -1.5037 H   0  0  0  0  0  0  0  0  0  0  0  0
    5.6099   -1.9667   -3.3960 H   0  0  0  0  0  0  0  0  0  0  0  0
    6.2998    1.0763   -3.1791 H   0  0  0  0  0  0  0  0  0  0  0  0
    4.7870    1.5995   -3.9612 H   0  0  0  0  0  0  0  0  0  0  0  0
    5.6576    0.2022   -4.5921 H   0  0  0  0  0  0  0  0  0  0  0  0
    3.5055    1.4464   -1.8704 H   0  0  0  0  0  0  0  0  0  0  0  0
  1  2  1  0
  2  3  1  0
  3  4  2  0
  4  5  1  0
  5  6  2  0
  6  7  1  0
  7  8  2  0
  8  9  1  0
  9 10  2  0
  9 11  1  0
 11 12  1  0
 12 13  1  0
 13 14  1  0
 14 15  1  0
 15 16  1  0
 16 17  2  0
 17 18  1  0
 18 19  2  0
 19 20  1  0
 20 21  1  0
 21 22  2  0
 22 23  1  0
 23 24  1  0
 23 25  2  0
 25 26  1  0
 26 27  1  0
 26 28  2  0
  8  3  1  0
 17 12  1  0
 28 21  1  0
 20 16  1  0
  1 29  1  0
  1 30  1  0
  1 31  1  0
  5 32  1  0
  6 33  1  0
  7 34  1  0
 11 35  1  0
 12 36  1  0
 13 37  1  0
 13 38  1  0
 14 39  1  0
 14 40  1  0
 15 41  1  0
 15 42  1  0
 18 43  1  0
 22 44  1  0
 24 45  1  0
 24 46  1  0
 24 47  1  0
 25 48  1  0
 27 49  1  0
 27 50  1  0
 27 51  1  0
 28 52  1  0
M  END
$$$$
