
     RDKit          3D

 58 61  0  0  0  0  0  0  0  0999 V2000
    7.7853    3.1233   -0.6732 C   0  0  0  0  0  0  0  0  0  0  0  0
    6.9228    1.9223   -0.9225 C   0  0  0  0  0  0  0  0  0  0  0  0
    6.6705    1.0105    0.1094 C   0  0  0  0  0  0  0  0  0  0  0  0
    5.8912   -0.1245   -0.1232 C   0  0  0  0  0  0  0  0  0  0  0  0
    5.3591   -0.3740   -1.3952 C   0  0  0  0  0  0  0  0  0  0  0  0
    4.4931   -1.5843   -1.6284 C   0  0  0  0  0  0  0  0  0  0  0  0
    3.1717   -1.3629   -1.0853 N   0  0  0  0  0  0  0  0  0  0  0  0
    2.7075   -2.0436    0.0135 C   0  0  0  0  0  0  0  0  0  0  0  0
    3.3282   -2.9527    0.5570 O   0  0  0  0  0  0  0  0  0  0  0  0
    1.3541   -1.5818    0.5424 C   0  0  0  0  0  0  0  0  0  0  0  0
    1.4322   -0.1489    1.0725 C   0  0  0  0  0  0  0  0  0  0  0  0
    0.1252    0.2876    1.7389 C   0  0  0  0  0  0  0  0  0  0  0  0
   -1.1346   -0.3683    1.1360 C   0  0  0  0  0  0  0  0  0  0  0  0
   -2.3504    0.5550    1.3252 C   0  0  0  0  0  0  0  0  0  0  0  0
   -3.5962   -0.1601    1.0892 N   0  0  0  0  0  0  0  0  0  0  0  0
   -4.8683    0.3951    1.0778 C   0  0  0  0  0  0  0  0  0  0  0  0
   -5.0522    1.6335    1.6348 N   0  0  0  0  0  0  0  0  0  0  0  0
   -6.2353    2.3197    1.6984 C   0  0  0  0  0  0  0  0  0  0  0  0
   -6.2250    3.8230    2.4401 S   0  0  0  0  0  0  0  0  0  0  0  0
   -7.3509    1.7511    1.1553 N   0  0  0  0  0  0  0  0  0  0  0  0
   -7.2242    0.5783    0.6241 C   0  0  0  0  0  0  0  0  0  0  0  0
   -8.4290   -0.0593    0.0210 C   0  0  0  0  0  0  0  0  0  0  0  0
   -8.3546   -1.2706   -0.5468 C   0  0  0  0  0  0  0  0  0  0  0  0
   -7.1261   -2.0239   -0.5866 C   0  0  0  0  0  0  0  0  0  0  0  0
   -5.9894   -1.5320   -0.0726 C   0  0  0  0  0  0  0  0  0  0  0  0
   -5.9511   -0.2164    0.5464 C   0  0  0  0  0  0  0  0  0  0  0  0
   -0.8967   -0.7225   -0.3403 C   0  0  0  0  0  0  0  0  0  0  0  0
    0.2338   -1.7450   -0.4984 C   0  0  0  0  0  0  0  0  0  0  0  0
    5.6185    0.5361   -2.4288 C   0  0  0  0  0  0  0  0  0  0  0  0
    6.3999    1.6705   -2.1953 C   0  0  0  0  0  0  0  0  0  0  0  0
    7.5568    3.5660    0.3021 H   0  0  0  0  0  0  0  0  0  0  0  0
    7.6148    3.8966   -1.4295 H   0  0  0  0  0  0  0  0  0  0  0  0
    8.8407    2.8368   -0.6980 H   0  0  0  0  0  0  0  0  0  0  0  0
    7.0800    1.1776    1.1029 H   0  0  0  0  0  0  0  0  0  0  0  0
    5.6978   -0.8188    0.6939 H   0  0  0  0  0  0  0  0  0  0  0  0
    4.9610   -2.4736   -1.1944 H   0  0  0  0  0  0  0  0  0  0  0  0
    4.3725   -1.7695   -2.7006 H   0  0  0  0  0  0  0  0  0  0  0  0
    2.6693   -0.5542   -1.4214 H   0  0  0  0  0  0  0  0  0  0  0  0
    1.1199   -2.2391    1.3926 H   0  0  0  0  0  0  0  0  0  0  0  0
    2.2605   -0.0429    1.7841 H   0  0  0  0  0  0  0  0  0  0  0  0
    1.6545    0.5442    0.2511 H   0  0  0  0  0  0  0  0  0  0  0  0
    0.0614    1.3815    1.6817 H   0  0  0  0  0  0  0  0  0  0  0  0
    0.1638    0.0442    2.8081 H   0  0  0  0  0  0  0  0  0  0  0  0
   -1.3224   -1.3043    1.6833 H   0  0  0  0  0  0  0  0  0  0  0  0
   -2.3555    0.9424    2.3519 H   0  0  0  0  0  0  0  0  0  0  0  0
   -2.2778    1.4113    0.6433 H   0  0  0  0  0  0  0  0  0  0  0  0
   -3.5060   -0.9984    0.5276 H   0  0  0  0  0  0  0  0  0  0  0  0
   -4.2647    2.0909    2.0658 H   0  0  0  0  0  0  0  0  0  0  0  0
   -9.3535    0.5048    0.0586 H   0  0  0  0  0  0  0  0  0  0  0  0
   -9.2391   -1.7231   -0.9871 H   0  0  0  0  0  0  0  0  0  0  0  0
   -7.1519   -3.0122   -1.0359 H   0  0  0  0  0  0  0  0  0  0  0  0
   -5.0920   -2.1357   -0.1096 H   0  0  0  0  0  0  0  0  0  0  0  0
   -1.8017   -1.1261   -0.8079 H   0  0  0  0  0  0  0  0  0  0  0  0
   -0.6418    0.1885   -0.8978 H   0  0  0  0  0  0  0  0  0  0  0  0
   -0.1822   -2.7560   -0.3940 H   0  0  0  0  0  0  0  0  0  0  0  0
    0.6098   -1.6912   -1.5267 H   0  0  0  0  0  0  0  0  0  0  0  0
    5.2184    0.3677   -3.4258 H   0  0  0  0  0  0  0  0  0  0  0  0
    6.5982    2.3575   -3.0160 H   0  0  0  0  0  0  0  0  0  0  0  0
  1  2  1  0
  2  3  2  0
  3  4  1  0
  4  5  2  0
  5  6  1  0
  6  7  1  0
  7  8  1  0
  8  9  2  0
  8 10  1  0
 10 11  1  0
 11 12  1  0
 12 13  1  0
 13 14  1  0
 14 15  1  0
 15 16  1  0
 16 17  1  0
 17 18  1  0
 18 19  2  0
 18 20  1  0
 20 21  2  0
 21 22  1  0
 22 23  2  0
 23 24  1  0
 24 25  2  0
 25 26  1  0
 13 27  1  0
 27 28  1  0
  5 29  1  0
 29 30  2  0
 30  2  1  0
 28 10  1  0
 26 16  2  0
 26 21  1  0
  1 31  1  0
  1 32  1  0
  1 33  1  0
  3 34  1  0
  4 35  1  0
  6 36  1  0
  6 37  1  0
  7 38  1  0
 10 39  1  0
 11 40  1  0
 11 41  1  0
 12 42  1  0
 12 43  1  0
 13 44  1  0
 14 45  1  0
 14 46  1  0
 15 47  1  0
 17 48  1  0
 22 49  1  0
 23 50  1  0
 24 51  1  0
 25 52  1  0
 27 53  1  0
 27 54  1  0
 28 55  1  0
 28 56  1  0
 29 57  1  0
 30 58  1  0
M  END
$$$$
