
     RDKit          3D

 47 48  0  0  0  0  0  0  0  0999 V2000
    8.0189   -1.2971    1.0701 C   0  0  0  0  0  0  0  0  0  0  0  0
    7.1055   -0.3604    0.3356 C   0  0  0  0  0  0  0  0  0  0  0  0
    7.1174   -0.3103   -1.0622 C   0  0  0  0  0  0  0  0  0  0  0  0
    6.2475    0.5386   -1.7494 C   0  0  0  0  0  0  0  0  0  0  0  0
    5.3463    1.3511   -1.0515 C   0  0  0  0  0  0  0  0  0  0  0  0
    4.4151    2.2740   -1.7964 C   0  0  0  0  0  0  0  0  0  0  0  0
    2.9577    1.4239   -2.4544 S   0  0  0  0  0  0  0  0  0  0  0  0
    1.8852    1.4686   -1.0925 C   0  0  0  0  0  0  0  0  0  0  0  0
    2.0524    2.1964   -0.0049 N   0  0  0  0  0  0  0  0  0  0  0  0
    0.9641    1.9617    0.8080 N   0  0  0  0  0  0  0  0  0  0  0  0
    0.2049    1.1020    0.1608 C   0  0  0  0  0  0  0  0  0  0  0  0
   -1.1043    0.5228    0.5431 C   0  0  0  0  0  0  0  0  0  0  0  0
   -2.2445    1.3765   -0.0106 C   0  0  0  0  0  0  0  0  0  0  0  0
   -3.5425    0.9722    0.4853 N   0  0  0  0  0  0  0  0  0  0  0  0
   -4.1752   -0.1603    0.0685 C   0  0  0  0  0  0  0  0  0  0  0  0
   -3.7180   -0.9568   -0.7320 O   0  0  0  0  0  0  0  0  0  0  0  0
   -5.3658   -0.2429    0.6937 O   0  0  0  0  0  0  0  0  0  0  0  0
   -6.2602   -1.3539    0.4382 C   0  0  0  0  0  0  0  0  0  0  0  0
   -5.6285   -2.6873    0.8485 C   0  0  0  0  0  0  0  0  0  0  0  0
   -7.4741   -1.0923    1.3379 C   0  0  0  0  0  0  0  0  0  0  0  0
   -6.7250   -1.3654   -1.0204 C   0  0  0  0  0  0  0  0  0  0  0  0
    0.7183    0.7475   -1.0547 O   0  0  0  0  0  0  0  0  0  0  0  0
    5.3221    1.2814    0.3480 C   0  0  0  0  0  0  0  0  0  0  0  0
    6.1903    0.4325    1.0334 C   0  0  0  0  0  0  0  0  0  0  0  0
    7.5502   -2.2823    1.1643 H   0  0  0  0  0  0  0  0  0  0  0  0
    8.2491   -0.9195    2.0710 H   0  0  0  0  0  0  0  0  0  0  0  0
    8.9696   -1.4047    0.5398 H   0  0  0  0  0  0  0  0  0  0  0  0
    7.8068   -0.9342   -1.6269 H   0  0  0  0  0  0  0  0  0  0  0  0
    6.2779    0.5606   -2.8379 H   0  0  0  0  0  0  0  0  0  0  0  0
    4.9588    2.7016   -2.6480 H   0  0  0  0  0  0  0  0  0  0  0  0
    4.1356    3.1341   -1.1792 H   0  0  0  0  0  0  0  0  0  0  0  0
   -1.1786   -0.5056    0.1734 H   0  0  0  0  0  0  0  0  0  0  0  0
   -1.1720    0.4701    1.6349 H   0  0  0  0  0  0  0  0  0  0  0  0
   -2.1156    2.4287    0.2682 H   0  0  0  0  0  0  0  0  0  0  0  0
   -2.2625    1.3220   -1.1060 H   0  0  0  0  0  0  0  0  0  0  0  0
   -4.0497    1.5535    1.1370 H   0  0  0  0  0  0  0  0  0  0  0  0
   -4.8057   -2.9737    0.1906 H   0  0  0  0  0  0  0  0  0  0  0  0
   -6.3626   -3.4973    0.8231 H   0  0  0  0  0  0  0  0  0  0  0  0
   -5.2143   -2.6252    1.8626 H   0  0  0  0  0  0  0  0  0  0  0  0
   -7.9312   -0.1253    1.1060 H   0  0  0  0  0  0  0  0  0  0  0  0
   -7.1737   -1.0467    2.3907 H   0  0  0  0  0  0  0  0  0  0  0  0
   -8.2352   -1.8703    1.2301 H   0  0  0  0  0  0  0  0  0  0  0  0
   -5.9075   -1.6041   -1.7066 H   0  0  0  0  0  0  0  0  0  0  0  0
   -7.1053   -0.3806   -1.3135 H   0  0  0  0  0  0  0  0  0  0  0  0
   -7.5145   -2.1084   -1.1827 H   0  0  0  0  0  0  0  0  0  0  0  0
    4.6251    1.8914    0.9176 H   0  0  0  0  0  0  0  0  0  0  0  0
    6.1476    0.3931    2.1200 H   0  0  0  0  0  0  0  0  0  0  0  0
  1  2  1  0
  2  3  2  0
  3  4  1  0
  4  5  2  0
  5  6  1  0
  6  7  1  0
  7  8  1  0
  8  9  2  0
  9 10  1  0
 10 11  2  0
 11 12  1  0
 12 13  1  0
 13 14  1  0
 14 15  1  0
 15 16  2  0
 15 17  1  0
 17 18  1  0
 18 19  1  0
 18 20  1  0
 18 21  1  0
 11 22  1  0
  5 23  1  0
 23 24  2  0
 24  2  1  0
 22  8  1  0
  1 25  1  0
  1 26  1  0
  1 27  1  0
  3 28  1  0
  4 29  1  0
  6 30  1  0
  6 31  1  0
 12 32  1  0
 12 33  1  0
 13 34  1  0
 13 35  1  0
 14 36  1  0
 19 37  1  0
 19 38  1  0
 19 39  1  0
 20 40  1  0
 20 41  1  0
 20 42  1  0
 21 43  1  0
 21 44  1  0
 21 45  1  0
 23 46  1  0
 24 47  1  0
M  END
$$$$
