
     RDKit          3D

 38 40  0  0  0  0  0  0  0  0999 V2000
   -1.3507   -0.2381   -1.5252 O   0  0  0  0  0  0  0  0  0  0  0  0
   -0.9169    0.0812   -0.4277 C   0  0  0  0  0  0  0  0  0  0  0  0
   -1.7308    0.5392    0.7635 C   0  0  0  0  0  0  0  0  0  0  0  0
   -3.2079    0.6831    0.4800 C   0  0  0  0  0  0  0  0  0  0  0  0
   -3.7312    1.9079    0.0458 C   0  0  0  0  0  0  0  0  0  0  0  0
   -5.0927    2.0387   -0.2271 C   0  0  0  0  0  0  0  0  0  0  0  0
   -5.9446    0.9450   -0.0773 C   0  0  0  0  0  0  0  0  0  0  0  0
   -5.4418   -0.2966    0.3384 C   0  0  0  0  0  0  0  0  0  0  0  0
   -6.3672   -1.4750    0.5139 C   0  0  0  0  0  0  0  0  0  0  0  0
   -5.7445   -2.6772    0.3603 F   0  0  0  0  0  0  0  0  0  0  0  0
   -7.4042   -1.4788   -0.3701 F   0  0  0  0  0  0  0  0  0  0  0  0
   -6.9337   -1.5056    1.7524 F   0  0  0  0  0  0  0  0  0  0  0  0
   -4.0705   -0.4148    0.6205 C   0  0  0  0  0  0  0  0  0  0  0  0
    0.4034    0.0654   -0.0883 O   0  0  0  0  0  0  0  0  0  0  0  0
    1.2455   -0.3601   -1.1593 C   0  0  0  0  0  0  0  0  0  0  0  0
    2.6032   -0.3258   -0.6862 N   0  0  0  0  0  0  0  0  0  0  0  0
    3.2170   -1.3713   -0.0589 C   0  0  0  0  0  0  0  0  0  0  0  0
    2.7895   -2.4828    0.1854 O   0  0  0  0  0  0  0  0  0  0  0  0
    4.5573   -0.9081    0.2972 C   0  0  0  0  0  0  0  0  0  0  0  0
    5.5912   -1.5630    0.9369 C   0  0  0  0  0  0  0  0  0  0  0  0
    6.7728   -0.8431    1.1411 C   0  0  0  0  0  0  0  0  0  0  0  0
    6.8899    0.4945    0.7078 C   0  0  0  0  0  0  0  0  0  0  0  0
    5.8275    1.1359    0.0627 C   0  0  0  0  0  0  0  0  0  0  0  0
    4.6722    0.4037   -0.1277 C   0  0  0  0  0  0  0  0  0  0  0  0
    3.4051    0.7768   -0.7546 C   0  0  0  0  0  0  0  0  0  0  0  0
    3.1706    1.8730   -1.2251 O   0  0  0  0  0  0  0  0  0  0  0  0
   -1.5876   -0.1815    1.5776 H   0  0  0  0  0  0  0  0  0  0  0  0
   -1.3351    1.5037    1.1041 H   0  0  0  0  0  0  0  0  0  0  0  0
   -3.0815    2.7709   -0.0864 H   0  0  0  0  0  0  0  0  0  0  0  0
   -5.4893    2.9944   -0.5616 H   0  0  0  0  0  0  0  0  0  0  0  0
   -7.0054    1.0616   -0.2945 H   0  0  0  0  0  0  0  0  0  0  0  0
   -3.6735   -1.3769    0.9448 H   0  0  0  0  0  0  0  0  0  0  0  0
    1.1454    0.3236   -2.0099 H   0  0  0  0  0  0  0  0  0  0  0  0
    0.9926   -1.3860   -1.4499 H   0  0  0  0  0  0  0  0  0  0  0  0
    5.4872   -2.5920    1.2658 H   0  0  0  0  0  0  0  0  0  0  0  0
    7.6146   -1.3194    1.6413 H   0  0  0  0  0  0  0  0  0  0  0  0
    7.8207    1.0331    0.8793 H   0  0  0  0  0  0  0  0  0  0  0  0
    5.9038    2.1644   -0.2748 H   0  0  0  0  0  0  0  0  0  0  0  0
  1  2  2  0
  2  3  1  0
  3  4  1  0
  4  5  2  0
  5  6  1  0
  6  7  2  0
  7  8  1  0
  8  9  1  0
  9 10  1  0
  9 11  1  0
  9 12  1  0
  8 13  2  0
  2 14  1  0
 14 15  1  0
 15 16  1  0
 16 17  1  0
 17 18  2  0
 17 19  1  0
 19 20  2  0
 20 21  1  0
 21 22  2  0
 22 23  1  0
 23 24  2  0
 24 25  1  0
 25 26  2  0
 13  4  1  0
 25 16  1  0
 24 19  1  0
  3 27  1  0
  3 28  1  0
  5 29  1  0
  6 30  1  0
  7 31  1  0
 13 32  1  0
 15 33  1  0
 15 34  1  0
 20 35  1  0
 21 36  1  0
 22 37  1  0
 23 38  1  0
M  END
$$$$
