
     RDKit          3D

 35 36  0  0  0  0  0  0  0  0999 V2000
    6.0662   -0.7898   -2.5027 C   0  0  0  0  0  0  0  0  0  0  0  0
    4.6899   -0.5695   -1.9501 C   0  0  0  0  0  0  0  0  0  0  0  0
    3.5597   -0.8533   -2.7200 C   0  0  0  0  0  0  0  0  0  0  0  0
    2.2785   -0.6740   -2.1881 C   0  0  0  0  0  0  0  0  0  0  0  0
    2.0999   -0.2028   -0.8808 C   0  0  0  0  0  0  0  0  0  0  0  0
    0.7696   -0.0768   -0.4238 N   0  0  0  0  0  0  0  0  0  0  0  0
    0.2186    0.6365    0.6336 C   0  0  0  0  0  0  0  0  0  0  0  0
    0.9159    1.8881    1.4940 S   0  0  0  0  0  0  0  0  0  0  0  0
   -1.0844    0.1963    0.8382 N   0  0  0  0  0  0  0  0  0  0  0  0
   -1.9674    0.6453    1.9003 C   0  0  0  0  0  0  0  0  0  0  0  0
   -3.3166    0.0837    1.6145 C   0  0  0  0  0  0  0  0  0  0  0  0
   -3.9228   -1.0511    2.1256 C   0  0  0  0  0  0  0  0  0  0  0  0
   -5.2045   -1.1601    1.5400 C   0  0  0  0  0  0  0  0  0  0  0  0
   -5.3551   -0.0916    0.6862 C   0  0  0  0  0  0  0  0  0  0  0  0
   -4.2099    0.6604    0.7369 N   0  0  0  0  0  0  0  0  0  0  0  0
   -3.9887    1.8693   -0.0282 C   0  0  0  0  0  0  0  0  0  0  0  0
    3.2302    0.0406   -0.1023 C   0  0  0  0  0  0  0  0  0  0  0  0
    4.5143   -0.1386   -0.6322 C   0  0  0  0  0  0  0  0  0  0  0  0
    6.0838   -0.6236   -3.5849 H   0  0  0  0  0  0  0  0  0  0  0  0
    6.7826   -0.0925   -2.0558 H   0  0  0  0  0  0  0  0  0  0  0  0
    6.3930   -1.8137   -2.2966 H   0  0  0  0  0  0  0  0  0  0  0  0
    3.6666   -1.2148   -3.7402 H   0  0  0  0  0  0  0  0  0  0  0  0
    1.4228   -0.8981   -2.8197 H   0  0  0  0  0  0  0  0  0  0  0  0
    0.0708   -0.4354   -1.0615 H   0  0  0  0  0  0  0  0  0  0  0  0
   -1.2600   -0.7539    0.5407 H   0  0  0  0  0  0  0  0  0  0  0  0
   -1.9866    1.7380    1.9465 H   0  0  0  0  0  0  0  0  0  0  0  0
   -1.5782    0.2659    2.8515 H   0  0  0  0  0  0  0  0  0  0  0  0
   -3.4848   -1.7286    2.8480 H   0  0  0  0  0  0  0  0  0  0  0  0
   -5.9404   -1.9325    1.7223 H   0  0  0  0  0  0  0  0  0  0  0  0
   -6.1860    0.1910    0.0526 H   0  0  0  0  0  0  0  0  0  0  0  0
   -3.1023    1.7302   -0.6517 H   0  0  0  0  0  0  0  0  0  0  0  0
   -3.8499    2.6989    0.6694 H   0  0  0  0  0  0  0  0  0  0  0  0
   -4.8569    2.0635   -0.6632 H   0  0  0  0  0  0  0  0  0  0  0  0
    3.1555    0.3366    0.9377 H   0  0  0  0  0  0  0  0  0  0  0  0
    5.3768    0.0562    0.0017 H   0  0  0  0  0  0  0  0  0  0  0  0
  1  2  1  0
  2  3  2  0
  3  4  1  0
  4  5  2  0
  5  6  1  0
  6  7  1  0
  7  8  2  0
  7  9  1  0
  9 10  1  0
 10 11  1  0
 11 12  2  0
 12 13  1  0
 13 14  2  0
 14 15  1  0
 15 16  1  0
  5 17  1  0
 17 18  2  0
 18  2  1  0
 15 11  1  0
  1 19  1  0
  1 20  1  0
  1 21  1  0
  3 22  1  0
  4 23  1  0
  6 24  1  0
  9 25  1  0
 10 26  1  0
 10 27  1  0
 12 28  1  0
 13 29  1  0
 14 30  1  0
 16 31  1  0
 16 32  1  0
 16 33  1  0
 17 34  1  0
 18 35  1  0
M  END
$$$$
