
     RDKit          3D

 57 58  0  0  0  0  0  0  0  0999 V2000
    7.6958    0.9654    0.5333 C   0  0  0  0  0  0  0  0  0  0  0  0
    6.5397    1.5695   -0.2185 C   0  0  0  0  0  0  0  0  0  0  0  0
    6.7650    2.6429   -1.0955 C   0  0  0  0  0  0  0  0  0  0  0  0
    5.7084    3.2133   -1.8038 C   0  0  0  0  0  0  0  0  0  0  0  0
    4.4186    2.7179   -1.6384 C   0  0  0  0  0  0  0  0  0  0  0  0
    4.1818    1.6477   -0.7694 C   0  0  0  0  0  0  0  0  0  0  0  0
    5.2365    1.0603   -0.0625 C   0  0  0  0  0  0  0  0  0  0  0  0
    5.1145    0.0090    0.8114 O   0  0  0  0  0  0  0  0  0  0  0  0
    3.8756   -0.6973    0.8680 C   0  0  0  0  0  0  0  0  0  0  0  0
    2.9832   -0.1088    1.9496 C   0  0  0  0  0  0  0  0  0  0  0  0
    1.5760   -0.6108    1.8177 C   0  0  0  0  0  0  0  0  0  0  0  0
    0.5894    0.1142    1.7701 O   0  0  0  0  0  0  0  0  0  0  0  0
    1.5358   -1.9718    1.7869 O   0  0  0  0  0  0  0  0  0  0  0  0
    0.2232   -2.5085    1.5797 C   0  0  0  0  0  0  0  0  0  0  0  0
   -0.3345   -2.1404    0.2007 C   0  0  0  0  0  0  0  0  0  0  0  0
    0.4242   -1.8870   -0.7433 O   0  0  0  0  0  0  0  0  0  0  0  0
   -1.8208   -2.0035    0.0549 C   0  0  0  0  0  0  0  0  0  0  0  0
   -2.3466   -1.0798   -0.7813 C   0  0  0  0  0  0  0  0  0  0  0  0
   -1.5518   -0.2941   -1.6125 N   0  0  0  0  0  0  0  0  0  0  0  0
   -3.7319   -0.9201   -0.8334 N   0  0  0  0  0  0  0  0  0  0  0  0
   -4.3235    0.0216   -1.8029 C   0  0  0  0  0  0  0  0  0  0  0  0
   -4.4001    1.4759   -1.2887 C   0  0  0  0  0  0  0  0  0  0  0  0
   -4.7766    2.4088   -2.4419 C   0  0  0  0  0  0  0  0  0  0  0  0
   -5.4004    1.6424   -0.1426 C   0  0  0  0  0  0  0  0  0  0  0  0
   -4.6229   -1.6472   -0.0424 C   0  0  0  0  0  0  0  0  0  0  0  0
   -5.8463   -1.5236   -0.1377 O   0  0  0  0  0  0  0  0  0  0  0  0
   -4.0565   -2.5307    0.8592 N   0  0  0  0  0  0  0  0  0  0  0  0
   -4.9533   -3.3238    1.6821 C   0  0  0  0  0  0  0  0  0  0  0  0
   -2.7183   -2.8426    0.8742 C   0  0  0  0  0  0  0  0  0  0  0  0
   -2.2495   -3.7800    1.5209 O   0  0  0  0  0  0  0  0  0  0  0  0
    7.5182    1.0184    1.6147 H   0  0  0  0  0  0  0  0  0  0  0  0
    7.8356   -0.0820    0.2372 H   0  0  0  0  0  0  0  0  0  0  0  0
    8.6301    1.4984    0.3250 H   0  0  0  0  0  0  0  0  0  0  0  0
    7.7682    3.0388   -1.2315 H   0  0  0  0  0  0  0  0  0  0  0  0
    5.8922    4.0432   -2.4822 H   0  0  0  0  0  0  0  0  0  0  0  0
    3.5927    3.1641   -2.1870 H   0  0  0  0  0  0  0  0  0  0  0  0
    3.1581    1.3041   -0.6662 H   0  0  0  0  0  0  0  0  0  0  0  0
    3.3890   -0.7710   -0.1125 H   0  0  0  0  0  0  0  0  0  0  0  0
    4.1250   -1.7303    1.1399 H   0  0  0  0  0  0  0  0  0  0  0  0
    3.3625   -0.3492    2.9496 H   0  0  0  0  0  0  0  0  0  0  0  0
    2.9631    0.9857    1.8832 H   0  0  0  0  0  0  0  0  0  0  0  0
    0.3120   -3.5982    1.6331 H   0  0  0  0  0  0  0  0  0  0  0  0
   -0.4321   -2.1633    2.3867 H   0  0  0  0  0  0  0  0  0  0  0  0
   -0.5536   -0.5314   -1.5422 H   0  0  0  0  0  0  0  0  0  0  0  0
   -1.6667    0.6966   -1.4131 H   0  0  0  0  0  0  0  0  0  0  0  0
   -3.7472   -0.0280   -2.7359 H   0  0  0  0  0  0  0  0  0  0  0  0
   -5.3301   -0.3177   -2.0776 H   0  0  0  0  0  0  0  0  0  0  0  0
   -3.4194    1.7894   -0.9148 H   0  0  0  0  0  0  0  0  0  0  0  0
   -4.8215    3.4495   -2.1026 H   0  0  0  0  0  0  0  0  0  0  0  0
   -4.0349    2.3528   -3.2463 H   0  0  0  0  0  0  0  0  0  0  0  0
   -5.7537    2.1461   -2.8615 H   0  0  0  0  0  0  0  0  0  0  0  0
   -5.4762    2.6938    0.1570 H   0  0  0  0  0  0  0  0  0  0  0  0
   -6.4008    1.3028   -0.4328 H   0  0  0  0  0  0  0  0  0  0  0  0
   -5.0869    1.0768    0.7404 H   0  0  0  0  0  0  0  0  0  0  0  0
   -5.2743   -4.1954    1.0983 H   0  0  0  0  0  0  0  0  0  0  0  0
   -5.8360   -2.7419    1.9699 H   0  0  0  0  0  0  0  0  0  0  0  0
   -4.4479   -3.6711    2.5912 H   0  0  0  0  0  0  0  0  0  0  0  0
  1  2  1  0
  2  3  2  0
  3  4  1  0
  4  5  2  0
  5  6  1  0
  6  7  2  0
  7  8  1  0
  8  9  1  0
  9 10  1  0
 10 11  1  0
 11 12  2  0
 11 13  1  0
 13 14  1  0
 14 15  1  0
 15 16  2  0
 15 17  1  0
 17 18  2  0
 18 19  1  0
 18 20  1  0
 20 21  1  0
 21 22  1  0
 22 23  1  0
 22 24  1  0
 20 25  1  0
 25 26  2  0
 25 27  1  0
 27 28  1  0
 27 29  1  0
 29 30  2  0
  7  2  1  0
 29 17  1  0
  1 31  1  0
  1 32  1  0
  1 33  1  0
  3 34  1  0
  4 35  1  0
  5 36  1  0
  6 37  1  0
  9 38  1  0
  9 39  1  0
 10 40  1  0
 10 41  1  0
 14 42  1  0
 14 43  1  0
 19 44  1  0
 19 45  1  0
 21 46  1  0
 21 47  1  0
 22 48  1  0
 23 49  1  0
 23 50  1  0
 23 51  1  0
 24 52  1  0
 24 53  1  0
 24 54  1  0
 28 55  1  0
 28 56  1  0
 28 57  1  0
M  END
$$$$
