
     RDKit          3D

 47 49  0  0  0  0  0  0  0  0999 V2000
   -6.2201   -0.1368   -3.1579 C   0  0  0  0  0  0  0  0  0  0  0  0
   -6.0895   -0.2553   -1.7489 O   0  0  0  0  0  0  0  0  0  0  0  0
   -4.9807    0.3037   -1.1706 C   0  0  0  0  0  0  0  0  0  0  0  0
   -3.9244    0.8971   -1.8661 C   0  0  0  0  0  0  0  0  0  0  0  0
   -2.8451    1.4591   -1.1718 C   0  0  0  0  0  0  0  0  0  0  0  0
   -2.8126    1.4403    0.2261 C   0  0  0  0  0  0  0  0  0  0  0  0
   -1.6975    2.0524    0.9478 C   0  0  0  0  0  0  0  0  0  0  0  0
   -0.5480    1.4416    1.2673 C   0  0  0  0  0  0  0  0  0  0  0  0
    0.7183    2.2423    2.1207 S   0  0  0  0  0  0  0  0  0  0  0  0
    1.7640    0.8289    2.1003 C   0  0  0  0  0  0  0  0  0  0  0  0
    3.2665    0.8433    2.8227 S   0  0  0  0  0  0  0  0  0  0  0  0
    1.1382   -0.2066    1.4379 N   0  0  0  0  0  0  0  0  0  0  0  0
    1.7168   -1.5368    1.2091 C   0  0  0  0  0  0  0  0  0  0  0  0
    2.1235   -1.7756   -0.2420 C   0  0  0  0  0  0  0  0  0  0  0  0
    3.3186   -0.9296   -0.6056 C   0  0  0  0  0  0  0  0  0  0  0  0
    3.1746    0.1699   -1.1395 O   0  0  0  0  0  0  0  0  0  0  0  0
    4.5137   -1.5036   -0.2637 N   0  0  0  0  0  0  0  0  0  0  0  0
    5.5351   -0.7382   -0.1368 C   0  0  0  0  0  0  0  0  0  0  0  0
    5.6806    0.6093   -0.2903 N   0  0  0  0  0  0  0  0  0  0  0  0
    7.0420    1.0792   -0.4164 C   0  0  0  0  0  0  0  0  0  0  0  0
    7.8865    0.1564    0.4547 C   0  0  0  0  0  0  0  0  0  0  0  0
    7.0798   -1.4705    0.2953 S   0  0  0  0  0  0  0  0  0  0  0  0
   -0.1461    0.0370    0.9720 C   0  0  0  0  0  0  0  0  0  0  0  0
   -0.8514   -0.7879    0.4069 O   0  0  0  0  0  0  0  0  0  0  0  0
   -3.8603    0.8453    0.9292 C   0  0  0  0  0  0  0  0  0  0  0  0
   -4.9216    0.2639    0.2312 C   0  0  0  0  0  0  0  0  0  0  0  0
   -5.9418   -0.2802    0.9724 O   0  0  0  0  0  0  0  0  0  0  0  0
   -5.7747   -1.6935    1.0639 C   0  0  0  0  0  0  0  0  0  0  0  0
   -5.4356   -0.6999   -3.6707 H   0  0  0  0  0  0  0  0  0  0  0  0
   -7.1826   -0.5729   -3.4439 H   0  0  0  0  0  0  0  0  0  0  0  0
   -6.2232    0.9122   -3.4711 H   0  0  0  0  0  0  0  0  0  0  0  0
   -3.9090    0.9447   -2.9495 H   0  0  0  0  0  0  0  0  0  0  0  0
   -2.0335    1.9142   -1.7349 H   0  0  0  0  0  0  0  0  0  0  0  0
   -1.8664    3.0917    1.2248 H   0  0  0  0  0  0  0  0  0  0  0  0
    2.5655   -1.7092    1.8757 H   0  0  0  0  0  0  0  0  0  0  0  0
    0.9512   -2.2752    1.4784 H   0  0  0  0  0  0  0  0  0  0  0  0
    1.3126   -1.5483   -0.9424 H   0  0  0  0  0  0  0  0  0  0  0  0
    2.3827   -2.8308   -0.3900 H   0  0  0  0  0  0  0  0  0  0  0  0
    4.9528    1.0610   -0.8407 H   0  0  0  0  0  0  0  0  0  0  0  0
    7.1282    2.1200   -0.0915 H   0  0  0  0  0  0  0  0  0  0  0  0
    7.3560    1.0274   -1.4661 H   0  0  0  0  0  0  0  0  0  0  0  0
    8.9323    0.1260    0.1390 H   0  0  0  0  0  0  0  0  0  0  0  0
    7.8353    0.4659    1.5038 H   0  0  0  0  0  0  0  0  0  0  0  0
   -3.8622    0.8237    2.0152 H   0  0  0  0  0  0  0  0  0  0  0  0
   -5.7025   -2.1680    0.0778 H   0  0  0  0  0  0  0  0  0  0  0  0
   -4.8935   -1.9374    1.6671 H   0  0  0  0  0  0  0  0  0  0  0  0
   -6.6523   -2.1001    1.5735 H   0  0  0  0  0  0  0  0  0  0  0  0
  1  2  1  0
  2  3  1  0
  3  4  2  0
  4  5  1  0
  5  6  2  0
  6  7  1  0
  7  8  2  3
  8  9  1  0
  9 10  1  0
 10 11  2  0
 10 12  1  0
 12 13  1  0
 13 14  1  0
 14 15  1  0
 15 16  2  0
 15 17  1  0
 17 18  2  3
 18 19  1  0
 19 20  1  0
 20 21  1  0
 21 22  1  0
 12 23  1  0
 23 24  2  0
  6 25  1  0
 25 26  2  0
 26 27  1  0
 27 28  1  0
 26  3  1  0
 23  8  1  0
 22 18  1  0
  1 29  1  0
  1 30  1  0
  1 31  1  0
  4 32  1  0
  5 33  1  0
  7 34  1  0
 13 35  1  0
 13 36  1  0
 14 37  1  0
 14 38  1  0
 19 39  1  0
 20 40  1  0
 20 41  1  0
 21 42  1  0
 21 43  1  0
 25 44  1  0
 28 45  1  0
 28 46  1  0
 28 47  1  0
M  END
$$$$
