
     RDKit          3D

 52 54  0  0  0  0  0  0  0  0999 V2000
   -2.9111    2.0537   -2.7073 C   0  0  0  0  0  0  0  0  0  0  0  0
   -3.6171    1.9676   -1.3409 C   0  0  0  0  0  0  0  0  0  0  0  0
   -4.6129    3.1417   -1.2556 C   0  0  0  0  0  0  0  0  0  0  0  0
   -2.5932    2.1117   -0.1783 C   0  0  0  0  0  0  0  0  0  0  0  0
   -1.8083    0.8487    0.0324 C   0  0  0  0  0  0  0  0  0  0  0  0
   -2.3349   -0.3587   -0.3968 C   0  0  0  0  0  0  0  0  0  0  0  0
   -1.2472   -1.6422   -0.1321 S   0  0  0  0  0  0  0  0  0  0  0  0
   -0.0707   -0.6218    0.5329 C   0  0  0  0  0  0  0  0  0  0  0  0
    1.1704   -1.1077    0.9150 N   0  0  0  0  0  0  0  0  0  0  0  0
    1.6209   -2.4136    0.8809 C   0  0  0  0  0  0  0  0  0  0  0  0
    0.9869   -3.4174    0.5644 O   0  0  0  0  0  0  0  0  0  0  0  0
    3.0726   -2.5525    1.3511 C   0  0  0  0  0  0  0  0  0  0  0  0
    3.7403   -1.2942    1.3815 O   0  0  0  0  0  0  0  0  0  0  0  0
    5.1093   -1.3455    1.4160 C   0  0  0  0  0  0  0  0  0  0  0  0
    5.8219   -2.3521    2.0763 C   0  0  0  0  0  0  0  0  0  0  0  0
    7.2200   -2.3295    2.0887 C   0  0  0  0  0  0  0  0  0  0  0  0
    7.9068   -1.2966    1.4515 C   0  0  0  0  0  0  0  0  0  0  0  0
    9.6270   -1.2790    1.4692 Cl  0  0  0  0  0  0  0  0  0  0  0  0
    7.2116   -0.2786    0.8058 C   0  0  0  0  0  0  0  0  0  0  0  0
    5.8154   -0.3011    0.7948 C   0  0  0  0  0  0  0  0  0  0  0  0
    4.9882    0.9752   -0.0248 Cl  0  0  0  0  0  0  0  0  0  0  0  0
   -0.5014    0.6961    0.6388 C   0  0  0  0  0  0  0  0  0  0  0  0
    0.3335    1.7195    1.2691 C   0  0  0  0  0  0  0  0  0  0  0  0
   -0.3146    2.8035    1.7898 N   0  0  0  0  0  0  0  0  0  0  0  0
    1.5476    1.6050    1.4122 O   0  0  0  0  0  0  0  0  0  0  0  0
   -3.6947   -0.5508   -1.0528 C   0  0  0  0  0  0  0  0  0  0  0  0
   -3.5831   -1.2473   -2.4230 C   0  0  0  0  0  0  0  0  0  0  0  0
   -4.6010   -1.4042   -0.1415 C   0  0  0  0  0  0  0  0  0  0  0  0
   -4.4198    0.7370   -1.2030 N   0  0  0  0  0  0  0  0  0  0  0  0
   -3.6164    1.8933   -3.5309 H   0  0  0  0  0  0  0  0  0  0  0  0
   -2.4627    3.0443   -2.8512 H   0  0  0  0  0  0  0  0  0  0  0  0
   -2.1018    1.3247   -2.8084 H   0  0  0  0  0  0  0  0  0  0  0  0
   -4.0924    4.1045   -1.3185 H   0  0  0  0  0  0  0  0  0  0  0  0
   -5.3452    3.1072   -2.0709 H   0  0  0  0  0  0  0  0  0  0  0  0
   -5.1679    3.1297   -0.3096 H   0  0  0  0  0  0  0  0  0  0  0  0
   -3.1226    2.3370    0.7569 H   0  0  0  0  0  0  0  0  0  0  0  0
   -1.9189    2.9502   -0.3878 H   0  0  0  0  0  0  0  0  0  0  0  0
    1.8470   -0.3997    1.2146 H   0  0  0  0  0  0  0  0  0  0  0  0
    3.0430   -2.9804    2.3596 H   0  0  0  0  0  0  0  0  0  0  0  0
    3.5702   -3.2369    0.6527 H   0  0  0  0  0  0  0  0  0  0  0  0
    5.3159   -3.1567    2.6034 H   0  0  0  0  0  0  0  0  0  0  0  0
    7.7662   -3.1176    2.6019 H   0  0  0  0  0  0  0  0  0  0  0  0
    7.7504    0.5261    0.3127 H   0  0  0  0  0  0  0  0  0  0  0  0
   -1.2952    2.7380    2.0196 H   0  0  0  0  0  0  0  0  0  0  0  0
    0.2542    3.4053    2.3703 H   0  0  0  0  0  0  0  0  0  0  0  0
   -4.5593   -1.3091   -2.9196 H   0  0  0  0  0  0  0  0  0  0  0  0
   -2.8976   -0.7299   -3.1005 H   0  0  0  0  0  0  0  0  0  0  0  0
   -3.2176   -2.2768   -2.3230 H   0  0  0  0  0  0  0  0  0  0  0  0
   -4.1976   -2.4137    0.0023 H   0  0  0  0  0  0  0  0  0  0  0  0
   -4.7092   -0.9539    0.8534 H   0  0  0  0  0  0  0  0  0  0  0  0
   -5.6055   -1.5174   -0.5678 H   0  0  0  0  0  0  0  0  0  0  0  0
   -5.0995    0.6651   -1.9578 H   0  0  0  0  0  0  0  0  0  0  0  0
  1  2  1  0
  2  3  1  0
  2  4  1  0
  4  5  1  0
  5  6  2  0
  6  7  1  0
  7  8  1  0
  8  9  1  0
  9 10  1  0
 10 11  2  0
 10 12  1  0
 12 13  1  0
 13 14  1  0
 14 15  2  0
 15 16  1  0
 16 17  2  0
 17 18  1  0
 17 19  1  0
 19 20  2  0
 20 21  1  0
  8 22  2  0
 22 23  1  0
 23 24  1  0
 23 25  2  0
  6 26  1  0
 26 27  1  0
 26 28  1  0
 26 29  1  0
 29  2  1  0
 22  5  1  0
 20 14  1  0
  1 30  1  0
  1 31  1  0
  1 32  1  0
  3 33  1  0
  3 34  1  0
  3 35  1  0
  4 36  1  0
  4 37  1  0
  9 38  1  0
 12 39  1  0
 12 40  1  0
 15 41  1  0
 16 42  1  0
 19 43  1  0
 24 44  1  0
 24 45  1  0
 27 46  1  0
 27 47  1  0
 27 48  1  0
 28 49  1  0
 28 50  1  0
 28 51  1  0
 29 52  1  0
M  END
$$$$
