
     RDKit          3D

 44 46  0  0  0  0  0  0  0  0999 V2000
    7.4944   -1.9421   -1.1961 C   0  0  0  0  0  0  0  0  0  0  0  0
    7.1214   -0.9887   -0.2098 O   0  0  0  0  0  0  0  0  0  0  0  0
    5.8302   -0.5409   -0.2397 C   0  0  0  0  0  0  0  0  0  0  0  0
    4.8512   -0.9153   -1.1571 C   0  0  0  0  0  0  0  0  0  0  0  0
    3.5621   -0.3737   -1.0689 C   0  0  0  0  0  0  0  0  0  0  0  0
    3.2344    0.5468   -0.0662 C   0  0  0  0  0  0  0  0  0  0  0  0
    1.9159    1.0369   -0.0525 N   0  0  0  0  0  0  0  0  0  0  0  0
    1.3503    1.9464    0.8214 C   0  0  0  0  0  0  0  0  0  0  0  0
    1.9224    2.5274    1.7405 O   0  0  0  0  0  0  0  0  0  0  0  0
   -0.1235    2.2378    0.5141 C   0  0  0  0  0  0  0  0  0  0  0  0
   -0.9388    1.0731    0.4689 O   0  0  0  0  0  0  0  0  0  0  0  0
   -1.3244    0.7009   -0.7789 C   0  0  0  0  0  0  0  0  0  0  0  0
   -0.4084    0.7690   -1.7500 N   0  0  0  0  0  0  0  0  0  0  0  0
   -1.1948    0.1561   -3.0906 S   0  0  0  0  0  0  0  0  0  0  0  0
   -2.6640   -0.2439   -2.4238 N   0  0  0  0  0  0  0  0  0  0  0  0
   -2.6117    0.1027   -1.1297 C   0  0  0  0  0  0  0  0  0  0  0  0
   -3.6573   -0.1016   -0.2595 N   0  0  0  0  0  0  0  0  0  0  0  0
   -3.7279    0.5515    1.0484 C   0  0  0  0  0  0  0  0  0  0  0  0
   -5.1700    0.6500    1.5418 C   0  0  0  0  0  0  0  0  0  0  0  0
   -5.8468   -0.7149    1.6227 C   0  0  0  0  0  0  0  0  0  0  0  0
   -5.3596   -1.6771    0.5421 C   0  0  0  0  0  0  0  0  0  0  0  0
   -4.7850   -0.9450   -0.6680 C   0  0  0  0  0  0  0  0  0  0  0  0
    4.2167    0.9180    0.8495 C   0  0  0  0  0  0  0  0  0  0  0  0
    5.5048    0.3769    0.7600 C   0  0  0  0  0  0  0  0  0  0  0  0
    8.5443   -2.2019   -1.0298 H   0  0  0  0  0  0  0  0  0  0  0  0
    7.4112   -1.5210   -2.2035 H   0  0  0  0  0  0  0  0  0  0  0  0
    6.9052   -2.8602   -1.1009 H   0  0  0  0  0  0  0  0  0  0  0  0
    5.0531   -1.6241   -1.9527 H   0  0  0  0  0  0  0  0  0  0  0  0
    2.8177   -0.6850   -1.7978 H   0  0  0  0  0  0  0  0  0  0  0  0
    1.2943    0.6848   -0.7785 H   0  0  0  0  0  0  0  0  0  0  0  0
   -0.5063    2.8451    1.3433 H   0  0  0  0  0  0  0  0  0  0  0  0
   -0.1947    2.8683   -0.3820 H   0  0  0  0  0  0  0  0  0  0  0  0
   -3.1238   -0.0088    1.7719 H   0  0  0  0  0  0  0  0  0  0  0  0
   -3.3373    1.5742    0.9935 H   0  0  0  0  0  0  0  0  0  0  0  0
   -5.2030    1.1390    2.5220 H   0  0  0  0  0  0  0  0  0  0  0  0
   -5.7398    1.2899    0.8552 H   0  0  0  0  0  0  0  0  0  0  0  0
   -5.6669   -1.1647    2.6067 H   0  0  0  0  0  0  0  0  0  0  0  0
   -6.9320   -0.5786    1.5417 H   0  0  0  0  0  0  0  0  0  0  0  0
   -4.5824   -2.3247    0.9687 H   0  0  0  0  0  0  0  0  0  0  0  0
   -6.1798   -2.3356    0.2348 H   0  0  0  0  0  0  0  0  0  0  0  0
   -4.4752   -1.7042   -1.3966 H   0  0  0  0  0  0  0  0  0  0  0  0
   -5.5548   -0.3266   -1.1453 H   0  0  0  0  0  0  0  0  0  0  0  0
    4.0183    1.6251    1.6483 H   0  0  0  0  0  0  0  0  0  0  0  0
    6.2601    0.6775    1.4825 H   0  0  0  0  0  0  0  0  0  0  0  0
  1  2  1  0
  2  3  1  0
  3  4  2  0
  4  5  1  0
  5  6  2  0
  6  7  1  0
  7  8  1  0
  8  9  2  0
  8 10  1  0
 10 11  1  0
 11 12  1  0
 12 13  2  0
 13 14  1  0
 14 15  1  0
 15 16  2  0
 16 17  1  0
 17 18  1  0
 18 19  1  0
 19 20  1  0
 20 21  1  0
 21 22  1  0
  6 23  1  0
 23 24  2  0
 24  3  1  0
 16 12  1  0
 22 17  1  0
  1 25  1  0
  1 26  1  0
  1 27  1  0
  4 28  1  0
  5 29  1  0
  7 30  1  0
 10 31  1  0
 10 32  1  0
 18 33  1  0
 18 34  1  0
 19 35  1  0
 19 36  1  0
 20 37  1  0
 20 38  1  0
 21 39  1  0
 21 40  1  0
 22 41  1  0
 22 42  1  0
 23 43  1  0
 24 44  1  0
M  END
$$$$
