
     RDKit          3D

 52 54  0  0  0  0  0  0  0  0999 V2000
    0.1640    3.8784    0.3893 C   0  0  0  0  0  0  0  0  0  0  0  0
   -0.0641    2.6174    1.2221 C   0  0  0  0  0  0  0  0  0  0  0  0
    0.3560    1.4109    0.4916 N   0  0  0  0  0  0  0  0  0  0  0  0
    1.8271    1.2564    0.5627 C   0  0  0  0  0  0  0  0  0  0  0  0
    2.4096    0.3789   -0.5247 C   0  0  0  0  0  0  0  0  0  0  0  0
    2.3198    0.7655   -1.8703 C   0  0  0  0  0  0  0  0  0  0  0  0
    2.8634   -0.0330   -2.8773 C   0  0  0  0  0  0  0  0  0  0  0  0
    3.5134   -1.2208   -2.5494 C   0  0  0  0  0  0  0  0  0  0  0  0
    3.6279   -1.6061   -1.2150 C   0  0  0  0  0  0  0  0  0  0  0  0
    3.0847   -0.8076   -0.2069 C   0  0  0  0  0  0  0  0  0  0  0  0
   -0.3780    0.1599    0.8593 C   0  0  0  0  0  0  0  0  0  0  0  0
   -0.0269   -0.4502    2.2231 C   0  0  0  0  0  0  0  0  0  0  0  0
   -0.3332    0.1784    3.4364 C   0  0  0  0  0  0  0  0  0  0  0  0
    0.0190   -0.4405    4.6264 C   0  0  0  0  0  0  0  0  0  0  0  0
    0.6504   -1.6306    4.6971 N   0  0  0  0  0  0  0  0  0  0  0  0
    0.9202   -2.2392    3.5259 C   0  0  0  0  0  0  0  0  0  0  0  0
    0.6041   -1.7022    2.2869 C   0  0  0  0  0  0  0  0  0  0  0  0
   -1.8802    0.2599    0.6669 C   0  0  0  0  0  0  0  0  0  0  0  0
   -2.7284    0.7718    1.5480 N   0  0  0  0  0  0  0  0  0  0  0  0
   -3.9775    0.6514    1.0240 N   0  0  0  0  0  0  0  0  0  0  0  0
   -3.9333    0.0686   -0.1575 N   0  0  0  0  0  0  0  0  0  0  0  0
   -2.6282   -0.1819   -0.4094 N   0  0  0  0  0  0  0  0  0  0  0  0
   -2.2664   -0.8545   -1.6652 C   0  0  0  0  0  0  0  0  0  0  0  0
   -3.5006   -1.0305   -2.5940 C   0  0  0  0  0  0  0  0  0  0  0  0
   -1.7224   -2.2683   -1.3854 C   0  0  0  0  0  0  0  0  0  0  0  0
   -1.2486   -0.0243   -2.4614 C   0  0  0  0  0  0  0  0  0  0  0  0
    1.2241    4.0727    0.2052 H   0  0  0  0  0  0  0  0  0  0  0  0
   -0.2412    4.7490    0.9160 H   0  0  0  0  0  0  0  0  0  0  0  0
   -0.3459    3.8065   -0.5775 H   0  0  0  0  0  0  0  0  0  0  0  0
   -1.1329    2.6096    1.4466 H   0  0  0  0  0  0  0  0  0  0  0  0
    0.4576    2.7095    2.1822 H   0  0  0  0  0  0  0  0  0  0  0  0
    2.1475    0.9108    1.5533 H   0  0  0  0  0  0  0  0  0  0  0  0
    2.3237    2.2269    0.4388 H   0  0  0  0  0  0  0  0  0  0  0  0
    1.8159    1.6933   -2.1353 H   0  0  0  0  0  0  0  0  0  0  0  0
    2.7838    0.2752   -3.9166 H   0  0  0  0  0  0  0  0  0  0  0  0
    3.9422   -1.8400   -3.3331 H   0  0  0  0  0  0  0  0  0  0  0  0
    4.1516   -2.5237   -0.9587 H   0  0  0  0  0  0  0  0  0  0  0  0
    3.2047   -1.1120    0.8303 H   0  0  0  0  0  0  0  0  0  0  0  0
   -0.0430   -0.5771    0.1275 H   0  0  0  0  0  0  0  0  0  0  0  0
   -0.8604    1.1260    3.4699 H   0  0  0  0  0  0  0  0  0  0  0  0
   -0.2114    0.0197    5.5831 H   0  0  0  0  0  0  0  0  0  0  0  0
    1.4123   -3.2040    3.6094 H   0  0  0  0  0  0  0  0  0  0  0  0
    0.8509   -2.2605    1.3895 H   0  0  0  0  0  0  0  0  0  0  0  0
   -4.2744   -1.6500   -2.1250 H   0  0  0  0  0  0  0  0  0  0  0  0
   -3.2221   -1.5199   -3.5350 H   0  0  0  0  0  0  0  0  0  0  0  0
   -3.9515   -0.0640   -2.8492 H   0  0  0  0  0  0  0  0  0  0  0  0
   -0.7836   -2.2593   -0.8275 H   0  0  0  0  0  0  0  0  0  0  0  0
   -1.5295   -2.8082   -2.3199 H   0  0  0  0  0  0  0  0  0  0  0  0
   -2.4403   -2.8569   -0.8021 H   0  0  0  0  0  0  0  0  0  0  0  0
   -0.2869    0.0264   -1.9565 H   0  0  0  0  0  0  0  0  0  0  0  0
   -1.6006    1.0033   -2.6088 H   0  0  0  0  0  0  0  0  0  0  0  0
   -1.0622   -0.4611   -3.4494 H   0  0  0  0  0  0  0  0  0  0  0  0
  1  2  1  0
  2  3  1  0
  3  4  1  0
  4  5  1  0
  5  6  2  0
  6  7  1  0
  7  8  2  0
  8  9  1  0
  9 10  2  0
  3 11  1  0
 11 12  1  0
 12 13  2  0
 13 14  1  0
 14 15  2  0
 15 16  1  0
 16 17  2  0
 11 18  1  0
 18 19  2  0
 19 20  1  0
 20 21  2  0
 21 22  1  0
 22 23  1  0
 23 24  1  0
 23 25  1  0
 23 26  1  0
 10  5  1  0
 17 12  1  0
 22 18  1  0
  1 27  1  0
  1 28  1  0
  1 29  1  0
  2 30  1  0
  2 31  1  0
  4 32  1  0
  4 33  1  0
  6 34  1  0
  7 35  1  0
  8 36  1  0
  9 37  1  0
 10 38  1  0
 11 39  1  0
 13 40  1  0
 14 41  1  0
 16 42  1  0
 17 43  1  0
 24 44  1  0
 24 45  1  0
 24 46  1  0
 25 47  1  0
 25 48  1  0
 25 49  1  0
 26 50  1  0
 26 51  1  0
 26 52  1  0
M  END
$$$$
