
     RDKit          3D

 72 75  0  0  0  0  0  0  0  0999 V2000
   -4.0957    3.4240   -2.3157 C   0  0  0  0  0  0  0  0  0  0  0  0
   -4.5818    2.0894   -1.8295 C   0  0  0  0  0  0  0  0  0  0  0  0
   -5.3182    1.2889   -2.7143 C   0  0  0  0  0  0  0  0  0  0  0  0
   -5.8043    0.0323   -2.3317 C   0  0  0  0  0  0  0  0  0  0  0  0
   -5.5891   -0.4796   -1.0420 C   0  0  0  0  0  0  0  0  0  0  0  0
   -6.1249   -1.8665   -0.6482 C   0  0  0  0  0  0  0  0  0  0  0  0
   -5.2739   -2.9418   -1.3545 C   0  0  0  0  0  0  0  0  0  0  0  0
   -7.6015   -2.0278   -1.0763 C   0  0  0  0  0  0  0  0  0  0  0  0
   -6.0704   -2.1424    0.8731 C   0  0  0  0  0  0  0  0  0  0  0  0
   -4.8408    0.3170   -0.1627 C   0  0  0  0  0  0  0  0  0  0  0  0
   -4.3365    1.5794   -0.5460 C   0  0  0  0  0  0  0  0  0  0  0  0
   -3.3768    2.4319    0.6998 S   0  0  0  0  0  6  0  0  0  0  0  0
   -4.1195    2.3445    1.9387 O   0  0  0  0  0  0  0  0  0  0  0  0
   -2.9210    3.7147    0.2068 O   0  0  0  0  0  0  0  0  0  0  0  0
   -1.9883    1.4315    0.8279 N   0  0  0  0  0  0  0  0  0  0  0  0
   -1.1869    1.3109   -0.4200 C   0  0  0  0  0  0  0  0  0  0  0  0
    0.1390    0.6123   -0.1487 C   0  0  0  0  0  0  0  0  0  0  0  0
    1.0111    1.4000    0.8414 C   0  0  0  0  0  0  0  0  0  0  0  0
    1.8481    0.4168    1.6662 C   0  0  0  0  0  0  0  0  0  0  0  0
    1.6121    0.2390    2.8627 O   0  0  0  0  0  0  0  0  0  0  0  0
    2.8347   -0.3105    1.0038 N   0  0  0  0  0  0  0  0  0  0  0  0
    3.5862    0.2110   -0.1493 C   0  0  0  0  0  0  0  0  0  0  0  0
    4.8564    0.9558    0.3268 C   0  0  0  0  0  0  0  0  0  0  0  0
    5.6812    0.0792    1.1982 N   0  0  0  0  0  0  0  0  0  0  0  0
    6.7286   -0.6157    0.5940 C   0  0  0  0  0  0  0  0  0  0  0  0
    7.6538    0.0702   -0.2138 C   0  0  0  0  0  0  0  0  0  0  0  0
    8.7310   -0.5790   -0.8258 C   0  0  0  0  0  0  0  0  0  0  0  0
    8.9133   -1.9365   -0.6256 C   0  0  0  0  0  0  0  0  0  0  0  0
    9.9781   -2.5348   -1.2293 O   0  0  0  0  0  0  0  0  0  0  0  0
    8.0353   -2.6501    0.1765 C   0  0  0  0  0  0  0  0  0  0  0  0
    6.9573   -1.9883    0.7823 C   0  0  0  0  0  0  0  0  0  0  0  0
    4.9169   -0.5170    2.3236 C   0  0  0  0  0  0  0  0  0  0  0  0
    3.6449   -1.2284    1.8177 C   0  0  0  0  0  0  0  0  0  0  0  0
    0.1544    2.3003    1.7484 C   0  0  0  0  0  0  0  0  0  0  0  0
   -1.1856    1.6519    2.0670 C   0  0  0  0  0  0  0  0  0  0  0  0
   -3.0012    3.4545   -2.3203 H   0  0  0  0  0  0  0  0  0  0  0  0
   -4.4199    3.6180   -3.3445 H   0  0  0  0  0  0  0  0  0  0  0  0
   -4.5041    4.2312   -1.7001 H   0  0  0  0  0  0  0  0  0  0  0  0
   -5.5244    1.6350   -3.7268 H   0  0  0  0  0  0  0  0  0  0  0  0
   -6.3548   -0.5431   -3.0729 H   0  0  0  0  0  0  0  0  0  0  0  0
   -5.6233   -3.9498   -1.1020 H   0  0  0  0  0  0  0  0  0  0  0  0
   -5.3128   -2.8452   -2.4461 H   0  0  0  0  0  0  0  0  0  0  0  0
   -4.2192   -2.8714   -1.0569 H   0  0  0  0  0  0  0  0  0  0  0  0
   -8.0172   -2.9751   -0.7114 H   0  0  0  0  0  0  0  0  0  0  0  0
   -7.7196   -2.0345   -2.1663 H   0  0  0  0  0  0  0  0  0  0  0  0
   -8.2212   -1.2141   -0.6778 H   0  0  0  0  0  0  0  0  0  0  0  0
   -6.5263   -3.1107    1.1171 H   0  0  0  0  0  0  0  0  0  0  0  0
   -5.0390   -2.1773    1.2445 H   0  0  0  0  0  0  0  0  0  0  0  0
   -6.6143   -1.3727    1.4370 H   0  0  0  0  0  0  0  0  0  0  0  0
   -4.6190   -0.0304    0.8457 H   0  0  0  0  0  0  0  0  0  0  0  0
   -1.7462    0.7131   -1.1476 H   0  0  0  0  0  0  0  0  0  0  0  0
   -0.9998    2.2971   -0.8613 H   0  0  0  0  0  0  0  0  0  0  0  0
    0.6778    0.4824   -1.0946 H   0  0  0  0  0  0  0  0  0  0  0  0
   -0.0601   -0.3996    0.2302 H   0  0  0  0  0  0  0  0  0  0  0  0
    1.6915    2.0737    0.3103 H   0  0  0  0  0  0  0  0  0  0  0  0
    2.9771    0.8757   -0.7634 H   0  0  0  0  0  0  0  0  0  0  0  0
    3.8606   -0.6482   -0.7739 H   0  0  0  0  0  0  0  0  0  0  0  0
    4.5614    1.8331    0.9159 H   0  0  0  0  0  0  0  0  0  0  0  0
    5.3985    1.3328   -0.5462 H   0  0  0  0  0  0  0  0  0  0  0  0
    7.5702    1.1460   -0.3465 H   0  0  0  0  0  0  0  0  0  0  0  0
    9.4304   -0.0183   -1.4383 H   0  0  0  0  0  0  0  0  0  0  0  0
   10.0191   -3.4610   -0.9393 H   0  0  0  0  0  0  0  0  0  0  0  0
    8.1657   -3.7146    0.3480 H   0  0  0  0  0  0  0  0  0  0  0  0
    6.2940   -2.5879    1.3971 H   0  0  0  0  0  0  0  0  0  0  0  0
    4.6223    0.3034    2.9914 H   0  0  0  0  0  0  0  0  0  0  0  0
    5.5327   -1.1899    2.9301 H   0  0  0  0  0  0  0  0  0  0  0  0
    3.0652   -1.6152    2.6628 H   0  0  0  0  0  0  0  0  0  0  0  0
    3.9030   -2.0823    1.1805 H   0  0  0  0  0  0  0  0  0  0  0  0
   -0.0243    3.2564    1.2371 H   0  0  0  0  0  0  0  0  0  0  0  0
    0.6832    2.5458    2.6770 H   0  0  0  0  0  0  0  0  0  0  0  0
   -1.0473    0.6797    2.5562 H   0  0  0  0  0  0  0  0  0  0  0  0
   -1.7259    2.2807    2.7821 H   0  0  0  0  0  0  0  0  0  0  0  0
  1  2  1  0
  2  3  2  0
  3  4  1  0
  4  5  2  0
  5  6  1  0
  6  7  1  0
  6  8  1  0
  6  9  1  0
  5 10  1  0
 10 11  2  0
 11 12  1  0
 12 13  2  0
 12 14  2  0
 12 15  1  0
 15 16  1  0
 16 17  1  0
 17 18  1  0
 18 19  1  0
 19 20  2  0
 19 21  1  0
 21 22  1  0
 22 23  1  0
 23 24  1  0
 24 25  1  0
 25 26  2  0
 26 27  1  0
 27 28  2  0
 28 29  1  0
 28 30  1  0
 30 31  2  0
 24 32  1  0
 32 33  1  0
 18 34  1  0
 34 35  1  0
 11  2  1  0
 35 15  1  0
 33 21  1  0
 31 25  1  0
  1 36  1  0
  1 37  1  0
  1 38  1  0
  3 39  1  0
  4 40  1  0
  7 41  1  0
  7 42  1  0
  7 43  1  0
  8 44  1  0
  8 45  1  0
  8 46  1  0
  9 47  1  0
  9 48  1  0
  9 49  1  0
 10 50  1  0
 16 51  1  0
 16 52  1  0
 17 53  1  0
 17 54  1  0
 18 55  1  0
 22 56  1  0
 22 57  1  0
 23 58  1  0
 23 59  1  0
 26 60  1  0
 27 61  1  0
 29 62  1  0
 30 63  1  0
 31 64  1  0
 32 65  1  0
 32 66  1  0
 33 67  1  0
 33 68  1  0
 34 69  1  0
 34 70  1  0
 35 71  1  0
 35 72  1  0
M  END
$$$$
