
     RDKit          3D

 51 53  0  0  0  0  0  0  0  0999 V2000
   -2.1996    3.6432   -2.2963 C   0  0  0  0  0  0  0  0  0  0  0  0
   -2.1477    2.1640   -2.0151 C   0  0  0  0  0  0  0  0  0  0  0  0
   -1.8571    1.3018   -3.0823 C   0  0  0  0  0  0  0  0  0  0  0  0
   -1.7809   -0.0705   -2.8835 C   0  0  0  0  0  0  0  0  0  0  0  0
   -1.9988   -0.6042   -1.6155 C   0  0  0  0  0  0  0  0  0  0  0  0
   -2.2892    0.2230   -0.5245 C   0  0  0  0  0  0  0  0  0  0  0  0
   -2.5435   -0.3102    0.7642 N   0  0  0  0  0  0  0  0  0  0  0  0
   -2.3452   -1.6080    1.1988 C   0  0  0  0  0  0  0  0  0  0  0  0
   -1.8604   -2.5348    0.5541 O   0  0  0  0  0  0  0  0  0  0  0  0
   -2.8268   -1.8662    2.6178 C   0  0  0  0  0  0  0  0  0  0  0  0
   -2.1251   -0.7617    3.8688 S   0  0  0  0  0  0  0  0  0  0  0  0
   -0.5429   -0.4675    3.1952 C   0  0  0  0  0  0  0  0  0  0  0  0
   -0.3023    0.7244    2.7783 N   0  0  0  0  0  0  0  0  0  0  0  0
    0.9309    0.9755    2.2180 C   0  0  0  0  0  0  0  0  0  0  0  0
    1.2703    2.1125    1.9077 O   0  0  0  0  0  0  0  0  0  0  0  0
    1.8686   -0.1834    1.9698 C   0  0  0  0  0  0  0  0  0  0  0  0
    3.1280    0.1428    1.2086 C   0  0  0  0  0  0  0  0  0  0  0  0
    3.0486   -0.2048   -0.2633 C   0  0  0  0  0  0  0  0  0  0  0  0
    2.1370    0.4499   -1.1060 C   0  0  0  0  0  0  0  0  0  0  0  0
    2.0681    0.1284   -2.4627 C   0  0  0  0  0  0  0  0  0  0  0  0
    2.9088   -0.8469   -2.9947 C   0  0  0  0  0  0  0  0  0  0  0  0
    3.8224   -1.5004   -2.1704 C   0  0  0  0  0  0  0  0  0  0  0  0
    3.8956   -1.1792   -0.8133 C   0  0  0  0  0  0  0  0  0  0  0  0
    1.5215   -1.3880    2.4723 C   0  0  0  0  0  0  0  0  0  0  0  0
    2.3349   -2.6439    2.3410 C   0  0  0  0  0  0  0  0  0  0  0  0
    0.3224   -1.5088    3.1366 N   0  0  0  0  0  0  0  0  0  0  0  0
   -2.3584    1.6286   -0.7185 C   0  0  0  0  0  0  0  0  0  0  0  0
   -2.6485    2.5458    0.4475 C   0  0  0  0  0  0  0  0  0  0  0  0
   -2.1201    3.8521   -3.3687 H   0  0  0  0  0  0  0  0  0  0  0  0
   -1.3674    4.1494   -1.7990 H   0  0  0  0  0  0  0  0  0  0  0  0
   -3.1497    4.0695   -1.9603 H   0  0  0  0  0  0  0  0  0  0  0  0
   -1.6829    1.6975   -4.0803 H   0  0  0  0  0  0  0  0  0  0  0  0
   -1.5543   -0.7321   -3.7155 H   0  0  0  0  0  0  0  0  0  0  0  0
   -1.9413   -1.6833   -1.5180 H   0  0  0  0  0  0  0  0  0  0  0  0
   -2.7617    0.3623    1.4914 H   0  0  0  0  0  0  0  0  0  0  0  0
   -2.5641   -2.8952    2.8898 H   0  0  0  0  0  0  0  0  0  0  0  0
   -3.9194   -1.7871    2.6373 H   0  0  0  0  0  0  0  0  0  0  0  0
    3.9776   -0.3765    1.6703 H   0  0  0  0  0  0  0  0  0  0  0  0
    3.3956    1.2032    1.2964 H   0  0  0  0  0  0  0  0  0  0  0  0
    1.4692    1.2155   -0.7147 H   0  0  0  0  0  0  0  0  0  0  0  0
    1.3547    0.6421   -3.1016 H   0  0  0  0  0  0  0  0  0  0  0  0
    2.8515   -1.0964   -4.0506 H   0  0  0  0  0  0  0  0  0  0  0  0
    4.4801   -2.2604   -2.5852 H   0  0  0  0  0  0  0  0  0  0  0  0
    4.6203   -1.6971   -0.1899 H   0  0  0  0  0  0  0  0  0  0  0  0
    1.8069   -3.3670    1.7113 H   0  0  0  0  0  0  0  0  0  0  0  0
    3.3234   -2.4808    1.9066 H   0  0  0  0  0  0  0  0  0  0  0  0
    2.4882   -3.0966    3.3258 H   0  0  0  0  0  0  0  0  0  0  0  0
    0.0268   -2.4292    3.4365 H   0  0  0  0  0  0  0  0  0  0  0  0
   -1.9065    2.3978    1.2374 H   0  0  0  0  0  0  0  0  0  0  0  0
   -3.6504    2.3455    0.8424 H   0  0  0  0  0  0  0  0  0  0  0  0
   -2.6071    3.6056    0.1894 H   0  0  0  0  0  0  0  0  0  0  0  0
  1  2  1  0
  2  3  2  0
  3  4  1  0
  4  5  2  0
  5  6  1  0
  6  7  1  0
  7  8  1  0
  8  9  2  0
  8 10  1  0
 10 11  1  0
 11 12  1  0
 12 13  2  0
 13 14  1  0
 14 15  2  0
 14 16  1  0
 16 17  1  0
 17 18  1  0
 18 19  2  0
 19 20  1  0
 20 21  2  0
 21 22  1  0
 22 23  2  0
 16 24  2  0
 24 25  1  0
 24 26  1  0
  6 27  2  0
 27 28  1  0
 27  2  1  0
 26 12  1  0
 23 18  1  0
  1 29  1  0
  1 30  1  0
  1 31  1  0
  3 32  1  0
  4 33  1  0
  5 34  1  0
  7 35  1  0
 10 36  1  0
 10 37  1  0
 17 38  1  0
 17 39  1  0
 19 40  1  0
 20 41  1  0
 21 42  1  0
 22 43  1  0
 23 44  1  0
 25 45  1  0
 25 46  1  0
 25 47  1  0
 26 48  1  0
 28 49  1  0
 28 50  1  0
 28 51  1  0
M  END
$$$$
