
     RDKit          3D

 46 48  0  0  0  0  0  0  0  0999 V2000
   -6.0063   -0.6186    0.3575 C   0  0  0  0  0  0  0  0  0  0  0  0
   -5.1527    0.2301    1.1108 O   0  0  0  0  0  0  0  0  0  0  0  0
   -3.8949    0.4733    0.6157 C   0  0  0  0  0  0  0  0  0  0  0  0
   -3.4060   -0.0427   -0.5895 C   0  0  0  0  0  0  0  0  0  0  0  0
   -2.1084    0.2626   -1.0280 C   0  0  0  0  0  0  0  0  0  0  0  0
   -1.2758    1.0738   -0.2366 C   0  0  0  0  0  0  0  0  0  0  0  0
   -1.7726    1.5970    0.9690 C   0  0  0  0  0  0  0  0  0  0  0  0
   -3.0706    1.3009    1.4021 C   0  0  0  0  0  0  0  0  0  0  0  0
   -3.6259    1.7736    2.5658 O   0  0  0  0  0  0  0  0  0  0  0  0
   -2.7899    2.5095    3.4462 C   0  0  0  0  0  0  0  0  0  0  0  0
    0.1300    1.4383   -0.6766 C   0  0  0  0  0  0  0  0  0  0  0  0
    0.6116    0.6049   -1.7877 N   0  0  0  0  0  0  0  0  0  0  0  0
    1.7458   -0.2210   -1.6659 C   0  0  0  0  0  0  0  0  0  0  0  0
    2.0502   -1.5604   -2.6408 S   0  0  0  0  0  0  0  0  0  0  0  0
    2.6393    0.2585   -0.7077 N   0  0  0  0  0  0  0  0  0  0  0  0
    3.7091   -0.4591   -0.1189 C   0  0  0  0  0  0  0  0  0  0  0  0
    4.9750    0.1436   -0.1826 C   0  0  0  0  0  0  0  0  0  0  0  0
    6.0943   -0.4936    0.3466 C   0  0  0  0  0  0  0  0  0  0  0  0
    5.9527   -1.7329    0.9598 C   0  0  0  0  0  0  0  0  0  0  0  0
    4.6880   -2.3187    1.0743 C   0  0  0  0  0  0  0  0  0  0  0  0
    4.6029   -3.8503    1.8782 Cl  0  0  0  0  0  0  0  0  0  0  0  0
    3.5372   -1.6783    0.5709 C   0  0  0  0  0  0  0  0  0  0  0  0
    2.1780   -2.2772    0.8290 C   0  0  0  0  0  0  0  0  0  0  0  0
   -0.3911    0.4425   -2.8490 C   0  0  0  0  0  0  0  0  0  0  0  0
   -1.5985   -0.3313   -2.3216 C   0  0  0  0  0  0  0  0  0  0  0  0
   -5.5819   -1.6235    0.2630 H   0  0  0  0  0  0  0  0  0  0  0  0
   -6.2263   -0.1866   -0.6243 H   0  0  0  0  0  0  0  0  0  0  0  0
   -6.9524   -0.7082    0.8999 H   0  0  0  0  0  0  0  0  0  0  0  0
   -4.0173   -0.6890   -1.2113 H   0  0  0  0  0  0  0  0  0  0  0  0
   -1.1230    2.2379    1.5564 H   0  0  0  0  0  0  0  0  0  0  0  0
   -2.4755    3.4546    2.9918 H   0  0  0  0  0  0  0  0  0  0  0  0
   -1.9266    1.9156    3.7642 H   0  0  0  0  0  0  0  0  0  0  0  0
   -3.3743    2.7498    4.3395 H   0  0  0  0  0  0  0  0  0  0  0  0
    0.7922    1.3703    0.1909 H   0  0  0  0  0  0  0  0  0  0  0  0
    0.1307    2.4758   -1.0315 H   0  0  0  0  0  0  0  0  0  0  0  0
    2.8341    1.2381   -0.8783 H   0  0  0  0  0  0  0  0  0  0  0  0
    5.1105    1.0986   -0.6842 H   0  0  0  0  0  0  0  0  0  0  0  0
    7.0755   -0.0326    0.2674 H   0  0  0  0  0  0  0  0  0  0  0  0
    6.8294   -2.2369    1.3592 H   0  0  0  0  0  0  0  0  0  0  0  0
    2.0271   -3.1683    0.2126 H   0  0  0  0  0  0  0  0  0  0  0  0
    1.3630   -1.5741    0.6376 H   0  0  0  0  0  0  0  0  0  0  0  0
    2.0763   -2.5532    1.8845 H   0  0  0  0  0  0  0  0  0  0  0  0
   -0.6916    1.4499   -3.1664 H   0  0  0  0  0  0  0  0  0  0  0  0
    0.0232   -0.0486   -3.7330 H   0  0  0  0  0  0  0  0  0  0  0  0
   -1.3249   -1.3758   -2.1317 H   0  0  0  0  0  0  0  0  0  0  0  0
   -2.3894   -0.3188   -3.0805 H   0  0  0  0  0  0  0  0  0  0  0  0
  1  2  1  0
  2  3  1  0
  3  4  2  0
  4  5  1  0
  5  6  2  0
  6  7  1  0
  7  8  2  0
  8  9  1  0
  9 10  1  0
  6 11  1  0
 11 12  1  0
 12 13  1  0
 13 14  2  0
 13 15  1  0
 15 16  1  0
 16 17  2  0
 17 18  1  0
 18 19  2  0
 19 20  1  0
 20 21  1  0
 20 22  2  0
 22 23  1  0
 12 24  1  0
 24 25  1  0
  8  3  1  0
 22 16  1  0
 25  5  1  0
  1 26  1  0
  1 27  1  0
  1 28  1  0
  4 29  1  0
  7 30  1  0
 10 31  1  0
 10 32  1  0
 10 33  1  0
 11 34  1  0
 11 35  1  0
 15 36  1  0
 17 37  1  0
 18 38  1  0
 19 39  1  0
 23 40  1  0
 23 41  1  0
 23 42  1  0
 24 43  1  0
 24 44  1  0
 25 45  1  0
 25 46  1  0
M  END
$$$$
