
     RDKit          3D

 32 34  0  0  0  0  0  0  0  0999 V2000
    4.6900   -0.3011    1.4430 C   0  0  0  0  0  0  0  0  0  0  0  0
    3.6424    0.0539    0.4275 C   0  0  0  0  0  0  0  0  0  0  0  0
    3.9369    0.9564   -0.6064 C   0  0  0  0  0  0  0  0  0  0  0  0
    2.9952    1.2838   -1.5905 C   0  0  0  0  0  0  0  0  0  0  0  0
    1.7519    0.6583   -1.4976 C   0  0  0  0  0  0  0  0  0  0  0  0
    0.6191    0.7344   -2.2663 N   0  0  0  0  0  0  0  0  0  0  0  0
   -0.3417   -0.1039   -1.7294 C   0  0  0  0  0  0  0  0  0  0  0  0
   -1.6119   -0.2009   -2.3746 C   0  0  0  0  0  0  0  0  0  0  0  0
   -1.6767   -0.0868   -3.8013 C   0  0  0  0  0  0  0  0  0  0  0  0
   -1.6989    0.0449   -4.9539 N   0  0  0  0  0  0  0  0  0  0  0  0
   -2.7780   -0.3628   -1.7175 C   0  0  0  0  0  0  0  0  0  0  0  0
   -2.9674   -0.4490   -0.3104 C   0  0  0  0  0  0  0  0  0  0  0  0
   -2.4225   -1.3107    0.6399 C   0  0  0  0  0  0  0  0  0  0  0  0
   -2.9812   -0.9968    1.9041 C   0  0  0  0  0  0  0  0  0  0  0  0
   -3.8591    0.0246    1.6558 C   0  0  0  0  0  0  0  0  0  0  0  0
   -4.7296    0.7600    2.5166 N   0  0  0  0  0  4  0  0  0  0  0  0
   -4.7191    0.4370    3.7127 O   0  0  0  0  0  0  0  0  0  0  0  0
   -5.4248    1.6523    2.0143 O   0  0  0  0  0  1  0  0  0  0  0  0
   -3.8821    0.3569    0.3411 O   0  0  0  0  0  0  0  0  0  0  0  0
    0.1435   -0.7074   -0.6601 N   0  0  0  0  0  0  0  0  0  0  0  0
    1.4264   -0.2463   -0.4988 C   0  0  0  0  0  0  0  0  0  0  0  0
    2.3804   -0.5647    0.4786 C   0  0  0  0  0  0  0  0  0  0  0  0
    5.3831    0.5324    1.5982 H   0  0  0  0  0  0  0  0  0  0  0  0
    4.2329   -0.5287    2.4118 H   0  0  0  0  0  0  0  0  0  0  0  0
    5.2566   -1.1739    1.1047 H   0  0  0  0  0  0  0  0  0  0  0  0
    4.9215    1.4206   -0.6531 H   0  0  0  0  0  0  0  0  0  0  0  0
    3.2321    1.9857   -2.3829 H   0  0  0  0  0  0  0  0  0  0  0  0
    0.5163    1.3158   -3.0875 H   0  0  0  0  0  0  0  0  0  0  0  0
   -3.7052   -0.3621   -2.2904 H   0  0  0  0  0  0  0  0  0  0  0  0
   -1.6894   -2.0823    0.4365 H   0  0  0  0  0  0  0  0  0  0  0  0
   -2.7733   -1.4586    2.8591 H   0  0  0  0  0  0  0  0  0  0  0  0
    2.1328   -1.2809    1.2549 H   0  0  0  0  0  0  0  0  0  0  0  0
  1  2  1  0
  2  3  2  0
  3  4  1  0
  4  5  2  0
  5  6  1  0
  6  7  1  0
  7  8  1  0
  8  9  1  0
  9 10  3  0
  8 11  2  3
 11 12  1  0
 12 13  2  0
 13 14  1  0
 14 15  2  0
 15 16  1  0
 16 17  2  0
 16 18  1  0
 15 19  1  0
  7 20  2  0
 20 21  1  0
 21 22  2  0
 22  2  1  0
 21  5  1  0
 19 12  1  0
  1 23  1  0
  1 24  1  0
  1 25  1  0
  3 26  1  0
  4 27  1  0
  6 28  1  0
 11 29  1  0
 13 30  1  0
 14 31  1  0
 22 32  1  0
M  CHG  2  16   1  18  -1
M  END
$$$$
