
     RDKit          3D

 41 42  0  0  0  0  0  0  0  0999 V2000
   -6.6072   -0.1794    1.2820 C   0  0  0  0  0  0  0  0  0  0  0  0
   -5.6960    1.0026    1.5545 C   0  0  0  0  0  0  0  0  0  0  0  0
   -4.3488    0.6869    1.1758 O   0  0  0  0  0  0  0  0  0  0  0  0
   -4.0263    0.9152   -0.1266 C   0  0  0  0  0  0  0  0  0  0  0  0
   -4.8095    1.3545   -0.9595 O   0  0  0  0  0  0  0  0  0  0  0  0
   -2.7171    0.5828   -0.4022 N   0  0  0  0  0  0  0  0  0  0  0  0
   -2.2064    0.6952   -1.7658 C   0  0  0  0  0  0  0  0  0  0  0  0
   -1.1875   -0.4079   -2.0761 C   0  0  0  0  0  0  0  0  0  0  0  0
   -0.0551   -0.4508   -1.1234 N   0  0  0  0  0  0  0  0  0  0  0  0
    1.0318   -1.2679   -1.3415 C   0  0  0  0  0  0  0  0  0  0  0  0
    1.0546   -2.5719   -2.4079 S   0  0  0  0  0  0  0  0  0  0  0  0
    2.2132   -1.0736   -0.6622 N   0  0  0  0  0  0  0  0  0  0  0  0
    2.8168    0.0707   -0.1395 C   0  0  0  0  0  0  0  0  0  0  0  0
    2.2756    1.1316    0.1393 O   0  0  0  0  0  0  0  0  0  0  0  0
    4.2688   -0.0667    0.1648 C   0  0  0  0  0  0  0  0  0  0  0  0
    4.7711    0.5662    1.3142 C   0  0  0  0  0  0  0  0  0  0  0  0
    6.1282    0.4732    1.6341 C   0  0  0  0  0  0  0  0  0  0  0  0
    6.9795   -0.2412    0.7988 C   0  0  0  0  0  0  0  0  0  0  0  0
    8.2802   -0.3306    1.1061 F   0  0  0  0  0  0  0  0  0  0  0  0
    6.4878   -0.8518   -0.3500 C   0  0  0  0  0  0  0  0  0  0  0  0
    7.3148   -1.5271   -1.1593 F   0  0  0  0  0  0  0  0  0  0  0  0
    5.1374   -0.7683   -0.6804 C   0  0  0  0  0  0  0  0  0  0  0  0
   -0.3230    0.1884    0.1804 C   0  0  0  0  0  0  0  0  0  0  0  0
   -1.7936    0.0708    0.6111 C   0  0  0  0  0  0  0  0  0  0  0  0
   -6.2385   -1.0747    1.7933 H   0  0  0  0  0  0  0  0  0  0  0  0
   -7.6250    0.0285    1.6241 H   0  0  0  0  0  0  0  0  0  0  0  0
   -6.6389   -0.4137    0.2133 H   0  0  0  0  0  0  0  0  0  0  0  0
   -5.6834    1.2162    2.6284 H   0  0  0  0  0  0  0  0  0  0  0  0
   -6.0515    1.9094    1.0520 H   0  0  0  0  0  0  0  0  0  0  0  0
   -3.0299    0.6593   -2.4865 H   0  0  0  0  0  0  0  0  0  0  0  0
   -1.7342    1.6813   -1.8489 H   0  0  0  0  0  0  0  0  0  0  0  0
   -1.6920   -1.3812   -2.0294 H   0  0  0  0  0  0  0  0  0  0  0  0
   -0.7906   -0.2756   -3.0887 H   0  0  0  0  0  0  0  0  0  0  0  0
    2.8408   -1.8420   -0.8563 H   0  0  0  0  0  0  0  0  0  0  0  0
    4.1044    1.1351    1.9613 H   0  0  0  0  0  0  0  0  0  0  0  0
    6.5244    0.9564    2.5223 H   0  0  0  0  0  0  0  0  0  0  0  0
    4.8035   -1.2256   -1.6063 H   0  0  0  0  0  0  0  0  0  0  0  0
   -0.0843    1.2514    0.0682 H   0  0  0  0  0  0  0  0  0  0  0  0
    0.3091   -0.2501    0.9581 H   0  0  0  0  0  0  0  0  0  0  0  0
   -2.0543   -0.9818    0.7743 H   0  0  0  0  0  0  0  0  0  0  0  0
   -1.9489    0.6058    1.5541 H   0  0  0  0  0  0  0  0  0  0  0  0
  1  2  1  0
  2  3  1  0
  3  4  1  0
  4  5  2  0
  4  6  1  0
  6  7  1  0
  7  8  1  0
  8  9  1  0
  9 10  1  0
 10 11  2  0
 10 12  1  0
 12 13  1  0
 13 14  2  0
 13 15  1  0
 15 16  2  0
 16 17  1  0
 17 18  2  0
 18 19  1  0
 18 20  1  0
 20 21  1  0
 20 22  2  0
  9 23  1  0
 23 24  1  0
 24  6  1  0
 22 15  1  0
  1 25  1  0
  1 26  1  0
  1 27  1  0
  2 28  1  0
  2 29  1  0
  7 30  1  0
  7 31  1  0
  8 32  1  0
  8 33  1  0
 12 34  1  0
 16 35  1  0
 17 36  1  0
 22 37  1  0
 23 38  1  0
 23 39  1  0
 24 40  1  0
 24 41  1  0
M  END
$$$$
