
     RDKit          3D

 42 43  0  0  0  0  0  0  0  0999 V2000
   -2.0092    3.1136    0.8208 C   0  0  0  0  0  0  0  0  0  0  0  0
   -0.6794    2.4871    0.5012 C   0  0  0  0  0  0  0  0  0  0  0  0
    0.4704    3.0087    1.1228 C   0  0  0  0  0  0  0  0  0  0  0  0
    1.7380    2.4898    0.8510 C   0  0  0  0  0  0  0  0  0  0  0  0
    1.8692    1.4435   -0.0601 C   0  0  0  0  0  0  0  0  0  0  0  0
    3.4726    0.7569   -0.4066 S   0  0  0  0  0  6  0  0  0  0  0  0
    4.4325    1.3979    0.4731 O   0  0  0  0  0  0  0  0  0  0  0  0
    3.6389    0.7972   -1.8466 O   0  0  0  0  0  0  0  0  0  0  0  0
    3.3954   -0.9518    0.0911 C   0  0  0  0  0  0  0  0  0  0  0  0
    3.3024   -1.9578   -0.8757 C   0  0  0  0  0  0  0  0  0  0  0  0
    3.2341   -3.2924   -0.4707 C   0  0  0  0  0  0  0  0  0  0  0  0
    3.2688   -3.6095    0.8883 C   0  0  0  0  0  0  0  0  0  0  0  0
    3.1787   -5.2546    1.3827 Cl  0  0  0  0  0  0  0  0  0  0  0  0
    3.3766   -2.6037    1.8503 C   0  0  0  0  0  0  0  0  0  0  0  0
    3.4439   -1.2668    1.4534 C   0  0  0  0  0  0  0  0  0  0  0  0
    0.7508    0.9177   -0.7099 C   0  0  0  0  0  0  0  0  0  0  0  0
   -0.5224    1.4326   -0.4217 C   0  0  0  0  0  0  0  0  0  0  0  0
   -1.9173    0.7121   -1.2781 S   0  0  0  0  0  6  0  0  0  0  0  0
   -1.4155   -0.3020   -2.1817 O   0  0  0  0  0  0  0  0  0  0  0  0
   -2.7485    1.7907   -1.7622 O   0  0  0  0  0  0  0  0  0  0  0  0
   -2.7562   -0.0926   -0.0263 N   0  0  0  0  0  0  0  0  0  0  0  0
   -2.0228   -1.1928    0.6359 C   0  0  0  0  0  0  0  0  0  0  0  0
   -4.1521   -0.4620   -0.4068 C   0  0  0  0  0  0  0  0  0  0  0  0
   -4.3163   -1.2998   -1.6534 C   0  0  0  0  0  0  0  0  0  0  0  0
   -5.0455   -1.0514   -2.5999 O   0  0  0  0  0  0  0  0  0  0  0  0
   -3.5997   -2.4431   -1.6316 O   0  0  0  0  0  0  0  0  0  0  0  0
   -2.7574    2.3569    1.0694 H   0  0  0  0  0  0  0  0  0  0  0  0
   -1.9361    3.7735    1.6926 H   0  0  0  0  0  0  0  0  0  0  0  0
   -2.3558    3.7200   -0.0211 H   0  0  0  0  0  0  0  0  0  0  0  0
    0.3854    3.8365    1.8265 H   0  0  0  0  0  0  0  0  0  0  0  0
    2.6089    2.9158    1.3459 H   0  0  0  0  0  0  0  0  0  0  0  0
    3.2838   -1.7171   -1.9372 H   0  0  0  0  0  0  0  0  0  0  0  0
    3.1594   -4.0794   -1.2176 H   0  0  0  0  0  0  0  0  0  0  0  0
    3.4160   -2.8565    2.9072 H   0  0  0  0  0  0  0  0  0  0  0  0
    3.5427   -0.4857    2.2045 H   0  0  0  0  0  0  0  0  0  0  0  0
    0.8716    0.1212   -1.4423 H   0  0  0  0  0  0  0  0  0  0  0  0
   -1.6226   -1.9120   -0.0828 H   0  0  0  0  0  0  0  0  0  0  0  0
   -2.6781   -1.7286    1.3299 H   0  0  0  0  0  0  0  0  0  0  0  0
   -1.1989   -0.7862    1.2295 H   0  0  0  0  0  0  0  0  0  0  0  0
   -4.6381   -0.9916    0.4209 H   0  0  0  0  0  0  0  0  0  0  0  0
   -4.7250    0.4636   -0.5402 H   0  0  0  0  0  0  0  0  0  0  0  0
   -3.7432   -2.8235   -2.5247 H   0  0  0  0  0  0  0  0  0  0  0  0
  1  2  1  0
  2  3  2  0
  3  4  1  0
  4  5  2  0
  5  6  1  0
  6  7  2  0
  6  8  2  0
  6  9  1  0
  9 10  2  0
 10 11  1  0
 11 12  2  0
 12 13  1  0
 12 14  1  0
 14 15  2  0
  5 16  1  0
 16 17  2  0
 17 18  1  0
 18 19  2  0
 18 20  2  0
 18 21  1  0
 21 22  1  0
 21 23  1  0
 23 24  1  0
 24 25  2  0
 24 26  1  0
 17  2  1  0
 15  9  1  0
  1 27  1  0
  1 28  1  0
  1 29  1  0
  3 30  1  0
  4 31  1  0
 10 32  1  0
 11 33  1  0
 14 34  1  0
 15 35  1  0
 16 36  1  0
 22 37  1  0
 22 38  1  0
 22 39  1  0
 23 40  1  0
 23 41  1  0
 26 42  1  0
M  END
$$$$
