
     RDKit          3D

 42 43  0  0  0  0  0  0  0  0999 V2000
   -1.7649    3.4614    0.6327 C   0  0  0  0  0  0  0  0  0  0  0  0
   -0.7446    2.3635    0.7564 C   0  0  0  0  0  0  0  0  0  0  0  0
    0.4645    2.6719    1.4133 C   0  0  0  0  0  0  0  0  0  0  0  0
    1.4855    1.7289    1.5425 C   0  0  0  0  0  0  0  0  0  0  0  0
    1.3154    0.4622    0.9929 C   0  0  0  0  0  0  0  0  0  0  0  0
    2.5942   -0.7621    1.1472 S   0  0  0  0  0  6  0  0  0  0  0  0
    1.9662   -1.9251    1.7466 O   0  0  0  0  0  0  0  0  0  0  0  0
    3.7389   -0.1314    1.7781 O   0  0  0  0  0  0  0  0  0  0  0  0
    3.0947   -1.1913   -0.5049 C   0  0  0  0  0  0  0  0  0  0  0  0
    2.6982   -2.4122   -1.0600 C   0  0  0  0  0  0  0  0  0  0  0  0
    3.1019   -2.7382   -2.3564 C   0  0  0  0  0  0  0  0  0  0  0  0
    3.9005   -1.8512   -3.0801 C   0  0  0  0  0  0  0  0  0  0  0  0
    4.3969   -2.2588   -4.6759 Cl  0  0  0  0  0  0  0  0  0  0  0  0
    4.3043   -0.6387   -2.5188 C   0  0  0  0  0  0  0  0  0  0  0  0
    3.9044   -0.3050   -1.2233 C   0  0  0  0  0  0  0  0  0  0  0  0
    0.1331    0.1264    0.3318 C   0  0  0  0  0  0  0  0  0  0  0  0
   -0.9085    1.0653    0.2301 C   0  0  0  0  0  0  0  0  0  0  0  0
   -2.3752    0.5290   -0.6642 S   0  0  0  0  0  6  0  0  0  0  0  0
   -1.9264   -0.4453   -1.6362 O   0  0  0  0  0  0  0  0  0  0  0  0
   -3.1094    1.6982   -1.0928 O   0  0  0  0  0  0  0  0  0  0  0  0
   -3.2944   -0.2684    0.5218 N   0  0  0  0  0  0  0  0  0  0  0  0
   -3.9038    0.5582    1.5731 C   0  0  0  0  0  0  0  0  0  0  0  0
   -2.8218   -1.5872    1.0044 C   0  0  0  0  0  0  0  0  0  0  0  0
   -2.7762   -2.6488   -0.0704 C   0  0  0  0  0  0  0  0  0  0  0  0
   -3.7245   -3.0873   -0.7019 O   0  0  0  0  0  0  0  0  0  0  0  0
   -1.5298   -3.1166   -0.2974 O   0  0  0  0  0  0  0  0  0  0  0  0
   -1.8437    3.7932   -0.4068 H   0  0  0  0  0  0  0  0  0  0  0  0
   -2.7390    3.1396    1.0071 H   0  0  0  0  0  0  0  0  0  0  0  0
   -1.4824    4.3369    1.2284 H   0  0  0  0  0  0  0  0  0  0  0  0
    0.6224    3.6660    1.8323 H   0  0  0  0  0  0  0  0  0  0  0  0
    2.4015    1.9968    2.0659 H   0  0  0  0  0  0  0  0  0  0  0  0
    2.0821   -3.1112   -0.4978 H   0  0  0  0  0  0  0  0  0  0  0  0
    2.7955   -3.6845   -2.7957 H   0  0  0  0  0  0  0  0  0  0  0  0
    4.9336    0.0451   -3.0835 H   0  0  0  0  0  0  0  0  0  0  0  0
    4.2324    0.6348   -0.7840 H   0  0  0  0  0  0  0  0  0  0  0  0
    0.0195   -0.8684   -0.0963 H   0  0  0  0  0  0  0  0  0  0  0  0
   -3.1548    0.8768    2.3033 H   0  0  0  0  0  0  0  0  0  0  0  0
   -4.4016    1.4330    1.1470 H   0  0  0  0  0  0  0  0  0  0  0  0
   -4.6773   -0.0130    2.0970 H   0  0  0  0  0  0  0  0  0  0  0  0
   -1.8477   -1.4912    1.4931 H   0  0  0  0  0  0  0  0  0  0  0  0
   -3.5019   -1.9723    1.7743 H   0  0  0  0  0  0  0  0  0  0  0  0
   -1.6580   -3.7053   -1.0727 H   0  0  0  0  0  0  0  0  0  0  0  0
  1  2  1  0
  2  3  2  0
  3  4  1  0
  4  5  2  0
  5  6  1  0
  6  7  2  0
  6  8  2  0
  6  9  1  0
  9 10  2  0
 10 11  1  0
 11 12  2  0
 12 13  1  0
 12 14  1  0
 14 15  2  0
  5 16  1  0
 16 17  2  0
 17 18  1  0
 18 19  2  0
 18 20  2  0
 18 21  1  0
 21 22  1  0
 21 23  1  0
 23 24  1  0
 24 25  2  0
 24 26  1  0
 17  2  1  0
 15  9  1  0
  1 27  1  0
  1 28  1  0
  1 29  1  0
  3 30  1  0
  4 31  1  0
 10 32  1  0
 11 33  1  0
 14 34  1  0
 15 35  1  0
 16 36  1  0
 22 37  1  0
 22 38  1  0
 22 39  1  0
 23 40  1  0
 23 41  1  0
 26 42  1  0
M  END
$$$$
