
     RDKit          3D

 48 50  0  0  0  0  0  0  0  0999 V2000
    5.6656   -0.1523    2.0523 C   0  0  0  0  0  0  0  0  0  0  0  0
    5.4971   -1.0717    0.8523 C   0  0  0  0  0  0  0  0  0  0  0  0
    4.7408   -0.4198   -0.2246 N   0  0  0  0  0  0  0  0  0  0  0  0
    5.5121    0.4133   -1.1579 C   0  0  0  0  0  0  0  0  0  0  0  0
    5.2393    1.8975   -0.9523 C   0  0  0  0  0  0  0  0  0  0  0  0
    3.3638   -0.5835   -0.3484 C   0  0  0  0  0  0  0  0  0  0  0  0
    2.5730   -1.1052    0.6905 C   0  0  0  0  0  0  0  0  0  0  0  0
    1.1847   -1.2743    0.5714 C   0  0  0  0  0  0  0  0  0  0  0  0
    0.5314   -0.9196   -0.6048 C   0  0  0  0  0  0  0  0  0  0  0  0
   -0.9117   -1.1328   -0.7326 C   0  0  0  0  0  0  0  0  0  0  0  0
   -1.8852   -0.1994   -0.7431 C   0  0  0  0  0  0  0  0  0  0  0  0
   -1.6442    1.2518   -0.5921 C   0  0  0  0  0  0  0  0  0  0  0  0
   -0.5707    1.7655   -0.3059 O   0  0  0  0  0  0  0  0  0  0  0  0
   -2.7460    2.0326   -0.7783 N   0  0  0  0  0  0  0  0  0  0  0  0
   -4.0451    1.6260   -0.7559 C   0  0  0  0  0  0  0  0  0  0  0  0
   -4.9342    2.4729   -0.6797 O   0  0  0  0  0  0  0  0  0  0  0  0
   -4.2748    0.2685   -0.8142 N   0  0  0  0  0  0  0  0  0  0  0  0
   -5.6602   -0.1806   -0.7924 C   0  0  0  0  0  0  0  0  0  0  0  0
   -6.1197   -0.2735    0.6219 C   0  0  0  0  0  0  0  0  0  0  0  0
   -6.8051    0.5889    1.4533 C   0  0  0  0  0  0  0  0  0  0  0  0
   -6.9339   -0.0737    2.6974 C   0  0  0  0  0  0  0  0  0  0  0  0
   -6.3195   -1.2944    2.5468 C   0  0  0  0  0  0  0  0  0  0  0  0
   -5.8202   -1.4236    1.2912 O   0  0  0  0  0  0  0  0  0  0  0  0
   -3.2823   -0.6932   -0.9085 C   0  0  0  0  0  0  0  0  0  0  0  0
   -3.5138   -1.8805   -1.1326 O   0  0  0  0  0  0  0  0  0  0  0  0
    1.2831   -0.4063   -1.6574 C   0  0  0  0  0  0  0  0  0  0  0  0
    2.6706   -0.2410   -1.5228 C   0  0  0  0  0  0  0  0  0  0  0  0
    6.1865   -0.6775    2.8590 H   0  0  0  0  0  0  0  0  0  0  0  0
    4.7021    0.1947    2.4376 H   0  0  0  0  0  0  0  0  0  0  0  0
    6.2586    0.7299    1.7920 H   0  0  0  0  0  0  0  0  0  0  0  0
    6.4915   -1.3562    0.4855 H   0  0  0  0  0  0  0  0  0  0  0  0
    5.0363   -2.0189    1.1558 H   0  0  0  0  0  0  0  0  0  0  0  0
    5.3251    0.1214   -2.1972 H   0  0  0  0  0  0  0  0  0  0  0  0
    6.5866    0.2486   -1.0083 H   0  0  0  0  0  0  0  0  0  0  0  0
    5.4649    2.2042    0.0735 H   0  0  0  0  0  0  0  0  0  0  0  0
    4.1952    2.1548   -1.1527 H   0  0  0  0  0  0  0  0  0  0  0  0
    5.8645    2.4907   -1.6273 H   0  0  0  0  0  0  0  0  0  0  0  0
    3.0149   -1.3794    1.6432 H   0  0  0  0  0  0  0  0  0  0  0  0
    0.6293   -1.6795    1.4135 H   0  0  0  0  0  0  0  0  0  0  0  0
   -1.1684   -2.1887   -0.8245 H   0  0  0  0  0  0  0  0  0  0  0  0
   -2.6004    3.0236   -0.6452 H   0  0  0  0  0  0  0  0  0  0  0  0
   -5.7668   -1.1533   -1.2847 H   0  0  0  0  0  0  0  0  0  0  0  0
   -6.2892    0.5290   -1.3427 H   0  0  0  0  0  0  0  0  0  0  0  0
   -7.1588    1.5773    1.1908 H   0  0  0  0  0  0  0  0  0  0  0  0
   -7.4130    0.2928    3.5943 H   0  0  0  0  0  0  0  0  0  0  0  0
   -6.1589   -2.1393    3.2021 H   0  0  0  0  0  0  0  0  0  0  0  0
    0.8087   -0.1259   -2.5938 H   0  0  0  0  0  0  0  0  0  0  0  0
    3.1963    0.1600   -2.3832 H   0  0  0  0  0  0  0  0  0  0  0  0
  1  2  1  0
  2  3  1  0
  3  4  1  0
  4  5  1  0
  3  6  1  0
  6  7  2  0
  7  8  1  0
  8  9  2  0
  9 10  1  0
 10 11  2  3
 11 12  1  0
 12 13  2  0
 12 14  1  0
 14 15  1  0
 15 16  2  0
 15 17  1  0
 17 18  1  0
 18 19  1  0
 19 20  2  0
 20 21  1  0
 21 22  2  0
 22 23  1  0
 17 24  1  0
 24 25  2  0
  9 26  1  0
 26 27  2  0
 27  6  1  0
 24 11  1  0
 23 19  1  0
  1 28  1  0
  1 29  1  0
  1 30  1  0
  2 31  1  0
  2 32  1  0
  4 33  1  0
  4 34  1  0
  5 35  1  0
  5 36  1  0
  5 37  1  0
  7 38  1  0
  8 39  1  0
 10 40  1  0
 14 41  1  0
 18 42  1  0
 18 43  1  0
 20 44  1  0
 21 45  1  0
 22 46  1  0
 26 47  1  0
 27 48  1  0
M  END
$$$$
