
     RDKit          3D

 42 44  0  0  0  0  0  0  0  0999 V2000
    1.5603    4.2106    1.4887 C   0  0  0  0  0  0  0  0  0  0  0  0
   -0.0502    3.9205    0.7108 S   0  0  0  0  0  0  0  0  0  0  0  0
    0.0422    2.1563    0.4014 C   0  0  0  0  0  0  0  0  0  0  0  0
    1.2821    1.6315    0.3577 N   0  0  0  0  0  0  0  0  0  0  0  0
    1.3853    0.3298    0.0498 C   0  0  0  0  0  0  0  0  0  0  0  0
    2.7366   -0.2636   -0.0098 C   0  0  0  0  0  0  0  0  0  0  0  0
    3.8928    0.5147    0.1964 C   0  0  0  0  0  0  0  0  0  0  0  0
    5.1732   -0.0460    0.1405 C   0  0  0  0  0  0  0  0  0  0  0  0
    5.3284   -1.4031   -0.1234 C   0  0  0  0  0  0  0  0  0  0  0  0
    4.2062   -2.1986   -0.3314 C   0  0  0  0  0  0  0  0  0  0  0  0
    2.9275   -1.6341   -0.2750 C   0  0  0  0  0  0  0  0  0  0  0  0
    0.3347   -0.4682   -0.2150 N   0  0  0  0  0  0  0  0  0  0  0  0
   -0.9071    0.0502   -0.1475 C   0  0  0  0  0  0  0  0  0  0  0  0
   -1.9875   -0.7995   -0.4274 N   0  0  0  0  0  0  0  0  0  0  0  0
   -2.9510   -0.9880    0.6892 C   0  0  0  0  0  0  0  0  0  0  0  0
   -3.1074   -2.4741    1.0560 C   0  0  0  0  0  0  0  0  0  0  0  0
   -3.5003   -3.3005   -0.0487 O   0  0  0  0  0  0  0  0  0  0  0  0
   -2.9102   -2.9014   -1.2962 C   0  0  0  0  0  0  0  0  0  0  0  0
   -1.6418   -2.0508   -1.1327 C   0  0  0  0  0  0  0  0  0  0  0  0
   -1.0863    1.3958    0.1514 C   0  0  0  0  0  0  0  0  0  0  0  0
   -2.4220    1.9996    0.1236 C   0  0  0  0  0  0  0  0  0  0  0  0
   -2.9968    2.3379   -1.2245 C   0  0  0  0  0  0  0  0  0  0  0  0
   -3.0265    2.1823    1.1762 O   0  0  0  0  0  0  0  0  0  0  0  0
    1.6897    3.5677    2.3639 H   0  0  0  0  0  0  0  0  0  0  0  0
    2.3729    4.0358    0.7782 H   0  0  0  0  0  0  0  0  0  0  0  0
    1.6127    5.2523    1.8167 H   0  0  0  0  0  0  0  0  0  0  0  0
    3.8033    1.5799    0.4039 H   0  0  0  0  0  0  0  0  0  0  0  0
    6.0465    0.5804    0.3036 H   0  0  0  0  0  0  0  0  0  0  0  0
    6.3226   -1.8402   -0.1668 H   0  0  0  0  0  0  0  0  0  0  0  0
    4.3214   -3.2597   -0.5373 H   0  0  0  0  0  0  0  0  0  0  0  0
    2.0679   -2.2819   -0.4403 H   0  0  0  0  0  0  0  0  0  0  0  0
   -3.9202   -0.6002    0.3545 H   0  0  0  0  0  0  0  0  0  0  0  0
   -2.6566   -0.4431    1.5936 H   0  0  0  0  0  0  0  0  0  0  0  0
   -3.8664   -2.5880    1.8367 H   0  0  0  0  0  0  0  0  0  0  0  0
   -2.1680   -2.8714    1.4587 H   0  0  0  0  0  0  0  0  0  0  0  0
   -3.6720   -2.3469   -1.8564 H   0  0  0  0  0  0  0  0  0  0  0  0
   -2.6856   -3.8128   -1.8593 H   0  0  0  0  0  0  0  0  0  0  0  0
   -0.8982   -2.6283   -0.5684 H   0  0  0  0  0  0  0  0  0  0  0  0
   -1.2310   -1.8191   -2.1222 H   0  0  0  0  0  0  0  0  0  0  0  0
   -3.8681    1.7056   -1.4138 H   0  0  0  0  0  0  0  0  0  0  0  0
   -2.2647    2.1767   -2.0209 H   0  0  0  0  0  0  0  0  0  0  0  0
   -3.2885    3.3915   -1.2347 H   0  0  0  0  0  0  0  0  0  0  0  0
  1  2  1  0
  2  3  1  0
  3  4  2  0
  4  5  1  0
  5  6  1  0
  6  7  2  0
  7  8  1  0
  8  9  2  0
  9 10  1  0
 10 11  2  0
  5 12  2  0
 12 13  1  0
 13 14  1  0
 14 15  1  0
 15 16  1  0
 16 17  1  0
 17 18  1  0
 18 19  1  0
 13 20  2  0
 20 21  1  0
 21 22  1  0
 21 23  2  0
 20  3  1  0
 11  6  1  0
 19 14  1  0
  1 24  1  0
  1 25  1  0
  1 26  1  0
  7 27  1  0
  8 28  1  0
  9 29  1  0
 10 30  1  0
 11 31  1  0
 15 32  1  0
 15 33  1  0
 16 34  1  0
 16 35  1  0
 18 36  1  0
 18 37  1  0
 19 38  1  0
 19 39  1  0
 22 40  1  0
 22 41  1  0
 22 42  1  0
M  END
$$$$
