
     RDKit          3D

 46 49  0  0  0  0  0  0  0  0999 V2000
   -1.2622   -0.8645    4.8400 C   0  0  0  0  0  0  0  0  0  0  0  0
   -1.7889   -0.6110    3.5384 O   0  0  0  0  0  0  0  0  0  0  0  0
   -0.8413   -0.4709    2.5627 C   0  0  0  0  0  0  0  0  0  0  0  0
    0.3660   -0.5368    2.7724 O   0  0  0  0  0  0  0  0  0  0  0  0
   -1.4108   -0.2297    1.2387 C   0  0  0  0  0  0  0  0  0  0  0  0
   -2.7359   -0.1646    0.9969 N   0  0  0  0  0  0  0  0  0  0  0  0
   -2.7896    0.0911   -0.3348 N   0  0  0  0  0  0  0  0  0  0  0  0
   -4.0236    0.2474   -1.0184 C   0  0  0  0  0  0  0  0  0  0  0  0
   -4.0351    0.5464   -2.3880 C   0  0  0  0  0  0  0  0  0  0  0  0
   -5.2507    0.7037   -3.0535 C   0  0  0  0  0  0  0  0  0  0  0  0
   -6.4528    0.5642   -2.3614 C   0  0  0  0  0  0  0  0  0  0  0  0
   -6.4461    0.2644   -1.0004 C   0  0  0  0  0  0  0  0  0  0  0  0
   -5.2349    0.1055   -0.3260 C   0  0  0  0  0  0  0  0  0  0  0  0
   -1.5974    0.1977   -0.9703 N   0  0  0  0  0  0  0  0  0  0  0  0
   -0.7258   -0.0154    0.0226 C   0  0  0  0  0  0  0  0  0  0  0  0
    0.7227    0.0302   -0.1692 C   0  0  0  0  0  0  0  0  0  0  0  0
    1.3682    1.1342   -0.5636 N   0  0  0  0  0  0  0  0  0  0  0  0
    2.6533    0.7082   -0.6292 N   0  0  0  0  0  0  0  0  0  0  0  0
    3.7106    1.5680   -1.0261 C   0  0  0  0  0  0  0  0  0  0  0  0
    5.0256    1.0839   -1.0901 C   0  0  0  0  0  0  0  0  0  0  0  0
    6.0606    1.9321   -1.4899 C   0  0  0  0  0  0  0  0  0  0  0  0
    5.7890    3.2592   -1.8239 C   0  0  0  0  0  0  0  0  0  0  0  0
    4.4830    3.7441   -1.7601 C   0  0  0  0  0  0  0  0  0  0  0  0
    3.4422    2.9029   -1.3613 C   0  0  0  0  0  0  0  0  0  0  0  0
    2.8697   -0.5904   -0.3014 N   0  0  0  0  0  0  0  0  0  0  0  0
    1.6313   -1.0388   -0.0102 C   0  0  0  0  0  0  0  0  0  0  0  0
    1.3398   -2.4161    0.3819 C   0  0  0  0  0  0  0  0  0  0  0  0
    0.2038   -2.8233    0.6059 O   0  0  0  0  0  0  0  0  0  0  0  0
    2.4574   -3.1997    0.4669 O   0  0  0  0  0  0  0  0  0  0  0  0
    2.2023   -4.5475    0.8577 C   0  0  0  0  0  0  0  0  0  0  0  0
   -0.7685   -1.8425    4.8650 H   0  0  0  0  0  0  0  0  0  0  0  0
   -2.0975   -0.8769    5.5476 H   0  0  0  0  0  0  0  0  0  0  0  0
   -0.5697   -0.0694    5.1395 H   0  0  0  0  0  0  0  0  0  0  0  0
   -3.1080    0.6616   -2.9465 H   0  0  0  0  0  0  0  0  0  0  0  0
   -5.2592    0.9388   -4.1148 H   0  0  0  0  0  0  0  0  0  0  0  0
   -7.3975    0.6892   -2.8827 H   0  0  0  0  0  0  0  0  0  0  0  0
   -7.3855    0.1557   -0.4624 H   0  0  0  0  0  0  0  0  0  0  0  0
   -5.2521   -0.1307    0.7349 H   0  0  0  0  0  0  0  0  0  0  0  0
    5.2587    0.0501   -0.8373 H   0  0  0  0  0  0  0  0  0  0  0  0
    7.0796    1.5557   -1.5425 H   0  0  0  0  0  0  0  0  0  0  0  0
    6.5966    3.9163   -2.1384 H   0  0  0  0  0  0  0  0  0  0  0  0
    4.2740    4.7781   -2.0230 H   0  0  0  0  0  0  0  0  0  0  0  0
    2.4300    3.3003   -1.3207 H   0  0  0  0  0  0  0  0  0  0  0  0
    3.1622   -5.0660    0.9338 H   0  0  0  0  0  0  0  0  0  0  0  0
    1.7138   -4.5805    1.8366 H   0  0  0  0  0  0  0  0  0  0  0  0
    1.5928   -5.0542    0.1027 H   0  0  0  0  0  0  0  0  0  0  0  0
  1  2  1  0
  2  3  1  0
  3  4  2  0
  3  5  1  0
  5  6  2  0
  6  7  1  0
  7  8  1  0
  8  9  2  0
  9 10  1  0
 10 11  2  0
 11 12  1  0
 12 13  2  0
  7 14  1  0
 14 15  2  0
 15 16  1  0
 16 17  2  0
 17 18  1  0
 18 19  1  0
 19 20  2  0
 20 21  1  0
 21 22  2  0
 22 23  1  0
 23 24  2  0
 18 25  1  0
 25 26  2  0
 26 27  1  0
 27 28  2  0
 27 29  1  0
 29 30  1  0
 15  5  1  0
 26 16  1  0
 13  8  1  0
 24 19  1  0
  1 31  1  0
  1 32  1  0
  1 33  1  0
  9 34  1  0
 10 35  1  0
 11 36  1  0
 12 37  1  0
 13 38  1  0
 20 39  1  0
 21 40  1  0
 22 41  1  0
 23 42  1  0
 24 43  1  0
 30 44  1  0
 30 45  1  0
 30 46  1  0
M  END
$$$$
