
     RDKit          3D

 62 64  0  0  0  0  0  0  0  0999 V2000
    8.4826    4.1621    1.2570 C   0  0  0  0  0  0  0  0  0  0  0  0
    7.2795    4.7632    0.7951 O   0  0  0  0  0  0  0  0  0  0  0  0
    6.1257    4.0524    0.9780 C   0  0  0  0  0  0  0  0  0  0  0  0
    4.9685    4.6919    0.5344 C   0  0  0  0  0  0  0  0  0  0  0  0
    3.7219    4.0766    0.6598 C   0  0  0  0  0  0  0  0  0  0  0  0
    3.6146    2.8077    1.2387 C   0  0  0  0  0  0  0  0  0  0  0  0
    2.2692    2.1349    1.3604 C   0  0  0  0  0  0  0  0  0  0  0  0
    2.0955    1.0256    0.3254 C   0  0  0  0  0  0  0  0  0  0  0  0
    0.7331    0.3676    0.4440 C   0  0  0  0  0  0  0  0  0  0  0  0
   -0.2093    0.9210    0.9988 O   0  0  0  0  0  0  0  0  0  0  0  0
    0.7030   -0.8632   -0.1736 N   0  0  0  0  0  0  0  0  0  0  0  0
   -0.3588   -1.7886   -0.2310 C   0  0  0  0  0  0  0  0  0  0  0  0
   -1.5743   -1.6208    0.4264 C   0  0  0  0  0  0  0  0  0  0  0  0
   -2.5616   -2.6045    0.3024 C   0  0  0  0  0  0  0  0  0  0  0  0
   -4.1130   -2.3627    1.1318 S   0  0  0  0  0  6  0  0  0  0  0  0
   -3.8291   -2.3061    2.5501 O   0  0  0  0  0  0  0  0  0  0  0  0
   -5.0672   -3.3079    0.5936 O   0  0  0  0  0  0  0  0  0  0  0  0
   -4.5731   -0.8160    0.5984 N   0  0  0  0  0  0  0  0  0  0  0  0
   -4.8702   -0.6603   -0.8498 C   0  0  0  0  0  0  0  0  0  0  0  0
   -6.3229   -0.2653   -1.0792 C   0  0  0  0  0  0  0  0  0  0  0  0
   -6.6731    1.0471   -0.3811 C   0  0  0  0  0  0  0  0  0  0  0  0
   -5.8686    1.2576    0.8985 C   0  0  0  0  0  0  0  0  0  0  0  0
   -5.4574   -0.0701    1.5250 C   0  0  0  0  0  0  0  0  0  0  0  0
   -2.3495   -3.7523   -0.4627 C   0  0  0  0  0  0  0  0  0  0  0  0
   -1.1272   -3.9258   -1.1135 C   0  0  0  0  0  0  0  0  0  0  0  0
   -0.1195   -2.9528   -1.0061 C   0  0  0  0  0  0  0  0  0  0  0  0
    1.1471   -3.0843   -1.6481 N   0  0  0  0  0  0  0  0  0  0  0  0
    1.8827   -4.2537   -1.1506 C   0  0  0  0  0  0  0  0  0  0  0  0
    1.0055   -3.0566   -3.1104 C   0  0  0  0  0  0  0  0  0  0  0  0
    4.7765    2.1699    1.6865 C   0  0  0  0  0  0  0  0  0  0  0  0
    6.0248    2.7871    1.5532 C   0  0  0  0  0  0  0  0  0  0  0  0
    8.4440    3.9778    2.3351 H   0  0  0  0  0  0  0  0  0  0  0  0
    8.6964    3.2418    0.7032 H   0  0  0  0  0  0  0  0  0  0  0  0
    9.3015    4.8634    1.0669 H   0  0  0  0  0  0  0  0  0  0  0  0
    5.0383    5.6787    0.0827 H   0  0  0  0  0  0  0  0  0  0  0  0
    2.8356    4.5996    0.3062 H   0  0  0  0  0  0  0  0  0  0  0  0
    1.4717    2.8784    1.2562 H   0  0  0  0  0  0  0  0  0  0  0  0
    2.1631    1.7272    2.3739 H   0  0  0  0  0  0  0  0  0  0  0  0
    2.1863    1.4313   -0.6899 H   0  0  0  0  0  0  0  0  0  0  0  0
    2.8741    0.2647    0.4578 H   0  0  0  0  0  0  0  0  0  0  0  0
    1.5191   -1.1831   -0.6924 H   0  0  0  0  0  0  0  0  0  0  0  0
   -1.7751   -0.7478    1.0398 H   0  0  0  0  0  0  0  0  0  0  0  0
   -4.1976    0.1069   -1.2509 H   0  0  0  0  0  0  0  0  0  0  0  0
   -4.6581   -1.5826   -1.4010 H   0  0  0  0  0  0  0  0  0  0  0  0
   -6.9745   -1.0608   -0.6954 H   0  0  0  0  0  0  0  0  0  0  0  0
   -6.5315   -0.1807   -2.1529 H   0  0  0  0  0  0  0  0  0  0  0  0
   -6.4958    1.8952   -1.0539 H   0  0  0  0  0  0  0  0  0  0  0  0
   -7.7439    1.0513   -0.1559 H   0  0  0  0  0  0  0  0  0  0  0  0
   -6.4503    1.8537    1.6072 H   0  0  0  0  0  0  0  0  0  0  0  0
   -4.9724    1.8404    0.6635 H   0  0  0  0  0  0  0  0  0  0  0  0
   -6.3430   -0.6655    1.7661 H   0  0  0  0  0  0  0  0  0  0  0  0
   -4.9098    0.1285    2.4505 H   0  0  0  0  0  0  0  0  0  0  0  0
   -3.1216   -4.5132   -0.5497 H   0  0  0  0  0  0  0  0  0  0  0  0
   -0.9691   -4.8250   -1.7026 H   0  0  0  0  0  0  0  0  0  0  0  0
    2.9130   -4.2162   -1.5208 H   0  0  0  0  0  0  0  0  0  0  0  0
    1.9337   -4.2519   -0.0554 H   0  0  0  0  0  0  0  0  0  0  0  0
    1.4388   -5.1983   -1.4876 H   0  0  0  0  0  0  0  0  0  0  0  0
    0.5105   -2.1358   -3.4335 H   0  0  0  0  0  0  0  0  0  0  0  0
    1.9976   -3.0696   -3.5739 H   0  0  0  0  0  0  0  0  0  0  0  0
    0.4460   -3.9185   -3.4926 H   0  0  0  0  0  0  0  0  0  0  0  0
    4.7190    1.1858    2.1469 H   0  0  0  0  0  0  0  0  0  0  0  0
    6.8988    2.2503    1.9043 H   0  0  0  0  0  0  0  0  0  0  0  0
  1  2  1  0
  2  3  1  0
  3  4  2  0
  4  5  1  0
  5  6  2  0
  6  7  1  0
  7  8  1  0
  8  9  1  0
  9 10  2  0
  9 11  1  0
 11 12  1  0
 12 13  2  0
 13 14  1  0
 14 15  1  0
 15 16  2  0
 15 17  2  0
 15 18  1  0
 18 19  1  0
 19 20  1  0
 20 21  1  0
 21 22  1  0
 22 23  1  0
 14 24  2  0
 24 25  1  0
 25 26  2  0
 26 27  1  0
 27 28  1  0
 27 29  1  0
  6 30  1  0
 30 31  2  0
 31  3  1  0
 26 12  1  0
 23 18  1  0
  1 32  1  0
  1 33  1  0
  1 34  1  0
  4 35  1  0
  5 36  1  0
  7 37  1  0
  7 38  1  0
  8 39  1  0
  8 40  1  0
 11 41  1  0
 13 42  1  0
 19 43  1  0
 19 44  1  0
 20 45  1  0
 20 46  1  0
 21 47  1  0
 21 48  1  0
 22 49  1  0
 22 50  1  0
 23 51  1  0
 23 52  1  0
 24 53  1  0
 25 54  1  0
 28 55  1  0
 28 56  1  0
 28 57  1  0
 29 58  1  0
 29 59  1  0
 29 60  1  0
 30 61  1  0
 31 62  1  0
M  END
$$$$
