
     RDKit          3D

 37 39  0  0  0  0  0  0  0  0999 V2000
   -5.3541    1.6142    0.8859 C   0  0  0  0  0  0  0  0  0  0  0  0
   -4.5882    0.6495    0.0298 C   0  0  0  0  0  0  0  0  0  0  0  0
   -5.2082   -0.1498   -0.8508 C   0  0  0  0  0  0  0  0  0  0  0  0
   -4.5026   -1.1112   -1.7117 C   0  0  0  0  0  0  0  0  0  0  0  0
   -5.1203   -1.8151   -2.5024 O   0  0  0  0  0  0  0  0  0  0  0  0
   -3.1264   -1.1735   -1.5825 O   0  0  0  0  0  0  0  0  0  0  0  0
   -2.4423   -0.3488   -0.6661 C   0  0  0  0  0  0  0  0  0  0  0  0
   -1.0519   -0.5013   -0.6233 C   0  0  0  0  0  0  0  0  0  0  0  0
   -0.3086    0.2793    0.2556 C   0  0  0  0  0  0  0  0  0  0  0  0
    1.0464    0.2560    0.4238 O   0  0  0  0  0  0  0  0  0  0  0  0
    1.8294   -0.6347   -0.3741 C   0  0  0  0  0  0  0  0  0  0  0  0
    1.7431   -2.1002    0.0841 C   0  0  0  0  0  0  0  0  0  0  0  0
    1.2952   -2.5276    1.1373 O   0  0  0  0  0  0  0  0  0  0  0  0
    2.2209   -2.9689   -0.8384 O   0  0  0  0  0  0  0  0  0  0  0  0
    3.2734   -0.1521   -0.3014 C   0  0  0  0  0  0  0  0  0  0  0  0
    3.8805    0.1225    0.9357 C   0  0  0  0  0  0  0  0  0  0  0  0
    5.2090    0.5453    0.9972 C   0  0  0  0  0  0  0  0  0  0  0  0
    5.9482    0.6948   -0.1742 C   0  0  0  0  0  0  0  0  0  0  0  0
    5.3610    0.4210   -1.4079 C   0  0  0  0  0  0  0  0  0  0  0  0
    4.0320   -0.0018   -1.4730 C   0  0  0  0  0  0  0  0  0  0  0  0
   -0.9744    1.1963    1.0741 C   0  0  0  0  0  0  0  0  0  0  0  0
   -2.3672    1.3381    1.0210 C   0  0  0  0  0  0  0  0  0  0  0  0
   -3.1264    0.5606    0.1425 C   0  0  0  0  0  0  0  0  0  0  0  0
   -5.2080    1.3925    1.9484 H   0  0  0  0  0  0  0  0  0  0  0  0
   -6.4313    1.5655    0.6905 H   0  0  0  0  0  0  0  0  0  0  0  0
   -5.0365    2.6441    0.6912 H   0  0  0  0  0  0  0  0  0  0  0  0
   -6.2844   -0.1339   -0.9822 H   0  0  0  0  0  0  0  0  0  0  0  0
   -0.6026   -1.2346   -1.2824 H   0  0  0  0  0  0  0  0  0  0  0  0
    1.4966   -0.5703   -1.4178 H   0  0  0  0  0  0  0  0  0  0  0  0
    2.1316   -3.8435   -0.4033 H   0  0  0  0  0  0  0  0  0  0  0  0
    3.3158    0.0110    1.8603 H   0  0  0  0  0  0  0  0  0  0  0  0
    5.6663    0.7582    1.9600 H   0  0  0  0  0  0  0  0  0  0  0  0
    6.9828    1.0243   -0.1254 H   0  0  0  0  0  0  0  0  0  0  0  0
    5.9396    0.5356   -2.3211 H   0  0  0  0  0  0  0  0  0  0  0  0
    3.5954   -0.2162   -2.4462 H   0  0  0  0  0  0  0  0  0  0  0  0
   -0.4014    1.8098    1.7670 H   0  0  0  0  0  0  0  0  0  0  0  0
   -2.8323    2.0650    1.6813 H   0  0  0  0  0  0  0  0  0  0  0  0
  1  2  1  0
  2  3  2  0
  3  4  1  0
  4  5  2  0
  4  6  1  0
  6  7  1  0
  7  8  2  0
  8  9  1  0
  9 10  1  0
 10 11  1  0
 11 12  1  0
 12 13  2  0
 12 14  1  0
 11 15  1  0
 15 16  2  0
 16 17  1  0
 17 18  2  0
 18 19  1  0
 19 20  2  0
  9 21  2  0
 21 22  1  0
 22 23  2  0
 23  2  1  0
 23  7  1  0
 20 15  1  0
  1 24  1  0
  1 25  1  0
  1 26  1  0
  3 27  1  0
  8 28  1  0
 11 29  1  0
 14 30  1  0
 16 31  1  0
 17 32  1  0
 18 33  1  0
 19 34  1  0
 20 35  1  0
 21 36  1  0
 22 37  1  0
M  END
$$$$
