
     RDKit          3D

 53 55  0  0  0  0  0  0  0  0999 V2000
    7.6249   -2.9931    1.6778 C   0  0  0  0  0  0  0  0  0  0  0  0
    6.4211   -3.5043    1.1070 O   0  0  0  0  0  0  0  0  0  0  0  0
    5.5894   -2.5982    0.5077 C   0  0  0  0  0  0  0  0  0  0  0  0
    5.8126   -1.2273    0.4030 C   0  0  0  0  0  0  0  0  0  0  0  0
    4.8762   -0.4119   -0.2405 C   0  0  0  0  0  0  0  0  0  0  0  0
    3.7020   -0.9526   -0.7863 C   0  0  0  0  0  0  0  0  0  0  0  0
    2.7525   -0.1408   -1.4276 C   0  0  0  0  0  0  0  0  0  0  0  0
    1.5723   -0.6814   -1.9701 C   0  0  0  0  0  0  0  0  0  0  0  0
    0.5487    0.2533   -2.6007 C   0  0  0  0  0  0  0  0  0  0  0  0
    0.0802   -0.2429   -3.9737 C   0  0  0  0  0  0  0  0  0  0  0  0
   -0.6631    0.6108   -1.7159 C   0  0  0  0  0  0  0  0  0  0  0  0
   -1.6199    1.2174   -2.2042 O   0  0  0  0  0  0  0  0  0  0  0  0
   -0.5575    0.2644   -0.3779 N   0  0  0  0  0  0  0  0  0  0  0  0
   -1.4383    0.6088    0.6677 C   0  0  0  0  0  0  0  0  0  0  0  0
   -1.2556   -0.0366    1.9005 C   0  0  0  0  0  0  0  0  0  0  0  0
   -2.0815    0.2507    2.9920 C   0  0  0  0  0  0  0  0  0  0  0  0
   -3.0943    1.1962    2.8660 C   0  0  0  0  0  0  0  0  0  0  0  0
   -3.2754    1.8433    1.6406 C   0  0  0  0  0  0  0  0  0  0  0  0
   -4.5159    3.1064    1.4895 S   0  0  0  0  0  6  0  0  0  0  0  0
   -4.7892    3.6169    2.8200 O   0  0  0  0  0  0  0  0  0  0  0  0
   -4.1265    4.0092    0.4257 O   0  0  0  0  0  0  0  0  0  0  0  0
   -5.8984    2.2398    0.9615 N   0  0  0  0  0  0  0  0  0  0  0  0
   -5.7643    1.6000   -0.3698 C   0  0  0  0  0  0  0  0  0  0  0  0
   -7.1361    3.0504    1.0531 C   0  0  0  0  0  0  0  0  0  0  0  0
   -2.4425    1.5674    0.5495 C   0  0  0  0  0  0  0  0  0  0  0  0
    1.3523   -2.0610   -1.8605 C   0  0  0  0  0  0  0  0  0  0  0  0
    2.2919   -2.8788   -1.2259 C   0  0  0  0  0  0  0  0  0  0  0  0
    3.4701   -2.3397   -0.6829 C   0  0  0  0  0  0  0  0  0  0  0  0
    4.4226   -3.1460   -0.0355 C   0  0  0  0  0  0  0  0  0  0  0  0
    7.4046   -2.3000    2.4980 H   0  0  0  0  0  0  0  0  0  0  0  0
    8.1832   -3.8359    2.0964 H   0  0  0  0  0  0  0  0  0  0  0  0
    8.2574   -2.5213    0.9188 H   0  0  0  0  0  0  0  0  0  0  0  0
    6.7016   -0.7577    0.8096 H   0  0  0  0  0  0  0  0  0  0  0  0
    5.0725    0.6558   -0.3108 H   0  0  0  0  0  0  0  0  0  0  0  0
    2.9345    0.9320   -1.5006 H   0  0  0  0  0  0  0  0  0  0  0  0
    1.0509    1.2158   -2.7814 H   0  0  0  0  0  0  0  0  0  0  0  0
   -0.5479   -1.1369   -3.8914 H   0  0  0  0  0  0  0  0  0  0  0  0
    0.9327   -0.4830   -4.6181 H   0  0  0  0  0  0  0  0  0  0  0  0
   -0.5164    0.5229   -4.4828 H   0  0  0  0  0  0  0  0  0  0  0  0
    0.1971   -0.3605   -0.1194 H   0  0  0  0  0  0  0  0  0  0  0  0
   -0.4702   -0.7777    2.0279 H   0  0  0  0  0  0  0  0  0  0  0  0
   -1.9282   -0.2598    3.9400 H   0  0  0  0  0  0  0  0  0  0  0  0
   -3.7301    1.4307    3.7171 H   0  0  0  0  0  0  0  0  0  0  0  0
   -5.0783    0.7511   -0.3150 H   0  0  0  0  0  0  0  0  0  0  0  0
   -5.4195    2.3133   -1.1221 H   0  0  0  0  0  0  0  0  0  0  0  0
   -6.7293    1.1991   -0.6972 H   0  0  0  0  0  0  0  0  0  0  0  0
   -7.3214    3.3417    2.0919 H   0  0  0  0  0  0  0  0  0  0  0  0
   -7.0652    3.9457    0.4269 H   0  0  0  0  0  0  0  0  0  0  0  0
   -8.0012    2.4607    0.7291 H   0  0  0  0  0  0  0  0  0  0  0  0
   -2.5861    2.1263   -0.3701 H   0  0  0  0  0  0  0  0  0  0  0  0
    0.4444   -2.5169   -2.2571 H   0  0  0  0  0  0  0  0  0  0  0  0
    2.0963   -3.9473   -1.1571 H   0  0  0  0  0  0  0  0  0  0  0  0
    4.2603   -4.2186    0.0534 H   0  0  0  0  0  0  0  0  0  0  0  0
  1  2  1  0
  2  3  1  0
  3  4  2  0
  4  5  1  0
  5  6  2  0
  6  7  1  0
  7  8  2  0
  8  9  1  0
  9 10  1  0
  9 11  1  0
 11 12  2  0
 11 13  1  0
 13 14  1  0
 14 15  2  0
 15 16  1  0
 16 17  2  0
 17 18  1  0
 18 19  1  0
 19 20  2  0
 19 21  2  0
 19 22  1  0
 22 23  1  0
 22 24  1  0
 18 25  2  0
  8 26  1  0
 26 27  2  0
 27 28  1  0
 28 29  2  0
 29  3  1  0
 28  6  1  0
 25 14  1  0
  1 30  1  0
  1 31  1  0
  1 32  1  0
  4 33  1  0
  5 34  1  0
  7 35  1  0
  9 36  1  0
 10 37  1  0
 10 38  1  0
 10 39  1  0
 13 40  1  0
 15 41  1  0
 16 42  1  0
 17 43  1  0
 23 44  1  0
 23 45  1  0
 23 46  1  0
 24 47  1  0
 24 48  1  0
 24 49  1  0
 25 50  1  0
 26 51  1  0
 27 52  1  0
 29 53  1  0
M  END
$$$$
