
     RDKit          3D

 40 42  0  0  0  0  0  0  0  0999 V2000
   -5.3539    0.8257   -1.2290 C   0  0  0  0  0  0  0  0  0  0  0  0
   -5.0925    0.8640    0.2802 C   0  0  0  0  0  0  0  0  0  0  0  0
   -3.8989    1.7774    0.6316 C   0  0  0  0  0  0  0  0  0  0  0  0
   -2.5540    1.2524    0.1040 C   0  0  0  0  0  0  0  0  0  0  0  0
   -2.3988   -0.2272    0.3261 C   0  0  0  0  0  0  0  0  0  0  0  0
   -1.1718   -0.9850    0.2176 C   0  0  0  0  0  0  0  0  0  0  0  0
    0.1457   -0.4264   -0.1376 C   0  0  0  0  0  0  0  0  0  0  0  0
    0.2308    0.5888   -0.8185 O   0  0  0  0  0  0  0  0  0  0  0  0
    1.2135   -1.1272    0.3973 N   0  0  0  0  0  0  0  0  0  0  0  0
    2.5883   -0.8761    0.2130 C   0  0  0  0  0  0  0  0  0  0  0  0
    3.4850   -1.6717    0.9331 C   0  0  0  0  0  0  0  0  0  0  0  0
    4.8650   -1.4870    0.8007 C   0  0  0  0  0  0  0  0  0  0  0  0
    5.3761   -0.5081   -0.0536 C   0  0  0  0  0  0  0  0  0  0  0  0
    6.7384   -0.4384   -0.0841 O   0  0  0  0  0  0  0  0  0  0  0  0
    7.3315    0.5336   -0.9281 C   0  0  0  0  0  0  0  0  0  0  0  0
    8.6754    0.4417   -0.8141 F   0  0  0  0  0  0  0  0  0  0  0  0
    6.9657    1.7821   -0.5675 F   0  0  0  0  0  0  0  0  0  0  0  0
    7.0060    0.3214   -2.2209 F   0  0  0  0  0  0  0  0  0  0  0  0
    4.4856    0.2832   -0.7759 C   0  0  0  0  0  0  0  0  0  0  0  0
    3.1009    0.0983   -0.6434 C   0  0  0  0  0  0  0  0  0  0  0  0
   -1.4200   -2.3297    0.4498 C   0  0  0  0  0  0  0  0  0  0  0  0
   -3.0545   -2.6624    0.8239 S   0  0  0  0  0  0  0  0  0  0  0  0
   -3.4789   -1.0286    0.6472 C   0  0  0  0  0  0  0  0  0  0  0  0
   -4.8867   -0.5546    0.8553 C   0  0  0  0  0  0  0  0  0  0  0  0
   -6.2623    0.2530   -1.4452 H   0  0  0  0  0  0  0  0  0  0  0  0
   -4.5314    0.3630   -1.7829 H   0  0  0  0  0  0  0  0  0  0  0  0
   -5.4989    1.8380   -1.6209 H   0  0  0  0  0  0  0  0  0  0  0  0
   -5.9919    1.2863    0.7474 H   0  0  0  0  0  0  0  0  0  0  0  0
   -4.0691    2.7912    0.2501 H   0  0  0  0  0  0  0  0  0  0  0  0
   -3.8401    1.8629    1.7251 H   0  0  0  0  0  0  0  0  0  0  0  0
   -1.7433    1.7976    0.6010 H   0  0  0  0  0  0  0  0  0  0  0  0
   -2.4759    1.4575   -0.9704 H   0  0  0  0  0  0  0  0  0  0  0  0
    0.9855   -1.8630    1.0508 H   0  0  0  0  0  0  0  0  0  0  0  0
    3.1296   -2.4447    1.6094 H   0  0  0  0  0  0  0  0  0  0  0  0
    5.5448   -2.1154    1.3722 H   0  0  0  0  0  0  0  0  0  0  0  0
    4.8192    1.0599   -1.4588 H   0  0  0  0  0  0  0  0  0  0  0  0
    2.4516    0.7378   -1.2343 H   0  0  0  0  0  0  0  0  0  0  0  0
   -0.7271   -3.1580    0.3996 H   0  0  0  0  0  0  0  0  0  0  0  0
   -5.0804   -0.5283    1.9356 H   0  0  0  0  0  0  0  0  0  0  0  0
   -5.6079   -1.2526    0.4139 H   0  0  0  0  0  0  0  0  0  0  0  0
  1  2  1  0
  2  3  1  0
  3  4  1  0
  4  5  1  0
  5  6  1  0
  6  7  1  0
  7  8  2  0
  7  9  1  0
  9 10  1  0
 10 11  2  0
 11 12  1  0
 12 13  2  0
 13 14  1  0
 14 15  1  0
 15 16  1  0
 15 17  1  0
 15 18  1  0
 13 19  1  0
 19 20  2  0
  6 21  2  0
 21 22  1  0
 22 23  1  0
 23 24  1  0
 24  2  1  0
 23  5  2  0
 20 10  1  0
  1 25  1  0
  1 26  1  0
  1 27  1  0
  2 28  1  0
  3 29  1  0
  3 30  1  0
  4 31  1  0
  4 32  1  0
  9 33  1  0
 11 34  1  0
 12 35  1  0
 19 36  1  0
 20 37  1  0
 21 38  1  0
 24 39  1  0
 24 40  1  0
M  END
$$$$
