
     RDKit          3D

 46 48  0  0  0  0  0  0  0  0999 V2000
   -0.7373   -0.2756    1.8303 O   0  0  0  0  0  0  0  0  0  0  0  0
   -0.6380   -0.0719    0.6260 C   0  0  0  0  0  0  0  0  0  0  0  0
    0.7092    0.0293   -0.0708 C   0  0  0  0  0  0  0  0  0  0  0  0
    1.8618    0.0477    0.9373 C   0  0  0  0  0  0  0  0  0  0  0  0
    3.1850    0.2853    0.3057 N   0  0  0  0  0  0  0  0  0  0  0  0
    4.1578    0.6633    1.3482 C   0  0  0  0  0  0  0  0  0  0  0  0
    5.3730    1.3909    0.7729 C   0  0  0  0  0  0  0  0  0  0  0  0
    6.5274    0.4954    0.3393 C   0  0  0  0  0  0  0  0  0  0  0  0
    6.1539   -0.8255   -0.3185 C   0  0  0  0  0  0  0  0  0  0  0  0
    4.9364   -0.7542   -1.2301 C   0  0  0  0  0  0  0  0  0  0  0  0
    3.6067   -0.8872   -0.4779 C   0  0  0  0  0  0  0  0  0  0  0  0
   -1.6830    0.0683   -0.2749 N   0  0  0  0  0  0  0  0  0  0  0  0
   -3.0667    0.0200   -0.0054 C   0  0  0  0  0  0  0  0  0  0  0  0
   -3.6094   -0.1863    1.2657 C   0  0  0  0  0  0  0  0  0  0  0  0
   -4.9966   -0.2283    1.4491 C   0  0  0  0  0  0  0  0  0  0  0  0
   -5.8493   -0.0672    0.3622 C   0  0  0  0  0  0  0  0  0  0  0  0
   -5.3168    0.1669   -0.9068 C   0  0  0  0  0  0  0  0  0  0  0  0
   -3.9338    0.1954   -1.0922 C   0  0  0  0  0  0  0  0  0  0  0  0
   -6.0914    0.3693   -2.0213 O   0  0  0  0  0  0  0  0  0  0  0  0
   -7.4490    0.6584   -1.6657 C   0  0  0  0  0  0  0  0  0  0  0  0
   -7.9417   -0.3047   -0.5982 C   0  0  0  0  0  0  0  0  0  0  0  0
   -7.1947   -0.1421    0.6126 O   0  0  0  0  0  0  0  0  0  0  0  0
    0.7247    0.9487   -0.6686 H   0  0  0  0  0  0  0  0  0  0  0  0
    0.7874   -0.8285   -0.7469 H   0  0  0  0  0  0  0  0  0  0  0  0
    1.6496    0.8614    1.6440 H   0  0  0  0  0  0  0  0  0  0  0  0
    1.8753   -0.8784    1.5273 H   0  0  0  0  0  0  0  0  0  0  0  0
    3.6833    1.3848    2.0265 H   0  0  0  0  0  0  0  0  0  0  0  0
    4.4500   -0.1937    1.9679 H   0  0  0  0  0  0  0  0  0  0  0  0
    5.0623    2.0237   -0.0691 H   0  0  0  0  0  0  0  0  0  0  0  0
    5.7583    2.0878    1.5288 H   0  0  0  0  0  0  0  0  0  0  0  0
    7.1636    1.0706   -0.3455 H   0  0  0  0  0  0  0  0  0  0  0  0
    7.1569    0.2746    1.2108 H   0  0  0  0  0  0  0  0  0  0  0  0
    7.0180   -1.1659   -0.9030 H   0  0  0  0  0  0  0  0  0  0  0  0
    5.9969   -1.5902    0.4525 H   0  0  0  0  0  0  0  0  0  0  0  0
    4.9514    0.1550   -1.8430 H   0  0  0  0  0  0  0  0  0  0  0  0
    4.9969   -1.5964   -1.9319 H   0  0  0  0  0  0  0  0  0  0  0  0
    2.8558   -1.0805   -1.2519 H   0  0  0  0  0  0  0  0  0  0  0  0
    3.6361   -1.7831    0.1566 H   0  0  0  0  0  0  0  0  0  0  0  0
   -1.4273    0.2301   -1.2416 H   0  0  0  0  0  0  0  0  0  0  0  0
   -2.9815   -0.3227    2.1407 H   0  0  0  0  0  0  0  0  0  0  0  0
   -5.4052   -0.3978    2.4417 H   0  0  0  0  0  0  0  0  0  0  0  0
   -3.5489    0.3668   -2.0934 H   0  0  0  0  0  0  0  0  0  0  0  0
   -8.0562    0.5627   -2.5713 H   0  0  0  0  0  0  0  0  0  0  0  0
   -7.5055    1.6996   -1.3245 H   0  0  0  0  0  0  0  0  0  0  0  0
   -7.8519   -1.3478   -0.9260 H   0  0  0  0  0  0  0  0  0  0  0  0
   -8.9936   -0.1087   -0.3679 H   0  0  0  0  0  0  0  0  0  0  0  0
  1  2  2  0
  2  3  1  0
  3  4  1  0
  4  5  1  0
  5  6  1  0
  6  7  1  0
  7  8  1  0
  8  9  1  0
  9 10  1  0
 10 11  1  0
  2 12  1  0
 12 13  1  0
 13 14  2  0
 14 15  1  0
 15 16  2  0
 16 17  1  0
 17 18  2  0
 17 19  1  0
 19 20  1  0
 20 21  1  0
 21 22  1  0
 11  5  1  0
 18 13  1  0
 22 16  1  0
  3 23  1  0
  3 24  1  0
  4 25  1  0
  4 26  1  0
  6 27  1  0
  6 28  1  0
  7 29  1  0
  7 30  1  0
  8 31  1  0
  8 32  1  0
  9 33  1  0
  9 34  1  0
 10 35  1  0
 10 36  1  0
 11 37  1  0
 11 38  1  0
 12 39  1  0
 14 40  1  0
 15 41  1  0
 18 42  1  0
 20 43  1  0
 20 44  1  0
 21 45  1  0
 21 46  1  0
M  END
$$$$
