
     RDKit          3D

 55 58  0  0  0  0  0  0  0  0999 V2000
    5.7803   -2.8506    4.0657 N   0  0  0  0  0  0  0  0  0  0  0  0
    5.3199   -3.2816    2.8482 C   0  0  0  0  0  0  0  0  0  0  0  0
    5.7436   -4.3191    2.3470 O   0  0  0  0  0  0  0  0  0  0  0  0
    4.3183   -2.4011    2.2199 C   0  0  0  0  0  0  0  0  0  0  0  0
    3.9710   -1.2583    2.8334 N   0  0  0  0  0  0  0  0  0  0  0  0
    2.8764   -0.4501    1.8961 S   0  0  0  0  0  0  0  0  0  0  0  0
    2.7849   -1.6161    0.6514 C   0  0  0  0  0  0  0  0  0  0  0  0
    1.9683   -1.3873   -0.5239 C   0  0  0  0  0  0  0  0  0  0  0  0
    2.4742   -1.4233   -1.6488 O   0  0  0  0  0  0  0  0  0  0  0  0
    0.6052   -1.0621   -0.3579 N   0  0  0  0  0  0  0  0  0  0  0  0
   -0.1434   -1.4304    0.8055 C   0  0  0  0  0  0  0  0  0  0  0  0
   -1.0180   -0.5401    1.4394 C   0  0  0  0  0  0  0  0  0  0  0  0
   -1.7475   -0.9337    2.5650 C   0  0  0  0  0  0  0  0  0  0  0  0
   -1.6139   -2.2235    3.0695 C   0  0  0  0  0  0  0  0  0  0  0  0
   -0.7408   -3.1167    2.4578 C   0  0  0  0  0  0  0  0  0  0  0  0
   -0.0110   -2.7232    1.3334 C   0  0  0  0  0  0  0  0  0  0  0  0
    0.0064   -0.2752   -1.4514 C   0  0  0  0  0  0  0  0  0  0  0  0
    0.2535    1.2410   -1.2561 C   0  0  0  0  0  0  0  0  0  0  0  0
    0.7191    1.7219   -0.2226 O   0  0  0  0  0  0  0  0  0  0  0  0
   -0.0731    2.0294   -2.3463 N   0  0  0  0  0  0  0  0  0  0  0  0
   -0.0305    3.4720   -2.2693 C   0  0  0  0  0  0  0  0  0  0  0  0
   -1.3597    4.0202   -1.8117 C   0  0  0  0  0  0  0  0  0  0  0  0
   -2.3512    4.3616   -2.7453 C   0  0  0  0  0  0  0  0  0  0  0  0
   -3.5899    4.8397   -2.3141 C   0  0  0  0  0  0  0  0  0  0  0  0
   -3.8413    4.9690   -0.9539 C   0  0  0  0  0  0  0  0  0  0  0  0
   -5.0312    5.4270   -0.5437 F   0  0  0  0  0  0  0  0  0  0  0  0
   -2.8791    4.6261   -0.0135 C   0  0  0  0  0  0  0  0  0  0  0  0
   -1.6382    4.1515   -0.4411 C   0  0  0  0  0  0  0  0  0  0  0  0
   -1.4467   -0.5652   -1.6951 C   0  0  0  0  0  0  0  0  0  0  0  0
   -2.6375    0.0746   -1.3924 C   0  0  0  0  0  0  0  0  0  0  0  0
   -3.6733   -0.7181   -1.9374 C   0  0  0  0  0  0  0  0  0  0  0  0
   -3.0601   -1.7882   -2.5441 C   0  0  0  0  0  0  0  0  0  0  0  0
   -1.7113   -1.6969   -2.4202 O   0  0  0  0  0  0  0  0  0  0  0  0
    3.6703   -2.6313    0.9448 C   0  0  0  0  0  0  0  0  0  0  0  0
    3.8864   -3.7058    0.1436 N   0  0  0  0  0  0  0  0  0  0  0  0
    5.5205   -1.9213    4.3694 H   0  0  0  0  0  0  0  0  0  0  0  0
    6.5707   -3.3182    4.4827 H   0  0  0  0  0  0  0  0  0  0  0  0
   -1.1120    0.4903    1.1069 H   0  0  0  0  0  0  0  0  0  0  0  0
   -2.4138   -0.2263    3.0517 H   0  0  0  0  0  0  0  0  0  0  0  0
   -2.1820   -2.5295    3.9433 H   0  0  0  0  0  0  0  0  0  0  0  0
   -0.6342   -4.1257    2.8492 H   0  0  0  0  0  0  0  0  0  0  0  0
    0.6452   -3.4521    0.8664 H   0  0  0  0  0  0  0  0  0  0  0  0
    0.5264   -0.5233   -2.3870 H   0  0  0  0  0  0  0  0  0  0  0  0
   -0.6137    1.6182   -3.0984 H   0  0  0  0  0  0  0  0  0  0  0  0
    0.2130    3.8499   -3.2683 H   0  0  0  0  0  0  0  0  0  0  0  0
    0.7695    3.7943   -1.5939 H   0  0  0  0  0  0  0  0  0  0  0  0
   -2.1672    4.2570   -3.8136 H   0  0  0  0  0  0  0  0  0  0  0  0
   -4.3593    5.1119   -3.0290 H   0  0  0  0  0  0  0  0  0  0  0  0
   -3.0986    4.7329    1.0434 H   0  0  0  0  0  0  0  0  0  0  0  0
   -0.8885    3.8756    0.2989 H   0  0  0  0  0  0  0  0  0  0  0  0
   -2.7475    1.0018   -0.8435 H   0  0  0  0  0  0  0  0  0  0  0  0
   -4.7379   -0.5353   -1.8928 H   0  0  0  0  0  0  0  0  0  0  0  0
   -3.4223   -2.6525   -3.0840 H   0  0  0  0  0  0  0  0  0  0  0  0
    4.6833   -4.3163    0.3462 H   0  0  0  0  0  0  0  0  0  0  0  0
    3.6682   -3.6677   -0.8503 H   0  0  0  0  0  0  0  0  0  0  0  0
  1  2  1  0
  2  3  2  0
  2  4  1  0
  4  5  2  0
  5  6  1  0
  6  7  1  0
  7  8  1  0
  8  9  2  0
  8 10  1  0
 10 11  1  0
 11 12  2  0
 12 13  1  0
 13 14  2  0
 14 15  1  0
 15 16  2  0
 10 17  1  0
 17 18  1  0
 18 19  2  0
 18 20  1  0
 20 21  1  0
 21 22  1  0
 22 23  2  0
 23 24  1  0
 24 25  2  0
 25 26  1  0
 25 27  1  0
 27 28  2  0
 17 29  1  0
 29 30  2  0
 30 31  1  0
 31 32  2  0
 32 33  1  0
  7 34  2  0
 34 35  1  0
 34  4  1  0
 16 11  1  0
 28 22  1  0
 33 29  1  0
  1 36  1  0
  1 37  1  0
 12 38  1  0
 13 39  1  0
 14 40  1  0
 15 41  1  0
 16 42  1  0
 17 43  1  0
 20 44  1  0
 21 45  1  0
 21 46  1  0
 23 47  1  0
 24 48  1  0
 27 49  1  0
 28 50  1  0
 30 51  1  0
 31 52  1  0
 32 53  1  0
 35 54  1  0
 35 55  1  0
M  END
$$$$
