
     RDKit          3D

 63 67  0  0  0  0  0  0  0  0999 V2000
   -2.0103   -2.5970   -0.2853 O   0  0  0  0  0  0  0  0  0  0  0  0
   -2.3397   -1.6378    0.4028 C   0  0  0  0  0  0  0  0  0  0  0  0
   -3.5347   -0.9725    0.2453 N   0  0  0  0  0  0  0  0  0  0  0  0
   -4.5352   -1.4103   -0.7193 C   0  0  0  0  0  0  0  0  0  0  0  0
   -5.3470   -2.5937   -0.1669 C   0  0  0  0  0  0  0  0  0  0  0  0
   -6.3444   -2.1274    0.8895 C   0  0  0  0  0  0  0  0  0  0  0  0
   -7.3557   -1.1614    0.2784 C   0  0  0  0  0  0  0  0  0  0  0  0
   -6.7240   -0.0960   -0.5840 C   0  0  0  0  0  0  0  0  0  0  0  0
   -7.4885    1.0250   -0.9436 C   0  0  0  0  0  0  0  0  0  0  0  0
   -6.9584    2.0125   -1.7739 C   0  0  0  0  0  0  0  0  0  0  0  0
   -5.6604    1.8899   -2.2594 C   0  0  0  0  0  0  0  0  0  0  0  0
   -4.8933    0.7767   -1.9183 C   0  0  0  0  0  0  0  0  0  0  0  0
   -5.4157   -0.2303   -1.0875 C   0  0  0  0  0  0  0  0  0  0  0  0
   -1.4163   -1.1246    1.4545 C   0  0  0  0  0  0  0  0  0  0  0  0
   -1.8712   -0.3971    2.5646 C   0  0  0  0  0  0  0  0  0  0  0  0
   -0.9676    0.0538    3.5327 C   0  0  0  0  0  0  0  0  0  0  0  0
    0.3927   -0.2240    3.4053 C   0  0  0  0  0  0  0  0  0  0  0  0
    0.8415   -0.9611    2.3072 C   0  0  0  0  0  0  0  0  0  0  0  0
    2.5658   -1.3455    2.1362 S   0  0  0  0  0  6  0  0  0  0  0  0
    3.3044   -0.5888    3.1262 O   0  0  0  0  0  0  0  0  0  0  0  0
    2.6739   -2.7848    2.0495 O   0  0  0  0  0  0  0  0  0  0  0  0
    2.9473   -0.6821    0.6141 N   0  0  0  0  0  0  0  0  0  0  0  0
    2.9094    0.8167    0.5343 C   0  0  0  0  0  0  0  0  0  0  0  0
    4.3149    1.4465    0.5151 C   0  0  0  0  0  0  0  0  0  0  0  0
    5.0851    0.9612   -0.6411 N   0  0  0  0  0  0  0  0  0  0  0  0
    6.1432    1.6822   -1.1695 C   0  0  0  0  0  0  0  0  0  0  0  0
    6.7886    2.6985   -0.4451 C   0  0  0  0  0  0  0  0  0  0  0  0
    7.8575    3.4285   -0.9808 C   0  0  0  0  0  0  0  0  0  0  0  0
    8.3082    3.1624   -2.2676 C   0  0  0  0  0  0  0  0  0  0  0  0
    7.6881    2.1678   -3.0141 C   0  0  0  0  0  0  0  0  0  0  0  0
    6.6223    1.4413   -2.4682 C   0  0  0  0  0  0  0  0  0  0  0  0
    4.7798   -0.4022   -1.1090 C   0  0  0  0  0  0  0  0  0  0  0  0
    4.2005   -1.2659    0.0267 C   0  0  0  0  0  0  0  0  0  0  0  0
   -0.0526   -1.4177    1.3343 C   0  0  0  0  0  0  0  0  0  0  0  0
   -3.7328   -0.1279    0.7611 H   0  0  0  0  0  0  0  0  0  0  0  0
   -4.0120   -1.7586   -1.6200 H   0  0  0  0  0  0  0  0  0  0  0  0
   -4.6848   -3.3547    0.2621 H   0  0  0  0  0  0  0  0  0  0  0  0
   -5.8961   -3.0757   -0.9868 H   0  0  0  0  0  0  0  0  0  0  0  0
   -6.8724   -2.9884    1.3157 H   0  0  0  0  0  0  0  0  0  0  0  0
   -5.8126   -1.6391    1.7160 H   0  0  0  0  0  0  0  0  0  0  0  0
   -8.0631   -1.7255   -0.3429 H   0  0  0  0  0  0  0  0  0  0  0  0
   -7.9292   -0.6939    1.0880 H   0  0  0  0  0  0  0  0  0  0  0  0
   -8.5094    1.1295   -0.5823 H   0  0  0  0  0  0  0  0  0  0  0  0
   -7.5623    2.8747   -2.0458 H   0  0  0  0  0  0  0  0  0  0  0  0
   -5.2462    2.6568   -2.9088 H   0  0  0  0  0  0  0  0  0  0  0  0
   -3.8792    0.6920   -2.3043 H   0  0  0  0  0  0  0  0  0  0  0  0
   -2.9287   -0.1983    2.7144 H   0  0  0  0  0  0  0  0  0  0  0  0
   -1.3283    0.6087    4.3959 H   0  0  0  0  0  0  0  0  0  0  0  0
    1.0883    0.1192    4.1684 H   0  0  0  0  0  0  0  0  0  0  0  0
    2.3697    1.0769   -0.3852 H   0  0  0  0  0  0  0  0  0  0  0  0
    2.3315    1.2430    1.3606 H   0  0  0  0  0  0  0  0  0  0  0  0
    4.1866    2.5344    0.4640 H   0  0  0  0  0  0  0  0  0  0  0  0
    4.8509    1.2054    1.4409 H   0  0  0  0  0  0  0  0  0  0  0  0
    6.4878    2.9289    0.5729 H   0  0  0  0  0  0  0  0  0  0  0  0
    8.3369    4.2004   -0.3841 H   0  0  0  0  0  0  0  0  0  0  0  0
    9.1367    3.7267   -2.6862 H   0  0  0  0  0  0  0  0  0  0  0  0
    8.0263    1.9541   -4.0246 H   0  0  0  0  0  0  0  0  0  0  0  0
    6.1521    0.6908   -3.0985 H   0  0  0  0  0  0  0  0  0  0  0  0
    5.6827   -0.9065   -1.4729 H   0  0  0  0  0  0  0  0  0  0  0  0
    4.0634   -0.3444   -1.9370 H   0  0  0  0  0  0  0  0  0  0  0  0
    4.9597   -1.3733    0.8116 H   0  0  0  0  0  0  0  0  0  0  0  0
    3.9661   -2.2611   -0.3659 H   0  0  0  0  0  0  0  0  0  0  0  0
    0.3103   -2.0030    0.4905 H   0  0  0  0  0  0  0  0  0  0  0  0
  1  2  2  0
  2  3  1  0
  3  4  1  0
  4  5  1  0
  5  6  1  0
  6  7  1  0
  7  8  1  0
  8  9  2  0
  9 10  1  0
 10 11  2  0
 11 12  1  0
 12 13  2  0
  2 14  1  0
 14 15  2  0
 15 16  1  0
 16 17  2  0
 17 18  1  0
 18 19  1  0
 19 20  2  0
 19 21  2  0
 19 22  1  0
 22 23  1  0
 23 24  1  0
 24 25  1  0
 25 26  1  0
 26 27  2  0
 27 28  1  0
 28 29  2  0
 29 30  1  0
 30 31  2  0
 25 32  1  0
 32 33  1  0
 18 34  2  0
 13  4  1  0
 34 14  1  0
 13  8  1  0
 33 22  1  0
 31 26  1  0
  3 35  1  0
  4 36  1  0
  5 37  1  0
  5 38  1  0
  6 39  1  0
  6 40  1  0
  7 41  1  0
  7 42  1  0
  9 43  1  0
 10 44  1  0
 11 45  1  0
 12 46  1  0
 15 47  1  0
 16 48  1  0
 17 49  1  0
 23 50  1  0
 23 51  1  0
 24 52  1  0
 24 53  1  0
 27 54  1  0
 28 55  1  0
 29 56  1  0
 30 57  1  0
 31 58  1  0
 32 59  1  0
 32 60  1  0
 33 61  1  0
 33 62  1  0
 34 63  1  0
M  END
$$$$
