
     RDKit          3D

 34 36  0  0  0  0  0  0  0  0999 V2000
   -2.5919   -0.4033    2.9851 Br  0  0  0  0  0  0  0  0  0  0  0  0
   -1.8400    0.1257    1.3608 C   0  0  0  0  0  0  0  0  0  0  0  0
   -0.4729    0.7245    1.3741 C   0  0  0  0  0  0  0  0  0  0  0  0
    0.2438    0.8764    2.4449 N   0  0  0  0  0  0  0  0  0  0  0  0
    1.4975    1.4084    2.2812 N   0  0  0  0  0  0  0  0  0  0  0  0
    2.3922    1.0397    1.3249 C   0  0  0  0  0  0  0  0  0  0  0  0
    2.2213    0.3145    0.2396 N   0  0  0  0  0  0  0  0  0  0  0  0
    3.4506    0.2540   -0.3682 C   0  0  0  0  0  0  0  0  0  0  0  0
    3.8375   -0.3928   -1.5506 C   0  0  0  0  0  0  0  0  0  0  0  0
    5.1731   -0.2965   -1.9622 C   0  0  0  0  0  0  0  0  0  0  0  0
    6.1030    0.4286   -1.2122 C   0  0  0  0  0  0  0  0  0  0  0  0
    5.7352    1.0806   -0.0291 C   0  0  0  0  0  0  0  0  0  0  0  0
    4.3981    0.9665    0.3563 C   0  0  0  0  0  0  0  0  0  0  0  0
    3.6962    1.4564    1.4267 N   0  0  0  0  0  0  0  0  0  0  0  0
   -2.4246    0.0037    0.1566 C   0  0  0  0  0  0  0  0  0  0  0  0
   -3.7565   -0.5584   -0.0831 C   0  0  0  0  0  0  0  0  0  0  0  0
   -4.9089    0.1813    0.2052 C   0  0  0  0  0  0  0  0  0  0  0  0
   -6.1715   -0.3639   -0.0352 C   0  0  0  0  0  0  0  0  0  0  0  0
   -6.2880   -1.6476   -0.5666 C   0  0  0  0  0  0  0  0  0  0  0  0
   -5.1431   -2.3878   -0.8586 C   0  0  0  0  0  0  0  0  0  0  0  0
   -3.8793   -1.8448   -0.6190 C   0  0  0  0  0  0  0  0  0  0  0  0
   -0.1047    1.0603    0.3881 H   0  0  0  0  0  0  0  0  0  0  0  0
    1.8782    1.7506    3.1622 H   0  0  0  0  0  0  0  0  0  0  0  0
    3.1110   -0.9543   -2.1269 H   0  0  0  0  0  0  0  0  0  0  0  0
    5.4873   -0.7940   -2.8768 H   0  0  0  0  0  0  0  0  0  0  0  0
    7.1345    0.4869   -1.5544 H   0  0  0  0  0  0  0  0  0  0  0  0
    6.4581    1.6421    0.5522 H   0  0  0  0  0  0  0  0  0  0  0  0
    4.0691    2.0313    2.1643 H   0  0  0  0  0  0  0  0  0  0  0  0
   -1.9094    0.3130   -0.7501 H   0  0  0  0  0  0  0  0  0  0  0  0
   -4.8326    1.1831    0.6213 H   0  0  0  0  0  0  0  0  0  0  0  0
   -7.0639    0.2125    0.1946 H   0  0  0  0  0  0  0  0  0  0  0  0
   -7.2714   -2.0722   -0.7511 H   0  0  0  0  0  0  0  0  0  0  0  0
   -5.2337   -3.3897   -1.2703 H   0  0  0  0  0  0  0  0  0  0  0  0
   -2.9945   -2.4348   -0.8467 H   0  0  0  0  0  0  0  0  0  0  0  0
  1  2  1  0
  2  3  1  0
  3  4  2  3
  4  5  1  0
  5  6  1  0
  6  7  2  0
  7  8  1  0
  8  9  2  0
  9 10  1  0
 10 11  2  0
 11 12  1  0
 12 13  2  0
 13 14  1  0
  2 15  2  3
 15 16  1  0
 16 17  2  0
 17 18  1  0
 18 19  2  0
 19 20  1  0
 20 21  2  0
 14  6  1  0
 21 16  1  0
 13  8  1  0
  3 22  1  0
  5 23  1  0
  9 24  1  0
 10 25  1  0
 11 26  1  0
 12 27  1  0
 14 28  1  0
 15 29  1  0
 17 30  1  0
 18 31  1  0
 19 32  1  0
 20 33  1  0
 21 34  1  0
M  END
$$$$
