
     RDKit          3D

 53 56  0  0  0  0  0  0  0  0999 V2000
   -1.2974   -1.6467   -4.2817 C   0  0  0  0  0  0  0  0  0  0  0  0
   -1.8468   -0.3251   -3.8130 C   0  0  0  0  0  0  0  0  0  0  0  0
   -1.7769    0.6890   -4.5066 O   0  0  0  0  0  0  0  0  0  0  0  0
   -2.4742   -0.2864   -2.4710 C   0  0  0  0  0  0  0  0  0  0  0  0
   -1.6726   -0.2073   -1.3848 C   0  0  0  0  0  0  0  0  0  0  0  0
   -0.2802   -0.1106   -1.4599 N   0  0  0  0  0  0  0  0  0  0  0  0
    0.5963   -0.9862   -0.6460 C   0  0  0  0  0  0  0  0  0  0  0  0
    1.5645   -0.1734    0.2385 C   0  0  0  0  0  0  0  0  0  0  0  0
    2.4366    0.7732   -0.4897 N   0  0  0  0  0  0  0  0  0  0  0  0
    3.8172    0.2852   -0.6377 C   0  0  0  0  0  0  0  0  0  0  0  0
    4.5811    0.2425    0.6700 C   0  0  0  0  0  0  0  0  0  0  0  0
    4.6791    1.3853    1.4785 C   0  0  0  0  0  0  0  0  0  0  0  0
    5.4008    1.3514    2.6728 C   0  0  0  0  0  0  0  0  0  0  0  0
    6.0367    0.1768    3.0699 C   0  0  0  0  0  0  0  0  0  0  0  0
    5.9528   -0.9638    2.2730 C   0  0  0  0  0  0  0  0  0  0  0  0
    5.2318   -0.9316    1.0775 C   0  0  0  0  0  0  0  0  0  0  0  0
    1.8733    1.1178   -1.8141 C   0  0  0  0  0  0  0  0  0  0  0  0
    0.3337    1.1989   -1.8165 C   0  0  0  0  0  0  0  0  0  0  0  0
   -2.2742   -0.2149   -0.1487 N   0  0  0  0  0  0  0  0  0  0  0  0
   -3.6349   -0.1532    0.0087 C   0  0  0  0  0  0  0  0  0  0  0  0
   -4.2117    0.0274    1.3783 C   0  0  0  0  0  0  0  0  0  0  0  0
   -5.4929    0.5757    1.5188 C   0  0  0  0  0  0  0  0  0  0  0  0
   -6.0424    0.7612    2.7886 C   0  0  0  0  0  0  0  0  0  0  0  0
   -5.3190    0.3937    3.9222 C   0  0  0  0  0  0  0  0  0  0  0  0
   -4.0481   -0.1649    3.7889 C   0  0  0  0  0  0  0  0  0  0  0  0
   -3.4933   -0.3511    2.5201 C   0  0  0  0  0  0  0  0  0  0  0  0
   -4.4530   -0.2356   -0.9974 N   0  0  0  0  0  0  0  0  0  0  0  0
   -3.9577   -0.4127   -2.2785 C   0  0  0  0  0  0  0  0  0  0  0  0
   -5.0282   -0.7719   -3.5429 S   0  0  0  0  0  0  0  0  0  0  0  0
   -1.7442   -1.8990   -5.2469 H   0  0  0  0  0  0  0  0  0  0  0  0
   -0.2109   -1.5708   -4.3780 H   0  0  0  0  0  0  0  0  0  0  0  0
   -1.5334   -2.4463   -3.5740 H   0  0  0  0  0  0  0  0  0  0  0  0
    1.1676   -1.6290   -1.3272 H   0  0  0  0  0  0  0  0  0  0  0  0
    0.0026   -1.6553   -0.0113 H   0  0  0  0  0  0  0  0  0  0  0  0
    0.9631    0.4246    0.9358 H   0  0  0  0  0  0  0  0  0  0  0  0
    2.1381   -0.8657    0.8653 H   0  0  0  0  0  0  0  0  0  0  0  0
    4.3811    0.9556   -1.3007 H   0  0  0  0  0  0  0  0  0  0  0  0
    3.8211   -0.7029   -1.1173 H   0  0  0  0  0  0  0  0  0  0  0  0
    4.1855    2.3071    1.1766 H   0  0  0  0  0  0  0  0  0  0  0  0
    5.4676    2.2430    3.2912 H   0  0  0  0  0  0  0  0  0  0  0  0
    6.6003    0.1512    3.9989 H   0  0  0  0  0  0  0  0  0  0  0  0
    6.4532   -1.8783    2.5815 H   0  0  0  0  0  0  0  0  0  0  0  0
    5.1826   -1.8300    0.4662 H   0  0  0  0  0  0  0  0  0  0  0  0
    2.1760    0.3757   -2.5659 H   0  0  0  0  0  0  0  0  0  0  0  0
    2.2816    2.0853   -2.1283 H   0  0  0  0  0  0  0  0  0  0  0  0
    0.0020    1.5140   -2.8104 H   0  0  0  0  0  0  0  0  0  0  0  0
    0.0022    1.9621   -1.1005 H   0  0  0  0  0  0  0  0  0  0  0  0
   -1.6724    0.1066    0.5978 H   0  0  0  0  0  0  0  0  0  0  0  0
   -6.0679    0.8643    0.6411 H   0  0  0  0  0  0  0  0  0  0  0  0
   -7.0363    1.1898    2.8908 H   0  0  0  0  0  0  0  0  0  0  0  0
   -5.7506    0.5357    4.9102 H   0  0  0  0  0  0  0  0  0  0  0  0
   -3.4935   -0.4636    4.6754 H   0  0  0  0  0  0  0  0  0  0  0  0
   -2.5159   -0.8168    2.4443 H   0  0  0  0  0  0  0  0  0  0  0  0
  1  2  1  0
  2  3  2  0
  2  4  1  0
  4  5  2  0
  5  6  1  0
  6  7  1  0
  7  8  1  0
  8  9  1  0
  9 10  1  0
 10 11  1  0
 11 12  2  0
 12 13  1  0
 13 14  2  0
 14 15  1  0
 15 16  2  0
  9 17  1  0
 17 18  1  0
  5 19  1  0
 19 20  1  0
 20 21  1  0
 21 22  2  0
 22 23  1  0
 23 24  2  0
 24 25  1  0
 25 26  2  0
 20 27  2  0
 27 28  1  0
 28 29  2  0
 28  4  1  0
 18  6  1  0
 26 21  1  0
 16 11  1  0
  1 30  1  0
  1 31  1  0
  1 32  1  0
  7 33  1  0
  7 34  1  0
  8 35  1  0
  8 36  1  0
 10 37  1  0
 10 38  1  0
 12 39  1  0
 13 40  1  0
 14 41  1  0
 15 42  1  0
 16 43  1  0
 17 44  1  0
 17 45  1  0
 18 46  1  0
 18 47  1  0
 19 48  1  0
 22 49  1  0
 23 50  1  0
 24 51  1  0
 25 52  1  0
 26 53  1  0
M  END
$$$$
