
     RDKit          3D

 49 51  0  0  0  0  0  0  0  0999 V2000
    6.1971    2.5281   -0.2990 C   0  0  0  0  0  0  0  0  0  0  0  0
    6.0392    1.0838    0.0787 C   0  0  0  0  0  0  0  0  0  0  0  0
    7.1651    0.3027    0.3677 C   0  0  0  0  0  0  0  0  0  0  0  0
    7.0208   -1.0252    0.7715 C   0  0  0  0  0  0  0  0  0  0  0  0
    5.7505   -1.5802    0.8897 C   0  0  0  0  0  0  0  0  0  0  0  0
    5.6890   -2.8785    1.3208 O   0  0  0  0  0  0  0  0  0  0  0  0
    4.6112   -0.8247    0.5822 C   0  0  0  0  0  0  0  0  0  0  0  0
    3.2702   -1.4511    0.6991 C   0  0  0  0  0  0  0  0  0  0  0  0
    3.1167   -2.3712    1.5022 O   0  0  0  0  0  0  0  0  0  0  0  0
    2.1191   -1.0311   -0.1242 C   0  0  0  0  0  0  0  0  0  0  0  0
    2.2550   -0.6502   -1.4522 C   0  0  0  0  0  0  0  0  0  0  0  0
    1.2180   -0.2589   -2.2313 N   0  0  0  0  0  0  0  0  0  0  0  0
   -0.0097   -0.2922   -1.6732 C   0  0  0  0  0  0  0  0  0  0  0  0
   -0.2540   -0.6827   -0.3688 C   0  0  0  0  0  0  0  0  0  0  0  0
    0.8351   -1.0590    0.4222 C   0  0  0  0  0  0  0  0  0  0  0  0
   -1.6441   -0.6043    0.1635 C   0  0  0  0  0  0  0  0  0  0  0  0
   -2.6612   -0.5322   -0.8728 N   0  0  0  0  0  0  0  0  0  0  0  0
   -4.0578   -0.6492   -0.4584 C   0  0  0  0  0  0  0  0  0  0  0  0
   -4.6027    0.6561    0.1313 C   0  0  0  0  0  0  0  0  0  0  0  0
   -6.1149    0.6121    0.4161 C   0  0  0  0  0  0  0  0  0  0  0  0
   -6.4787   -0.4337    1.4708 C   0  0  0  0  0  0  0  0  0  0  0  0
   -6.5986    1.9921    0.8680 C   0  0  0  0  0  0  0  0  0  0  0  0
   -2.3843   -0.0281   -2.1286 C   0  0  0  0  0  0  0  0  0  0  0  0
   -3.2531    0.2822   -2.9412 O   0  0  0  0  0  0  0  0  0  0  0  0
   -1.0730    0.0878   -2.4663 N   0  0  0  0  0  0  0  0  0  0  0  0
    4.7610    0.5189    0.2069 C   0  0  0  0  0  0  0  0  0  0  0  0
    5.3919    2.8455   -0.9699 H   0  0  0  0  0  0  0  0  0  0  0  0
    7.1426    2.6933   -0.8262 H   0  0  0  0  0  0  0  0  0  0  0  0
    6.1782    3.1535    0.5987 H   0  0  0  0  0  0  0  0  0  0  0  0
    8.1646    0.7267    0.2921 H   0  0  0  0  0  0  0  0  0  0  0  0
    7.8974   -1.6234    1.0066 H   0  0  0  0  0  0  0  0  0  0  0  0
    4.7556   -3.0690    1.5654 H   0  0  0  0  0  0  0  0  0  0  0  0
    3.2167   -0.6531   -1.9583 H   0  0  0  0  0  0  0  0  0  0  0  0
    0.6885   -1.3670    1.4554 H   0  0  0  0  0  0  0  0  0  0  0  0
   -1.8522   -1.4909    0.7733 H   0  0  0  0  0  0  0  0  0  0  0  0
   -1.7368    0.2891    0.7912 H   0  0  0  0  0  0  0  0  0  0  0  0
   -4.6590   -0.9363   -1.3292 H   0  0  0  0  0  0  0  0  0  0  0  0
   -4.1243   -1.4698    0.2637 H   0  0  0  0  0  0  0  0  0  0  0  0
   -4.3970    1.4769   -0.5679 H   0  0  0  0  0  0  0  0  0  0  0  0
   -4.0593    0.8981    1.0534 H   0  0  0  0  0  0  0  0  0  0  0  0
   -6.6409    0.3601   -0.5135 H   0  0  0  0  0  0  0  0  0  0  0  0
   -7.5492   -0.3977    1.7001 H   0  0  0  0  0  0  0  0  0  0  0  0
   -6.2572   -1.4465    1.1208 H   0  0  0  0  0  0  0  0  0  0  0  0
   -5.9281   -0.2660    2.4026 H   0  0  0  0  0  0  0  0  0  0  0  0
   -7.6805    1.9891    1.0383 H   0  0  0  0  0  0  0  0  0  0  0  0
   -6.3844    2.7488    0.1058 H   0  0  0  0  0  0  0  0  0  0  0  0
   -6.1097    2.2998    1.7987 H   0  0  0  0  0  0  0  0  0  0  0  0
   -0.8649    0.3799   -3.4091 H   0  0  0  0  0  0  0  0  0  0  0  0
    3.8921    1.1475    0.0255 H   0  0  0  0  0  0  0  0  0  0  0  0
  1  2  1  0
  2  3  2  0
  3  4  1  0
  4  5  2  0
  5  6  1  0
  5  7  1  0
  7  8  1  0
  8  9  2  0
  8 10  1  0
 10 11  2  0
 11 12  1  0
 12 13  2  0
 13 14  1  0
 14 15  2  0
 14 16  1  0
 16 17  1  0
 17 18  1  0
 18 19  1  0
 19 20  1  0
 20 21  1  0
 20 22  1  0
 17 23  1  0
 23 24  2  0
 23 25  1  0
  7 26  2  0
 26  2  1  0
 15 10  1  0
 25 13  1  0
  1 27  1  0
  1 28  1  0
  1 29  1  0
  3 30  1  0
  4 31  1  0
  6 32  1  0
 11 33  1  0
 15 34  1  0
 16 35  1  0
 16 36  1  0
 18 37  1  0
 18 38  1  0
 19 39  1  0
 19 40  1  0
 20 41  1  0
 21 42  1  0
 21 43  1  0
 21 44  1  0
 22 45  1  0
 22 46  1  0
 22 47  1  0
 25 48  1  0
 26 49  1  0
M  END
$$$$
