
     RDKit          3D

 48 49  0  0  0  0  0  0  0  0999 V2000
   -6.5663   -0.9841   -2.1424 C   0  0  0  0  0  0  0  0  0  0  0  0
   -5.2343   -0.9475   -1.4540 C   0  0  0  0  0  0  0  0  0  0  0  0
   -4.9846   -0.0171   -0.4395 C   0  0  0  0  0  0  0  0  0  0  0  0
   -3.7540   -0.0008    0.2213 C   0  0  0  0  0  0  0  0  0  0  0  0
   -2.7557   -0.9237   -0.1116 C   0  0  0  0  0  0  0  0  0  0  0  0
   -1.4172   -0.8975    0.5900 C   0  0  0  0  0  0  0  0  0  0  0  0
   -0.4066    0.0471   -0.0908 C   0  0  0  0  0  0  0  0  0  0  0  0
    0.9389   -0.5701   -0.1246 N   0  0  0  0  0  0  0  0  0  0  0  0
    1.9061   -0.0609   -0.9726 C   0  0  0  0  0  0  0  0  0  0  0  0
    1.7783    0.9966   -1.5761 O   0  0  0  0  0  0  0  0  0  0  0  0
    3.1390   -0.8792   -1.1350 C   0  0  0  0  0  0  0  0  0  0  0  0
    3.8698   -0.7529   -2.3226 C   0  0  0  0  0  0  0  0  0  0  0  0
    5.0328   -1.5004   -2.5133 C   0  0  0  0  0  0  0  0  0  0  0  0
    5.4748   -2.3683   -1.5155 C   0  0  0  0  0  0  0  0  0  0  0  0
    4.7604   -2.4857   -0.3231 C   0  0  0  0  0  0  0  0  0  0  0  0
    3.5950   -1.7406   -0.1281 C   0  0  0  0  0  0  0  0  0  0  0  0
   -0.3915    1.3876    0.6875 C   0  0  0  0  0  0  0  0  0  0  0  0
   -1.3215    2.1905    0.6525 O   0  0  0  0  0  0  0  0  0  0  0  0
    0.6769    1.5438    1.5407 N   0  0  0  0  0  0  0  0  0  0  0  0
    0.9091    2.7616    2.3082 C   0  0  0  0  0  0  0  0  0  0  0  0
    1.3696    3.9021    1.4078 C   0  0  0  0  0  0  0  0  0  0  0  0
    1.9646    2.5226    3.3906 C   0  0  0  0  0  0  0  0  0  0  0  0
    2.3219    3.3210    4.2430 O   0  0  0  0  0  0  0  0  0  0  0  0
    2.5557    1.3051    3.3280 O   0  0  0  0  0  0  0  0  0  0  0  0
   -3.0090   -1.8602   -1.1228 C   0  0  0  0  0  0  0  0  0  0  0  0
   -4.2405   -1.8763   -1.7824 C   0  0  0  0  0  0  0  0  0  0  0  0
   -7.0332    0.0071   -2.1474 H   0  0  0  0  0  0  0  0  0  0  0  0
   -6.4563   -1.2963   -3.1871 H   0  0  0  0  0  0  0  0  0  0  0  0
   -7.2324   -1.6853   -1.6302 H   0  0  0  0  0  0  0  0  0  0  0  0
   -5.7439    0.7096   -0.1592 H   0  0  0  0  0  0  0  0  0  0  0  0
   -3.5804    0.7474    0.9934 H   0  0  0  0  0  0  0  0  0  0  0  0
   -1.0370   -1.9278    0.6109 H   0  0  0  0  0  0  0  0  0  0  0  0
   -1.5682   -0.6297    1.6444 H   0  0  0  0  0  0  0  0  0  0  0  0
   -0.6842    0.2700   -1.1287 H   0  0  0  0  0  0  0  0  0  0  0  0
    0.9885   -1.5646    0.0535 H   0  0  0  0  0  0  0  0  0  0  0  0
    3.5335   -0.0720   -3.1024 H   0  0  0  0  0  0  0  0  0  0  0  0
    5.5956   -1.4013   -3.4384 H   0  0  0  0  0  0  0  0  0  0  0  0
    6.3840   -2.9467   -1.6641 H   0  0  0  0  0  0  0  0  0  0  0  0
    5.1190   -3.1518    0.4585 H   0  0  0  0  0  0  0  0  0  0  0  0
    3.0749   -1.8238    0.8216 H   0  0  0  0  0  0  0  0  0  0  0  0
    1.4591    0.9068    1.4301 H   0  0  0  0  0  0  0  0  0  0  0  0
   -0.0306    3.0230    2.8078 H   0  0  0  0  0  0  0  0  0  0  0  0
    1.5726    4.8069    1.9908 H   0  0  0  0  0  0  0  0  0  0  0  0
    0.6107    4.1486    0.6581 H   0  0  0  0  0  0  0  0  0  0  0  0
    2.2891    3.6365    0.8741 H   0  0  0  0  0  0  0  0  0  0  0  0
    3.1972    1.3344    4.0698 H   0  0  0  0  0  0  0  0  0  0  0  0
   -2.2511   -2.5869   -1.4063 H   0  0  0  0  0  0  0  0  0  0  0  0
   -4.4183   -2.6168   -2.5593 H   0  0  0  0  0  0  0  0  0  0  0  0
  1  2  1  0
  2  3  2  0
  3  4  1  0
  4  5  2  0
  5  6  1  0
  6  7  1  0
  7  8  1  0
  8  9  1  0
  9 10  2  0
  9 11  1  0
 11 12  2  0
 12 13  1  0
 13 14  2  0
 14 15  1  0
 15 16  2  0
  7 17  1  0
 17 18  2  0
 17 19  1  0
 19 20  1  0
 20 21  1  0
 20 22  1  0
 22 23  2  0
 22 24  1  0
  5 25  1  0
 25 26  2  0
 26  2  1  0
 16 11  1  0
  1 27  1  0
  1 28  1  0
  1 29  1  0
  3 30  1  0
  4 31  1  0
  6 32  1  0
  6 33  1  0
  7 34  1  0
  8 35  1  0
 12 36  1  0
 13 37  1  0
 14 38  1  0
 15 39  1  0
 16 40  1  0
 19 41  1  0
 20 42  1  0
 21 43  1  0
 21 44  1  0
 21 45  1  0
 24 46  1  0
 25 47  1  0
 26 48  1  0
M  END
$$$$
