
     RDKit          3D

 47 50  0  0  0  0  0  0  0  0999 V2000
    6.7562    1.7409   -1.8854 C   0  0  0  0  0  0  0  0  0  0  0  0
    5.4476    1.2414   -1.3244 C   0  0  0  0  0  0  0  0  0  0  0  0
    4.4589    1.1433   -2.0396 O   0  0  0  0  0  0  0  0  0  0  0  0
    5.5525    0.9067    0.0135 N   0  0  0  0  0  0  0  0  0  0  0  0
    4.5382    0.4239    0.8686 C   0  0  0  0  0  0  0  0  0  0  0  0
    4.9263    0.0962    2.1742 C   0  0  0  0  0  0  0  0  0  0  0  0
    3.9971   -0.3932    3.0894 C   0  0  0  0  0  0  0  0  0  0  0  0
    2.6678   -0.5551    2.7066 C   0  0  0  0  0  0  0  0  0  0  0  0
    2.2543   -0.2234    1.4105 C   0  0  0  0  0  0  0  0  0  0  0  0
    0.8875   -0.4199    1.1162 N   0  0  0  0  0  0  0  0  0  0  0  0
    0.2233   -0.1009   -0.0512 C   0  0  0  0  0  0  0  0  0  0  0  0
    0.6534    0.4872   -1.0320 O   0  0  0  0  0  0  0  0  0  0  0  0
   -1.2110   -0.4694   -0.0489 C   0  0  0  0  0  0  0  0  0  0  0  0
   -2.1128    0.5814   -0.2268 C   0  0  0  0  0  0  0  0  0  0  0  0
   -3.4679    0.3061   -0.1872 C   0  0  0  0  0  0  0  0  0  0  0  0
   -4.5082    1.3356   -0.3590 C   0  0  0  0  0  0  0  0  0  0  0  0
   -4.3090    2.5171   -1.0901 C   0  0  0  0  0  0  0  0  0  0  0  0
   -5.3307    3.4601   -1.2126 C   0  0  0  0  0  0  0  0  0  0  0  0
   -6.5424    3.2013   -0.5988 C   0  0  0  0  0  0  0  0  0  0  0  0
   -6.7924    2.0831    0.1092 N   0  0  0  0  0  0  0  0  0  0  0  0
   -5.7787    1.1833    0.2031 C   0  0  0  0  0  0  0  0  0  0  0  0
   -3.9182   -0.9543    0.0355 N   0  0  0  0  0  0  0  0  0  0  0  0
   -3.0510   -1.9712    0.1666 C   0  0  0  0  0  0  0  0  0  0  0  0
   -3.5619   -3.2495    0.3510 C   0  0  0  0  0  0  0  0  0  0  0  0
   -2.7325   -4.3667    0.4779 C   0  0  0  0  0  0  0  0  0  0  0  0
   -1.3573   -4.2045    0.4115 C   0  0  0  0  0  0  0  0  0  0  0  0
   -0.3227   -5.5690    0.5565 Cl  0  0  0  0  0  0  0  0  0  0  0  0
   -0.8148   -2.9351    0.2298 C   0  0  0  0  0  0  0  0  0  0  0  0
   -1.6561   -1.7970    0.1219 C   0  0  0  0  0  0  0  0  0  0  0  0
    3.1973    0.2632    0.4951 C   0  0  0  0  0  0  0  0  0  0  0  0
    7.2491    2.4136   -1.1774 H   0  0  0  0  0  0  0  0  0  0  0  0
    6.5688    2.2971   -2.8084 H   0  0  0  0  0  0  0  0  0  0  0  0
    7.4075    0.8899   -2.1017 H   0  0  0  0  0  0  0  0  0  0  0  0
    6.4730    0.9921    0.4253 H   0  0  0  0  0  0  0  0  0  0  0  0
    5.9579    0.2132    2.4956 H   0  0  0  0  0  0  0  0  0  0  0  0
    4.3080   -0.6467    4.0993 H   0  0  0  0  0  0  0  0  0  0  0  0
    1.9605   -0.9379    3.4380 H   0  0  0  0  0  0  0  0  0  0  0  0
    0.3277   -0.8048    1.8674 H   0  0  0  0  0  0  0  0  0  0  0  0
   -1.7394    1.5904   -0.3729 H   0  0  0  0  0  0  0  0  0  0  0  0
   -3.3642    2.7147   -1.5911 H   0  0  0  0  0  0  0  0  0  0  0  0
   -5.1828    4.3723   -1.7801 H   0  0  0  0  0  0  0  0  0  0  0  0
   -7.3680    3.9038   -0.6660 H   0  0  0  0  0  0  0  0  0  0  0  0
   -6.0303    0.2944    0.7785 H   0  0  0  0  0  0  0  0  0  0  0  0
   -4.6418   -3.3828    0.3887 H   0  0  0  0  0  0  0  0  0  0  0  0
   -3.1714   -5.3514    0.6173 H   0  0  0  0  0  0  0  0  0  0  0  0
    0.2666   -2.8365    0.1526 H   0  0  0  0  0  0  0  0  0  0  0  0
    2.8862    0.5168   -0.5114 H   0  0  0  0  0  0  0  0  0  0  0  0
  1  2  1  0
  2  3  2  0
  2  4  1  0
  4  5  1  0
  5  6  2  0
  6  7  1  0
  7  8  2  0
  8  9  1  0
  9 10  1  0
 10 11  1  0
 11 12  2  0
 11 13  1  0
 13 14  2  0
 14 15  1  0
 15 16  1  0
 16 17  2  0
 17 18  1  0
 18 19  2  0
 19 20  1  0
 20 21  2  0
 15 22  2  0
 22 23  1  0
 23 24  2  0
 24 25  1  0
 25 26  2  0
 26 27  1  0
 26 28  1  0
 28 29  2  0
  9 30  2  0
 30  5  1  0
 29 13  1  0
 21 16  1  0
 29 23  1  0
  1 31  1  0
  1 32  1  0
  1 33  1  0
  4 34  1  0
  6 35  1  0
  7 36  1  0
  8 37  1  0
 10 38  1  0
 14 39  1  0
 17 40  1  0
 18 41  1  0
 19 42  1  0
 21 43  1  0
 24 44  1  0
 25 45  1  0
 28 46  1  0
 30 47  1  0
M  END
$$$$
