
     RDKit          3D

 50 53  0  0  0  0  0  0  0  0999 V2000
   -3.8770    1.6785   -2.3370 C   0  0  0  0  0  0  0  0  0  0  0  0
   -3.7838    0.1804   -2.0287 C   0  0  0  0  0  0  0  0  0  0  0  0
   -5.0146   -0.3274   -1.2674 C   0  0  0  0  0  0  0  0  0  0  0  0
   -5.0388    0.1713    0.1823 C   0  0  0  0  0  0  0  0  0  0  0  0
   -6.2324   -0.4186    0.9331 C   0  0  0  0  0  0  0  0  0  0  0  0
   -3.7245   -0.1713    0.9011 C   0  0  0  0  0  0  0  0  0  0  0  0
   -2.5738    0.3049    0.1275 N   0  0  0  0  0  0  0  0  0  0  0  0
   -1.3588    0.2167    0.8180 C   0  0  0  0  0  0  0  0  0  0  0  0
   -1.3695    0.1513    2.1620 N   0  0  0  0  0  0  0  0  0  0  0  0
   -0.1853    0.1083    2.8099 C   0  0  0  0  0  0  0  0  0  0  0  0
    1.0235    0.1238    2.1634 C   0  0  0  0  0  0  0  0  0  0  0  0
    0.9671    0.1808    0.7902 C   0  0  0  0  0  0  0  0  0  0  0  0
   -0.2060    0.2325    0.1189 N   0  0  0  0  0  0  0  0  0  0  0  0
    2.2234    0.2329   -0.0360 C   0  0  0  0  0  0  0  0  0  0  0  0
    3.3821   -0.4701    0.6870 C   0  0  0  0  0  0  0  0  0  0  0  0
    4.6631   -0.4352   -0.1284 C   0  0  0  0  0  0  0  0  0  0  0  0
    5.2931    0.7742   -0.4639 C   0  0  0  0  0  0  0  0  0  0  0  0
    6.4707    0.7795   -1.2165 C   0  0  0  0  0  0  0  0  0  0  0  0
    7.0285   -0.4235   -1.6400 C   0  0  0  0  0  0  0  0  0  0  0  0
    8.4778   -0.4159   -2.5665 Cl  0  0  0  0  0  0  0  0  0  0  0  0
    6.4187   -1.6323   -1.3173 C   0  0  0  0  0  0  0  0  0  0  0  0
    5.2413   -1.6381   -0.5649 C   0  0  0  0  0  0  0  0  0  0  0  0
    3.5784    0.1303    2.0847 C   0  0  0  0  0  0  0  0  0  0  0  0
    2.3000    0.0793    2.8921 C   0  0  0  0  0  0  0  0  0  0  0  0
    2.3035    0.0505    4.1186 O   0  0  0  0  0  0  0  0  0  0  0  0
   -2.4938   -0.1531   -1.2626 C   0  0  0  0  0  0  0  0  0  0  0  0
   -3.0379    1.9919   -2.9675 H   0  0  0  0  0  0  0  0  0  0  0  0
   -4.8012    1.9051   -2.8790 H   0  0  0  0  0  0  0  0  0  0  0  0
   -3.8562    2.2919   -1.4311 H   0  0  0  0  0  0  0  0  0  0  0  0
   -3.7472   -0.3404   -2.9946 H   0  0  0  0  0  0  0  0  0  0  0  0
   -5.0044   -1.4255   -1.2748 H   0  0  0  0  0  0  0  0  0  0  0  0
   -5.9308   -0.0208   -1.7869 H   0  0  0  0  0  0  0  0  0  0  0  0
   -5.1579    1.2623    0.1770 H   0  0  0  0  0  0  0  0  0  0  0  0
   -6.2710   -0.0395    1.9597 H   0  0  0  0  0  0  0  0  0  0  0  0
   -6.1753   -1.5115    0.9776 H   0  0  0  0  0  0  0  0  0  0  0  0
   -7.1724   -0.1483    0.4406 H   0  0  0  0  0  0  0  0  0  0  0  0
   -3.7634    0.3052    1.8893 H   0  0  0  0  0  0  0  0  0  0  0  0
   -3.6487   -1.2565    1.0545 H   0  0  0  0  0  0  0  0  0  0  0  0
   -0.2532    0.0636    3.8935 H   0  0  0  0  0  0  0  0  0  0  0  0
    2.0437   -0.2464   -1.0066 H   0  0  0  0  0  0  0  0  0  0  0  0
    2.4559    1.2868   -0.2325 H   0  0  0  0  0  0  0  0  0  0  0  0
    3.0919   -1.5230    0.8238 H   0  0  0  0  0  0  0  0  0  0  0  0
    4.8778    1.7280   -0.1452 H   0  0  0  0  0  0  0  0  0  0  0  0
    6.9461    1.7241   -1.4676 H   0  0  0  0  0  0  0  0  0  0  0  0
    6.8529   -2.5726   -1.6467 H   0  0  0  0  0  0  0  0  0  0  0  0
    4.7812   -2.5947   -0.3237 H   0  0  0  0  0  0  0  0  0  0  0  0
    3.9026    1.1766    2.0423 H   0  0  0  0  0  0  0  0  0  0  0  0
    4.3446   -0.4398    2.6240 H   0  0  0  0  0  0  0  0  0  0  0  0
   -2.3327   -1.2396   -1.2832 H   0  0  0  0  0  0  0  0  0  0  0  0
   -1.6575    0.3136   -1.7987 H   0  0  0  0  0  0  0  0  0  0  0  0
  1  2  1  0
  2  3  1  0
  3  4  1  0
  4  5  1  0
  4  6  1  0
  6  7  1  0
  7  8  1  0
  8  9  2  0
  9 10  1  0
 10 11  2  0
 11 12  1  0
 12 13  2  0
 12 14  1  0
 14 15  1  0
 15 16  1  0
 16 17  2  0
 17 18  1  0
 18 19  2  0
 19 20  1  0
 19 21  1  0
 21 22  2  0
 15 23  1  0
 23 24  1  0
 24 25  2  0
  7 26  1  0
 26  2  1  0
 13  8  1  0
 22 16  1  0
 24 11  1  0
  1 27  1  0
  1 28  1  0
  1 29  1  0
  2 30  1  0
  3 31  1  0
  3 32  1  0
  4 33  1  0
  5 34  1  0
  5 35  1  0
  5 36  1  0
  6 37  1  0
  6 38  1  0
 10 39  1  0
 14 40  1  0
 14 41  1  0
 15 42  1  0
 17 43  1  0
 18 44  1  0
 21 45  1  0
 22 46  1  0
 23 47  1  0
 23 48  1  0
 26 49  1  0
 26 50  1  0
M  END
$$$$
