
     RDKit          3D

 49 51  0  0  0  0  0  0  0  0999 V2000
   -1.1415    2.2059    1.4601 O   0  0  0  0  0  0  0  0  0  0  0  0
   -0.7188    1.1864    0.9266 C   0  0  0  0  0  0  0  0  0  0  0  0
   -1.6220    0.2292    0.1673 C   0  0  0  0  0  0  0  0  0  0  0  0
   -3.0593    0.7500    0.0977 C   0  0  0  0  0  0  0  0  0  0  0  0
   -3.9399   -0.1172   -0.7072 N   0  0  0  0  0  0  0  0  0  0  0  0
   -5.2333    0.5255   -0.9526 C   0  0  0  0  0  0  0  0  0  0  0  0
   -6.0216   -0.2513   -2.0138 C   0  0  0  0  0  0  0  0  0  0  0  0
   -5.8696   -1.7684   -1.8899 C   0  0  0  0  0  0  0  0  0  0  0  0
   -5.4171   -2.1571   -0.4911 C   0  0  0  0  0  0  0  0  0  0  0  0
   -4.1049   -1.4557   -0.1118 C   0  0  0  0  0  0  0  0  0  0  0  0
    0.5932    0.7488    0.9263 N   0  0  0  0  0  0  0  0  0  0  0  0
    1.7191    1.3220    1.5656 C   0  0  0  0  0  0  0  0  0  0  0  0
    1.6215    2.4529    2.3846 C   0  0  0  0  0  0  0  0  0  0  0  0
    2.7479    2.9689    3.0342 C   0  0  0  0  0  0  0  0  0  0  0  0
    3.9836    2.3518    2.8772 C   0  0  0  0  0  0  0  0  0  0  0  0
    5.4980    3.0385    3.7750 Br  0  0  0  0  0  0  0  0  0  0  0  0
    4.1132    1.2313    2.0620 C   0  0  0  0  0  0  0  0  0  0  0  0
    2.9908    0.7271    1.3843 C   0  0  0  0  0  0  0  0  0  0  0  0
    3.1498   -0.4558    0.4879 C   0  0  0  0  0  0  0  0  0  0  0  0
    2.2190   -1.2507    0.3639 O   0  0  0  0  0  0  0  0  0  0  0  0
    4.3939   -0.6894   -0.2854 C   0  0  0  0  0  0  0  0  0  0  0  0
    5.0847    0.3647   -0.8956 C   0  0  0  0  0  0  0  0  0  0  0  0
    6.2456    0.1027   -1.6255 C   0  0  0  0  0  0  0  0  0  0  0  0
    6.7080   -1.2071   -1.7579 C   0  0  0  0  0  0  0  0  0  0  0  0
    6.0077   -2.2605   -1.1699 C   0  0  0  0  0  0  0  0  0  0  0  0
    4.8469   -2.0044   -0.4393 C   0  0  0  0  0  0  0  0  0  0  0  0
   -1.5828   -0.7395    0.6786 H   0  0  0  0  0  0  0  0  0  0  0  0
   -1.2207    0.1044   -0.8458 H   0  0  0  0  0  0  0  0  0  0  0  0
   -3.4672    0.8825    1.1086 H   0  0  0  0  0  0  0  0  0  0  0  0
   -3.0301    1.7478   -0.3601 H   0  0  0  0  0  0  0  0  0  0  0  0
   -5.8137    0.5991   -0.0234 H   0  0  0  0  0  0  0  0  0  0  0  0
   -5.0982    1.5496   -1.3221 H   0  0  0  0  0  0  0  0  0  0  0  0
   -5.7018    0.0533   -3.0181 H   0  0  0  0  0  0  0  0  0  0  0  0
   -7.0809    0.0202   -1.9303 H   0  0  0  0  0  0  0  0  0  0  0  0
   -5.1281   -2.1194   -2.6188 H   0  0  0  0  0  0  0  0  0  0  0  0
   -6.8144   -2.2628   -2.1417 H   0  0  0  0  0  0  0  0  0  0  0  0
   -5.2893   -3.2433   -0.4228 H   0  0  0  0  0  0  0  0  0  0  0  0
   -6.2001   -1.8837    0.2279 H   0  0  0  0  0  0  0  0  0  0  0  0
   -4.0577   -1.4159    0.9842 H   0  0  0  0  0  0  0  0  0  0  0  0
   -3.2675   -2.0799   -0.4460 H   0  0  0  0  0  0  0  0  0  0  0  0
    0.7806   -0.1376    0.4493 H   0  0  0  0  0  0  0  0  0  0  0  0
    0.6734    2.9550    2.5538 H   0  0  0  0  0  0  0  0  0  0  0  0
    2.6389    3.8453    3.6691 H   0  0  0  0  0  0  0  0  0  0  0  0
    5.0838    0.7511    1.9677 H   0  0  0  0  0  0  0  0  0  0  0  0
    4.7252    1.3883   -0.8277 H   0  0  0  0  0  0  0  0  0  0  0  0
    6.7858    0.9184   -2.1006 H   0  0  0  0  0  0  0  0  0  0  0  0
    7.6102   -1.4090   -2.3308 H   0  0  0  0  0  0  0  0  0  0  0  0
    6.3620   -3.2819   -1.2862 H   0  0  0  0  0  0  0  0  0  0  0  0
    4.2974   -2.8302    0.0081 H   0  0  0  0  0  0  0  0  0  0  0  0
  1  2  2  0
  2  3  1  0
  3  4  1  0
  4  5  1  0
  5  6  1  0
  6  7  1  0
  7  8  1  0
  8  9  1  0
  9 10  1  0
  2 11  1  0
 11 12  1  0
 12 13  2  0
 13 14  1  0
 14 15  2  0
 15 16  1  0
 15 17  1  0
 17 18  2  0
 18 19  1  0
 19 20  2  0
 19 21  1  0
 21 22  2  0
 22 23  1  0
 23 24  2  0
 24 25  1  0
 25 26  2  0
 10  5  1  0
 18 12  1  0
 26 21  1  0
  3 27  1  0
  3 28  1  0
  4 29  1  0
  4 30  1  0
  6 31  1  0
  6 32  1  0
  7 33  1  0
  7 34  1  0
  8 35  1  0
  8 36  1  0
  9 37  1  0
  9 38  1  0
 10 39  1  0
 10 40  1  0
 11 41  1  0
 13 42  1  0
 14 43  1  0
 17 44  1  0
 22 45  1  0
 23 46  1  0
 24 47  1  0
 25 48  1  0
 26 49  1  0
M  END
$$$$
