
     RDKit          3D

 44 46  0  0  0  0  0  0  0  0999 V2000
    1.2792   -2.3989    0.4728 C   0  0  0  0  0  0  0  0  0  0  0  0
    1.3543   -0.9028    0.2424 C   0  0  0  0  0  0  0  0  0  0  0  0
    2.4215   -0.2933   -0.1775 N   0  0  0  0  0  0  0  0  0  0  0  0
    3.6109   -1.0767   -0.5092 C   0  0  0  0  0  0  0  0  0  0  0  0
    4.6624   -0.1904   -1.1148 C   0  0  0  0  0  0  0  0  0  0  0  0
    5.5388    0.5525   -0.3189 C   0  0  0  0  0  0  0  0  0  0  0  0
    6.4855    1.3774   -0.9194 C   0  0  0  0  0  0  0  0  0  0  0  0
    6.5203    1.4375   -2.3025 C   0  0  0  0  0  0  0  0  0  0  0  0
    5.6844    0.7453   -3.1050 N   0  0  0  0  0  0  0  0  0  0  0  0
    4.7707   -0.0433   -2.4937 C   0  0  0  0  0  0  0  0  0  0  0  0
    0.1355   -0.0797    0.5356 C   0  0  0  0  0  0  0  0  0  0  0  0
    0.2907    1.1813    0.9618 C   0  0  0  0  0  0  0  0  0  0  0  0
    1.4877    1.8355    1.0995 O   0  0  0  0  0  0  0  0  0  0  0  0
   -0.7658    1.9418    1.3223 N   0  0  0  0  0  0  0  0  0  0  0  0
   -2.0698    1.5330    1.3087 C   0  0  0  0  0  0  0  0  0  0  0  0
   -2.9186    2.2842    1.7868 O   0  0  0  0  0  0  0  0  0  0  0  0
   -2.2964    0.2606    0.7794 N   0  0  0  0  0  0  0  0  0  0  0  0
   -3.6490   -0.2208    0.6975 C   0  0  0  0  0  0  0  0  0  0  0  0
   -3.9568   -1.4695    1.2718 C   0  0  0  0  0  0  0  0  0  0  0  0
   -5.2605   -1.9676    1.2687 C   0  0  0  0  0  0  0  0  0  0  0  0
   -6.2816   -1.2275    0.6878 C   0  0  0  0  0  0  0  0  0  0  0  0
   -5.9947   -0.0008    0.0920 C   0  0  0  0  0  0  0  0  0  0  0  0
   -4.6817    0.5081    0.0660 C   0  0  0  0  0  0  0  0  0  0  0  0
   -4.4628    1.8005   -0.6752 C   0  0  0  0  0  0  0  0  0  0  0  0
   -1.2563   -0.5943    0.3971 C   0  0  0  0  0  0  0  0  0  0  0  0
   -1.4160   -1.7162   -0.0884 O   0  0  0  0  0  0  0  0  0  0  0  0
    2.2084   -2.7713    0.9110 H   0  0  0  0  0  0  0  0  0  0  0  0
    0.4824   -2.6531    1.1765 H   0  0  0  0  0  0  0  0  0  0  0  0
    1.1029   -2.9041   -0.4807 H   0  0  0  0  0  0  0  0  0  0  0  0
    3.3692   -1.8823   -1.2139 H   0  0  0  0  0  0  0  0  0  0  0  0
    4.0288   -1.5410    0.3924 H   0  0  0  0  0  0  0  0  0  0  0  0
    5.4846    0.4944    0.7649 H   0  0  0  0  0  0  0  0  0  0  0  0
    7.1771    1.9619   -0.3235 H   0  0  0  0  0  0  0  0  0  0  0  0
    7.2410    2.0662   -2.8174 H   0  0  0  0  0  0  0  0  0  0  0  0
    4.1035   -0.5701   -3.1709 H   0  0  0  0  0  0  0  0  0  0  0  0
    2.1667    1.3031    0.6219 H   0  0  0  0  0  0  0  0  0  0  0  0
   -0.5858    2.8689    1.6885 H   0  0  0  0  0  0  0  0  0  0  0  0
   -3.1843   -2.0626    1.7561 H   0  0  0  0  0  0  0  0  0  0  0  0
   -5.4761   -2.9289    1.7275 H   0  0  0  0  0  0  0  0  0  0  0  0
   -7.3002   -1.6069    0.6890 H   0  0  0  0  0  0  0  0  0  0  0  0
   -6.8047    0.5580   -0.3736 H   0  0  0  0  0  0  0  0  0  0  0  0
   -4.6886    2.6551   -0.0312 H   0  0  0  0  0  0  0  0  0  0  0  0
   -3.4400    1.8849   -1.0540 H   0  0  0  0  0  0  0  0  0  0  0  0
   -5.1167    1.8520   -1.5534 H   0  0  0  0  0  0  0  0  0  0  0  0
  1  2  1  0
  2  3  2  3
  3  4  1  0
  4  5  1  0
  5  6  2  0
  6  7  1  0
  7  8  2  0
  8  9  1  0
  9 10  2  0
  2 11  1  0
 11 12  2  0
 12 13  1  0
 12 14  1  0
 14 15  1  0
 15 16  2  0
 15 17  1  0
 17 18  1  0
 18 19  2  0
 19 20  1  0
 20 21  2  0
 21 22  1  0
 22 23  2  0
 23 24  1  0
 17 25  1  0
 25 26  2  0
 10  5  1  0
 25 11  1  0
 23 18  1  0
  1 27  1  0
  1 28  1  0
  1 29  1  0
  4 30  1  0
  4 31  1  0
  6 32  1  0
  7 33  1  0
  8 34  1  0
 10 35  1  0
 13 36  1  0
 14 37  1  0
 19 38  1  0
 20 39  1  0
 21 40  1  0
 22 41  1  0
 24 42  1  0
 24 43  1  0
 24 44  1  0
M  END
$$$$
