
     RDKit          3D

 73 75  0  0  0  0  0  0  0  0999 V2000
   10.5814   -1.9779   -1.0020 C   0  0  0  0  0  0  0  0  0  0  0  0
    9.1573   -1.4495   -1.0901 C   0  0  0  0  0  0  0  0  0  0  0  0
    8.7158   -0.8171    0.2307 C   0  0  0  0  0  0  0  0  0  0  0  0
    7.3339   -0.1600    0.1608 C   0  0  0  0  0  0  0  0  0  0  0  0
    6.2054   -1.1488   -0.1460 C   0  0  0  0  0  0  0  0  0  0  0  0
    4.8066   -0.5482    0.0368 C   0  0  0  0  0  0  0  0  0  0  0  0
    4.5264    0.6325   -0.8966 C   0  0  0  0  0  0  0  0  0  0  0  0
    3.0635    1.0898   -0.8749 C   0  0  0  0  0  0  0  0  0  0  0  0
    2.6135    1.6062    0.4942 C   0  0  0  0  0  0  0  0  0  0  0  0
    1.2370    2.2843    0.4705 C   0  0  0  0  0  0  0  0  0  0  0  0
    0.1234    1.3379    0.0147 C   0  0  0  0  0  0  0  0  0  0  0  0
   -1.3146    1.8920    0.2209 N   0  0  0  0  0  4  0  0  0  0  0  0
   -1.6263    1.9780    1.7164 C   0  0  0  0  0  0  0  0  0  0  0  0
   -1.4628    3.2675   -0.4175 C   0  0  0  0  0  0  0  0  0  0  0  0
   -2.2660    0.8676   -0.4671 C   0  0  0  0  0  0  0  0  0  0  0  0
   -3.7515    1.2522   -0.4433 C   0  0  0  0  0  0  0  0  0  0  0  0
   -4.6234    0.1433   -0.9804 C   0  0  0  0  0  0  0  0  0  0  0  0
   -5.4903   -0.6463   -0.3045 C   0  0  0  0  0  0  0  0  0  0  0  0
   -6.4361   -1.4721   -1.1049 C   0  0  0  0  0  0  0  0  0  0  0  0
   -6.0049   -2.2996   -2.1535 C   0  0  0  0  0  0  0  0  0  0  0  0
   -6.9262   -3.0537   -2.8826 C   0  0  0  0  0  0  0  0  0  0  0  0
   -8.2820   -2.9962   -2.5660 C   0  0  0  0  0  0  0  0  0  0  0  0
   -8.7215   -2.1906   -1.5140 C   0  0  0  0  0  0  0  0  0  0  0  0
   -7.8057   -1.4350   -0.7729 C   0  0  0  0  0  0  0  0  0  0  0  0
   -8.4249   -0.4291    0.5808 S   0  0  0  0  0  0  0  0  0  0  0  0
   -6.9983   -0.4062    1.6646 C   0  0  0  0  0  0  0  0  0  0  0  0
   -7.2060   -0.2751    3.0441 C   0  0  0  0  0  0  0  0  0  0  0  0
   -6.1241   -0.3081    3.9270 C   0  0  0  0  0  0  0  0  0  0  0  0
   -4.8389   -0.5006    3.4322 C   0  0  0  0  0  0  0  0  0  0  0  0
   -3.4955   -0.5515    4.5053 Cl  0  0  0  0  0  0  0  0  0  0  0  0
   -4.6186   -0.6363    2.0624 C   0  0  0  0  0  0  0  0  0  0  0  0
   -5.6893   -0.5399    1.1631 C   0  0  0  0  0  0  0  0  0  0  0  0
   10.6728   -2.7331   -0.2155 H   0  0  0  0  0  0  0  0  0  0  0  0
   11.2876   -1.1695   -0.7864 H   0  0  0  0  0  0  0  0  0  0  0  0
   10.8728   -2.4391   -1.9506 H   0  0  0  0  0  0  0  0  0  0  0  0
    8.4918   -2.2791   -1.3547 H   0  0  0  0  0  0  0  0  0  0  0  0
    9.0965   -0.7108   -1.8977 H   0  0  0  0  0  0  0  0  0  0  0  0
    9.4441   -0.0495    0.5233 H   0  0  0  0  0  0  0  0  0  0  0  0
    8.7226   -1.5756    1.0242 H   0  0  0  0  0  0  0  0  0  0  0  0
    7.1366    0.3277    1.1239 H   0  0  0  0  0  0  0  0  0  0  0  0
    7.3542    0.6313   -0.5982 H   0  0  0  0  0  0  0  0  0  0  0  0
    6.2940   -2.0186    0.5166 H   0  0  0  0  0  0  0  0  0  0  0  0
    6.3019   -1.5201   -1.1727 H   0  0  0  0  0  0  0  0  0  0  0  0
    4.6854   -0.2396    1.0815 H   0  0  0  0  0  0  0  0  0  0  0  0
    4.0679   -1.3381   -0.1497 H   0  0  0  0  0  0  0  0  0  0  0  0
    4.7801    0.3481   -1.9250 H   0  0  0  0  0  0  0  0  0  0  0  0
    5.1694    1.4807   -0.6326 H   0  0  0  0  0  0  0  0  0  0  0  0
    2.9432    1.8855   -1.6202 H   0  0  0  0  0  0  0  0  0  0  0  0
    2.4229    0.2582   -1.1911 H   0  0  0  0  0  0  0  0  0  0  0  0
    2.5891    0.7822    1.2170 H   0  0  0  0  0  0  0  0  0  0  0  0
    3.3463    2.3330    0.8658 H   0  0  0  0  0  0  0  0  0  0  0  0
    1.2892    3.1516   -0.1982 H   0  0  0  0  0  0  0  0  0  0  0  0
    1.0466    2.6666    1.4777 H   0  0  0  0  0  0  0  0  0  0  0  0
    0.1712    0.3848    0.5540 H   0  0  0  0  0  0  0  0  0  0  0  0
    0.2245    1.1391   -1.0581 H   0  0  0  0  0  0  0  0  0  0  0  0
   -1.5270    0.9782    2.1476 H   0  0  0  0  0  0  0  0  0  0  0  0
   -2.6400    2.3605    1.8491 H   0  0  0  0  0  0  0  0  0  0  0  0
   -0.9288    2.6730    2.1876 H   0  0  0  0  0  0  0  0  0  0  0  0
   -2.4873    3.6176   -0.2699 H   0  0  0  0  0  0  0  0  0  0  0  0
   -0.7816    3.9645    0.0774 H   0  0  0  0  0  0  0  0  0  0  0  0
   -1.2295    3.1815   -1.4824 H   0  0  0  0  0  0  0  0  0  0  0  0
   -1.9262    0.7742   -1.5066 H   0  0  0  0  0  0  0  0  0  0  0  0
   -2.0984   -0.0926    0.0351 H   0  0  0  0  0  0  0  0  0  0  0  0
   -4.0794    1.5551    0.5521 H   0  0  0  0  0  0  0  0  0  0  0  0
   -3.9168    2.1254   -1.0865 H   0  0  0  0  0  0  0  0  0  0  0  0
   -4.6015    0.0702   -2.0701 H   0  0  0  0  0  0  0  0  0  0  0  0
   -4.9516   -2.3756   -2.4067 H   0  0  0  0  0  0  0  0  0  0  0  0
   -6.5874   -3.6927   -3.6950 H   0  0  0  0  0  0  0  0  0  0  0  0
   -8.9987   -3.5849   -3.1341 H   0  0  0  0  0  0  0  0  0  0  0  0
   -9.7831   -2.1650   -1.2731 H   0  0  0  0  0  0  0  0  0  0  0  0
   -8.2132   -0.1619    3.4422 H   0  0  0  0  0  0  0  0  0  0  0  0
   -6.2991   -0.2090    4.9961 H   0  0  0  0  0  0  0  0  0  0  0  0
   -3.6185   -0.8438    1.7026 H   0  0  0  0  0  0  0  0  0  0  0  0
  1  2  1  0
  2  3  1  0
  3  4  1  0
  4  5  1  0
  5  6  1  0
  6  7  1  0
  7  8  1  0
  8  9  1  0
  9 10  1  0
 10 11  1  0
 11 12  1  0
 12 13  1  0
 12 14  1  0
 12 15  1  0
 15 16  1  0
 16 17  1  0
 17 18  2  3
 18 19  1  0
 19 20  2  0
 20 21  1  0
 21 22  2  0
 22 23  1  0
 23 24  2  0
 24 25  1  0
 25 26  1  0
 26 27  2  0
 27 28  1  0
 28 29  2  0
 29 30  1  0
 29 31  1  0
 31 32  2  0
 32 18  1  0
 24 19  1  0
 32 26  1  0
  1 33  1  0
  1 34  1  0
  1 35  1  0
  2 36  1  0
  2 37  1  0
  3 38  1  0
  3 39  1  0
  4 40  1  0
  4 41  1  0
  5 42  1  0
  5 43  1  0
  6 44  1  0
  6 45  1  0
  7 46  1  0
  7 47  1  0
  8 48  1  0
  8 49  1  0
  9 50  1  0
  9 51  1  0
 10 52  1  0
 10 53  1  0
 11 54  1  0
 11 55  1  0
 13 56  1  0
 13 57  1  0
 13 58  1  0
 14 59  1  0
 14 60  1  0
 14 61  1  0
 15 62  1  0
 15 63  1  0
 16 64  1  0
 16 65  1  0
 17 66  1  0
 20 67  1  0
 21 68  1  0
 22 69  1  0
 23 70  1  0
 27 71  1  0
 28 72  1  0
 31 73  1  0
M  CHG  1  12   1
M  END
$$$$
