
     RDKit          3D

 41 44  0  0  0  0  0  0  0  0999 V2000
   -1.2544    1.3650   -1.7312 C   0  0  0  0  0  0  0  0  0  0  0  0
   -1.8581    0.0107   -1.3438 C   0  0  0  0  0  0  0  0  0  0  0  0
   -3.3848   -0.0100   -1.5844 C   0  0  0  0  0  0  0  0  0  0  0  0
   -3.8970    0.1967   -0.2037 C   0  0  0  0  0  0  0  0  0  0  0  0
   -5.1973    0.4500    0.2026 C   0  0  0  0  0  0  0  0  0  0  0  0
   -5.4548    0.5422    1.5708 C   0  0  0  0  0  0  0  0  0  0  0  0
   -4.4199    0.3724    2.5019 C   0  0  0  0  0  0  0  0  0  0  0  0
   -3.1155    0.1076    2.0744 C   0  0  0  0  0  0  0  0  0  0  0  0
   -2.8629    0.0185    0.7142 C   0  0  0  0  0  0  0  0  0  0  0  0
   -1.5988   -0.2316    0.1135 N   0  0  0  0  0  0  0  0  0  0  0  0
   -1.1045   -1.5994    0.4462 C   0  0  0  0  0  0  0  0  0  0  0  0
    0.4104   -1.7005    0.2089 C   0  0  0  0  0  0  0  0  0  0  0  0
    0.9507   -2.7747   -0.0346 O   0  0  0  0  0  0  0  0  0  0  0  0
    1.0307   -0.4722    0.3585 N   0  0  0  0  0  0  0  0  0  0  0  0
    2.3940   -0.1572    0.2501 C   0  0  0  0  0  0  0  0  0  0  0  0
    2.7458    1.2032    0.3971 C   0  0  0  0  0  0  0  0  0  0  0  0
    4.0781    1.6206    0.3059 C   0  0  0  0  0  0  0  0  0  0  0  0
    5.0320    0.6578    0.0690 C   0  0  0  0  0  0  0  0  0  0  0  0
    4.6977   -0.6677   -0.0736 C   0  0  0  0  0  0  0  0  0  0  0  0
    3.3912   -1.1076    0.0115 C   0  0  0  0  0  0  0  0  0  0  0  0
    5.7861   -1.4528   -0.3002 O   0  0  0  0  0  0  0  0  0  0  0  0
    6.8404   -0.4694   -0.2822 C   0  0  0  0  0  0  0  0  0  0  0  0
    6.3686    0.8742   -0.0497 O   0  0  0  0  0  0  0  0  0  0  0  0
   -0.1713    1.3686   -1.5731 H   0  0  0  0  0  0  0  0  0  0  0  0
   -1.4385    1.5817   -2.7886 H   0  0  0  0  0  0  0  0  0  0  0  0
   -1.6769    2.1825   -1.1367 H   0  0  0  0  0  0  0  0  0  0  0  0
   -1.3760   -0.7549   -1.9653 H   0  0  0  0  0  0  0  0  0  0  0  0
   -3.7023   -0.9930   -1.9490 H   0  0  0  0  0  0  0  0  0  0  0  0
   -3.7185    0.7657   -2.2797 H   0  0  0  0  0  0  0  0  0  0  0  0
   -5.9984    0.5683   -0.5197 H   0  0  0  0  0  0  0  0  0  0  0  0
   -6.4649    0.7440    1.9192 H   0  0  0  0  0  0  0  0  0  0  0  0
   -4.6335    0.4503    3.5651 H   0  0  0  0  0  0  0  0  0  0  0  0
   -2.3169   -0.0076    2.7993 H   0  0  0  0  0  0  0  0  0  0  0  0
   -1.2607   -1.8395    1.5047 H   0  0  0  0  0  0  0  0  0  0  0  0
   -1.6123   -2.3538   -0.1664 H   0  0  0  0  0  0  0  0  0  0  0  0
    0.3684    0.2885    0.5128 H   0  0  0  0  0  0  0  0  0  0  0  0
    1.9787    1.9515    0.5847 H   0  0  0  0  0  0  0  0  0  0  0  0
    4.3512    2.6635    0.4180 H   0  0  0  0  0  0  0  0  0  0  0  0
    3.1807   -2.1632   -0.1059 H   0  0  0  0  0  0  0  0  0  0  0  0
    7.3613   -0.4958   -1.2463 H   0  0  0  0  0  0  0  0  0  0  0  0
    7.5522   -0.7326    0.5089 H   0  0  0  0  0  0  0  0  0  0  0  0
  1  2  1  0
  2  3  1  0
  3  4  1  0
  4  5  2  0
  5  6  1  0
  6  7  2  0
  7  8  1  0
  8  9  2  0
  9 10  1  0
 10 11  1  0
 11 12  1  0
 12 13  2  0
 12 14  1  0
 14 15  1  0
 15 16  2  0
 16 17  1  0
 17 18  2  0
 18 19  1  0
 19 20  2  0
 19 21  1  0
 21 22  1  0
 22 23  1  0
 10  2  1  0
 20 15  1  0
  9  4  1  0
 23 18  1  0
  1 24  1  0
  1 25  1  0
  1 26  1  0
  2 27  1  0
  3 28  1  0
  3 29  1  0
  5 30  1  0
  6 31  1  0
  7 32  1  0
  8 33  1  0
 11 34  1  0
 11 35  1  0
 14 36  1  0
 16 37  1  0
 17 38  1  0
 20 39  1  0
 22 40  1  0
 22 41  1  0
M  END
$$$$
