
     RDKit          3D

 62 66  0  0  0  0  0  0  0  0999 V2000
   -4.4598   -6.1939    0.2173 C   0  0  0  0  0  0  0  0  0  0  0  0
   -4.4390   -4.8495    0.6797 O   0  0  0  0  0  0  0  0  0  0  0  0
   -4.0172   -3.8966   -0.2069 C   0  0  0  0  0  0  0  0  0  0  0  0
   -3.5772   -4.1275   -1.5104 C   0  0  0  0  0  0  0  0  0  0  0  0
   -3.1672   -3.0588   -2.3114 C   0  0  0  0  0  0  0  0  0  0  0  0
   -3.1960   -1.7559   -1.8133 C   0  0  0  0  0  0  0  0  0  0  0  0
   -3.6363   -1.5074   -0.5082 C   0  0  0  0  0  0  0  0  0  0  0  0
   -3.6494   -0.1378    0.0211 C   0  0  0  0  0  0  0  0  0  0  0  0
   -5.1575    0.5598    0.4310 S   0  0  0  0  0  0  0  0  0  0  0  0
   -4.4452    2.0482    0.9028 C   0  0  0  0  0  0  0  0  0  0  0  0
   -5.1144    3.1876    1.3897 C   0  0  0  0  0  0  0  0  0  0  0  0
   -4.3724    4.3229    1.7346 C   0  0  0  0  0  0  0  0  0  0  0  0
   -2.9907    4.3310    1.6033 C   0  0  0  0  0  0  0  0  0  0  0  0
   -2.1592    5.3739    1.9081 O   0  0  0  0  0  0  0  0  0  0  0  0
   -2.7644    6.5508    2.4282 C   0  0  0  0  0  0  0  0  0  0  0  0
   -2.3383    3.1915    1.1174 C   0  0  0  0  0  0  0  0  0  0  0  0
   -3.0589    2.0237    0.7513 C   0  0  0  0  0  0  0  0  0  0  0  0
   -2.6048    0.7501    0.2336 C   0  0  0  0  0  0  0  0  0  0  0  0
   -1.2178    0.3906   -0.0487 C   0  0  0  0  0  0  0  0  0  0  0  0
   -0.5736   -0.6039    0.6953 C   0  0  0  0  0  0  0  0  0  0  0  0
    0.7552   -0.9468    0.4200 C   0  0  0  0  0  0  0  0  0  0  0  0
    1.4512   -0.2941   -0.5976 C   0  0  0  0  0  0  0  0  0  0  0  0
    2.7451   -0.5315   -0.9692 O   0  0  0  0  0  0  0  0  0  0  0  0
    3.4623   -1.5293   -0.2365 C   0  0  0  0  0  0  0  0  0  0  0  0
    4.8973   -1.6338   -0.7861 C   0  0  0  0  0  0  0  0  0  0  0  0
    5.8234   -0.6332   -0.2321 N   0  0  0  0  0  0  0  0  0  0  0  0
    5.4682    0.7458   -0.5777 C   0  0  0  0  0  0  0  0  0  0  0  0
    6.7483    1.5237   -0.3007 C   0  0  0  0  0  0  0  0  0  0  0  0
    7.8655    0.4877   -0.3349 C   0  0  0  0  0  0  0  0  0  0  0  0
    7.1850   -0.8084   -0.7414 C   0  0  0  0  0  0  0  0  0  0  0  0
    0.8081    0.7030   -1.3356 C   0  0  0  0  0  0  0  0  0  0  0  0
   -0.5185    1.0472   -1.0653 C   0  0  0  0  0  0  0  0  0  0  0  0
   -4.0434   -2.5883    0.2868 C   0  0  0  0  0  0  0  0  0  0  0  0
   -3.4523   -6.5393   -0.0367 H   0  0  0  0  0  0  0  0  0  0  0  0
   -4.8308   -6.8221    1.0328 H   0  0  0  0  0  0  0  0  0  0  0  0
   -5.1438   -6.3100   -0.6299 H   0  0  0  0  0  0  0  0  0  0  0  0
   -3.5383   -5.1254   -1.9337 H   0  0  0  0  0  0  0  0  0  0  0  0
   -2.8224   -3.2414   -3.3260 H   0  0  0  0  0  0  0  0  0  0  0  0
   -2.8723   -0.9353   -2.4497 H   0  0  0  0  0  0  0  0  0  0  0  0
   -6.1957    3.1868    1.4984 H   0  0  0  0  0  0  0  0  0  0  0  0
   -4.9164    5.1853    2.1062 H   0  0  0  0  0  0  0  0  0  0  0  0
   -3.4481    6.9980    1.6991 H   0  0  0  0  0  0  0  0  0  0  0  0
   -1.9692    7.2758    2.6268 H   0  0  0  0  0  0  0  0  0  0  0  0
   -3.2737    6.3475    3.3760 H   0  0  0  0  0  0  0  0  0  0  0  0
   -1.2544    3.2044    1.0238 H   0  0  0  0  0  0  0  0  0  0  0  0
   -1.1006   -1.1208    1.4945 H   0  0  0  0  0  0  0  0  0  0  0  0
    1.2127   -1.7261    1.0200 H   0  0  0  0  0  0  0  0  0  0  0  0
    2.9706   -2.4993   -0.3813 H   0  0  0  0  0  0  0  0  0  0  0  0
    3.4871   -1.2895    0.8338 H   0  0  0  0  0  0  0  0  0  0  0  0
    4.8781   -1.5792   -1.8822 H   0  0  0  0  0  0  0  0  0  0  0  0
    5.2794   -2.6240   -0.5084 H   0  0  0  0  0  0  0  0  0  0  0  0
    4.6409    1.1275    0.0284 H   0  0  0  0  0  0  0  0  0  0  0  0
    5.2027    0.8425   -1.6381 H   0  0  0  0  0  0  0  0  0  0  0  0
    6.7131    2.0019    0.6850 H   0  0  0  0  0  0  0  0  0  0  0  0
    6.9043    2.3079   -1.0488 H   0  0  0  0  0  0  0  0  0  0  0  0
    8.3123    0.3929    0.6620 H   0  0  0  0  0  0  0  0  0  0  0  0
    8.6604    0.7665   -1.0337 H   0  0  0  0  0  0  0  0  0  0  0  0
    7.2001   -0.9105   -1.8342 H   0  0  0  0  0  0  0  0  0  0  0  0
    7.6821   -1.6786   -0.3015 H   0  0  0  0  0  0  0  0  0  0  0  0
    1.3456    1.2168   -2.1287 H   0  0  0  0  0  0  0  0  0  0  0  0
   -0.9987    1.8248   -1.6544 H   0  0  0  0  0  0  0  0  0  0  0  0
   -4.3808   -2.4181    1.3070 H   0  0  0  0  0  0  0  0  0  0  0  0
  1  2  1  0
  2  3  1  0
  3  4  2  0
  4  5  1  0
  5  6  2  0
  6  7  1  0
  7  8  1  0
  8  9  1  0
  9 10  1  0
 10 11  2  0
 11 12  1  0
 12 13  2  0
 13 14  1  0
 14 15  1  0
 13 16  1  0
 16 17  2  0
 17 18  1  0
 18 19  1  0
 19 20  2  0
 20 21  1  0
 21 22  2  0
 22 23  1  0
 23 24  1  0
 24 25  1  0
 25 26  1  0
 26 27  1  0
 27 28  1  0
 28 29  1  0
 29 30  1  0
 22 31  1  0
 31 32  2  0
  7 33  2  0
 33  3  1  0
 18  8  2  0
 32 19  1  0
 17 10  1  0
 30 26  1  0
  1 34  1  0
  1 35  1  0
  1 36  1  0
  4 37  1  0
  5 38  1  0
  6 39  1  0
 11 40  1  0
 12 41  1  0
 15 42  1  0
 15 43  1  0
 15 44  1  0
 16 45  1  0
 20 46  1  0
 21 47  1  0
 24 48  1  0
 24 49  1  0
 25 50  1  0
 25 51  1  0
 27 52  1  0
 27 53  1  0
 28 54  1  0
 28 55  1  0
 29 56  1  0
 29 57  1  0
 30 58  1  0
 30 59  1  0
 31 60  1  0
 32 61  1  0
 33 62  1  0
M  END
$$$$
