
     RDKit          3D

 34 36  0  0  0  0  0  0  0  0999 V2000
    2.0977    2.5029    1.5704 O   0  0  0  0  0  0  0  0  0  0  0  0
    2.2293    1.3087    1.3109 C   0  0  0  0  0  0  0  0  0  0  0  0
    3.4324    0.7900    0.5577 C   0  0  0  0  0  0  0  0  0  0  0  0
    3.0314    0.0577   -0.6201 N   0  0  0  0  0  0  0  0  0  0  0  0
    3.0044    0.4905   -1.9070 C   0  0  0  0  0  0  0  0  0  0  0  0
    2.5594   -0.4725   -2.6809 N   0  0  0  0  0  0  0  0  0  0  0  0
    2.3077   -1.4870   -1.8015 C   0  0  0  0  0  0  0  0  0  0  0  0
    2.5890   -1.2151   -0.5228 N   0  0  0  0  0  0  0  0  0  0  0  0
    1.3406    0.3358    1.7204 N   0  0  0  0  0  0  0  0  0  0  0  0
    0.0424    0.6792    2.2563 C   0  0  0  0  0  0  0  0  0  0  0  0
   -0.9808    0.8001    1.1485 C   0  0  0  0  0  0  0  0  0  0  0  0
   -1.2717    2.0910    0.6693 C   0  0  0  0  0  0  0  0  0  0  0  0
   -2.1800    2.2805   -0.3652 C   0  0  0  0  0  0  0  0  0  0  0  0
   -2.8057    1.1815   -0.9449 C   0  0  0  0  0  0  0  0  0  0  0  0
   -2.5296   -0.1210   -0.5044 C   0  0  0  0  0  0  0  0  0  0  0  0
   -3.1643   -1.2150   -1.1157 C   0  0  0  0  0  0  0  0  0  0  0  0
   -2.9020   -2.5201   -0.7047 C   0  0  0  0  0  0  0  0  0  0  0  0
   -2.0001   -2.7479    0.3248 C   0  0  0  0  0  0  0  0  0  0  0  0
   -1.3620   -1.6702    0.9445 C   0  0  0  0  0  0  0  0  0  0  0  0
   -1.6067   -0.3325    0.5523 C   0  0  0  0  0  0  0  0  0  0  0  0
    4.0614    1.6286    0.2426 H   0  0  0  0  0  0  0  0  0  0  0  0
    4.0223    0.1273    1.1987 H   0  0  0  0  0  0  0  0  0  0  0  0
    3.3044    1.4815   -2.2186 H   0  0  0  0  0  0  0  0  0  0  0  0
    1.9106   -2.4483   -2.1024 H   0  0  0  0  0  0  0  0  0  0  0  0
    1.4116   -0.5651    1.2478 H   0  0  0  0  0  0  0  0  0  0  0  0
   -0.2469   -0.0940    2.9749 H   0  0  0  0  0  0  0  0  0  0  0  0
    0.1113    1.6148    2.8238 H   0  0  0  0  0  0  0  0  0  0  0  0
   -0.7753    2.9592    1.1014 H   0  0  0  0  0  0  0  0  0  0  0  0
   -2.3951    3.2832   -0.7247 H   0  0  0  0  0  0  0  0  0  0  0  0
   -3.5105    1.3505   -1.7563 H   0  0  0  0  0  0  0  0  0  0  0  0
   -3.8719   -1.0563   -1.9270 H   0  0  0  0  0  0  0  0  0  0  0  0
   -3.4008   -3.3545   -1.1902 H   0  0  0  0  0  0  0  0  0  0  0  0
   -1.7891   -3.7635    0.6495 H   0  0  0  0  0  0  0  0  0  0  0  0
   -0.6633   -1.8999    1.7441 H   0  0  0  0  0  0  0  0  0  0  0  0
  1  2  2  0
  2  3  1  0
  3  4  1  0
  4  5  1  0
  5  6  2  0
  6  7  1  0
  7  8  2  0
  2  9  1  0
  9 10  1  0
 10 11  1  0
 11 12  2  0
 12 13  1  0
 13 14  2  0
 14 15  1  0
 15 16  2  0
 16 17  1  0
 17 18  2  0
 18 19  1  0
 19 20  2  0
  8  4  1  0
 20 11  1  0
 20 15  1  0
  3 21  1  0
  3 22  1  0
  5 23  1  0
  7 24  1  0
  9 25  1  0
 10 26  1  0
 10 27  1  0
 12 28  1  0
 13 29  1  0
 14 30  1  0
 16 31  1  0
 17 32  1  0
 18 33  1  0
 19 34  1  0
M  END
$$$$
