
     RDKit          3D

 46 48  0  0  0  0  0  0  0  0999 V2000
   -4.1162    1.9436   -3.7499 C   0  0  0  0  0  0  0  0  0  0  0  0
   -4.3924    0.8564   -2.7544 C   0  0  0  0  0  0  0  0  0  0  0  0
   -5.6541    0.2605   -2.6853 C   0  0  0  0  0  0  0  0  0  0  0  0
   -5.9105   -0.7272   -1.7357 C   0  0  0  0  0  0  0  0  0  0  0  0
   -4.9136   -1.1223   -0.8387 C   0  0  0  0  0  0  0  0  0  0  0  0
   -3.6519   -0.5293   -0.8805 C   0  0  0  0  0  0  0  0  0  0  0  0
   -2.5871   -0.8564   -0.0138 N   0  0  0  0  0  0  0  0  0  0  0  0
   -2.5699   -1.7813    1.0050 C   0  0  0  0  0  0  0  0  0  0  0  0
   -3.5238   -2.4872    1.3229 O   0  0  0  0  0  0  0  0  0  0  0  0
   -1.3292   -1.9160    1.7449 C   0  0  0  0  0  0  0  0  0  0  0  0
   -1.2490   -2.8241    2.7851 N   0  0  0  0  0  0  0  0  0  0  0  0
   -0.0032   -2.7738    3.3259 C   0  0  0  0  0  0  0  0  0  0  0  0
    0.7441   -1.8920    2.7102 N   0  0  0  0  0  0  0  0  0  0  0  0
   -0.0626   -1.3422    1.7119 C   0  0  0  0  0  0  0  0  0  0  0  0
    0.4685   -0.3083    0.8206 C   0  0  0  0  0  0  0  0  0  0  0  0
   -0.1970    0.2354   -0.0552 O   0  0  0  0  0  0  0  0  0  0  0  0
    1.7832   -0.0153    1.0763 N   0  0  0  0  0  0  0  0  0  0  0  0
    2.5247    1.0109    0.3761 C   0  0  0  0  0  0  0  0  0  0  0  0
    2.1402    2.4092    0.8685 C   0  0  0  0  0  0  0  0  0  0  0  0
    4.0140    0.7469    0.5003 C   0  0  0  0  0  0  0  0  0  0  0  0
    4.7426    0.3181   -0.6205 C   0  0  0  0  0  0  0  0  0  0  0  0
    6.1110    0.0571   -0.5249 C   0  0  0  0  0  0  0  0  0  0  0  0
    6.7685    0.2147    0.6928 C   0  0  0  0  0  0  0  0  0  0  0  0
    6.0584    0.6293    1.8170 C   0  0  0  0  0  0  0  0  0  0  0  0
    4.6899    0.8908    1.7234 C   0  0  0  0  0  0  0  0  0  0  0  0
   -3.4034    0.4636   -1.8403 C   0  0  0  0  0  0  0  0  0  0  0  0
   -4.7271    1.8151   -4.6496 H   0  0  0  0  0  0  0  0  0  0  0  0
   -3.0675    1.9265   -4.0650 H   0  0  0  0  0  0  0  0  0  0  0  0
   -4.3382    2.9201   -3.3086 H   0  0  0  0  0  0  0  0  0  0  0  0
   -6.4443    0.5599   -3.3698 H   0  0  0  0  0  0  0  0  0  0  0  0
   -6.8916   -1.1930   -1.6883 H   0  0  0  0  0  0  0  0  0  0  0  0
   -5.1609   -1.8944   -0.1183 H   0  0  0  0  0  0  0  0  0  0  0  0
   -1.7307   -0.3299   -0.1765 H   0  0  0  0  0  0  0  0  0  0  0  0
   -2.0146   -3.4197    3.0759 H   0  0  0  0  0  0  0  0  0  0  0  0
    0.2984   -3.3970    4.1578 H   0  0  0  0  0  0  0  0  0  0  0  0
    2.2129   -0.5272    1.8430 H   0  0  0  0  0  0  0  0  0  0  0  0
    2.2371    0.9539   -0.6818 H   0  0  0  0  0  0  0  0  0  0  0  0
    1.0821    2.6142    0.6721 H   0  0  0  0  0  0  0  0  0  0  0  0
    2.7309    3.1805    0.3621 H   0  0  0  0  0  0  0  0  0  0  0  0
    2.2917    2.5201    1.9479 H   0  0  0  0  0  0  0  0  0  0  0  0
    4.2471    0.1809   -1.5795 H   0  0  0  0  0  0  0  0  0  0  0  0
    6.6629   -0.2726   -1.4014 H   0  0  0  0  0  0  0  0  0  0  0  0
    7.8333    0.0099    0.7667 H   0  0  0  0  0  0  0  0  0  0  0  0
    6.5693    0.7461    2.7692 H   0  0  0  0  0  0  0  0  0  0  0  0
    4.1545    1.2034    2.6171 H   0  0  0  0  0  0  0  0  0  0  0  0
   -2.4263    0.9424   -1.8829 H   0  0  0  0  0  0  0  0  0  0  0  0
  1  2  1  0
  2  3  2  0
  3  4  1  0
  4  5  2  0
  5  6  1  0
  6  7  1  0
  7  8  1  0
  8  9  2  0
  8 10  1  0
 10 11  1  0
 11 12  1  0
 12 13  2  0
 13 14  1  0
 14 15  1  0
 15 16  2  0
 15 17  1  0
 17 18  1  0
 18 19  1  0
 18 20  1  0
 20 21  2  0
 21 22  1  0
 22 23  2  0
 23 24  1  0
 24 25  2  0
  6 26  2  0
 26  2  1  0
 14 10  2  0
 25 20  1  0
  1 27  1  0
  1 28  1  0
  1 29  1  0
  3 30  1  0
  4 31  1  0
  5 32  1  0
  7 33  1  0
 11 34  1  0
 12 35  1  0
 17 36  1  0
 18 37  1  0
 19 38  1  0
 19 39  1  0
 19 40  1  0
 21 41  1  0
 22 42  1  0
 23 43  1  0
 24 44  1  0
 25 45  1  0
 26 46  1  0
M  END
$$$$
