
     RDKit          3D

 29 31  0  0  0  0  0  0  0  0999 V2000
    0.9116   -0.9748    3.1553 O   0  0  0  0  0  0  0  0  0  0  0  0
    0.5971   -0.6306    2.0203 C   0  0  0  0  0  0  0  0  0  0  0  0
   -0.6966   -0.4183    1.5722 N   0  0  0  0  0  0  0  0  0  0  0  0
   -1.7457   -0.6086    2.4125 N   0  0  0  0  0  0  0  0  0  0  0  0
   -2.9623   -0.3493    2.0287 C   0  0  0  0  0  0  0  0  0  0  0  0
   -3.5043    0.1579    0.7801 C   0  0  0  0  0  0  0  0  0  0  0  0
   -4.8536    0.2962    0.4957 C   0  0  0  0  0  0  0  0  0  0  0  0
   -5.0967    0.8263   -0.8045 C   0  0  0  0  0  0  0  0  0  0  0  0
   -3.9253    1.0836   -1.4769 C   0  0  0  0  0  0  0  0  0  0  0  0
   -2.5552    0.6880   -0.5398 S   0  0  0  0  0  0  0  0  0  0  0  0
    1.6691   -0.3732    1.0187 C   0  0  0  0  0  0  0  0  0  0  0  0
    2.9202    0.0884    1.4878 C   0  0  0  0  0  0  0  0  0  0  0  0
    3.9669    0.3495    0.5977 C   0  0  0  0  0  0  0  0  0  0  0  0
    3.7338    0.1305   -0.7421 C   0  0  0  0  0  0  0  0  0  0  0  0
    2.5225   -0.3335   -1.2010 C   0  0  0  0  0  0  0  0  0  0  0  0
    1.4698   -0.6013   -0.3507 C   0  0  0  0  0  0  0  0  0  0  0  0
    2.5071   -0.4928   -2.5519 O   0  0  0  0  0  0  0  0  0  0  0  0
    3.8492   -0.0822   -2.8901 C   0  0  0  0  0  0  0  0  0  0  0  0
    4.6289    0.3242   -1.7466 O   0  0  0  0  0  0  0  0  0  0  0  0
   -0.8763   -0.0155    0.6598 H   0  0  0  0  0  0  0  0  0  0  0  0
   -3.7276   -0.5600    2.7977 H   0  0  0  0  0  0  0  0  0  0  0  0
   -5.6401    0.0259    1.1916 H   0  0  0  0  0  0  0  0  0  0  0  0
   -6.0792    1.0100   -1.2228 H   0  0  0  0  0  0  0  0  0  0  0  0
   -3.8088    1.4875   -2.4738 H   0  0  0  0  0  0  0  0  0  0  0  0
    3.0725    0.2440    2.5553 H   0  0  0  0  0  0  0  0  0  0  0  0
    4.9283    0.7060    0.9500 H   0  0  0  0  0  0  0  0  0  0  0  0
    0.5450   -1.0015   -0.7482 H   0  0  0  0  0  0  0  0  0  0  0  0
    4.3580   -0.9187   -3.3830 H   0  0  0  0  0  0  0  0  0  0  0  0
    3.7918    0.7578   -3.5919 H   0  0  0  0  0  0  0  0  0  0  0  0
  1  2  2  0
  2  3  1  0
  3  4  1  0
  4  5  2  3
  5  6  1  0
  6  7  2  0
  7  8  1  0
  8  9  2  0
  9 10  1  0
  2 11  1  0
 11 12  2  0
 12 13  1  0
 13 14  2  0
 14 15  1  0
 15 16  2  0
 15 17  1  0
 17 18  1  0
 18 19  1  0
 10  6  1  0
 16 11  1  0
 19 14  1  0
  3 20  1  0
  5 21  1  0
  7 22  1  0
  8 23  1  0
  9 24  1  0
 12 25  1  0
 13 26  1  0
 16 27  1  0
 18 28  1  0
 18 29  1  0
M  END
$$$$
