
     RDKit          3D

 46 47  0  0  0  0  0  0  0  0999 V2000
    0.1402   -0.7003    2.2384 O   0  0  0  0  0  0  0  0  0  0  0  0
    0.3548   -0.0076    1.2532 C   0  0  0  0  0  0  0  0  0  0  0  0
   -0.5949    0.5882    0.4554 N   0  0  0  0  0  0  0  0  0  0  0  0
   -2.0162    0.4374    0.6808 C   0  0  0  0  0  0  0  0  0  0  0  0
   -2.5409   -0.8708    0.0929 C   0  0  0  0  0  0  0  0  0  0  0  0
   -4.0334   -1.0833    0.3754 C   0  0  0  0  0  0  0  0  0  0  0  0
   -4.9014   -0.0347   -0.1804 N   0  0  0  0  0  0  0  0  0  0  0  0
   -4.8537   -0.0010   -1.6611 C   0  0  0  0  0  0  0  0  0  0  0  0
   -6.1264    0.6095   -2.2676 C   0  0  0  0  0  0  0  0  0  0  0  0
   -7.2979   -0.1676   -1.9845 O   0  0  0  0  0  0  0  0  0  0  0  0
   -7.2203   -0.8658   -0.7343 C   0  0  0  0  0  0  0  0  0  0  0  0
   -6.2999   -0.1787    0.2865 C   0  0  0  0  0  0  0  0  0  0  0  0
    1.8060    0.2613    0.8046 C   0  0  0  0  0  0  0  0  0  0  0  0
    2.0067    0.9604   -0.1799 O   0  0  0  0  0  0  0  0  0  0  0  0
    2.7232   -0.3552    1.6412 N   0  0  0  0  0  0  0  0  0  0  0  0
    4.0851   -0.2086    1.6295 N   0  0  0  0  0  0  0  0  0  0  0  0
    4.6727    0.0981    0.5144 C   0  0  0  0  0  0  0  0  0  0  0  0
    6.1359    0.3107    0.4566 C   0  0  0  0  0  0  0  0  0  0  0  0
    6.7018    0.6376   -0.7814 C   0  0  0  0  0  0  0  0  0  0  0  0
    8.0792    0.8464   -0.8846 C   0  0  0  0  0  0  0  0  0  0  0  0
    8.8909    0.7298    0.2445 C   0  0  0  0  0  0  0  0  0  0  0  0
    8.3292    0.4052    1.4799 C   0  0  0  0  0  0  0  0  0  0  0  0
    6.9562    0.1969    1.5854 C   0  0  0  0  0  0  0  0  0  0  0  0
    6.4794   -0.1169    2.8289 O   0  0  0  0  0  0  0  0  0  0  0  0
   -0.2570    1.1148   -0.3464 H   0  0  0  0  0  0  0  0  0  0  0  0
   -2.2025    0.4713    1.7601 H   0  0  0  0  0  0  0  0  0  0  0  0
   -2.5027    1.3026    0.2200 H   0  0  0  0  0  0  0  0  0  0  0  0
   -2.3392   -0.9047   -0.9846 H   0  0  0  0  0  0  0  0  0  0  0  0
   -1.9870   -1.7135    0.5262 H   0  0  0  0  0  0  0  0  0  0  0  0
   -4.1558   -1.1115    1.4660 H   0  0  0  0  0  0  0  0  0  0  0  0
   -4.3342   -2.0705    0.0016 H   0  0  0  0  0  0  0  0  0  0  0  0
   -3.9857    0.5862   -1.9798 H   0  0  0  0  0  0  0  0  0  0  0  0
   -4.7432   -1.0169   -2.0625 H   0  0  0  0  0  0  0  0  0  0  0  0
   -6.2890    1.6283   -1.8968 H   0  0  0  0  0  0  0  0  0  0  0  0
   -6.0314    0.6720   -3.3565 H   0  0  0  0  0  0  0  0  0  0  0  0
   -6.8808   -1.8884   -0.9357 H   0  0  0  0  0  0  0  0  0  0  0  0
   -8.2377   -0.9343   -0.3359 H   0  0  0  0  0  0  0  0  0  0  0  0
   -6.3547   -0.6966    1.2512 H   0  0  0  0  0  0  0  0  0  0  0  0
   -6.6801    0.8354    0.4641 H   0  0  0  0  0  0  0  0  0  0  0  0
    2.3342   -0.7730    2.4886 H   0  0  0  0  0  0  0  0  0  0  0  0
    4.1383    0.1896   -0.4450 H   0  0  0  0  0  0  0  0  0  0  0  0
    6.0828    0.7347   -1.6698 H   0  0  0  0  0  0  0  0  0  0  0  0
    8.5207    1.1011   -1.8452 H   0  0  0  0  0  0  0  0  0  0  0  0
    9.9630    0.8927    0.1643 H   0  0  0  0  0  0  0  0  0  0  0  0
    8.9594    0.3149    2.3606 H   0  0  0  0  0  0  0  0  0  0  0  0
    5.5068   -0.2252    2.7475 H   0  0  0  0  0  0  0  0  0  0  0  0
  1  2  2  0
  2  3  1  0
  3  4  1  0
  4  5  1  0
  5  6  1  0
  6  7  1  0
  7  8  1  0
  8  9  1  0
  9 10  1  0
 10 11  1  0
 11 12  1  0
  2 13  1  0
 13 14  2  0
 13 15  1  0
 15 16  1  0
 16 17  2  3
 17 18  1  0
 18 19  2  0
 19 20  1  0
 20 21  2  0
 21 22  1  0
 22 23  2  0
 23 24  1  0
 12  7  1  0
 23 18  1  0
  3 25  1  0
  4 26  1  0
  4 27  1  0
  5 28  1  0
  5 29  1  0
  6 30  1  0
  6 31  1  0
  8 32  1  0
  8 33  1  0
  9 34  1  0
  9 35  1  0
 11 36  1  0
 11 37  1  0
 12 38  1  0
 12 39  1  0
 15 40  1  0
 17 41  1  0
 19 42  1  0
 20 43  1  0
 21 44  1  0
 22 45  1  0
 24 46  1  0
M  END
$$$$
