
     RDKit          3D

 55 58  0  0  0  0  0  0  0  0999 V2000
    0.5618   -2.0778    6.9325 N   0  0  0  0  0  0  0  0  0  0  0  0
    0.3659   -1.1105    5.9803 C   0  0  0  0  0  0  0  0  0  0  0  0
   -0.4832   -0.2357    6.1408 O   0  0  0  0  0  0  0  0  0  0  0  0
    1.2506   -1.2043    4.8040 C   0  0  0  0  0  0  0  0  0  0  0  0
    2.1663   -2.1873    4.7417 N   0  0  0  0  0  0  0  0  0  0  0  0
    3.0671   -2.0009    3.3669 S   0  0  0  0  0  0  0  0  0  0  0  0
    2.1774   -0.6900    2.7338 C   0  0  0  0  0  0  0  0  0  0  0  0
    2.5686   -0.1428    1.4560 C   0  0  0  0  0  0  0  0  0  0  0  0
    3.6704    0.4030    1.3405 O   0  0  0  0  0  0  0  0  0  0  0  0
    1.7057   -0.3243    0.3481 N   0  0  0  0  0  0  0  0  0  0  0  0
    1.9450    0.4661   -0.8343 C   0  0  0  0  0  0  0  0  0  0  0  0
    1.8413   -0.0866   -2.1159 C   0  0  0  0  0  0  0  0  0  0  0  0
    2.0095    0.7054   -3.2578 C   0  0  0  0  0  0  0  0  0  0  0  0
    2.2837    2.0628   -3.1318 C   0  0  0  0  0  0  0  0  0  0  0  0
    2.4004    2.6265   -1.8659 C   0  0  0  0  0  0  0  0  0  0  0  0
    2.2393    1.8322   -0.7269 C   0  0  0  0  0  0  0  0  0  0  0  0
    0.3582   -0.9475    0.4738 C   0  0  0  0  0  0  0  0  0  0  0  0
   -0.7552    0.1341    0.4075 C   0  0  0  0  0  0  0  0  0  0  0  0
   -0.5981    1.2351    0.9511 O   0  0  0  0  0  0  0  0  0  0  0  0
   -1.9556   -0.2017   -0.1782 N   0  0  0  0  0  0  0  0  0  0  0  0
   -2.9901    0.7825   -0.3964 C   0  0  0  0  0  0  0  0  0  0  0  0
   -2.8485    1.4263   -1.7521 C   0  0  0  0  0  0  0  0  0  0  0  0
   -1.9217    2.4646   -1.9462 C   0  0  0  0  0  0  0  0  0  0  0  0
   -1.7790    3.0609   -3.1983 C   0  0  0  0  0  0  0  0  0  0  0  0
   -2.5604    2.6200   -4.2594 C   0  0  0  0  0  0  0  0  0  0  0  0
   -2.4363    3.2073   -5.4578 F   0  0  0  0  0  0  0  0  0  0  0  0
   -3.4726    1.5840   -4.0942 C   0  0  0  0  0  0  0  0  0  0  0  0
   -3.6145    0.9820   -2.8419 C   0  0  0  0  0  0  0  0  0  0  0  0
    0.1962   -2.1642   -0.3908 C   0  0  0  0  0  0  0  0  0  0  0  0
    0.6792   -3.4555   -0.2649 C   0  0  0  0  0  0  0  0  0  0  0  0
    0.1609   -4.1920   -1.3576 C   0  0  0  0  0  0  0  0  0  0  0  0
   -0.5885   -3.3065   -2.0968 C   0  0  0  0  0  0  0  0  0  0  0  0
   -0.5864   -2.0814   -1.5127 O   0  0  0  0  0  0  0  0  0  0  0  0
    1.2209   -0.3209    3.6567 C   0  0  0  0  0  0  0  0  0  0  0  0
    0.3664    0.7166    3.5141 N   0  0  0  0  0  0  0  0  0  0  0  0
    1.3777   -2.6775    6.8557 H   0  0  0  0  0  0  0  0  0  0  0  0
    0.0992   -1.9691    7.8238 H   0  0  0  0  0  0  0  0  0  0  0  0
    1.6806   -1.1462   -2.2611 H   0  0  0  0  0  0  0  0  0  0  0  0
    1.9325    0.2563   -4.2460 H   0  0  0  0  0  0  0  0  0  0  0  0
    2.4074    2.6789   -4.0199 H   0  0  0  0  0  0  0  0  0  0  0  0
    2.6087    3.6866   -1.7604 H   0  0  0  0  0  0  0  0  0  0  0  0
    2.3052    2.3094    0.2488 H   0  0  0  0  0  0  0  0  0  0  0  0
    0.2357   -1.3521    1.4825 H   0  0  0  0  0  0  0  0  0  0  0  0
   -1.9449   -0.9944   -0.8133 H   0  0  0  0  0  0  0  0  0  0  0  0
   -3.9519    0.2637   -0.3194 H   0  0  0  0  0  0  0  0  0  0  0  0
   -2.9712    1.5457    0.3880 H   0  0  0  0  0  0  0  0  0  0  0  0
   -1.3039    2.8117   -1.1190 H   0  0  0  0  0  0  0  0  0  0  0  0
   -1.0661    3.8650   -3.3490 H   0  0  0  0  0  0  0  0  0  0  0  0
   -4.0681    1.2568   -4.9396 H   0  0  0  0  0  0  0  0  0  0  0  0
   -4.3299    0.1714   -2.7202 H   0  0  0  0  0  0  0  0  0  0  0  0
    1.3180   -3.8209    0.5257 H   0  0  0  0  0  0  0  0  0  0  0  0
    0.3214   -5.2372   -1.5858 H   0  0  0  0  0  0  0  0  0  0  0  0
   -1.1700   -3.3932   -3.0028 H   0  0  0  0  0  0  0  0  0  0  0  0
    0.2263    1.2515    2.6540 H   0  0  0  0  0  0  0  0  0  0  0  0
   -0.3517    0.9139    4.2190 H   0  0  0  0  0  0  0  0  0  0  0  0
  1  2  1  0
  2  3  2  0
  2  4  1  0
  4  5  2  0
  5  6  1  0
  6  7  1  0
  7  8  1  0
  8  9  2  0
  8 10  1  0
 10 11  1  0
 11 12  2  0
 12 13  1  0
 13 14  2  0
 14 15  1  0
 15 16  2  0
 10 17  1  0
 17 18  1  0
 18 19  2  0
 18 20  1  0
 20 21  1  0
 21 22  1  0
 22 23  2  0
 23 24  1  0
 24 25  2  0
 25 26  1  0
 25 27  1  0
 27 28  2  0
 17 29  1  0
 29 30  2  0
 30 31  1  0
 31 32  2  0
 32 33  1  0
  7 34  2  0
 34 35  1  0
 34  4  1  0
 16 11  1  0
 28 22  1  0
 33 29  1  0
  1 36  1  0
  1 37  1  0
 12 38  1  0
 13 39  1  0
 14 40  1  0
 15 41  1  0
 16 42  1  0
 17 43  1  0
 20 44  1  0
 21 45  1  0
 21 46  1  0
 23 47  1  0
 24 48  1  0
 27 49  1  0
 28 50  1  0
 30 51  1  0
 31 52  1  0
 32 53  1  0
 35 54  1  0
 35 55  1  0
M  END
$$$$
