
     RDKit          3D

 48 50  0  0  0  0  0  0  0  0999 V2000
   -2.4184   -0.9592   -0.3505 O   0  0  0  0  0  0  0  0  0  0  0  0
   -1.9679   -0.8841   -1.4911 C   0  0  0  0  0  0  0  0  0  0  0  0
   -0.6049   -1.3960   -1.9076 C   0  0  0  0  0  0  0  0  0  0  0  0
    0.1654   -1.9890   -0.7310 C   0  0  0  0  0  0  0  0  0  0  0  0
    1.5336   -2.5128   -1.1705 C   0  0  0  0  0  0  0  0  0  0  0  0
    2.2919   -3.0521   -0.0416 N   0  0  0  0  0  0  0  0  0  0  0  0
    3.0548   -2.1767    0.7169 C   0  0  0  0  0  0  0  0  0  0  0  0
    3.1444   -0.9726    0.5220 O   0  0  0  0  0  0  0  0  0  0  0  0
    3.7318   -2.9086    1.8250 C   0  0  0  0  0  0  0  0  0  0  0  0
    4.5900   -2.4144    2.7282 C   0  0  0  0  0  0  0  0  0  0  0  0
    5.0547   -1.0227    2.7821 C   0  0  0  0  0  0  0  0  0  0  0  0
    4.4361   -0.1537    3.6924 C   0  0  0  0  0  0  0  0  0  0  0  0
    4.8393    1.1806    3.7844 C   0  0  0  0  0  0  0  0  0  0  0  0
    5.8644    1.6590    2.9705 C   0  0  0  0  0  0  0  0  0  0  0  0
    6.4894    0.8040    2.0625 C   0  0  0  0  0  0  0  0  0  0  0  0
    6.0885   -0.5318    1.9671 C   0  0  0  0  0  0  0  0  0  0  0  0
    6.9141   -1.5465    0.8341 Cl  0  0  0  0  0  0  0  0  0  0  0  0
    3.2589   -4.5666    1.8039 S   0  0  0  0  0  0  0  0  0  0  0  0
    2.2463   -4.3636    0.3811 C   0  0  0  0  0  0  0  0  0  0  0  0
    1.3945   -5.6336   -0.2866 S   0  0  0  0  0  0  0  0  0  0  0  0
   -2.6789   -0.3269   -2.5382 N   0  0  0  0  0  0  0  0  0  0  0  0
   -3.8411    0.3938   -2.1961 N   0  0  0  0  0  0  0  0  0  0  0  0
   -4.0005    1.6277   -2.8008 C   0  0  0  0  0  0  0  0  0  0  0  0
   -3.2781    2.0066   -3.7202 O   0  0  0  0  0  0  0  0  0  0  0  0
   -5.0750    2.5055   -2.2590 C   0  0  0  0  0  0  0  0  0  0  0  0
   -6.1666    1.9969   -1.5410 C   0  0  0  0  0  0  0  0  0  0  0  0
   -7.1515    2.8648   -1.0570 C   0  0  0  0  0  0  0  0  0  0  0  0
   -7.0507    4.2353   -1.2949 C   0  0  0  0  0  0  0  0  0  0  0  0
   -8.2648    5.2971   -0.6979 Cl  0  0  0  0  0  0  0  0  0  0  0  0
   -5.9761    4.7485   -2.0182 C   0  0  0  0  0  0  0  0  0  0  0  0
   -4.9910    3.8840   -2.5035 C   0  0  0  0  0  0  0  0  0  0  0  0
   -0.0409   -0.5617   -2.3408 H   0  0  0  0  0  0  0  0  0  0  0  0
   -0.7474   -2.1563   -2.6843 H   0  0  0  0  0  0  0  0  0  0  0  0
    0.2901   -1.2279    0.0495 H   0  0  0  0  0  0  0  0  0  0  0  0
   -0.4171   -2.7989   -0.2750 H   0  0  0  0  0  0  0  0  0  0  0  0
    2.1110   -1.6973   -1.6229 H   0  0  0  0  0  0  0  0  0  0  0  0
    1.4155   -3.2822   -1.9402 H   0  0  0  0  0  0  0  0  0  0  0  0
    5.0184   -3.0573    3.4939 H   0  0  0  0  0  0  0  0  0  0  0  0
    3.6290   -0.5061    4.3313 H   0  0  0  0  0  0  0  0  0  0  0  0
    4.3478    1.8485    4.4880 H   0  0  0  0  0  0  0  0  0  0  0  0
    6.1742    2.6988    3.0399 H   0  0  0  0  0  0  0  0  0  0  0  0
    7.2867    1.1848    1.4295 H   0  0  0  0  0  0  0  0  0  0  0  0
   -2.1883    0.0316   -3.3591 H   0  0  0  0  0  0  0  0  0  0  0  0
   -4.1750    0.2294   -1.2462 H   0  0  0  0  0  0  0  0  0  0  0  0
   -6.2846    0.9308   -1.3666 H   0  0  0  0  0  0  0  0  0  0  0  0
   -7.9974    2.4655   -0.5024 H   0  0  0  0  0  0  0  0  0  0  0  0
   -5.8992    5.8155   -2.2109 H   0  0  0  0  0  0  0  0  0  0  0  0
   -4.1555    4.2901   -3.0717 H   0  0  0  0  0  0  0  0  0  0  0  0
  1  2  2  0
  2  3  1  0
  3  4  1  0
  4  5  1  0
  5  6  1  0
  6  7  1  0
  7  8  2  0
  7  9  1  0
  9 10  2  3
 10 11  1  0
 11 12  2  0
 12 13  1  0
 13 14  2  0
 14 15  1  0
 15 16  2  0
 16 17  1  0
  9 18  1  0
 18 19  1  0
 19 20  2  0
  2 21  1  0
 21 22  1  0
 22 23  1  0
 23 24  2  0
 23 25  1  0
 25 26  2  0
 26 27  1  0
 27 28  2  0
 28 29  1  0
 28 30  1  0
 30 31  2  0
 19  6  1  0
 31 25  1  0
 16 11  1  0
  3 32  1  0
  3 33  1  0
  4 34  1  0
  4 35  1  0
  5 36  1  0
  5 37  1  0
 10 38  1  0
 12 39  1  0
 13 40  1  0
 14 41  1  0
 15 42  1  0
 21 43  1  0
 22 44  1  0
 26 45  1  0
 27 46  1  0
 30 47  1  0
 31 48  1  0
M  END
$$$$
