
     RDKit          3D

 37 38  0  0  0  0  0  0  0  0999 V2000
   -4.3433   -0.5321    1.2455 C   0  0  0  0  0  0  0  0  0  0  0  0
   -3.8320    0.4088    0.1579 C   0  0  0  0  0  0  0  0  0  0  0  0
   -5.0011    1.2265   -0.4116 C   0  0  0  0  0  0  0  0  0  0  0  0
   -2.9785   -0.2396   -0.9676 C   0  0  0  0  0  0  0  0  0  0  0  0
   -3.5696   -1.3167   -1.8807 C   0  0  0  0  0  0  0  0  0  0  0  0
   -2.9482   -1.9250   -2.7415 O   0  0  0  0  0  0  0  0  0  0  0  0
   -4.8803   -1.5569   -1.7161 O   0  0  0  0  0  0  0  0  0  0  0  0
   -1.6000   -0.5910   -0.5416 N   0  0  0  0  0  0  0  0  0  0  0  0
   -0.6227    0.3819   -0.6955 C   0  0  0  0  0  0  0  0  0  0  0  0
   -0.7904    1.5034   -1.1569 O   0  0  0  0  0  0  0  0  0  0  0  0
    0.6872   -0.0963   -0.1830 C   0  0  0  0  0  0  0  0  0  0  0  0
    1.7929    0.6582   -0.2583 C   0  0  0  0  0  0  0  0  0  0  0  0
    3.1189    0.2990    0.2114 C   0  0  0  0  0  0  0  0  0  0  0  0
    4.1704    1.1250    0.0972 C   0  0  0  0  0  0  0  0  0  0  0  0
    5.4762    0.7873    0.5523 C   0  0  0  0  0  0  0  0  0  0  0  0
    5.9794   -0.3585    1.1628 C   0  0  0  0  0  0  0  0  0  0  0  0
    7.3600   -0.1593    1.4052 C   0  0  0  0  0  0  0  0  0  0  0  0
    7.6431    1.0956    0.9346 C   0  0  0  0  0  0  0  0  0  0  0  0
    6.5288    1.6702    0.4239 O   0  0  0  0  0  0  0  0  0  0  0  0
    0.5182   -1.6647    0.4823 S   0  0  0  0  0  0  0  0  0  0  0  0
   -1.1983   -1.7551    0.0872 C   0  0  0  0  0  0  0  0  0  0  0  0
   -2.0734   -3.1294    0.4507 S   0  0  0  0  0  0  0  0  0  0  0  0
   -5.0031    0.0026    1.9385 H   0  0  0  0  0  0  0  0  0  0  0  0
   -4.9120   -1.3713    0.8370 H   0  0  0  0  0  0  0  0  0  0  0  0
   -3.5178   -0.9193    1.8473 H   0  0  0  0  0  0  0  0  0  0  0  0
   -3.1843    1.1379    0.6658 H   0  0  0  0  0  0  0  0  0  0  0  0
   -4.6550    1.9275   -1.1784 H   0  0  0  0  0  0  0  0  0  0  0  0
   -5.4742    1.8183    0.3801 H   0  0  0  0  0  0  0  0  0  0  0  0
   -5.7755    0.5923   -0.8513 H   0  0  0  0  0  0  0  0  0  0  0  0
   -2.8531    0.5776   -1.6948 H   0  0  0  0  0  0  0  0  0  0  0  0
   -5.0780   -2.2727   -2.3577 H   0  0  0  0  0  0  0  0  0  0  0  0
    1.7063    1.6446   -0.7169 H   0  0  0  0  0  0  0  0  0  0  0  0
    3.2376   -0.6802    0.6676 H   0  0  0  0  0  0  0  0  0  0  0  0
    4.0615    2.1062   -0.3573 H   0  0  0  0  0  0  0  0  0  0  0  0
    5.4120   -1.2454    1.4074 H   0  0  0  0  0  0  0  0  0  0  0  0
    8.0573   -0.8453    1.8643 H   0  0  0  0  0  0  0  0  0  0  0  0
    8.5410    1.6959    0.8902 H   0  0  0  0  0  0  0  0  0  0  0  0
  1  2  1  0
  2  3  1  0
  2  4  1  0
  4  5  1  0
  5  6  2  0
  5  7  1  0
  4  8  1  0
  8  9  1  0
  9 10  2  0
  9 11  1  0
 11 12  2  3
 12 13  1  0
 13 14  2  3
 14 15  1  0
 15 16  2  0
 16 17  1  0
 17 18  2  0
 18 19  1  0
 11 20  1  0
 20 21  1  0
 21 22  2  0
 21  8  1  0
 19 15  1  0
  1 23  1  0
  1 24  1  0
  1 25  1  0
  2 26  1  0
  3 27  1  0
  3 28  1  0
  3 29  1  0
  4 30  1  0
  7 31  1  0
 12 32  1  0
 13 33  1  0
 14 34  1  0
 16 35  1  0
 17 36  1  0
 18 37  1  0
M  END
$$$$
