
     RDKit          3D

 52 56  0  0  0  0  0  0  0  0999 V2000
   -6.1398    3.3428    0.0244 C   0  0  0  0  0  0  0  0  0  0  0  0
   -5.0804    2.2969    0.2070 C   0  0  0  0  0  0  0  0  0  0  0  0
   -4.5225    1.6513   -0.9010 C   0  0  0  0  0  0  0  0  0  0  0  0
   -3.5111    0.6997   -0.7347 C   0  0  0  0  0  0  0  0  0  0  0  0
   -3.0371    0.3759    0.5420 C   0  0  0  0  0  0  0  0  0  0  0  0
   -1.9980   -0.5681    0.7739 N   0  0  0  0  0  0  0  0  0  0  0  0
   -1.6245   -1.5318   -0.1236 C   0  0  0  0  0  0  0  0  0  0  0  0
   -0.3935   -1.8687   -0.6653 C   0  0  0  0  0  0  0  0  0  0  0  0
    0.8773   -1.2312   -0.3789 C   0  0  0  0  0  0  0  0  0  0  0  0
    1.7162   -0.8594   -1.4284 C   0  0  0  0  0  0  0  0  0  0  0  0
    2.9477   -0.2403   -1.1705 C   0  0  0  0  0  0  0  0  0  0  0  0
    3.3935    0.0195    0.1352 C   0  0  0  0  0  0  0  0  0  0  0  0
    4.6078    0.6327    0.3828 N   0  0  0  0  0  0  0  0  0  0  0  0
    4.9260    1.2544    1.6772 C   0  0  0  0  0  0  0  0  0  0  0  0
    5.9953    2.3441    1.4884 C   0  0  0  0  0  0  0  0  0  0  0  0
    7.2268    1.8660    0.9296 O   0  0  0  0  0  0  0  0  0  0  0  0
    7.0576    0.7175    0.0867 C   0  0  0  0  0  0  0  0  0  0  0  0
    5.6903    0.6478   -0.6152 C   0  0  0  0  0  0  0  0  0  0  0  0
    2.5389   -0.3816    1.1747 C   0  0  0  0  0  0  0  0  0  0  0  0
    1.3048   -1.0022    0.9291 C   0  0  0  0  0  0  0  0  0  0  0  0
   -0.5154   -2.8671   -1.6012 N   0  0  0  0  0  0  0  0  0  0  0  0
   -1.7809   -3.2274   -1.5856 C   0  0  0  0  0  0  0  0  0  0  0  0
   -2.3923   -4.2071   -2.3174 N   0  0  0  0  0  0  0  0  0  0  0  0
   -3.6474   -4.4118   -2.0631 C   0  0  0  0  0  0  0  0  0  0  0  0
   -4.4799   -3.6883   -1.0645 C   0  0  0  0  0  0  0  0  0  0  0  0
   -3.8426   -2.7204   -0.3937 C   0  0  0  0  0  0  0  0  0  0  0  0
   -2.4978   -2.4680   -0.6579 N   0  0  0  0  0  0  0  0  0  0  0  0
   -3.5772    1.0485    1.6453 C   0  0  0  0  0  0  0  0  0  0  0  0
   -4.5890    1.9989    1.4817 C   0  0  0  0  0  0  0  0  0  0  0  0
   -5.6767    4.3254   -0.1081 H   0  0  0  0  0  0  0  0  0  0  0  0
   -6.8061    3.3794    0.8927 H   0  0  0  0  0  0  0  0  0  0  0  0
   -6.7595    3.1220   -0.8510 H   0  0  0  0  0  0  0  0  0  0  0  0
   -4.8644    1.8897   -1.9059 H   0  0  0  0  0  0  0  0  0  0  0  0
   -3.0858    0.2354   -1.6207 H   0  0  0  0  0  0  0  0  0  0  0  0
   -1.2247   -0.0448    1.1909 H   0  0  0  0  0  0  0  0  0  0  0  0
    1.4165   -1.0461   -2.4578 H   0  0  0  0  0  0  0  0  0  0  0  0
    3.5457    0.0521   -2.0289 H   0  0  0  0  0  0  0  0  0  0  0  0
    4.0403    1.7256    2.1186 H   0  0  0  0  0  0  0  0  0  0  0  0
    5.2960    0.4832    2.3628 H   0  0  0  0  0  0  0  0  0  0  0  0
    5.6182    3.1335    0.8274 H   0  0  0  0  0  0  0  0  0  0  0  0
    6.2307    2.8103    2.4504 H   0  0  0  0  0  0  0  0  0  0  0  0
    7.2092   -0.1729    0.7086 H   0  0  0  0  0  0  0  0  0  0  0  0
    7.8610    0.7351   -0.6567 H   0  0  0  0  0  0  0  0  0  0  0  0
    5.5599    1.5206   -1.2655 H   0  0  0  0  0  0  0  0  0  0  0  0
    5.6780   -0.2580   -1.2321 H   0  0  0  0  0  0  0  0  0  0  0  0
    2.8337   -0.2495    2.2119 H   0  0  0  0  0  0  0  0  0  0  0  0
    0.7035   -1.3278    1.7739 H   0  0  0  0  0  0  0  0  0  0  0  0
   -4.1790   -5.1952   -2.6289 H   0  0  0  0  0  0  0  0  0  0  0  0
   -5.5170   -3.9556   -0.9259 H   0  0  0  0  0  0  0  0  0  0  0  0
   -4.3250   -2.1154    0.3629 H   0  0  0  0  0  0  0  0  0  0  0  0
   -3.2179    0.8254    2.6470 H   0  0  0  0  0  0  0  0  0  0  0  0
   -4.9896    2.5044    2.3575 H   0  0  0  0  0  0  0  0  0  0  0  0
  1  2  1  0
  2  3  2  0
  3  4  1  0
  4  5  2  0
  5  6  1  0
  6  7  1  0
  7  8  2  0
  8  9  1  0
  9 10  2  0
 10 11  1  0
 11 12  2  0
 12 13  1  0
 13 14  1  0
 14 15  1  0
 15 16  1  0
 16 17  1  0
 17 18  1  0
 12 19  1  0
 19 20  2  0
  8 21  1  0
 21 22  2  0
 22 23  1  0
 23 24  2  0
 24 25  1  0
 25 26  2  0
 26 27  1  0
  5 28  1  0
 28 29  2  0
 29  2  1  0
 27  7  1  0
 20  9  1  0
 27 22  1  0
 18 13  1  0
  1 30  1  0
  1 31  1  0
  1 32  1  0
  3 33  1  0
  4 34  1  0
  6 35  1  0
 10 36  1  0
 11 37  1  0
 14 38  1  0
 14 39  1  0
 15 40  1  0
 15 41  1  0
 17 42  1  0
 17 43  1  0
 18 44  1  0
 18 45  1  0
 19 46  1  0
 20 47  1  0
 24 48  1  0
 25 49  1  0
 26 50  1  0
 28 51  1  0
 29 52  1  0
M  END
$$$$
