
     RDKit          3D

 62 65  0  0  0  0  0  0  0  0999 V2000
   -5.9912   -1.5590   -2.8750 C   0  0  0  0  0  0  0  0  0  0  0  0
   -5.0868   -2.5000   -2.1010 C   0  0  0  0  0  0  0  0  0  0  0  0
   -3.7933   -1.8937   -2.0011 O   0  0  0  0  0  0  0  0  0  0  0  0
   -2.9250   -2.5561   -1.1931 C   0  0  0  0  0  0  0  0  0  0  0  0
   -3.1458   -3.5876   -0.5774 O   0  0  0  0  0  0  0  0  0  0  0  0
   -1.6379   -1.8344   -1.1706 C   0  0  0  0  0  0  0  0  0  0  0  0
   -0.8026   -2.0956   -2.2164 C   0  0  0  0  0  0  0  0  0  0  0  0
   -1.1056   -3.0716   -3.3343 C   0  0  0  0  0  0  0  0  0  0  0  0
    0.4493   -1.5160   -2.3800 N   0  0  0  0  0  0  0  0  0  0  0  0
    0.9050   -0.8436   -1.3798 C   0  0  0  0  0  0  0  0  0  0  0  0
    2.5337   -0.2366   -1.3356 S   0  0  0  0  0  0  0  0  0  0  0  0
    2.4654   -0.0675    0.4036 C   0  0  0  0  0  0  0  0  0  0  0  0
    3.5510    0.1663    1.1734 C   0  0  0  0  0  0  0  0  0  0  0  0
    3.4707    0.2201    2.5600 O   0  0  0  0  0  0  0  0  0  0  0  0
    4.9196    0.3421    0.6541 C   0  0  0  0  0  0  0  0  0  0  0  0
    5.8552   -0.6908    0.7906 C   0  0  0  0  0  0  0  0  0  0  0  0
    7.1657   -0.5302    0.3230 C   0  0  0  0  0  0  0  0  0  0  0  0
    7.5517    0.6653   -0.2839 C   0  0  0  0  0  0  0  0  0  0  0  0
    8.7911    0.9480   -0.7867 O   0  0  0  0  0  0  0  0  0  0  0  0
    9.7719   -0.0793   -0.6980 C   0  0  0  0  0  0  0  0  0  0  0  0
    6.6176    1.6994   -0.4141 C   0  0  0  0  0  0  0  0  0  0  0  0
    5.3104    1.5448    0.0544 C   0  0  0  0  0  0  0  0  0  0  0  0
    1.0770   -0.2533    0.8674 C   0  0  0  0  0  0  0  0  0  0  0  0
    0.7733   -0.1001    2.2097 N   0  0  0  0  0  0  0  0  0  0  0  0
    0.1979   -0.5661   -0.1121 C   0  0  0  0  0  0  0  0  0  0  0  0
   -1.2554   -0.8291   -0.1287 C   0  0  0  0  0  0  0  0  0  0  0  0
   -2.1483   -0.0879    0.6071 C   0  0  0  0  0  0  0  0  0  0  0  0
   -1.7654    1.2346    1.1681 C   0  0  0  0  0  0  0  0  0  0  0  0
   -2.6597    2.0493    1.7576 C   0  0  0  0  0  0  0  0  0  0  0  0
   -4.0604    1.6546    1.8911 C   0  0  0  0  0  0  0  0  0  0  0  0
   -4.9839    2.5032    2.4001 C   0  0  0  0  0  0  0  0  0  0  0  0
   -6.2895    2.1099    2.6033 O   0  0  0  0  0  0  0  0  0  0  0  0
   -4.6588    3.7776    2.8176 O   0  0  0  0  0  0  0  0  0  0  0  0
   -5.0394    4.7241    1.8159 C   0  0  0  0  0  0  0  0  0  0  0  0
   -4.4290    0.2994    1.4858 C   0  0  0  0  0  0  0  0  0  0  0  0
   -3.5377   -0.5103    0.8856 C   0  0  0  0  0  0  0  0  0  0  0  0
   -6.0563   -0.5877   -2.3678 H   0  0  0  0  0  0  0  0  0  0  0  0
   -6.9973   -1.9780   -2.9719 H   0  0  0  0  0  0  0  0  0  0  0  0
   -5.5887   -1.3687   -3.8786 H   0  0  0  0  0  0  0  0  0  0  0  0
   -4.9992   -3.4561   -2.6322 H   0  0  0  0  0  0  0  0  0  0  0  0
   -5.5023   -2.6689   -1.1009 H   0  0  0  0  0  0  0  0  0  0  0  0
   -2.0560   -3.5983   -3.2311 H   0  0  0  0  0  0  0  0  0  0  0  0
   -0.3208   -3.8353   -3.3833 H   0  0  0  0  0  0  0  0  0  0  0  0
   -1.1241   -2.5400   -4.2917 H   0  0  0  0  0  0  0  0  0  0  0  0
    4.3405    0.5184    2.8914 H   0  0  0  0  0  0  0  0  0  0  0  0
    5.5674   -1.6347    1.2490 H   0  0  0  0  0  0  0  0  0  0  0  0
    7.8540   -1.3608    0.4402 H   0  0  0  0  0  0  0  0  0  0  0  0
    9.4654   -0.9708   -1.2580 H   0  0  0  0  0  0  0  0  0  0  0  0
    9.9919   -0.3252    0.3475 H   0  0  0  0  0  0  0  0  0  0  0  0
   10.6928    0.2991   -1.1523 H   0  0  0  0  0  0  0  0  0  0  0  0
    6.9104    2.6318   -0.8928 H   0  0  0  0  0  0  0  0  0  0  0  0
    4.6018    2.3643   -0.0621 H   0  0  0  0  0  0  0  0  0  0  0  0
   -0.0258   -0.6446    2.5262 H   0  0  0  0  0  0  0  0  0  0  0  0
    1.5972   -0.1909    2.8131 H   0  0  0  0  0  0  0  0  0  0  0  0
   -0.7561    1.6157    1.0468 H   0  0  0  0  0  0  0  0  0  0  0  0
   -2.3452    3.0190    2.1294 H   0  0  0  0  0  0  0  0  0  0  0  0
   -6.6599    2.8049    3.1731 H   0  0  0  0  0  0  0  0  0  0  0  0
   -4.7249    5.7158    2.1508 H   0  0  0  0  0  0  0  0  0  0  0  0
   -6.1284    4.7381    1.6819 H   0  0  0  0  0  0  0  0  0  0  0  0
   -4.5450    4.5152    0.8603 H   0  0  0  0  0  0  0  0  0  0  0  0
   -5.4277   -0.0613    1.7135 H   0  0  0  0  0  0  0  0  0  0  0  0
   -3.8547   -1.5308    0.7190 H   0  0  0  0  0  0  0  0  0  0  0  0
  1  2  1  0
  2  3  1  0
  3  4  1  0
  4  5  2  0
  4  6  1  0
  6  7  2  0
  7  8  1  0
  7  9  1  0
  9 10  2  0
 10 11  1  0
 11 12  1  0
 12 13  2  3
 13 14  1  0
 13 15  1  0
 15 16  2  0
 16 17  1  0
 17 18  2  0
 18 19  1  0
 19 20  1  0
 18 21  1  0
 21 22  2  0
 12 23  1  0
 23 24  1  0
 23 25  2  0
 25 26  1  0
 26 27  2  3
 27 28  1  0
 28 29  2  0
 29 30  1  0
 30 31  2  3
 31 32  1  0
 31 33  1  0
 33 34  1  0
 30 35  1  0
 35 36  2  0
 26  6  1  0
 36 27  1  0
 25 10  1  0
 22 15  1  0
  1 37  1  0
  1 38  1  0
  1 39  1  0
  2 40  1  0
  2 41  1  0
  8 42  1  0
  8 43  1  0
  8 44  1  0
 14 45  1  0
 16 46  1  0
 17 47  1  0
 20 48  1  0
 20 49  1  0
 20 50  1  0
 21 51  1  0
 22 52  1  0
 24 53  1  0
 24 54  1  0
 28 55  1  0
 29 56  1  0
 32 57  1  0
 34 58  1  0
 34 59  1  0
 34 60  1  0
 35 61  1  0
 36 62  1  0
M  END
$$$$
