
     RDKit          3D

 36 37  0  0  0  0  0  0  0  0999 V2000
   -6.9043    0.5244   -0.5491 C   0  0  0  0  0  0  0  0  0  0  0  0
   -5.5655    0.3667    0.1296 C   0  0  0  0  0  0  0  0  0  0  0  0
   -5.4834   -0.1245    1.2507 O   0  0  0  0  0  0  0  0  0  0  0  0
   -4.5251    0.8111   -0.6673 N   0  0  0  0  0  0  0  0  0  0  0  0
   -3.1497    0.8083   -0.3634 C   0  0  0  0  0  0  0  0  0  0  0  0
   -2.6125    0.2958    0.8151 C   0  0  0  0  0  0  0  0  0  0  0  0
   -1.2291    0.3259    1.0389 C   0  0  0  0  0  0  0  0  0  0  0  0
   -0.3589    0.8716    0.0887 C   0  0  0  0  0  0  0  0  0  0  0  0
    1.0171    0.8634    0.3951 N   0  0  0  0  0  0  0  0  0  0  0  0
    2.0634    1.2974   -0.4051 C   0  0  0  0  0  0  0  0  0  0  0  0
    1.9755    1.7478   -1.5450 O   0  0  0  0  0  0  0  0  0  0  0  0
    3.4166    1.1695    0.2803 C   0  0  0  0  0  0  0  0  0  0  0  0
    3.9221   -0.2524    0.3212 C   0  0  0  0  0  0  0  0  0  0  0  0
    4.2713   -0.9071   -0.8718 C   0  0  0  0  0  0  0  0  0  0  0  0
    4.7424   -2.2192   -0.8450 C   0  0  0  0  0  0  0  0  0  0  0  0
    4.8635   -2.8764    0.3720 C   0  0  0  0  0  0  0  0  0  0  0  0
    5.3148   -4.1374    0.3997 F   0  0  0  0  0  0  0  0  0  0  0  0
    4.5176   -2.2486    1.5645 C   0  0  0  0  0  0  0  0  0  0  0  0
    4.0490   -0.9346    1.5415 C   0  0  0  0  0  0  0  0  0  0  0  0
   -0.8967    1.3882   -1.0888 C   0  0  0  0  0  0  0  0  0  0  0  0
   -2.2799    1.3542   -1.3130 C   0  0  0  0  0  0  0  0  0  0  0  0
   -7.0489   -0.2940   -1.2594 H   0  0  0  0  0  0  0  0  0  0  0  0
   -6.9624    1.4826   -1.0753 H   0  0  0  0  0  0  0  0  0  0  0  0
   -7.7002    0.4927    0.2006 H   0  0  0  0  0  0  0  0  0  0  0  0
   -4.7757    1.1866   -1.5713 H   0  0  0  0  0  0  0  0  0  0  0  0
   -3.2385   -0.1519    1.5797 H   0  0  0  0  0  0  0  0  0  0  0  0
   -0.8516   -0.0945    1.9698 H   0  0  0  0  0  0  0  0  0  0  0  0
    1.2697    0.4394    1.2791 H   0  0  0  0  0  0  0  0  0  0  0  0
    3.3406    1.5897    1.2917 H   0  0  0  0  0  0  0  0  0  0  0  0
    4.1410    1.7985   -0.2522 H   0  0  0  0  0  0  0  0  0  0  0  0
    4.1776   -0.3952   -1.8283 H   0  0  0  0  0  0  0  0  0  0  0  0
    5.0183   -2.7288   -1.7642 H   0  0  0  0  0  0  0  0  0  0  0  0
    4.6177   -2.7879    2.5014 H   0  0  0  0  0  0  0  0  0  0  0  0
    3.7900   -0.4524    2.4820 H   0  0  0  0  0  0  0  0  0  0  0  0
   -0.2691    1.8298   -1.8574 H   0  0  0  0  0  0  0  0  0  0  0  0
   -2.6569    1.7653   -2.2448 H   0  0  0  0  0  0  0  0  0  0  0  0
  1  2  1  0
  2  3  2  0
  2  4  1  0
  4  5  1  0
  5  6  2  0
  6  7  1  0
  7  8  2  0
  8  9  1  0
  9 10  1  0
 10 11  2  0
 10 12  1  0
 12 13  1  0
 13 14  2  0
 14 15  1  0
 15 16  2  0
 16 17  1  0
 16 18  1  0
 18 19  2  0
  8 20  1  0
 20 21  2  0
 21  5  1  0
 19 13  1  0
  1 22  1  0
  1 23  1  0
  1 24  1  0
  4 25  1  0
  6 26  1  0
  7 27  1  0
  9 28  1  0
 12 29  1  0
 12 30  1  0
 14 31  1  0
 15 32  1  0
 18 33  1  0
 19 34  1  0
 20 35  1  0
 21 36  1  0
M  END
$$$$
