
     RDKit          3D

 54 57  0  0  0  0  0  0  0  0999 V2000
   -4.7797   -5.0204   -1.2317 C   0  0  0  0  0  0  0  0  0  0  0  0
   -3.9247   -4.5332   -0.2054 O   0  0  0  0  0  0  0  0  0  0  0  0
   -3.8373   -3.1756   -0.0666 C   0  0  0  0  0  0  0  0  0  0  0  0
   -2.9829   -2.7466    0.9512 C   0  0  0  0  0  0  0  0  0  0  0  0
   -2.8004   -1.3840    1.2035 C   0  0  0  0  0  0  0  0  0  0  0  0
   -3.4733   -0.4261    0.4374 C   0  0  0  0  0  0  0  0  0  0  0  0
   -3.2708    1.0061    0.6917 C   0  0  0  0  0  0  0  0  0  0  0  0
   -4.6125    1.9374    1.2042 S   0  0  0  0  0  0  0  0  0  0  0  0
   -3.6874    3.3789    1.3194 C   0  0  0  0  0  0  0  0  0  0  0  0
   -4.1532    4.6512    1.7081 C   0  0  0  0  0  0  0  0  0  0  0  0
   -3.2578    5.7218    1.7396 C   0  0  0  0  0  0  0  0  0  0  0  0
   -1.9286    5.5367    1.3911 C   0  0  0  0  0  0  0  0  0  0  0  0
   -1.4715    4.2725    1.0075 C   0  0  0  0  0  0  0  0  0  0  0  0
   -2.3536    3.1601    0.9702 C   0  0  0  0  0  0  0  0  0  0  0  0
   -2.1198    1.7764    0.6136 C   0  0  0  0  0  0  0  0  0  0  0  0
   -0.8374    1.2093    0.2067 C   0  0  0  0  0  0  0  0  0  0  0  0
    0.2104    1.1180    1.1297 C   0  0  0  0  0  0  0  0  0  0  0  0
    1.4448    0.5786    0.7498 C   0  0  0  0  0  0  0  0  0  0  0  0
    1.6411    0.1293   -0.5565 C   0  0  0  0  0  0  0  0  0  0  0  0
    2.7914   -0.4158   -1.0560 O   0  0  0  0  0  0  0  0  0  0  0  0
    3.8979   -0.5402   -0.1560 C   0  0  0  0  0  0  0  0  0  0  0  0
    5.0598   -1.1964   -0.9199 C   0  0  0  0  0  0  0  0  0  0  0  0
    6.2500   -1.4705   -0.0911 N   0  0  0  0  0  0  0  0  0  0  0  0
    6.9298   -0.2368    0.3096 C   0  0  0  0  0  0  0  0  0  0  0  0
    7.1820   -2.3281   -0.8294 C   0  0  0  0  0  0  0  0  0  0  0  0
    0.5943    0.2252   -1.4773 C   0  0  0  0  0  0  0  0  0  0  0  0
   -0.6392    0.7635   -1.1027 C   0  0  0  0  0  0  0  0  0  0  0  0
   -4.3283   -0.8605   -0.5846 C   0  0  0  0  0  0  0  0  0  0  0  0
   -4.5106   -2.2264   -0.8350 C   0  0  0  0  0  0  0  0  0  0  0  0
   -5.8189   -4.7247   -1.0534 H   0  0  0  0  0  0  0  0  0  0  0  0
   -4.4383   -4.6923   -2.2190 H   0  0  0  0  0  0  0  0  0  0  0  0
   -4.7368   -6.1137   -1.2114 H   0  0  0  0  0  0  0  0  0  0  0  0
   -2.4523   -3.4797    1.5538 H   0  0  0  0  0  0  0  0  0  0  0  0
   -2.1294   -1.0793    2.0029 H   0  0  0  0  0  0  0  0  0  0  0  0
   -5.1951    4.7989    1.9781 H   0  0  0  0  0  0  0  0  0  0  0  0
   -3.6087    6.7072    2.0370 H   0  0  0  0  0  0  0  0  0  0  0  0
   -1.2376    6.3758    1.4132 H   0  0  0  0  0  0  0  0  0  0  0  0
   -0.4274    4.1450    0.7308 H   0  0  0  0  0  0  0  0  0  0  0  0
    0.0711    1.4597    2.1531 H   0  0  0  0  0  0  0  0  0  0  0  0
    2.2273    0.5221    1.4991 H   0  0  0  0  0  0  0  0  0  0  0  0
    4.1909    0.4551    0.1953 H   0  0  0  0  0  0  0  0  0  0  0  0
    3.6201   -1.1755    0.6939 H   0  0  0  0  0  0  0  0  0  0  0  0
    5.3179   -0.5836   -1.7945 H   0  0  0  0  0  0  0  0  0  0  0  0
    4.6766   -2.1419   -1.3281 H   0  0  0  0  0  0  0  0  0  0  0  0
    7.2335    0.3674   -0.5529 H   0  0  0  0  0  0  0  0  0  0  0  0
    6.2924    0.3744    0.9559 H   0  0  0  0  0  0  0  0  0  0  0  0
    7.8252   -0.4659    0.8990 H   0  0  0  0  0  0  0  0  0  0  0  0
    7.5351   -1.8559   -1.7534 H   0  0  0  0  0  0  0  0  0  0  0  0
    8.0532   -2.5726   -0.2112 H   0  0  0  0  0  0  0  0  0  0  0  0
    6.7073   -3.2814   -1.0873 H   0  0  0  0  0  0  0  0  0  0  0  0
    0.7396   -0.1246   -2.4964 H   0  0  0  0  0  0  0  0  0  0  0  0
   -1.4380    0.8283   -1.8371 H   0  0  0  0  0  0  0  0  0  0  0  0
   -4.8571   -0.1362   -1.2006 H   0  0  0  0  0  0  0  0  0  0  0  0
   -5.1830   -2.5109   -1.6370 H   0  0  0  0  0  0  0  0  0  0  0  0
  1  2  1  0
  2  3  1  0
  3  4  2  0
  4  5  1  0
  5  6  2  0
  6  7  1  0
  7  8  1  0
  8  9  1  0
  9 10  2  0
 10 11  1  0
 11 12  2  0
 12 13  1  0
 13 14  2  0
 14 15  1  0
 15 16  1  0
 16 17  2  0
 17 18  1  0
 18 19  2  0
 19 20  1  0
 20 21  1  0
 21 22  1  0
 22 23  1  0
 23 24  1  0
 23 25  1  0
 19 26  1  0
 26 27  2  0
  6 28  1  0
 28 29  2  0
 29  3  1  0
 15  7  2  0
 27 16  1  0
 14  9  1  0
  1 30  1  0
  1 31  1  0
  1 32  1  0
  4 33  1  0
  5 34  1  0
 10 35  1  0
 11 36  1  0
 12 37  1  0
 13 38  1  0
 17 39  1  0
 18 40  1  0
 21 41  1  0
 21 42  1  0
 22 43  1  0
 22 44  1  0
 24 45  1  0
 24 46  1  0
 24 47  1  0
 25 48  1  0
 25 49  1  0
 25 50  1  0
 26 51  1  0
 27 52  1  0
 28 53  1  0
 29 54  1  0
M  END
$$$$
