
     RDKit          3D

 64 64  0  0  0  0  0  0  0  0999 V2000
   -8.8495   -0.5294    2.5688 C   0  0  0  0  0  0  0  0  0  0  0  0
   -8.0971   -1.4747    1.6445 C   0  0  0  0  0  0  0  0  0  0  0  0
   -7.9533   -0.9479    0.2148 C   0  0  0  0  0  0  0  0  0  0  0  0
   -7.0953    0.3157    0.1168 C   0  0  0  0  0  0  0  0  0  0  0  0
   -6.9000    0.7370   -1.3438 C   0  0  0  0  0  0  0  0  0  0  0  0
   -6.0319    1.9915   -1.4944 C   0  0  0  0  0  0  0  0  0  0  0  0
   -4.5616    1.7144   -1.8286 C   0  0  0  0  0  0  0  0  0  0  0  0
   -3.8004    0.9652   -0.7352 C   0  0  0  0  0  0  0  0  0  0  0  0
   -2.3087    0.8623   -1.0676 C   0  0  0  0  0  0  0  0  0  0  0  0
   -1.5495    0.1111    0.0285 C   0  0  0  0  0  0  0  0  0  0  0  0
   -0.0738   -0.1335   -0.3045 C   0  0  0  0  0  0  0  0  0  0  0  0
    0.7549    1.1520   -0.3720 C   0  0  0  0  0  0  0  0  0  0  0  0
    2.2360    0.9036   -0.6768 C   0  0  0  0  0  0  0  0  0  0  0  0
    2.9850    0.2096    0.4632 C   0  0  0  0  0  0  0  0  0  0  0  0
    4.4771    0.0855    0.1511 C   0  0  0  0  0  0  0  0  0  0  0  0
    5.2231   -0.5880    1.2969 C   0  0  0  0  0  0  0  0  0  0  0  0
    6.6588   -0.7108    0.9403 N   0  0  0  0  0  4  0  0  0  0  0  0
    7.5127    0.2977    1.2366 C   0  0  0  0  0  0  0  0  0  0  0  0
    8.8604    0.2061    0.9107 C   0  0  0  0  0  0  0  0  0  0  0  0
    9.3211   -0.9340    0.2602 C   0  0  0  0  0  0  0  0  0  0  0  0
   10.7581   -1.0152   -0.0715 C   0  0  0  0  0  0  0  0  0  0  0  0
   11.3180   -1.5490   -1.1147 N   0  0  0  0  0  0  0  0  0  0  0  0
   10.4010   -2.0253   -2.0539 O   0  0  0  0  0  0  0  0  0  0  0  0
    8.4393   -1.9736   -0.0139 C   0  0  0  0  0  0  0  0  0  0  0  0
    7.1021   -1.8347    0.3298 C   0  0  0  0  0  0  0  0  0  0  0  0
   -8.2868    0.3922    2.7437 H   0  0  0  0  0  0  0  0  0  0  0  0
   -9.0124   -1.0064    3.5406 H   0  0  0  0  0  0  0  0  0  0  0  0
   -9.8270   -0.2653    2.1526 H   0  0  0  0  0  0  0  0  0  0  0  0
   -8.6354   -2.4297    1.6084 H   0  0  0  0  0  0  0  0  0  0  0  0
   -7.1069   -1.6848    2.0667 H   0  0  0  0  0  0  0  0  0  0  0  0
   -8.9475   -0.7540   -0.2069 H   0  0  0  0  0  0  0  0  0  0  0  0
   -7.4986   -1.7386   -0.3963 H   0  0  0  0  0  0  0  0  0  0  0  0
   -6.1302    0.1366    0.5982 H   0  0  0  0  0  0  0  0  0  0  0  0
   -7.5776    1.1355    0.6601 H   0  0  0  0  0  0  0  0  0  0  0  0
   -6.4858   -0.0898   -1.9326 H   0  0  0  0  0  0  0  0  0  0  0  0
   -7.8903    0.9536   -1.7655 H   0  0  0  0  0  0  0  0  0  0  0  0
   -6.4401    2.5847   -2.3230 H   0  0  0  0  0  0  0  0  0  0  0  0
   -6.1018    2.6238   -0.6013 H   0  0  0  0  0  0  0  0  0  0  0  0
   -4.0703    2.6788   -2.0115 H   0  0  0  0  0  0  0  0  0  0  0  0
   -4.5019    1.1505   -2.7685 H   0  0  0  0  0  0  0  0  0  0  0  0
   -4.2088   -0.0457   -0.6253 H   0  0  0  0  0  0  0  0  0  0  0  0
   -3.9271    1.4814    0.2243 H   0  0  0  0  0  0  0  0  0  0  0  0
   -2.1818    0.3441   -2.0259 H   0  0  0  0  0  0  0  0  0  0  0  0
   -1.8978    1.8714   -1.1853 H   0  0  0  0  0  0  0  0  0  0  0  0
   -1.6259    0.6595    0.9752 H   0  0  0  0  0  0  0  0  0  0  0  0
   -2.0274   -0.8631    0.1895 H   0  0  0  0  0  0  0  0  0  0  0  0
    0.0034   -0.6742   -1.2552 H   0  0  0  0  0  0  0  0  0  0  0  0
    0.3332   -0.7935    0.4692 H   0  0  0  0  0  0  0  0  0  0  0  0
    0.3582    1.7993   -1.1621 H   0  0  0  0  0  0  0  0  0  0  0  0
    0.6613    1.7065    0.5695 H   0  0  0  0  0  0  0  0  0  0  0  0
    2.7097    1.8736   -0.8728 H   0  0  0  0  0  0  0  0  0  0  0  0
    2.3305    0.3148   -1.5972 H   0  0  0  0  0  0  0  0  0  0  0  0
    2.5723   -0.7909    0.6323 H   0  0  0  0  0  0  0  0  0  0  0  0
    2.8505    0.7782    1.3911 H   0  0  0  0  0  0  0  0  0  0  0  0
    4.9027    1.0796   -0.0328 H   0  0  0  0  0  0  0  0  0  0  0  0
    4.6156   -0.4902   -0.7723 H   0  0  0  0  0  0  0  0  0  0  0  0
    4.8379   -1.5937    1.4994 H   0  0  0  0  0  0  0  0  0  0  0  0
    5.1565   -0.0083    2.2244 H   0  0  0  0  0  0  0  0  0  0  0  0
    7.1026    1.1752    1.7297 H   0  0  0  0  0  0  0  0  0  0  0  0
    9.5340    1.0273    1.1468 H   0  0  0  0  0  0  0  0  0  0  0  0
   11.4397   -0.5424    0.6581 H   0  0  0  0  0  0  0  0  0  0  0  0
   10.9867   -2.3237   -2.7796 H   0  0  0  0  0  0  0  0  0  0  0  0
    8.7832   -2.8910   -0.4856 H   0  0  0  0  0  0  0  0  0  0  0  0
    6.3771   -2.6174    0.1224 H   0  0  0  0  0  0  0  0  0  0  0  0
  1  2  1  0
  2  3  1  0
  3  4  1  0
  4  5  1  0
  5  6  1  0
  6  7  1  0
  7  8  1  0
  8  9  1  0
  9 10  1  0
 10 11  1  0
 11 12  1  0
 12 13  1  0
 13 14  1  0
 14 15  1  0
 15 16  1  0
 16 17  1  0
 17 18  2  0
 18 19  1  0
 19 20  2  0
 20 21  1  0
 21 22  2  3
 22 23  1  0
 20 24  1  0
 24 25  2  0
 25 17  1  0
  1 26  1  0
  1 27  1  0
  1 28  1  0
  2 29  1  0
  2 30  1  0
  3 31  1  0
  3 32  1  0
  4 33  1  0
  4 34  1  0
  5 35  1  0
  5 36  1  0
  6 37  1  0
  6 38  1  0
  7 39  1  0
  7 40  1  0
  8 41  1  0
  8 42  1  0
  9 43  1  0
  9 44  1  0
 10 45  1  0
 10 46  1  0
 11 47  1  0
 11 48  1  0
 12 49  1  0
 12 50  1  0
 13 51  1  0
 13 52  1  0
 14 53  1  0
 14 54  1  0
 15 55  1  0
 15 56  1  0
 16 57  1  0
 16 58  1  0
 18 59  1  0
 19 60  1  0
 21 61  1  0
 23 62  1  0
 24 63  1  0
 25 64  1  0
M  CHG  1  17   1
M  END
$$$$
