
     RDKit          3D

 46 48  0  0  0  0  0  0  0  0999 V2000
   -2.8698   -2.0500   -0.8929 C   0  0  0  0  0  0  0  0  0  0  0  0
   -2.9031   -0.9596   -1.9340 C   0  0  0  0  0  0  0  0  0  0  0  0
   -4.0552   -0.3957   -2.3559 C   0  0  0  0  0  0  0  0  0  0  0  0
   -5.3909   -0.6634   -1.8094 C   0  0  0  0  0  0  0  0  0  0  0  0
   -6.3813   -1.1987   -2.6401 C   0  0  0  0  0  0  0  0  0  0  0  0
   -7.6629   -1.4422   -2.1415 C   0  0  0  0  0  0  0  0  0  0  0  0
   -7.9632   -1.1453   -0.8127 C   0  0  0  0  0  0  0  0  0  0  0  0
   -6.9843   -0.6022    0.0180 C   0  0  0  0  0  0  0  0  0  0  0  0
   -5.7027   -0.3582   -0.4792 C   0  0  0  0  0  0  0  0  0  0  0  0
   -1.6659   -0.5892   -2.6161 C   0  0  0  0  0  0  0  0  0  0  0  0
   -0.4030   -0.4964   -2.1676 C   0  0  0  0  0  0  0  0  0  0  0  0
    0.8959   -0.0864   -3.2584 S   0  0  0  0  0  0  0  0  0  0  0  0
    2.1235   -0.1925   -2.0150 C   0  0  0  0  0  0  0  0  0  0  0  0
    3.7529    0.0445   -2.2802 S   0  0  0  0  0  0  0  0  0  0  0  0
    1.5237   -0.5273   -0.8233 N   0  0  0  0  0  0  0  0  0  0  0  0
    2.3142   -0.5347    0.4761 N   0  0  0  0  0  0  0  0  0  0  0  0
    2.1099    0.8909    1.4007 S   0  0  0  0  0  6  0  0  0  0  0  0
    1.7170    1.9497    0.4930 O   0  0  0  0  0  0  0  0  0  0  0  0
    1.3525    0.5758    2.5898 O   0  0  0  0  0  0  0  0  0  0  0  0
    3.7882    1.1955    1.8999 C   0  0  0  0  0  0  0  0  0  0  0  0
    4.5784    2.0927    1.1787 C   0  0  0  0  0  0  0  0  0  0  0  0
    5.8974    2.3161    1.5761 C   0  0  0  0  0  0  0  0  0  0  0  0
    6.4219    1.6640    2.7008 C   0  0  0  0  0  0  0  0  0  0  0  0
    7.8499    1.8863    3.1070 C   0  0  0  0  0  0  0  0  0  0  0  0
    5.6152    0.7670    3.4146 C   0  0  0  0  0  0  0  0  0  0  0  0
    4.2958    0.5371    3.0228 C   0  0  0  0  0  0  0  0  0  0  0  0
    0.1416   -0.6573   -0.7826 C   0  0  0  0  0  0  0  0  0  0  0  0
   -0.5247   -0.8452    0.2228 O   0  0  0  0  0  0  0  0  0  0  0  0
   -3.7564   -2.6911   -0.9535 H   0  0  0  0  0  0  0  0  0  0  0  0
   -2.0133   -2.7179   -1.0348 H   0  0  0  0  0  0  0  0  0  0  0  0
   -2.8326   -1.6277    0.1152 H   0  0  0  0  0  0  0  0  0  0  0  0
   -4.0544    0.3427   -3.1560 H   0  0  0  0  0  0  0  0  0  0  0  0
   -6.1602   -1.4358   -3.6779 H   0  0  0  0  0  0  0  0  0  0  0  0
   -8.4266   -1.8633   -2.7900 H   0  0  0  0  0  0  0  0  0  0  0  0
   -8.9607   -1.3349   -0.4248 H   0  0  0  0  0  0  0  0  0  0  0  0
   -7.2173   -0.3662    1.0531 H   0  0  0  0  0  0  0  0  0  0  0  0
   -4.9497    0.0729    0.1772 H   0  0  0  0  0  0  0  0  0  0  0  0
   -1.8293   -0.3448   -3.6690 H   0  0  0  0  0  0  0  0  0  0  0  0
    3.3012   -0.7754    0.3491 H   0  0  0  0  0  0  0  0  0  0  0  0
    4.1837    2.6195    0.3124 H   0  0  0  0  0  0  0  0  0  0  0  0
    6.5145    3.0088    1.0066 H   0  0  0  0  0  0  0  0  0  0  0  0
    7.9709    1.7697    4.1891 H   0  0  0  0  0  0  0  0  0  0  0  0
    8.1752    2.9003    2.8516 H   0  0  0  0  0  0  0  0  0  0  0  0
    8.4992    1.1672    2.5984 H   0  0  0  0  0  0  0  0  0  0  0  0
    6.0099    0.2489    4.2867 H   0  0  0  0  0  0  0  0  0  0  0  0
    3.6745   -0.1481    3.5966 H   0  0  0  0  0  0  0  0  0  0  0  0
  1  2  1  0
  2  3  2  3
  3  4  1  0
  4  5  2  0
  5  6  1  0
  6  7  2  0
  7  8  1  0
  8  9  2  0
  2 10  1  0
 10 11  2  3
 11 12  1  0
 12 13  1  0
 13 14  2  0
 13 15  1  0
 15 16  1  0
 16 17  1  0
 17 18  2  0
 17 19  2  0
 17 20  1  0
 20 21  2  0
 21 22  1  0
 22 23  2  0
 23 24  1  0
 23 25  1  0
 25 26  2  0
 15 27  1  0
 27 28  2  0
  9  4  1  0
 27 11  1  0
 26 20  1  0
  1 29  1  0
  1 30  1  0
  1 31  1  0
  3 32  1  0
  5 33  1  0
  6 34  1  0
  7 35  1  0
  8 36  1  0
  9 37  1  0
 10 38  1  0
 16 39  1  0
 21 40  1  0
 22 41  1  0
 24 42  1  0
 24 43  1  0
 24 44  1  0
 25 45  1  0
 26 46  1  0
M  END
$$$$
