
     RDKit          3D

 43 45  0  0  0  0  0  0  0  0999 V2000
    1.1538   -3.6786    4.6063 C   0  0  0  0  0  0  0  0  0  0  0  0
    0.4838   -3.2348    3.3873 N   0  0  0  0  0  0  0  0  0  0  0  0
    0.1857   -1.7907    3.4483 C   0  0  0  0  0  0  0  0  0  0  0  0
   -0.0726   -1.1627    2.0668 C   0  0  0  0  0  0  0  0  0  0  0  0
    1.0730   -1.3390    1.1672 N   0  0  0  0  0  0  0  0  0  0  0  0
    1.2995   -0.5773    0.0314 C   0  0  0  0  0  0  0  0  0  0  0  0
    2.2500   -0.7083   -0.7282 O   0  0  0  0  0  0  0  0  0  0  0  0
    0.2963    0.5193   -0.2710 C   0  0  0  0  0  0  0  0  0  0  0  0
    0.8238    1.9239   -0.0622 C   0  0  0  0  0  0  0  0  0  0  0  0
    0.8061    2.7116   -1.3387 C   0  0  0  0  0  0  0  0  0  0  0  0
    0.0223    3.8054   -1.6539 C   0  0  0  0  0  0  0  0  0  0  0  0
    0.2718    4.2923   -2.9687 C   0  0  0  0  0  0  0  0  0  0  0  0
    1.2520    3.5685   -3.6081 C   0  0  0  0  0  0  0  0  0  0  0  0
    1.8657    2.3127   -2.6256 S   0  0  0  0  0  0  0  0  0  0  0  0
   -0.8923    0.1409   -0.6457 N   0  0  0  0  0  0  0  0  0  0  0  0
   -1.8389    1.1168   -0.8218 C   0  0  0  0  0  0  0  0  0  0  0  0
   -2.1765    1.8866    0.0708 O   0  0  0  0  0  0  0  0  0  0  0  0
   -2.3921    1.0908   -2.1605 C   0  0  0  0  0  0  0  0  0  0  0  0
   -2.1224    0.3085   -3.2715 C   0  0  0  0  0  0  0  0  0  0  0  0
   -2.9732    0.7581   -4.3095 C   0  0  0  0  0  0  0  0  0  0  0  0
   -3.7127    1.7858   -3.7768 C   0  0  0  0  0  0  0  0  0  0  0  0
   -3.3711    1.9972   -2.4809 O   0  0  0  0  0  0  0  0  0  0  0  0
    1.9679   -2.4554    1.4671 C   0  0  0  0  0  0  0  0  0  0  0  0
    1.2360   -3.6118    2.1727 C   0  0  0  0  0  0  0  0  0  0  0  0
    1.2642   -4.7687    4.6090 H   0  0  0  0  0  0  0  0  0  0  0  0
    2.1478   -3.2303    4.7161 H   0  0  0  0  0  0  0  0  0  0  0  0
    0.5582   -3.4221    5.4895 H   0  0  0  0  0  0  0  0  0  0  0  0
    1.0226   -1.2495    3.9108 H   0  0  0  0  0  0  0  0  0  0  0  0
   -0.6933   -1.6348    4.0842 H   0  0  0  0  0  0  0  0  0  0  0  0
   -0.9411   -1.6331    1.5909 H   0  0  0  0  0  0  0  0  0  0  0  0
   -0.2859   -0.0949    2.1806 H   0  0  0  0  0  0  0  0  0  0  0  0
    0.2218    2.4159    0.7094 H   0  0  0  0  0  0  0  0  0  0  0  0
    1.8469    1.8822    0.3305 H   0  0  0  0  0  0  0  0  0  0  0  0
   -0.7134    4.2289   -0.9783 H   0  0  0  0  0  0  0  0  0  0  0  0
   -0.2421    5.1314   -3.4213 H   0  0  0  0  0  0  0  0  0  0  0  0
    1.6418    3.7180   -4.6056 H   0  0  0  0  0  0  0  0  0  0  0  0
   -1.3911   -0.4873   -3.3183 H   0  0  0  0  0  0  0  0  0  0  0  0
   -3.0381    0.3808   -5.3204 H   0  0  0  0  0  0  0  0  0  0  0  0
   -4.4829    2.4362   -4.1680 H   0  0  0  0  0  0  0  0  0  0  0  0
    2.4360   -2.8186    0.5457 H   0  0  0  0  0  0  0  0  0  0  0  0
    2.7655   -2.0647    2.1103 H   0  0  0  0  0  0  0  0  0  0  0  0
    1.9442   -4.4255    2.3728 H   0  0  0  0  0  0  0  0  0  0  0  0
    0.5028   -4.0240    1.4671 H   0  0  0  0  0  0  0  0  0  0  0  0
  1  2  1  0
  2  3  1  0
  3  4  1  0
  4  5  1  0
  5  6  1  0
  6  7  2  0
  6  8  1  0
  8  9  1  0
  9 10  1  0
 10 11  2  0
 11 12  1  0
 12 13  2  0
 13 14  1  0
  8 15  2  3
 15 16  1  0
 16 17  2  0
 16 18  1  0
 18 19  2  0
 19 20  1  0
 20 21  2  0
 21 22  1  0
  5 23  1  0
 23 24  1  0
 24  2  1  0
 14 10  1  0
 22 18  1  0
  1 25  1  0
  1 26  1  0
  1 27  1  0
  3 28  1  0
  3 29  1  0
  4 30  1  0
  4 31  1  0
  9 32  1  0
  9 33  1  0
 11 34  1  0
 12 35  1  0
 13 36  1  0
 19 37  1  0
 20 38  1  0
 21 39  1  0
 23 40  1  0
 23 41  1  0
 24 42  1  0
 24 43  1  0
M  END
$$$$
