
     RDKit          3D

 48 49  0  0  0  0  0  0  0  0999 V2000
    1.8903   -3.5242   -0.3521 C   0  0  0  0  0  0  0  0  0  0  0  0
    2.5073   -2.2972    0.0073 O   0  0  0  0  0  0  0  0  0  0  0  0
    1.7170   -1.1750    0.0666 C   0  0  0  0  0  0  0  0  0  0  0  0
    0.3410   -1.1596   -0.1987 C   0  0  0  0  0  0  0  0  0  0  0  0
   -0.3949    0.0301   -0.1152 C   0  0  0  0  0  0  0  0  0  0  0  0
   -1.7691   -0.0428   -0.3984 N   0  0  0  0  0  0  0  0  0  0  0  0
   -2.7214    0.9617   -0.3357 C   0  0  0  0  0  0  0  0  0  0  0  0
   -2.5304    2.1326   -0.0243 O   0  0  0  0  0  0  0  0  0  0  0  0
   -4.1095    0.4449   -0.7898 C   0  0  0  0  0  0  0  0  0  0  0  0
   -5.2433    1.2842   -0.1840 C   0  0  0  0  0  0  0  0  0  0  0  0
   -6.5948    0.5642   -0.2074 C   0  0  0  0  0  0  0  0  0  0  0  0
   -6.6079   -0.5455   -1.2497 C   0  0  0  0  0  0  0  0  0  0  0  0
   -5.4834   -1.5565   -1.0009 C   0  0  0  0  0  0  0  0  0  0  0  0
   -4.2559   -0.9895   -0.4228 N   0  0  0  0  0  0  0  0  0  0  0  0
    0.2603    1.2081    0.2342 C   0  0  0  0  0  0  0  0  0  0  0  0
    1.6340    1.2046    0.5017 C   0  0  0  0  0  0  0  0  0  0  0  0
    2.3707    0.0208    0.4199 C   0  0  0  0  0  0  0  0  0  0  0  0
    3.7168   -0.0766    0.6668 O   0  0  0  0  0  0  0  0  0  0  0  0
    4.4304    1.1229    0.9607 C   0  0  0  0  0  0  0  0  0  0  0  0
    5.9159    0.7805    1.1510 C   0  0  0  0  0  0  0  0  0  0  0  0
    6.6961    2.0170    1.5925 C   0  0  0  0  0  0  0  0  0  0  0  0
    6.5222    0.1977   -0.1278 C   0  0  0  0  0  0  0  0  0  0  0  0
    2.6623   -4.2999   -0.3511 H   0  0  0  0  0  0  0  0  0  0  0  0
    1.1289   -3.8130    0.3798 H   0  0  0  0  0  0  0  0  0  0  0  0
    1.4711   -3.4749   -1.3624 H   0  0  0  0  0  0  0  0  0  0  0  0
   -0.1772   -2.0715   -0.4731 H   0  0  0  0  0  0  0  0  0  0  0  0
   -2.1664   -0.9534   -0.6233 H   0  0  0  0  0  0  0  0  0  0  0  0
   -4.1142    0.5358   -1.8846 H   0  0  0  0  0  0  0  0  0  0  0  0
   -5.0163    1.5740    0.8498 H   0  0  0  0  0  0  0  0  0  0  0  0
   -5.3244    2.2208   -0.7504 H   0  0  0  0  0  0  0  0  0  0  0  0
   -7.3992    1.2827   -0.3996 H   0  0  0  0  0  0  0  0  0  0  0  0
   -6.7909    0.1308    0.7815 H   0  0  0  0  0  0  0  0  0  0  0  0
   -7.5756   -1.0595   -1.2419 H   0  0  0  0  0  0  0  0  0  0  0  0
   -6.4919   -0.1033   -2.2474 H   0  0  0  0  0  0  0  0  0  0  0  0
   -5.2358   -2.0545   -1.9454 H   0  0  0  0  0  0  0  0  0  0  0  0
   -5.8426   -2.3434   -0.3269 H   0  0  0  0  0  0  0  0  0  0  0  0
   -4.3404   -1.0292    0.5974 H   0  0  0  0  0  0  0  0  0  0  0  0
   -0.2684    2.1534    0.3081 H   0  0  0  0  0  0  0  0  0  0  0  0
    2.0936    2.1489    0.7733 H   0  0  0  0  0  0  0  0  0  0  0  0
    4.0421    1.5615    1.8881 H   0  0  0  0  0  0  0  0  0  0  0  0
    4.3204    1.8408    0.1381 H   0  0  0  0  0  0  0  0  0  0  0  0
    5.9995    0.0143    1.9324 H   0  0  0  0  0  0  0  0  0  0  0  0
    7.7507    1.7730    1.7589 H   0  0  0  0  0  0  0  0  0  0  0  0
    6.6466    2.8092    0.8376 H   0  0  0  0  0  0  0  0  0  0  0  0
    6.2943    2.4162    2.5297 H   0  0  0  0  0  0  0  0  0  0  0  0
    6.4480    0.9058   -0.9601 H   0  0  0  0  0  0  0  0  0  0  0  0
    7.5809   -0.0412    0.0195 H   0  0  0  0  0  0  0  0  0  0  0  0
    6.0134   -0.7260   -0.4221 H   0  0  0  0  0  0  0  0  0  0  0  0
  1  2  1  0
  2  3  1  0
  3  4  2  0
  4  5  1  0
  5  6  1  0
  6  7  1  0
  7  8  2  0
  7  9  1  0
  9 10  1  0
 10 11  1  0
 11 12  1  0
 12 13  1  0
 13 14  1  0
  5 15  2  0
 15 16  1  0
 16 17  2  0
 17 18  1  0
 18 19  1  0
 19 20  1  0
 20 21  1  0
 20 22  1  0
 17  3  1  0
 14  9  1  0
  1 23  1  0
  1 24  1  0
  1 25  1  0
  4 26  1  0
  6 27  1  0
  9 28  1  0
 10 29  1  0
 10 30  1  0
 11 31  1  0
 11 32  1  0
 12 33  1  0
 12 34  1  0
 13 35  1  0
 13 36  1  0
 14 37  1  0
 15 38  1  0
 16 39  1  0
 19 40  1  0
 19 41  1  0
 20 42  1  0
 21 43  1  0
 21 44  1  0
 21 45  1  0
 22 46  1  0
 22 47  1  0
 22 48  1  0
M  END
$$$$
