
     RDKit          3D

 55 57  0  0  0  0  0  0  0  0999 V2000
    5.5687    2.5633   -1.5645 C   0  0  0  0  0  0  0  0  0  0  0  0
    5.2466    1.1621   -2.0596 C   0  0  0  0  0  0  0  0  0  0  0  0
    5.2756    0.2340   -0.9797 O   0  0  0  0  0  0  0  0  0  0  0  0
    4.1203   -0.0703   -0.3147 C   0  0  0  0  0  0  0  0  0  0  0  0
    2.9071    0.6060   -0.4677 C   0  0  0  0  0  0  0  0  0  0  0  0
    1.7697    0.2154    0.2557 C   0  0  0  0  0  0  0  0  0  0  0  0
    1.8301   -0.8473    1.1620 C   0  0  0  0  0  0  0  0  0  0  0  0
    0.6554   -1.3534    1.9434 C   0  0  0  0  0  0  0  0  0  0  0  0
    0.6989   -2.5203    2.3481 O   0  0  0  0  0  0  0  0  0  0  0  0
   -0.5824   -0.5337    2.1982 C   0  0  0  0  0  0  0  0  0  0  0  0
   -0.4090    0.9345    2.3699 C   0  0  0  0  0  0  0  0  0  0  0  0
    0.4632    1.4967    3.0057 O   0  0  0  0  0  0  0  0  0  0  0  0
   -1.5052    1.6597    1.6042 C   0  0  0  0  0  0  0  0  0  0  0  0
   -1.6705    2.8603    1.6248 O   0  0  0  0  0  0  0  0  0  0  0  0
   -2.2010    0.6924    0.9095 N   0  0  0  0  0  0  0  0  0  0  0  0
   -3.0876    1.0392   -0.2022 C   0  0  0  0  0  0  0  0  0  0  0  0
   -2.4638    0.8210   -1.6023 C   0  0  0  0  0  0  0  0  0  0  0  0
   -1.0999    1.3694   -1.7598 N   0  0  0  0  0  0  0  0  0  0  0  0
   -1.1261    2.8371   -1.8341 C   0  0  0  0  0  0  0  0  0  0  0  0
   -0.4775    0.8375   -2.9762 C   0  0  0  0  0  0  0  0  0  0  0  0
   -1.5759   -0.6223    1.0313 C   0  0  0  0  0  0  0  0  0  0  0  0
   -2.5833   -1.7415    1.2156 C   0  0  0  0  0  0  0  0  0  0  0  0
   -3.6733   -1.6194    2.0941 C   0  0  0  0  0  0  0  0  0  0  0  0
   -4.5723   -2.6755    2.2647 C   0  0  0  0  0  0  0  0  0  0  0  0
   -4.3923   -3.8673    1.5670 C   0  0  0  0  0  0  0  0  0  0  0  0
   -3.3159   -4.0040    0.6947 C   0  0  0  0  0  0  0  0  0  0  0  0
   -2.4146   -2.9501    0.5217 C   0  0  0  0  0  0  0  0  0  0  0  0
    3.0481   -1.5233    1.3233 C   0  0  0  0  0  0  0  0  0  0  0  0
    4.1785   -1.1368    0.5961 C   0  0  0  0  0  0  0  0  0  0  0  0
    5.6434   -2.0257    0.8455 Cl  0  0  0  0  0  0  0  0  0  0  0  0
    5.5689    3.2765   -2.3915 H   0  0  0  0  0  0  0  0  0  0  0  0
    4.8435    2.8983   -0.8161 H   0  0  0  0  0  0  0  0  0  0  0  0
    6.5545    2.5802   -1.0835 H   0  0  0  0  0  0  0  0  0  0  0  0
    4.3099    1.1260   -2.6295 H   0  0  0  0  0  0  0  0  0  0  0  0
    6.0312    0.8484   -2.7594 H   0  0  0  0  0  0  0  0  0  0  0  0
    2.8018    1.4530   -1.1373 H   0  0  0  0  0  0  0  0  0  0  0  0
    0.8564    0.7709    0.0668 H   0  0  0  0  0  0  0  0  0  0  0  0
   -1.0264   -0.8819    3.1410 H   0  0  0  0  0  0  0  0  0  0  0  0
   -3.9921    0.4286   -0.1123 H   0  0  0  0  0  0  0  0  0  0  0  0
   -3.3937    2.0849   -0.0938 H   0  0  0  0  0  0  0  0  0  0  0  0
   -2.4236   -0.2649   -1.7609 H   0  0  0  0  0  0  0  0  0  0  0  0
   -3.1428    1.2158   -2.3698 H   0  0  0  0  0  0  0  0  0  0  0  0
   -0.1040    3.2264   -1.8813 H   0  0  0  0  0  0  0  0  0  0  0  0
   -1.5847    3.2798   -0.9467 H   0  0  0  0  0  0  0  0  0  0  0  0
   -1.6766    3.1940   -2.7123 H   0  0  0  0  0  0  0  0  0  0  0  0
    0.5496    1.2084   -3.0725 H   0  0  0  0  0  0  0  0  0  0  0  0
   -1.0283    1.1120   -3.8821 H   0  0  0  0  0  0  0  0  0  0  0  0
   -0.4066   -0.2555   -2.9295 H   0  0  0  0  0  0  0  0  0  0  0  0
   -1.0317   -0.7967    0.0950 H   0  0  0  0  0  0  0  0  0  0  0  0
   -3.8361   -0.6983    2.6503 H   0  0  0  0  0  0  0  0  0  0  0  0
   -5.4129   -2.5682    2.9456 H   0  0  0  0  0  0  0  0  0  0  0  0
   -5.0890   -4.6918    1.7052 H   0  0  0  0  0  0  0  0  0  0  0  0
   -3.1721   -4.9355    0.1504 H   0  0  0  0  0  0  0  0  0  0  0  0
   -1.5723   -3.0886   -0.1533 H   0  0  0  0  0  0  0  0  0  0  0  0
    3.1223   -2.3597    2.0168 H   0  0  0  0  0  0  0  0  0  0  0  0
  1  2  1  0
  2  3  1  0
  3  4  1  0
  4  5  2  0
  5  6  1  0
  6  7  2  0
  7  8  1  0
  8  9  2  0
  8 10  1  0
 10 11  1  0
 11 12  2  0
 11 13  1  0
 13 14  2  0
 13 15  1  0
 15 16  1  0
 16 17  1  0
 17 18  1  0
 18 19  1  0
 18 20  1  0
 15 21  1  0
 21 22  1  0
 22 23  2  0
 23 24  1  0
 24 25  2  0
 25 26  1  0
 26 27  2  0
  7 28  1  0
 28 29  2  0
 29 30  1  0
 29  4  1  0
 21 10  1  0
 27 22  1  0
  1 31  1  0
  1 32  1  0
  1 33  1  0
  2 34  1  0
  2 35  1  0
  5 36  1  0
  6 37  1  0
 10 38  1  0
 16 39  1  0
 16 40  1  0
 17 41  1  0
 17 42  1  0
 19 43  1  0
 19 44  1  0
 19 45  1  0
 20 46  1  0
 20 47  1  0
 20 48  1  0
 21 49  1  0
 23 50  1  0
 24 51  1  0
 25 52  1  0
 26 53  1  0
 27 54  1  0
 28 55  1  0
M  END
$$$$
