
     RDKit          3D

 61 61  0  0  0  0  0  0  0  0999 V2000
    5.1370    3.1089   -3.4604 C   0  0  0  0  0  0  0  0  0  0  0  0
    5.3450    2.1420   -2.3045 C   0  0  0  0  0  0  0  0  0  0  0  0
    4.2237    2.2596   -1.2711 C   0  0  0  0  0  0  0  0  0  0  0  0
    4.4473    1.3959   -0.0250 C   0  0  0  0  0  0  0  0  0  0  0  0
    4.3825   -0.1071   -0.3089 C   0  0  0  0  0  0  0  0  0  0  0  0
    4.6138   -0.9726    0.9351 C   0  0  0  0  0  0  0  0  0  0  0  0
    3.6143   -0.7845    2.0808 C   0  0  0  0  0  0  0  0  0  0  0  0
    2.1640   -1.0608    1.6765 C   0  0  0  0  0  0  0  0  0  0  0  0
    1.2312   -0.9977    2.8895 C   0  0  0  0  0  0  0  0  0  0  0  0
   -0.2505   -1.1301    2.5232 C   0  0  0  0  0  0  0  0  0  0  0  0
   -0.6177   -2.5097    1.9662 C   0  0  0  0  0  0  0  0  0  0  0  0
   -2.1176   -2.6553    1.6820 C   0  0  0  0  0  0  0  0  0  0  0  0
   -2.5196   -2.4350    0.2181 C   0  0  0  0  0  0  0  0  0  0  0  0
   -2.2295   -1.0281   -0.3062 C   0  0  0  0  0  0  0  0  0  0  0  0
   -2.7381   -0.7938   -1.7332 C   0  0  0  0  0  0  0  0  0  0  0  0
   -4.2581   -0.8051   -1.8837 C   0  0  0  0  0  0  0  0  0  0  0  0
   -4.9037    0.2368   -1.0787 N   0  0  0  0  0  0  0  0  0  0  0  0
   -5.6585    0.0351    0.0671 C   0  0  0  0  0  0  0  0  0  0  0  0
   -6.0640    1.2677    0.4938 C   0  0  0  0  0  0  0  0  0  0  0  0
   -5.5545    2.1901   -0.4057 N   0  0  0  0  0  4  0  0  0  0  0  0
   -5.7457    3.6336   -0.3441 C   0  0  0  0  0  0  0  0  0  0  0  0
   -4.8600    1.5492   -1.3573 C   0  0  0  0  0  0  0  0  0  0  0  0
    5.1273    4.1454   -3.1084 H   0  0  0  0  0  0  0  0  0  0  0  0
    5.9462    3.0061   -4.1903 H   0  0  0  0  0  0  0  0  0  0  0  0
    4.1898    2.9097   -3.9718 H   0  0  0  0  0  0  0  0  0  0  0  0
    6.3119    2.3508   -1.8326 H   0  0  0  0  0  0  0  0  0  0  0  0
    5.3901    1.1240   -2.7055 H   0  0  0  0  0  0  0  0  0  0  0  0
    3.2635    1.9983   -1.7322 H   0  0  0  0  0  0  0  0  0  0  0  0
    4.1436    3.3060   -0.9504 H   0  0  0  0  0  0  0  0  0  0  0  0
    3.6750    1.6640    0.7052 H   0  0  0  0  0  0  0  0  0  0  0  0
    5.4139    1.6470    0.4279 H   0  0  0  0  0  0  0  0  0  0  0  0
    3.4197   -0.3586   -0.7685 H   0  0  0  0  0  0  0  0  0  0  0  0
    5.1522   -0.3759   -1.0417 H   0  0  0  0  0  0  0  0  0  0  0  0
    5.6220   -0.7773    1.3215 H   0  0  0  0  0  0  0  0  0  0  0  0
    4.6018   -2.0260    0.6277 H   0  0  0  0  0  0  0  0  0  0  0  0
    3.8981   -1.4691    2.8909 H   0  0  0  0  0  0  0  0  0  0  0  0
    3.6999    0.2279    2.4921 H   0  0  0  0  0  0  0  0  0  0  0  0
    2.1056   -2.0496    1.2085 H   0  0  0  0  0  0  0  0  0  0  0  0
    1.8352   -0.3249    0.9339 H   0  0  0  0  0  0  0  0  0  0  0  0
    1.5046   -1.7791    3.6094 H   0  0  0  0  0  0  0  0  0  0  0  0
    1.3713   -0.0359    3.3991 H   0  0  0  0  0  0  0  0  0  0  0  0
   -0.5189   -0.3406    1.8144 H   0  0  0  0  0  0  0  0  0  0  0  0
   -0.8402   -0.9472    3.4303 H   0  0  0  0  0  0  0  0  0  0  0  0
   -0.0416   -2.7389    1.0638 H   0  0  0  0  0  0  0  0  0  0  0  0
   -0.3366   -3.2602    2.7163 H   0  0  0  0  0  0  0  0  0  0  0  0
   -2.4101   -3.6814    1.9405 H   0  0  0  0  0  0  0  0  0  0  0  0
   -2.7048   -1.9970    2.3336 H   0  0  0  0  0  0  0  0  0  0  0  0
   -2.0070   -3.1712   -0.4139 H   0  0  0  0  0  0  0  0  0  0  0  0
   -3.5914   -2.6489    0.1398 H   0  0  0  0  0  0  0  0  0  0  0  0
   -1.1449   -0.8681   -0.3181 H   0  0  0  0  0  0  0  0  0  0  0  0
   -2.6534   -0.2786    0.3719 H   0  0  0  0  0  0  0  0  0  0  0  0
   -2.3575    0.1776   -2.0732 H   0  0  0  0  0  0  0  0  0  0  0  0
   -2.3086   -1.5503   -2.4015 H   0  0  0  0  0  0  0  0  0  0  0  0
   -4.6813   -1.7792   -1.6181 H   0  0  0  0  0  0  0  0  0  0  0  0
   -4.5248   -0.6178   -2.9308 H   0  0  0  0  0  0  0  0  0  0  0  0
   -5.8049   -0.9662    0.4347 H   0  0  0  0  0  0  0  0  0  0  0  0
   -6.6542    1.6134    1.3257 H   0  0  0  0  0  0  0  0  0  0  0  0
   -5.0967    4.1259   -1.0744 H   0  0  0  0  0  0  0  0  0  0  0  0
   -6.7907    3.8620   -0.5705 H   0  0  0  0  0  0  0  0  0  0  0  0
   -5.4940    3.9899    0.6597 H   0  0  0  0  0  0  0  0  0  0  0  0
   -4.3514    2.0071   -2.1981 H   0  0  0  0  0  0  0  0  0  0  0  0
  1  2  1  0
  2  3  1  0
  3  4  1  0
  4  5  1  0
  5  6  1  0
  6  7  1  0
  7  8  1  0
  8  9  1  0
  9 10  1  0
 10 11  1  0
 11 12  1  0
 12 13  1  0
 13 14  1  0
 14 15  1  0
 15 16  1  0
 16 17  1  0
 17 18  1  0
 18 19  2  0
 19 20  1  0
 20 21  1  0
 20 22  2  0
 22 17  1  0
  1 23  1  0
  1 24  1  0
  1 25  1  0
  2 26  1  0
  2 27  1  0
  3 28  1  0
  3 29  1  0
  4 30  1  0
  4 31  1  0
  5 32  1  0
  5 33  1  0
  6 34  1  0
  6 35  1  0
  7 36  1  0
  7 37  1  0
  8 38  1  0
  8 39  1  0
  9 40  1  0
  9 41  1  0
 10 42  1  0
 10 43  1  0
 11 44  1  0
 11 45  1  0
 12 46  1  0
 12 47  1  0
 13 48  1  0
 13 49  1  0
 14 50  1  0
 14 51  1  0
 15 52  1  0
 15 53  1  0
 16 54  1  0
 16 55  1  0
 18 56  1  0
 19 57  1  0
 21 58  1  0
 21 59  1  0
 21 60  1  0
 22 61  1  0
M  CHG  1  20   1
M  END
$$$$
