
     RDKit          3D

 46 47  0  0  0  0  0  0  0  0999 V2000
    0.4440    0.4168    5.1189 C   0  0  0  0  0  0  0  0  0  0  0  0
   -1.1056   -0.3135    4.5360 S   0  0  0  0  0  0  0  0  0  0  0  0
   -0.6811   -0.5722    2.7787 C   0  0  0  0  0  0  0  0  0  0  0  0
   -0.6914    0.7387    1.9880 C   0  0  0  0  0  0  0  0  0  0  0  0
   -0.3870    0.5457    0.4920 C   0  0  0  0  0  0  0  0  0  0  0  0
   -1.3443   -0.3563   -0.1429 N   0  0  0  0  0  0  0  0  0  0  0  0
   -2.5781    0.0737   -0.5690 C   0  0  0  0  0  0  0  0  0  0  0  0
   -2.9996    1.2099   -0.4029 O   0  0  0  0  0  0  0  0  0  0  0  0
   -3.3990   -0.9563   -1.2391 C   0  0  0  0  0  0  0  0  0  0  0  0
   -3.6680   -2.1463   -0.5443 C   0  0  0  0  0  0  0  0  0  0  0  0
   -4.4550   -3.1365   -1.1331 C   0  0  0  0  0  0  0  0  0  0  0  0
   -4.9754   -2.9423   -2.4116 C   0  0  0  0  0  0  0  0  0  0  0  0
   -4.7090   -1.7586   -3.1041 C   0  0  0  0  0  0  0  0  0  0  0  0
   -3.9211   -0.7600   -2.5214 C   0  0  0  0  0  0  0  0  0  0  0  0
   -3.5905    0.6490   -3.4632 Cl  0  0  0  0  0  0  0  0  0  0  0  0
    1.0272   -0.0366    0.2753 C   0  0  0  0  0  0  0  0  0  0  0  0
    1.1540   -1.2567    0.1132 O   0  0  0  0  0  0  0  0  0  0  0  0
    2.1217    0.8201    0.3302 N   0  0  0  0  0  0  0  0  0  0  0  0
    2.0119    2.2744    0.3330 C   0  0  0  0  0  0  0  0  0  0  0  0
    3.4384    0.2611    0.0150 C   0  0  0  0  0  0  0  0  0  0  0  0
    3.8349    0.5832   -1.3981 C   0  0  0  0  0  0  0  0  0  0  0  0
    4.7037    1.5647   -1.8387 C   0  0  0  0  0  0  0  0  0  0  0  0
    4.8401    1.5745   -3.2569 C   0  0  0  0  0  0  0  0  0  0  0  0
    4.0784    0.5960   -3.8537 C   0  0  0  0  0  0  0  0  0  0  0  0
    3.2098   -0.3291   -2.7093 S   0  0  0  0  0  0  0  0  0  0  0  0
    0.3928    0.5406    6.2041 H   0  0  0  0  0  0  0  0  0  0  0  0
    0.6032    1.4003    4.6708 H   0  0  0  0  0  0  0  0  0  0  0  0
    1.2880   -0.2376    4.8861 H   0  0  0  0  0  0  0  0  0  0  0  0
    0.2908   -1.0718    2.7259 H   0  0  0  0  0  0  0  0  0  0  0  0
   -1.4269   -1.2642    2.3749 H   0  0  0  0  0  0  0  0  0  0  0  0
   -1.6755    1.2141    2.0893 H   0  0  0  0  0  0  0  0  0  0  0  0
    0.0405    1.4293    2.4186 H   0  0  0  0  0  0  0  0  0  0  0  0
   -0.4667    1.5039   -0.0318 H   0  0  0  0  0  0  0  0  0  0  0  0
   -1.0007   -1.2798   -0.3960 H   0  0  0  0  0  0  0  0  0  0  0  0
   -3.2831   -2.2960    0.4622 H   0  0  0  0  0  0  0  0  0  0  0  0
   -4.6685   -4.0558   -0.5921 H   0  0  0  0  0  0  0  0  0  0  0  0
   -5.5908   -3.7126   -2.8712 H   0  0  0  0  0  0  0  0  0  0  0  0
   -5.1167   -1.6216   -4.1032 H   0  0  0  0  0  0  0  0  0  0  0  0
    1.8883    2.6231   -0.6965 H   0  0  0  0  0  0  0  0  0  0  0  0
    2.9156    2.7102    0.7691 H   0  0  0  0  0  0  0  0  0  0  0  0
    1.1578    2.6139    0.9192 H   0  0  0  0  0  0  0  0  0  0  0  0
    4.1585    0.6960    0.7188 H   0  0  0  0  0  0  0  0  0  0  0  0
    3.4591   -0.8219    0.1804 H   0  0  0  0  0  0  0  0  0  0  0  0
    5.2180    2.2489   -1.1744 H   0  0  0  0  0  0  0  0  0  0  0  0
    5.4662    2.2626   -3.8117 H   0  0  0  0  0  0  0  0  0  0  0  0
    3.9905    0.3749   -4.9087 H   0  0  0  0  0  0  0  0  0  0  0  0
  1  2  1  0
  2  3  1  0
  3  4  1  0
  4  5  1  0
  5  6  1  0
  6  7  1  0
  7  8  2  0
  7  9  1  0
  9 10  2  0
 10 11  1  0
 11 12  2  0
 12 13  1  0
 13 14  2  0
 14 15  1  0
  5 16  1  0
 16 17  2  0
 16 18  1  0
 18 19  1  0
 18 20  1  0
 20 21  1  0
 21 22  2  0
 22 23  1  0
 23 24  2  0
 24 25  1  0
 14  9  1  0
 25 21  1  0
  1 26  1  0
  1 27  1  0
  1 28  1  0
  3 29  1  0
  3 30  1  0
  4 31  1  0
  4 32  1  0
  5 33  1  0
  6 34  1  0
 10 35  1  0
 11 36  1  0
 12 37  1  0
 13 38  1  0
 19 39  1  0
 19 40  1  0
 19 41  1  0
 20 42  1  0
 20 43  1  0
 22 44  1  0
 23 45  1  0
 24 46  1  0
M  END
$$$$
