
     RDKit          3D

 23 25  0  0  0  0  0  0  0  0999 V2000
    2.9223   -0.9472    0.4378 O   0  0  0  0  0  0  0  0  0  0  0  0
    2.3205    0.0871    0.2072 C   0  0  0  0  0  0  0  0  0  0  0  0
    2.8916    1.2818    0.4398 O   0  0  0  0  0  0  0  0  0  0  0  0
    0.9376    0.2131   -0.3824 C   0  0  0  0  0  0  0  0  0  0  0  0
    0.1957   -1.1476   -0.4555 C   0  0  0  0  0  0  0  0  0  0  0  0
   -0.3285   -1.3021    0.9792 C   0  0  0  0  0  0  0  0  0  0  0  0
   -1.0596    0.0278    0.9619 C   0  0  0  0  0  0  0  0  0  0  0  0
   -1.9239   -0.0008   -0.3007 C   0  0  0  0  0  0  0  0  0  0  0  0
   -1.9279    1.3529   -0.7559 O   0  0  0  0  0  0  0  0  0  0  0  0
   -0.8022    1.9880   -0.3107 C   0  0  0  0  0  0  0  0  0  0  0  0
   -0.4954    3.1333   -0.5891 O   0  0  0  0  0  0  0  0  0  0  0  0
    0.0022    1.0372    0.5219 C   0  0  0  0  0  0  0  0  0  0  0  0
   -1.1491   -0.9952   -1.2071 C   0  0  0  0  0  0  0  0  0  0  0  0
   -0.9785   -0.5087   -2.8971 Cl  0  0  0  0  0  0  0  0  0  0  0  0
    3.7923    1.0728    0.7667 H   0  0  0  0  0  0  0  0  0  0  0  0
    1.0718    0.6489   -1.3790 H   0  0  0  0  0  0  0  0  0  0  0  0
    0.8042   -1.9860   -0.8034 H   0  0  0  0  0  0  0  0  0  0  0  0
   -0.9991   -2.1585    1.1049 H   0  0  0  0  0  0  0  0  0  0  0  0
    0.4628   -1.3457    1.7337 H   0  0  0  0  0  0  0  0  0  0  0  0
   -1.5962    0.3118    1.8698 H   0  0  0  0  0  0  0  0  0  0  0  0
   -2.9478   -0.3373   -0.1115 H   0  0  0  0  0  0  0  0  0  0  0  0
    0.4737    1.5370    1.3715 H   0  0  0  0  0  0  0  0  0  0  0  0
   -1.6665   -1.9626   -1.2021 H   0  0  0  0  0  0  0  0  0  0  0  0
  1  2  2  0
  2  3  1  0
  2  4  1  0
  4  5  1  0
  5  6  1  0
  6  7  1  0
  7  8  1  0
  8  9  1  0
  9 10  1  0
 10 11  2  0
 10 12  1  0
  8 13  1  0
 13 14  1  0
 12  4  1  0
 13  5  1  0
 12  7  1  0
  3 15  1  0
  4 16  1  0
  5 17  1  0
  6 18  1  0
  6 19  1  0
  7 20  1  0
  8 21  1  0
 12 22  1  0
 13 23  1  0
M  END
$$$$
