
     RDKit          3D

 61 63  0  0  0  0  0  0  0  0999 V2000
    8.2967    1.4199    0.4666 C   0  0  0  0  0  0  0  0  0  0  0  0
    7.0700    1.7910    1.2799 C   0  0  0  0  0  0  0  0  0  0  0  0
    5.7795    1.5278    0.5066 C   0  0  0  0  0  0  0  0  0  0  0  0
    4.5578    1.9316    1.3252 C   0  0  0  0  0  0  0  0  0  0  0  0
    3.3275    1.5755    0.6510 N   0  0  0  0  0  0  0  0  0  0  0  0
    2.1355    2.2008    0.9462 C   0  0  0  0  0  0  0  0  0  0  0  0
    2.0757    3.1753    1.6906 O   0  0  0  0  0  0  0  0  0  0  0  0
    0.8914    1.5288    0.3360 C   0  0  0  0  0  0  0  0  0  0  0  0
   -0.3627    2.4251    0.4201 C   0  0  0  0  0  0  0  0  0  0  0  0
   -1.5024    1.7409    1.1462 C   0  0  0  0  0  0  0  0  0  0  0  0
   -2.6269    1.2839    0.4452 C   0  0  0  0  0  0  0  0  0  0  0  0
   -3.6611    0.6353    1.1163 C   0  0  0  0  0  0  0  0  0  0  0  0
   -3.5821    0.4370    2.4931 C   0  0  0  0  0  0  0  0  0  0  0  0
   -2.4747    0.9014    3.2019 C   0  0  0  0  0  0  0  0  0  0  0  0
   -1.4402    1.5536    2.5353 C   0  0  0  0  0  0  0  0  0  0  0  0
    1.1219    1.1578   -1.0772 N   0  0  0  0  0  0  0  0  0  0  0  0
    1.5096   -0.4078   -1.4837 S   0  0  0  0  0  6  0  0  0  0  0  0
    1.8042   -0.4176   -2.8950 O   0  0  0  0  0  0  0  0  0  0  0  0
    2.4677   -0.8671   -0.5026 O   0  0  0  0  0  0  0  0  0  0  0  0
   -0.0266   -1.2477   -1.2408 C   0  0  0  0  0  0  0  0  0  0  0  0
   -0.1762   -2.1539   -0.1939 C   0  0  0  0  0  0  0  0  0  0  0  0
   -1.4192   -2.7595    0.0213 C   0  0  0  0  0  0  0  0  0  0  0  0
   -2.5204   -2.4675   -0.8021 C   0  0  0  0  0  0  0  0  0  0  0  0
   -2.3369   -1.5722   -1.8555 C   0  0  0  0  0  0  0  0  0  0  0  0
   -1.0953   -0.9647   -2.0890 C   0  0  0  0  0  0  0  0  0  0  0  0
   -3.4805   -1.2225   -2.7100 C   0  0  0  0  0  0  0  0  0  0  0  0
   -3.3498   -0.3327   -3.5462 O   0  0  0  0  0  0  0  0  0  0  0  0
   -4.6604   -1.9128   -2.4840 N   0  0  0  0  0  0  0  0  0  0  0  0
   -5.7950   -1.5939   -3.3312 C   0  0  0  0  0  0  0  0  0  0  0  0
   -4.8934   -2.7491   -1.3996 C   0  0  0  0  0  0  0  0  0  0  0  0
   -6.0160   -3.2060   -1.1724 O   0  0  0  0  0  0  0  0  0  0  0  0
   -3.8043   -3.0296   -0.5783 N   0  0  0  0  0  0  0  0  0  0  0  0
   -4.0137   -3.9137    0.5616 C   0  0  0  0  0  0  0  0  0  0  0  0
    9.2053    1.5914    1.0514 H   0  0  0  0  0  0  0  0  0  0  0  0
    8.3630    2.0214   -0.4456 H   0  0  0  0  0  0  0  0  0  0  0  0
    8.2734    0.3636    0.1761 H   0  0  0  0  0  0  0  0  0  0  0  0
    7.0678    1.2125    2.2094 H   0  0  0  0  0  0  0  0  0  0  0  0
    7.1304    2.8479    1.5611 H   0  0  0  0  0  0  0  0  0  0  0  0
    5.7189    0.4647    0.2383 H   0  0  0  0  0  0  0  0  0  0  0  0
    5.7837    2.0897   -0.4358 H   0  0  0  0  0  0  0  0  0  0  0  0
    4.5508    1.4152    2.2891 H   0  0  0  0  0  0  0  0  0  0  0  0
    4.5688    3.0067    1.5233 H   0  0  0  0  0  0  0  0  0  0  0  0
    3.2661    0.6256    0.2794 H   0  0  0  0  0  0  0  0  0  0  0  0
    0.7395    0.6178    0.9303 H   0  0  0  0  0  0  0  0  0  0  0  0
   -0.7082    2.6977   -0.5882 H   0  0  0  0  0  0  0  0  0  0  0  0
   -0.1691    3.3848    0.9214 H   0  0  0  0  0  0  0  0  0  0  0  0
   -2.7138    1.4402   -0.6307 H   0  0  0  0  0  0  0  0  0  0  0  0
   -4.5338    0.2875    0.5659 H   0  0  0  0  0  0  0  0  0  0  0  0
   -4.3905   -0.0652    3.0129 H   0  0  0  0  0  0  0  0  0  0  0  0
   -2.4222    0.7670    4.2777 H   0  0  0  0  0  0  0  0  0  0  0  0
   -0.5890    1.9227    3.1036 H   0  0  0  0  0  0  0  0  0  0  0  0
    1.3632    1.8780   -1.7559 H   0  0  0  0  0  0  0  0  0  0  0  0
    0.6531   -2.3823    0.4723 H   0  0  0  0  0  0  0  0  0  0  0  0
   -1.5004   -3.4458    0.8592 H   0  0  0  0  0  0  0  0  0  0  0  0
   -0.9734   -0.2573   -2.9090 H   0  0  0  0  0  0  0  0  0  0  0  0
   -5.4741   -1.2270   -4.3114 H   0  0  0  0  0  0  0  0  0  0  0  0
   -6.3833   -0.8158   -2.8368 H   0  0  0  0  0  0  0  0  0  0  0  0
   -6.4259   -2.4755   -3.4772 H   0  0  0  0  0  0  0  0  0  0  0  0
   -5.0524   -4.2488    0.6419 H   0  0  0  0  0  0  0  0  0  0  0  0
   -3.7663   -3.3809    1.4874 H   0  0  0  0  0  0  0  0  0  0  0  0
   -3.3810   -4.8027    0.4526 H   0  0  0  0  0  0  0  0  0  0  0  0
  1  2  1  0
  2  3  1  0
  3  4  1  0
  4  5  1  0
  5  6  1  0
  6  7  2  0
  6  8  1  0
  8  9  1  0
  9 10  1  0
 10 11  2  0
 11 12  1  0
 12 13  2  0
 13 14  1  0
 14 15  2  0
  8 16  1  0
 16 17  1  0
 17 18  2  0
 17 19  2  0
 17 20  1  0
 20 21  2  0
 21 22  1  0
 22 23  2  0
 23 24  1  0
 24 25  2  0
 24 26  1  0
 26 27  2  0
 26 28  1  0
 28 29  1  0
 28 30  1  0
 30 31  2  0
 30 32  1  0
 32 33  1  0
 15 10  1  0
 25 20  1  0
 32 23  1  0
  1 34  1  0
  1 35  1  0
  1 36  1  0
  2 37  1  0
  2 38  1  0
  3 39  1  0
  3 40  1  0
  4 41  1  0
  4 42  1  0
  5 43  1  0
  8 44  1  0
  9 45  1  0
  9 46  1  0
 11 47  1  0
 12 48  1  0
 13 49  1  0
 14 50  1  0
 15 51  1  0
 16 52  1  0
 21 53  1  0
 22 54  1  0
 25 55  1  0
 29 56  1  0
 29 57  1  0
 29 58  1  0
 33 59  1  0
 33 60  1  0
 33 61  1  0
M  END
$$$$
