
     RDKit          3D

 48 50  0  0  0  0  0  0  0  0999 V2000
    5.2697   -4.3892   -0.2950 C   0  0  0  0  0  0  0  0  0  0  0  0
    5.2809   -2.8899   -0.5409 C   0  0  0  0  0  0  0  0  0  0  0  0
    3.9659   -2.2484   -0.1169 C   0  0  0  0  0  0  0  0  0  0  0  0
    3.9729   -0.4922   -0.4270 S   0  0  0  0  0  6  0  0  0  0  0  0
    4.9306    0.1398    0.4602 O   0  0  0  0  0  0  0  0  0  0  0  0
    3.9760   -0.2631   -1.8594 O   0  0  0  0  0  0  0  0  0  0  0  0
    2.3742    0.0200    0.1381 C   0  0  0  0  0  0  0  0  0  0  0  0
    1.4171   -0.7786    0.5567 N   0  0  0  0  0  0  0  0  0  0  0  0
    0.3200    0.0012    0.9388 C   0  0  0  0  0  0  0  0  0  0  0  0
   -1.1382   -0.7697    1.5257 S   0  0  0  0  0  6  0  0  0  0  0  0
   -1.8896    0.2636    2.2176 O   0  0  0  0  0  0  0  0  0  0  0  0
   -0.6846   -1.9680    2.2059 O   0  0  0  0  0  0  0  0  0  0  0  0
   -2.0094   -1.2257    0.0552 C   0  0  0  0  0  0  0  0  0  0  0  0
   -2.7842   -0.2713   -0.6091 C   0  0  0  0  0  0  0  0  0  0  0  0
   -3.4815   -0.6347   -1.7623 C   0  0  0  0  0  0  0  0  0  0  0  0
   -3.4235   -1.9497   -2.2433 C   0  0  0  0  0  0  0  0  0  0  0  0
   -4.1520   -2.3255   -3.5007 C   0  0  0  0  0  0  0  0  0  0  0  0
   -2.6401   -2.8952   -1.5674 C   0  0  0  0  0  0  0  0  0  0  0  0
   -1.9399   -2.5398   -0.4135 C   0  0  0  0  0  0  0  0  0  0  0  0
    0.4597    1.3795    0.7778 C   0  0  0  0  0  0  0  0  0  0  0  0
   -0.4576    2.3554    1.0428 N   0  0  0  0  0  0  0  0  0  0  0  0
   -0.0999    3.7661    1.1695 C   0  0  0  0  0  0  0  0  0  0  0  0
   -1.2507    4.6337    1.5562 C   0  0  0  0  0  0  0  0  0  0  0  0
   -2.0170    4.7307    2.7008 C   0  0  0  0  0  0  0  0  0  0  0  0
   -2.9709    5.7479    2.4572 C   0  0  0  0  0  0  0  0  0  0  0  0
   -2.7267    6.2057    1.1838 C   0  0  0  0  0  0  0  0  0  0  0  0
   -1.6842    5.5360    0.6288 O   0  0  0  0  0  0  0  0  0  0  0  0
    2.0334    1.6858    0.1292 S   0  0  0  0  0  0  0  0  0  0  0  0
    5.1160   -4.6125    0.7657 H   0  0  0  0  0  0  0  0  0  0  0  0
    4.4720   -4.8742   -0.8666 H   0  0  0  0  0  0  0  0  0  0  0  0
    6.2232   -4.8309   -0.6007 H   0  0  0  0  0  0  0  0  0  0  0  0
    6.1142   -2.4377    0.0100 H   0  0  0  0  0  0  0  0  0  0  0  0
    5.4660   -2.6991   -1.6043 H   0  0  0  0  0  0  0  0  0  0  0  0
    3.1292   -2.6797   -0.6763 H   0  0  0  0  0  0  0  0  0  0  0  0
    3.7961   -2.3921    0.9555 H   0  0  0  0  0  0  0  0  0  0  0  0
   -2.8509    0.7517   -0.2441 H   0  0  0  0  0  0  0  0  0  0  0  0
   -4.0760    0.1136   -2.2832 H   0  0  0  0  0  0  0  0  0  0  0  0
   -3.5408   -2.0801   -4.3748 H   0  0  0  0  0  0  0  0  0  0  0  0
   -4.3789   -3.3969   -3.5191 H   0  0  0  0  0  0  0  0  0  0  0  0
   -5.1054   -1.7909   -3.5706 H   0  0  0  0  0  0  0  0  0  0  0  0
   -2.5752   -3.9175   -1.9356 H   0  0  0  0  0  0  0  0  0  0  0  0
   -1.3457   -3.2891    0.1059 H   0  0  0  0  0  0  0  0  0  0  0  0
   -1.2604    2.1002    1.6298 H   0  0  0  0  0  0  0  0  0  0  0  0
    0.6786    3.8801    1.9344 H   0  0  0  0  0  0  0  0  0  0  0  0
    0.3134    4.1293    0.2207 H   0  0  0  0  0  0  0  0  0  0  0  0
   -1.9024    4.1363    3.5972 H   0  0  0  0  0  0  0  0  0  0  0  0
   -3.7429    6.1029    3.1254 H   0  0  0  0  0  0  0  0  0  0  0  0
   -3.1806    6.9625    0.5595 H   0  0  0  0  0  0  0  0  0  0  0  0
  1  2  1  0
  2  3  1  0
  3  4  1  0
  4  5  2  0
  4  6  2  0
  4  7  1  0
  7  8  2  0
  8  9  1  0
  9 10  1  0
 10 11  2  0
 10 12  2  0
 10 13  1  0
 13 14  2  0
 14 15  1  0
 15 16  2  0
 16 17  1  0
 16 18  1  0
 18 19  2  0
  9 20  2  0
 20 21  1  0
 21 22  1  0
 22 23  1  0
 23 24  2  0
 24 25  1  0
 25 26  2  0
 26 27  1  0
 20 28  1  0
 28  7  1  0
 19 13  1  0
 27 23  1  0
  1 29  1  0
  1 30  1  0
  1 31  1  0
  2 32  1  0
  2 33  1  0
  3 34  1  0
  3 35  1  0
 14 36  1  0
 15 37  1  0
 17 38  1  0
 17 39  1  0
 17 40  1  0
 18 41  1  0
 19 42  1  0
 21 43  1  0
 22 44  1  0
 22 45  1  0
 24 46  1  0
 25 47  1  0
 26 48  1  0
M  END
$$$$
