
     RDKit          3D

 53 57  0  0  0  0  0  0  0  0999 V2000
    8.3901    1.3993    0.6092 C   0  0  0  0  0  0  0  0  0  0  0  0
    7.7055    0.6778   -0.4068 O   0  0  0  0  0  0  0  0  0  0  0  0
    6.3462    0.5957   -0.2951 C   0  0  0  0  0  0  0  0  0  0  0  0
    5.7210   -0.1651   -1.2798 C   0  0  0  0  0  0  0  0  0  0  0  0
    4.3301   -0.3333   -1.2862 C   0  0  0  0  0  0  0  0  0  0  0  0
    3.5285    0.2628   -0.2996 C   0  0  0  0  0  0  0  0  0  0  0  0
    2.0983    0.0877   -0.3134 N   0  0  0  0  0  0  0  0  0  0  0  0
    1.3932   -0.5751   -1.3078 C   0  0  0  0  0  0  0  0  0  0  0  0
    0.0482   -0.5539   -1.0163 C   0  0  0  0  0  0  0  0  0  0  0  0
   -0.9339   -1.1816   -1.8721 C   0  0  0  0  0  0  0  0  0  0  0  0
   -1.5879   -0.4333   -2.8559 C   0  0  0  0  0  0  0  0  0  0  0  0
   -2.5634   -1.0333   -3.6537 C   0  0  0  0  0  0  0  0  0  0  0  0
   -2.8883   -2.3773   -3.4679 C   0  0  0  0  0  0  0  0  0  0  0  0
   -2.2388   -3.1249   -2.4852 C   0  0  0  0  0  0  0  0  0  0  0  0
   -1.2618   -2.5291   -1.6865 C   0  0  0  0  0  0  0  0  0  0  0  0
   -0.1168    0.1436    0.2092 C   0  0  0  0  0  0  0  0  0  0  0  0
   -1.2140    0.4926    1.0308 C   0  0  0  0  0  0  0  0  0  0  0  0
   -2.5497    0.1650    0.6738 N   0  0  0  0  0  0  0  0  0  0  0  0
   -3.5075   -0.0018    1.7165 N   0  0  0  0  0  0  0  0  0  0  0  0
   -4.5780   -0.9302    1.2906 C   0  0  0  0  0  0  0  0  0  0  0  0
   -5.8066   -0.2115    0.7210 C   0  0  0  0  0  0  0  0  0  0  0  0
   -6.4313    0.6561    1.6753 O   0  0  0  0  0  0  0  0  0  0  0  0
   -5.5006    1.2109    2.6161 C   0  0  0  0  0  0  0  0  0  0  0  0
   -4.0751    1.3281    2.0576 C   0  0  0  0  0  0  0  0  0  0  0  0
   -0.9531    1.1815    2.1704 N   0  0  0  0  0  0  0  0  0  0  0  0
    0.3152    1.4819    2.4721 C   0  0  0  0  0  0  0  0  0  0  0  0
    1.4157    1.1979    1.7685 N   0  0  0  0  0  0  0  0  0  0  0  0
    1.1576    0.5258    0.6288 C   0  0  0  0  0  0  0  0  0  0  0  0
    4.1684    1.0285    0.6842 C   0  0  0  0  0  0  0  0  0  0  0  0
    5.5632    1.1928    0.6868 C   0  0  0  0  0  0  0  0  0  0  0  0
    8.0961    2.4540    0.6108 H   0  0  0  0  0  0  0  0  0  0  0  0
    9.4608    1.3530    0.3880 H   0  0  0  0  0  0  0  0  0  0  0  0
    8.2328    0.9432    1.5922 H   0  0  0  0  0  0  0  0  0  0  0  0
    6.3227   -0.6404   -2.0522 H   0  0  0  0  0  0  0  0  0  0  0  0
    3.9232   -0.9513   -2.0794 H   0  0  0  0  0  0  0  0  0  0  0  0
    1.8875   -1.0105   -2.1633 H   0  0  0  0  0  0  0  0  0  0  0  0
   -1.3451    0.6166   -3.0046 H   0  0  0  0  0  0  0  0  0  0  0  0
   -3.0687   -0.4530   -4.4226 H   0  0  0  0  0  0  0  0  0  0  0  0
   -3.6459   -2.8436   -4.0935 H   0  0  0  0  0  0  0  0  0  0  0  0
   -2.4904   -4.1730   -2.3445 H   0  0  0  0  0  0  0  0  0  0  0  0
   -0.7624   -3.1189   -0.9200 H   0  0  0  0  0  0  0  0  0  0  0  0
   -2.5368   -0.5553   -0.0459 H   0  0  0  0  0  0  0  0  0  0  0  0
   -4.8874   -1.4882    2.1836 H   0  0  0  0  0  0  0  0  0  0  0  0
   -4.2096   -1.6794    0.5792 H   0  0  0  0  0  0  0  0  0  0  0  0
   -6.5571   -0.9438    0.4078 H   0  0  0  0  0  0  0  0  0  0  0  0
   -5.5424    0.3795   -0.1639 H   0  0  0  0  0  0  0  0  0  0  0  0
   -5.8755    2.1991    2.9018 H   0  0  0  0  0  0  0  0  0  0  0  0
   -5.5144    0.5881    3.5180 H   0  0  0  0  0  0  0  0  0  0  0  0
   -3.4403    1.8134    2.8066 H   0  0  0  0  0  0  0  0  0  0  0  0
   -4.1095    1.9741    1.1690 H   0  0  0  0  0  0  0  0  0  0  0  0
    0.4663    2.0236    3.4007 H   0  0  0  0  0  0  0  0  0  0  0  0
    3.6236    1.5338    1.4744 H   0  0  0  0  0  0  0  0  0  0  0  0
    5.9979    1.8015    1.4732 H   0  0  0  0  0  0  0  0  0  0  0  0
  1  2  1  0
  2  3  1  0
  3  4  2  0
  4  5  1  0
  5  6  2  0
  6  7  1  0
  7  8  1  0
  8  9  2  0
  9 10  1  0
 10 11  2  0
 11 12  1  0
 12 13  2  0
 13 14  1  0
 14 15  2  0
  9 16  1  0
 16 17  2  0
 17 18  1  0
 18 19  1  0
 19 20  1  0
 20 21  1  0
 21 22  1  0
 22 23  1  0
 23 24  1  0
 17 25  1  0
 25 26  2  0
 26 27  1  0
 27 28  2  0
  6 29  1  0
 29 30  2  0
 30  3  1  0
 28  7  1  0
 15 10  1  0
 28 16  1  0
 24 19  1  0
  1 31  1  0
  1 32  1  0
  1 33  1  0
  4 34  1  0
  5 35  1  0
  8 36  1  0
 11 37  1  0
 12 38  1  0
 13 39  1  0
 14 40  1  0
 15 41  1  0
 18 42  1  0
 20 43  1  0
 20 44  1  0
 21 45  1  0
 21 46  1  0
 23 47  1  0
 23 48  1  0
 24 49  1  0
 24 50  1  0
 26 51  1  0
 29 52  1  0
 30 53  1  0
M  END
$$$$
