
     RDKit          3D

 57 60  0  0  0  0  0  0  0  0999 V2000
   -3.3995    2.7134   -1.1475 C   0  0  0  0  0  0  0  0  0  0  0  0
   -4.4316    2.1364   -0.2520 C   0  0  0  0  0  0  0  0  0  0  0  0
   -5.6940    2.5758   -0.3246 N   0  0  0  0  0  0  0  0  0  0  0  0
   -6.4019    1.8520    0.6113 O   0  0  0  0  0  0  0  0  0  0  0  0
   -5.5683    0.9867    1.2424 C   0  0  0  0  0  0  0  0  0  0  0  0
   -6.1796    0.1375    2.2818 C   0  0  0  0  0  0  0  0  0  0  0  0
   -4.2935    1.1152    0.7307 C   0  0  0  0  0  0  0  0  0  0  0  0
   -3.0720    0.3700    1.1365 C   0  0  0  0  0  0  0  0  0  0  0  0
   -2.1816    0.0655    0.0584 O   0  0  0  0  0  0  0  0  0  0  0  0
   -2.5313   -0.8921   -0.8540 C   0  0  0  0  0  0  0  0  0  0  0  0
   -3.5711   -1.8118   -0.6935 C   0  0  0  0  0  0  0  0  0  0  0  0
   -3.8614   -2.7377   -1.7034 C   0  0  0  0  0  0  0  0  0  0  0  0
   -3.1214   -2.7539   -2.8846 C   0  0  0  0  0  0  0  0  0  0  0  0
   -2.0784   -1.8487   -3.0571 C   0  0  0  0  0  0  0  0  0  0  0  0
   -1.7759   -0.9379   -2.0373 C   0  0  0  0  0  0  0  0  0  0  0  0
   -0.6731    0.0148   -2.2819 C   0  0  0  0  0  0  0  0  0  0  0  0
   -0.8453    0.8837   -3.1335 O   0  0  0  0  0  0  0  0  0  0  0  0
    0.5080   -0.1377   -1.5675 N   0  0  0  0  0  0  0  0  0  0  0  0
    0.7947   -1.2425   -0.6457 C   0  0  0  0  0  0  0  0  0  0  0  0
    2.3027   -1.4986   -0.4615 C   0  0  0  0  0  0  0  0  0  0  0  0
    3.0086   -0.2785   -0.0363 N   0  0  0  0  0  0  0  0  0  0  0  0
    4.2312   -0.3360    0.6151 C   0  0  0  0  0  0  0  0  0  0  0  0
    5.0230   -1.4950    0.6182 C   0  0  0  0  0  0  0  0  0  0  0  0
    6.2539   -1.5538    1.2818 C   0  0  0  0  0  0  0  0  0  0  0  0
    6.7292   -0.4437    1.9696 C   0  0  0  0  0  0  0  0  0  0  0  0
    5.9770    0.7340    1.9932 C   0  0  0  0  0  0  0  0  0  0  0  0
    6.4595    1.9382    2.7600 C   0  0  0  0  0  0  0  0  0  0  0  0
    6.0214    3.1185    2.2383 F   0  0  0  0  0  0  0  0  0  0  0  0
    7.8182    2.0360    2.8032 F   0  0  0  0  0  0  0  0  0  0  0  0
    6.0454    1.9274    4.0573 F   0  0  0  0  0  0  0  0  0  0  0  0
    4.7375    0.7668    1.3239 C   0  0  0  0  0  0  0  0  0  0  0  0
    2.4674    1.0105   -0.5139 C   0  0  0  0  0  0  0  0  0  0  0  0
    1.5776    0.8409   -1.7585 C   0  0  0  0  0  0  0  0  0  0  0  0
   -2.4245    2.7518   -0.6520 H   0  0  0  0  0  0  0  0  0  0  0  0
   -3.3059    2.1092   -2.0551 H   0  0  0  0  0  0  0  0  0  0  0  0
   -3.6590    3.7351   -1.4439 H   0  0  0  0  0  0  0  0  0  0  0  0
   -5.5294    0.0720    3.1596 H   0  0  0  0  0  0  0  0  0  0  0  0
   -7.1445    0.5384    2.6072 H   0  0  0  0  0  0  0  0  0  0  0  0
   -6.3415   -0.8741    1.8971 H   0  0  0  0  0  0  0  0  0  0  0  0
   -3.3012   -0.5344    1.7119 H   0  0  0  0  0  0  0  0  0  0  0  0
   -2.5053    1.0129    1.8213 H   0  0  0  0  0  0  0  0  0  0  0  0
   -4.1877   -1.8358    0.1983 H   0  0  0  0  0  0  0  0  0  0  0  0
   -4.6813   -3.4407   -1.5716 H   0  0  0  0  0  0  0  0  0  0  0  0
   -3.3650   -3.4624   -3.6725 H   0  0  0  0  0  0  0  0  0  0  0  0
   -1.5071   -1.8417   -3.9824 H   0  0  0  0  0  0  0  0  0  0  0  0
    0.3514   -0.9723    0.3199 H   0  0  0  0  0  0  0  0  0  0  0  0
    0.3076   -2.1575   -0.9970 H   0  0  0  0  0  0  0  0  0  0  0  0
    2.7339   -1.8536   -1.4056 H   0  0  0  0  0  0  0  0  0  0  0  0
    2.4110   -2.2927    0.2868 H   0  0  0  0  0  0  0  0  0  0  0  0
    4.7067   -2.3831    0.0783 H   0  0  0  0  0  0  0  0  0  0  0  0
    6.8385   -2.4700    1.2547 H   0  0  0  0  0  0  0  0  0  0  0  0
    7.6862   -0.4991    2.4856 H   0  0  0  0  0  0  0  0  0  0  0  0
    4.1513    1.6823    1.3869 H   0  0  0  0  0  0  0  0  0  0  0  0
    3.2750    1.7031   -0.7803 H   0  0  0  0  0  0  0  0  0  0  0  0
    1.8807    1.4632    0.2945 H   0  0  0  0  0  0  0  0  0  0  0  0
    1.1536    1.8099   -2.0446 H   0  0  0  0  0  0  0  0  0  0  0  0
    2.1813    0.4844   -2.6025 H   0  0  0  0  0  0  0  0  0  0  0  0
  1  2  1  0
  2  3  2  0
  3  4  1  0
  4  5  1  0
  5  6  1  0
  5  7  2  0
  7  8  1  0
  8  9  1  0
  9 10  1  0
 10 11  2  0
 11 12  1  0
 12 13  2  0
 13 14  1  0
 14 15  2  0
 15 16  1  0
 16 17  2  0
 16 18  1  0
 18 19  1  0
 19 20  1  0
 20 21  1  0
 21 22  1  0
 22 23  2  0
 23 24  1  0
 24 25  2  0
 25 26  1  0
 26 27  1  0
 27 28  1  0
 27 29  1  0
 27 30  1  0
 26 31  2  0
 21 32  1  0
 32 33  1  0
  7  2  1  0
 15 10  1  0
 33 18  1  0
 31 22  1  0
  1 34  1  0
  1 35  1  0
  1 36  1  0
  6 37  1  0
  6 38  1  0
  6 39  1  0
  8 40  1  0
  8 41  1  0
 11 42  1  0
 12 43  1  0
 13 44  1  0
 14 45  1  0
 19 46  1  0
 19 47  1  0
 20 48  1  0
 20 49  1  0
 23 50  1  0
 24 51  1  0
 25 52  1  0
 31 53  1  0
 32 54  1  0
 32 55  1  0
 33 56  1  0
 33 57  1  0
M  END
$$$$
