
     RDKit          3D

 44 45  0  0  0  0  0  0  0  0999 V2000
    1.9815    2.9094   -3.2156 C   0  0  0  0  0  0  0  0  0  0  0  0
    1.3221    1.6512   -2.6711 C   0  0  0  0  0  0  0  0  0  0  0  0
    1.7148    0.4185   -3.4860 C   0  0  0  0  0  0  0  0  0  0  0  0
    1.0330   -0.8733   -3.0195 C   0  0  0  0  0  0  0  0  0  0  0  0
    1.5034   -1.3025   -1.6876 N   0  0  0  0  0  0  0  0  0  0  0  0
    2.7979   -1.9956   -1.7134 C   0  0  0  0  0  0  0  0  0  0  0  0
    0.7246   -1.2107   -0.5159 C   0  0  0  0  0  0  0  0  0  0  0  0
   -0.4129   -0.4932   -0.4032 C   0  0  0  0  0  0  0  0  0  0  0  0
   -1.1467   -0.3594    0.8415 C   0  0  0  0  0  0  0  0  0  0  0  0
   -1.7983    0.7836    1.1293 C   0  0  0  0  0  0  0  0  0  0  0  0
   -2.4522    1.0471    2.4163 C   0  0  0  0  0  0  0  0  0  0  0  0
   -3.1221    2.1987    2.6806 C   0  0  0  0  0  0  0  0  0  0  0  0
   -3.7577    2.4134    3.9396 C   0  0  0  0  0  0  0  0  0  0  0  0
   -4.2707    2.5722    4.9686 N   0  0  0  0  0  0  0  0  0  0  0  0
   -3.2520    3.2461    1.7212 C   0  0  0  0  0  0  0  0  0  0  0  0
   -3.3527    4.0925    0.9333 N   0  0  0  0  0  0  0  0  0  0  0  0
   -2.3122   -0.0598    3.4581 C   0  0  0  0  0  0  0  0  0  0  0  0
   -1.0854   -0.9552    3.2492 C   0  0  0  0  0  0  0  0  0  0  0  0
   -1.0823   -1.5078    1.8206 C   0  0  0  0  0  0  0  0  0  0  0  0
    0.0735   -2.4879    1.5787 C   0  0  0  0  0  0  0  0  0  0  0  0
    1.2171   -1.9127    0.7458 C   0  0  0  0  0  0  0  0  0  0  0  0
    1.6877    3.7791   -2.6197 H   0  0  0  0  0  0  0  0  0  0  0  0
    3.0725    2.8266   -3.1812 H   0  0  0  0  0  0  0  0  0  0  0  0
    1.6827    3.0919   -4.2528 H   0  0  0  0  0  0  0  0  0  0  0  0
    1.6188    1.5253   -1.6244 H   0  0  0  0  0  0  0  0  0  0  0  0
    0.2345    1.7822   -2.6938 H   0  0  0  0  0  0  0  0  0  0  0  0
    1.4408    0.5866   -4.5352 H   0  0  0  0  0  0  0  0  0  0  0  0
    2.8047    0.3018   -3.4632 H   0  0  0  0  0  0  0  0  0  0  0  0
    1.2588   -1.6678   -3.7432 H   0  0  0  0  0  0  0  0  0  0  0  0
   -0.0561   -0.7630   -3.0574 H   0  0  0  0  0  0  0  0  0  0  0  0
    3.3448   -1.8119   -2.6445 H   0  0  0  0  0  0  0  0  0  0  0  0
    2.6501   -3.0774   -1.6299 H   0  0  0  0  0  0  0  0  0  0  0  0
    3.4397   -1.6509   -0.8956 H   0  0  0  0  0  0  0  0  0  0  0  0
   -0.7761    0.0992   -1.2354 H   0  0  0  0  0  0  0  0  0  0  0  0
   -1.7951    1.5770    0.3821 H   0  0  0  0  0  0  0  0  0  0  0  0
   -3.2160   -0.6825    3.4214 H   0  0  0  0  0  0  0  0  0  0  0  0
   -2.2459    0.3544    4.4707 H   0  0  0  0  0  0  0  0  0  0  0  0
   -0.1669   -0.3859    3.4444 H   0  0  0  0  0  0  0  0  0  0  0  0
   -1.1146   -1.7771    3.9748 H   0  0  0  0  0  0  0  0  0  0  0  0
   -2.0080   -2.0902    1.6968 H   0  0  0  0  0  0  0  0  0  0  0  0
    0.4649   -2.8829    2.5239 H   0  0  0  0  0  0  0  0  0  0  0  0
   -0.3276   -3.3582    1.0394 H   0  0  0  0  0  0  0  0  0  0  0  0
    1.8813   -2.7501    0.5104 H   0  0  0  0  0  0  0  0  0  0  0  0
    1.8020   -1.2009    1.3419 H   0  0  0  0  0  0  0  0  0  0  0  0
  1  2  1  0
  2  3  1  0
  3  4  1  0
  4  5  1  0
  5  6  1  0
  5  7  1  0
  7  8  2  0
  8  9  1  0
  9 10  2  0
 10 11  1  0
 11 12  2  3
 12 13  1  0
 13 14  3  0
 12 15  1  0
 15 16  3  0
 11 17  1  0
 17 18  1  0
 18 19  1  0
 19 20  1  0
 20 21  1  0
 21  7  1  0
 19  9  1  0
  1 22  1  0
  1 23  1  0
  1 24  1  0
  2 25  1  0
  2 26  1  0
  3 27  1  0
  3 28  1  0
  4 29  1  0
  4 30  1  0
  6 31  1  0
  6 32  1  0
  6 33  1  0
  8 34  1  0
 10 35  1  0
 17 36  1  0
 17 37  1  0
 18 38  1  0
 18 39  1  0
 19 40  1  0
 20 41  1  0
 20 42  1  0
 21 43  1  0
 21 44  1  0
M  END
$$$$
