
     RDKit          3D

 65 68  0  0  0  0  0  0  0  0999 V2000
   -3.2351   -0.4629    4.8684 C   0  0  0  0  0  0  0  0  0  0  0  0
   -3.8242   -0.1312    3.5294 C   0  0  0  0  0  0  0  0  0  0  0  0
   -5.1752    0.2145    3.4137 C   0  0  0  0  0  0  0  0  0  0  0  0
   -5.7157    0.5591    2.1724 C   0  0  0  0  0  0  0  0  0  0  0  0
   -4.9123    0.5669    1.0264 C   0  0  0  0  0  0  0  0  0  0  0  0
   -5.4829    0.9804   -0.3116 C   0  0  0  0  0  0  0  0  0  0  0  0
   -5.4106    2.4964   -0.5294 C   0  0  0  0  0  0  0  0  0  0  0  0
   -4.0442    2.9808   -0.6103 N   0  0  0  0  0  0  0  0  0  0  0  0
   -3.3198    2.8985   -1.7804 C   0  0  0  0  0  0  0  0  0  0  0  0
   -3.8097    2.5713   -2.8548 O   0  0  0  0  0  0  0  0  0  0  0  0
   -1.8604    3.2645   -1.5898 C   0  0  0  0  0  0  0  0  0  0  0  0
   -1.0477    3.2162   -2.8817 C   0  0  0  0  0  0  0  0  0  0  0  0
   -0.8231    1.8053   -3.4347 C   0  0  0  0  0  0  0  0  0  0  0  0
   -0.0380    0.9492   -2.5486 N   0  0  0  0  0  0  0  0  0  0  0  0
   -0.7469   -0.0744   -1.9069 N   0  0  0  0  0  0  0  0  0  0  0  0
   -0.1353   -0.9558   -1.1660 C   0  0  0  0  0  0  0  0  0  0  0  0
   -0.9486   -2.0551   -0.5439 C   0  0  0  0  0  0  0  0  0  0  0  0
    1.2897   -0.8514   -0.9712 C   0  0  0  0  0  0  0  0  0  0  0  0
    2.2131   -1.5453   -0.2063 C   0  0  0  0  0  0  0  0  0  0  0  0
    2.0025   -2.6017    0.8172 C   0  0  0  0  0  0  0  0  0  0  0  0
    3.4588   -1.0005   -0.5451 N   0  0  0  0  0  0  0  0  0  0  0  0
    4.7832   -1.4423   -0.2370 C   0  0  0  0  0  0  0  0  0  0  0  0
    5.0630   -2.7519    0.1673 C   0  0  0  0  0  0  0  0  0  0  0  0
    6.3784   -3.1402    0.4515 C   0  0  0  0  0  0  0  0  0  0  0  0
    7.4343   -2.2306    0.3356 C   0  0  0  0  0  0  0  0  0  0  0  0
    8.8453   -2.6600    0.6074 C   0  0  0  0  0  0  0  0  0  0  0  0
    7.1625   -0.9336   -0.1073 C   0  0  0  0  0  0  0  0  0  0  0  0
    5.8512   -0.5430   -0.3942 C   0  0  0  0  0  0  0  0  0  0  0  0
    3.3069    0.1278   -1.2903 N   0  0  0  0  0  0  0  0  0  0  0  0
    2.0104    0.1659   -1.6047 C   0  0  0  0  0  0  0  0  0  0  0  0
    1.3586    1.1409   -2.4696 C   0  0  0  0  0  0  0  0  0  0  0  0
    1.9593    2.0334   -3.0638 O   0  0  0  0  0  0  0  0  0  0  0  0
   -3.5577    0.2318    1.1454 C   0  0  0  0  0  0  0  0  0  0  0  0
   -3.0167   -0.1064    2.3874 C   0  0  0  0  0  0  0  0  0  0  0  0
   -2.4240   -1.1919    4.7675 H   0  0  0  0  0  0  0  0  0  0  0  0
   -3.9883   -0.9052    5.5287 H   0  0  0  0  0  0  0  0  0  0  0  0
   -2.8407    0.4432    5.3382 H   0  0  0  0  0  0  0  0  0  0  0  0
   -5.8178    0.2195    4.2916 H   0  0  0  0  0  0  0  0  0  0  0  0
   -6.7683    0.8259    2.1087 H   0  0  0  0  0  0  0  0  0  0  0  0
   -6.5289    0.6546   -0.3694 H   0  0  0  0  0  0  0  0  0  0  0  0
   -4.9545    0.4503   -1.1141 H   0  0  0  0  0  0  0  0  0  0  0  0
   -5.9311    2.7564   -1.4578 H   0  0  0  0  0  0  0  0  0  0  0  0
   -5.8941    3.0352    0.2927 H   0  0  0  0  0  0  0  0  0  0  0  0
   -3.5412    3.0891    0.2622 H   0  0  0  0  0  0  0  0  0  0  0  0
   -1.4250    2.6066   -0.8301 H   0  0  0  0  0  0  0  0  0  0  0  0
   -1.8302    4.2887   -1.1980 H   0  0  0  0  0  0  0  0  0  0  0  0
   -1.5487    3.8155   -3.6521 H   0  0  0  0  0  0  0  0  0  0  0  0
   -0.0789    3.6945   -2.6957 H   0  0  0  0  0  0  0  0  0  0  0  0
   -1.7710    1.3054   -3.6587 H   0  0  0  0  0  0  0  0  0  0  0  0
   -0.2788    1.8864   -4.3837 H   0  0  0  0  0  0  0  0  0  0  0  0
   -1.0279   -1.8885    0.5329 H   0  0  0  0  0  0  0  0  0  0  0  0
   -1.9571   -2.0690   -0.9686 H   0  0  0  0  0  0  0  0  0  0  0  0
   -0.4792   -3.0242   -0.7317 H   0  0  0  0  0  0  0  0  0  0  0  0
    1.0351   -2.4803    1.3118 H   0  0  0  0  0  0  0  0  0  0  0  0
    2.7465   -2.5509    1.6175 H   0  0  0  0  0  0  0  0  0  0  0  0
    2.0223   -3.5950    0.3595 H   0  0  0  0  0  0  0  0  0  0  0  0
    4.2993   -3.5180    0.2247 H   0  0  0  0  0  0  0  0  0  0  0  0
    6.5750   -4.1676    0.7521 H   0  0  0  0  0  0  0  0  0  0  0  0
    9.4404   -1.8244    0.9892 H   0  0  0  0  0  0  0  0  0  0  0  0
    8.8746   -3.4508    1.3637 H   0  0  0  0  0  0  0  0  0  0  0  0
    9.3070   -3.0330   -0.3115 H   0  0  0  0  0  0  0  0  0  0  0  0
    7.9688   -0.2143   -0.2367 H   0  0  0  0  0  0  0  0  0  0  0  0
    5.6783    0.4778   -0.7339 H   0  0  0  0  0  0  0  0  0  0  0  0
   -2.9155    0.2446    0.2671 H   0  0  0  0  0  0  0  0  0  0  0  0
   -1.9594   -0.3492    2.4595 H   0  0  0  0  0  0  0  0  0  0  0  0
  1  2  1  0
  2  3  2  0
  3  4  1  0
  4  5  2  0
  5  6  1  0
  6  7  1  0
  7  8  1  0
  8  9  1  0
  9 10  2  0
  9 11  1  0
 11 12  1  0
 12 13  1  0
 13 14  1  0
 14 15  1  0
 15 16  2  0
 16 17  1  0
 16 18  1  0
 18 19  2  0
 19 20  1  0
 19 21  1  0
 21 22  1  0
 22 23  2  0
 23 24  1  0
 24 25  2  0
 25 26  1  0
 25 27  1  0
 27 28  2  0
 21 29  1  0
 29 30  2  0
 30 31  1  0
 31 32  2  0
  5 33  1  0
 33 34  2  0
 34  2  1  0
 31 14  1  0
 30 18  1  0
 28 22  1  0
  1 35  1  0
  1 36  1  0
  1 37  1  0
  3 38  1  0
  4 39  1  0
  6 40  1  0
  6 41  1  0
  7 42  1  0
  7 43  1  0
  8 44  1  0
 11 45  1  0
 11 46  1  0
 12 47  1  0
 12 48  1  0
 13 49  1  0
 13 50  1  0
 17 51  1  0
 17 52  1  0
 17 53  1  0
 20 54  1  0
 20 55  1  0
 20 56  1  0
 23 57  1  0
 24 58  1  0
 26 59  1  0
 26 60  1  0
 26 61  1  0
 27 62  1  0
 28 63  1  0
 33 64  1  0
 34 65  1  0
M  END
$$$$
