
     RDKit          3D

 45 49  0  0  0  0  0  0  0  0999 V2000
   -1.3599    2.7403   -0.0450 O   0  0  0  0  0  0  0  0  0  0  0  0
   -1.3027    1.5111    0.0162 C   0  0  0  0  0  0  0  0  0  0  0  0
    0.0416    0.8767    0.0366 C   0  0  0  0  0  0  0  0  0  0  0  0
    1.2566    1.5572    0.2994 C   0  0  0  0  0  0  0  0  0  0  0  0
    2.2528    0.6214    0.1743 C   0  0  0  0  0  0  0  0  0  0  0  0
    3.6046    0.7204    0.3252 N   0  0  0  0  0  0  0  0  0  0  0  0
    4.3209   -0.3570    0.1364 C   0  0  0  0  0  0  0  0  0  0  0  0
    5.7682   -0.2275    0.3022 C   0  0  0  0  0  0  0  0  0  0  0  0
    6.4649    0.9260    0.6304 C   0  0  0  0  0  0  0  0  0  0  0  0
    7.8723    0.7247    0.7174 C   0  0  0  0  0  0  0  0  0  0  0  0
    8.2178   -0.5795    0.4534 C   0  0  0  0  0  0  0  0  0  0  0  0
    6.8522   -1.5429    0.1058 S   0  0  0  0  0  0  0  0  0  0  0  0
    3.7094   -1.6810   -0.2334 C   0  0  0  0  0  0  0  0  0  0  0  0
    2.3695   -1.7245   -0.3715 C   0  0  0  0  0  0  0  0  0  0  0  0
    1.6153   -2.9479   -0.7260 C   0  0  0  0  0  0  0  0  0  0  0  0
    0.7137   -3.3017    0.2245 F   0  0  0  0  0  0  0  0  0  0  0  0
    2.4449   -4.0198   -0.8678 F   0  0  0  0  0  0  0  0  0  0  0  0
    0.9516   -2.8342   -1.9025 F   0  0  0  0  0  0  0  0  0  0  0  0
    1.6217   -0.5723   -0.1716 N   0  0  0  0  0  0  0  0  0  0  0  0
    0.2812   -0.4130   -0.2628 N   0  0  0  0  0  0  0  0  0  0  0  0
   -2.4472    0.6827    0.0828 N   0  0  0  0  0  0  0  0  0  0  0  0
   -2.3771   -0.6317    0.7326 C   0  0  0  0  0  0  0  0  0  0  0  0
   -3.6317   -0.9679    1.5191 C   0  0  0  0  0  0  0  0  0  0  0  0
   -4.8189   -0.9775    0.5808 C   0  0  0  0  0  0  0  0  0  0  0  0
   -4.8756    0.2940   -0.2223 C   0  0  0  0  0  0  0  0  0  0  0  0
   -6.1158    0.6586   -0.7803 C   0  0  0  0  0  0  0  0  0  0  0  0
   -6.2372    1.8061   -1.5552 C   0  0  0  0  0  0  0  0  0  0  0  0
   -5.1172    2.5898   -1.7923 C   0  0  0  0  0  0  0  0  0  0  0  0
   -3.8772    2.2278   -1.2534 C   0  0  0  0  0  0  0  0  0  0  0  0
   -3.7269    1.0839   -0.4526 C   0  0  0  0  0  0  0  0  0  0  0  0
    1.3813    2.6027    0.5454 H   0  0  0  0  0  0  0  0  0  0  0  0
    5.9767    1.8796    0.8009 H   0  0  0  0  0  0  0  0  0  0  0  0
    8.5909    1.4979    0.9607 H   0  0  0  0  0  0  0  0  0  0  0  0
    9.2086   -1.0135    0.4480 H   0  0  0  0  0  0  0  0  0  0  0  0
    4.3317   -2.5537   -0.3790 H   0  0  0  0  0  0  0  0  0  0  0  0
   -1.5423   -0.6523    1.4408 H   0  0  0  0  0  0  0  0  0  0  0  0
   -2.1953   -1.3841   -0.0445 H   0  0  0  0  0  0  0  0  0  0  0  0
   -3.5273   -1.9452    2.0030 H   0  0  0  0  0  0  0  0  0  0  0  0
   -3.7830   -0.2241    2.3121 H   0  0  0  0  0  0  0  0  0  0  0  0
   -5.7357   -1.0987    1.1698 H   0  0  0  0  0  0  0  0  0  0  0  0
   -4.7502   -1.8264   -0.1105 H   0  0  0  0  0  0  0  0  0  0  0  0
   -6.9956    0.0419   -0.6085 H   0  0  0  0  0  0  0  0  0  0  0  0
   -7.1987    2.0831   -1.9782 H   0  0  0  0  0  0  0  0  0  0  0  0
   -5.1964    3.4840   -2.4054 H   0  0  0  0  0  0  0  0  0  0  0  0
   -3.0367    2.8664   -1.5056 H   0  0  0  0  0  0  0  0  0  0  0  0
  1  2  2  0
  2  3  1  0
  3  4  1  0
  4  5  2  0
  5  6  1  0
  6  7  2  0
  7  8  1  0
  8  9  2  0
  9 10  1  0
 10 11  2  0
 11 12  1  0
  7 13  1  0
 13 14  2  0
 14 15  1  0
 15 16  1  0
 15 17  1  0
 15 18  1  0
 14 19  1  0
 19 20  1  0
  2 21  1  0
 21 22  1  0
 22 23  1  0
 23 24  1  0
 24 25  1  0
 25 26  2  0
 26 27  1  0
 27 28  2  0
 28 29  1  0
 29 30  2  0
 20  3  2  0
 30 21  1  0
 19  5  1  0
 30 25  1  0
 12  8  1  0
  4 31  1  0
  9 32  1  0
 10 33  1  0
 11 34  1  0
 13 35  1  0
 22 36  1  0
 22 37  1  0
 23 38  1  0
 23 39  1  0
 24 40  1  0
 24 41  1  0
 26 42  1  0
 27 43  1  0
 28 44  1  0
 29 45  1  0
M  END
$$$$
