
     RDKit          3D

 61 65  0  0  0  0  0  0  0  0999 V2000
   -7.0368    1.4095    4.1216 C   0  0  0  0  0  0  0  0  0  0  0  0
   -6.5789    0.6820    2.8924 C   0  0  0  0  0  0  0  0  0  0  0  0
   -6.9794   -0.6371    2.6552 C   0  0  0  0  0  0  0  0  0  0  0  0
   -6.5956   -1.2955    1.4840 C   0  0  0  0  0  0  0  0  0  0  0  0
   -5.8122   -0.6406    0.5226 C   0  0  0  0  0  0  0  0  0  0  0  0
   -5.4218   -1.3411   -0.7542 C   0  0  0  0  0  0  0  0  0  0  0  0
   -4.2854   -2.2184   -0.5668 N   0  0  0  0  0  0  0  0  0  0  0  0
   -4.4646   -3.5331   -0.2755 N   0  0  0  0  0  0  0  0  0  0  0  0
   -3.2635   -4.1129   -0.2522 N   0  0  0  0  0  0  0  0  0  0  0  0
   -2.3463   -3.1517   -0.5497 C   0  0  0  0  0  0  0  0  0  0  0  0
   -0.9164   -3.2242   -0.6876 C   0  0  0  0  0  0  0  0  0  0  0  0
   -0.2299   -4.2294   -0.5305 O   0  0  0  0  0  0  0  0  0  0  0  0
   -0.3613   -1.9964   -1.0380 N   0  0  0  0  0  0  0  0  0  0  0  0
   -1.0959   -0.8301   -1.2246 C   0  0  0  0  0  0  0  0  0  0  0  0
   -0.3231    0.4205   -1.6272 C   0  0  0  0  0  0  0  0  0  0  0  0
    0.7378    0.8085   -0.5926 C   0  0  0  0  0  0  0  0  0  0  0  0
    1.9569    1.4208   -1.2681 C   0  0  0  0  0  0  0  0  0  0  0  0
    2.5804    0.3846   -2.1286 N   0  0  0  0  0  0  0  0  0  0  0  0
    4.1101    0.8185   -2.7951 S   0  0  0  0  0  6  0  0  0  0  0  0
    3.8911    2.0590   -3.5146 O   0  0  0  0  0  0  0  0  0  0  0  0
    4.5947   -0.3564   -3.4926 O   0  0  0  0  0  0  0  0  0  0  0  0
    5.1472    1.1464   -1.4481 C   0  0  0  0  0  0  0  0  0  0  0  0
    5.5014    0.1471   -0.6239 C   0  0  0  0  0  0  0  0  0  0  0  0
    6.3467    0.3268    0.5647 C   0  0  0  0  0  0  0  0  0  0  0  0
    7.3622    1.2917    0.6332 C   0  0  0  0  0  0  0  0  0  0  0  0
    8.1504    1.4152    1.7814 C   0  0  0  0  0  0  0  0  0  0  0  0
    7.9400    0.5689    2.8684 C   0  0  0  0  0  0  0  0  0  0  0  0
    6.9471   -0.4067    2.8061 C   0  0  0  0  0  0  0  0  0  0  0  0
    6.1584   -0.5297    1.6585 C   0  0  0  0  0  0  0  0  0  0  0  0
    1.6620   -0.2354   -3.1298 C   0  0  0  0  0  0  0  0  0  0  0  0
    0.2347    0.2969   -3.0513 C   0  0  0  0  0  0  0  0  0  0  0  0
   -2.3943   -0.7554   -1.1012 N   0  0  0  0  0  0  0  0  0  0  0  0
   -2.9616   -1.9400   -0.7609 C   0  0  0  0  0  0  0  0  0  0  0  0
   -5.4032    0.6781    0.7671 C   0  0  0  0  0  0  0  0  0  0  0  0
   -5.7918    1.3354    1.9369 C   0  0  0  0  0  0  0  0  0  0  0  0
   -7.3061    0.7079    4.9195 H   0  0  0  0  0  0  0  0  0  0  0  0
   -6.2419    2.0573    4.5069 H   0  0  0  0  0  0  0  0  0  0  0  0
   -7.9143    2.0207    3.8863 H   0  0  0  0  0  0  0  0  0  0  0  0
   -7.5993   -1.1620    3.3791 H   0  0  0  0  0  0  0  0  0  0  0  0
   -6.9182   -2.3244    1.3249 H   0  0  0  0  0  0  0  0  0  0  0  0
   -5.1661   -0.6192   -1.5387 H   0  0  0  0  0  0  0  0  0  0  0  0
   -6.2575   -1.9400   -1.1362 H   0  0  0  0  0  0  0  0  0  0  0  0
    0.6462   -2.0059   -1.1198 H   0  0  0  0  0  0  0  0  0  0  0  0
   -1.0625    1.2350   -1.6577 H   0  0  0  0  0  0  0  0  0  0  0  0
    0.3062    1.5277    0.1173 H   0  0  0  0  0  0  0  0  0  0  0  0
    1.0516   -0.0549    0.0099 H   0  0  0  0  0  0  0  0  0  0  0  0
    1.6816    2.3052   -1.8553 H   0  0  0  0  0  0  0  0  0  0  0  0
    2.6569    1.7366   -0.4890 H   0  0  0  0  0  0  0  0  0  0  0  0
    5.4559    2.1741   -1.3204 H   0  0  0  0  0  0  0  0  0  0  0  0
    5.1437   -0.8672   -0.8067 H   0  0  0  0  0  0  0  0  0  0  0  0
    7.5662    1.9525   -0.2065 H   0  0  0  0  0  0  0  0  0  0  0  0
    8.9328    2.1694    1.8228 H   0  0  0  0  0  0  0  0  0  0  0  0
    8.5558    0.6627    3.7599 H   0  0  0  0  0  0  0  0  0  0  0  0
    6.7870   -1.0747    3.6499 H   0  0  0  0  0  0  0  0  0  0  0  0
    5.3914   -1.3013    1.6317 H   0  0  0  0  0  0  0  0  0  0  0  0
    2.0227   -0.0752   -4.1518 H   0  0  0  0  0  0  0  0  0  0  0  0
    1.6739   -1.3171   -2.9588 H   0  0  0  0  0  0  0  0  0  0  0  0
    0.2242    1.2971   -3.5067 H   0  0  0  0  0  0  0  0  0  0  0  0
   -0.4207   -0.3223   -3.6775 H   0  0  0  0  0  0  0  0  0  0  0  0
   -4.7850    1.2083    0.0438 H   0  0  0  0  0  0  0  0  0  0  0  0
   -5.4837    2.3660    2.0937 H   0  0  0  0  0  0  0  0  0  0  0  0
  1  2  1  0
  2  3  2  0
  3  4  1  0
  4  5  2  0
  5  6  1  0
  6  7  1  0
  7  8  1  0
  8  9  2  0
  9 10  1  0
 10 11  1  0
 11 12  2  0
 11 13  1  0
 13 14  1  0
 14 15  1  0
 15 16  1  0
 16 17  1  0
 17 18  1  0
 18 19  1  0
 19 20  2  0
 19 21  2  0
 19 22  1  0
 22 23  2  3
 23 24  1  0
 24 25  2  0
 25 26  1  0
 26 27  2  0
 27 28  1  0
 28 29  2  0
 18 30  1  0
 30 31  1  0
 14 32  2  0
 32 33  1  0
  5 34  1  0
 34 35  2  0
 35  2  1  0
 33  7  1  0
 33 10  2  0
 31 15  1  0
 29 24  1  0
  1 36  1  0
  1 37  1  0
  1 38  1  0
  3 39  1  0
  4 40  1  0
  6 41  1  0
  6 42  1  0
 13 43  1  0
 15 44  1  0
 16 45  1  0
 16 46  1  0
 17 47  1  0
 17 48  1  0
 22 49  1  0
 23 50  1  0
 25 51  1  0
 26 52  1  0
 27 53  1  0
 28 54  1  0
 29 55  1  0
 30 56  1  0
 30 57  1  0
 31 58  1  0
 31 59  1  0
 34 60  1  0
 35 61  1  0
M  END
$$$$
