
     RDKit          3D

 55 57  0  0  0  0  0  0  0  0999 V2000
    7.7903    0.0854    0.6753 C   0  0  0  0  0  0  0  0  0  0  0  0
    6.5968   -0.3157    1.3360 O   0  0  0  0  0  0  0  0  0  0  0  0
    5.4165    0.0987    0.7840 C   0  0  0  0  0  0  0  0  0  0  0  0
    5.2734    0.8657   -0.3701 C   0  0  0  0  0  0  0  0  0  0  0  0
    3.9982    1.2213   -0.8263 C   0  0  0  0  0  0  0  0  0  0  0  0
    2.8417    0.8132   -0.1413 C   0  0  0  0  0  0  0  0  0  0  0  0
    1.4683    1.2272   -0.6675 C   0  0  0  0  0  0  0  0  0  0  0  0
    0.8294    2.6407    0.3219 S   0  0  0  0  0  0  0  0  0  0  0  0
   -0.2021    1.7787    1.5042 C   0  0  0  0  0  0  0  0  0  0  0  0
    0.1361    1.9444    2.8566 C   0  0  0  0  0  0  0  0  0  0  0  0
   -0.6730    1.4212    3.8628 C   0  0  0  0  0  0  0  0  0  0  0  0
   -1.8415    0.7485    3.5274 C   0  0  0  0  0  0  0  0  0  0  0  0
   -2.1964    0.5890    2.1857 C   0  0  0  0  0  0  0  0  0  0  0  0
   -1.3794    1.0807    1.1534 C   0  0  0  0  0  0  0  0  0  0  0  0
   -1.7748    0.8834   -0.2085 N   0  0  0  0  0  0  0  0  0  0  0  0
   -3.1949    1.0309   -0.5621 C   0  0  0  0  0  0  0  0  0  0  0  0
   -3.8760   -0.3244   -0.8577 C   0  0  0  0  0  0  0  0  0  0  0  0
   -5.3328   -0.2155   -1.0837 N   0  0  0  0  0  0  0  0  0  0  0  0
   -6.0612    0.0222    0.1641 C   0  0  0  0  0  0  0  0  0  0  0  0
   -5.8297   -1.4416   -1.7160 C   0  0  0  0  0  0  0  0  0  0  0  0
   -0.8864    0.5606   -1.2382 C   0  0  0  0  0  0  0  0  0  0  0  0
   -1.2124    0.6023   -2.4287 O   0  0  0  0  0  0  0  0  0  0  0  0
    0.5022    0.0453   -0.8240 C   0  0  0  0  0  0  0  0  0  0  0  0
    1.0149   -0.8183   -1.8671 O   0  0  0  0  0  0  0  0  0  0  0  0
    0.3912   -2.0240   -1.9569 C   0  0  0  0  0  0  0  0  0  0  0  0
    0.9388   -2.8027   -3.1124 C   0  0  0  0  0  0  0  0  0  0  0  0
   -0.4843   -2.4231   -1.2013 O   0  0  0  0  0  0  0  0  0  0  0  0
    2.9993    0.0480    1.0238 C   0  0  0  0  0  0  0  0  0  0  0  0
    4.2741   -0.3054    1.4758 C   0  0  0  0  0  0  0  0  0  0  0  0
    7.8878    1.1759    0.6624 H   0  0  0  0  0  0  0  0  0  0  0  0
    7.8389   -0.3283   -0.3374 H   0  0  0  0  0  0  0  0  0  0  0  0
    8.6365   -0.3175    1.2402 H   0  0  0  0  0  0  0  0  0  0  0  0
    6.1308    1.2074   -0.9400 H   0  0  0  0  0  0  0  0  0  0  0  0
    3.9182    1.8261   -1.7281 H   0  0  0  0  0  0  0  0  0  0  0  0
    1.6234    1.6467   -1.6710 H   0  0  0  0  0  0  0  0  0  0  0  0
    1.0298    2.4998    3.1371 H   0  0  0  0  0  0  0  0  0  0  0  0
   -0.3989    1.5550    4.9064 H   0  0  0  0  0  0  0  0  0  0  0  0
   -2.4812    0.3462    4.3096 H   0  0  0  0  0  0  0  0  0  0  0  0
   -3.1090    0.0420    1.9664 H   0  0  0  0  0  0  0  0  0  0  0  0
   -3.2574    1.6616   -1.4586 H   0  0  0  0  0  0  0  0  0  0  0  0
   -3.7079    1.5862    0.2298 H   0  0  0  0  0  0  0  0  0  0  0  0
   -3.6647   -1.0449   -0.0572 H   0  0  0  0  0  0  0  0  0  0  0  0
   -3.4048   -0.7343   -1.7604 H   0  0  0  0  0  0  0  0  0  0  0  0
   -7.1385    0.0863   -0.0272 H   0  0  0  0  0  0  0  0  0  0  0  0
   -5.7774    0.9772    0.6162 H   0  0  0  0  0  0  0  0  0  0  0  0
   -5.8916   -0.7725    0.8997 H   0  0  0  0  0  0  0  0  0  0  0  0
   -5.6589   -2.3268   -1.0925 H   0  0  0  0  0  0  0  0  0  0  0  0
   -6.9038   -1.3631   -1.9186 H   0  0  0  0  0  0  0  0  0  0  0  0
   -5.3427   -1.6009   -2.6846 H   0  0  0  0  0  0  0  0  0  0  0  0
    0.4280   -0.5474    0.0950 H   0  0  0  0  0  0  0  0  0  0  0  0
    0.7547   -2.2614   -4.0438 H   0  0  0  0  0  0  0  0  0  0  0  0
    2.0089   -2.9731   -2.9708 H   0  0  0  0  0  0  0  0  0  0  0  0
    0.4356   -3.7721   -3.1669 H   0  0  0  0  0  0  0  0  0  0  0  0
    2.1405   -0.2796    1.6043 H   0  0  0  0  0  0  0  0  0  0  0  0
    4.3776   -0.8997    2.3807 H   0  0  0  0  0  0  0  0  0  0  0  0
  1  2  1  0
  2  3  1  0
  3  4  2  0
  4  5  1  0
  5  6  2  0
  6  7  1  0
  7  8  1  0
  8  9  1  0
  9 10  2  0
 10 11  1  0
 11 12  2  0
 12 13  1  0
 13 14  2  0
 14 15  1  0
 15 16  1  0
 16 17  1  0
 17 18  1  0
 18 19  1  0
 18 20  1  0
 15 21  1  0
 21 22  2  0
 21 23  1  0
 23 24  1  0
 24 25  1  0
 25 26  1  0
 25 27  2  0
  6 28  1  0
 28 29  2  0
 29  3  1  0
 23  7  1  0
 14  9  1  0
  1 30  1  0
  1 31  1  0
  1 32  1  0
  4 33  1  0
  5 34  1  0
  7 35  1  0
 10 36  1  0
 11 37  1  0
 12 38  1  0
 13 39  1  0
 16 40  1  0
 16 41  1  0
 17 42  1  0
 17 43  1  0
 19 44  1  0
 19 45  1  0
 19 46  1  0
 20 47  1  0
 20 48  1  0
 20 49  1  0
 23 50  1  0
 26 51  1  0
 26 52  1  0
 26 53  1  0
 28 54  1  0
 29 55  1  0
M  END
$$$$
