
     RDKit          3D

 36 37  0  0  0  0  0  0  0  0999 V2000
    0.1040    1.3198   -0.5373 O   0  0  0  0  0  0  0  0  0  0  0  0
    0.5234    0.1762   -0.6925 C   0  0  0  0  0  0  0  0  0  0  0  0
   -0.3767   -1.0460   -0.8657 C   0  0  0  0  0  0  0  0  0  0  0  0
   -1.7530   -0.6786   -0.8282 O   0  0  0  0  0  0  0  0  0  0  0  0
   -2.5925   -1.7263   -0.9745 C   0  0  0  0  0  0  0  0  0  0  0  0
   -2.3021   -2.8988   -1.1279 O   0  0  0  0  0  0  0  0  0  0  0  0
   -3.9615   -1.2144   -0.9182 C   0  0  0  0  0  0  0  0  0  0  0  0
   -4.6103   -0.8275   -2.0945 C   0  0  0  0  0  0  0  0  0  0  0  0
   -3.8478   -0.9143   -3.6421 Cl  0  0  0  0  0  0  0  0  0  0  0  0
   -5.9224   -0.3476   -2.0386 C   0  0  0  0  0  0  0  0  0  0  0  0
   -6.5846   -0.2575   -0.8136 C   0  0  0  0  0  0  0  0  0  0  0  0
   -5.9365   -0.6481    0.3589 C   0  0  0  0  0  0  0  0  0  0  0  0
   -4.6243   -1.1288    0.3097 C   0  0  0  0  0  0  0  0  0  0  0  0
   -3.8799   -1.5971    1.7965 Cl  0  0  0  0  0  0  0  0  0  0  0  0
    1.8725   -0.1265   -0.7344 N   0  0  0  0  0  0  0  0  0  0  0  0
    2.8707    0.8846   -0.4239 C   0  0  0  0  0  0  0  0  0  0  0  0
    3.0652    1.0320    1.0931 C   0  0  0  0  0  0  0  0  0  0  0  0
    4.0645    2.1224    1.4538 C   0  0  0  0  0  0  0  0  0  0  0  0
    5.3646    1.3658    1.5632 C   0  0  0  0  0  0  0  0  0  0  0  0
    4.9085    0.0504    2.1506 C   0  0  0  0  0  0  0  0  0  0  0  0
    3.6091   -0.2097    1.6030 O   0  0  0  0  0  0  0  0  0  0  0  0
   -0.1424   -1.5048   -1.8335 H   0  0  0  0  0  0  0  0  0  0  0  0
   -0.1589   -1.7448   -0.0494 H   0  0  0  0  0  0  0  0  0  0  0  0
   -6.4352   -0.0413   -2.9482 H   0  0  0  0  0  0  0  0  0  0  0  0
   -7.6054    0.1170   -0.7726 H   0  0  0  0  0  0  0  0  0  0  0  0
   -6.4601   -0.5751    1.3100 H   0  0  0  0  0  0  0  0  0  0  0  0
    2.1494   -1.0862   -0.5625 H   0  0  0  0  0  0  0  0  0  0  0  0
    2.5636    1.8374   -0.8682 H   0  0  0  0  0  0  0  0  0  0  0  0
    3.7967    0.5526   -0.9051 H   0  0  0  0  0  0  0  0  0  0  0  0
    2.1022    1.2102    1.5843 H   0  0  0  0  0  0  0  0  0  0  0  0
    3.8079    2.5416    2.4346 H   0  0  0  0  0  0  0  0  0  0  0  0
    4.0983    2.9485    0.7380 H   0  0  0  0  0  0  0  0  0  0  0  0
    6.1148    1.8702    2.1776 H   0  0  0  0  0  0  0  0  0  0  0  0
    5.7879    1.2061    0.5649 H   0  0  0  0  0  0  0  0  0  0  0  0
    5.5825   -0.7760    1.9092 H   0  0  0  0  0  0  0  0  0  0  0  0
    4.8077    0.1146    3.2395 H   0  0  0  0  0  0  0  0  0  0  0  0
  1  2  2  0
  2  3  1  0
  3  4  1  0
  4  5  1  0
  5  6  2  0
  5  7  1  0
  7  8  2  0
  8  9  1  0
  8 10  1  0
 10 11  2  0
 11 12  1  0
 12 13  2  0
 13 14  1  0
  2 15  1  0
 15 16  1  0
 16 17  1  0
 17 18  1  0
 18 19  1  0
 19 20  1  0
 20 21  1  0
 13  7  1  0
 21 17  1  0
  3 22  1  0
  3 23  1  0
 10 24  1  0
 11 25  1  0
 12 26  1  0
 15 27  1  0
 16 28  1  0
 16 29  1  0
 17 30  1  0
 18 31  1  0
 18 32  1  0
 19 33  1  0
 19 34  1  0
 20 35  1  0
 20 36  1  0
M  END
$$$$
