
     RDKit          3D

 39 40  0  0  0  0  0  0  0  0999 V2000
   -2.9712    2.2640   -0.5855 C   0  0  0  0  0  0  0  0  0  0  0  0
   -3.5870    0.9796   -0.0522 C   0  0  0  0  0  0  0  0  0  0  0  0
   -2.6630   -0.1525   -0.1569 N   0  0  0  0  0  0  0  0  0  0  0  0
   -2.6532   -0.8859   -1.4241 C   0  0  0  0  0  0  0  0  0  0  0  0
   -3.6418   -2.0413   -1.4139 C   0  0  0  0  0  0  0  0  0  0  0  0
   -1.8144   -0.5824    0.8639 C   0  0  0  0  0  0  0  0  0  0  0  0
   -1.1009   -1.5815    0.7210 O   0  0  0  0  0  0  0  0  0  0  0  0
   -1.8227    0.2225    2.1661 C   0  0  0  0  0  0  0  0  0  0  0  0
   -0.3489   -0.1048    3.1853 S   0  0  0  0  0  0  0  0  0  0  0  0
    0.8544    0.5417    2.1221 C   0  0  0  0  0  0  0  0  0  0  0  0
    1.0144    1.8040    1.8139 N   0  0  0  0  0  0  0  0  0  0  0  0
    2.0306    1.8672    0.8887 N   0  0  0  0  0  0  0  0  0  0  0  0
    2.4759    0.6394    0.6437 C   0  0  0  0  0  0  0  0  0  0  0  0
    3.5422    0.3153   -0.3117 C   0  0  0  0  0  0  0  0  0  0  0  0
    4.2881   -0.8637   -0.2601 C   0  0  0  0  0  0  0  0  0  0  0  0
    5.2799   -1.0709   -1.2072 C   0  0  0  0  0  0  0  0  0  0  0  0
    5.5827   -0.1932   -2.1853 N   0  0  0  0  0  0  0  0  0  0  0  0
    4.8653    0.9476   -2.2138 C   0  0  0  0  0  0  0  0  0  0  0  0
    3.8548    1.2422   -1.3134 C   0  0  0  0  0  0  0  0  0  0  0  0
    1.7276   -0.2404    1.4072 N   0  0  0  0  0  0  0  0  0  0  0  0
    1.7403   -1.6857    1.3734 N   0  0  0  0  0  0  0  0  0  0  0  0
   -2.0514    2.5187   -0.0499 H   0  0  0  0  0  0  0  0  0  0  0  0
   -2.7194    2.1701   -1.6467 H   0  0  0  0  0  0  0  0  0  0  0  0
   -3.6738    3.0957   -0.4756 H   0  0  0  0  0  0  0  0  0  0  0  0
   -3.8870    1.1204    0.9901 H   0  0  0  0  0  0  0  0  0  0  0  0
   -4.4988    0.7384   -0.6101 H   0  0  0  0  0  0  0  0  0  0  0  0
   -1.6461   -1.2748   -1.6122 H   0  0  0  0  0  0  0  0  0  0  0  0
   -2.8857   -0.1930   -2.2400 H   0  0  0  0  0  0  0  0  0  0  0  0
   -3.6136   -2.5740   -2.3694 H   0  0  0  0  0  0  0  0  0  0  0  0
   -3.4076   -2.7548   -0.6172 H   0  0  0  0  0  0  0  0  0  0  0  0
   -4.6639   -1.6845   -1.2515 H   0  0  0  0  0  0  0  0  0  0  0  0
   -2.7085   -0.0655    2.7402 H   0  0  0  0  0  0  0  0  0  0  0  0
   -1.8597    1.2954    1.9662 H   0  0  0  0  0  0  0  0  0  0  0  0
    4.1269   -1.6188    0.5002 H   0  0  0  0  0  0  0  0  0  0  0  0
    5.8777   -1.9780   -1.1985 H   0  0  0  0  0  0  0  0  0  0  0  0
    5.1308    1.6444   -3.0035 H   0  0  0  0  0  0  0  0  0  0  0  0
    3.3198    2.1840   -1.3944 H   0  0  0  0  0  0  0  0  0  0  0  0
    1.6346   -2.0495    2.3212 H   0  0  0  0  0  0  0  0  0  0  0  0
    0.8726   -1.9952    0.9107 H   0  0  0  0  0  0  0  0  0  0  0  0
  1  2  1  0
  2  3  1  0
  3  4  1  0
  4  5  1  0
  3  6  1  0
  6  7  2  0
  6  8  1  0
  8  9  1  0
  9 10  1  0
 10 11  2  0
 11 12  1  0
 12 13  2  0
 13 14  1  0
 14 15  2  0
 15 16  1  0
 16 17  2  0
 17 18  1  0
 18 19  2  0
 13 20  1  0
 20 21  1  0
 20 10  1  0
 19 14  1  0
  1 22  1  0
  1 23  1  0
  1 24  1  0
  2 25  1  0
  2 26  1  0
  4 27  1  0
  4 28  1  0
  5 29  1  0
  5 30  1  0
  5 31  1  0
  8 32  1  0
  8 33  1  0
 15 34  1  0
 16 35  1  0
 18 36  1  0
 19 37  1  0
 21 38  1  0
 21 39  1  0
M  END
$$$$
