
     RDKit          3D

 48 50  0  0  0  0  0  0  0  0999 V2000
   -5.1114   -4.4733    2.8423 C   0  0  0  0  0  0  0  0  0  0  0  0
   -3.9508   -3.6120    3.3015 C   0  0  0  0  0  0  0  0  0  0  0  0
   -3.8772   -2.4152    2.5114 O   0  0  0  0  0  0  0  0  0  0  0  0
   -3.1639   -2.5122    1.3582 C   0  0  0  0  0  0  0  0  0  0  0  0
   -2.6300   -3.5196    0.9301 O   0  0  0  0  0  0  0  0  0  0  0  0
   -3.1368   -1.2016    0.6935 C   0  0  0  0  0  0  0  0  0  0  0  0
   -4.1412   -0.2735    0.8631 C   0  0  0  0  0  0  0  0  0  0  0  0
   -4.1692    0.9296    0.2474 N   0  0  0  0  0  0  0  0  0  0  0  0
   -3.1419    1.2086   -0.5741 C   0  0  0  0  0  0  0  0  0  0  0  0
   -3.1132    2.7597   -1.4387 S   0  0  0  0  0  0  0  0  0  0  0  0
   -4.6154    3.5275   -0.7841 C   0  0  0  0  0  0  0  0  0  0  0  0
   -2.1179    0.3781   -0.8089 N   0  0  0  0  0  0  0  0  0  0  0  0
   -2.1313   -0.8173   -0.1690 C   0  0  0  0  0  0  0  0  0  0  0  0
   -1.0637   -1.6908   -0.3560 O   0  0  0  0  0  0  0  0  0  0  0  0
   -0.1102   -1.3117   -1.2677 C   0  0  0  0  0  0  0  0  0  0  0  0
   -0.2340   -1.7262   -2.5925 C   0  0  0  0  0  0  0  0  0  0  0  0
    0.7496   -1.3726   -3.5108 C   0  0  0  0  0  0  0  0  0  0  0  0
    1.8555   -0.6257   -3.0939 C   0  0  0  0  0  0  0  0  0  0  0  0
    1.9963   -0.2337   -1.7537 C   0  0  0  0  0  0  0  0  0  0  0  0
    3.1438    0.5169   -1.4211 N   0  0  0  0  0  0  0  0  0  0  0  0
    3.5486    0.9176   -0.1614 C   0  0  0  0  0  0  0  0  0  0  0  0
    3.0473    0.6064    0.9117 O   0  0  0  0  0  0  0  0  0  0  0  0
    4.7606    1.7857   -0.1475 C   0  0  0  0  0  0  0  0  0  0  0  0
    4.9798    2.7555   -1.1375 C   0  0  0  0  0  0  0  0  0  0  0  0
    6.1286    3.5509   -1.0927 C   0  0  0  0  0  0  0  0  0  0  0  0
    7.0490    3.3839   -0.0575 C   0  0  0  0  0  0  0  0  0  0  0  0
    8.4636    4.3622   -0.0094 Cl  0  0  0  0  0  0  0  0  0  0  0  0
    6.8281    2.4351    0.9412 C   0  0  0  0  0  0  0  0  0  0  0  0
    5.6802    1.6394    0.9000 C   0  0  0  0  0  0  0  0  0  0  0  0
    1.0045   -0.5853   -0.8376 C   0  0  0  0  0  0  0  0  0  0  0  0
   -6.0478   -3.9060    2.8700 H   0  0  0  0  0  0  0  0  0  0  0  0
   -4.9708   -4.8045    1.8088 H   0  0  0  0  0  0  0  0  0  0  0  0
   -5.2133   -5.3543    3.4807 H   0  0  0  0  0  0  0  0  0  0  0  0
   -4.1153   -3.3000    4.3378 H   0  0  0  0  0  0  0  0  0  0  0  0
   -3.0035   -4.1645    3.2757 H   0  0  0  0  0  0  0  0  0  0  0  0
   -4.9931   -0.4637    1.5107 H   0  0  0  0  0  0  0  0  0  0  0  0
   -5.4958    2.9228   -1.0193 H   0  0  0  0  0  0  0  0  0  0  0  0
   -4.5411    3.6657    0.2977 H   0  0  0  0  0  0  0  0  0  0  0  0
   -4.7426    4.5089   -1.2456 H   0  0  0  0  0  0  0  0  0  0  0  0
   -1.0922   -2.3148   -2.9043 H   0  0  0  0  0  0  0  0  0  0  0  0
    0.6602   -1.6832   -4.5486 H   0  0  0  0  0  0  0  0  0  0  0  0
    2.6093   -0.3640   -3.8322 H   0  0  0  0  0  0  0  0  0  0  0  0
    3.7643    0.7267   -2.1916 H   0  0  0  0  0  0  0  0  0  0  0  0
    4.2532    2.9248   -1.9291 H   0  0  0  0  0  0  0  0  0  0  0  0
    6.2945    4.3046   -1.8595 H   0  0  0  0  0  0  0  0  0  0  0  0
    7.5395    2.3114    1.7539 H   0  0  0  0  0  0  0  0  0  0  0  0
    5.5043    0.9035    1.6831 H   0  0  0  0  0  0  0  0  0  0  0  0
    1.0628   -0.3002    0.2070 H   0  0  0  0  0  0  0  0  0  0  0  0
  1  2  1  0
  2  3  1  0
  3  4  1  0
  4  5  2  0
  4  6  1  0
  6  7  2  0
  7  8  1  0
  8  9  2  0
  9 10  1  0
 10 11  1  0
  9 12  1  0
 12 13  2  0
 13 14  1  0
 14 15  1  0
 15 16  2  0
 16 17  1  0
 17 18  2  0
 18 19  1  0
 19 20  1  0
 20 21  1  0
 21 22  2  0
 21 23  1  0
 23 24  2  0
 24 25  1  0
 25 26  2  0
 26 27  1  0
 26 28  1  0
 28 29  2  0
 19 30  2  0
 13  6  1  0
 30 15  1  0
 29 23  1  0
  1 31  1  0
  1 32  1  0
  1 33  1  0
  2 34  1  0
  2 35  1  0
  7 36  1  0
 11 37  1  0
 11 38  1  0
 11 39  1  0
 16 40  1  0
 17 41  1  0
 18 42  1  0
 20 43  1  0
 24 44  1  0
 25 45  1  0
 28 46  1  0
 29 47  1  0
 30 48  1  0
M  END
$$$$
