
     RDKit          3D

 54 58  0  0  0  0  0  0  0  0999 V2000
   -4.9947   -2.7254   -1.4136 C   0  0  0  0  0  0  0  0  0  0  0  0
   -5.1327   -2.0360   -0.0636 C   0  0  0  0  0  0  0  0  0  0  0  0
   -3.9171   -2.1530    0.8797 C   0  0  0  0  0  0  0  0  0  0  0  0
   -3.6237   -3.5985    1.2965 C   0  0  0  0  0  0  0  0  0  0  0  0
   -2.7398   -1.4302    0.3689 N   0  0  0  0  0  0  0  0  0  0  0  0
   -1.8623   -2.0187   -0.5361 C   0  0  0  0  0  0  0  0  0  0  0  0
   -0.8288   -1.4574   -1.0893 N   0  0  0  0  0  0  0  0  0  0  0  0
   -0.6530   -0.1720   -0.7079 C   0  0  0  0  0  0  0  0  0  0  0  0
   -1.4575    0.5623    0.1369 C   0  0  0  0  0  0  0  0  0  0  0  0
   -2.6175   -0.0689    0.7127 C   0  0  0  0  0  0  0  0  0  0  0  0
   -3.4258    0.5292    1.4165 O   0  0  0  0  0  0  0  0  0  0  0  0
   -0.9135    1.8572    0.2284 C   0  0  0  0  0  0  0  0  0  0  0  0
   -1.3166    2.9576    0.9095 N   0  0  0  0  0  0  0  0  0  0  0  0
   -0.5340    4.0354    0.7454 C   0  0  0  0  0  0  0  0  0  0  0  0
   -0.8775    5.2035    1.4137 C   0  0  0  0  0  0  0  0  0  0  0  0
   -0.1155    6.3665    1.2937 C   0  0  0  0  0  0  0  0  0  0  0  0
    1.0144    6.3629    0.4883 C   0  0  0  0  0  0  0  0  0  0  0  0
    1.3719    5.1964   -0.1897 C   0  0  0  0  0  0  0  0  0  0  0  0
    0.6236    4.0311   -0.0799 C   0  0  0  0  0  0  0  0  0  0  0  0
    1.0305    2.9468   -0.7629 N   0  0  0  0  0  0  0  0  0  0  0  0
    0.2280    1.8794   -0.5701 C   0  0  0  0  0  0  0  0  0  0  0  0
    0.3852    0.6284   -1.1165 N   0  0  0  0  0  0  0  0  0  0  0  0
    1.4576    0.2433   -2.0169 C   0  0  0  0  0  0  0  0  0  0  0  0
    2.6362   -0.3222   -1.2635 C   0  0  0  0  0  0  0  0  0  0  0  0
    3.6423    0.5207   -0.7759 C   0  0  0  0  0  0  0  0  0  0  0  0
    4.7247   -0.0072   -0.0683 C   0  0  0  0  0  0  0  0  0  0  0  0
    4.8206   -1.3796    0.1702 C   0  0  0  0  0  0  0  0  0  0  0  0
    5.9296   -1.7619    0.8736 O   0  0  0  0  0  0  0  0  0  0  0  0
    6.0627   -3.1484    1.1580 C   0  0  0  0  0  0  0  0  0  0  0  0
    3.8177   -2.2240   -0.3049 C   0  0  0  0  0  0  0  0  0  0  0  0
    2.7319   -1.6981   -1.0144 C   0  0  0  0  0  0  0  0  0  0  0  0
   -4.1945   -2.2811   -2.0116 H   0  0  0  0  0  0  0  0  0  0  0  0
   -5.9249   -2.6160   -1.9813 H   0  0  0  0  0  0  0  0  0  0  0  0
   -4.7998   -3.7957   -1.3049 H   0  0  0  0  0  0  0  0  0  0  0  0
   -5.3519   -0.9756   -0.2403 H   0  0  0  0  0  0  0  0  0  0  0  0
   -6.0114   -2.4525    0.4449 H   0  0  0  0  0  0  0  0  0  0  0  0
   -4.2158   -1.6496    1.8091 H   0  0  0  0  0  0  0  0  0  0  0  0
   -3.3806   -4.2476    0.4513 H   0  0  0  0  0  0  0  0  0  0  0  0
   -4.4933   -4.0327    1.8019 H   0  0  0  0  0  0  0  0  0  0  0  0
   -2.7792   -3.6323    1.9936 H   0  0  0  0  0  0  0  0  0  0  0  0
   -2.0900   -3.0635   -0.7893 H   0  0  0  0  0  0  0  0  0  0  0  0
   -1.7636    5.2057    2.0451 H   0  0  0  0  0  0  0  0  0  0  0  0
   -0.4078    7.2663    1.8289 H   0  0  0  0  0  0  0  0  0  0  0  0
    1.6186    7.2606    0.3849 H   0  0  0  0  0  0  0  0  0  0  0  0
    2.2581    5.1957   -0.8200 H   0  0  0  0  0  0  0  0  0  0  0  0
    1.7534    1.1220   -2.6021 H   0  0  0  0  0  0  0  0  0  0  0  0
    1.0630   -0.4857   -2.7343 H   0  0  0  0  0  0  0  0  0  0  0  0
    3.5864    1.5961   -0.9360 H   0  0  0  0  0  0  0  0  0  0  0  0
    5.4981    0.6594    0.3054 H   0  0  0  0  0  0  0  0  0  0  0  0
    6.9883   -3.2860    1.7253 H   0  0  0  0  0  0  0  0  0  0  0  0
    6.1472   -3.7341    0.2366 H   0  0  0  0  0  0  0  0  0  0  0  0
    5.2352   -3.5056    1.7799 H   0  0  0  0  0  0  0  0  0  0  0  0
    3.8451   -3.2954   -0.1387 H   0  0  0  0  0  0  0  0  0  0  0  0
    1.9527   -2.3719   -1.3669 H   0  0  0  0  0  0  0  0  0  0  0  0
  1  2  1  0
  2  3  1  0
  3  4  1  0
  3  5  1  0
  5  6  1  0
  6  7  2  0
  7  8  1  0
  8  9  2  0
  9 10  1  0
 10 11  2  0
  9 12  1  0
 12 13  2  0
 13 14  1  0
 14 15  2  0
 15 16  1  0
 16 17  2  0
 17 18  1  0
 18 19  2  0
 19 20  1  0
 20 21  2  0
 21 22  1  0
 22 23  1  0
 23 24  1  0
 24 25  2  0
 25 26  1  0
 26 27  2  0
 27 28  1  0
 28 29  1  0
 27 30  1  0
 30 31  2  0
 10  5  1  0
 21 12  1  0
 31 24  1  0
 22  8  1  0
 19 14  1  0
  1 32  1  0
  1 33  1  0
  1 34  1  0
  2 35  1  0
  2 36  1  0
  3 37  1  0
  4 38  1  0
  4 39  1  0
  4 40  1  0
  6 41  1  0
 15 42  1  0
 16 43  1  0
 17 44  1  0
 18 45  1  0
 23 46  1  0
 23 47  1  0
 25 48  1  0
 26 49  1  0
 29 50  1  0
 29 51  1  0
 29 52  1  0
 30 53  1  0
 31 54  1  0
M  END
$$$$
