
     RDKit          3D

 58 61  0  0  0  0  0  0  0  0999 V2000
    0.2358    0.6088    0.2855 O   0  0  0  0  0  0  0  0  0  0  0  0
   -0.5430   -0.3123    0.0565 C   0  0  0  0  0  0  0  0  0  0  0  0
   -0.1489   -1.5777   -0.7319 C   0  0  0  0  0  0  0  0  0  0  0  0
    1.2966   -1.8250   -0.8521 N   0  0  0  0  0  0  0  0  0  0  0  0
    2.0314   -0.8018   -1.6183 C   0  0  0  0  0  0  0  0  0  0  0  0
    3.1486   -0.0727   -0.8422 C   0  0  0  0  0  0  0  0  0  0  0  0
    4.1091   -1.0231   -0.2009 N   0  0  0  0  0  0  0  0  0  0  0  0
    5.5979   -1.2401   -0.9889 S   0  0  0  0  0  6  0  0  0  0  0  0
    5.3057   -1.4448   -2.3948 O   0  0  0  0  0  0  0  0  0  0  0  0
    6.3867   -2.2043   -0.2524 O   0  0  0  0  0  0  0  0  0  0  0  0
    6.3821    0.3282   -0.8216 C   0  0  0  0  0  0  0  0  0  0  0  0
    6.7375    1.0693   -1.9546 C   0  0  0  0  0  0  0  0  0  0  0  0
    7.3576    2.3101   -1.7971 C   0  0  0  0  0  0  0  0  0  0  0  0
    7.6219    2.8032   -0.5175 C   0  0  0  0  0  0  0  0  0  0  0  0
    7.2687    2.0545    0.6067 C   0  0  0  0  0  0  0  0  0  0  0  0
    6.6507    0.8164    0.4504 C   0  0  0  0  0  0  0  0  0  0  0  0
    6.3197    0.1259    1.5497 F   0  0  0  0  0  0  0  0  0  0  0  0
    3.4728   -2.2995    0.2485 C   0  0  0  0  0  0  0  0  0  0  0  0
    1.9497   -2.1524    0.4232 C   0  0  0  0  0  0  0  0  0  0  0  0
   -1.8808   -0.3385    0.4168 N   0  0  0  0  0  0  0  0  0  0  0  0
   -2.6095    0.5993    1.1890 C   0  0  0  0  0  0  0  0  0  0  0  0
   -1.9988    1.6845    1.8271 C   0  0  0  0  0  0  0  0  0  0  0  0
   -2.7441    2.5622    2.6214 C   0  0  0  0  0  0  0  0  0  0  0  0
   -4.1097    2.3642    2.7977 C   0  0  0  0  0  0  0  0  0  0  0  0
   -4.7410    1.2958    2.1641 C   0  0  0  0  0  0  0  0  0  0  0  0
   -4.0053    0.4259    1.3413 C   0  0  0  0  0  0  0  0  0  0  0  0
   -4.7061   -0.6898    0.6395 C   0  0  0  0  0  0  0  0  0  0  0  0
   -4.1056   -1.7426    0.4248 O   0  0  0  0  0  0  0  0  0  0  0  0
   -6.1019   -0.5547    0.1554 C   0  0  0  0  0  0  0  0  0  0  0  0
   -6.9476   -1.6672    0.2361 C   0  0  0  0  0  0  0  0  0  0  0  0
   -8.2611   -1.5791   -0.2265 C   0  0  0  0  0  0  0  0  0  0  0  0
   -8.7262   -0.3870   -0.7823 C   0  0  0  0  0  0  0  0  0  0  0  0
   -7.8783    0.7166   -0.8849 C   0  0  0  0  0  0  0  0  0  0  0  0
   -6.5632    0.6341   -0.4231 C   0  0  0  0  0  0  0  0  0  0  0  0
   -0.5881   -1.4944   -1.7336 H   0  0  0  0  0  0  0  0  0  0  0  0
   -0.6155   -2.4496   -0.2569 H   0  0  0  0  0  0  0  0  0  0  0  0
    2.4888   -1.3189   -2.4707 H   0  0  0  0  0  0  0  0  0  0  0  0
    1.3559   -0.0566   -2.0558 H   0  0  0  0  0  0  0  0  0  0  0  0
    2.7302    0.5531   -0.0464 H   0  0  0  0  0  0  0  0  0  0  0  0
    3.6665    0.6142   -1.5194 H   0  0  0  0  0  0  0  0  0  0  0  0
    6.5406    0.6880   -2.9545 H   0  0  0  0  0  0  0  0  0  0  0  0
    7.6385    2.8923   -2.6726 H   0  0  0  0  0  0  0  0  0  0  0  0
    8.1069    3.7695   -0.3961 H   0  0  0  0  0  0  0  0  0  0  0  0
    7.4726    2.4275    1.6063 H   0  0  0  0  0  0  0  0  0  0  0  0
    3.9193   -2.5845    1.2076 H   0  0  0  0  0  0  0  0  0  0  0  0
    3.6749   -3.1000   -0.4739 H   0  0  0  0  0  0  0  0  0  0  0  0
    1.7497   -1.3894    1.1853 H   0  0  0  0  0  0  0  0  0  0  0  0
    1.5491   -3.1008    0.7996 H   0  0  0  0  0  0  0  0  0  0  0  0
   -2.4260   -1.1529    0.1212 H   0  0  0  0  0  0  0  0  0  0  0  0
   -0.9317    1.8682    1.7450 H   0  0  0  0  0  0  0  0  0  0  0  0
   -2.2456    3.3937    3.1155 H   0  0  0  0  0  0  0  0  0  0  0  0
   -4.6795    3.0389    3.4322 H   0  0  0  0  0  0  0  0  0  0  0  0
   -5.8053    1.1488    2.3310 H   0  0  0  0  0  0  0  0  0  0  0  0
   -6.5852   -2.6027    0.6577 H   0  0  0  0  0  0  0  0  0  0  0  0
   -8.9196   -2.4419   -0.1594 H   0  0  0  0  0  0  0  0  0  0  0  0
   -9.7489   -0.3225   -1.1477 H   0  0  0  0  0  0  0  0  0  0  0  0
   -8.2400    1.6383   -1.3355 H   0  0  0  0  0  0  0  0  0  0  0  0
   -5.9091    1.4950   -0.5381 H   0  0  0  0  0  0  0  0  0  0  0  0
  1  2  2  0
  2  3  1  0
  3  4  1  0
  4  5  1  0
  5  6  1  0
  6  7  1  0
  7  8  1  0
  8  9  2  0
  8 10  2  0
  8 11  1  0
 11 12  2  0
 12 13  1  0
 13 14  2  0
 14 15  1  0
 15 16  2  0
 16 17  1  0
  7 18  1  0
 18 19  1  0
  2 20  1  0
 20 21  1  0
 21 22  2  0
 22 23  1  0
 23 24  2  0
 24 25  1  0
 25 26  2  0
 26 27  1  0
 27 28  2  0
 27 29  1  0
 29 30  2  0
 30 31  1  0
 31 32  2  0
 32 33  1  0
 33 34  2  0
 19  4  1  0
 26 21  1  0
 34 29  1  0
 16 11  1  0
  3 35  1  0
  3 36  1  0
  5 37  1  0
  5 38  1  0
  6 39  1  0
  6 40  1  0
 12 41  1  0
 13 42  1  0
 14 43  1  0
 15 44  1  0
 18 45  1  0
 18 46  1  0
 19 47  1  0
 19 48  1  0
 20 49  1  0
 22 50  1  0
 23 51  1  0
 24 52  1  0
 25 53  1  0
 30 54  1  0
 31 55  1  0
 32 56  1  0
 33 57  1  0
 34 58  1  0
M  END
$$$$
