
     RDKit          3D

 47 49  0  0  0  0  0  0  0  0999 V2000
    6.3432   -2.2188   -1.5106 C   0  0  0  0  0  0  0  0  0  0  0  0
    5.7411   -0.8291   -1.6427 C   0  0  0  0  0  0  0  0  0  0  0  0
    4.6669   -0.5811   -0.5845 C   0  0  0  0  0  0  0  0  0  0  0  0
    4.0652    0.8193   -0.7234 C   0  0  0  0  0  0  0  0  0  0  0  0
    3.0576    1.1000    0.2955 N   0  0  0  0  0  0  0  0  0  0  0  0
    1.7272    0.5488    0.0979 C   0  0  0  0  0  0  0  0  0  0  0  0
    0.7183    1.0631    1.0670 C   0  0  0  0  0  0  0  0  0  0  0  0
   -0.6589    0.9241    0.8656 C   0  0  0  0  0  0  0  0  0  0  0  0
   -1.5403    1.3495    1.8611 C   0  0  0  0  0  0  0  0  0  0  0  0
   -3.0120    1.2690    1.7328 C   0  0  0  0  0  0  0  0  0  0  0  0
   -3.7122    2.0713    2.3461 O   0  0  0  0  0  0  0  0  0  0  0  0
   -3.6701    0.2751    0.8560 C   0  0  0  0  0  0  0  0  0  0  0  0
   -4.6895    0.7287    0.0095 C   0  0  0  0  0  0  0  0  0  0  0  0
   -5.3658   -0.1607   -0.8288 C   0  0  0  0  0  0  0  0  0  0  0  0
   -6.3279    0.4126   -1.6118 O   0  0  0  0  0  0  0  0  0  0  0  0
   -7.1110   -0.4578   -2.4190 C   0  0  0  0  0  0  0  0  0  0  0  0
   -5.0225   -1.5136   -0.8104 C   0  0  0  0  0  0  0  0  0  0  0  0
   -4.0203   -1.9777    0.0501 C   0  0  0  0  0  0  0  0  0  0  0  0
   -3.3510   -1.0851    0.8863 C   0  0  0  0  0  0  0  0  0  0  0  0
   -2.3951   -1.5510    1.7427 O   0  0  0  0  0  0  0  0  0  0  0  0
   -0.9984    1.9102    3.0110 C   0  0  0  0  0  0  0  0  0  0  0  0
    0.3336    2.0458    3.2342 N   0  0  0  0  0  0  0  0  0  0  0  0
    1.1555    1.6236    2.2544 C   0  0  0  0  0  0  0  0  0  0  0  0
    2.5123    1.7697    2.4636 N   0  0  0  0  0  0  0  0  0  0  0  0
    3.4778    1.5480    1.5336 C   0  0  0  0  0  0  0  0  0  0  0  0
    4.6548    1.7759    1.8063 O   0  0  0  0  0  0  0  0  0  0  0  0
    5.5771   -2.9917   -1.6304 H   0  0  0  0  0  0  0  0  0  0  0  0
    7.1070   -2.3756   -2.2786 H   0  0  0  0  0  0  0  0  0  0  0  0
    6.8141   -2.3506   -0.5312 H   0  0  0  0  0  0  0  0  0  0  0  0
    5.3097   -0.7175   -2.6441 H   0  0  0  0  0  0  0  0  0  0  0  0
    6.5377   -0.0821   -1.5472 H   0  0  0  0  0  0  0  0  0  0  0  0
    5.0988   -0.7038    0.4162 H   0  0  0  0  0  0  0  0  0  0  0  0
    3.8778   -1.3363   -0.6801 H   0  0  0  0  0  0  0  0  0  0  0  0
    4.8621    1.5687   -0.6445 H   0  0  0  0  0  0  0  0  0  0  0  0
    3.6025    0.9478   -1.7088 H   0  0  0  0  0  0  0  0  0  0  0  0
    1.4125    0.7954   -0.9227 H   0  0  0  0  0  0  0  0  0  0  0  0
    1.7935   -0.5408    0.1959 H   0  0  0  0  0  0  0  0  0  0  0  0
   -1.0276    0.4866   -0.0571 H   0  0  0  0  0  0  0  0  0  0  0  0
   -4.9642    1.7822    0.0068 H   0  0  0  0  0  0  0  0  0  0  0  0
   -7.8521    0.1511   -2.9456 H   0  0  0  0  0  0  0  0  0  0  0  0
   -7.6526   -1.1858   -1.8058 H   0  0  0  0  0  0  0  0  0  0  0  0
   -6.4932   -0.9565   -3.1731 H   0  0  0  0  0  0  0  0  0  0  0  0
   -5.5224   -2.2361   -1.4479 H   0  0  0  0  0  0  0  0  0  0  0  0
   -3.7821   -3.0379    0.0538 H   0  0  0  0  0  0  0  0  0  0  0  0
   -2.4399   -2.5221    1.7795 H   0  0  0  0  0  0  0  0  0  0  0  0
   -1.6359    2.2748    3.8135 H   0  0  0  0  0  0  0  0  0  0  0  0
    2.7989    2.1703    3.3439 H   0  0  0  0  0  0  0  0  0  0  0  0
  1  2  1  0
  2  3  1  0
  3  4  1  0
  4  5  1  0
  5  6  1  0
  6  7  1  0
  7  8  2  0
  8  9  1  0
  9 10  1  0
 10 11  2  0
 10 12  1  0
 12 13  2  0
 13 14  1  0
 14 15  1  0
 15 16  1  0
 14 17  2  0
 17 18  1  0
 18 19  2  0
 19 20  1  0
  9 21  2  0
 21 22  1  0
 22 23  2  0
 23 24  1  0
 24 25  1  0
 25 26  2  0
 25  5  1  0
 23  7  1  0
 19 12  1  0
  1 27  1  0
  1 28  1  0
  1 29  1  0
  2 30  1  0
  2 31  1  0
  3 32  1  0
  3 33  1  0
  4 34  1  0
  4 35  1  0
  6 36  1  0
  6 37  1  0
  8 38  1  0
 13 39  1  0
 16 40  1  0
 16 41  1  0
 16 42  1  0
 17 43  1  0
 18 44  1  0
 20 45  1  0
 21 46  1  0
 24 47  1  0
M  END
$$$$
