
     RDKit          3D

 51 54  0  0  0  0  0  0  0  0999 V2000
   -3.0996   -3.1696   -4.2139 C   0  0  0  0  0  0  0  0  0  0  0  0
   -1.7995   -2.7037   -3.8757 O   0  0  0  0  0  0  0  0  0  0  0  0
   -1.7260   -1.6070   -3.0616 C   0  0  0  0  0  0  0  0  0  0  0  0
   -2.8115   -0.9088   -2.5257 C   0  0  0  0  0  0  0  0  0  0  0  0
   -2.5945    0.2019   -1.7046 C   0  0  0  0  0  0  0  0  0  0  0  0
   -1.2888    0.6019   -1.4129 C   0  0  0  0  0  0  0  0  0  0  0  0
   -1.0763    1.7817   -0.5492 C   0  0  0  0  0  0  0  0  0  0  0  0
   -1.2443    2.9480   -1.0862 N   0  0  0  0  0  0  0  0  0  0  0  0
   -1.0518    4.0864   -0.2980 C   0  0  0  0  0  0  0  0  0  0  0  0
   -1.2399    5.3451   -0.8742 C   0  0  0  0  0  0  0  0  0  0  0  0
   -1.0535    6.5086   -0.1223 C   0  0  0  0  0  0  0  0  0  0  0  0
   -0.6755    6.4214    1.2173 C   0  0  0  0  0  0  0  0  0  0  0  0
   -0.4841    5.1706    1.8032 C   0  0  0  0  0  0  0  0  0  0  0  0
   -0.6745    4.0125    1.0391 C   0  0  0  0  0  0  0  0  0  0  0  0
   -0.4827    2.6752    1.6227 C   0  0  0  0  0  0  0  0  0  0  0  0
   -0.1177    2.5706    2.7916 O   0  0  0  0  0  0  0  0  0  0  0  0
   -0.7230    1.5872    0.7837 N   0  0  0  0  0  0  0  0  0  0  0  0
   -0.5685    0.2591    1.3910 C   0  0  0  0  0  0  0  0  0  0  0  0
    0.8996   -0.1528    1.5399 C   0  0  0  0  0  0  0  0  0  0  0  0
    0.9383   -1.5508    1.8315 O   0  0  0  0  0  0  0  0  0  0  0  0
    2.1696   -2.1519    1.8590 C   0  0  0  0  0  0  0  0  0  0  0  0
    3.3897   -1.4690    1.8706 C   0  0  0  0  0  0  0  0  0  0  0  0
    4.5945   -2.1754    1.9041 C   0  0  0  0  0  0  0  0  0  0  0  0
    4.5889   -3.5668    1.9295 C   0  0  0  0  0  0  0  0  0  0  0  0
    3.3778   -4.2562    1.9261 C   0  0  0  0  0  0  0  0  0  0  0  0
    2.1609   -3.5582    1.8957 C   0  0  0  0  0  0  0  0  0  0  0  0
    0.8636   -4.3190    1.8922 C   0  0  0  0  0  0  0  0  0  0  0  0
   -0.1975   -0.0737   -1.9585 C   0  0  0  0  0  0  0  0  0  0  0  0
   -0.4231   -1.1831   -2.7748 C   0  0  0  0  0  0  0  0  0  0  0  0
   -3.6484   -3.4912   -3.3224 H   0  0  0  0  0  0  0  0  0  0  0  0
   -3.6591   -2.4102   -4.7704 H   0  0  0  0  0  0  0  0  0  0  0  0
   -2.9832   -4.0411   -4.8654 H   0  0  0  0  0  0  0  0  0  0  0  0
   -3.8366   -1.1968   -2.7334 H   0  0  0  0  0  0  0  0  0  0  0  0
   -3.4395    0.7536   -1.3008 H   0  0  0  0  0  0  0  0  0  0  0  0
   -1.5332    5.4152   -1.9188 H   0  0  0  0  0  0  0  0  0  0  0  0
   -1.2031    7.4815   -0.5848 H   0  0  0  0  0  0  0  0  0  0  0  0
   -0.5300    7.3256    1.8034 H   0  0  0  0  0  0  0  0  0  0  0  0
   -0.1890    5.0982    2.8474 H   0  0  0  0  0  0  0  0  0  0  0  0
   -1.0375    0.2666    2.3835 H   0  0  0  0  0  0  0  0  0  0  0  0
   -1.1165   -0.4985    0.8230 H   0  0  0  0  0  0  0  0  0  0  0  0
    1.4371    0.0494    0.6061 H   0  0  0  0  0  0  0  0  0  0  0  0
    1.3631    0.4147    2.3551 H   0  0  0  0  0  0  0  0  0  0  0  0
    3.4398   -0.3852    1.8655 H   0  0  0  0  0  0  0  0  0  0  0  0
    5.5386   -1.6367    1.9147 H   0  0  0  0  0  0  0  0  0  0  0  0
    5.5267   -4.1156    1.9565 H   0  0  0  0  0  0  0  0  0  0  0  0
    3.3876   -5.3435    1.9496 H   0  0  0  0  0  0  0  0  0  0  0  0
    0.3139   -4.1244    0.9655 H   0  0  0  0  0  0  0  0  0  0  0  0
    0.2485   -4.0247    2.7491 H   0  0  0  0  0  0  0  0  0  0  0  0
    1.0301   -5.3993    1.9615 H   0  0  0  0  0  0  0  0  0  0  0  0
    0.8181    0.2582   -1.7653 H   0  0  0  0  0  0  0  0  0  0  0  0
    0.4220   -1.7198   -3.2005 H   0  0  0  0  0  0  0  0  0  0  0  0
  1  2  1  0
  2  3  1  0
  3  4  2  0
  4  5  1  0
  5  6  2  0
  6  7  1  0
  7  8  2  0
  8  9  1  0
  9 10  2  0
 10 11  1  0
 11 12  2  0
 12 13  1  0
 13 14  2  0
 14 15  1  0
 15 16  2  0
 15 17  1  0
 17 18  1  0
 18 19  1  0
 19 20  1  0
 20 21  1  0
 21 22  2  0
 22 23  1  0
 23 24  2  0
 24 25  1  0
 25 26  2  0
 26 27  1  0
  6 28  1  0
 28 29  2  0
 29  3  1  0
 17  7  1  0
 26 21  1  0
 14  9  1  0
  1 30  1  0
  1 31  1  0
  1 32  1  0
  4 33  1  0
  5 34  1  0
 10 35  1  0
 11 36  1  0
 12 37  1  0
 13 38  1  0
 18 39  1  0
 18 40  1  0
 19 41  1  0
 19 42  1  0
 22 43  1  0
 23 44  1  0
 24 45  1  0
 25 46  1  0
 27 47  1  0
 27 48  1  0
 27 49  1  0
 28 50  1  0
 29 51  1  0
M  END
$$$$
