
     RDKit          3D

 40 42  0  0  0  0  0  0  0  0999 V2000
    6.1928   -0.7198    0.4829 C   0  0  0  0  0  0  0  0  0  0  0  0
    5.5452    0.6228    0.1806 C   0  0  0  0  0  0  0  0  0  0  0  0
    4.0407    0.5262    0.1533 C   0  0  0  0  0  0  0  0  0  0  0  0
    3.3696    0.2154   -1.0361 C   0  0  0  0  0  0  0  0  0  0  0  0
    1.9755    0.1068   -1.0603 C   0  0  0  0  0  0  0  0  0  0  0  0
    1.2363    0.3062    0.1099 C   0  0  0  0  0  0  0  0  0  0  0  0
   -0.2423    0.2026    0.1192 C   0  0  0  0  0  0  0  0  0  0  0  0
   -0.9518    0.3263    1.1983 N   0  0  0  0  0  0  0  0  0  0  0  0
   -2.3780    0.1337    0.7881 N   0  0  0  0  0  0  0  0  0  0  0  0
   -3.5781    0.9845    1.6590 S   0  0  0  0  0  6  0  0  0  0  0  0
   -2.9541    2.6507    1.5792 C   0  0  0  0  0  0  0  0  0  0  0  0
   -4.8178    0.9499    0.9100 O   0  0  0  0  0  0  0  0  0  0  0  0
   -3.5330    0.5700    3.0465 O   0  0  0  0  0  0  0  0  0  0  0  0
   -2.4760    0.1340   -0.6912 C   0  0  0  0  0  0  0  0  0  0  0  0
   -3.3466   -0.9901   -1.1779 C   0  0  0  0  0  0  0  0  0  0  0  0
   -3.6539   -2.1934   -0.5684 C   0  0  0  0  0  0  0  0  0  0  0  0
   -4.5154   -3.0033   -1.3623 C   0  0  0  0  0  0  0  0  0  0  0  0
   -4.8362   -2.3981   -2.5558 C   0  0  0  0  0  0  0  0  0  0  0  0
   -4.1006   -0.8641   -2.7162 S   0  0  0  0  0  0  0  0  0  0  0  0
   -1.0235   -0.0613   -1.1412 C   0  0  0  0  0  0  0  0  0  0  0  0
    1.9038    0.6063    1.3029 C   0  0  0  0  0  0  0  0  0  0  0  0
    3.2965    0.7140    1.3240 C   0  0  0  0  0  0  0  0  0  0  0  0
    7.2827   -0.6197    0.4963 H   0  0  0  0  0  0  0  0  0  0  0  0
    5.8752   -1.1036    1.4583 H   0  0  0  0  0  0  0  0  0  0  0  0
    5.9300   -1.4670   -0.2736 H   0  0  0  0  0  0  0  0  0  0  0  0
    5.8538    1.3607    0.9312 H   0  0  0  0  0  0  0  0  0  0  0  0
    5.9078    1.0009   -0.7830 H   0  0  0  0  0  0  0  0  0  0  0  0
    3.9322    0.0513   -1.9534 H   0  0  0  0  0  0  0  0  0  0  0  0
    1.4969   -0.1417   -2.0027 H   0  0  0  0  0  0  0  0  0  0  0  0
   -3.6725    3.2992    2.0861 H   0  0  0  0  0  0  0  0  0  0  0  0
   -2.8624    2.9533    0.5350 H   0  0  0  0  0  0  0  0  0  0  0  0
   -1.9921    2.7028    2.0915 H   0  0  0  0  0  0  0  0  0  0  0  0
   -2.8373    1.1073   -1.0443 H   0  0  0  0  0  0  0  0  0  0  0  0
   -3.2855   -2.4755    0.4122 H   0  0  0  0  0  0  0  0  0  0  0  0
   -4.8863   -3.9774   -1.0676 H   0  0  0  0  0  0  0  0  0  0  0  0
   -5.4727   -2.7815   -3.3414 H   0  0  0  0  0  0  0  0  0  0  0  0
   -0.7598    0.6544   -1.9258 H   0  0  0  0  0  0  0  0  0  0  0  0
   -0.8093   -1.0777   -1.4898 H   0  0  0  0  0  0  0  0  0  0  0  0
    1.3494    0.7534    2.2279 H   0  0  0  0  0  0  0  0  0  0  0  0
    3.7967    0.9417    2.2633 H   0  0  0  0  0  0  0  0  0  0  0  0
  1  2  1  0
  2  3  1  0
  3  4  2  0
  4  5  1  0
  5  6  2  0
  6  7  1  0
  7  8  2  0
  8  9  1  0
  9 10  1  0
 10 11  1  0
 10 12  2  0
 10 13  2  0
  9 14  1  0
 14 15  1  0
 15 16  2  0
 16 17  1  0
 17 18  2  0
 18 19  1  0
 14 20  1  0
  6 21  1  0
 21 22  2  0
 22  3  1  0
 20  7  1  0
 19 15  1  0
  1 23  1  0
  1 24  1  0
  1 25  1  0
  2 26  1  0
  2 27  1  0
  4 28  1  0
  5 29  1  0
 11 30  1  0
 11 31  1  0
 11 32  1  0
 14 33  1  0
 16 34  1  0
 17 35  1  0
 18 36  1  0
 20 37  1  0
 20 38  1  0
 21 39  1  0
 22 40  1  0
M  END
$$$$
