
     RDKit          3D

 33 34  0  0  0  0  0  0  0  0999 V2000
    5.3359   -1.4172    0.8040 C   0  0  0  0  0  0  0  0  0  0  0  0
    6.1687   -0.1913    1.1475 C   0  0  0  0  0  0  0  0  0  0  0  0
    5.6045    1.1302    0.6225 C   0  0  0  0  0  0  0  0  0  0  0  0
    4.0873    1.6582    1.4757 S   0  0  0  0  0  0  0  0  0  0  0  0
    2.8318    1.0126    0.4452 C   0  0  0  0  0  0  0  0  0  0  0  0
    3.0660    0.4730   -0.7317 N   0  0  0  0  0  0  0  0  0  0  0  0
    1.9051    0.0362   -1.3392 N   0  0  0  0  0  0  0  0  0  0  0  0
    0.8419    0.2855   -0.6057 C   0  0  0  0  0  0  0  0  0  0  0  0
   -0.4177   -0.0828   -1.0099 N   0  0  0  0  0  0  0  0  0  0  0  0
   -1.6123    0.2785   -0.4204 C   0  0  0  0  0  0  0  0  0  0  0  0
   -1.7265    1.0470    0.5241 O   0  0  0  0  0  0  0  0  0  0  0  0
   -2.6705   -0.3589   -1.0564 N   0  0  0  0  0  0  0  0  0  0  0  0
   -4.0507   -0.1869   -0.8157 C   0  0  0  0  0  0  0  0  0  0  0  0
   -4.5827    0.7929    0.0243 C   0  0  0  0  0  0  0  0  0  0  0  0
   -5.9663    0.9011    0.2008 C   0  0  0  0  0  0  0  0  0  0  0  0
   -6.8294    0.0336   -0.4637 C   0  0  0  0  0  0  0  0  0  0  0  0
   -6.3104   -0.9431   -1.3087 C   0  0  0  0  0  0  0  0  0  0  0  0
   -4.9282   -1.0509   -1.4854 C   0  0  0  0  0  0  0  0  0  0  0  0
    1.1771    1.0312    0.8880 S   0  0  0  0  0  0  0  0  0  0  0  0
    4.3684   -1.4065    1.3138 H   0  0  0  0  0  0  0  0  0  0  0  0
    5.1633   -1.4860   -0.2747 H   0  0  0  0  0  0  0  0  0  0  0  0
    5.8611   -2.3253    1.1180 H   0  0  0  0  0  0  0  0  0  0  0  0
    7.1659   -0.3290    0.7106 H   0  0  0  0  0  0  0  0  0  0  0  0
    6.3149   -0.1398    2.2334 H   0  0  0  0  0  0  0  0  0  0  0  0
    5.4696    1.0994   -0.4633 H   0  0  0  0  0  0  0  0  0  0  0  0
    6.3472    1.9133    0.8138 H   0  0  0  0  0  0  0  0  0  0  0  0
   -0.4343   -0.5022   -1.9253 H   0  0  0  0  0  0  0  0  0  0  0  0
   -2.4278   -1.1174   -1.6755 H   0  0  0  0  0  0  0  0  0  0  0  0
   -3.9495    1.4974    0.5547 H   0  0  0  0  0  0  0  0  0  0  0  0
   -6.3657    1.6691    0.8590 H   0  0  0  0  0  0  0  0  0  0  0  0
   -7.9036    0.1211   -0.3234 H   0  0  0  0  0  0  0  0  0  0  0  0
   -6.9806   -1.6212   -1.8307 H   0  0  0  0  0  0  0  0  0  0  0  0
   -4.5522   -1.8220   -2.1522 H   0  0  0  0  0  0  0  0  0  0  0  0
  1  2  1  0
  2  3  1  0
  3  4  1  0
  4  5  1  0
  5  6  2  0
  6  7  1  0
  7  8  2  0
  8  9  1  0
  9 10  1  0
 10 11  2  0
 10 12  1  0
 12 13  1  0
 13 14  2  0
 14 15  1  0
 15 16  2  0
 16 17  1  0
 17 18  2  0
  8 19  1  0
 19  5  1  0
 18 13  1  0
  1 20  1  0
  1 21  1  0
  1 22  1  0
  2 23  1  0
  2 24  1  0
  3 25  1  0
  3 26  1  0
  9 27  1  0
 12 28  1  0
 14 29  1  0
 15 30  1  0
 16 31  1  0
 17 32  1  0
 18 33  1  0
M  END
$$$$
