
     RDKit          3D

 45 47  0  0  0  0  0  0  0  0999 V2000
   -3.5781   -2.6110   -1.2547 C   0  0  0  0  0  0  0  0  0  0  0  0
   -2.8046   -1.6683   -0.3740 C   0  0  0  0  0  0  0  0  0  0  0  0
   -1.6907   -2.1174    0.3418 C   0  0  0  0  0  0  0  0  0  0  0  0
   -0.9573   -1.2314    1.1302 C   0  0  0  0  0  0  0  0  0  0  0  0
   -1.3229    0.1130    1.1980 C   0  0  0  0  0  0  0  0  0  0  0  0
   -2.4133    0.5958    0.4557 C   0  0  0  0  0  0  0  0  0  0  0  0
   -2.7873    2.0538    0.5369 C   0  0  0  0  0  0  0  0  0  0  0  0
   -2.6185    2.8912   -1.0432 S   0  0  0  0  0  6  0  0  0  0  0  0
   -2.6529    4.3232   -0.7769 O   0  0  0  0  0  0  0  0  0  0  0  0
   -3.5993    2.3372   -1.9633 O   0  0  0  0  0  0  0  0  0  0  0  0
   -0.9936    2.4894   -1.6818 C   0  0  0  0  0  0  0  0  0  0  0  0
    0.0592    2.8157   -0.6915 C   0  0  0  0  0  0  0  0  0  0  0  0
    0.4168    3.9464    0.0133 C   0  0  0  0  0  0  0  0  0  0  0  0
    1.5080    3.5792    0.8404 C   0  0  0  0  0  0  0  0  0  0  0  0
    1.7835    2.2531    0.5687 C   0  0  0  0  0  0  0  0  0  0  0  0
    2.7677    1.3449    1.1196 C   0  0  0  0  0  0  0  0  0  0  0  0
    3.5389    1.6438    2.0262 O   0  0  0  0  0  0  0  0  0  0  0  0
    2.7498    0.0919    0.5489 N   0  0  0  0  0  0  0  0  0  0  0  0
    3.6740   -0.9366    0.9507 C   0  0  0  0  0  0  0  0  0  0  0  0
    3.3733   -2.1669    0.1839 C   0  0  0  0  0  0  0  0  0  0  0  0
    2.5915   -3.2763    0.4420 C   0  0  0  0  0  0  0  0  0  0  0  0
    2.6941   -4.1076   -0.7022 C   0  0  0  0  0  0  0  0  0  0  0  0
    3.5313   -3.4525   -1.5830 C   0  0  0  0  0  0  0  0  0  0  0  0
    3.9478   -2.2727   -1.0551 O   0  0  0  0  0  0  0  0  0  0  0  0
    0.9071    1.7957   -0.3784 O   0  0  0  0  0  0  0  0  0  0  0  0
   -3.1574   -0.3123   -0.3166 C   0  0  0  0  0  0  0  0  0  0  0  0
   -3.4242   -3.6567   -0.9540 H   0  0  0  0  0  0  0  0  0  0  0  0
   -3.2531   -2.4963   -2.2945 H   0  0  0  0  0  0  0  0  0  0  0  0
   -4.6551   -2.4097   -1.1865 H   0  0  0  0  0  0  0  0  0  0  0  0
   -1.3910   -3.1640    0.2960 H   0  0  0  0  0  0  0  0  0  0  0  0
   -0.1031   -1.5873    1.7028 H   0  0  0  0  0  0  0  0  0  0  0  0
   -0.7463    0.7814    1.8364 H   0  0  0  0  0  0  0  0  0  0  0  0
   -3.8315    2.1627    0.8570 H   0  0  0  0  0  0  0  0  0  0  0  0
   -2.1583    2.5900    1.2571 H   0  0  0  0  0  0  0  0  0  0  0  0
   -0.9932    1.4282   -1.9414 H   0  0  0  0  0  0  0  0  0  0  0  0
   -0.8598    3.0671   -2.5994 H   0  0  0  0  0  0  0  0  0  0  0  0
   -0.0663    4.9148   -0.0386 H   0  0  0  0  0  0  0  0  0  0  0  0
    2.0361    4.1962    1.5551 H   0  0  0  0  0  0  0  0  0  0  0  0
    2.1028   -0.0805   -0.2128 H   0  0  0  0  0  0  0  0  0  0  0  0
    3.5601   -1.1080    2.0288 H   0  0  0  0  0  0  0  0  0  0  0  0
    4.6931   -0.5859    0.7712 H   0  0  0  0  0  0  0  0  0  0  0  0
    2.0203   -3.4593    1.3460 H   0  0  0  0  0  0  0  0  0  0  0  0
    2.2170   -5.0648   -0.8641 H   0  0  0  0  0  0  0  0  0  0  0  0
    3.9100   -3.6802   -2.5731 H   0  0  0  0  0  0  0  0  0  0  0  0
   -4.0246    0.0309   -0.8832 H   0  0  0  0  0  0  0  0  0  0  0  0
  1  2  1  0
  2  3  2  0
  3  4  1  0
  4  5  2  0
  5  6  1  0
  6  7  1  0
  7  8  1  0
  8  9  2  0
  8 10  2  0
  8 11  1  0
 11 12  1  0
 12 13  2  0
 13 14  1  0
 14 15  2  0
 15 16  1  0
 16 17  2  0
 16 18  1  0
 18 19  1  0
 19 20  1  0
 20 21  2  0
 21 22  1  0
 22 23  2  0
 23 24  1  0
 15 25  1  0
  6 26  2  0
 26  2  1  0
 25 12  1  0
 24 20  1  0
  1 27  1  0
  1 28  1  0
  1 29  1  0
  3 30  1  0
  4 31  1  0
  5 32  1  0
  7 33  1  0
  7 34  1  0
 11 35  1  0
 11 36  1  0
 13 37  1  0
 14 38  1  0
 18 39  1  0
 19 40  1  0
 19 41  1  0
 21 42  1  0
 22 43  1  0
 23 44  1  0
 26 45  1  0
M  END
$$$$
