
     RDKit          3D

 58 62  0  0  0  0  0  0  0  0999 V2000
    3.4225    0.5573    4.2803 C   0  0  0  0  0  0  0  0  0  0  0  0
    3.7747    0.3175    2.9173 O   0  0  0  0  0  0  0  0  0  0  0  0
    3.2223   -0.8048    2.3908 C   0  0  0  0  0  0  0  0  0  0  0  0
    2.4677   -1.5646    2.9787 O   0  0  0  0  0  0  0  0  0  0  0  0
    3.6135   -0.9780    0.9682 C   0  0  0  0  0  0  0  0  0  0  0  0
    4.7966   -0.4965    0.5515 C   0  0  0  0  0  0  0  0  0  0  0  0
    5.3430   -0.6583   -0.6955 O   0  0  0  0  0  0  0  0  0  0  0  0
    4.6794   -1.5952   -1.5606 C   0  0  0  0  0  0  0  0  0  0  0  0
    5.2564   -2.9920   -1.3254 C   0  0  0  0  0  0  0  0  0  0  0  0
    3.1468   -1.5347   -1.4311 C   0  0  0  0  0  0  0  0  0  0  0  0
    2.6376   -0.1809   -1.9820 C   0  0  0  0  0  0  0  0  0  0  0  0
    1.1865   -0.0616   -1.8214 N   0  0  0  0  0  0  0  0  0  0  0  0
    0.6656    1.1599   -2.4807 C   0  0  0  0  0  0  0  0  0  0  0  0
   -0.8847    1.1968   -2.5084 C   0  0  0  0  0  0  0  0  0  0  0  0
   -1.4367    0.8113   -1.1797 C   0  0  0  0  0  0  0  0  0  0  0  0
   -0.6409    0.1948   -0.2357 C   0  0  0  0  0  0  0  0  0  0  0  0
   -1.4069   -0.0329    0.8745 N   0  0  0  0  0  0  0  0  0  0  0  0
   -2.6952    0.4103    0.6540 C   0  0  0  0  0  0  0  0  0  0  0  0
   -3.8138    0.3763    1.4981 C   0  0  0  0  0  0  0  0  0  0  0  0
   -5.0203    0.9045    1.0133 C   0  0  0  0  0  0  0  0  0  0  0  0
   -6.1893    0.9338    1.7398 O   0  0  0  0  0  0  0  0  0  0  0  0
   -6.1730    0.3617    3.0389 C   0  0  0  0  0  0  0  0  0  0  0  0
   -5.0942    1.4507   -0.2840 C   0  0  0  0  0  0  0  0  0  0  0  0
   -6.3240    1.9418   -0.6585 O   0  0  0  0  0  0  0  0  0  0  0  0
   -6.4461    2.4818   -1.9659 C   0  0  0  0  0  0  0  0  0  0  0  0
   -3.9577    1.4722   -1.1078 C   0  0  0  0  0  0  0  0  0  0  0  0
   -2.7400    0.9450   -0.6331 C   0  0  0  0  0  0  0  0  0  0  0  0
    0.8215   -0.1000   -0.3827 C   0  0  0  0  0  0  0  0  0  0  0  0
    1.2003   -1.4784    0.1636 C   0  0  0  0  0  0  0  0  0  0  0  0
    2.7112   -1.7613    0.0373 C   0  0  0  0  0  0  0  0  0  0  0  0
    3.7546   -0.2707    4.9144 H   0  0  0  0  0  0  0  0  0  0  0  0
    2.3429    0.7105    4.3749 H   0  0  0  0  0  0  0  0  0  0  0  0
    3.9316    1.4686    4.6063 H   0  0  0  0  0  0  0  0  0  0  0  0
    5.4786    0.0791    1.1679 H   0  0  0  0  0  0  0  0  0  0  0  0
    4.9551   -1.3080   -2.5831 H   0  0  0  0  0  0  0  0  0  0  0  0
    5.1161   -3.3282   -0.2934 H   0  0  0  0  0  0  0  0  0  0  0  0
    6.3380   -2.9846   -1.5013 H   0  0  0  0  0  0  0  0  0  0  0  0
    4.8014   -3.7255   -1.9980 H   0  0  0  0  0  0  0  0  0  0  0  0
    2.7077   -2.3307   -2.0495 H   0  0  0  0  0  0  0  0  0  0  0  0
    3.1469    0.6668   -1.5067 H   0  0  0  0  0  0  0  0  0  0  0  0
    2.8870   -0.1388   -3.0502 H   0  0  0  0  0  0  0  0  0  0  0  0
    1.0481    2.0545   -1.9704 H   0  0  0  0  0  0  0  0  0  0  0  0
    1.0165    1.2070   -3.5190 H   0  0  0  0  0  0  0  0  0  0  0  0
   -1.2537    0.4914   -3.2629 H   0  0  0  0  0  0  0  0  0  0  0  0
   -1.2228    2.1995   -2.7915 H   0  0  0  0  0  0  0  0  0  0  0  0
   -1.0899   -0.4641    1.7322 H   0  0  0  0  0  0  0  0  0  0  0  0
   -3.7225   -0.0497    2.4887 H   0  0  0  0  0  0  0  0  0  0  0  0
   -5.4864    0.9013    3.6995 H   0  0  0  0  0  0  0  0  0  0  0  0
   -5.9297   -0.7051    2.9990 H   0  0  0  0  0  0  0  0  0  0  0  0
   -7.1791    0.4564    3.4587 H   0  0  0  0  0  0  0  0  0  0  0  0
   -7.4812    2.8125   -2.0956 H   0  0  0  0  0  0  0  0  0  0  0  0
   -6.2429    1.7227   -2.7285 H   0  0  0  0  0  0  0  0  0  0  0  0
   -5.8004    3.3568   -2.0941 H   0  0  0  0  0  0  0  0  0  0  0  0
   -3.9798    1.8836   -2.1087 H   0  0  0  0  0  0  0  0  0  0  0  0
    1.3651    0.6830    0.1648 H   0  0  0  0  0  0  0  0  0  0  0  0
    0.6537   -2.2549   -0.3923 H   0  0  0  0  0  0  0  0  0  0  0  0
    0.8666   -1.5878    1.1997 H   0  0  0  0  0  0  0  0  0  0  0  0
    2.8557   -2.8221    0.2851 H   0  0  0  0  0  0  0  0  0  0  0  0
  1  2  1  0
  2  3  1  0
  3  4  2  0
  3  5  1  0
  5  6  2  0
  6  7  1  0
  7  8  1  0
  8  9  1  0
  8 10  1  0
 10 11  1  0
 11 12  1  0
 12 13  1  0
 13 14  1  0
 14 15  1  0
 15 16  2  0
 16 17  1  0
 17 18  1  0
 18 19  2  0
 19 20  1  0
 20 21  1  0
 21 22  1  0
 20 23  2  0
 23 24  1  0
 24 25  1  0
 23 26  1  0
 26 27  2  0
 16 28  1  0
 28 29  1  0
 29 30  1  0
 30  5  1  0
 30 10  1  0
 28 12  1  0
 27 15  1  0
 27 18  1  0
  1 31  1  0
  1 32  1  0
  1 33  1  0
  6 34  1  0
  8 35  1  0
  9 36  1  0
  9 37  1  0
  9 38  1  0
 10 39  1  0
 11 40  1  0
 11 41  1  0
 13 42  1  0
 13 43  1  0
 14 44  1  0
 14 45  1  0
 17 46  1  0
 19 47  1  0
 22 48  1  0
 22 49  1  0
 22 50  1  0
 25 51  1  0
 25 52  1  0
 25 53  1  0
 26 54  1  0
 28 55  1  0
 29 56  1  0
 29 57  1  0
 30 58  1  0
M  END
$$$$
