
     RDKit          3D

 39 41  0  0  0  0  0  0  0  0999 V2000
    4.1405    0.7812   -2.9265 O   0  0  0  0  0  0  0  0  0  0  0  0
    3.0883    0.2593   -2.5878 C   0  0  0  0  0  0  0  0  0  0  0  0
    2.0336    0.3061   -3.4372 O   0  0  0  0  0  0  0  0  0  0  0  0
    2.8384   -0.5874   -1.3292 C   0  0  0  0  0  0  0  0  0  0  0  0
    3.5947   -0.1772   -0.0704 C   0  0  0  0  0  0  0  0  0  0  0  0
    3.9091    1.1585    0.2220 C   0  0  0  0  0  0  0  0  0  0  0  0
    4.5798    1.4931    1.4008 C   0  0  0  0  0  0  0  0  0  0  0  0
    4.9408    0.5001    2.3076 C   0  0  0  0  0  0  0  0  0  0  0  0
    4.6291   -0.8297    2.0396 C   0  0  0  0  0  0  0  0  0  0  0  0
    3.9583   -1.1665    0.8624 C   0  0  0  0  0  0  0  0  0  0  0  0
    1.4017   -0.7953   -1.0737 N   0  0  0  0  0  0  0  0  0  0  0  0
    0.6206    0.3020   -0.7517 C   0  0  0  0  0  0  0  0  0  0  0  0
    0.9909    1.4672   -0.7012 O   0  0  0  0  0  0  0  0  0  0  0  0
   -0.7880   -0.1130   -0.5226 C   0  0  0  0  0  0  0  0  0  0  0  0
   -1.7239    0.7621   -0.1307 C   0  0  0  0  0  0  0  0  0  0  0  0
   -3.1341    0.4594    0.1357 C   0  0  0  0  0  0  0  0  0  0  0  0
   -3.9944    0.0310   -0.8886 C   0  0  0  0  0  0  0  0  0  0  0  0
   -5.3411   -0.2401   -0.6230 C   0  0  0  0  0  0  0  0  0  0  0  0
   -5.8223   -0.0716    0.6689 C   0  0  0  0  0  0  0  0  0  0  0  0
   -7.1271   -0.3196    0.9932 O   0  0  0  0  0  0  0  0  0  0  0  0
   -4.9745    0.3649    1.6837 C   0  0  0  0  0  0  0  0  0  0  0  0
   -5.4586    0.5326    2.9500 O   0  0  0  0  0  0  0  0  0  0  0  0
   -3.6367    0.6354    1.4297 C   0  0  0  0  0  0  0  0  0  0  0  0
   -0.9618   -1.7934   -0.8149 S   0  0  0  0  0  0  0  0  0  0  0  0
    0.7415   -1.9964   -1.2088 C   0  0  0  0  0  0  0  0  0  0  0  0
    1.3586   -3.4816   -1.6552 S   0  0  0  0  0  0  0  0  0  0  0  0
    2.3585    0.8595   -4.1800 H   0  0  0  0  0  0  0  0  0  0  0  0
    3.2782   -1.5472   -1.6257 H   0  0  0  0  0  0  0  0  0  0  0  0
    3.6294    1.9616   -0.4581 H   0  0  0  0  0  0  0  0  0  0  0  0
    4.8160    2.5333    1.6109 H   0  0  0  0  0  0  0  0  0  0  0  0
    5.4622    0.7642    3.2239 H   0  0  0  0  0  0  0  0  0  0  0  0
    4.9076   -1.6056    2.7483 H   0  0  0  0  0  0  0  0  0  0  0  0
    3.7250   -2.2139    0.6790 H   0  0  0  0  0  0  0  0  0  0  0  0
   -1.4474    1.8015    0.0436 H   0  0  0  0  0  0  0  0  0  0  0  0
   -3.6213   -0.0934   -1.9031 H   0  0  0  0  0  0  0  0  0  0  0  0
   -5.9855   -0.5746   -1.4292 H   0  0  0  0  0  0  0  0  0  0  0  0
   -7.5855   -0.6249    0.1915 H   0  0  0  0  0  0  0  0  0  0  0  0
   -6.4024    0.2841    2.8863 H   0  0  0  0  0  0  0  0  0  0  0  0
   -2.9982    0.9744    2.2407 H   0  0  0  0  0  0  0  0  0  0  0  0
  1  2  2  0
  2  3  1  0
  2  4  1  0
  4  5  1  0
  5  6  2  0
  6  7  1  0
  7  8  2  0
  8  9  1  0
  9 10  2  0
  4 11  1  0
 11 12  1  0
 12 13  2  0
 12 14  1  0
 14 15  2  3
 15 16  1  0
 16 17  2  0
 17 18  1  0
 18 19  2  0
 19 20  1  0
 19 21  1  0
 21 22  1  0
 21 23  2  0
 14 24  1  0
 24 25  1  0
 25 26  2  0
 10  5  1  0
 25 11  1  0
 23 16  1  0
  3 27  1  0
  4 28  1  0
  6 29  1  0
  7 30  1  0
  8 31  1  0
  9 32  1  0
 10 33  1  0
 15 34  1  0
 17 35  1  0
 18 36  1  0
 20 37  1  0
 22 38  1  0
 23 39  1  0
M  END
$$$$
