
     RDKit          3D

 50 53  0  0  0  0  0  0  0  0999 V2000
    7.5019    0.4946   -2.3799 C   0  0  0  0  0  0  0  0  0  0  0  0
    6.3334    0.4000   -1.4498 C   0  0  0  0  0  0  0  0  0  0  0  0
    5.0308    0.5072   -1.9335 C   0  0  0  0  0  0  0  0  0  0  0  0
    3.9360    0.4343   -1.1384 N   0  0  0  0  0  0  0  0  0  0  0  0
    4.2056    0.2536    0.1871 C   0  0  0  0  0  0  0  0  0  0  0  0
    3.0415    0.1682    1.1118 C   0  0  0  0  0  0  0  0  0  0  0  0
    3.1904   -0.0254    2.3121 O   0  0  0  0  0  0  0  0  0  0  0  0
    1.8165    0.3148    0.5000 N   0  0  0  0  0  0  0  0  0  0  0  0
    0.5705    0.1343    1.2089 C   0  0  0  0  0  0  0  0  0  0  0  0
    0.2509   -1.3691    1.3848 C   0  0  0  0  0  0  0  0  0  0  0  0
   -1.2418   -1.6585    1.7206 C   0  0  0  0  0  0  0  0  0  0  0  0
   -1.6218   -1.0389    3.0813 C   0  0  0  0  0  0  0  0  0  0  0  0
   -1.4409   -3.1828    1.8222 C   0  0  0  0  0  0  0  0  0  0  0  0
   -2.1705   -1.1058    0.5929 C   0  0  0  0  0  0  0  0  0  0  0  0
   -1.7422    0.2558    0.1525 C   0  0  0  0  0  0  0  0  0  0  0  0
   -0.5102    0.8158    0.4432 C   0  0  0  0  0  0  0  0  0  0  0  0
   -0.5912    2.1236   -0.0448 C   0  0  0  0  0  0  0  0  0  0  0  0
   -1.7595    2.3755   -0.6285 N   0  0  0  0  0  0  0  0  0  0  0  0
   -2.4642    1.2061   -0.5607 N   0  0  0  0  0  0  0  0  0  0  0  0
   -3.7480    1.1386   -1.1877 C   0  0  0  0  0  0  0  0  0  0  0  0
   -4.3410    2.3316   -1.6407 C   0  0  0  0  0  0  0  0  0  0  0  0
   -5.5958    2.3209   -2.2554 C   0  0  0  0  0  0  0  0  0  0  0  0
   -6.2711    1.1185   -2.4361 C   0  0  0  0  0  0  0  0  0  0  0  0
   -5.6882   -0.0718   -2.0093 C   0  0  0  0  0  0  0  0  0  0  0  0
   -4.4313   -0.0654   -1.3917 C   0  0  0  0  0  0  0  0  0  0  0  0
    5.4958    0.1463    0.6792 C   0  0  0  0  0  0  0  0  0  0  0  0
    6.5853    0.2170   -0.1287 N   0  0  0  0  0  0  0  0  0  0  0  0
    8.4415    0.3338   -1.8423 H   0  0  0  0  0  0  0  0  0  0  0  0
    7.4259   -0.2656   -3.1637 H   0  0  0  0  0  0  0  0  0  0  0  0
    7.5369    1.4858   -2.8424 H   0  0  0  0  0  0  0  0  0  0  0  0
    4.8312    0.6568   -2.9901 H   0  0  0  0  0  0  0  0  0  0  0  0
    1.8200    0.3617   -0.5158 H   0  0  0  0  0  0  0  0  0  0  0  0
    0.6626    0.6021    2.1971 H   0  0  0  0  0  0  0  0  0  0  0  0
    0.9052   -1.7901    2.1596 H   0  0  0  0  0  0  0  0  0  0  0  0
    0.5072   -1.9023    0.4570 H   0  0  0  0  0  0  0  0  0  0  0  0
   -0.9578   -1.4001    3.8745 H   0  0  0  0  0  0  0  0  0  0  0  0
   -1.5641    0.0538    3.0733 H   0  0  0  0  0  0  0  0  0  0  0  0
   -2.6473   -1.3069    3.3608 H   0  0  0  0  0  0  0  0  0  0  0  0
   -0.8235   -3.6095    2.6208 H   0  0  0  0  0  0  0  0  0  0  0  0
   -2.4862   -3.4310    2.0380 H   0  0  0  0  0  0  0  0  0  0  0  0
   -1.1660   -3.6834    0.8872 H   0  0  0  0  0  0  0  0  0  0  0  0
   -2.1161   -1.7762   -0.2740 H   0  0  0  0  0  0  0  0  0  0  0  0
   -3.2040   -1.0922    0.9562 H   0  0  0  0  0  0  0  0  0  0  0  0
    0.1493    2.9118    0.0103 H   0  0  0  0  0  0  0  0  0  0  0  0
   -3.8381    3.2891   -1.5120 H   0  0  0  0  0  0  0  0  0  0  0  0
   -6.0407    3.2538   -2.5913 H   0  0  0  0  0  0  0  0  0  0  0  0
   -7.2462    1.1084   -2.9156 H   0  0  0  0  0  0  0  0  0  0  0  0
   -6.2101   -1.0134   -2.1643 H   0  0  0  0  0  0  0  0  0  0  0  0
   -4.0165   -1.0265   -1.1208 H   0  0  0  0  0  0  0  0  0  0  0  0
    5.6960    0.0011    1.7356 H   0  0  0  0  0  0  0  0  0  0  0  0
  1  2  1  0
  2  3  2  0
  3  4  1  0
  4  5  2  0
  5  6  1  0
  6  7  2  0
  6  8  1  0
  8  9  1  0
  9 10  1  0
 10 11  1  0
 11 12  1  0
 11 13  1  0
 11 14  1  0
 14 15  1  0
 15 16  2  0
 16 17  1  0
 17 18  2  0
 18 19  1  0
 19 20  1  0
 20 21  2  0
 21 22  1  0
 22 23  2  0
 23 24  1  0
 24 25  2  0
  5 26  1  0
 26 27  2  0
 27  2  1  0
 16  9  1  0
 25 20  1  0
 19 15  1  0
  1 28  1  0
  1 29  1  0
  1 30  1  0
  3 31  1  0
  8 32  1  0
  9 33  1  0
 10 34  1  0
 10 35  1  0
 12 36  1  0
 12 37  1  0
 12 38  1  0
 13 39  1  0
 13 40  1  0
 13 41  1  0
 14 42  1  0
 14 43  1  0
 17 44  1  0
 21 45  1  0
 22 46  1  0
 23 47  1  0
 24 48  1  0
 25 49  1  0
 26 50  1  0
M  END
$$$$
