
     RDKit          3D

 46 49  0  0  0  0  0  0  0  0999 V2000
    5.6485   -1.2725   -0.8609 C   0  0  0  0  0  0  0  0  0  0  0  0
    4.7914   -0.2760   -1.1185 C   0  0  0  0  0  0  0  0  0  0  0  0
    3.2776   -0.3179   -1.1313 C   0  0  0  0  0  0  0  0  0  0  0  0
    2.5953   -1.6236   -0.6218 C   0  0  0  0  0  0  0  0  0  0  0  0
    1.3540   -1.3321    0.1530 N   0  0  0  0  0  0  0  0  0  0  0  0
    1.7778   -0.6746    1.4187 C   0  0  0  0  0  0  0  0  0  0  0  0
    2.7075    0.5220    1.1673 C   0  0  0  0  0  0  0  0  0  0  0  0
    2.6715    0.8678   -0.3292 C   0  0  0  0  0  0  0  0  0  0  0  0
    1.1811    0.9960   -0.7105 C   0  0  0  0  0  0  0  0  0  0  0  0
    0.5227   -0.3993   -0.6671 C   0  0  0  0  0  0  0  0  0  0  0  0
   -0.9166   -0.3837   -0.2185 C   0  0  0  0  0  0  0  0  0  0  0  0
   -1.3610   -1.3025    0.7055 N   0  0  0  0  0  0  0  0  0  0  0  0
   -2.7013   -1.1612    0.9472 C   0  0  0  0  0  0  0  0  0  0  0  0
   -3.5407   -1.8666    1.8175 C   0  0  0  0  0  0  0  0  0  0  0  0
   -4.8947   -1.5212    1.8332 C   0  0  0  0  0  0  0  0  0  0  0  0
   -5.3864   -0.5167    1.0041 C   0  0  0  0  0  0  0  0  0  0  0  0
   -4.5311    0.1745    0.1381 C   0  0  0  0  0  0  0  0  0  0  0  0
   -3.1561   -0.1440    0.1132 C   0  0  0  0  0  0  0  0  0  0  0  0
   -2.0267    0.3510   -0.6266 C   0  0  0  0  0  0  0  0  0  0  0  0
   -2.0813    1.4260   -1.6764 C   0  0  0  0  0  0  0  0  0  0  0  0
   -1.9888    2.8418   -1.1052 C   0  0  0  0  0  0  0  0  0  0  0  0
   -3.1822    3.2172   -0.4241 O   0  0  0  0  0  0  0  0  0  0  0  0
    6.7202   -1.0955   -0.9011 H   0  0  0  0  0  0  0  0  0  0  0  0
    5.3350   -2.2811   -0.6178 H   0  0  0  0  0  0  0  0  0  0  0  0
    5.2243    0.6908   -1.3790 H   0  0  0  0  0  0  0  0  0  0  0  0
    2.9904   -0.1797   -2.1841 H   0  0  0  0  0  0  0  0  0  0  0  0
    2.3461   -2.2618   -1.4794 H   0  0  0  0  0  0  0  0  0  0  0  0
    3.2547   -2.2281    0.0103 H   0  0  0  0  0  0  0  0  0  0  0  0
    2.2862   -1.4077    2.0575 H   0  0  0  0  0  0  0  0  0  0  0  0
    0.9037   -0.3500    1.9955 H   0  0  0  0  0  0  0  0  0  0  0  0
    2.3742    1.3797    1.7636 H   0  0  0  0  0  0  0  0  0  0  0  0
    3.7294    0.2863    1.4857 H   0  0  0  0  0  0  0  0  0  0  0  0
    3.1968    1.8094   -0.5231 H   0  0  0  0  0  0  0  0  0  0  0  0
    1.0947    1.4145   -1.7205 H   0  0  0  0  0  0  0  0  0  0  0  0
    0.6951    1.6982   -0.0234 H   0  0  0  0  0  0  0  0  0  0  0  0
    0.4865   -0.7962   -1.6931 H   0  0  0  0  0  0  0  0  0  0  0  0
   -0.7548   -1.9944    1.1267 H   0  0  0  0  0  0  0  0  0  0  0  0
   -3.1601   -2.6582    2.4544 H   0  0  0  0  0  0  0  0  0  0  0  0
   -5.5739   -2.0508    2.4970 H   0  0  0  0  0  0  0  0  0  0  0  0
   -6.4446   -0.2681    1.0239 H   0  0  0  0  0  0  0  0  0  0  0  0
   -4.9305    0.9500   -0.5101 H   0  0  0  0  0  0  0  0  0  0  0  0
   -3.0158    1.3206   -2.2413 H   0  0  0  0  0  0  0  0  0  0  0  0
   -1.2643    1.2722   -2.3904 H   0  0  0  0  0  0  0  0  0  0  0  0
   -1.1498    2.9587   -0.4140 H   0  0  0  0  0  0  0  0  0  0  0  0
   -1.8506    3.5551   -1.9240 H   0  0  0  0  0  0  0  0  0  0  0  0
   -3.2534    2.6318    0.3526 H   0  0  0  0  0  0  0  0  0  0  0  0
  1  2  2  0
  2  3  1  0
  3  4  1  0
  4  5  1  0
  5  6  1  0
  6  7  1  0
  7  8  1  0
  8  9  1  0
  9 10  1  0
 10 11  1  0
 11 12  1  0
 12 13  1  0
 13 14  2  0
 14 15  1  0
 15 16  2  0
 16 17  1  0
 17 18  2  0
 18 19  1  0
 19 20  1  0
 20 21  1  0
 21 22  1  0
  8  3  1  0
 19 11  2  0
 10  5  1  0
 18 13  1  0
  1 23  1  0
  1 24  1  0
  2 25  1  0
  3 26  1  0
  4 27  1  0
  4 28  1  0
  6 29  1  0
  6 30  1  0
  7 31  1  0
  7 32  1  0
  8 33  1  0
  9 34  1  0
  9 35  1  0
 10 36  1  0
 12 37  1  0
 14 38  1  0
 15 39  1  0
 16 40  1  0
 17 41  1  0
 20 42  1  0
 20 43  1  0
 21 44  1  0
 21 45  1  0
 22 46  1  0
M  END
$$$$
