
     RDKit          3D

 28 30  0  0  0  0  0  0  0  0999 V2000
    1.1740    4.0152    0.0790 S   0  0  0  0  0  0  0  0  0  0  0  0
   -0.1757    3.0573   -0.0518 C   0  0  0  0  0  0  0  0  0  0  0  0
   -1.4666    3.5806   -0.1023 N   0  0  0  0  0  0  0  0  0  0  0  0
   -2.3949    2.5817   -0.0110 N   0  0  0  0  0  0  0  0  0  0  0  0
   -1.6934    1.4782    0.0097 C   0  0  0  0  0  0  0  0  0  0  0  0
   -2.3094    0.1459    0.1287 C   0  0  0  0  0  0  0  0  0  0  0  0
   -1.7541   -1.0166   -0.4077 C   0  0  0  0  0  0  0  0  0  0  0  0
   -2.4248   -2.2302   -0.2594 C   0  0  0  0  0  0  0  0  0  0  0  0
   -3.6364   -2.2375    0.4130 C   0  0  0  0  0  0  0  0  0  0  0  0
   -4.2114   -1.1311    0.9299 N   0  0  0  0  0  0  0  0  0  0  0  0
   -3.5382    0.0365    0.7699 C   0  0  0  0  0  0  0  0  0  0  0  0
   -0.3369    1.6775   -0.0838 N   0  0  0  0  0  0  0  0  0  0  0  0
    0.5886    0.7289    0.2533 N   0  0  0  0  0  0  0  0  0  0  0  0
    1.7213    0.7657   -0.3751 C   0  0  0  0  0  0  0  0  0  0  0  0
    2.7588   -0.1808   -0.0476 C   0  0  0  0  0  0  0  0  0  0  0  0
    2.7672   -1.1641    0.9244 C   0  0  0  0  0  0  0  0  0  0  0  0
    3.9891   -1.9023    0.9352 C   0  0  0  0  0  0  0  0  0  0  0  0
    4.8506   -1.4450   -0.0293 C   0  0  0  0  0  0  0  0  0  0  0  0
    6.5885   -2.1815   -0.3267 Br  0  0  0  0  0  0  0  0  0  0  0  0
    4.2222   -0.1590   -0.9352 S   0  0  0  0  0  0  0  0  0  0  0  0
   -1.7213    4.5570   -0.0059 H   0  0  0  0  0  0  0  0  0  0  0  0
   -0.8166   -0.9961   -0.9531 H   0  0  0  0  0  0  0  0  0  0  0  0
   -2.0137   -3.1485   -0.6644 H   0  0  0  0  0  0  0  0  0  0  0  0
   -4.1950   -3.1588    0.5530 H   0  0  0  0  0  0  0  0  0  0  0  0
   -4.0359    0.9056    1.1935 H   0  0  0  0  0  0  0  0  0  0  0  0
    1.9166    1.4791   -1.1957 H   0  0  0  0  0  0  0  0  0  0  0  0
    1.9370   -1.3424    1.5990 H   0  0  0  0  0  0  0  0  0  0  0  0
    4.2107   -2.7152    1.6158 H   0  0  0  0  0  0  0  0  0  0  0  0
  1  2  2  0
  2  3  1  0
  3  4  1  0
  4  5  2  0
  5  6  1  0
  6  7  2  0
  7  8  1  0
  8  9  2  0
  9 10  1  0
 10 11  2  0
  5 12  1  0
 12 13  1  0
 13 14  2  3
 14 15  1  0
 15 16  2  0
 16 17  1  0
 17 18  2  0
 18 19  1  0
 18 20  1  0
 12  2  1  0
 20 15  1  0
 11  6  1  0
  3 21  1  0
  7 22  1  0
  8 23  1  0
  9 24  1  0
 11 25  1  0
 14 26  1  0
 16 27  1  0
 17 28  1  0
M  END
$$$$
