
     RDKit          3D

 38 40  0  0  0  0  0  0  0  0999 V2000
   -7.4993    1.3643    0.2511 C   0  0  0  0  0  0  0  0  0  0  0  0
   -6.6375    0.2338    0.2664 O   0  0  0  0  0  0  0  0  0  0  0  0
   -5.2936    0.4811    0.2817 C   0  0  0  0  0  0  0  0  0  0  0  0
   -4.6876    1.7334    0.2809 C   0  0  0  0  0  0  0  0  0  0  0  0
   -3.2892    1.8376    0.2975 C   0  0  0  0  0  0  0  0  0  0  0  0
   -2.4628    0.7008    0.3129 C   0  0  0  0  0  0  0  0  0  0  0  0
   -1.0688    0.8887    0.3387 N   0  0  0  0  0  0  0  0  0  0  0  0
   -0.0763   -0.0296    0.4168 C   0  0  0  0  0  0  0  0  0  0  0  0
   -0.1881   -1.3329    0.5404 N   0  0  0  0  0  0  0  0  0  0  0  0
    1.0445   -1.9163    0.5916 C   0  0  0  0  0  0  0  0  0  0  0  0
    1.0943   -3.2495    0.7326 N   0  0  0  0  0  0  0  0  0  0  0  0
    2.1308   -1.0785    0.4866 C   0  0  0  0  0  0  0  0  0  0  0  0
    3.5352   -1.4206    0.5497 C   0  0  0  0  0  0  0  0  0  0  0  0
    3.9601   -2.3949    1.1730 O   0  0  0  0  0  0  0  0  0  0  0  0
    4.5488   -0.5955   -0.1615 C   0  0  0  0  0  0  0  0  0  0  0  0
    5.7507   -0.2940    0.4959 C   0  0  0  0  0  0  0  0  0  0  0  0
    6.7286    0.4621   -0.1525 C   0  0  0  0  0  0  0  0  0  0  0  0
    6.5066    0.8986   -1.4544 C   0  0  0  0  0  0  0  0  0  0  0  0
    7.4458    1.6230   -2.0756 F   0  0  0  0  0  0  0  0  0  0  0  0
    5.3281    0.5871   -2.1256 C   0  0  0  0  0  0  0  0  0  0  0  0
    4.3456   -0.1690   -1.4826 C   0  0  0  0  0  0  0  0  0  0  0  0
    1.5622    0.5333    0.3668 S   0  0  0  0  0  0  0  0  0  0  0  0
   -3.0905   -0.5471    0.3174 C   0  0  0  0  0  0  0  0  0  0  0  0
   -4.4873   -0.6554    0.3002 C   0  0  0  0  0  0  0  0  0  0  0  0
   -7.3701    1.9716    1.1531 H   0  0  0  0  0  0  0  0  0  0  0  0
   -8.5306    0.9986    0.2413 H   0  0  0  0  0  0  0  0  0  0  0  0
   -7.3496    1.9627   -0.6537 H   0  0  0  0  0  0  0  0  0  0  0  0
   -5.2671    2.6500    0.2691 H   0  0  0  0  0  0  0  0  0  0  0  0
   -2.8506    2.8327    0.3004 H   0  0  0  0  0  0  0  0  0  0  0  0
   -0.7811    1.8558    0.2708 H   0  0  0  0  0  0  0  0  0  0  0  0
    1.9437   -3.6714    1.1070 H   0  0  0  0  0  0  0  0  0  0  0  0
    0.2484   -3.7044    1.0605 H   0  0  0  0  0  0  0  0  0  0  0  0
    5.9263   -0.6492    1.5097 H   0  0  0  0  0  0  0  0  0  0  0  0
    7.6619    0.7070    0.3453 H   0  0  0  0  0  0  0  0  0  0  0  0
    5.1877    0.9271   -3.1473 H   0  0  0  0  0  0  0  0  0  0  0  0
    3.4401   -0.4320   -2.0246 H   0  0  0  0  0  0  0  0  0  0  0  0
   -2.5146   -1.4674    0.3291 H   0  0  0  0  0  0  0  0  0  0  0  0
   -4.9448   -1.6418    0.3016 H   0  0  0  0  0  0  0  0  0  0  0  0
  1  2  1  0
  2  3  1  0
  3  4  2  0
  4  5  1  0
  5  6  2  0
  6  7  1  0
  7  8  1  0
  8  9  2  0
  9 10  1  0
 10 11  1  0
 10 12  2  0
 12 13  1  0
 13 14  2  0
 13 15  1  0
 15 16  2  0
 16 17  1  0
 17 18  2  0
 18 19  1  0
 18 20  1  0
 20 21  2  0
 12 22  1  0
  6 23  1  0
 23 24  2  0
 24  3  1  0
 22  8  1  0
 21 15  1  0
  1 25  1  0
  1 26  1  0
  1 27  1  0
  4 28  1  0
  5 29  1  0
  7 30  1  0
 11 31  1  0
 11 32  1  0
 16 33  1  0
 17 34  1  0
 20 35  1  0
 21 36  1  0
 23 37  1  0
 24 38  1  0
M  END
$$$$
