
     RDKit          3D

 38 41  0  0  0  0  0  0  0  0999 V2000
   -5.1949    2.4974    0.2769 C   0  0  0  0  0  0  0  0  0  0  0  0
   -4.0443    1.5346    0.2050 C   0  0  0  0  0  0  0  0  0  0  0  0
   -4.2991    0.1679    0.1644 C   0  0  0  0  0  0  0  0  0  0  0  0
   -3.2358   -0.7454    0.0974 C   0  0  0  0  0  0  0  0  0  0  0  0
   -3.5209   -2.2206    0.0556 C   0  0  0  0  0  0  0  0  0  0  0  0
   -1.9207   -0.2075    0.0745 C   0  0  0  0  0  0  0  0  0  0  0  0
   -1.8043    1.1739    0.1213 C   0  0  0  0  0  0  0  0  0  0  0  0
   -2.8089    2.0698    0.1844 N   0  0  0  0  0  0  0  0  0  0  0  0
   -0.1952    1.7118    0.0920 S   0  0  0  0  0  0  0  0  0  0  0  0
    0.4277    0.1078    0.0130 C   0  0  0  0  0  0  0  0  0  0  0  0
    1.7705   -0.3317   -0.0419 C   0  0  0  0  0  0  0  0  0  0  0  0
    2.8707    0.6386   -0.0350 C   0  0  0  0  0  0  0  0  0  0  0  0
    3.4927    1.0071    1.1679 C   0  0  0  0  0  0  0  0  0  0  0  0
    4.5431    1.9271    1.1735 C   0  0  0  0  0  0  0  0  0  0  0  0
    4.9841    2.4898   -0.0221 C   0  0  0  0  0  0  0  0  0  0  0  0
    4.3760    2.1348   -1.2241 C   0  0  0  0  0  0  0  0  0  0  0  0
    3.3257    1.2146   -1.2314 C   0  0  0  0  0  0  0  0  0  0  0  0
    1.9756   -1.7229   -0.0981 C   0  0  0  0  0  0  0  0  0  0  0  0
    3.3023   -2.2642   -0.1578 C   0  0  0  0  0  0  0  0  0  0  0  0
    4.3686   -2.7176   -0.2352 N   0  0  0  0  0  0  0  0  0  0  0  0
    0.8765   -2.5797   -0.1076 C   0  0  0  0  0  0  0  0  0  0  0  0
    1.0141   -3.9688   -0.1201 N   0  0  0  0  0  0  0  0  0  0  0  0
   -0.3935   -2.1614   -0.0489 N   0  0  0  0  0  0  0  0  0  0  0  0
   -0.6153   -0.8192    0.0097 C   0  0  0  0  0  0  0  0  0  0  0  0
   -4.8374    3.5319    0.3016 H   0  0  0  0  0  0  0  0  0  0  0  0
   -5.8403    2.3810   -0.5994 H   0  0  0  0  0  0  0  0  0  0  0  0
   -5.7814    2.3180    1.1834 H   0  0  0  0  0  0  0  0  0  0  0  0
   -5.3260   -0.1883    0.1855 H   0  0  0  0  0  0  0  0  0  0  0  0
   -4.5961   -2.4254    0.0834 H   0  0  0  0  0  0  0  0  0  0  0  0
   -3.1216   -2.6549   -0.8663 H   0  0  0  0  0  0  0  0  0  0  0  0
   -3.0637   -2.7167    0.9174 H   0  0  0  0  0  0  0  0  0  0  0  0
    3.1624    0.5804    2.1129 H   0  0  0  0  0  0  0  0  0  0  0  0
    5.0179    2.2035    2.1116 H   0  0  0  0  0  0  0  0  0  0  0  0
    5.8027    3.2050   -0.0170 H   0  0  0  0  0  0  0  0  0  0  0  0
    4.7201    2.5739   -2.1570 H   0  0  0  0  0  0  0  0  0  0  0  0
    2.8634    0.9520   -2.1807 H   0  0  0  0  0  0  0  0  0  0  0  0
    0.0850   -4.3811   -0.1656 H   0  0  0  0  0  0  0  0  0  0  0  0
    1.6205   -4.3154   -0.8569 H   0  0  0  0  0  0  0  0  0  0  0  0
  1  2  1  0
  2  3  2  0
  3  4  1  0
  4  5  1  0
  4  6  2  0
  6  7  1  0
  7  8  2  0
  7  9  1  0
  9 10  1  0
 10 11  2  0
 11 12  1  0
 12 13  2  0
 13 14  1  0
 14 15  2  0
 15 16  1  0
 16 17  2  0
 11 18  1  0
 18 19  1  0
 19 20  3  0
 18 21  2  0
 21 22  1  0
 21 23  1  0
 23 24  2  0
  8  2  1  0
 24 10  1  0
 24  6  1  0
 17 12  1  0
  1 25  1  0
  1 26  1  0
  1 27  1  0
  3 28  1  0
  5 29  1  0
  5 30  1  0
  5 31  1  0
 13 32  1  0
 14 33  1  0
 15 34  1  0
 16 35  1  0
 17 36  1  0
 22 37  1  0
 22 38  1  0
M  END
$$$$
