
     RDKit          3D

 34 35  0  0  0  0  0  0  0  0999 V2000
   -1.9173    1.4985    0.9751 C   0  0  0  0  0  0  0  0  0  0  0  0
   -1.1130    0.2789    1.0108 N   0  0  0  0  0  0  0  0  0  0  0  0
    0.0533    0.3024    1.7948 C   0  0  0  0  0  0  0  0  0  0  0  0
    0.3126    1.2705    2.5135 O   0  0  0  0  0  0  0  0  0  0  0  0
    0.9463   -0.9399    1.7673 C   0  0  0  0  0  0  0  0  0  0  0  0
    2.6478   -0.6060    2.3082 S   0  0  0  0  0  0  0  0  0  0  0  0
    3.1299    0.5729    1.0711 C   0  0  0  0  0  0  0  0  0  0  0  0
    4.1659    1.3715    1.3770 N   0  0  0  0  0  0  0  0  0  0  0  0
    4.5437    2.2534    0.4353 C   0  0  0  0  0  0  0  0  0  0  0  0
    3.9412    2.3519   -0.7948 C   0  0  0  0  0  0  0  0  0  0  0  0
    2.9066    1.4755   -1.0173 C   0  0  0  0  0  0  0  0  0  0  0  0
    2.4840    0.5726   -0.1118 N   0  0  0  0  0  0  0  0  0  0  0  0
   -1.5085   -0.8488    0.1481 C   0  0  0  0  0  0  0  0  0  0  0  0
   -0.9518   -0.7101   -1.2789 C   0  0  0  0  0  0  0  0  0  0  0  0
   -1.5019   -1.8973   -2.0586 C   0  0  0  0  0  0  0  0  0  0  0  0
   -3.1463   -2.1651   -1.4151 S   0  0  0  0  0  6  0  0  0  0  0  0
   -3.2269   -3.5212   -0.9149 O   0  0  0  0  0  0  0  0  0  0  0  0
   -4.1091   -1.6224   -2.3497 O   0  0  0  0  0  0  0  0  0  0  0  0
   -3.0163   -1.0564   -0.0241 C   0  0  0  0  0  0  0  0  0  0  0  0
   -1.4483    2.3296    1.5074 H   0  0  0  0  0  0  0  0  0  0  0  0
   -2.0637    1.8028   -0.0651 H   0  0  0  0  0  0  0  0  0  0  0  0
   -2.8844    1.2950    1.4435 H   0  0  0  0  0  0  0  0  0  0  0  0
    0.5108   -1.6776    2.4487 H   0  0  0  0  0  0  0  0  0  0  0  0
    0.9978   -1.3821    0.7712 H   0  0  0  0  0  0  0  0  0  0  0  0
    5.3732    2.8980    0.7111 H   0  0  0  0  0  0  0  0  0  0  0  0
    4.2617    3.0694   -1.5368 H   0  0  0  0  0  0  0  0  0  0  0  0
    2.3703    1.4734   -1.9616 H   0  0  0  0  0  0  0  0  0  0  0  0
   -1.1067   -1.7697    0.5866 H   0  0  0  0  0  0  0  0  0  0  0  0
    0.1414   -0.6950   -1.3062 H   0  0  0  0  0  0  0  0  0  0  0  0
   -1.2987    0.2263   -1.7331 H   0  0  0  0  0  0  0  0  0  0  0  0
   -0.9151   -2.7999   -1.8648 H   0  0  0  0  0  0  0  0  0  0  0  0
   -1.5499   -1.7054   -3.1324 H   0  0  0  0  0  0  0  0  0  0  0  0
   -3.4819   -1.5057    0.8559 H   0  0  0  0  0  0  0  0  0  0  0  0
   -3.5470   -0.1401   -0.2965 H   0  0  0  0  0  0  0  0  0  0  0  0
  1  2  1  0
  2  3  1  0
  3  4  2  0
  3  5  1  0
  5  6  1  0
  6  7  1  0
  7  8  2  0
  8  9  1  0
  9 10  2  0
 10 11  1  0
 11 12  2  0
  2 13  1  0
 13 14  1  0
 14 15  1  0
 15 16  1  0
 16 17  2  0
 16 18  2  0
 16 19  1  0
 12  7  1  0
 19 13  1  0
  1 20  1  0
  1 21  1  0
  1 22  1  0
  5 23  1  0
  5 24  1  0
  9 25  1  0
 10 26  1  0
 11 27  1  0
 13 28  1  0
 14 29  1  0
 14 30  1  0
 15 31  1  0
 15 32  1  0
 19 33  1  0
 19 34  1  0
M  END
$$$$
