
     RDKit          3D

 41 43  0  0  0  0  0  0  0  0999 V2000
   -7.8569   -0.7199   -0.2492 C   0  0  0  0  0  0  0  0  0  0  0  0
   -6.3938   -0.5068   -0.5937 C   0  0  0  0  0  0  0  0  0  0  0  0
   -5.7126   -0.1213    0.5990 O   0  0  0  0  0  0  0  0  0  0  0  0
   -4.3709    0.1186    0.4999 C   0  0  0  0  0  0  0  0  0  0  0  0
   -3.6019    0.0261   -0.6577 C   0  0  0  0  0  0  0  0  0  0  0  0
   -2.2283    0.3002   -0.6155 C   0  0  0  0  0  0  0  0  0  0  0  0
   -1.6015    0.6814    0.5806 C   0  0  0  0  0  0  0  0  0  0  0  0
   -0.1818    0.9461    0.6127 N   0  0  0  0  0  0  0  0  0  0  0  0
    0.6447   -0.0514    0.0641 C   0  0  0  0  0  0  0  0  0  0  0  0
    0.2224   -1.1136   -0.4003 O   0  0  0  0  0  0  0  0  0  0  0  0
    2.1211    0.1970    0.0991 C   0  0  0  0  0  0  0  0  0  0  0  0
    2.8736   -0.7263   -0.5344 C   0  0  0  0  0  0  0  0  0  0  0  0
    4.2889   -0.7568   -0.6531 C   0  0  0  0  0  0  0  0  0  0  0  0
    5.2981   -0.6466    0.2963 C   0  0  0  0  0  0  0  0  0  0  0  0
    6.5416   -0.8031   -0.3611 C   0  0  0  0  0  0  0  0  0  0  0  0
    6.2429   -1.0300   -1.6816 C   0  0  0  0  0  0  0  0  0  0  0  0
    7.0610   -1.2755   -2.8844 C   0  0  0  0  0  0  0  0  0  0  0  0
    4.8966   -1.0212   -1.8619 O   0  0  0  0  0  0  0  0  0  0  0  0
    2.6373    1.4038    0.7696 C   0  0  0  0  0  0  0  0  0  0  0  0
    3.8141    1.7215    0.8705 O   0  0  0  0  0  0  0  0  0  0  0  0
    1.6782    2.2272    1.2808 N   0  0  0  0  0  0  0  0  0  0  0  0
    0.3156    2.1218    1.1863 C   0  0  0  0  0  0  0  0  0  0  0  0
   -0.5291    3.4737    1.7263 S   0  0  0  0  0  0  0  0  0  0  0  0
   -2.3815    0.7546    1.7420 C   0  0  0  0  0  0  0  0  0  0  0  0
   -3.7527    0.4809    1.6970 C   0  0  0  0  0  0  0  0  0  0  0  0
   -8.2940    0.1969    0.1602 H   0  0  0  0  0  0  0  0  0  0  0  0
   -7.9635   -1.4940    0.5180 H   0  0  0  0  0  0  0  0  0  0  0  0
   -8.4263   -1.0184   -1.1338 H   0  0  0  0  0  0  0  0  0  0  0  0
   -5.9781   -1.4432   -0.9835 H   0  0  0  0  0  0  0  0  0  0  0  0
   -6.3157    0.2838   -1.3490 H   0  0  0  0  0  0  0  0  0  0  0  0
   -4.0334   -0.2600   -1.6112 H   0  0  0  0  0  0  0  0  0  0  0  0
   -1.6585    0.2195   -1.5389 H   0  0  0  0  0  0  0  0  0  0  0  0
    2.3877   -1.5441   -1.0645 H   0  0  0  0  0  0  0  0  0  0  0  0
    5.1512   -0.4642    1.3520 H   0  0  0  0  0  0  0  0  0  0  0  0
    7.5284   -0.7600    0.0774 H   0  0  0  0  0  0  0  0  0  0  0  0
    8.1284   -1.2606   -2.6434 H   0  0  0  0  0  0  0  0  0  0  0  0
    6.8228   -2.2521   -3.3169 H   0  0  0  0  0  0  0  0  0  0  0  0
    6.8716   -0.5068   -3.6399 H   0  0  0  0  0  0  0  0  0  0  0  0
    2.0365    3.0848    1.6846 H   0  0  0  0  0  0  0  0  0  0  0  0
   -1.9392    0.9943    2.7054 H   0  0  0  0  0  0  0  0  0  0  0  0
   -4.3430    0.5435    2.6085 H   0  0  0  0  0  0  0  0  0  0  0  0
  1  2  1  0
  2  3  1  0
  3  4  1  0
  4  5  2  0
  5  6  1  0
  6  7  2  0
  7  8  1  0
  8  9  1  0
  9 10  2  0
  9 11  1  0
 11 12  2  3
 12 13  1  0
 13 14  2  0
 14 15  1  0
 15 16  2  0
 16 17  1  0
 16 18  1  0
 11 19  1  0
 19 20  2  0
 19 21  1  0
 21 22  1  0
 22 23  2  0
  7 24  1  0
 24 25  2  0
 25  4  1  0
 22  8  1  0
 18 13  1  0
  1 26  1  0
  1 27  1  0
  1 28  1  0
  2 29  1  0
  2 30  1  0
  5 31  1  0
  6 32  1  0
 12 33  1  0
 14 34  1  0
 15 35  1  0
 17 36  1  0
 17 37  1  0
 17 38  1  0
 21 39  1  0
 24 40  1  0
 25 41  1  0
M  END
$$$$
