
     RDKit          3D

 52 55  0  0  0  0  0  0  0  0999 V2000
   -4.0562    2.8887    2.7093 C   0  0  0  0  0  0  0  0  0  0  0  0
   -3.7393    1.5641    2.0847 C   0  0  0  0  0  0  0  0  0  0  0  0
   -3.4998    1.4464    0.7101 C   0  0  0  0  0  0  0  0  0  0  0  0
   -3.2017    0.1949    0.1645 C   0  0  0  0  0  0  0  0  0  0  0  0
   -2.9123    0.0326   -1.5784 S   0  0  0  0  0  6  0  0  0  0  0  0
   -3.5934   -1.1633   -2.0198 O   0  0  0  0  0  0  0  0  0  0  0  0
   -3.1268    1.3151   -2.2117 O   0  0  0  0  0  0  0  0  0  0  0  0
   -1.2858   -0.2962   -1.6277 N   0  0  0  0  0  0  0  0  0  0  0  0
   -0.3040    0.7853   -1.4721 C   0  0  0  0  0  0  0  0  0  0  0  0
    1.1372    0.2016   -1.2919 C   0  0  0  0  0  0  0  0  0  0  0  0
    1.3096   -0.1708    0.1869 C   0  0  0  0  0  0  0  0  0  0  0  0
    0.6723   -1.3090    0.7385 C   0  0  0  0  0  0  0  0  0  0  0  0
    0.8154   -1.6379    2.0888 C   0  0  0  0  0  0  0  0  0  0  0  0
    1.5925   -0.8137    2.8691 C   0  0  0  0  0  0  0  0  0  0  0  0
    2.2227    0.2909    2.3479 C   0  0  0  0  0  0  0  0  0  0  0  0
    2.1031    0.6392    1.0192 C   0  0  0  0  0  0  0  0  0  0  0  0
    2.9525    0.9596    3.2803 O   0  0  0  0  0  0  0  0  0  0  0  0
    2.6707    0.1774    4.4604 C   0  0  0  0  0  0  0  0  0  0  0  0
    1.8373   -0.9725    4.1960 O   0  0  0  0  0  0  0  0  0  0  0  0
    1.4531   -0.9377   -2.2091 N   0  0  0  0  0  0  0  0  0  0  0  0
    1.3319   -0.5919   -3.6469 C   0  0  0  0  0  0  0  0  0  0  0  0
    2.6619   -0.1956   -4.3083 C   0  0  0  0  0  0  0  0  0  0  0  0
    3.6455   -1.2364   -4.2603 O   0  0  0  0  0  0  0  0  0  0  0  0
    3.4382   -2.1538   -3.1778 C   0  0  0  0  0  0  0  0  0  0  0  0
    2.8208   -1.4721   -1.9473 C   0  0  0  0  0  0  0  0  0  0  0  0
   -3.1469   -0.9466    0.9718 C   0  0  0  0  0  0  0  0  0  0  0  0
   -3.3721   -0.8286    2.3399 C   0  0  0  0  0  0  0  0  0  0  0  0
   -3.6610    0.4181    2.8833 C   0  0  0  0  0  0  0  0  0  0  0  0
   -3.8789    0.5113    4.2016 F   0  0  0  0  0  0  0  0  0  0  0  0
   -4.9503    2.8058    3.3365 H   0  0  0  0  0  0  0  0  0  0  0  0
   -3.2149    3.2283    3.3215 H   0  0  0  0  0  0  0  0  0  0  0  0
   -4.2575    3.6536    1.9508 H   0  0  0  0  0  0  0  0  0  0  0  0
   -3.5514    2.3237    0.0688 H   0  0  0  0  0  0  0  0  0  0  0  0
   -0.9918   -1.1316   -2.1342 H   0  0  0  0  0  0  0  0  0  0  0  0
   -0.5702    1.4251   -0.6238 H   0  0  0  0  0  0  0  0  0  0  0  0
   -0.3325    1.4082   -2.3711 H   0  0  0  0  0  0  0  0  0  0  0  0
    1.8371    1.0192   -1.5116 H   0  0  0  0  0  0  0  0  0  0  0  0
    0.0651   -1.9511    0.1041 H   0  0  0  0  0  0  0  0  0  0  0  0
    0.3303   -2.5146    2.5078 H   0  0  0  0  0  0  0  0  0  0  0  0
    2.6192    1.5153    0.6431 H   0  0  0  0  0  0  0  0  0  0  0  0
    2.1644    0.8176    5.1965 H   0  0  0  0  0  0  0  0  0  0  0  0
    3.6227   -0.1679    4.8886 H   0  0  0  0  0  0  0  0  0  0  0  0
    0.9538   -1.4907   -4.1495 H   0  0  0  0  0  0  0  0  0  0  0  0
    0.5837    0.1819   -3.8335 H   0  0  0  0  0  0  0  0  0  0  0  0
    3.0841    0.6956   -3.8317 H   0  0  0  0  0  0  0  0  0  0  0  0
    2.4963    0.0497   -5.3624 H   0  0  0  0  0  0  0  0  0  0  0  0
    4.4112   -2.5831   -2.9216 H   0  0  0  0  0  0  0  0  0  0  0  0
    2.8042   -2.9759   -3.5320 H   0  0  0  0  0  0  0  0  0  0  0  0
    3.4959   -0.6586   -1.6498 H   0  0  0  0  0  0  0  0  0  0  0  0
    2.7760   -2.1996   -1.1284 H   0  0  0  0  0  0  0  0  0  0  0  0
   -2.9308   -1.9186    0.5403 H   0  0  0  0  0  0  0  0  0  0  0  0
   -3.3311   -1.6965    2.9907 H   0  0  0  0  0  0  0  0  0  0  0  0
  1  2  1  0
  2  3  2  0
  3  4  1  0
  4  5  1  0
  5  6  2  0
  5  7  2  0
  5  8  1  0
  8  9  1  0
  9 10  1  0
 10 11  1  0
 11 12  2  0
 12 13  1  0
 13 14  2  0
 14 15  1  0
 15 16  2  0
 15 17  1  0
 17 18  1  0
 18 19  1  0
 10 20  1  0
 20 21  1  0
 21 22  1  0
 22 23  1  0
 23 24  1  0
 24 25  1  0
  4 26  2  0
 26 27  1  0
 27 28  2  0
 28 29  1  0
 28  2  1  0
 16 11  1  0
 25 20  1  0
 19 14  1  0
  1 30  1  0
  1 31  1  0
  1 32  1  0
  3 33  1  0
  8 34  1  0
  9 35  1  0
  9 36  1  0
 10 37  1  0
 12 38  1  0
 13 39  1  0
 16 40  1  0
 18 41  1  0
 18 42  1  0
 21 43  1  0
 21 44  1  0
 22 45  1  0
 22 46  1  0
 24 47  1  0
 24 48  1  0
 25 49  1  0
 25 50  1  0
 26 51  1  0
 27 52  1  0
M  END
$$$$
