
     RDKit          3D

 67 72  0  0  0  0  0  0  0  0999 V2000
   -1.6306    6.6245    1.1651 C   0  0  0  0  0  0  0  0  0  0  0  0
   -2.0066    5.7252    0.1305 O   0  0  0  0  0  0  0  0  0  0  0  0
   -1.6919    4.4075    0.3136 C   0  0  0  0  0  0  0  0  0  0  0  0
   -1.0185    3.8674    1.4061 C   0  0  0  0  0  0  0  0  0  0  0  0
   -0.7552    2.4937    1.4608 C   0  0  0  0  0  0  0  0  0  0  0  0
   -1.1629    1.6312    0.4304 C   0  0  0  0  0  0  0  0  0  0  0  0
   -0.8152    0.1543    0.5259 C   0  0  0  0  0  0  0  0  0  0  0  0
   -1.8710   -0.8707    0.0093 C   0  0  0  0  0  0  0  0  0  0  0  0
   -2.7840   -1.3318    1.1709 C   0  0  0  0  0  0  0  0  0  0  0  0
   -3.0648   -0.5218    2.0685 O   0  0  0  0  0  0  0  0  0  0  0  0
   -3.4838   -2.7150    1.1486 C   0  0  0  0  0  0  0  0  0  0  0  0
   -4.3510   -2.8396    2.4246 C   0  0  0  0  0  0  0  0  0  0  0  0
   -2.4839   -3.8779    1.1732 C   0  0  0  0  0  0  0  0  0  0  0  0
   -4.4251   -2.8104   -0.0575 C   0  0  0  0  0  0  0  0  0  0  0  0
   -1.0790   -1.9349   -0.6268 N   0  0  0  0  0  0  0  0  0  0  0  0
   -1.5348   -2.3523   -1.8558 N   0  0  0  0  0  0  0  0  0  0  0  0
   -0.6902   -2.8762   -2.6909 C   0  0  0  0  0  0  0  0  0  0  0  0
    0.7463   -3.0175   -2.4509 C   0  0  0  0  0  0  0  0  0  0  0  0
    1.5593   -3.6687   -3.3791 C   0  0  0  0  0  0  0  0  0  0  0  0
    2.9249   -3.7854   -3.1243 C   0  0  0  0  0  0  0  0  0  0  0  0
    3.4639   -3.2560   -1.9510 C   0  0  0  0  0  0  0  0  0  0  0  0
    2.6411   -2.6013   -1.0313 C   0  0  0  0  0  0  0  0  0  0  0  0
    1.2695   -2.4686   -1.2825 C   0  0  0  0  0  0  0  0  0  0  0  0
    0.3476   -1.7613   -0.3336 C   0  0  0  0  0  0  0  0  0  0  0  0
    0.4982   -0.2443   -0.1857 C   0  0  0  0  0  0  0  0  0  0  0  0
    1.6738    0.1215    0.6619 N   0  0  0  0  0  0  0  0  0  0  0  0
    2.3419    0.9274   -0.1033 C   0  0  0  0  0  0  0  0  0  0  0  0
    3.5943    1.6162    0.2515 C   0  0  0  0  0  0  0  0  0  0  0  0
    4.1479    1.3993    1.5197 C   0  0  0  0  0  0  0  0  0  0  0  0
    5.3352    2.0369    1.8847 C   0  0  0  0  0  0  0  0  0  0  0  0
    5.9720    2.8923    0.9865 C   0  0  0  0  0  0  0  0  0  0  0  0
    5.4240    3.1135   -0.2766 C   0  0  0  0  0  0  0  0  0  0  0  0
    4.2365    2.4776   -0.6468 C   0  0  0  0  0  0  0  0  0  0  0  0
    1.8992    1.1715   -1.3485 O   0  0  0  0  0  0  0  0  0  0  0  0
    0.7522    0.4574   -1.5058 C   0  0  0  0  0  0  0  0  0  0  0  0
    0.1005    0.4283   -2.5350 O   0  0  0  0  0  0  0  0  0  0  0  0
   -1.8360    2.1870   -0.6637 C   0  0  0  0  0  0  0  0  0  0  0  0
   -2.0964    3.5598   -0.7174 C   0  0  0  0  0  0  0  0  0  0  0  0
   -0.5423    6.6543    1.2867 H   0  0  0  0  0  0  0  0  0  0  0  0
   -1.9599    7.6260    0.8723 H   0  0  0  0  0  0  0  0  0  0  0  0
   -2.1285    6.3739    2.1074 H   0  0  0  0  0  0  0  0  0  0  0  0
   -0.6834    4.4823    2.2343 H   0  0  0  0  0  0  0  0  0  0  0  0
   -0.2266    2.0989    2.3274 H   0  0  0  0  0  0  0  0  0  0  0  0
   -0.6645   -0.0590    1.5964 H   0  0  0  0  0  0  0  0  0  0  0  0
   -2.5328   -0.4443   -0.7518 H   0  0  0  0  0  0  0  0  0  0  0  0
   -5.1080   -2.0475    2.4733 H   0  0  0  0  0  0  0  0  0  0  0  0
   -4.8797   -3.8002    2.4580 H   0  0  0  0  0  0  0  0  0  0  0  0
   -3.7361   -2.7656    3.3302 H   0  0  0  0  0  0  0  0  0  0  0  0
   -2.0621   -4.0892    0.1879 H   0  0  0  0  0  0  0  0  0  0  0  0
   -2.9631   -4.8087    1.4991 H   0  0  0  0  0  0  0  0  0  0  0  0
   -1.6547   -3.6726    1.8589 H   0  0  0  0  0  0  0  0  0  0  0  0
   -3.8826   -2.8321   -1.0052 H   0  0  0  0  0  0  0  0  0  0  0  0
   -5.1052   -1.9513   -0.0968 H   0  0  0  0  0  0  0  0  0  0  0  0
   -5.0340   -3.7205   -0.0134 H   0  0  0  0  0  0  0  0  0  0  0  0
   -1.0804   -3.2294   -3.6596 H   0  0  0  0  0  0  0  0  0  0  0  0
    1.1427   -4.0843   -4.2921 H   0  0  0  0  0  0  0  0  0  0  0  0
    3.5702   -4.2926   -3.8375 H   0  0  0  0  0  0  0  0  0  0  0  0
    4.5287   -3.3565   -1.7523 H   0  0  0  0  0  0  0  0  0  0  0  0
    3.0767   -2.2023   -0.1174 H   0  0  0  0  0  0  0  0  0  0  0  0
    0.4843   -2.2327    0.6510 H   0  0  0  0  0  0  0  0  0  0  0  0
    3.6594    0.7365    2.2309 H   0  0  0  0  0  0  0  0  0  0  0  0
    5.7626    1.8677    2.8702 H   0  0  0  0  0  0  0  0  0  0  0  0
    6.8965    3.3896    1.2716 H   0  0  0  0  0  0  0  0  0  0  0  0
    5.9213    3.7846   -0.9734 H   0  0  0  0  0  0  0  0  0  0  0  0
    3.8263    2.6679   -1.6359 H   0  0  0  0  0  0  0  0  0  0  0  0
   -2.1542    1.5772   -1.5070 H   0  0  0  0  0  0  0  0  0  0  0  0
   -2.6177    3.9711   -1.5789 H   0  0  0  0  0  0  0  0  0  0  0  0
  1  2  1  0
  2  3  1  0
  3  4  2  0
  4  5  1  0
  5  6  2  0
  6  7  1  0
  7  8  1  0
  8  9  1  0
  9 10  2  0
  9 11  1  0
 11 12  1  0
 11 13  1  0
 11 14  1  0
  8 15  1  0
 15 16  1  0
 16 17  2  0
 17 18  1  0
 18 19  2  0
 19 20  1  0
 20 21  2  0
 21 22  1  0
 22 23  2  0
 23 24  1  0
 24 25  1  0
 25 26  1  0
 26 27  2  0
 27 28  1  0
 28 29  2  0
 29 30  1  0
 30 31  2  0
 31 32  1  0
 32 33  2  0
 27 34  1  0
 34 35  1  0
 35 36  2  0
  6 37  1  0
 37 38  2  0
 38  3  1  0
 25  7  1  0
 33 28  1  0
 24 15  1  0
 35 25  1  0
 23 18  1  0
  1 39  1  0
  1 40  1  0
  1 41  1  0
  4 42  1  0
  5 43  1  0
  7 44  1  0
  8 45  1  0
 12 46  1  0
 12 47  1  0
 12 48  1  0
 13 49  1  0
 13 50  1  0
 13 51  1  0
 14 52  1  0
 14 53  1  0
 14 54  1  0
 17 55  1  0
 19 56  1  0
 20 57  1  0
 21 58  1  0
 22 59  1  0
 24 60  1  0
 29 61  1  0
 30 62  1  0
 31 63  1  0
 32 64  1  0
 33 65  1  0
 37 66  1  0
 38 67  1  0
M  END
$$$$
