
     RDKit          3D

 49 51  0  0  0  0  0  0  0  0999 V2000
    4.3252    0.8239   -2.8567 C   0  0  0  0  0  0  0  0  0  0  0  0
    4.7379    0.6286   -1.4268 C   0  0  0  0  0  0  0  0  0  0  0  0
    5.8493    1.3094   -0.9139 C   0  0  0  0  0  0  0  0  0  0  0  0
    6.2723    1.0882    0.3975 C   0  0  0  0  0  0  0  0  0  0  0  0
    5.5885    0.1839    1.2039 C   0  0  0  0  0  0  0  0  0  0  0  0
    6.0809   -0.0024    2.4678 O   0  0  0  0  0  0  0  0  0  0  0  0
    4.4602   -0.4902    0.7192 C   0  0  0  0  0  0  0  0  0  0  0  0
    3.7379   -1.4339    1.6084 C   0  0  0  0  0  0  0  0  0  0  0  0
    4.3624   -1.9973    2.5061 O   0  0  0  0  0  0  0  0  0  0  0  0
    2.2924   -1.6951    1.4741 C   0  0  0  0  0  0  0  0  0  0  0  0
    1.8176   -2.9789    1.7041 C   0  0  0  0  0  0  0  0  0  0  0  0
    0.5111   -3.3258    1.6041 N   0  0  0  0  0  0  0  0  0  0  0  0
   -0.3584   -2.3410    1.3029 C   0  0  0  0  0  0  0  0  0  0  0  0
    0.0116   -1.0261    1.0799 C   0  0  0  0  0  0  0  0  0  0  0  0
    1.3680   -0.6955    1.1661 C   0  0  0  0  0  0  0  0  0  0  0  0
   -1.0318   -0.0391    0.6785 C   0  0  0  0  0  0  0  0  0  0  0  0
   -2.3878   -0.4688    0.9750 N   0  0  0  0  0  0  0  0  0  0  0  0
   -3.4624    0.5063    0.7994 C   0  0  0  0  0  0  0  0  0  0  0  0
   -3.9055    0.6325   -0.6623 C   0  0  0  0  0  0  0  0  0  0  0  0
   -4.9655    1.7262   -0.8869 C   0  0  0  0  0  0  0  0  0  0  0  0
   -6.2773    1.4258   -0.1603 C   0  0  0  0  0  0  0  0  0  0  0  0
   -5.2321    1.8904   -2.3853 C   0  0  0  0  0  0  0  0  0  0  0  0
   -2.7206   -1.8055    1.0798 C   0  0  0  0  0  0  0  0  0  0  0  0
   -3.8794   -2.2161    1.0829 O   0  0  0  0  0  0  0  0  0  0  0  0
   -1.6925   -2.6829    1.2182 N   0  0  0  0  0  0  0  0  0  0  0  0
    4.0568   -0.2857   -0.6089 C   0  0  0  0  0  0  0  0  0  0  0  0
    3.2445    0.6894   -2.9720 H   0  0  0  0  0  0  0  0  0  0  0  0
    4.8426    0.1029   -3.4970 H   0  0  0  0  0  0  0  0  0  0  0  0
    4.5643    1.8366   -3.1979 H   0  0  0  0  0  0  0  0  0  0  0  0
    6.4041    2.0082   -1.5372 H   0  0  0  0  0  0  0  0  0  0  0  0
    7.1435    1.6091    0.7863 H   0  0  0  0  0  0  0  0  0  0  0  0
    5.6554   -0.8076    2.8397 H   0  0  0  0  0  0  0  0  0  0  0  0
    2.4891   -3.7906    1.9750 H   0  0  0  0  0  0  0  0  0  0  0  0
    1.6869    0.3314    1.0072 H   0  0  0  0  0  0  0  0  0  0  0  0
   -0.8600    0.9067    1.2050 H   0  0  0  0  0  0  0  0  0  0  0  0
   -0.9597    0.1370   -0.4006 H   0  0  0  0  0  0  0  0  0  0  0  0
   -4.3080    0.1942    1.4218 H   0  0  0  0  0  0  0  0  0  0  0  0
   -3.1168    1.4719    1.1859 H   0  0  0  0  0  0  0  0  0  0  0  0
   -3.0289    0.8604   -1.2817 H   0  0  0  0  0  0  0  0  0  0  0  0
   -4.2857   -0.3337   -1.0179 H   0  0  0  0  0  0  0  0  0  0  0  0
   -4.5736    2.6791   -0.5093 H   0  0  0  0  0  0  0  0  0  0  0  0
   -7.0337    2.1823   -0.3962 H   0  0  0  0  0  0  0  0  0  0  0  0
   -6.6764    0.4478   -0.4495 H   0  0  0  0  0  0  0  0  0  0  0  0
   -6.1427    1.4324    0.9254 H   0  0  0  0  0  0  0  0  0  0  0  0
   -5.6299    0.9679   -2.8218 H   0  0  0  0  0  0  0  0  0  0  0  0
   -4.3111    2.1486   -2.9188 H   0  0  0  0  0  0  0  0  0  0  0  0
   -5.9566    2.6914   -2.5666 H   0  0  0  0  0  0  0  0  0  0  0  0
   -1.9300   -3.6510    1.3743 H   0  0  0  0  0  0  0  0  0  0  0  0
    3.2242   -0.8455   -1.0286 H   0  0  0  0  0  0  0  0  0  0  0  0
  1  2  1  0
  2  3  2  0
  3  4  1  0
  4  5  2  0
  5  6  1  0
  5  7  1  0
  7  8  1  0
  8  9  2  0
  8 10  1  0
 10 11  2  0
 11 12  1  0
 12 13  2  0
 13 14  1  0
 14 15  2  0
 14 16  1  0
 16 17  1  0
 17 18  1  0
 18 19  1  0
 19 20  1  0
 20 21  1  0
 20 22  1  0
 17 23  1  0
 23 24  2  0
 23 25  1  0
  7 26  2  0
 26  2  1  0
 15 10  1  0
 25 13  1  0
  1 27  1  0
  1 28  1  0
  1 29  1  0
  3 30  1  0
  4 31  1  0
  6 32  1  0
 11 33  1  0
 15 34  1  0
 16 35  1  0
 16 36  1  0
 18 37  1  0
 18 38  1  0
 19 39  1  0
 19 40  1  0
 20 41  1  0
 21 42  1  0
 21 43  1  0
 21 44  1  0
 22 45  1  0
 22 46  1  0
 22 47  1  0
 25 48  1  0
 26 49  1  0
M  END
$$$$
