
     RDKit          3D

 52 55  0  0  0  0  0  0  0  0999 V2000
   -5.5751    1.7818    2.4224 C   0  0  0  0  0  0  0  0  0  0  0  0
   -4.8108    0.6333    1.8372 C   0  0  0  0  0  0  0  0  0  0  0  0
   -4.2071    0.7362    0.5772 C   0  0  0  0  0  0  0  0  0  0  0  0
   -3.4732   -0.3428    0.0664 C   0  0  0  0  0  0  0  0  0  0  0  0
   -2.7287   -0.2007   -1.5419 S   0  0  0  0  0  6  0  0  0  0  0  0
   -2.3161   -1.5186   -1.9673 O   0  0  0  0  0  0  0  0  0  0  0  0
   -3.5836    0.6375   -2.3517 O   0  0  0  0  0  0  0  0  0  0  0  0
   -1.3559    0.6959   -1.2208 N   0  0  0  0  0  0  0  0  0  0  0  0
   -0.3294    0.1749   -0.3075 C   0  0  0  0  0  0  0  0  0  0  0  0
    1.1041    0.6444   -0.7148 C   0  0  0  0  0  0  0  0  0  0  0  0
    2.1240    0.4754    0.4218 C   0  0  0  0  0  0  0  0  0  0  0  0
    3.2203    1.3756    0.4875 C   0  0  0  0  0  0  0  0  0  0  0  0
    4.1916    1.2745    1.4890 C   0  0  0  0  0  0  0  0  0  0  0  0
    4.0555    0.2614    2.4096 C   0  0  0  0  0  0  0  0  0  0  0  0
    3.0100   -0.6278    2.3530 C   0  0  0  0  0  0  0  0  0  0  0  0
    2.0365   -0.5538    1.3769 C   0  0  0  0  0  0  0  0  0  0  0  0
    3.0644   -1.5567    3.3454 O   0  0  0  0  0  0  0  0  0  0  0  0
    4.2691   -1.1515    4.0294 C   0  0  0  0  0  0  0  0  0  0  0  0
    4.8990    0.0071    3.4449 O   0  0  0  0  0  0  0  0  0  0  0  0
    1.6824    0.1175   -1.9705 N   0  0  0  0  0  0  0  0  0  0  0  0
    1.6422   -1.3513   -2.1046 C   0  0  0  0  0  0  0  0  0  0  0  0
    2.3876   -1.8003   -3.3741 C   0  0  0  0  0  0  0  0  0  0  0  0
    1.8359   -1.1934   -4.5500 O   0  0  0  0  0  0  0  0  0  0  0  0
    1.8770    0.2348   -4.4363 C   0  0  0  0  0  0  0  0  0  0  0  0
    1.1137    0.7179   -3.1909 C   0  0  0  0  0  0  0  0  0  0  0  0
   -3.3457   -1.5325    0.7907 C   0  0  0  0  0  0  0  0  0  0  0  0
   -3.9341   -1.6297    2.0508 C   0  0  0  0  0  0  0  0  0  0  0  0
   -4.6512   -0.5510    2.5646 C   0  0  0  0  0  0  0  0  0  0  0  0
   -5.1993   -0.6630    3.7828 F   0  0  0  0  0  0  0  0  0  0  0  0
   -4.9397    2.3393    3.1174 H   0  0  0  0  0  0  0  0  0  0  0  0
   -6.4626    1.4256    2.9556 H   0  0  0  0  0  0  0  0  0  0  0  0
   -5.9202    2.4657    1.6397 H   0  0  0  0  0  0  0  0  0  0  0  0
   -4.3144    1.6483   -0.0072 H   0  0  0  0  0  0  0  0  0  0  0  0
   -1.4541    1.7007   -1.3486 H   0  0  0  0  0  0  0  0  0  0  0  0
   -0.3745   -0.9171   -0.2526 H   0  0  0  0  0  0  0  0  0  0  0  0
   -0.5647    0.5599    0.6929 H   0  0  0  0  0  0  0  0  0  0  0  0
    1.0204    1.7356   -0.8357 H   0  0  0  0  0  0  0  0  0  0  0  0
    3.3208    2.1578   -0.2639 H   0  0  0  0  0  0  0  0  0  0  0  0
    5.0274    1.9633    1.5339 H   0  0  0  0  0  0  0  0  0  0  0  0
    1.2459   -1.2948    1.3653 H   0  0  0  0  0  0  0  0  0  0  0  0
    4.0202   -0.9263    5.0728 H   0  0  0  0  0  0  0  0  0  0  0  0
    4.9805   -1.9852    4.0097 H   0  0  0  0  0  0  0  0  0  0  0  0
    2.1134   -1.8367   -1.2442 H   0  0  0  0  0  0  0  0  0  0  0  0
    0.6052   -1.7008   -2.1687 H   0  0  0  0  0  0  0  0  0  0  0  0
    3.4558   -1.5591   -3.3122 H   0  0  0  0  0  0  0  0  0  0  0  0
    2.2989   -2.8852   -3.4904 H   0  0  0  0  0  0  0  0  0  0  0  0
    1.4156    0.6510   -5.3375 H   0  0  0  0  0  0  0  0  0  0  0  0
    2.9226    0.5654   -4.4148 H   0  0  0  0  0  0  0  0  0  0  0  0
    1.1792    1.8106   -3.1450 H   0  0  0  0  0  0  0  0  0  0  0  0
    0.0612    0.4400   -3.3074 H   0  0  0  0  0  0  0  0  0  0  0  0
   -2.7960   -2.3790    0.3846 H   0  0  0  0  0  0  0  0  0  0  0  0
   -3.8440   -2.5395    2.6369 H   0  0  0  0  0  0  0  0  0  0  0  0
  1  2  1  0
  2  3  2  0
  3  4  1  0
  4  5  1  0
  5  6  2  0
  5  7  2  0
  5  8  1  0
  8  9  1  0
  9 10  1  0
 10 11  1  0
 11 12  2  0
 12 13  1  0
 13 14  2  0
 14 15  1  0
 15 16  2  0
 15 17  1  0
 17 18  1  0
 18 19  1  0
 10 20  1  0
 20 21  1  0
 21 22  1  0
 22 23  1  0
 23 24  1  0
 24 25  1  0
  4 26  2  0
 26 27  1  0
 27 28  2  0
 28 29  1  0
 28  2  1  0
 16 11  1  0
 25 20  1  0
 19 14  1  0
  1 30  1  0
  1 31  1  0
  1 32  1  0
  3 33  1  0
  8 34  1  0
  9 35  1  0
  9 36  1  0
 10 37  1  0
 12 38  1  0
 13 39  1  0
 16 40  1  0
 18 41  1  0
 18 42  1  0
 21 43  1  0
 21 44  1  0
 22 45  1  0
 22 46  1  0
 24 47  1  0
 24 48  1  0
 25 49  1  0
 25 50  1  0
 26 51  1  0
 27 52  1  0
M  END
$$$$
