
     RDKit          3D

 61 66  0  0  0  0  0  0  0  0999 V2000
   -3.9575    5.4381    0.0234 C   0  0  0  0  0  0  0  0  0  0  0  0
   -2.9442    4.3717    0.4335 C   0  0  0  0  0  0  0  0  0  0  0  0
   -3.4574    2.9614    0.0769 C   0  0  0  0  0  0  0  0  0  0  0  0
   -2.5045    1.8598    0.5707 C   0  0  0  0  0  0  0  0  0  0  0  0
   -1.0649    2.1866    0.2921 C   0  0  0  0  0  0  0  0  0  0  0  0
   -0.6665    3.4659   -0.0511 C   0  0  0  0  0  0  0  0  0  0  0  0
    1.0119    3.5898   -0.2829 S   0  0  0  0  0  0  0  0  0  0  0  0
    1.2447    1.9470    0.1069 C   0  0  0  0  0  0  0  0  0  0  0  0
    2.4817    1.4282    0.1139 N   0  0  0  0  0  0  0  0  0  0  0  0
    2.5033    0.1307    0.4513 C   0  0  0  0  0  0  0  0  0  0  0  0
    3.8650   -0.5573    0.4593 C   0  0  0  0  0  0  0  0  0  0  0  0
    4.2385   -1.2253   -0.8107 N   0  0  0  0  0  0  0  0  0  0  0  0
    5.4911   -1.9963   -0.6705 C   0  0  0  0  0  0  0  0  0  0  0  0
    6.7252   -1.2703   -1.2283 C   0  0  0  0  0  0  0  0  0  0  0  0
    6.6105   -0.9567   -2.6223 O   0  0  0  0  0  0  0  0  0  0  0  0
    5.2531   -0.7641   -3.0464 C   0  0  0  0  0  0  0  0  0  0  0  0
    4.3469   -0.2480   -1.9185 C   0  0  0  0  0  0  0  0  0  0  0  0
    1.4287   -0.6249    0.7584 N   0  0  0  0  0  0  0  0  0  0  0  0
    0.1900   -0.0805    0.7271 C   0  0  0  0  0  0  0  0  0  0  0  0
   -0.9320   -0.8803    1.0178 N   0  0  0  0  0  0  0  0  0  0  0  0
   -0.6857   -1.7760    2.1575 C   0  0  0  0  0  0  0  0  0  0  0  0
   -2.0176   -2.4096    2.5740 C   0  0  0  0  0  0  0  0  0  0  0  0
   -2.7640   -2.9937    1.3975 C   0  0  0  0  0  0  0  0  0  0  0  0
   -3.8164   -3.8934    1.6148 C   0  0  0  0  0  0  0  0  0  0  0  0
   -4.5342   -4.4115    0.5375 C   0  0  0  0  0  0  0  0  0  0  0  0
   -4.2116   -4.0316   -0.7632 C   0  0  0  0  0  0  0  0  0  0  0  0
   -3.1730   -3.1281   -0.9899 C   0  0  0  0  0  0  0  0  0  0  0  0
   -2.4482   -2.5899    0.0846 C   0  0  0  0  0  0  0  0  0  0  0  0
   -1.2982   -1.6378   -0.1933 C   0  0  0  0  0  0  0  0  0  0  0  0
    0.0613    1.2841    0.3915 C   0  0  0  0  0  0  0  0  0  0  0  0
   -1.5774    4.6410   -0.2325 C   0  0  0  0  0  0  0  0  0  0  0  0
   -4.9169    5.2750    0.5253 H   0  0  0  0  0  0  0  0  0  0  0  0
   -4.1348    5.4250   -1.0573 H   0  0  0  0  0  0  0  0  0  0  0  0
   -3.6013    6.4367    0.2970 H   0  0  0  0  0  0  0  0  0  0  0  0
   -2.8193    4.4235    1.5241 H   0  0  0  0  0  0  0  0  0  0  0  0
   -4.4509    2.7942    0.5097 H   0  0  0  0  0  0  0  0  0  0  0  0
   -3.5688    2.8810   -1.0129 H   0  0  0  0  0  0  0  0  0  0  0  0
   -2.7892    0.9182    0.0918 H   0  0  0  0  0  0  0  0  0  0  0  0
   -2.6289    1.7322    1.6531 H   0  0  0  0  0  0  0  0  0  0  0  0
    4.6303    0.1731    0.7534 H   0  0  0  0  0  0  0  0  0  0  0  0
    3.8271   -1.3085    1.2590 H   0  0  0  0  0  0  0  0  0  0  0  0
    5.6695   -2.2979    0.3683 H   0  0  0  0  0  0  0  0  0  0  0  0
    5.3555   -2.9254   -1.2386 H   0  0  0  0  0  0  0  0  0  0  0  0
    6.9074   -0.3378   -0.6815 H   0  0  0  0  0  0  0  0  0  0  0  0
    7.6153   -1.8961   -1.1072 H   0  0  0  0  0  0  0  0  0  0  0  0
    5.2683   -0.0482   -3.8745 H   0  0  0  0  0  0  0  0  0  0  0  0
    4.8796   -1.7146   -3.4452 H   0  0  0  0  0  0  0  0  0  0  0  0
    3.3489   -0.0456   -2.3221 H   0  0  0  0  0  0  0  0  0  0  0  0
    4.7692    0.6989   -1.5570 H   0  0  0  0  0  0  0  0  0  0  0  0
    0.0349   -2.5639    1.8969 H   0  0  0  0  0  0  0  0  0  0  0  0
   -0.2815   -1.2198    3.0132 H   0  0  0  0  0  0  0  0  0  0  0  0
   -2.6573   -1.6458    3.0338 H   0  0  0  0  0  0  0  0  0  0  0  0
   -1.8256   -3.1863    3.3232 H   0  0  0  0  0  0  0  0  0  0  0  0
   -4.0821   -4.1930    2.6259 H   0  0  0  0  0  0  0  0  0  0  0  0
   -5.3468   -5.1116    0.7133 H   0  0  0  0  0  0  0  0  0  0  0  0
   -4.7697   -4.4393   -1.6020 H   0  0  0  0  0  0  0  0  0  0  0  0
   -2.9306   -2.8443   -2.0117 H   0  0  0  0  0  0  0  0  0  0  0  0
   -0.4516   -2.2328   -0.5637 H   0  0  0  0  0  0  0  0  0  0  0  0
   -1.6042   -0.9409   -0.9843 H   0  0  0  0  0  0  0  0  0  0  0  0
   -1.1342    5.5469    0.1984 H   0  0  0  0  0  0  0  0  0  0  0  0
   -1.7104    4.8181   -1.3075 H   0  0  0  0  0  0  0  0  0  0  0  0
  1  2  1  0
  2  3  1  0
  3  4  1  0
  4  5  1  0
  5  6  2  0
  6  7  1  0
  7  8  1  0
  8  9  2  0
  9 10  1  0
 10 11  1  0
 11 12  1  0
 12 13  1  0
 13 14  1  0
 14 15  1  0
 15 16  1  0
 16 17  1  0
 10 18  2  0
 18 19  1  0
 19 20  1  0
 20 21  1  0
 21 22  1  0
 22 23  1  0
 23 24  2  0
 24 25  1  0
 25 26  2  0
 26 27  1  0
 27 28  2  0
 28 29  1  0
 19 30  2  0
  6 31  1  0
 31  2  1  0
 30  5  1  0
 30  8  1  0
 17 12  1  0
 29 20  1  0
 28 23  1  0
  1 32  1  0
  1 33  1  0
  1 34  1  0
  2 35  1  0
  3 36  1  0
  3 37  1  0
  4 38  1  0
  4 39  1  0
 11 40  1  0
 11 41  1  0
 13 42  1  0
 13 43  1  0
 14 44  1  0
 14 45  1  0
 16 46  1  0
 16 47  1  0
 17 48  1  0
 17 49  1  0
 21 50  1  0
 21 51  1  0
 22 52  1  0
 22 53  1  0
 24 54  1  0
 25 55  1  0
 26 56  1  0
 27 57  1  0
 29 58  1  0
 29 59  1  0
 31 60  1  0
 31 61  1  0
M  END
$$$$
