
     RDKit          3D

 42 44  0  0  0  0  0  0  0  0999 V2000
   -5.4684    1.1532    0.0275 C   0  0  0  0  0  0  0  0  0  0  0  0
   -4.6195    0.6007   -1.1281 C   0  0  0  0  0  0  0  0  0  0  0  0
   -5.2768   -0.6609   -1.7092 C   0  0  0  0  0  0  0  0  0  0  0  0
   -4.5525    1.6680   -2.2354 C   0  0  0  0  0  0  0  0  0  0  0  0
   -3.2517    0.3202   -0.6846 N   0  0  0  0  0  0  0  0  0  0  0  0
   -2.8869   -0.5823    0.2989 C   0  0  0  0  0  0  0  0  0  0  0  0
   -3.6842   -1.2670    0.9317 O   0  0  0  0  0  0  0  0  0  0  0  0
   -1.4216   -0.6295    0.5021 C   0  0  0  0  0  0  0  0  0  0  0  0
   -0.5631    0.1617   -0.2341 N   0  0  0  0  0  0  0  0  0  0  0  0
    0.6268   -0.1565    0.2197 C   0  0  0  0  0  0  0  0  0  0  0  0
    1.8415    0.3273   -0.1638 N   0  0  0  0  0  0  0  0  0  0  0  0
    2.8903   -0.1593    0.4352 C   0  0  0  0  0  0  0  0  0  0  0  0
    4.2424    0.3348    0.0438 C   0  0  0  0  0  0  0  0  0  0  0  0
    4.3735    1.6681   -0.3669 C   0  0  0  0  0  0  0  0  0  0  0  0
    5.6211    2.1693   -0.7421 C   0  0  0  0  0  0  0  0  0  0  0  0
    6.7409    1.3397   -0.7189 C   0  0  0  0  0  0  0  0  0  0  0  0
    6.6146    0.0070   -0.3288 C   0  0  0  0  0  0  0  0  0  0  0  0
    5.3679   -0.4992    0.0484 C   0  0  0  0  0  0  0  0  0  0  0  0
    2.8370   -1.1820    1.5301 C   0  0  0  0  0  0  0  0  0  0  0  0
    1.6133   -1.6284    1.8744 C   0  0  0  0  0  0  0  0  0  0  0  0
    1.3654   -2.6307    2.9351 C   0  0  0  0  0  0  0  0  0  0  0  0
    0.6114   -2.1443    3.9498 F   0  0  0  0  0  0  0  0  0  0  0  0
    2.5343   -3.0427    3.5031 F   0  0  0  0  0  0  0  0  0  0  0  0
    0.7673   -3.7518    2.4657 F   0  0  0  0  0  0  0  0  0  0  0  0
    0.4977   -1.1261    1.2210 N   0  0  0  0  0  0  0  0  0  0  0  0
   -0.8074   -1.4216    1.3941 N   0  0  0  0  0  0  0  0  0  0  0  0
   -6.4663    1.4449   -0.3190 H   0  0  0  0  0  0  0  0  0  0  0  0
   -5.6035    0.4158    0.8253 H   0  0  0  0  0  0  0  0  0  0  0  0
   -4.9962    2.0353    0.4752 H   0  0  0  0  0  0  0  0  0  0  0  0
   -4.6670   -1.0865   -2.5145 H   0  0  0  0  0  0  0  0  0  0  0  0
   -5.4064   -1.4407   -0.9518 H   0  0  0  0  0  0  0  0  0  0  0  0
   -6.2681   -0.4372   -2.1196 H   0  0  0  0  0  0  0  0  0  0  0  0
   -5.5508    1.9212   -2.6096 H   0  0  0  0  0  0  0  0  0  0  0  0
   -3.9534    1.3188   -3.0846 H   0  0  0  0  0  0  0  0  0  0  0  0
   -4.0872    2.5900   -1.8673 H   0  0  0  0  0  0  0  0  0  0  0  0
   -2.4759    0.8116   -1.1231 H   0  0  0  0  0  0  0  0  0  0  0  0
    3.5060    2.3248   -0.3957 H   0  0  0  0  0  0  0  0  0  0  0  0
    5.7172    3.2056   -1.0571 H   0  0  0  0  0  0  0  0  0  0  0  0
    7.7117    1.7302   -1.0156 H   0  0  0  0  0  0  0  0  0  0  0  0
    7.4881   -0.6410   -0.3286 H   0  0  0  0  0  0  0  0  0  0  0  0
    5.2969   -1.5497    0.3142 H   0  0  0  0  0  0  0  0  0  0  0  0
    3.7417   -1.5111    2.0264 H   0  0  0  0  0  0  0  0  0  0  0  0
  1  2  1  0
  2  3  1  0
  2  4  1  0
  2  5  1  0
  5  6  1  0
  6  7  2  0
  6  8  1  0
  8  9  1  0
  9 10  2  0
 10 11  1  0
 11 12  2  0
 12 13  1  0
 13 14  2  0
 14 15  1  0
 15 16  2  0
 16 17  1  0
 17 18  2  0
 12 19  1  0
 19 20  2  0
 20 21  1  0
 21 22  1  0
 21 23  1  0
 21 24  1  0
 20 25  1  0
 25 26  1  0
 26  8  2  0
 25 10  1  0
 18 13  1  0
  1 27  1  0
  1 28  1  0
  1 29  1  0
  3 30  1  0
  3 31  1  0
  3 32  1  0
  4 33  1  0
  4 34  1  0
  4 35  1  0
  5 36  1  0
 14 37  1  0
 15 38  1  0
 16 39  1  0
 17 40  1  0
 18 41  1  0
 19 42  1  0
M  END
$$$$
