
     RDKit          3D

 43 45  0  0  0  0  0  0  0  0999 V2000
    4.7545   -2.2180    0.8652 N   0  0  0  0  0  0  0  0  0  0  0  0
    4.0595   -1.5430    0.2248 C   0  0  0  0  0  0  0  0  0  0  0  0
    3.1882   -0.7039   -0.5159 C   0  0  0  0  0  0  0  0  0  0  0  0
    1.8509   -0.6267   -0.3925 C   0  0  0  0  0  0  0  0  0  0  0  0
    1.0257   -1.3256    0.5356 C   0  0  0  0  0  0  0  0  0  0  0  0
    1.2686   -2.3112    1.4857 C   0  0  0  0  0  0  0  0  0  0  0  0
    0.0408   -2.6269    2.1211 C   0  0  0  0  0  0  0  0  0  0  0  0
   -0.9173   -1.8292    1.5392 C   0  0  0  0  0  0  0  0  0  0  0  0
   -2.3578   -1.6571    1.7198 C   0  0  0  0  0  0  0  0  0  0  0  0
   -3.0395   -2.3646    2.7244 C   0  0  0  0  0  0  0  0  0  0  0  0
   -4.4186   -2.2107    2.9060 C   0  0  0  0  0  0  0  0  0  0  0  0
   -5.1315   -1.3486    2.0718 C   0  0  0  0  0  0  0  0  0  0  0  0
   -6.8693   -1.1268    2.3139 S   0  0  0  0  0  6  0  0  0  0  0  0
   -7.5136   -2.2580    1.2536 N   0  0  0  0  0  0  0  0  0  0  0  0
   -7.2601    0.1662    1.8004 O   0  0  0  0  0  0  0  0  0  0  0  0
   -7.2268   -1.5764    3.6391 O   0  0  0  0  0  0  0  0  0  0  0  0
   -4.4751   -0.6247    1.0755 C   0  0  0  0  0  0  0  0  0  0  0  0
   -3.0962   -0.7848    0.9019 C   0  0  0  0  0  0  0  0  0  0  0  0
   -0.3263   -1.0494    0.5905 O   0  0  0  0  0  0  0  0  0  0  0  0
    3.8153    0.1271   -1.5838 C   0  0  0  0  0  0  0  0  0  0  0  0
    4.4810   -0.4173   -2.4555 O   0  0  0  0  0  0  0  0  0  0  0  0
    3.5757    1.4821   -1.4333 N   0  0  0  0  0  0  0  0  0  0  0  0
    4.0153    2.5255   -2.2774 C   0  0  0  0  0  0  0  0  0  0  0  0
    3.6849    3.8347   -1.8993 C   0  0  0  0  0  0  0  0  0  0  0  0
    4.0792    4.9244   -2.6805 C   0  0  0  0  0  0  0  0  0  0  0  0
    4.8073    4.7159   -3.8486 C   0  0  0  0  0  0  0  0  0  0  0  0
    5.1385    3.4189   -4.2338 C   0  0  0  0  0  0  0  0  0  0  0  0
    4.7438    2.3277   -3.4522 C   0  0  0  0  0  0  0  0  0  0  0  0
    1.2996    0.0278   -1.0665 H   0  0  0  0  0  0  0  0  0  0  0  0
    2.2165   -2.7785    1.7162 H   0  0  0  0  0  0  0  0  0  0  0  0
   -0.1132   -3.3559    2.9045 H   0  0  0  0  0  0  0  0  0  0  0  0
   -2.5052   -3.0439    3.3852 H   0  0  0  0  0  0  0  0  0  0  0  0
   -4.9219   -2.7635    3.6973 H   0  0  0  0  0  0  0  0  0  0  0  0
   -8.0409   -2.9603    1.7725 H   0  0  0  0  0  0  0  0  0  0  0  0
   -8.0592   -1.7835    0.5333 H   0  0  0  0  0  0  0  0  0  0  0  0
   -5.0220    0.0625    0.4338 H   0  0  0  0  0  0  0  0  0  0  0  0
   -2.6007   -0.2161    0.1174 H   0  0  0  0  0  0  0  0  0  0  0  0
    3.0635    1.7801   -0.6120 H   0  0  0  0  0  0  0  0  0  0  0  0
    3.1210    4.0292   -0.9911 H   0  0  0  0  0  0  0  0  0  0  0  0
    3.8188    5.9354   -2.3765 H   0  0  0  0  0  0  0  0  0  0  0  0
    5.1164    5.5609   -4.4585 H   0  0  0  0  0  0  0  0  0  0  0  0
    5.7041    3.2504   -5.1467 H   0  0  0  0  0  0  0  0  0  0  0  0
    5.0258    1.3359   -3.7937 H   0  0  0  0  0  0  0  0  0  0  0  0
  1  2  3  0
  2  3  1  0
  3  4  2  3
  4  5  1  0
  5  6  2  0
  6  7  1  0
  7  8  2  0
  8  9  1  0
  9 10  2  0
 10 11  1  0
 11 12  2  0
 12 13  1  0
 13 14  1  0
 13 15  2  0
 13 16  2  0
 12 17  1  0
 17 18  2  0
  8 19  1  0
  3 20  1  0
 20 21  2  0
 20 22  1  0
 22 23  1  0
 23 24  2  0
 24 25  1  0
 25 26  2  0
 26 27  1  0
 27 28  2  0
 19  5  1  0
 28 23  1  0
 18  9  1  0
  4 29  1  0
  6 30  1  0
  7 31  1  0
 10 32  1  0
 11 33  1  0
 14 34  1  0
 14 35  1  0
 17 36  1  0
 18 37  1  0
 22 38  1  0
 24 39  1  0
 25 40  1  0
 26 41  1  0
 27 42  1  0
 28 43  1  0
M  END
$$$$
