
     RDKit          3D

 45 47  0  0  0  0  0  0  0  0999 V2000
   -3.6983   -0.9298    2.5199 C   0  0  0  0  0  0  0  0  0  0  0  0
   -3.0828   -1.3034    1.1761 C   0  0  0  0  0  0  0  0  0  0  0  0
   -3.4027   -0.2919    0.1411 N   0  0  0  0  0  0  0  0  0  0  0  0
   -4.4833   -0.7524   -0.7602 C   0  0  0  0  0  0  0  0  0  0  0  0
   -5.8318   -0.9372   -0.0751 C   0  0  0  0  0  0  0  0  0  0  0  0
   -2.1944   -0.0077   -0.6827 C   0  0  0  0  0  0  0  0  0  0  0  0
   -1.1803    0.8727    0.0264 C   0  0  0  0  0  0  0  0  0  0  0  0
   -1.5781    1.9666    0.8144 C   0  0  0  0  0  0  0  0  0  0  0  0
   -2.8979    2.2413    1.0486 O   0  0  0  0  0  0  0  0  0  0  0  0
   -0.6525    2.8234    1.4054 C   0  0  0  0  0  0  0  0  0  0  0  0
    0.7089    2.6016    1.2202 C   0  0  0  0  0  0  0  0  0  0  0  0
    1.1325    1.5255    0.4344 C   0  0  0  0  0  0  0  0  0  0  0  0
    2.5742    1.2893    0.2249 C   0  0  0  0  0  0  0  0  0  0  0  0
    3.4081    2.0259    0.7389 O   0  0  0  0  0  0  0  0  0  0  0  0
    2.9442    0.1262   -0.6279 C   0  0  0  0  0  0  0  0  0  0  0  0
    4.3446   -0.2215   -0.9338 C   0  0  0  0  0  0  0  0  0  0  0  0
    4.8137   -1.5359   -0.7781 C   0  0  0  0  0  0  0  0  0  0  0  0
    6.1390   -1.8612   -1.0791 C   0  0  0  0  0  0  0  0  0  0  0  0
    7.0125   -0.8770   -1.5356 C   0  0  0  0  0  0  0  0  0  0  0  0
    6.5638    0.4328   -1.6871 C   0  0  0  0  0  0  0  0  0  0  0  0
    5.2386    0.7586   -1.3869 C   0  0  0  0  0  0  0  0  0  0  0  0
    1.9345   -0.5887   -1.1469 C   0  0  0  0  0  0  0  0  0  0  0  0
    0.5916   -0.3768   -0.9616 O   0  0  0  0  0  0  0  0  0  0  0  0
    0.2000    0.6730   -0.1647 C   0  0  0  0  0  0  0  0  0  0  0  0
   -3.3115    0.0303    2.8767 H   0  0  0  0  0  0  0  0  0  0  0  0
   -3.4436   -1.6874    3.2685 H   0  0  0  0  0  0  0  0  0  0  0  0
   -4.7879   -0.8611    2.4766 H   0  0  0  0  0  0  0  0  0  0  0  0
   -3.4031   -2.3087    0.8757 H   0  0  0  0  0  0  0  0  0  0  0  0
   -2.0001   -1.3780    1.3397 H   0  0  0  0  0  0  0  0  0  0  0  0
   -4.6340    0.0037   -1.5415 H   0  0  0  0  0  0  0  0  0  0  0  0
   -4.2001   -1.6830   -1.2687 H   0  0  0  0  0  0  0  0  0  0  0  0
   -5.8254   -1.7885    0.6117 H   0  0  0  0  0  0  0  0  0  0  0  0
   -6.6062   -1.1304   -0.8251 H   0  0  0  0  0  0  0  0  0  0  0  0
   -6.1212   -0.0378    0.4782 H   0  0  0  0  0  0  0  0  0  0  0  0
   -1.7532   -0.9532   -1.0215 H   0  0  0  0  0  0  0  0  0  0  0  0
   -2.4797    0.5497   -1.5852 H   0  0  0  0  0  0  0  0  0  0  0  0
   -3.4018    1.4370    0.7899 H   0  0  0  0  0  0  0  0  0  0  0  0
   -0.9952    3.6584    2.0109 H   0  0  0  0  0  0  0  0  0  0  0  0
    1.4337    3.2672    1.6838 H   0  0  0  0  0  0  0  0  0  0  0  0
    4.1561   -2.3190   -0.4077 H   0  0  0  0  0  0  0  0  0  0  0  0
    6.4908   -2.8816   -0.9500 H   0  0  0  0  0  0  0  0  0  0  0  0
    8.0449   -1.1279   -1.7649 H   0  0  0  0  0  0  0  0  0  0  0  0
    7.2454    1.2060   -2.0323 H   0  0  0  0  0  0  0  0  0  0  0  0
    4.9132    1.7909   -1.5032 H   0  0  0  0  0  0  0  0  0  0  0  0
    2.0748   -1.4401   -1.8027 H   0  0  0  0  0  0  0  0  0  0  0  0
  1  2  1  0
  2  3  1  0
  3  4  1  0
  4  5  1  0
  3  6  1  0
  6  7  1  0
  7  8  2  0
  8  9  1  0
  8 10  1  0
 10 11  2  0
 11 12  1  0
 12 13  1  0
 13 14  2  0
 13 15  1  0
 15 16  1  0
 16 17  2  0
 17 18  1  0
 18 19  2  0
 19 20  1  0
 20 21  2  0
 15 22  2  0
 22 23  1  0
 23 24  1  0
 24  7  1  0
 24 12  2  0
 21 16  1  0
  1 25  1  0
  1 26  1  0
  1 27  1  0
  2 28  1  0
  2 29  1  0
  4 30  1  0
  4 31  1  0
  5 32  1  0
  5 33  1  0
  5 34  1  0
  6 35  1  0
  6 36  1  0
  9 37  1  0
 10 38  1  0
 11 39  1  0
 17 40  1  0
 18 41  1  0
 19 42  1  0
 20 43  1  0
 21 44  1  0
 22 45  1  0
M  END
$$$$
