
     RDKit          3D

 44 46  0  0  0  0  0  0  0  0999 V2000
    1.1394   -1.0620   -0.8345 O   0  0  0  0  0  0  0  0  0  0  0  0
    1.4557   -1.4853    0.2770 C   0  0  0  0  0  0  0  0  0  0  0  0
    0.8124   -2.7065    0.9312 C   0  0  0  0  0  0  0  0  0  0  0  0
   -0.4648   -3.0257    0.3783 O   0  0  0  0  0  0  0  0  0  0  0  0
   -1.4629   -2.1800    0.7699 C   0  0  0  0  0  0  0  0  0  0  0  0
   -1.3313   -1.2962    1.6066 O   0  0  0  0  0  0  0  0  0  0  0  0
   -2.7659   -2.5702    0.0882 C   0  0  0  0  0  0  0  0  0  0  0  0
   -3.7935   -1.5692    0.3403 N   0  0  0  0  0  0  0  0  0  0  0  0
   -4.5789   -1.6589    1.4638 C   0  0  0  0  0  0  0  0  0  0  0  0
   -5.5025   -0.8203    1.7922 N   0  0  0  0  0  0  0  0  0  0  0  0
   -5.7051    0.2824    0.9489 C   0  0  0  0  0  0  0  0  0  0  0  0
   -6.6949    1.2111    1.2788 C   0  0  0  0  0  0  0  0  0  0  0  0
   -6.9235    2.3264    0.4672 C   0  0  0  0  0  0  0  0  0  0  0  0
   -6.1620    2.5224   -0.6852 C   0  0  0  0  0  0  0  0  0  0  0  0
   -5.1712    1.6031   -1.0267 C   0  0  0  0  0  0  0  0  0  0  0  0
   -4.9506    0.4903   -0.2069 C   0  0  0  0  0  0  0  0  0  0  0  0
   -3.9133   -0.5047   -0.5388 C   0  0  0  0  0  0  0  0  0  0  0  0
   -3.2240   -0.3702   -1.5456 O   0  0  0  0  0  0  0  0  0  0  0  0
    2.4460   -0.8964    1.0426 N   0  0  0  0  0  0  0  0  0  0  0  0
    3.2502    0.0680    0.4035 N   0  0  0  0  0  0  0  0  0  0  0  0
    4.6173   -0.0613    0.5696 C   0  0  0  0  0  0  0  0  0  0  0  0
    5.1071   -0.8624    1.3635 O   0  0  0  0  0  0  0  0  0  0  0  0
    5.4823    0.7935   -0.2908 C   0  0  0  0  0  0  0  0  0  0  0  0
    6.8186    0.4101   -0.4748 C   0  0  0  0  0  0  0  0  0  0  0  0
    7.6718    1.1800   -1.2697 C   0  0  0  0  0  0  0  0  0  0  0  0
    7.1909    2.3390   -1.8756 C   0  0  0  0  0  0  0  0  0  0  0  0
    8.3431    3.3834   -2.9500 Br  0  0  0  0  0  0  0  0  0  0  0  0
    5.8680    2.7386   -1.6893 C   0  0  0  0  0  0  0  0  0  0  0  0
    5.0126    1.9691   -0.8936 C   0  0  0  0  0  0  0  0  0  0  0  0
    1.4700   -3.5620    0.7431 H   0  0  0  0  0  0  0  0  0  0  0  0
    0.7440   -2.5774    2.0183 H   0  0  0  0  0  0  0  0  0  0  0  0
   -3.0898   -3.5339    0.4953 H   0  0  0  0  0  0  0  0  0  0  0  0
   -2.5912   -2.6632   -0.9884 H   0  0  0  0  0  0  0  0  0  0  0  0
   -4.3747   -2.5333    2.1028 H   0  0  0  0  0  0  0  0  0  0  0  0
   -7.2883    1.0634    2.1775 H   0  0  0  0  0  0  0  0  0  0  0  0
   -7.6960    3.0420    0.7376 H   0  0  0  0  0  0  0  0  0  0  0  0
   -6.3392    3.3907   -1.3156 H   0  0  0  0  0  0  0  0  0  0  0  0
   -4.5741    1.7520   -1.9234 H   0  0  0  0  0  0  0  0  0  0  0  0
    2.9171   -1.4166    1.7837 H   0  0  0  0  0  0  0  0  0  0  0  0
    2.8568    0.4445   -0.4596 H   0  0  0  0  0  0  0  0  0  0  0  0
    7.2001   -0.4924    0.0006 H   0  0  0  0  0  0  0  0  0  0  0  0
    8.7046    0.8691   -1.4053 H   0  0  0  0  0  0  0  0  0  0  0  0
    5.4953    3.6498   -2.1520 H   0  0  0  0  0  0  0  0  0  0  0  0
    3.9949    2.3192   -0.7410 H   0  0  0  0  0  0  0  0  0  0  0  0
  1  2  2  0
  2  3  1  0
  3  4  1  0
  4  5  1  0
  5  6  2  0
  5  7  1  0
  7  8  1  0
  8  9  1  0
  9 10  2  0
 10 11  1  0
 11 12  2  0
 12 13  1  0
 13 14  2  0
 14 15  1  0
 15 16  2  0
 16 17  1  0
 17 18  2  0
  2 19  1  0
 19 20  1  0
 20 21  1  0
 21 22  2  0
 21 23  1  0
 23 24  2  0
 24 25  1  0
 25 26  2  0
 26 27  1  0
 26 28  1  0
 28 29  2  0
 17  8  1  0
 29 23  1  0
 16 11  1  0
  3 30  1  0
  3 31  1  0
  7 32  1  0
  7 33  1  0
  9 34  1  0
 12 35  1  0
 13 36  1  0
 14 37  1  0
 15 38  1  0
 19 39  1  0
 20 40  1  0
 24 41  1  0
 25 42  1  0
 28 43  1  0
 29 44  1  0
M  END
$$$$
