
     RDKit          3D

 47 50  0  0  0  0  0  0  0  0999 V2000
   -0.3481    4.9491   -1.2135 N   0  0  0  0  0  0  0  0  0  0  0  0
    0.5124    3.8586   -1.2235 C   0  0  0  0  0  0  0  0  0  0  0  0
    1.7936    4.0466   -1.6223 N   0  0  0  0  0  0  0  0  0  0  0  0
    2.6252    2.9850   -1.5932 C   0  0  0  0  0  0  0  0  0  0  0  0
    2.3565    1.7150   -1.2164 N   0  0  0  0  0  0  0  0  0  0  0  0
    1.0582    1.5694   -0.9000 C   0  0  0  0  0  0  0  0  0  0  0  0
    0.0981    2.5654   -0.8709 C   0  0  0  0  0  0  0  0  0  0  0  0
   -1.1257    2.0679   -0.4941 N   0  0  0  0  0  0  0  0  0  0  0  0
   -0.9166    0.7884   -0.2624 C   0  0  0  0  0  0  0  0  0  0  0  0
   -1.8149   -0.1242    0.2130 N   0  0  0  0  0  0  0  0  0  0  0  0
   -1.8971   -0.1841    1.6895 C   0  0  0  0  0  0  0  0  0  0  0  0
   -3.2268    0.3458    2.2107 C   0  0  0  0  0  0  0  0  0  0  0  0
   -4.3981   -0.4711    1.6654 C   0  0  0  0  0  0  0  0  0  0  0  0
   -4.1210   -1.0016    0.2589 C   0  0  0  0  0  0  0  0  0  0  0  0
   -3.1230   -0.1144   -0.4817 C   0  0  0  0  0  0  0  0  0  0  0  0
    0.3870    0.4289   -0.5373 N   0  0  0  0  0  0  0  0  0  0  0  0
    0.9175   -0.9196   -0.4258 C   0  0  0  0  0  0  0  0  0  0  0  0
    1.9206   -1.1331   -1.4454 O   0  0  0  0  0  0  0  0  0  0  0  0
    3.1451   -1.5572   -0.8135 C   0  0  0  0  0  0  0  0  0  0  0  0
    3.3291   -3.0613   -1.0738 C   0  0  0  0  0  0  0  0  0  0  0  0
    2.3028   -3.8370   -0.4509 O   0  0  0  0  0  0  0  0  0  0  0  0
    3.0382   -1.1735    0.6624 C   0  0  0  0  0  0  0  0  0  0  0  0
    3.5456    0.1564    0.8592 O   0  0  0  0  0  0  0  0  0  0  0  0
    1.5449   -1.1999    0.9463 C   0  0  0  0  0  0  0  0  0  0  0  0
    1.1295   -2.4819    1.4536 O   0  0  0  0  0  0  0  0  0  0  0  0
   -0.0587    5.6676   -1.8646 H   0  0  0  0  0  0  0  0  0  0  0  0
   -1.3258    4.6698   -1.2288 H   0  0  0  0  0  0  0  0  0  0  0  0
    3.6427    3.1803   -1.9283 H   0  0  0  0  0  0  0  0  0  0  0  0
   -1.0857    0.3807    2.1518 H   0  0  0  0  0  0  0  0  0  0  0  0
   -1.7710   -1.2228    1.9961 H   0  0  0  0  0  0  0  0  0  0  0  0
   -3.2438    0.3291    3.3072 H   0  0  0  0  0  0  0  0  0  0  0  0
   -3.3457    1.3954    1.9057 H   0  0  0  0  0  0  0  0  0  0  0  0
   -4.6147   -1.3133    2.3338 H   0  0  0  0  0  0  0  0  0  0  0  0
   -5.2971    0.1563    1.6560 H   0  0  0  0  0  0  0  0  0  0  0  0
   -5.0576   -1.0750   -0.2997 H   0  0  0  0  0  0  0  0  0  0  0  0
   -3.7225   -2.0127    0.3361 H   0  0  0  0  0  0  0  0  0  0  0  0
   -3.5258    0.9072   -0.5675 H   0  0  0  0  0  0  0  0  0  0  0  0
   -2.9880   -0.4985   -1.5013 H   0  0  0  0  0  0  0  0  0  0  0  0
    0.1043   -1.6198   -0.6504 H   0  0  0  0  0  0  0  0  0  0  0  0
    3.9649   -1.0162   -1.3002 H   0  0  0  0  0  0  0  0  0  0  0  0
    3.2819   -3.2574   -2.1514 H   0  0  0  0  0  0  0  0  0  0  0  0
    4.2965   -3.4030   -0.6881 H   0  0  0  0  0  0  0  0  0  0  0  0
    2.4294   -4.7577   -0.7594 H   0  0  0  0  0  0  0  0  0  0  0  0
    3.6157   -1.8333    1.3141 H   0  0  0  0  0  0  0  0  0  0  0  0
    3.2804    0.7207    0.0981 H   0  0  0  0  0  0  0  0  0  0  0  0
    1.2577   -0.4587    1.7011 H   0  0  0  0  0  0  0  0  0  0  0  0
    1.4297   -3.1562    0.8056 H   0  0  0  0  0  0  0  0  0  0  0  0
  1  2  1  0
  2  3  2  0
  3  4  1  0
  4  5  2  0
  5  6  1  0
  6  7  2  0
  7  8  1  0
  8  9  2  0
  9 10  1  0
 10 11  1  0
 11 12  1  0
 12 13  1  0
 13 14  1  0
 14 15  1  0
  9 16  1  0
 16 17  1  0
 17 18  1  0
 18 19  1  0
 19 20  1  0
 20 21  1  0
 19 22  1  0
 22 23  1  0
 22 24  1  0
 24 25  1  0
  7  2  1  0
 15 10  1  0
 24 17  1  0
 16  6  1  0
  1 26  1  0
  1 27  1  0
  4 28  1  0
 11 29  1  0
 11 30  1  0
 12 31  1  0
 12 32  1  0
 13 33  1  0
 13 34  1  0
 14 35  1  0
 14 36  1  0
 15 37  1  0
 15 38  1  0
 17 39  1  0
 19 40  1  0
 20 41  1  0
 20 42  1  0
 21 43  1  0
 22 44  1  0
 23 45  1  0
 24 46  1  0
 25 47  1  0
M  END
$$$$
