
     RDKit          3D

 49 51  0  0  0  0  0  0  0  0999 V2000
    7.3904   -0.7040   -2.1125 C   0  0  0  0  0  0  0  0  0  0  0  0
    6.4498   -0.3762   -0.9905 C   0  0  0  0  0  0  0  0  0  0  0  0
    6.8982   -0.3742    0.3360 C   0  0  0  0  0  0  0  0  0  0  0  0
    6.0374   -0.0206    1.3786 C   0  0  0  0  0  0  0  0  0  0  0  0
    4.7183    0.3356    1.0996 C   0  0  0  0  0  0  0  0  0  0  0  0
    3.8922    0.7153    2.1193 O   0  0  0  0  0  0  0  0  0  0  0  0
    4.2517    0.3275   -0.2184 C   0  0  0  0  0  0  0  0  0  0  0  0
    2.8668    0.7082   -0.5795 C   0  0  0  0  0  0  0  0  0  0  0  0
    2.6906    1.4601   -1.5368 O   0  0  0  0  0  0  0  0  0  0  0  0
    1.6869    0.1813    0.1436 C   0  0  0  0  0  0  0  0  0  0  0  0
    1.6987   -1.0316    0.8193 C   0  0  0  0  0  0  0  0  0  0  0  0
    0.6241   -1.5487    1.4671 N   0  0  0  0  0  0  0  0  0  0  0  0
   -0.5150   -0.8289    1.4199 C   0  0  0  0  0  0  0  0  0  0  0  0
   -0.6372    0.3822    0.7661 C   0  0  0  0  0  0  0  0  0  0  0  0
    0.4876    0.8960    0.1146 C   0  0  0  0  0  0  0  0  0  0  0  0
   -1.9255    1.1257    0.8453 C   0  0  0  0  0  0  0  0  0  0  0  0
   -3.0541    0.3115    1.2741 N   0  0  0  0  0  0  0  0  0  0  0  0
   -4.3852    0.9159    1.2177 C   0  0  0  0  0  0  0  0  0  0  0  0
   -4.9045    1.1426   -0.2076 C   0  0  0  0  0  0  0  0  0  0  0  0
   -4.9845   -0.1263   -1.0781 C   0  0  0  0  0  0  0  0  0  0  0  0
   -5.3901    0.2512   -2.5054 C   0  0  0  0  0  0  0  0  0  0  0  0
   -5.9690   -1.1537   -0.5186 C   0  0  0  0  0  0  0  0  0  0  0  0
   -2.8744   -0.8411    2.0151 C   0  0  0  0  0  0  0  0  0  0  0  0
   -3.7857   -1.4319    2.5918 O   0  0  0  0  0  0  0  0  0  0  0  0
   -1.6158   -1.3494    2.0673 N   0  0  0  0  0  0  0  0  0  0  0  0
    5.1266   -0.0051   -1.2621 C   0  0  0  0  0  0  0  0  0  0  0  0
    7.8797    0.2077   -2.4685 H   0  0  0  0  0  0  0  0  0  0  0  0
    6.8557   -1.1690   -2.9472 H   0  0  0  0  0  0  0  0  0  0  0  0
    8.1582   -1.4126   -1.7845 H   0  0  0  0  0  0  0  0  0  0  0  0
    7.9291   -0.6393    0.5644 H   0  0  0  0  0  0  0  0  0  0  0  0
    6.4188   -0.0195    2.3957 H   0  0  0  0  0  0  0  0  0  0  0  0
    4.3951    0.7374    2.9517 H   0  0  0  0  0  0  0  0  0  0  0  0
    2.5846   -1.6577    0.8628 H   0  0  0  0  0  0  0  0  0  0  0  0
    0.4367    1.8489   -0.4082 H   0  0  0  0  0  0  0  0  0  0  0  0
   -2.1557    1.5397   -0.1412 H   0  0  0  0  0  0  0  0  0  0  0  0
   -1.8237    1.9510    1.5598 H   0  0  0  0  0  0  0  0  0  0  0  0
   -4.3275    1.8776    1.7422 H   0  0  0  0  0  0  0  0  0  0  0  0
   -5.1093    0.3123    1.7741 H   0  0  0  0  0  0  0  0  0  0  0  0
   -4.2682    1.8809   -0.7103 H   0  0  0  0  0  0  0  0  0  0  0  0
   -5.8996    1.6013   -0.1406 H   0  0  0  0  0  0  0  0  0  0  0  0
   -3.9927   -0.5917   -1.1296 H   0  0  0  0  0  0  0  0  0  0  0  0
   -5.4179   -0.6343   -3.1494 H   0  0  0  0  0  0  0  0  0  0  0  0
   -4.6730    0.9555   -2.9403 H   0  0  0  0  0  0  0  0  0  0  0  0
   -6.3809    0.7179   -2.5276 H   0  0  0  0  0  0  0  0  0  0  0  0
   -6.0518   -2.0164   -1.1884 H   0  0  0  0  0  0  0  0  0  0  0  0
   -5.6440   -1.5305    0.4550 H   0  0  0  0  0  0  0  0  0  0  0  0
   -6.9686   -0.7219   -0.4003 H   0  0  0  0  0  0  0  0  0  0  0  0
   -1.4933   -2.2274    2.5478 H   0  0  0  0  0  0  0  0  0  0  0  0
    4.7704    0.0287   -2.2908 H   0  0  0  0  0  0  0  0  0  0  0  0
  1  2  1  0
  2  3  2  0
  3  4  1  0
  4  5  2  0
  5  6  1  0
  5  7  1  0
  7  8  1  0
  8  9  2  0
  8 10  1  0
 10 11  2  0
 11 12  1  0
 12 13  2  0
 13 14  1  0
 14 15  2  0
 14 16  1  0
 16 17  1  0
 17 18  1  0
 18 19  1  0
 19 20  1  0
 20 21  1  0
 20 22  1  0
 17 23  1  0
 23 24  2  0
 23 25  1  0
  7 26  2  0
 26  2  1  0
 15 10  1  0
 25 13  1  0
  1 27  1  0
  1 28  1  0
  1 29  1  0
  3 30  1  0
  4 31  1  0
  6 32  1  0
 11 33  1  0
 15 34  1  0
 16 35  1  0
 16 36  1  0
 18 37  1  0
 18 38  1  0
 19 39  1  0
 19 40  1  0
 20 41  1  0
 21 42  1  0
 21 43  1  0
 21 44  1  0
 22 45  1  0
 22 46  1  0
 22 47  1  0
 25 48  1  0
 26 49  1  0
M  END
$$$$
