
     RDKit          3D

 36 38  0  0  0  0  0  0  0  0999 V2000
    5.9058    0.0380    0.3568 C   0  0  0  0  0  0  0  0  0  0  0  0
    4.4614   -0.3042    0.1338 C   0  0  0  0  0  0  0  0  0  0  0  0
    3.7516   -1.0361    1.0960 C   0  0  0  0  0  0  0  0  0  0  0  0
    2.4011   -1.3306    0.9050 C   0  0  0  0  0  0  0  0  0  0  0  0
    1.7553   -0.8773   -0.2479 C   0  0  0  0  0  0  0  0  0  0  0  0
    0.0383   -1.2550   -0.4734 S   0  0  0  0  0  6  0  0  0  0  0  0
   -0.4243   -0.6244   -1.6908 O   0  0  0  0  0  0  0  0  0  0  0  0
   -0.1279   -2.6752   -0.2569 O   0  0  0  0  0  0  0  0  0  0  0  0
   -0.7027   -0.4356    0.8294 N   0  0  0  0  0  0  0  0  0  0  0  0
   -0.6740    1.0573    0.7100 C   0  0  0  0  0  0  0  0  0  0  0  0
   -1.8694    1.7402    0.0441 C   0  0  0  0  0  0  0  0  0  0  0  0
   -1.8562    2.9506   -0.1854 O   0  0  0  0  0  0  0  0  0  0  0  0
   -2.9869    0.9766   -0.1768 N   0  0  0  0  0  0  0  0  0  0  0  0
   -4.2899    1.5159   -0.4523 C   0  0  0  0  0  0  0  0  0  0  0  0
   -5.1720    0.2829   -0.4283 C   0  0  0  0  0  0  0  0  0  0  0  0
   -4.4379   -0.6736    0.3687 O   0  0  0  0  0  0  0  0  0  0  0  0
   -3.0613   -0.4425    0.0396 C   0  0  0  0  0  0  0  0  0  0  0  0
   -2.0959   -0.9109    1.1307 C   0  0  0  0  0  0  0  0  0  0  0  0
    2.4461   -0.1418   -1.2129 C   0  0  0  0  0  0  0  0  0  0  0  0
    3.7967    0.1493   -1.0145 C   0  0  0  0  0  0  0  0  0  0  0  0
    5.9861    0.9894    0.8914 H   0  0  0  0  0  0  0  0  0  0  0  0
    6.4059   -0.7408    0.9420 H   0  0  0  0  0  0  0  0  0  0  0  0
    6.4392    0.1206   -0.5960 H   0  0  0  0  0  0  0  0  0  0  0  0
    4.2502   -1.3849    1.9982 H   0  0  0  0  0  0  0  0  0  0  0  0
    1.8601   -1.9087    1.6509 H   0  0  0  0  0  0  0  0  0  0  0  0
    0.2324    1.3895    0.1948 H   0  0  0  0  0  0  0  0  0  0  0  0
   -0.6128    1.4529    1.7318 H   0  0  0  0  0  0  0  0  0  0  0  0
   -4.5500    2.2127    0.3515 H   0  0  0  0  0  0  0  0  0  0  0  0
   -4.3092    2.0488   -1.4069 H   0  0  0  0  0  0  0  0  0  0  0  0
   -6.1547    0.4661    0.0140 H   0  0  0  0  0  0  0  0  0  0  0  0
   -5.3030   -0.1384   -1.4314 H   0  0  0  0  0  0  0  0  0  0  0  0
   -2.8584   -0.9444   -0.9131 H   0  0  0  0  0  0  0  0  0  0  0  0
   -2.3956   -0.5053    2.1059 H   0  0  0  0  0  0  0  0  0  0  0  0
   -2.1268   -1.9992    1.2472 H   0  0  0  0  0  0  0  0  0  0  0  0
    1.9474    0.2085   -2.1138 H   0  0  0  0  0  0  0  0  0  0  0  0
    4.3313    0.7299   -1.7641 H   0  0  0  0  0  0  0  0  0  0  0  0
  1  2  1  0
  2  3  2  0
  3  4  1  0
  4  5  2  0
  5  6  1  0
  6  7  2  0
  6  8  2  0
  6  9  1  0
  9 10  1  0
 10 11  1  0
 11 12  2  0
 11 13  1  0
 13 14  1  0
 14 15  1  0
 15 16  1  0
 16 17  1  0
 17 18  1  0
  5 19  1  0
 19 20  2  0
 20  2  1  0
 18  9  1  0
 17 13  1  0
  1 21  1  0
  1 22  1  0
  1 23  1  0
  3 24  1  0
  4 25  1  0
 10 26  1  0
 10 27  1  0
 14 28  1  0
 14 29  1  0
 15 30  1  0
 15 31  1  0
 17 32  1  0
 18 33  1  0
 18 34  1  0
 19 35  1  0
 20 36  1  0
M  END
$$$$
