
     RDKit          3D

 43 45  0  0  0  0  0  0  0  0999 V2000
   -6.9730    0.2334    2.0177 C   0  0  0  0  0  0  0  0  0  0  0  0
   -5.9403    0.7745    2.9961 C   0  0  0  0  0  0  0  0  0  0  0  0
   -4.8403    1.5858    2.3137 C   0  0  0  0  0  0  0  0  0  0  0  0
   -3.9402    0.7297    1.4729 C   0  0  0  0  0  0  0  0  0  0  0  0
   -4.0927    0.5678    0.1965 N   0  0  0  0  0  0  0  0  0  0  0  0
   -3.1123   -0.2823   -0.2617 N   0  0  0  0  0  0  0  0  0  0  0  0
   -3.0229   -0.6479   -1.5858 C   0  0  0  0  0  0  0  0  0  0  0  0
   -3.7563   -0.2935   -2.5029 O   0  0  0  0  0  0  0  0  0  0  0  0
   -1.8996   -1.5706   -1.8702 C   0  0  0  0  0  0  0  0  0  0  0  0
   -1.0860   -1.9625   -0.8740 C   0  0  0  0  0  0  0  0  0  0  0  0
    0.0579   -2.9164   -1.1474 C   0  0  0  0  0  0  0  0  0  0  0  0
    1.6833   -2.1619   -0.8084 S   0  0  0  0  0  0  0  0  0  0  0  0
    1.6888   -0.8645   -2.0937 C   0  0  0  0  0  0  0  0  0  0  0  0
    3.0116   -0.1057   -2.1801 C   0  0  0  0  0  0  0  0  0  0  0  0
    3.3072    0.4794   -3.2203 O   0  0  0  0  0  0  0  0  0  0  0  0
    3.7453   -0.0980   -1.0098 N   0  0  0  0  0  0  0  0  0  0  0  0
    4.9668    0.5484   -0.7479 C   0  0  0  0  0  0  0  0  0  0  0  0
    5.6267    1.3726   -1.6640 C   0  0  0  0  0  0  0  0  0  0  0  0
    6.8388    1.9812   -1.3221 C   0  0  0  0  0  0  0  0  0  0  0  0
    7.3876    1.7655   -0.0653 C   0  0  0  0  0  0  0  0  0  0  0  0
    8.5479    2.3495    0.2601 F   0  0  0  0  0  0  0  0  0  0  0  0
    6.7472    0.9519    0.8593 C   0  0  0  0  0  0  0  0  0  0  0  0
    5.5366    0.3441    0.5178 C   0  0  0  0  0  0  0  0  0  0  0  0
   -1.2466   -1.5634    0.4386 N   0  0  0  0  0  0  0  0  0  0  0  0
   -2.2287   -0.7592    0.6683 C   0  0  0  0  0  0  0  0  0  0  0  0
   -2.6164   -0.1226    2.2329 S   0  0  0  0  0  0  0  0  0  0  0  0
   -7.4208    1.0420    1.4314 H   0  0  0  0  0  0  0  0  0  0  0  0
   -7.7757   -0.2747    2.5617 H   0  0  0  0  0  0  0  0  0  0  0  0
   -6.5293   -0.4899    1.3271 H   0  0  0  0  0  0  0  0  0  0  0  0
   -6.4525    1.4200    3.7194 H   0  0  0  0  0  0  0  0  0  0  0  0
   -5.5096   -0.0600    3.5611 H   0  0  0  0  0  0  0  0  0  0  0  0
   -5.2803    2.3650    1.6806 H   0  0  0  0  0  0  0  0  0  0  0  0
   -4.2366    2.0925    3.0755 H   0  0  0  0  0  0  0  0  0  0  0  0
   -1.7891   -1.8893   -2.8990 H   0  0  0  0  0  0  0  0  0  0  0  0
   -0.0465   -3.7954   -0.5016 H   0  0  0  0  0  0  0  0  0  0  0  0
    0.0512   -3.2812   -2.1804 H   0  0  0  0  0  0  0  0  0  0  0  0
    1.5085   -1.3362   -3.0646 H   0  0  0  0  0  0  0  0  0  0  0  0
    0.9043   -0.1312   -1.8862 H   0  0  0  0  0  0  0  0  0  0  0  0
    3.3697   -0.6868   -0.2703 H   0  0  0  0  0  0  0  0  0  0  0  0
    5.2246    1.5644   -2.6538 H   0  0  0  0  0  0  0  0  0  0  0  0
    7.3529    2.6209   -2.0324 H   0  0  0  0  0  0  0  0  0  0  0  0
    7.1917    0.7953    1.8367 H   0  0  0  0  0  0  0  0  0  0  0  0
    5.0473   -0.2908    1.2525 H   0  0  0  0  0  0  0  0  0  0  0  0
  1  2  1  0
  2  3  1  0
  3  4  1  0
  4  5  2  0
  5  6  1  0
  6  7  1  0
  7  8  2  0
  7  9  1  0
  9 10  2  0
 10 11  1  0
 11 12  1  0
 12 13  1  0
 13 14  1  0
 14 15  2  0
 14 16  1  0
 16 17  1  0
 17 18  2  0
 18 19  1  0
 19 20  2  0
 20 21  1  0
 20 22  1  0
 22 23  2  0
 10 24  1  0
 24 25  2  0
 25 26  1  0
 26  4  1  0
 25  6  1  0
 23 17  1  0
  1 27  1  0
  1 28  1  0
  1 29  1  0
  2 30  1  0
  2 31  1  0
  3 32  1  0
  3 33  1  0
  9 34  1  0
 11 35  1  0
 11 36  1  0
 13 37  1  0
 13 38  1  0
 16 39  1  0
 18 40  1  0
 19 41  1  0
 22 42  1  0
 23 43  1  0
M  END
$$$$
