
     RDKit          3D

 53 55  0  0  0  0  0  0  0  0999 V2000
    4.6631   -3.5803    1.2859 C   0  0  0  0  0  0  0  0  0  0  0  0
    5.2020   -2.3676    0.7768 O   0  0  0  0  0  0  0  0  0  0  0  0
    4.3141   -1.4195    0.3424 C   0  0  0  0  0  0  0  0  0  0  0  0
    2.9391   -1.6034    0.2059 C   0  0  0  0  0  0  0  0  0  0  0  0
    2.1421   -0.5532   -0.2699 C   0  0  0  0  0  0  0  0  0  0  0  0
    0.6879   -0.7775   -0.4004 C   0  0  0  0  0  0  0  0  0  0  0  0
   -0.1028    0.1324   -0.8769 N   0  0  0  0  0  0  0  0  0  0  0  0
   -1.4397   -0.1835   -0.9251 N   0  0  0  0  0  0  0  0  0  0  0  0
   -2.1234   -0.7190    0.2642 C   0  0  0  0  0  0  0  0  0  0  0  0
   -3.4704   -0.0273    0.5618 C   0  0  0  0  0  0  0  0  0  0  0  0
   -4.3516   -0.0237   -0.6200 N   0  0  0  0  0  0  0  0  0  0  0  0
   -5.7247    0.1379   -0.5073 C   0  0  0  0  0  0  0  0  0  0  0  0
   -6.5837   -0.1494   -1.5835 C   0  0  0  0  0  0  0  0  0  0  0  0
   -7.9733   -0.0018   -1.4869 C   0  0  0  0  0  0  0  0  0  0  0  0
   -8.5376    0.4380   -0.2975 C   0  0  0  0  0  0  0  0  0  0  0  0
  -10.2422    0.6229   -0.1698 Cl  0  0  0  0  0  0  0  0  0  0  0  0
   -7.7237    0.7259    0.7899 C   0  0  0  0  0  0  0  0  0  0  0  0
   -6.3349    0.5725    0.6814 C   0  0  0  0  0  0  0  0  0  0  0  0
   -3.6931    0.1533   -1.9337 C   0  0  0  0  0  0  0  0  0  0  0  0
   -2.2512    0.6724   -1.7936 C   0  0  0  0  0  0  0  0  0  0  0  0
    2.7025    0.6832   -0.6202 C   0  0  0  0  0  0  0  0  0  0  0  0
    4.0746    0.8849   -0.4894 C   0  0  0  0  0  0  0  0  0  0  0  0
    4.7418    2.0384   -0.8063 O   0  0  0  0  0  0  0  0  0  0  0  0
    3.9542    3.1488   -1.2179 C   0  0  0  0  0  0  0  0  0  0  0  0
    4.8592   -0.1703    0.0026 C   0  0  0  0  0  0  0  0  0  0  0  0
    6.2429    0.0188    0.1187 O   0  0  0  0  0  0  0  0  0  0  0  0
    6.5933    0.4678    1.3832 C   0  0  0  0  0  0  0  0  0  0  0  0
    8.0805    0.6584    1.4269 C   0  0  0  0  0  0  0  0  0  0  0  0
    5.8472    0.6868    2.3299 O   0  0  0  0  0  0  0  0  0  0  0  0
    4.1654   -4.1505    0.4948 H   0  0  0  0  0  0  0  0  0  0  0  0
    3.9850   -3.3924    2.1250 H   0  0  0  0  0  0  0  0  0  0  0  0
    5.4950   -4.1853    1.6590 H   0  0  0  0  0  0  0  0  0  0  0  0
    2.4707   -2.5493    0.4539 H   0  0  0  0  0  0  0  0  0  0  0  0
    0.3091   -1.7672   -0.0886 H   0  0  0  0  0  0  0  0  0  0  0  0
   -1.4716   -0.6289    1.1399 H   0  0  0  0  0  0  0  0  0  0  0  0
   -2.2916   -1.7839    0.0662 H   0  0  0  0  0  0  0  0  0  0  0  0
   -3.2917    1.0067    0.8816 H   0  0  0  0  0  0  0  0  0  0  0  0
   -3.9366   -0.5673    1.3944 H   0  0  0  0  0  0  0  0  0  0  0  0
   -6.1815   -0.5231   -2.5217 H   0  0  0  0  0  0  0  0  0  0  0  0
   -8.5997   -0.2393   -2.3419 H   0  0  0  0  0  0  0  0  0  0  0  0
   -8.1541    1.0726    1.7252 H   0  0  0  0  0  0  0  0  0  0  0  0
   -5.7368    0.8264    1.5519 H   0  0  0  0  0  0  0  0  0  0  0  0
   -4.2420    0.8701   -2.5565 H   0  0  0  0  0  0  0  0  0  0  0  0
   -3.6844   -0.8138   -2.4507 H   0  0  0  0  0  0  0  0  0  0  0  0
   -1.7701    0.7199   -2.7766 H   0  0  0  0  0  0  0  0  0  0  0  0
   -2.2528    1.6799   -1.3599 H   0  0  0  0  0  0  0  0  0  0  0  0
    2.0463    1.4638   -0.9922 H   0  0  0  0  0  0  0  0  0  0  0  0
    3.2461    3.4439   -0.4365 H   0  0  0  0  0  0  0  0  0  0  0  0
    4.6302    3.9919   -1.3896 H   0  0  0  0  0  0  0  0  0  0  0  0
    3.4395    2.9379   -2.1610 H   0  0  0  0  0  0  0  0  0  0  0  0
    8.3746    1.4366    0.7184 H   0  0  0  0  0  0  0  0  0  0  0  0
    8.3764    0.9698    2.4329 H   0  0  0  0  0  0  0  0  0  0  0  0
    8.5825   -0.2844    1.1951 H   0  0  0  0  0  0  0  0  0  0  0  0
  1  2  1  0
  2  3  1  0
  3  4  2  0
  4  5  1  0
  5  6  1  0
  6  7  2  3
  7  8  1  0
  8  9  1  0
  9 10  1  0
 10 11  1  0
 11 12  1  0
 12 13  2  0
 13 14  1  0
 14 15  2  0
 15 16  1  0
 15 17  1  0
 17 18  2  0
 11 19  1  0
 19 20  1  0
  5 21  2  0
 21 22  1  0
 22 23  1  0
 23 24  1  0
 22 25  2  0
 25 26  1  0
 26 27  1  0
 27 28  1  0
 27 29  2  0
 25  3  1  0
 20  8  1  0
 18 12  1  0
  1 30  1  0
  1 31  1  0
  1 32  1  0
  4 33  1  0
  6 34  1  0
  9 35  1  0
  9 36  1  0
 10 37  1  0
 10 38  1  0
 13 39  1  0
 14 40  1  0
 17 41  1  0
 18 42  1  0
 19 43  1  0
 19 44  1  0
 20 45  1  0
 20 46  1  0
 21 47  1  0
 24 48  1  0
 24 49  1  0
 24 50  1  0
 28 51  1  0
 28 52  1  0
 28 53  1  0
M  END
$$$$
