
     RDKit          3D

 43 45  0  0  0  0  0  0  0  0999 V2000
    3.9615    1.8870    0.5649 O   0  0  0  0  0  0  0  0  0  0  0  0
    3.2004    1.2310   -0.1514 C   0  0  0  0  0  0  0  0  0  0  0  0
    3.7125    0.5362   -1.4386 C   0  0  0  0  0  0  0  0  0  0  0  0
    5.1907    0.7891   -1.7039 C   0  0  0  0  0  0  0  0  0  0  0  0
    5.8486   -0.3597   -0.9814 C   0  0  0  0  0  0  0  0  0  0  0  0
    4.8676   -1.4839   -1.2219 C   0  0  0  0  0  0  0  0  0  0  0  0
    3.5671   -0.8922   -1.3519 O   0  0  0  0  0  0  0  0  0  0  0  0
    1.8376    1.1228    0.1444 N   0  0  0  0  0  0  0  0  0  0  0  0
    0.9713    0.1085   -0.4637 C   0  0  0  0  0  0  0  0  0  0  0  0
   -0.5176    0.4699   -0.3866 C   0  0  0  0  0  0  0  0  0  0  0  0
   -0.9416    0.8856    0.9634 N   0  0  0  0  0  0  0  0  0  0  0  0
   -2.3081    0.7751    1.3275 C   0  0  0  0  0  0  0  0  0  0  0  0
   -3.1198    1.9076    2.2669 S   0  0  0  0  0  0  0  0  0  0  0  0
   -2.8466   -0.4283    0.8844 N   0  0  0  0  0  0  0  0  0  0  0  0
   -4.1844   -0.8403    0.7075 C   0  0  0  0  0  0  0  0  0  0  0  0
   -4.4310   -2.2215    0.6925 C   0  0  0  0  0  0  0  0  0  0  0  0
   -5.7236   -2.7118    0.4904 C   0  0  0  0  0  0  0  0  0  0  0  0
   -6.7678   -1.8209    0.2847 C   0  0  0  0  0  0  0  0  0  0  0  0
   -8.0066   -2.2889    0.0863 F   0  0  0  0  0  0  0  0  0  0  0  0
   -6.5399   -0.4517    0.2680 C   0  0  0  0  0  0  0  0  0  0  0  0
   -5.2458    0.0383    0.4708 C   0  0  0  0  0  0  0  0  0  0  0  0
   -0.0837    1.9488    1.5230 C   0  0  0  0  0  0  0  0  0  0  0  0
    1.4064    1.5931    1.4627 C   0  0  0  0  0  0  0  0  0  0  0  0
    3.1164    0.9119   -2.2778 H   0  0  0  0  0  0  0  0  0  0  0  0
    5.5532    1.7677   -1.3781 H   0  0  0  0  0  0  0  0  0  0  0  0
    5.3901    0.6983   -2.7790 H   0  0  0  0  0  0  0  0  0  0  0  0
    6.8545   -0.5879   -1.3435 H   0  0  0  0  0  0  0  0  0  0  0  0
    5.9143   -0.1420    0.0909 H   0  0  0  0  0  0  0  0  0  0  0  0
    4.8594   -2.2151   -0.4087 H   0  0  0  0  0  0  0  0  0  0  0  0
    5.0884   -2.0078   -2.1580 H   0  0  0  0  0  0  0  0  0  0  0  0
    1.2319   -0.0441   -1.5135 H   0  0  0  0  0  0  0  0  0  0  0  0
    1.1557   -0.8305    0.0720 H   0  0  0  0  0  0  0  0  0  0  0  0
   -0.7253    1.3204   -1.0490 H   0  0  0  0  0  0  0  0  0  0  0  0
   -1.1111   -0.3676   -0.7629 H   0  0  0  0  0  0  0  0  0  0  0  0
   -2.1646   -1.1761    0.8949 H   0  0  0  0  0  0  0  0  0  0  0  0
   -3.6253   -2.9328    0.8541 H   0  0  0  0  0  0  0  0  0  0  0  0
   -5.9203   -3.7790    0.4923 H   0  0  0  0  0  0  0  0  0  0  0  0
   -7.3656    0.2296    0.0887 H   0  0  0  0  0  0  0  0  0  0  0  0
   -5.0938    1.1106    0.4056 H   0  0  0  0  0  0  0  0  0  0  0  0
   -0.2771    2.8613    0.9453 H   0  0  0  0  0  0  0  0  0  0  0  0
   -0.3480    2.1428    2.5669 H   0  0  0  0  0  0  0  0  0  0  0  0
    1.9964    2.4633    1.7704 H   0  0  0  0  0  0  0  0  0  0  0  0
    1.6237    0.7834    2.1708 H   0  0  0  0  0  0  0  0  0  0  0  0
  1  2  2  0
  2  3  1  0
  3  4  1  0
  4  5  1  0
  5  6  1  0
  6  7  1  0
  2  8  1  0
  8  9  1  0
  9 10  1  0
 10 11  1  0
 11 12  1  0
 12 13  2  0
 12 14  1  0
 14 15  1  0
 15 16  2  0
 16 17  1  0
 17 18  2  0
 18 19  1  0
 18 20  1  0
 20 21  2  0
 11 22  1  0
 22 23  1  0
  7  3  1  0
 23  8  1  0
 21 15  1  0
  3 24  1  0
  4 25  1  0
  4 26  1  0
  5 27  1  0
  5 28  1  0
  6 29  1  0
  6 30  1  0
  9 31  1  0
  9 32  1  0
 10 33  1  0
 10 34  1  0
 14 35  1  0
 16 36  1  0
 17 37  1  0
 20 38  1  0
 21 39  1  0
 22 40  1  0
 22 41  1  0
 23 42  1  0
 23 43  1  0
M  END
$$$$
