
     RDKit          3D

 47 49  0  0  0  0  0  0  0  0999 V2000
    7.2710   -2.7334   -0.4540 C   0  0  0  0  0  0  0  0  0  0  0  0
    6.2546   -3.0655   -1.3920 O   0  0  0  0  0  0  0  0  0  0  0  0
    5.1524   -2.2576   -1.4159 C   0  0  0  0  0  0  0  0  0  0  0  0
    4.8892   -1.1997   -0.5481 C   0  0  0  0  0  0  0  0  0  0  0  0
    3.7133   -0.4477   -0.6837 C   0  0  0  0  0  0  0  0  0  0  0  0
    2.7967   -0.7324   -1.6960 C   0  0  0  0  0  0  0  0  0  0  0  0
    1.5768   -0.0442   -1.8702 N   0  0  0  0  0  0  0  0  0  0  0  0
    1.1942    1.2420   -1.5070 C   0  0  0  0  0  0  0  0  0  0  0  0
    2.2578    2.5191   -1.2495 S   0  0  0  0  0  0  0  0  0  0  0  0
   -0.2082    1.3775   -1.4600 N   0  0  0  0  0  0  0  0  0  0  0  0
   -0.8958    2.6757   -1.4524 C   0  0  0  0  0  0  0  0  0  0  0  0
   -1.4199    2.9924   -0.0544 C   0  0  0  0  0  0  0  0  0  0  0  0
   -2.2529    1.8499    0.4779 C   0  0  0  0  0  0  0  0  0  0  0  0
   -3.1734    2.0819    1.5115 C   0  0  0  0  0  0  0  0  0  0  0  0
   -3.9434    1.0368    2.0326 C   0  0  0  0  0  0  0  0  0  0  0  0
   -4.8721    1.1810    3.0344 O   0  0  0  0  0  0  0  0  0  0  0  0
   -5.0367    2.4725    3.6008 C   0  0  0  0  0  0  0  0  0  0  0  0
   -3.7852   -0.2648    1.5194 C   0  0  0  0  0  0  0  0  0  0  0  0
   -4.5805   -1.2338    2.0799 O   0  0  0  0  0  0  0  0  0  0  0  0
   -4.4203   -2.5686    1.6232 C   0  0  0  0  0  0  0  0  0  0  0  0
   -2.8569   -0.4973    0.4974 C   0  0  0  0  0  0  0  0  0  0  0  0
   -2.0775    0.5490   -0.0242 C   0  0  0  0  0  0  0  0  0  0  0  0
   -1.0914    0.2478   -1.1375 C   0  0  0  0  0  0  0  0  0  0  0  0
    3.0494   -1.8159   -2.5432 C   0  0  0  0  0  0  0  0  0  0  0  0
    4.2219   -2.5656   -2.4079 C   0  0  0  0  0  0  0  0  0  0  0  0
    6.9088   -2.8427    0.5734 H   0  0  0  0  0  0  0  0  0  0  0  0
    7.6605   -1.7255   -0.6322 H   0  0  0  0  0  0  0  0  0  0  0  0
    8.0964   -3.4384   -0.5923 H   0  0  0  0  0  0  0  0  0  0  0  0
    5.5672   -0.9358    0.2563 H   0  0  0  0  0  0  0  0  0  0  0  0
    3.5269    0.3351    0.0445 H   0  0  0  0  0  0  0  0  0  0  0  0
    0.9446   -0.4639   -2.5391 H   0  0  0  0  0  0  0  0  0  0  0  0
   -1.7279    2.6011   -2.1650 H   0  0  0  0  0  0  0  0  0  0  0  0
   -0.2538    3.4827   -1.8140 H   0  0  0  0  0  0  0  0  0  0  0  0
   -0.5857    3.1605    0.6368 H   0  0  0  0  0  0  0  0  0  0  0  0
   -2.0189    3.9095   -0.0974 H   0  0  0  0  0  0  0  0  0  0  0  0
   -3.2711    3.0935    1.8922 H   0  0  0  0  0  0  0  0  0  0  0  0
   -4.1115    2.8174    4.0746 H   0  0  0  0  0  0  0  0  0  0  0  0
   -5.8026    2.4009    4.3794 H   0  0  0  0  0  0  0  0  0  0  0  0
   -5.3909    3.1900    2.8531 H   0  0  0  0  0  0  0  0  0  0  0  0
   -4.6811   -2.6566    0.5636 H   0  0  0  0  0  0  0  0  0  0  0  0
   -5.1114   -3.2012    2.1888 H   0  0  0  0  0  0  0  0  0  0  0  0
   -3.4055   -2.9334    1.8136 H   0  0  0  0  0  0  0  0  0  0  0  0
   -2.7170   -1.4928    0.0885 H   0  0  0  0  0  0  0  0  0  0  0  0
   -0.5055   -0.6290   -0.8438 H   0  0  0  0  0  0  0  0  0  0  0  0
   -1.6487    0.0098   -2.0508 H   0  0  0  0  0  0  0  0  0  0  0  0
    2.3517   -2.0845   -3.3313 H   0  0  0  0  0  0  0  0  0  0  0  0
    4.4120   -3.3959   -3.0838 H   0  0  0  0  0  0  0  0  0  0  0  0
  1  2  1  0
  2  3  1  0
  3  4  2  0
  4  5  1  0
  5  6  2  0
  6  7  1  0
  7  8  1  0
  8  9  2  0
  8 10  1  0
 10 11  1  0
 11 12  1  0
 12 13  1  0
 13 14  2  0
 14 15  1  0
 15 16  1  0
 16 17  1  0
 15 18  2  0
 18 19  1  0
 19 20  1  0
 18 21  1  0
 21 22  2  0
 22 23  1  0
  6 24  1  0
 24 25  2  0
 25  3  1  0
 23 10  1  0
 22 13  1  0
  1 26  1  0
  1 27  1  0
  1 28  1  0
  4 29  1  0
  5 30  1  0
  7 31  1  0
 11 32  1  0
 11 33  1  0
 12 34  1  0
 12 35  1  0
 14 36  1  0
 17 37  1  0
 17 38  1  0
 17 39  1  0
 20 40  1  0
 20 41  1  0
 20 42  1  0
 21 43  1  0
 23 44  1  0
 23 45  1  0
 24 46  1  0
 25 47  1  0
M  END
$$$$
