
     RDKit          3D

 57 59  0  0  0  0  0  0  0  0999 V2000
    0.4436    3.3366    4.0655 C   0  0  0  0  0  0  0  0  0  0  0  0
    0.4384    2.2898    3.1029 O   0  0  0  0  0  0  0  0  0  0  0  0
   -0.7745    1.6961    2.8312 C   0  0  0  0  0  0  0  0  0  0  0  0
   -1.9964    2.0829    3.3936 C   0  0  0  0  0  0  0  0  0  0  0  0
   -3.1712    1.4139    3.0446 C   0  0  0  0  0  0  0  0  0  0  0  0
   -3.1157    0.3573    2.1344 C   0  0  0  0  0  0  0  0  0  0  0  0
   -4.6030   -0.4924    1.6665 S   0  0  0  0  0  6  0  0  0  0  0  0
   -4.4423   -1.8735    2.0625 O   0  0  0  0  0  0  0  0  0  0  0  0
   -5.7347    0.2946    2.1144 O   0  0  0  0  0  0  0  0  0  0  0  0
   -4.5739   -0.3994   -0.0433 N   0  0  0  0  0  0  0  0  0  0  0  0
   -4.7497    0.9707   -0.5983 C   0  0  0  0  0  0  0  0  0  0  0  0
   -4.4381    0.9654   -2.0934 C   0  0  0  0  0  0  0  0  0  0  0  0
   -5.2953   -0.0538   -2.8371 C   0  0  0  0  0  0  0  0  0  0  0  0
   -5.1732   -1.4328   -2.1946 C   0  0  0  0  0  0  0  0  0  0  0  0
   -5.4827   -1.3774   -0.7010 C   0  0  0  0  0  0  0  0  0  0  0  0
   -1.9032   -0.0422    1.5642 C   0  0  0  0  0  0  0  0  0  0  0  0
   -0.7282    0.6262    1.9067 C   0  0  0  0  0  0  0  0  0  0  0  0
    0.5399    0.3042    1.3707 N   0  0  0  0  0  0  0  0  0  0  0  0
    0.8602   -0.7010    0.4822 C   0  0  0  0  0  0  0  0  0  0  0  0
    0.0897   -1.5389    0.0302 O   0  0  0  0  0  0  0  0  0  0  0  0
    2.2988   -0.7702    0.0864 C   0  0  0  0  0  0  0  0  0  0  0  0
    3.1172    0.3638    0.0339 C   0  0  0  0  0  0  0  0  0  0  0  0
    4.4610    0.2448   -0.3367 C   0  0  0  0  0  0  0  0  0  0  0  0
    5.0058   -1.0059   -0.6618 C   0  0  0  0  0  0  0  0  0  0  0  0
    6.4555   -1.1315   -1.0515 C   0  0  0  0  0  0  0  0  0  0  0  0
    6.6132   -1.0992   -2.8320 S   0  0  0  0  0  6  0  0  0  0  0  0
    8.3735   -1.1750   -3.0475 C   0  0  0  0  0  0  0  0  0  0  0  0
    6.1865    0.1979   -3.3235 O   0  0  0  0  0  0  0  0  0  0  0  0
    6.0712   -2.3270   -3.3796 O   0  0  0  0  0  0  0  0  0  0  0  0
    4.1756   -2.1339   -0.6311 C   0  0  0  0  0  0  0  0  0  0  0  0
    2.8322   -2.0166   -0.2645 C   0  0  0  0  0  0  0  0  0  0  0  0
   -0.1450    4.1917    3.7193 H   0  0  0  0  0  0  0  0  0  0  0  0
    0.0943    2.9801    5.0401 H   0  0  0  0  0  0  0  0  0  0  0  0
    1.4781    3.6725    4.1861 H   0  0  0  0  0  0  0  0  0  0  0  0
   -2.0705    2.8997    4.1044 H   0  0  0  0  0  0  0  0  0  0  0  0
   -4.1181    1.7175    3.4865 H   0  0  0  0  0  0  0  0  0  0  0  0
   -5.7784    1.3138   -0.4293 H   0  0  0  0  0  0  0  0  0  0  0  0
   -4.0696    1.6723   -0.1060 H   0  0  0  0  0  0  0  0  0  0  0  0
   -3.3761    0.7280   -2.2474 H   0  0  0  0  0  0  0  0  0  0  0  0
   -4.6101    1.9647   -2.5092 H   0  0  0  0  0  0  0  0  0  0  0  0
   -4.9893   -0.1040   -3.8878 H   0  0  0  0  0  0  0  0  0  0  0  0
   -6.3461    0.2653   -2.8200 H   0  0  0  0  0  0  0  0  0  0  0  0
   -5.8556   -2.1331   -2.6894 H   0  0  0  0  0  0  0  0  0  0  0  0
   -4.1546   -1.8124   -2.3434 H   0  0  0  0  0  0  0  0  0  0  0  0
   -6.5284   -1.0905   -0.5347 H   0  0  0  0  0  0  0  0  0  0  0  0
   -5.3272   -2.3785   -0.2861 H   0  0  0  0  0  0  0  0  0  0  0  0
   -1.9059   -0.8698    0.8604 H   0  0  0  0  0  0  0  0  0  0  0  0
    1.2869    0.8693    1.7580 H   0  0  0  0  0  0  0  0  0  0  0  0
    2.7242    1.3535    0.2424 H   0  0  0  0  0  0  0  0  0  0  0  0
    5.0735    1.1436   -0.3919 H   0  0  0  0  0  0  0  0  0  0  0  0
    7.0432   -0.3024   -0.6472 H   0  0  0  0  0  0  0  0  0  0  0  0
    6.8804   -2.0697   -0.6847 H   0  0  0  0  0  0  0  0  0  0  0  0
    8.8266   -0.3114   -2.5576 H   0  0  0  0  0  0  0  0  0  0  0  0
    8.5857   -1.1505   -4.1194 H   0  0  0  0  0  0  0  0  0  0  0  0
    8.7442   -2.1055   -2.6154 H   0  0  0  0  0  0  0  0  0  0  0  0
    4.5587   -3.1152   -0.9109 H   0  0  0  0  0  0  0  0  0  0  0  0
    2.1992   -2.9023   -0.2562 H   0  0  0  0  0  0  0  0  0  0  0  0
  1  2  1  0
  2  3  1  0
  3  4  2  0
  4  5  1  0
  5  6  2  0
  6  7  1  0
  7  8  2  0
  7  9  2  0
  7 10  1  0
 10 11  1  0
 11 12  1  0
 12 13  1  0
 13 14  1  0
 14 15  1  0
  6 16  1  0
 16 17  2  0
 17 18  1  0
 18 19  1  0
 19 20  2  0
 19 21  1  0
 21 22  2  0
 22 23  1  0
 23 24  2  0
 24 25  1  0
 25 26  1  0
 26 27  1  0
 26 28  2  0
 26 29  2  0
 24 30  1  0
 30 31  2  0
 17  3  1  0
 31 21  1  0
 15 10  1  0
  1 32  1  0
  1 33  1  0
  1 34  1  0
  4 35  1  0
  5 36  1  0
 11 37  1  0
 11 38  1  0
 12 39  1  0
 12 40  1  0
 13 41  1  0
 13 42  1  0
 14 43  1  0
 14 44  1  0
 15 45  1  0
 15 46  1  0
 16 47  1  0
 18 48  1  0
 22 49  1  0
 23 50  1  0
 25 51  1  0
 25 52  1  0
 27 53  1  0
 27 54  1  0
 27 55  1  0
 30 56  1  0
 31 57  1  0
M  END
$$$$
