
     RDKit          3D

 47 49  0  0  0  0  0  0  0  0999 V2000
    2.0198   -0.5952   -1.5604 O   0  0  0  0  0  0  0  0  0  0  0  0
    1.4348   -0.8964   -0.5256 C   0  0  0  0  0  0  0  0  0  0  0  0
    2.0996   -0.7775    0.8371 C   0  0  0  0  0  0  0  0  0  0  0  0
    3.2233    0.2510    0.8537 C   0  0  0  0  0  0  0  0  0  0  0  0
    2.5429    1.9488    0.9302 S   0  0  0  0  0  0  0  0  0  0  0  0
    4.0596    2.8761    0.8053 C   0  0  0  0  0  0  0  0  0  0  0  0
    4.4754    3.6677    1.8795 C   0  0  0  0  0  0  0  0  0  0  0  0
    5.6572    4.4070    1.7935 C   0  0  0  0  0  0  0  0  0  0  0  0
    6.4240    4.3641    0.6300 C   0  0  0  0  0  0  0  0  0  0  0  0
    6.0076    3.5871   -0.4498 C   0  0  0  0  0  0  0  0  0  0  0  0
    4.8260    2.8478   -0.3641 C   0  0  0  0  0  0  0  0  0  0  0  0
    0.1587   -1.4190   -0.4302 N   0  0  0  0  0  0  0  0  0  0  0  0
   -0.7351   -1.7573   -1.4769 C   0  0  0  0  0  0  0  0  0  0  0  0
   -0.3772   -1.6985   -2.8276 C   0  0  0  0  0  0  0  0  0  0  0  0
   -1.2700   -2.1098   -3.8246 C   0  0  0  0  0  0  0  0  0  0  0  0
   -2.5301   -2.5963   -3.4875 C   0  0  0  0  0  0  0  0  0  0  0  0
   -2.9129   -2.6480   -2.1500 C   0  0  0  0  0  0  0  0  0  0  0  0
   -2.0363   -2.1980   -1.1515 C   0  0  0  0  0  0  0  0  0  0  0  0
   -2.4800   -2.2266    0.2644 C   0  0  0  0  0  0  0  0  0  0  0  0
   -1.7483   -2.7794    1.0851 O   0  0  0  0  0  0  0  0  0  0  0  0
   -3.6507   -1.5767    0.6178 N   0  0  0  0  0  0  0  0  0  0  0  0
   -4.0710   -1.5310    2.0101 C   0  0  0  0  0  0  0  0  0  0  0  0
   -4.9268   -0.2769    2.1167 C   0  0  0  0  0  0  0  0  0  0  0  0
   -5.5248   -0.1523    0.7233 C   0  0  0  0  0  0  0  0  0  0  0  0
   -4.3794   -0.5938   -0.1770 C   0  0  0  0  0  0  0  0  0  0  0  0
    1.3576   -0.5617    1.6150 H   0  0  0  0  0  0  0  0  0  0  0  0
    2.5225   -1.7656    1.0580 H   0  0  0  0  0  0  0  0  0  0  0  0
    3.8721    0.1410   -0.0207 H   0  0  0  0  0  0  0  0  0  0  0  0
    3.8377    0.1001    1.7478 H   0  0  0  0  0  0  0  0  0  0  0  0
    3.8837    3.7145    2.7904 H   0  0  0  0  0  0  0  0  0  0  0  0
    5.9766    5.0184    2.6333 H   0  0  0  0  0  0  0  0  0  0  0  0
    7.3425    4.9413    0.5621 H   0  0  0  0  0  0  0  0  0  0  0  0
    6.5984    3.5598   -1.3617 H   0  0  0  0  0  0  0  0  0  0  0  0
    4.5050    2.2577   -1.2198 H   0  0  0  0  0  0  0  0  0  0  0  0
   -0.1770   -1.6506    0.5054 H   0  0  0  0  0  0  0  0  0  0  0  0
    0.6039   -1.3567   -3.1430 H   0  0  0  0  0  0  0  0  0  0  0  0
   -0.9646   -2.0656   -4.8678 H   0  0  0  0  0  0  0  0  0  0  0  0
   -3.2084   -2.9375   -4.2655 H   0  0  0  0  0  0  0  0  0  0  0  0
   -3.8894   -3.0463   -1.8863 H   0  0  0  0  0  0  0  0  0  0  0  0
   -4.6618   -2.4329    2.2040 H   0  0  0  0  0  0  0  0  0  0  0  0
   -3.2174   -1.5109    2.6941 H   0  0  0  0  0  0  0  0  0  0  0  0
   -4.2925    0.5930    2.3258 H   0  0  0  0  0  0  0  0  0  0  0  0
   -5.6826   -0.3476    2.9036 H   0  0  0  0  0  0  0  0  0  0  0  0
   -6.3713   -0.8421    0.6206 H   0  0  0  0  0  0  0  0  0  0  0  0
   -5.8747    0.8580    0.4951 H   0  0  0  0  0  0  0  0  0  0  0  0
   -3.6998    0.2361   -0.4000 H   0  0  0  0  0  0  0  0  0  0  0  0
   -4.7468   -1.0194   -1.1121 H   0  0  0  0  0  0  0  0  0  0  0  0
  1  2  2  0
  2  3  1  0
  3  4  1  0
  4  5  1  0
  5  6  1  0
  6  7  2  0
  7  8  1  0
  8  9  2  0
  9 10  1  0
 10 11  2  0
  2 12  1  0
 12 13  1  0
 13 14  2  0
 14 15  1  0
 15 16  2  0
 16 17  1  0
 17 18  2  0
 18 19  1  0
 19 20  2  0
 19 21  1  0
 21 22  1  0
 22 23  1  0
 23 24  1  0
 24 25  1  0
 11  6  1  0
 18 13  1  0
 25 21  1  0
  3 26  1  0
  3 27  1  0
  4 28  1  0
  4 29  1  0
  7 30  1  0
  8 31  1  0
  9 32  1  0
 10 33  1  0
 11 34  1  0
 12 35  1  0
 14 36  1  0
 15 37  1  0
 16 38  1  0
 17 39  1  0
 22 40  1  0
 22 41  1  0
 23 42  1  0
 23 43  1  0
 24 44  1  0
 24 45  1  0
 25 46  1  0
 25 47  1  0
M  END
$$$$
