
     RDKit          3D

 43 45  0  0  0  0  0  0  0  0999 V2000
   -0.2301   -2.8326   -2.7183 C   0  0  0  0  0  0  0  0  0  0  0  0
    0.0093   -2.9021   -1.2329 C   0  0  0  0  0  0  0  0  0  0  0  0
   -0.4711   -3.7986   -0.5399 O   0  0  0  0  0  0  0  0  0  0  0  0
    0.8414   -1.8328   -0.6301 C   0  0  0  0  0  0  0  0  0  0  0  0
    0.2504   -0.6766   -0.2421 C   0  0  0  0  0  0  0  0  0  0  0  0
   -1.1257   -0.4232   -0.3032 N   0  0  0  0  0  0  0  0  0  0  0  0
   -2.1210   -1.3488    0.3051 C   0  0  0  0  0  0  0  0  0  0  0  0
   -3.2739   -0.5822    0.9922 C   0  0  0  0  0  0  0  0  0  0  0  0
   -4.0044    0.3700    0.1274 N   0  0  0  0  0  0  0  0  0  0  0  0
   -5.2639   -0.1927   -0.3542 C   0  0  0  0  0  0  0  0  0  0  0  0
   -3.1698    0.8179   -1.0072 C   0  0  0  0  0  0  0  0  0  0  0  0
   -1.6711    0.9080   -0.6536 C   0  0  0  0  0  0  0  0  0  0  0  0
    1.0811    0.3147    0.2253 N   0  0  0  0  0  0  0  0  0  0  0  0
    2.4315    0.1614    0.3809 C   0  0  0  0  0  0  0  0  0  0  0  0
    3.2410    1.2610    0.9951 C   0  0  0  0  0  0  0  0  0  0  0  0
    2.6657    2.1808    1.8814 C   0  0  0  0  0  0  0  0  0  0  0  0
    3.4448    3.2016    2.4331 C   0  0  0  0  0  0  0  0  0  0  0  0
    4.7968    3.3053    2.1074 C   0  0  0  0  0  0  0  0  0  0  0  0
    5.3771    2.3853    1.2359 C   0  0  0  0  0  0  0  0  0  0  0  0
    4.6031    1.3633    0.6833 C   0  0  0  0  0  0  0  0  0  0  0  0
    3.0503   -0.9158    0.0033 N   0  0  0  0  0  0  0  0  0  0  0  0
    2.3402   -1.9580   -0.5651 C   0  0  0  0  0  0  0  0  0  0  0  0
    3.1867   -3.2979   -1.1693 S   0  0  0  0  0  0  0  0  0  0  0  0
    0.0996   -3.7666   -3.1806 H   0  0  0  0  0  0  0  0  0  0  0  0
    0.3261   -2.0066   -3.1704 H   0  0  0  0  0  0  0  0  0  0  0  0
   -1.2964   -2.6779   -2.9030 H   0  0  0  0  0  0  0  0  0  0  0  0
   -1.6384   -1.9815    1.0593 H   0  0  0  0  0  0  0  0  0  0  0  0
   -2.5330   -1.9972   -0.4766 H   0  0  0  0  0  0  0  0  0  0  0  0
   -2.8446    0.0037    1.8157 H   0  0  0  0  0  0  0  0  0  0  0  0
   -3.9590   -1.2960    1.4664 H   0  0  0  0  0  0  0  0  0  0  0  0
   -5.1119   -1.1057   -0.9411 H   0  0  0  0  0  0  0  0  0  0  0  0
   -5.9245   -0.4295    0.4872 H   0  0  0  0  0  0  0  0  0  0  0  0
   -5.7972    0.5347   -0.9764 H   0  0  0  0  0  0  0  0  0  0  0  0
   -3.2755    0.1332   -1.8601 H   0  0  0  0  0  0  0  0  0  0  0  0
   -3.5223    1.8027   -1.3347 H   0  0  0  0  0  0  0  0  0  0  0  0
   -1.5276    1.6036    0.1824 H   0  0  0  0  0  0  0  0  0  0  0  0
   -1.1279    1.3067   -1.5187 H   0  0  0  0  0  0  0  0  0  0  0  0
    0.6145    1.1466    0.5501 H   0  0  0  0  0  0  0  0  0  0  0  0
    1.6259    2.1055    2.1821 H   0  0  0  0  0  0  0  0  0  0  0  0
    3.0004    3.9112    3.1270 H   0  0  0  0  0  0  0  0  0  0  0  0
    5.4021    4.0977    2.5411 H   0  0  0  0  0  0  0  0  0  0  0  0
    6.4333    2.4587    0.9887 H   0  0  0  0  0  0  0  0  0  0  0  0
    5.0681    0.6485    0.0071 H   0  0  0  0  0  0  0  0  0  0  0  0
  1  2  1  0
  2  3  2  0
  2  4  1  0
  4  5  2  0
  5  6  1  0
  6  7  1  0
  7  8  1  0
  8  9  1  0
  9 10  1  0
  9 11  1  0
 11 12  1  0
  5 13  1  0
 13 14  1  0
 14 15  1  0
 15 16  2  0
 16 17  1  0
 17 18  2  0
 18 19  1  0
 19 20  2  0
 14 21  2  0
 21 22  1  0
 22 23  2  0
 22  4  1  0
 12  6  1  0
 20 15  1  0
  1 24  1  0
  1 25  1  0
  1 26  1  0
  7 27  1  0
  7 28  1  0
  8 29  1  0
  8 30  1  0
 10 31  1  0
 10 32  1  0
 10 33  1  0
 11 34  1  0
 11 35  1  0
 12 36  1  0
 12 37  1  0
 13 38  1  0
 16 39  1  0
 17 40  1  0
 18 41  1  0
 19 42  1  0
 20 43  1  0
M  END
$$$$
