
     RDKit          3D

 57 61  0  0  0  0  0  0  0  0999 V2000
   -7.8320    0.5604    3.9378 C   0  0  0  0  0  0  0  0  0  0  0  0
   -6.8102    0.4712    2.8441 C   0  0  0  0  0  0  0  0  0  0  0  0
   -5.4486    0.4026    3.1478 C   0  0  0  0  0  0  0  0  0  0  0  0
   -4.4956    0.2875    2.1275 C   0  0  0  0  0  0  0  0  0  0  0  0
   -4.8722    0.2230    0.7738 C   0  0  0  0  0  0  0  0  0  0  0  0
   -3.8833    0.0978   -0.3195 C   0  0  0  0  0  0  0  0  0  0  0  0
   -2.6532   -0.5163   -0.1640 C   0  0  0  0  0  0  0  0  0  0  0  0
   -1.7887   -0.5659   -1.2588 C   0  0  0  0  0  0  0  0  0  0  0  0
   -0.4599   -1.1721   -1.0144 C   0  0  0  0  0  0  0  0  0  0  0  0
   -0.4192   -2.3205   -0.5958 O   0  0  0  0  0  0  0  0  0  0  0  0
    0.5971   -0.3115   -1.2406 N   0  0  0  0  0  0  0  0  0  0  0  0
    1.9721   -0.5933   -1.1126 C   0  0  0  0  0  0  0  0  0  0  0  0
    2.4812   -1.8503   -0.7750 C   0  0  0  0  0  0  0  0  0  0  0  0
    3.8618   -2.0541   -0.6755 C   0  0  0  0  0  0  0  0  0  0  0  0
    4.7372   -0.9912   -0.9069 C   0  0  0  0  0  0  0  0  0  0  0  0
    6.4890   -1.2697   -0.8137 S   0  0  0  0  0  6  0  0  0  0  0  0
    6.7320   -2.5516   -1.4466 O   0  0  0  0  0  0  0  0  0  0  0  0
    7.1859   -0.0895   -1.2803 O   0  0  0  0  0  0  0  0  0  0  0  0
    6.7685   -1.4998    0.8050 N   0  0  0  0  0  0  0  0  0  0  0  0
    6.9023   -0.3713    1.6020 C   0  0  0  0  0  0  0  0  0  0  0  0
    7.7966   -0.5231    2.5842 N   0  0  0  0  0  0  0  0  0  0  0  0
    7.8605    0.4895    3.4686 C   0  0  0  0  0  0  0  0  0  0  0  0
    7.0453    1.5962    3.4151 C   0  0  0  0  0  0  0  0  0  0  0  0
    6.1304    1.6091    2.3879 C   0  0  0  0  0  0  0  0  0  0  0  0
    6.0229    0.6243    1.4776 N   0  0  0  0  0  0  0  0  0  0  0  0
    4.2451    0.2659   -1.2579 C   0  0  0  0  0  0  0  0  0  0  0  0
    2.8646    0.4609   -1.3562 C   0  0  0  0  0  0  0  0  0  0  0  0
   -2.1672   -0.0537   -2.5176 C   0  0  0  0  0  0  0  0  0  0  0  0
   -1.3857   -0.1271   -3.7002 C   0  0  0  0  0  0  0  0  0  0  0  0
   -1.8427    0.4180   -4.8982 C   0  0  0  0  0  0  0  0  0  0  0  0
   -3.0846    1.0345   -4.9363 C   0  0  0  0  0  0  0  0  0  0  0  0
   -3.8646    1.0905   -3.7791 C   0  0  0  0  0  0  0  0  0  0  0  0
   -3.4342    0.5516   -2.5739 C   0  0  0  0  0  0  0  0  0  0  0  0
   -4.2532    0.6315   -1.5116 N   0  0  0  0  0  0  0  0  0  0  0  0
   -6.2490    0.2871    0.4908 C   0  0  0  0  0  0  0  0  0  0  0  0
   -7.2048    0.4016    1.5067 C   0  0  0  0  0  0  0  0  0  0  0  0
   -7.4416    1.1251    4.7910 H   0  0  0  0  0  0  0  0  0  0  0  0
   -8.7327    1.0780    3.5910 H   0  0  0  0  0  0  0  0  0  0  0  0
   -8.1090   -0.4437    4.2740 H   0  0  0  0  0  0  0  0  0  0  0  0
   -5.1154    0.4429    4.1826 H   0  0  0  0  0  0  0  0  0  0  0  0
   -3.4474    0.2624    2.4154 H   0  0  0  0  0  0  0  0  0  0  0  0
   -2.3550   -0.9623    0.7794 H   0  0  0  0  0  0  0  0  0  0  0  0
    0.3626    0.6375   -1.5082 H   0  0  0  0  0  0  0  0  0  0  0  0
    1.8293   -2.6989   -0.5899 H   0  0  0  0  0  0  0  0  0  0  0  0
    4.2418   -3.0413   -0.4222 H   0  0  0  0  0  0  0  0  0  0  0  0
    7.4537   -2.2181    1.0058 H   0  0  0  0  0  0  0  0  0  0  0  0
    8.6069    0.3785    4.2501 H   0  0  0  0  0  0  0  0  0  0  0  0
    7.1128    2.3978    4.1374 H   0  0  0  0  0  0  0  0  0  0  0  0
    5.4321    2.4322    2.2669 H   0  0  0  0  0  0  0  0  0  0  0  0
    4.9243    1.0943   -1.4466 H   0  0  0  0  0  0  0  0  0  0  0  0
    2.5004    1.4493   -1.6250 H   0  0  0  0  0  0  0  0  0  0  0  0
   -0.4205   -0.6309   -3.7032 H   0  0  0  0  0  0  0  0  0  0  0  0
   -1.2355    0.3514   -5.7977 H   0  0  0  0  0  0  0  0  0  0  0  0
   -3.4580    1.4616   -5.8636 H   0  0  0  0  0  0  0  0  0  0  0  0
   -4.8436    1.5639   -3.8205 H   0  0  0  0  0  0  0  0  0  0  0  0
   -6.5907    0.2409   -0.5425 H   0  0  0  0  0  0  0  0  0  0  0  0
   -8.2584    0.4374    1.2395 H   0  0  0  0  0  0  0  0  0  0  0  0
  1  2  1  0
  2  3  2  0
  3  4  1  0
  4  5  2  0
  5  6  1  0
  6  7  2  0
  7  8  1  0
  8  9  1  0
  9 10  2  0
  9 11  1  0
 11 12  1  0
 12 13  2  0
 13 14  1  0
 14 15  2  0
 15 16  1  0
 16 17  2  0
 16 18  2  0
 16 19  1  0
 19 20  1  0
 20 21  2  0
 21 22  1  0
 22 23  2  0
 23 24  1  0
 24 25  2  0
 15 26  1  0
 26 27  2  0
  8 28  2  0
 28 29  1  0
 29 30  2  0
 30 31  1  0
 31 32  2  0
 32 33  1  0
 33 34  2  0
  5 35  1  0
 35 36  2  0
 36  2  1  0
 34  6  1  0
 27 12  1  0
 33 28  1  0
 25 20  1  0
  1 37  1  0
  1 38  1  0
  1 39  1  0
  3 40  1  0
  4 41  1  0
  7 42  1  0
 11 43  1  0
 13 44  1  0
 14 45  1  0
 19 46  1  0
 22 47  1  0
 23 48  1  0
 24 49  1  0
 26 50  1  0
 27 51  1  0
 29 52  1  0
 30 53  1  0
 31 54  1  0
 32 55  1  0
 35 56  1  0
 36 57  1  0
M  END
$$$$
