
     RDKit          3D

 54 57  0  0  0  0  0  0  0  0999 V2000
    6.3200    4.2272    2.5555 C   0  0  0  0  0  0  0  0  0  0  0  0
    6.6636    3.2497    1.5818 O   0  0  0  0  0  0  0  0  0  0  0  0
    5.6585    2.4342    1.1428 C   0  0  0  0  0  0  0  0  0  0  0  0
    4.3331    2.4603    1.5682 C   0  0  0  0  0  0  0  0  0  0  0  0
    3.3988    1.5610    1.0306 C   0  0  0  0  0  0  0  0  0  0  0  0
    3.7602    0.6156    0.0533 C   0  0  0  0  0  0  0  0  0  0  0  0
    2.7887   -0.3371   -0.5278 C   0  0  0  0  0  0  0  0  0  0  0  0
    1.4361   -0.0690   -0.6411 C   0  0  0  0  0  0  0  0  0  0  0  0
    0.6029   -1.0442   -1.1933 C   0  0  0  0  0  0  0  0  0  0  0  0
   -0.8405   -0.7177   -1.2215 C   0  0  0  0  0  0  0  0  0  0  0  0
   -1.2208    0.3470   -1.6909 O   0  0  0  0  0  0  0  0  0  0  0  0
   -1.6696   -1.6387   -0.6206 N   0  0  0  0  0  0  0  0  0  0  0  0
   -3.0979   -1.4047   -0.4996 C   0  0  0  0  0  0  0  0  0  0  0  0
   -3.4342   -0.4007    0.6202 C   0  0  0  0  0  0  0  0  0  0  0  0
   -4.8831   -0.2351    0.8255 N   0  0  0  0  0  0  0  0  0  0  0  0
   -5.1486    0.3757    2.1479 C   0  0  0  0  0  0  0  0  0  0  0  0
   -6.5368    1.0288    2.2055 C   0  0  0  0  0  0  0  0  0  0  0  0
   -6.6666    2.1323    1.2989 O   0  0  0  0  0  0  0  0  0  0  0  0
   -5.8135    2.0194    0.1517 C   0  0  0  0  0  0  0  0  0  0  0  0
   -5.5254    0.5620   -0.2466 C   0  0  0  0  0  0  0  0  0  0  0  0
    1.1252   -2.2611   -1.6819 C   0  0  0  0  0  0  0  0  0  0  0  0
    0.3753   -3.2758   -2.3326 C   0  0  0  0  0  0  0  0  0  0  0  0
    0.9824   -4.4499   -2.7741 C   0  0  0  0  0  0  0  0  0  0  0  0
    2.3445   -4.6257   -2.5829 C   0  0  0  0  0  0  0  0  0  0  0  0
    3.0903   -3.6207   -1.9634 C   0  0  0  0  0  0  0  0  0  0  0  0
    2.5100   -2.4402   -1.5185 C   0  0  0  0  0  0  0  0  0  0  0  0
    3.3057   -1.5165   -0.9542 N   0  0  0  0  0  0  0  0  0  0  0  0
    5.1063    0.6041   -0.3523 C   0  0  0  0  0  0  0  0  0  0  0  0
    6.0394    1.5000    0.1819 C   0  0  0  0  0  0  0  0  0  0  0  0
    7.2246    4.7958    2.7920 H   0  0  0  0  0  0  0  0  0  0  0  0
    5.5774    4.9305    2.1644 H   0  0  0  0  0  0  0  0  0  0  0  0
    5.9711    3.7568    3.4807 H   0  0  0  0  0  0  0  0  0  0  0  0
    3.9883    3.1626    2.3198 H   0  0  0  0  0  0  0  0  0  0  0  0
    2.3797    1.6065    1.4079 H   0  0  0  0  0  0  0  0  0  0  0  0
    1.0164    0.8785   -0.3188 H   0  0  0  0  0  0  0  0  0  0  0  0
   -1.2663   -2.4234   -0.1229 H   0  0  0  0  0  0  0  0  0  0  0  0
   -3.4635   -1.0542   -1.4701 H   0  0  0  0  0  0  0  0  0  0  0  0
   -3.5616   -2.3753   -0.2923 H   0  0  0  0  0  0  0  0  0  0  0  0
   -2.9834   -0.7916    1.5428 H   0  0  0  0  0  0  0  0  0  0  0  0
   -2.9540    0.5679    0.4311 H   0  0  0  0  0  0  0  0  0  0  0  0
   -4.3979    1.1457    2.3709 H   0  0  0  0  0  0  0  0  0  0  0  0
   -5.0753   -0.3994    2.9187 H   0  0  0  0  0  0  0  0  0  0  0  0
   -7.3227    0.3001    1.9746 H   0  0  0  0  0  0  0  0  0  0  0  0
   -6.7327    1.4092    3.2132 H   0  0  0  0  0  0  0  0  0  0  0  0
   -4.8808    2.5550    0.3641 H   0  0  0  0  0  0  0  0  0  0  0  0
   -6.3068    2.5429   -0.6737 H   0  0  0  0  0  0  0  0  0  0  0  0
   -6.4825    0.0734   -0.4691 H   0  0  0  0  0  0  0  0  0  0  0  0
   -4.9495    0.5472   -1.1775 H   0  0  0  0  0  0  0  0  0  0  0  0
   -0.6892   -3.1496   -2.5206 H   0  0  0  0  0  0  0  0  0  0  0  0
    0.3950   -5.2170   -3.2726 H   0  0  0  0  0  0  0  0  0  0  0  0
    2.8351   -5.5340   -2.9235 H   0  0  0  0  0  0  0  0  0  0  0  0
    4.1614   -3.7597   -1.8301 H   0  0  0  0  0  0  0  0  0  0  0  0
    5.4417   -0.1117   -1.1016 H   0  0  0  0  0  0  0  0  0  0  0  0
    7.0716    1.4639   -0.1577 H   0  0  0  0  0  0  0  0  0  0  0  0
  1  2  1  0
  2  3  1  0
  3  4  2  0
  4  5  1  0
  5  6  2  0
  6  7  1  0
  7  8  2  0
  8  9  1  0
  9 10  1  0
 10 11  2  0
 10 12  1  0
 12 13  1  0
 13 14  1  0
 14 15  1  0
 15 16  1  0
 16 17  1  0
 17 18  1  0
 18 19  1  0
 19 20  1  0
  9 21  2  0
 21 22  1  0
 22 23  2  0
 23 24  1  0
 24 25  2  0
 25 26  1  0
 26 27  2  0
  6 28  1  0
 28 29  2  0
 29  3  1  0
 27  7  1  0
 20 15  1  0
 26 21  1  0
  1 30  1  0
  1 31  1  0
  1 32  1  0
  4 33  1  0
  5 34  1  0
  8 35  1  0
 12 36  1  0
 13 37  1  0
 13 38  1  0
 14 39  1  0
 14 40  1  0
 16 41  1  0
 16 42  1  0
 17 43  1  0
 17 44  1  0
 19 45  1  0
 19 46  1  0
 20 47  1  0
 20 48  1  0
 22 49  1  0
 23 50  1  0
 24 51  1  0
 25 52  1  0
 28 53  1  0
 29 54  1  0
M  END
$$$$
