
     RDKit          3D

 48 50  0  0  0  0  0  0  0  0999 V2000
    4.2703    1.1262   -2.6137 C   0  0  0  0  0  0  0  0  0  0  0  0
    4.2260    0.1250   -1.5167 C   0  0  0  0  0  0  0  0  0  0  0  0
    5.2685   -0.2019   -0.6552 C   0  0  0  0  0  0  0  0  0  0  0  0
    6.6164    0.3028   -0.5739 C   0  0  0  0  0  0  0  0  0  0  0  0
    7.1348    1.1607   -1.2750 O   0  0  0  0  0  0  0  0  0  0  0  0
    7.3289   -0.2841    0.4140 O   0  0  0  0  0  0  0  0  0  0  0  0
    4.8570   -1.1682    0.2234 O   0  0  0  0  0  0  0  0  0  0  0  0
    3.5651   -1.4644   -0.0663 C   0  0  0  0  0  0  0  0  0  0  0  0
    2.7891   -2.4087    0.6045 C   0  0  0  0  0  0  0  0  0  0  0  0
    1.4739   -2.5710    0.1586 C   0  0  0  0  0  0  0  0  0  0  0  0
    0.9864   -1.8035   -0.9054 C   0  0  0  0  0  0  0  0  0  0  0  0
   -0.6876   -2.0270   -1.4588 S   0  0  0  0  0  6  0  0  0  0  0  0
   -0.6884   -1.9131   -2.9003 O   0  0  0  0  0  0  0  0  0  0  0  0
   -1.2560   -3.1707   -0.7822 O   0  0  0  0  0  0  0  0  0  0  0  0
   -1.4259   -0.6454   -0.8762 N   0  0  0  0  0  0  0  0  0  0  0  0
   -1.7924   -0.5214    0.5422 C   0  0  0  0  0  0  0  0  0  0  0  0
   -1.3248    0.8558    1.0417 C   0  0  0  0  0  0  0  0  0  0  0  0
   -2.1245    2.0708    0.5661 C   0  0  0  0  0  0  0  0  0  0  0  0
   -3.2547    2.5121    1.5054 C   0  0  0  0  0  0  0  0  0  0  0  0
   -4.6066    1.8547    1.2369 C   0  0  0  0  0  0  0  0  0  0  0  0
   -4.9109    0.5998    2.0561 C   0  0  0  0  0  0  0  0  0  0  0  0
   -3.8555   -0.5040    2.0653 C   0  0  0  0  0  0  0  0  0  0  0  0
   -3.2861   -0.8338    0.6867 C   0  0  0  0  0  0  0  0  0  0  0  0
    1.7939   -0.8658   -1.5732 C   0  0  0  0  0  0  0  0  0  0  0  0
    3.1193   -0.6937   -1.1324 C   0  0  0  0  0  0  0  0  0  0  0  0
    3.3134    1.1898   -3.1405 H   0  0  0  0  0  0  0  0  0  0  0  0
    4.5002    2.1199   -2.2159 H   0  0  0  0  0  0  0  0  0  0  0  0
    5.0386    0.8579   -3.3460 H   0  0  0  0  0  0  0  0  0  0  0  0
    8.2056    0.1439    0.3518 H   0  0  0  0  0  0  0  0  0  0  0  0
    3.1942   -2.9872    1.4266 H   0  0  0  0  0  0  0  0  0  0  0  0
    0.8351   -3.3029    0.6505 H   0  0  0  0  0  0  0  0  0  0  0  0
   -1.8998   -0.0809   -1.5787 H   0  0  0  0  0  0  0  0  0  0  0  0
   -1.2306   -1.2627    1.1249 H   0  0  0  0  0  0  0  0  0  0  0  0
   -0.2864    0.9928    0.7071 H   0  0  0  0  0  0  0  0  0  0  0  0
   -1.2699    0.8573    2.1367 H   0  0  0  0  0  0  0  0  0  0  0  0
   -1.4159    2.9096    0.5235 H   0  0  0  0  0  0  0  0  0  0  0  0
   -2.4882    1.9395   -0.4588 H   0  0  0  0  0  0  0  0  0  0  0  0
   -3.3926    3.5891    1.3371 H   0  0  0  0  0  0  0  0  0  0  0  0
   -2.9651    2.4095    2.5574 H   0  0  0  0  0  0  0  0  0  0  0  0
   -5.3898    2.5848    1.4826 H   0  0  0  0  0  0  0  0  0  0  0  0
   -4.7293    1.6554    0.1664 H   0  0  0  0  0  0  0  0  0  0  0  0
   -5.1064    0.8924    3.0957 H   0  0  0  0  0  0  0  0  0  0  0  0
   -5.8537    0.1787    1.6833 H   0  0  0  0  0  0  0  0  0  0  0  0
   -3.0662   -0.2546    2.7816 H   0  0  0  0  0  0  0  0  0  0  0  0
   -4.3300   -1.4070    2.4718 H   0  0  0  0  0  0  0  0  0  0  0  0
   -3.4199   -1.9103    0.5122 H   0  0  0  0  0  0  0  0  0  0  0  0
   -3.8630   -0.3563   -0.1130 H   0  0  0  0  0  0  0  0  0  0  0  0
    1.4032   -0.2899   -2.4075 H   0  0  0  0  0  0  0  0  0  0  0  0
  1  2  1  0
  2  3  2  0
  3  4  1  0
  4  5  2  0
  4  6  1  0
  3  7  1  0
  7  8  1  0
  8  9  2  0
  9 10  1  0
 10 11  2  0
 11 12  1  0
 12 13  2  0
 12 14  2  0
 12 15  1  0
 15 16  1  0
 16 17  1  0
 17 18  1  0
 18 19  1  0
 19 20  1  0
 20 21  1  0
 21 22  1  0
 22 23  1  0
 11 24  1  0
 24 25  2  0
 25  2  1  0
 25  8  1  0
 23 16  1  0
  1 26  1  0
  1 27  1  0
  1 28  1  0
  6 29  1  0
  9 30  1  0
 10 31  1  0
 15 32  1  0
 16 33  1  0
 17 34  1  0
 17 35  1  0
 18 36  1  0
 18 37  1  0
 19 38  1  0
 19 39  1  0
 20 40  1  0
 20 41  1  0
 21 42  1  0
 21 43  1  0
 22 44  1  0
 22 45  1  0
 23 46  1  0
 23 47  1  0
 24 48  1  0
M  END
$$$$
