
     RDKit          3D

 37 38  0  0  0  0  0  0  0  0999 V2000
   -1.4407    1.8303   -0.6227 C   0  0  0  0  0  0  0  0  0  0  0  0
   -1.6700    1.1608    0.6168 O   0  0  0  0  0  0  0  0  0  0  0  0
   -2.0188   -0.1499    0.4147 C   0  0  0  0  0  0  0  0  0  0  0  0
   -3.2472   -0.4661   -0.1776 C   0  0  0  0  0  0  0  0  0  0  0  0
   -3.6184   -1.7966   -0.3788 C   0  0  0  0  0  0  0  0  0  0  0  0
   -4.8909   -2.1102   -0.8725 N   0  0  0  0  0  0  0  0  0  0  0  0
   -2.7955   -2.8031    0.1300 C   0  0  0  0  0  0  0  0  0  0  0  0
   -1.5776   -2.4920    0.7435 C   0  0  0  0  0  0  0  0  0  0  0  0
   -1.1701   -1.1580    0.8900 C   0  0  0  0  0  0  0  0  0  0  0  0
    0.1548   -0.8378    1.5523 C   0  0  0  0  0  0  0  0  0  0  0  0
    1.2419   -0.3734    0.5986 C   0  0  0  0  0  0  0  0  0  0  0  0
    1.6049   -1.1879   -0.4875 C   0  0  0  0  0  0  0  0  0  0  0  0
    2.6011   -0.7899   -1.3806 C   0  0  0  0  0  0  0  0  0  0  0  0
    3.2970    0.3999   -1.1803 C   0  0  0  0  0  0  0  0  0  0  0  0
    4.2170    0.8474   -2.1382 N   0  0  0  0  0  0  0  0  0  0  0  0
    2.9085    1.2377   -0.1298 C   0  0  0  0  0  0  0  0  0  0  0  0
    1.9033    0.8563    0.7710 C   0  0  0  0  0  0  0  0  0  0  0  0
    1.5152    1.6087    1.8491 O   0  0  0  0  0  0  0  0  0  0  0  0
    1.9131    2.9727    1.8710 C   0  0  0  0  0  0  0  0  0  0  0  0
   -0.8926    2.7526   -0.4078 H   0  0  0  0  0  0  0  0  0  0  0  0
   -2.3896    2.1048   -1.0946 H   0  0  0  0  0  0  0  0  0  0  0  0
   -0.8337    1.2283   -1.3086 H   0  0  0  0  0  0  0  0  0  0  0  0
   -3.9205    0.3338   -0.4691 H   0  0  0  0  0  0  0  0  0  0  0  0
   -5.2814   -1.3980   -1.4812 H   0  0  0  0  0  0  0  0  0  0  0  0
   -4.9586   -3.0408   -1.2718 H   0  0  0  0  0  0  0  0  0  0  0  0
   -3.0990   -3.8442    0.0603 H   0  0  0  0  0  0  0  0  0  0  0  0
   -0.9552   -3.3007    1.1195 H   0  0  0  0  0  0  0  0  0  0  0  0
    0.5343   -1.7256    2.0762 H   0  0  0  0  0  0  0  0  0  0  0  0
   -0.0351   -0.1080    2.3481 H   0  0  0  0  0  0  0  0  0  0  0  0
    1.0978   -2.1348   -0.6570 H   0  0  0  0  0  0  0  0  0  0  0  0
    2.8307   -1.4248   -2.2319 H   0  0  0  0  0  0  0  0  0  0  0  0
    4.6595    0.0962   -2.6588 H   0  0  0  0  0  0  0  0  0  0  0  0
    4.8929    1.5130   -1.7772 H   0  0  0  0  0  0  0  0  0  0  0  0
    3.4179    2.1887   -0.0222 H   0  0  0  0  0  0  0  0  0  0  0  0
    1.6187    3.4908    0.9521 H   0  0  0  0  0  0  0  0  0  0  0  0
    1.3969    3.4575    2.7053 H   0  0  0  0  0  0  0  0  0  0  0  0
    2.9893    3.0624    2.0497 H   0  0  0  0  0  0  0  0  0  0  0  0
  1  2  1  0
  2  3  1  0
  3  4  2  0
  4  5  1  0
  5  6  1  0
  5  7  2  0
  7  8  1  0
  8  9  2  0
  9 10  1  0
 10 11  1  0
 11 12  2  0
 12 13  1  0
 13 14  2  0
 14 15  1  0
 14 16  1  0
 16 17  2  0
 17 18  1  0
 18 19  1  0
  9  3  1  0
 17 11  1  0
  1 20  1  0
  1 21  1  0
  1 22  1  0
  4 23  1  0
  6 24  1  0
  6 25  1  0
  7 26  1  0
  8 27  1  0
 10 28  1  0
 10 29  1  0
 12 30  1  0
 13 31  1  0
 15 32  1  0
 15 33  1  0
 16 34  1  0
 19 35  1  0
 19 36  1  0
 19 37  1  0
M  END
$$$$
