
     RDKit          3D

 53 56  0  0  0  0  0  0  0  0999 V2000
    7.6341    1.2675   -1.9444 C   0  0  0  0  0  0  0  0  0  0  0  0
    6.2154    1.3189   -2.0197 O   0  0  0  0  0  0  0  0  0  0  0  0
    5.5548    1.8370   -0.9406 C   0  0  0  0  0  0  0  0  0  0  0  0
    6.1423    2.3296    0.2204 C   0  0  0  0  0  0  0  0  0  0  0  0
    5.3452    2.8326    1.2571 C   0  0  0  0  0  0  0  0  0  0  0  0
    3.9482    2.8580    1.1460 C   0  0  0  0  0  0  0  0  0  0  0  0
    3.1119    3.3102    2.1349 O   0  0  0  0  0  0  0  0  0  0  0  0
    3.6974    3.7450    3.3567 C   0  0  0  0  0  0  0  0  0  0  0  0
    3.3485    2.3814   -0.0367 C   0  0  0  0  0  0  0  0  0  0  0  0
    1.9062    2.3942   -0.2644 C   0  0  0  0  0  0  0  0  0  0  0  0
    1.0763    3.4530    0.0512 C   0  0  0  0  0  0  0  0  0  0  0  0
   -0.5314    3.0894   -0.4107 S   0  0  0  0  0  0  0  0  0  0  0  0
   -0.0096    1.5846   -1.0091 C   0  0  0  0  0  0  0  0  0  0  0  0
   -0.8530    0.6715   -1.5847 N   0  0  0  0  0  0  0  0  0  0  0  0
   -2.2141    0.7805   -1.7491 C   0  0  0  0  0  0  0  0  0  0  0  0
   -2.9415    1.7156   -1.4184 O   0  0  0  0  0  0  0  0  0  0  0  0
   -2.8307   -0.4428   -2.3861 C   0  0  0  0  0  0  0  0  0  0  0  0
   -3.3577   -1.3187   -1.3608 N   0  0  0  0  0  0  0  0  0  0  0  0
   -2.7651   -2.4965   -0.9702 C   0  0  0  0  0  0  0  0  0  0  0  0
   -1.5889   -2.8640   -1.4676 O   0  0  0  0  0  0  0  0  0  0  0  0
   -3.6064   -3.1024   -0.0616 C   0  0  0  0  0  0  0  0  0  0  0  0
   -4.7207   -2.2309    0.1287 C   0  0  0  0  0  0  0  0  0  0  0  0
   -4.5113   -1.1064   -0.6382 C   0  0  0  0  0  0  0  0  0  0  0  0
   -5.2389    0.0039   -0.7232 O   0  0  0  0  0  0  0  0  0  0  0  0
   -5.8389   -2.5233    1.0708 C   0  0  0  0  0  0  0  0  0  0  0  0
   -5.8591   -4.0083    1.4657 C   0  0  0  0  0  0  0  0  0  0  0  0
   -4.4562   -4.5254    1.8204 C   0  0  0  0  0  0  0  0  0  0  0  0
   -3.4828   -4.4164    0.6333 C   0  0  0  0  0  0  0  0  0  0  0  0
    1.2728    1.3338   -0.9007 N   0  0  0  0  0  0  0  0  0  0  0  0
    4.1636    1.8619   -1.0589 C   0  0  0  0  0  0  0  0  0  0  0  0
    7.9627    0.6264   -1.1197 H   0  0  0  0  0  0  0  0  0  0  0  0
    8.0038    0.8274   -2.8756 H   0  0  0  0  0  0  0  0  0  0  0  0
    8.0596    2.2722   -1.8590 H   0  0  0  0  0  0  0  0  0  0  0  0
    7.2197    2.3371    0.3559 H   0  0  0  0  0  0  0  0  0  0  0  0
    5.8537    3.1964    2.1441 H   0  0  0  0  0  0  0  0  0  0  0  0
    2.8843    4.0334    4.0300 H   0  0  0  0  0  0  0  0  0  0  0  0
    4.2582    2.9373    3.8398 H   0  0  0  0  0  0  0  0  0  0  0  0
    4.3269    4.6280    3.1975 H   0  0  0  0  0  0  0  0  0  0  0  0
    1.3234    4.3950    0.5184 H   0  0  0  0  0  0  0  0  0  0  0  0
   -0.3859   -0.1920   -1.8316 H   0  0  0  0  0  0  0  0  0  0  0  0
   -3.6546   -0.1409   -3.0390 H   0  0  0  0  0  0  0  0  0  0  0  0
   -2.1099   -0.9838   -3.0059 H   0  0  0  0  0  0  0  0  0  0  0  0
   -1.3434   -3.6921   -1.0157 H   0  0  0  0  0  0  0  0  0  0  0  0
   -4.6677    0.7605   -0.9696 H   0  0  0  0  0  0  0  0  0  0  0  0
   -6.8013   -2.2510    0.6225 H   0  0  0  0  0  0  0  0  0  0  0  0
   -5.7101   -1.9102    1.9711 H   0  0  0  0  0  0  0  0  0  0  0  0
   -6.5359   -4.1501    2.3159 H   0  0  0  0  0  0  0  0  0  0  0  0
   -6.2596   -4.6032    0.6344 H   0  0  0  0  0  0  0  0  0  0  0  0
   -4.0659   -3.9485    2.6699 H   0  0  0  0  0  0  0  0  0  0  0  0
   -4.5170   -5.5707    2.1441 H   0  0  0  0  0  0  0  0  0  0  0  0
   -3.7006   -5.2141   -0.0879 H   0  0  0  0  0  0  0  0  0  0  0  0
   -2.4575   -4.5682    0.9896 H   0  0  0  0  0  0  0  0  0  0  0  0
    3.7067    1.4776   -1.9693 H   0  0  0  0  0  0  0  0  0  0  0  0
  1  2  1  0
  2  3  1  0
  3  4  2  0
  4  5  1  0
  5  6  2  0
  6  7  1  0
  7  8  1  0
  6  9  1  0
  9 10  1  0
 10 11  2  0
 11 12  1  0
 12 13  1  0
 13 14  1  0
 14 15  1  0
 15 16  2  0
 15 17  1  0
 17 18  1  0
 18 19  1  0
 19 20  1  0
 19 21  2  0
 21 22  1  0
 22 23  2  0
 23 24  1  0
 22 25  1  0
 25 26  1  0
 26 27  1  0
 27 28  1  0
 13 29  2  0
  9 30  2  0
 30  3  1  0
 29 10  1  0
 23 18  1  0
 28 21  1  0
  1 31  1  0
  1 32  1  0
  1 33  1  0
  4 34  1  0
  5 35  1  0
  8 36  1  0
  8 37  1  0
  8 38  1  0
 11 39  1  0
 14 40  1  0
 17 41  1  0
 17 42  1  0
 20 43  1  0
 24 44  1  0
 25 45  1  0
 25 46  1  0
 26 47  1  0
 26 48  1  0
 27 49  1  0
 27 50  1  0
 28 51  1  0
 28 52  1  0
 30 53  1  0
M  END
$$$$
