
     RDKit          3D

 31 32  0  0  0  0  0  0  0  0999 V2000
   -6.1362    1.4472   -0.6624 N   0  0  0  0  0  0  0  0  0  0  0  0
   -4.8715    0.8417   -0.5048 N   0  0  0  0  0  0  0  0  0  0  0  0
   -4.7727   -0.4144    0.0786 C   0  0  0  0  0  0  0  0  0  0  0  0
   -5.7532   -1.0975    0.3741 O   0  0  0  0  0  0  0  0  0  0  0  0
   -3.3403   -0.8942    0.3014 C   0  0  0  0  0  0  0  0  0  0  0  0
   -2.4025    0.1493    0.0519 O   0  0  0  0  0  0  0  0  0  0  0  0
   -1.0789   -0.1605    0.1992 C   0  0  0  0  0  0  0  0  0  0  0  0
   -0.5618   -1.3967    0.5819 C   0  0  0  0  0  0  0  0  0  0  0  0
    0.8229   -1.5782    0.6924 C   0  0  0  0  0  0  0  0  0  0  0  0
    1.7173   -0.5290    0.4243 C   0  0  0  0  0  0  0  0  0  0  0  0
    3.2101   -0.7599    0.5515 C   0  0  0  0  0  0  0  0  0  0  0  0
    4.0816   -0.5595   -1.0394 S   0  0  0  0  0  0  0  0  0  0  0  0
    5.1026    0.8536   -0.5512 C   0  0  0  0  0  0  0  0  0  0  0  0
    5.4855    0.6695    0.9026 C   0  0  0  0  0  0  0  0  0  0  0  0
    3.9710    0.3043    1.8218 S   0  0  0  0  0  0  0  0  0  0  0  0
    1.1814    0.7112    0.0419 C   0  0  0  0  0  0  0  0  0  0  0  0
   -0.2005    0.8899   -0.0680 C   0  0  0  0  0  0  0  0  0  0  0  0
   -6.7466    1.0664    0.0728 H   0  0  0  0  0  0  0  0  0  0  0  0
   -6.5468    1.0752   -1.5241 H   0  0  0  0  0  0  0  0  0  0  0  0
   -4.0253    1.4109   -0.5665 H   0  0  0  0  0  0  0  0  0  0  0  0
   -3.2698   -1.2198    1.3457 H   0  0  0  0  0  0  0  0  0  0  0  0
   -3.1733   -1.7309   -0.3867 H   0  0  0  0  0  0  0  0  0  0  0  0
   -1.2012   -2.2449    0.8039 H   0  0  0  0  0  0  0  0  0  0  0  0
    1.1977   -2.5552    0.9931 H   0  0  0  0  0  0  0  0  0  0  0  0
    3.3920   -1.7925    0.8678 H   0  0  0  0  0  0  0  0  0  0  0  0
    4.5343    1.7779   -0.7020 H   0  0  0  0  0  0  0  0  0  0  0  0
    5.9921    0.9035   -1.1861 H   0  0  0  0  0  0  0  0  0  0  0  0
    5.9522    1.5750    1.3016 H   0  0  0  0  0  0  0  0  0  0  0  0
    6.1942   -0.1560    1.0311 H   0  0  0  0  0  0  0  0  0  0  0  0
    1.8361    1.5527   -0.1743 H   0  0  0  0  0  0  0  0  0  0  0  0
   -0.5903    1.8605   -0.3650 H   0  0  0  0  0  0  0  0  0  0  0  0
  1  2  1  0
  2  3  1  0
  3  4  2  0
  3  5  1  0
  5  6  1  0
  6  7  1  0
  7  8  2  0
  8  9  1  0
  9 10  2  0
 10 11  1  0
 11 12  1  0
 12 13  1  0
 13 14  1  0
 14 15  1  0
 10 16  1  0
 16 17  2  0
 17  7  1  0
 15 11  1  0
  1 18  1  0
  1 19  1  0
  2 20  1  0
  5 21  1  0
  5 22  1  0
  8 23  1  0
  9 24  1  0
 11 25  1  0
 13 26  1  0
 13 27  1  0
 14 28  1  0
 14 29  1  0
 16 30  1  0
 17 31  1  0
M  END
$$$$
