
     RDKit          3D

 40 42  0  0  0  0  0  0  0  0999 V2000
   -4.3952   -2.0571   -0.8045 C   0  0  0  0  0  0  0  0  0  0  0  0
   -3.7188   -1.4180    0.2704 O   0  0  0  0  0  0  0  0  0  0  0  0
   -3.7289   -0.0466    0.2922 C   0  0  0  0  0  0  0  0  0  0  0  0
   -4.5256    0.7547   -0.5320 C   0  0  0  0  0  0  0  0  0  0  0  0
   -4.4680    2.1482   -0.4341 C   0  0  0  0  0  0  0  0  0  0  0  0
   -3.6182    2.7529    0.4883 C   0  0  0  0  0  0  0  0  0  0  0  0
   -2.8228    1.9654    1.3187 C   0  0  0  0  0  0  0  0  0  0  0  0
   -2.8742    0.5673    1.2287 C   0  0  0  0  0  0  0  0  0  0  0  0
   -1.9995   -0.2185    2.1089 C   0  0  0  0  0  0  0  0  0  0  0  0
   -0.7926   -0.6980    1.7764 C   0  0  0  0  0  0  0  0  0  0  0  0
   -0.1667   -0.4967    0.4517 C   0  0  0  0  0  0  0  0  0  0  0  0
    1.0279   -0.9350    0.2107 N   0  0  0  0  0  0  0  0  0  0  0  0
    1.4945   -0.7104   -1.0539 N   0  0  0  0  0  0  0  0  0  0  0  0
    2.8116   -0.4582   -1.3257 C   0  0  0  0  0  0  0  0  0  0  0  0
    3.7536   -0.0706   -0.2715 C   0  0  0  0  0  0  0  0  0  0  0  0
    4.8722   -0.8936   -0.0793 C   0  0  0  0  0  0  0  0  0  0  0  0
    5.8018   -0.5846    0.9148 C   0  0  0  0  0  0  0  0  0  0  0  0
    5.6170    0.5494    1.7043 C   0  0  0  0  0  0  0  0  0  0  0  0
    6.7637    0.9296    2.9293 Cl  0  0  0  0  0  0  0  0  0  0  0  0
    4.5188    1.3852    1.5032 C   0  0  0  0  0  0  0  0  0  0  0  0
    3.5854    1.0803    0.5079 C   0  0  0  0  0  0  0  0  0  0  0  0
    2.2959    2.2027    0.2532 Cl  0  0  0  0  0  0  0  0  0  0  0  0
    3.1528   -0.6239   -2.5755 N   0  0  0  0  0  0  0  0  0  0  0  0
    1.9924   -1.0216   -3.1870 N   0  0  0  0  0  0  0  0  0  0  0  0
    0.9672   -1.1748   -2.2491 C   0  0  0  0  0  0  0  0  0  0  0  0
   -0.5026   -1.8477   -2.6267 S   0  0  0  0  0  0  0  0  0  0  0  0
   -4.1902   -3.1299   -0.7374 H   0  0  0  0  0  0  0  0  0  0  0  0
   -4.0266   -1.7075   -1.7744 H   0  0  0  0  0  0  0  0  0  0  0  0
   -5.4780   -1.9194   -0.7203 H   0  0  0  0  0  0  0  0  0  0  0  0
   -5.2066    0.3258   -1.2595 H   0  0  0  0  0  0  0  0  0  0  0  0
   -5.0905    2.7619   -1.0808 H   0  0  0  0  0  0  0  0  0  0  0  0
   -3.5744    3.8366    0.5606 H   0  0  0  0  0  0  0  0  0  0  0  0
   -2.1594    2.4473    2.0335 H   0  0  0  0  0  0  0  0  0  0  0  0
   -2.4049   -0.4166    3.0977 H   0  0  0  0  0  0  0  0  0  0  0  0
   -0.2140   -1.2767    2.4883 H   0  0  0  0  0  0  0  0  0  0  0  0
   -0.7502    0.0705   -0.2932 H   0  0  0  0  0  0  0  0  0  0  0  0
    5.0152   -1.7782   -0.6971 H   0  0  0  0  0  0  0  0  0  0  0  0
    6.6643   -1.2290    1.0666 H   0  0  0  0  0  0  0  0  0  0  0  0
    4.3971    2.2771    2.1126 H   0  0  0  0  0  0  0  0  0  0  0  0
    1.9767   -1.3419   -4.1478 H   0  0  0  0  0  0  0  0  0  0  0  0
  1  2  1  0
  2  3  1  0
  3  4  2  0
  4  5  1  0
  5  6  2  0
  6  7  1  0
  7  8  2  0
  8  9  1  0
  9 10  2  3
 10 11  1  0
 11 12  2  3
 12 13  1  0
 13 14  1  0
 14 15  1  0
 15 16  2  0
 16 17  1  0
 17 18  2  0
 18 19  1  0
 18 20  1  0
 20 21  2  0
 21 22  1  0
 14 23  2  0
 23 24  1  0
 24 25  1  0
 25 26  2  0
  8  3  1  0
 25 13  1  0
 21 15  1  0
  1 27  1  0
  1 28  1  0
  1 29  1  0
  4 30  1  0
  5 31  1  0
  6 32  1  0
  7 33  1  0
  9 34  1  0
 10 35  1  0
 11 36  1  0
 16 37  1  0
 17 38  1  0
 20 39  1  0
 24 40  1  0
M  END
$$$$
