
     RDKit          3D

 57 60  0  0  0  0  0  0  0  0999 V2000
   -2.1443    4.8278   -2.1416 C   0  0  0  0  0  0  0  0  0  0  0  0
   -1.8801    4.9667   -0.6384 C   0  0  0  0  0  0  0  0  0  0  0  0
   -0.4384    4.5551   -0.2708 C   0  0  0  0  0  0  0  0  0  0  0  0
   -0.1537    3.0592   -0.4843 C   0  0  0  0  0  0  0  0  0  0  0  0
   -1.2851    2.1949   -0.0081 C   0  0  0  0  0  0  0  0  0  0  0  0
   -2.5333    2.7207    0.2741 C   0  0  0  0  0  0  0  0  0  0  0  0
   -3.6476    1.5346    0.7638 S   0  0  0  0  0  0  0  0  0  0  0  0
   -2.4943    0.2932    0.5792 C   0  0  0  0  0  0  0  0  0  0  0  0
   -2.8301   -0.9810    0.8284 N   0  0  0  0  0  0  0  0  0  0  0  0
   -1.8282   -1.8475    0.6340 C   0  0  0  0  0  0  0  0  0  0  0  0
   -2.1320   -3.3270    0.8760 C   0  0  0  0  0  0  0  0  0  0  0  0
   -0.8635   -4.1992    0.7783 C   0  0  0  0  0  0  0  0  0  0  0  0
   -2.7319   -3.5089    2.2827 C   0  0  0  0  0  0  0  0  0  0  0  0
   -3.1399   -3.8093   -0.1816 C   0  0  0  0  0  0  0  0  0  0  0  0
   -0.5877   -1.5181    0.2231 N   0  0  0  0  0  0  0  0  0  0  0  0
   -0.2679   -0.2238   -0.0144 C   0  0  0  0  0  0  0  0  0  0  0  0
    1.0445    0.0964   -0.4232 N   0  0  0  0  0  0  0  0  0  0  0  0
    1.4485   -0.7311   -1.5897 C   0  0  0  0  0  0  0  0  0  0  0  0
    2.4637   -1.8293   -1.2322 C   0  0  0  0  0  0  0  0  0  0  0  0
    3.6523   -1.2789   -0.5654 N   0  0  0  0  0  0  0  0  0  0  0  0
    4.8903   -1.8789   -0.7801 C   0  0  0  0  0  0  0  0  0  0  0  0
    4.9903   -2.9023   -1.4586 O   0  0  0  0  0  0  0  0  0  0  0  0
    6.0918   -1.2236   -0.1100 C   0  0  0  0  0  0  0  0  0  0  0  0
    7.5992   -1.6047   -0.9677 Cl  0  0  0  0  0  0  0  0  0  0  0  0
    3.4147   -0.1315    0.3212 C   0  0  0  0  0  0  0  0  0  0  0  0
    1.9417   -0.0130    0.7512 C   0  0  0  0  0  0  0  0  0  0  0  0
   -1.2583    0.7607    0.1642 C   0  0  0  0  0  0  0  0  0  0  0  0
   -2.9084    4.1698    0.1948 C   0  0  0  0  0  0  0  0  0  0  0  0
   -3.1388    5.2135   -2.3917 H   0  0  0  0  0  0  0  0  0  0  0  0
   -1.4112    5.4037   -2.7164 H   0  0  0  0  0  0  0  0  0  0  0  0
   -2.0973    3.7878   -2.4789 H   0  0  0  0  0  0  0  0  0  0  0  0
   -2.0025    6.0293   -0.3918 H   0  0  0  0  0  0  0  0  0  0  0  0
   -0.2711    4.7975    0.7876 H   0  0  0  0  0  0  0  0  0  0  0  0
    0.2858    5.1481   -0.8421 H   0  0  0  0  0  0  0  0  0  0  0  0
    0.7714    2.8045    0.0437 H   0  0  0  0  0  0  0  0  0  0  0  0
    0.0140    2.8647   -1.5505 H   0  0  0  0  0  0  0  0  0  0  0  0
   -0.4103   -4.1418   -0.2188 H   0  0  0  0  0  0  0  0  0  0  0  0
   -1.0930   -5.2536    0.9724 H   0  0  0  0  0  0  0  0  0  0  0  0
   -0.1056   -3.8867    1.5068 H   0  0  0  0  0  0  0  0  0  0  0  0
   -3.6763   -2.9640    2.3968 H   0  0  0  0  0  0  0  0  0  0  0  0
   -2.9387   -4.5651    2.4906 H   0  0  0  0  0  0  0  0  0  0  0  0
   -2.0461   -3.1433    3.0561 H   0  0  0  0  0  0  0  0  0  0  0  0
   -4.0830   -3.2532   -0.1260 H   0  0  0  0  0  0  0  0  0  0  0  0
   -3.3757   -4.8713   -0.0471 H   0  0  0  0  0  0  0  0  0  0  0  0
   -2.7433   -3.6808   -1.1959 H   0  0  0  0  0  0  0  0  0  0  0  0
    1.9206   -0.0471   -2.3065 H   0  0  0  0  0  0  0  0  0  0  0  0
    0.5886   -1.1675   -2.1147 H   0  0  0  0  0  0  0  0  0  0  0  0
    2.0203   -2.5573   -0.5439 H   0  0  0  0  0  0  0  0  0  0  0  0
    2.7550   -2.3677   -2.1400 H   0  0  0  0  0  0  0  0  0  0  0  0
    6.0005   -0.1360   -0.1147 H   0  0  0  0  0  0  0  0  0  0  0  0
    6.1750   -1.5886    0.9169 H   0  0  0  0  0  0  0  0  0  0  0  0
    3.7193    0.7655   -0.2309 H   0  0  0  0  0  0  0  0  0  0  0  0
    4.0516   -0.2188    1.2073 H   0  0  0  0  0  0  0  0  0  0  0  0
    1.8225    0.8768    1.3810 H   0  0  0  0  0  0  0  0  0  0  0  0
    1.6969   -0.8891    1.3682 H   0  0  0  0  0  0  0  0  0  0  0  0
   -3.9154    4.2960   -0.2209 H   0  0  0  0  0  0  0  0  0  0  0  0
   -2.9255    4.5736    1.2158 H   0  0  0  0  0  0  0  0  0  0  0  0
  1  2  1  0
  2  3  1  0
  3  4  1  0
  4  5  1  0
  5  6  2  0
  6  7  1  0
  7  8  1  0
  8  9  2  0
  9 10  1  0
 10 11  1  0
 11 12  1  0
 11 13  1  0
 11 14  1  0
 10 15  2  0
 15 16  1  0
 16 17  1  0
 17 18  1  0
 18 19  1  0
 19 20  1  0
 20 21  1  0
 21 22  2  0
 21 23  1  0
 23 24  1  0
 20 25  1  0
 25 26  1  0
 16 27  2  0
  6 28  1  0
 28  2  1  0
 27  5  1  0
 27  8  1  0
 26 17  1  0
  1 29  1  0
  1 30  1  0
  1 31  1  0
  2 32  1  0
  3 33  1  0
  3 34  1  0
  4 35  1  0
  4 36  1  0
 12 37  1  0
 12 38  1  0
 12 39  1  0
 13 40  1  0
 13 41  1  0
 13 42  1  0
 14 43  1  0
 14 44  1  0
 14 45  1  0
 18 46  1  0
 18 47  1  0
 19 48  1  0
 19 49  1  0
 23 50  1  0
 23 51  1  0
 25 52  1  0
 25 53  1  0
 26 54  1  0
 26 55  1  0
 28 56  1  0
 28 57  1  0
M  END
$$$$
