
     RDKit          3D

 61 66  0  0  0  0  0  0  0  0999 V2000
   -2.2665   -0.8677   -2.1243 O   0  0  0  0  0  0  0  0  0  0  0  0
   -2.7314   -0.6393   -1.0014 C   0  0  0  0  0  0  0  0  0  0  0  0
   -1.8550   -0.9199    0.2043 C   0  0  0  0  0  0  0  0  0  0  0  0
   -0.6123   -0.1904    0.1137 N   0  0  0  0  0  0  0  0  0  0  0  0
   -0.5785    1.1529    0.1537 N   0  0  0  0  0  0  0  0  0  0  0  0
    0.7097    1.4562    0.2049 N   0  0  0  0  0  0  0  0  0  0  0  0
    1.4021    0.2661    0.2414 C   0  0  0  0  0  0  0  0  0  0  0  0
    2.8553    0.1973    0.3067 C   0  0  0  0  0  0  0  0  0  0  0  0
    3.6241    1.3618    0.3642 C   0  0  0  0  0  0  0  0  0  0  0  0
    5.0247    1.2928    0.4246 C   0  0  0  0  0  0  0  0  0  0  0  0
    5.7133    0.0700    0.4263 C   0  0  0  0  0  0  0  0  0  0  0  0
    7.0931    0.0077    0.4821 N   0  0  0  0  0  0  0  0  0  0  0  0
    7.9122    1.1375    0.9483 C   0  0  0  0  0  0  0  0  0  0  0  0
    9.2479    0.6227    1.5122 C   0  0  0  0  0  0  0  0  0  0  0  0
   10.0345   -0.1231    0.5719 O   0  0  0  0  0  0  0  0  0  0  0  0
    9.2461   -0.7842   -0.4275 C   0  0  0  0  0  0  0  0  0  0  0  0
    7.8392   -1.1853    0.0485 C   0  0  0  0  0  0  0  0  0  0  0  0
    4.9214   -1.0870    0.3688 C   0  0  0  0  0  0  0  0  0  0  0  0
    3.5205   -1.0309    0.3108 C   0  0  0  0  0  0  0  0  0  0  0  0
    0.5838   -0.8021    0.2306 N   0  0  0  0  0  0  0  0  0  0  0  0
   -4.0746   -0.2810   -0.7633 N   0  0  0  0  0  0  0  0  0  0  0  0
   -4.5080    0.2293    0.4934 C   0  0  0  0  0  0  0  0  0  0  0  0
   -3.9096    1.3782    1.0306 C   0  0  0  0  0  0  0  0  0  0  0  0
   -4.2910    1.8506    2.2866 C   0  0  0  0  0  0  0  0  0  0  0  0
   -5.2766    1.1841    3.0104 C   0  0  0  0  0  0  0  0  0  0  0  0
   -5.8916    0.0526    2.4745 C   0  0  0  0  0  0  0  0  0  0  0  0
   -5.5137   -0.4272    1.2129 C   0  0  0  0  0  0  0  0  0  0  0  0
   -6.1983   -1.6112    0.5975 C   0  0  0  0  0  0  0  0  0  0  0  0
   -7.0689   -1.1416   -0.5601 C   0  0  0  0  0  0  0  0  0  0  0  0
   -6.3920   -0.4650   -1.7380 C   0  0  0  0  0  0  0  0  0  0  0  0
   -7.2474   -0.2152   -2.8382 C   0  0  0  0  0  0  0  0  0  0  0  0
   -6.7757    0.3422   -4.0225 C   0  0  0  0  0  0  0  0  0  0  0  0
   -5.4349    0.6665   -4.1330 C   0  0  0  0  0  0  0  0  0  0  0  0
   -4.5751    0.4402   -3.0557 C   0  0  0  0  0  0  0  0  0  0  0  0
   -5.0230   -0.1194   -1.8399 C   0  0  0  0  0  0  0  0  0  0  0  0
   -1.6239   -1.9916    0.1978 H   0  0  0  0  0  0  0  0  0  0  0  0
   -2.2950   -0.6987    1.1758 H   0  0  0  0  0  0  0  0  0  0  0  0
    3.1482    2.3405    0.3572 H   0  0  0  0  0  0  0  0  0  0  0  0
    5.5691    2.2330    0.4440 H   0  0  0  0  0  0  0  0  0  0  0  0
    7.4041    1.6944    1.7442 H   0  0  0  0  0  0  0  0  0  0  0  0
    8.0985    1.8139    0.1061 H   0  0  0  0  0  0  0  0  0  0  0  0
    9.8586    1.4625    1.8585 H   0  0  0  0  0  0  0  0  0  0  0  0
    9.0674   -0.0262    2.3773 H   0  0  0  0  0  0  0  0  0  0  0  0
    9.8010   -1.6710   -0.7497 H   0  0  0  0  0  0  0  0  0  0  0  0
    9.1766   -0.1118   -1.2907 H   0  0  0  0  0  0  0  0  0  0  0  0
    7.9155   -1.8818    0.8917 H   0  0  0  0  0  0  0  0  0  0  0  0
    7.3348   -1.6902   -0.7836 H   0  0  0  0  0  0  0  0  0  0  0  0
    5.3794   -2.0720    0.3911 H   0  0  0  0  0  0  0  0  0  0  0  0
    2.9585   -1.9621    0.2705 H   0  0  0  0  0  0  0  0  0  0  0  0
   -3.1593    1.9304    0.4688 H   0  0  0  0  0  0  0  0  0  0  0  0
   -3.8233    2.7435    2.6951 H   0  0  0  0  0  0  0  0  0  0  0  0
   -5.5776    1.5553    3.9875 H   0  0  0  0  0  0  0  0  0  0  0  0
   -6.6752   -0.4443    3.0428 H   0  0  0  0  0  0  0  0  0  0  0  0
   -6.8249   -2.1174    1.3419 H   0  0  0  0  0  0  0  0  0  0  0  0
   -5.4575   -2.3507    0.2695 H   0  0  0  0  0  0  0  0  0  0  0  0
   -7.8329   -0.4512   -0.1759 H   0  0  0  0  0  0  0  0  0  0  0  0
   -7.5993   -2.0246   -0.9415 H   0  0  0  0  0  0  0  0  0  0  0  0
   -8.3034   -0.4732   -2.7731 H   0  0  0  0  0  0  0  0  0  0  0  0
   -7.4529    0.5179   -4.8538 H   0  0  0  0  0  0  0  0  0  0  0  0
   -5.0497    1.1049   -5.0496 H   0  0  0  0  0  0  0  0  0  0  0  0
   -3.5403    0.7523   -3.1799 H   0  0  0  0  0  0  0  0  0  0  0  0
  1  2  2  0
  2  3  1  0
  3  4  1  0
  4  5  1  0
  5  6  2  0
  6  7  1  0
  7  8  1  0
  8  9  2  0
  9 10  1  0
 10 11  2  0
 11 12  1  0
 12 13  1  0
 13 14  1  0
 14 15  1  0
 15 16  1  0
 16 17  1  0
 11 18  1  0
 18 19  2  0
  7 20  2  0
  2 21  1  0
 21 22  1  0
 22 23  2  0
 23 24  1  0
 24 25  2  0
 25 26  1  0
 26 27  2  0
 27 28  1  0
 28 29  1  0
 29 30  1  0
 30 31  2  0
 31 32  1  0
 32 33  2  0
 33 34  1  0
 34 35  2  0
 20  4  1  0
 35 21  1  0
 19  8  1  0
 27 22  1  0
 35 30  1  0
 17 12  1  0
  3 36  1  0
  3 37  1  0
  9 38  1  0
 10 39  1  0
 13 40  1  0
 13 41  1  0
 14 42  1  0
 14 43  1  0
 16 44  1  0
 16 45  1  0
 17 46  1  0
 17 47  1  0
 18 48  1  0
 19 49  1  0
 23 50  1  0
 24 51  1  0
 25 52  1  0
 26 53  1  0
 28 54  1  0
 28 55  1  0
 29 56  1  0
 29 57  1  0
 31 58  1  0
 32 59  1  0
 33 60  1  0
 34 61  1  0
M  END
$$$$
