
     RDKit          3D

 40 41  0  0  0  0  0  0  0  0999 V2000
    2.3758    2.8119    1.7315 O   0  0  0  0  0  0  0  0  0  0  0  0
    1.4562    3.3533    1.1441 C   0  0  0  0  0  0  0  0  0  0  0  0
    1.5912    4.6111    0.6782 O   0  0  0  0  0  0  0  0  0  0  0  0
    0.0932    2.7919    0.8542 C   0  0  0  0  0  0  0  0  0  0  0  0
   -0.0269    1.2910    1.1382 C   0  0  0  0  0  0  0  0  0  0  0  0
    0.0116    1.0428    2.6072 N   0  0  0  0  0  0  0  0  0  0  0  0
   -0.4757   -0.2952    2.9727 C   0  0  0  0  0  0  0  0  0  0  0  0
   -1.9459   -0.4288    2.7851 C   0  0  0  0  0  0  0  0  0  0  0  0
   -3.0374    0.0965    3.4463 C   0  0  0  0  0  0  0  0  0  0  0  0
   -4.1844   -0.4015    2.7837 C   0  0  0  0  0  0  0  0  0  0  0  0
   -3.7213   -1.1959    1.7614 C   0  0  0  0  0  0  0  0  0  0  0  0
   -2.3636   -1.2169    1.7510 O   0  0  0  0  0  0  0  0  0  0  0  0
    1.0564    0.4915    0.3899 C   0  0  0  0  0  0  0  0  0  0  0  0
    1.8811   -0.2461    0.9134 O   0  0  0  0  0  0  0  0  0  0  0  0
    0.9372    0.6929   -0.9543 O   0  0  0  0  0  0  0  0  0  0  0  0
    1.8769   -0.0193   -1.7741 C   0  0  0  0  0  0  0  0  0  0  0  0
    1.5006   -1.4961   -1.9557 C   0  0  0  0  0  0  0  0  0  0  0  0
    0.1013   -1.7056   -2.5246 C   0  0  0  0  0  0  0  0  0  0  0  0
    0.3580   -1.8227   -4.0063 C   0  0  0  0  0  0  0  0  0  0  0  0
    1.6817   -2.5512   -4.0339 C   0  0  0  0  0  0  0  0  0  0  0  0
    2.4197   -2.0938   -2.8933 O   0  0  0  0  0  0  0  0  0  0  0  0
    2.4996    4.8687    0.9427 H   0  0  0  0  0  0  0  0  0  0  0  0
   -0.6424    3.3498    1.4453 H   0  0  0  0  0  0  0  0  0  0  0  0
   -0.1197    2.9746   -0.2062 H   0  0  0  0  0  0  0  0  0  0  0  0
   -0.9968    0.9648    0.7447 H   0  0  0  0  0  0  0  0  0  0  0  0
    0.9980    1.0955    2.8888 H   0  0  0  0  0  0  0  0  0  0  0  0
   -0.2568   -0.4509    4.0359 H   0  0  0  0  0  0  0  0  0  0  0  0
    0.0559   -1.0870    2.4353 H   0  0  0  0  0  0  0  0  0  0  0  0
   -2.9991    0.7615    4.2981 H   0  0  0  0  0  0  0  0  0  0  0  0
   -5.2204   -0.2052    3.0205 H   0  0  0  0  0  0  0  0  0  0  0  0
   -4.2032   -1.7845    0.9935 H   0  0  0  0  0  0  0  0  0  0  0  0
    1.9000    0.4848   -2.7474 H   0  0  0  0  0  0  0  0  0  0  0  0
    2.8942    0.0794   -1.3738 H   0  0  0  0  0  0  0  0  0  0  0  0
    1.5909   -2.0212   -0.9990 H   0  0  0  0  0  0  0  0  0  0  0  0
   -0.3026   -2.6561   -2.1536 H   0  0  0  0  0  0  0  0  0  0  0  0
   -0.6153   -0.9207   -2.2686 H   0  0  0  0  0  0  0  0  0  0  0  0
   -0.4312   -2.3508   -4.5474 H   0  0  0  0  0  0  0  0  0  0  0  0
    0.4679   -0.8241   -4.4449 H   0  0  0  0  0  0  0  0  0  0  0  0
    2.2524   -2.3556   -4.9458 H   0  0  0  0  0  0  0  0  0  0  0  0
    1.5427   -3.6330   -3.9326 H   0  0  0  0  0  0  0  0  0  0  0  0
  1  2  2  0
  2  3  1  0
  2  4  1  0
  4  5  1  0
  5  6  1  0
  6  7  1  0
  7  8  1  0
  8  9  2  0
  9 10  1  0
 10 11  2  0
 11 12  1  0
  5 13  1  0
 13 14  2  0
 13 15  1  0
 15 16  1  0
 16 17  1  0
 17 18  1  0
 18 19  1  0
 19 20  1  0
 20 21  1  0
 12  8  1  0
 21 17  1  0
  3 22  1  0
  4 23  1  0
  4 24  1  0
  5 25  1  0
  6 26  1  0
  7 27  1  0
  7 28  1  0
  9 29  1  0
 10 30  1  0
 11 31  1  0
 16 32  1  0
 16 33  1  0
 17 34  1  0
 18 35  1  0
 18 36  1  0
 19 37  1  0
 19 38  1  0
 20 39  1  0
 20 40  1  0
M  END
$$$$
