
     RDKit          3D

 77 83  0  0  0  0  0  0  0  0999 V2000
   -5.0538   -2.7892   -2.4679 C   0  0  0  0  0  0  0  0  0  0  0  0
   -5.3621   -2.7756   -0.9640 C   0  0  0  0  0  0  0  0  0  0  0  0
   -5.3305   -4.2243   -0.4488 C   0  0  0  0  0  0  0  0  0  0  0  0
   -6.7415   -2.1779   -0.6648 C   0  0  0  0  0  0  0  0  0  0  0  0
   -4.3215   -2.0970   -0.2143 O   0  0  0  0  0  0  0  0  0  0  0  0
   -4.0369   -0.7874   -0.4396 C   0  0  0  0  0  0  0  0  0  0  0  0
   -4.6391   -0.0781   -1.2342 O   0  0  0  0  0  0  0  0  0  0  0  0
   -2.9752   -0.3445    0.3200 N   0  0  0  0  0  0  0  0  0  0  0  0
   -2.2496   -1.1731    1.2972 C   0  0  0  0  0  0  0  0  0  0  0  0
   -0.7154   -1.1763    1.0504 C   0  0  0  0  0  0  0  0  0  0  0  0
   -0.2725    0.0593    0.4364 N   0  0  0  0  0  0  0  0  0  0  0  0
   -1.1017    1.2509    0.7438 C   0  0  2  0  0  0  0  0  0  0  0  0
   -2.4869    1.0363    0.1219 C   0  0  0  0  0  0  0  0  0  0  0  0
   -0.2495    2.3155    0.1766 C   0  0  0  0  0  0  0  0  0  0  0  0
    1.0547    1.8483   -0.0453 C   0  0  0  0  0  0  0  0  0  0  0  0
    1.8075    2.8790   -0.5431 C   0  0  0  0  0  0  0  0  0  0  0  0
    3.0681    2.8444   -0.9729 O   0  0  0  0  0  0  0  0  0  0  0  0
    0.9686    4.0109   -0.6043 N   0  0  0  0  0  0  0  0  0  0  0  0
    1.3505    5.3091   -1.0563 C   0  0  0  0  0  0  0  0  0  0  0  0
    2.6240    5.8125   -0.7530 C   0  0  0  0  0  0  0  0  0  0  0  0
    2.9983    7.0808   -1.2015 C   0  0  0  0  0  0  0  0  0  0  0  0
    2.1077    7.8486   -1.9515 C   0  0  0  0  0  0  0  0  0  0  0  0
    0.8392    7.3516   -2.2539 C   0  0  0  0  0  0  0  0  0  0  0  0
    0.4571    6.0841   -1.8089 C   0  0  0  0  0  0  0  0  0  0  0  0
   -0.3080    3.6441   -0.1345 C   0  0  0  0  0  0  0  0  0  0  0  0
   -1.3302    4.4793    0.0389 O   0  0  0  0  0  0  0  0  0  0  0  0
    1.1538    0.4078    0.2993 C   0  0  1  0  0  0  0  0  0  0  0  0
    2.0074    0.1328    1.5584 C   0  0  0  0  0  0  0  0  0  0  0  0
    1.7934    0.5202    2.7013 O   0  0  0  0  0  0  0  0  0  0  0  0
    3.0712   -0.6898    1.1425 N   0  0  0  0  0  0  0  0  0  0  0  0
    4.0372   -1.2550    2.0535 C   0  0  0  0  0  0  0  0  0  0  0  0
    3.6001   -2.6009    2.5894 C   0  0  0  0  0  0  0  0  0  0  0  0
    2.6300   -2.6798    3.6014 C   0  0  0  0  0  0  0  0  0  0  0  0
    2.2001   -3.9186    4.0794 C   0  0  0  0  0  0  0  0  0  0  0  0
    2.7326   -5.0935    3.5530 C   0  0  0  0  0  0  0  0  0  0  0  0
    3.6970   -5.0304    2.5495 C   0  0  0  0  0  0  0  0  0  0  0  0
    4.1300   -3.7914    2.0713 C   0  0  0  0  0  0  0  0  0  0  0  0
    2.9920   -0.9651   -0.2345 C   0  0  0  0  0  0  0  0  0  0  0  0
    3.8328   -1.7383   -1.0155 C   0  0  0  0  0  0  0  0  0  0  0  0
    3.5237   -1.8875   -2.3723 C   0  0  0  0  0  0  0  0  0  0  0  0
    2.3917   -1.2659   -2.9245 C   0  0  0  0  0  0  0  0  0  0  0  0
    1.5526   -0.4839   -2.1292 C   0  0  0  0  0  0  0  0  0  0  0  0
    1.8714   -0.3330   -0.7854 C   0  0  0  0  0  0  0  0  0  0  0  0
   -5.7393   -3.4523   -3.0099 H   0  0  0  0  0  0  0  0  0  0  0  0
   -5.1399   -1.7909   -2.9121 H   0  0  0  0  0  0  0  0  0  0  0  0
   -4.0254   -3.1295   -2.6522 H   0  0  0  0  0  0  0  0  0  0  0  0
   -5.4949   -4.2554    0.6347 H   0  0  0  0  0  0  0  0  0  0  0  0
   -6.0902   -4.8461   -0.9341 H   0  0  0  0  0  0  0  0  0  0  0  0
   -4.3493   -4.6808   -0.6249 H   0  0  0  0  0  0  0  0  0  0  0  0
   -6.8476   -1.1672   -1.0734 H   0  0  0  0  0  0  0  0  0  0  0  0
   -7.5423   -2.7896   -1.0940 H   0  0  0  0  0  0  0  0  0  0  0  0
   -6.9055   -2.0975    0.4158 H   0  0  0  0  0  0  0  0  0  0  0  0
   -2.6221   -2.2008    1.3269 H   0  0  0  0  0  0  0  0  0  0  0  0
   -2.4572   -0.7281    2.2778 H   0  0  0  0  0  0  0  0  0  0  0  0
   -0.4758   -2.0066    0.3758 H   0  0  0  0  0  0  0  0  0  0  0  0
   -0.2143   -1.3727    2.0046 H   0  0  0  0  0  0  0  0  0  0  0  0
   -1.1789    1.3837    1.8310 H   0  0  0  0  0  0  0  0  0  0  0  0
   -3.2183    1.7168    0.5734 H   0  0  0  0  0  0  0  0  0  0  0  0
   -2.4758    1.2448   -0.9564 H   0  0  0  0  0  0  0  0  0  0  0  0
    3.1854    3.5346   -1.6528 H   0  0  0  0  0  0  0  0  0  0  0  0
    3.3232    5.2544   -0.1307 H   0  0  0  0  0  0  0  0  0  0  0  0
    3.9829    7.4744   -0.9560 H   0  0  0  0  0  0  0  0  0  0  0  0
    2.4019    8.8359   -2.3010 H   0  0  0  0  0  0  0  0  0  0  0  0
    0.1517    7.9484   -2.8488 H   0  0  0  0  0  0  0  0  0  0  0  0
   -0.5197    5.7024   -2.1019 H   0  0  0  0  0  0  0  0  0  0  0  0
   -0.9897    5.3878    0.1058 H   0  0  0  0  0  0  0  0  0  0  0  0
    4.1701   -0.5683    2.8987 H   0  0  0  0  0  0  0  0  0  0  0  0
    5.0151   -1.3222    1.5610 H   0  0  0  0  0  0  0  0  0  0  0  0
    2.1991   -1.7713    4.0208 H   0  0  0  0  0  0  0  0  0  0  0  0
    1.4464   -3.9655    4.8610 H   0  0  0  0  0  0  0  0  0  0  0  0
    2.3940   -6.0572    3.9207 H   0  0  0  0  0  0  0  0  0  0  0  0
    4.1090   -5.9467    2.1347 H   0  0  0  0  0  0  0  0  0  0  0  0
    4.8811   -3.7660    1.2862 H   0  0  0  0  0  0  0  0  0  0  0  0
    4.7108   -2.2235   -0.6095 H   0  0  0  0  0  0  0  0  0  0  0  0
    4.1644   -2.4949   -3.0085 H   0  0  0  0  0  0  0  0  0  0  0  0
    2.1635   -1.3993   -3.9798 H   0  0  0  0  0  0  0  0  0  0  0  0
    0.6692   -0.0098   -2.5466 H   0  0  0  0  0  0  0  0  0  0  0  0
  1  2  1  0
  2  3  1  0
  2  4  1  0
  2  5  1  0
  5  6  1  0
  6  7  2  0
  6  8  1  0
  8  9  1  0
  9 10  1  0
 10 11  1  0
 11 12  1  0
 12 13  1  0
 12 14  1  0
 14 15  1  0
 15 16  2  0
 16 17  1  0
 16 18  1  0
 18 19  1  0
 19 20  2  0
 20 21  1  0
 21 22  2  0
 22 23  1  0
 23 24  2  0
 18 25  1  0
 25 26  1  0
 15 27  1  0
 27 28  1  0
 28 29  2  0
 28 30  1  0
 30 31  1  0
 31 32  1  0
 32 33  2  0
 33 34  1  0
 34 35  2  0
 35 36  1  0
 36 37  2  0
 30 38  1  0
 38 39  2  0
 39 40  1  0
 40 41  2  0
 41 42  1  0
 42 43  2  0
 13  8  1  0
 25 14  2  0
 43 27  1  0
 27 11  1  1
 37 32  1  0
 43 38  1  0
 24 19  1  0
  1 44  1  0
  1 45  1  0
  1 46  1  0
  3 47  1  0
  3 48  1  0
  3 49  1  0
  4 50  1  0
  4 51  1  0
  4 52  1  0
  9 53  1  0
  9 54  1  0
 10 55  1  0
 10 56  1  0
 12 57  1  1
 13 58  1  0
 13 59  1  0
 17 60  1  0
 20 61  1  0
 21 62  1  0
 22 63  1  0
 23 64  1  0
 24 65  1  0
 26 66  1  0
 31 67  1  0
 31 68  1  0
 33 69  1  0
 34 70  1  0
 35 71  1  0
 36 72  1  0
 37 73  1  0
 39 74  1  0
 40 75  1  0
 41 76  1  0
 42 77  1  0
M  END
$$$$
