
     RDKit          3D

 51 53  0  0  0  0  0  0  0  0999 V2000
   -8.6123   -1.9391   -0.6926 C   0  0  0  0  0  0  0  0  0  0  0  0
   -7.2181   -1.3869   -0.5679 C   0  0  0  0  0  0  0  0  0  0  0  0
   -6.1254   -2.2696   -0.5975 C   0  0  0  0  0  0  0  0  0  0  0  0
   -4.8206   -1.7928   -0.4743 C   0  0  0  0  0  0  0  0  0  0  0  0
   -4.6035   -0.4303   -0.3089 C   0  0  0  0  0  0  0  0  0  0  0  0
   -3.3172    0.0356   -0.2041 O   0  0  0  0  0  0  0  0  0  0  0  0
   -2.9425    0.1017    1.1795 C   0  0  0  0  0  0  0  0  0  0  0  0
   -1.4716    0.2571    1.2190 C   0  0  0  0  0  0  0  0  0  0  0  0
   -0.4311   -0.2198    0.4629 C   0  0  0  0  0  0  0  0  0  0  0  0
    0.7440    0.2870    1.0834 C   0  0  0  0  0  0  0  0  0  0  0  0
    2.1231   -0.0026    0.6509 C   0  0  0  0  0  0  0  0  0  0  0  0
    2.3156   -0.8878   -0.1882 O   0  0  0  0  0  0  0  0  0  0  0  0
    3.2068    0.7074    1.1901 N   0  0  0  0  0  0  0  0  0  0  0  0
    3.0875    1.9349    1.9645 C   0  0  0  0  0  0  0  0  0  0  0  0
    4.5582    0.2499    0.8614 C   0  0  0  0  0  0  0  0  0  0  0  0
    5.0778    0.8631   -0.4429 C   0  0  0  0  0  0  0  0  0  0  0  0
    6.4086    0.2728   -0.8401 C   0  0  0  0  0  0  0  0  0  0  0  0
    7.6053    0.8024   -0.3387 C   0  0  0  0  0  0  0  0  0  0  0  0
    8.8294    0.2290   -0.6860 C   0  0  0  0  0  0  0  0  0  0  0  0
    8.8675   -0.8759   -1.5351 C   0  0  0  0  0  0  0  0  0  0  0  0
    7.6826   -1.4114   -2.0361 C   0  0  0  0  0  0  0  0  0  0  0  0
    6.4581   -0.8414   -1.6895 C   0  0  0  0  0  0  0  0  0  0  0  0
    0.4136    1.0128    2.1690 N   0  0  0  0  0  0  0  0  0  0  0  0
   -0.9663    0.9995    2.2389 O   0  0  0  0  0  0  0  0  0  0  0  0
   -5.6674    0.4671   -0.3135 C   0  0  0  0  0  0  0  0  0  0  0  0
   -6.9870   -0.0015   -0.4304 C   0  0  0  0  0  0  0  0  0  0  0  0
   -8.1178    0.9906   -0.4544 C   0  0  0  0  0  0  0  0  0  0  0  0
   -9.0952   -1.5627   -1.5993 H   0  0  0  0  0  0  0  0  0  0  0  0
   -8.6077   -3.0329   -0.7468 H   0  0  0  0  0  0  0  0  0  0  0  0
   -9.2080   -1.6583    0.1827 H   0  0  0  0  0  0  0  0  0  0  0  0
   -6.2812   -3.3397   -0.7255 H   0  0  0  0  0  0  0  0  0  0  0  0
   -3.9824   -2.4808   -0.5090 H   0  0  0  0  0  0  0  0  0  0  0  0
   -3.4331    0.9628    1.6537 H   0  0  0  0  0  0  0  0  0  0  0  0
   -3.2150   -0.8188    1.7187 H   0  0  0  0  0  0  0  0  0  0  0  0
   -0.4940   -0.8517   -0.4138 H   0  0  0  0  0  0  0  0  0  0  0  0
    2.2956    2.5717    1.5531 H   0  0  0  0  0  0  0  0  0  0  0  0
    4.0308    2.4970    1.9343 H   0  0  0  0  0  0  0  0  0  0  0  0
    2.8631    1.6711    3.0040 H   0  0  0  0  0  0  0  0  0  0  0  0
    4.5481   -0.8429    0.7822 H   0  0  0  0  0  0  0  0  0  0  0  0
    5.2223    0.4889    1.7016 H   0  0  0  0  0  0  0  0  0  0  0  0
    5.1736    1.9512   -0.3379 H   0  0  0  0  0  0  0  0  0  0  0  0
    4.3529    0.7121   -1.2545 H   0  0  0  0  0  0  0  0  0  0  0  0
    7.5916    1.6621    0.3282 H   0  0  0  0  0  0  0  0  0  0  0  0
    9.7542    0.6454   -0.2938 H   0  0  0  0  0  0  0  0  0  0  0  0
    9.8200   -1.3211   -1.8059 H   0  0  0  0  0  0  0  0  0  0  0  0
    7.7113   -2.2764   -2.6950 H   0  0  0  0  0  0  0  0  0  0  0  0
    5.5399   -1.2730   -2.0825 H   0  0  0  0  0  0  0  0  0  0  0  0
   -5.4623    1.5313   -0.2357 H   0  0  0  0  0  0  0  0  0  0  0  0
   -8.9012    0.7068    0.2583 H   0  0  0  0  0  0  0  0  0  0  0  0
   -7.7764    1.9919   -0.1727 H   0  0  0  0  0  0  0  0  0  0  0  0
   -8.5442    1.0475   -1.4634 H   0  0  0  0  0  0  0  0  0  0  0  0
  1  2  1  0
  2  3  2  0
  3  4  1  0
  4  5  2  0
  5  6  1  0
  6  7  1  0
  7  8  1  0
  8  9  2  0
  9 10  1  0
 10 11  1  0
 11 12  2  0
 11 13  1  0
 13 14  1  0
 13 15  1  0
 15 16  1  0
 16 17  1  0
 17 18  2  0
 18 19  1  0
 19 20  2  0
 20 21  1  0
 21 22  2  0
 10 23  2  0
 23 24  1  0
  5 25  1  0
 25 26  2  0
 26 27  1  0
 26  2  1  0
 24  8  1  0
 22 17  1  0
  1 28  1  0
  1 29  1  0
  1 30  1  0
  3 31  1  0
  4 32  1  0
  7 33  1  0
  7 34  1  0
  9 35  1  0
 14 36  1  0
 14 37  1  0
 14 38  1  0
 15 39  1  0
 15 40  1  0
 16 41  1  0
 16 42  1  0
 18 43  1  0
 19 44  1  0
 20 45  1  0
 21 46  1  0
 22 47  1  0
 25 48  1  0
 27 49  1  0
 27 50  1  0
 27 51  1  0
M  END
$$$$
