
     RDKit          3D

 60 64  0  0  0  0  0  0  0  0999 V2000
    3.2827    2.1408   -1.4814 O   0  0  0  0  0  0  0  0  0  0  0  0
    2.9062    1.4057   -0.5775 C   0  0  0  0  0  0  0  0  0  0  0  0
    3.6888    0.6379    0.2638 N   0  0  0  0  0  0  0  0  0  0  0  0
    5.0873    0.4569    0.2003 C   0  0  0  0  0  0  0  0  0  0  0  0
    5.6678   -0.3602    1.1779 C   0  0  0  0  0  0  0  0  0  0  0  0
    7.0432   -0.6175    1.1683 C   0  0  0  0  0  0  0  0  0  0  0  0
    7.8568   -0.0604    0.1777 C   0  0  0  0  0  0  0  0  0  0  0  0
    9.3130   -0.3552    0.1724 C   0  0  0  0  0  0  0  0  0  0  0  0
    9.8846   -0.9821    1.1723 N   0  0  0  0  0  0  0  0  0  0  0  0
   11.3185   -1.0744    0.7883 C   0  0  0  0  0  0  0  0  0  0  0  0
   11.3936   -0.7046   -0.6932 C   0  0  0  0  0  0  0  0  0  0  0  0
   10.1332   -0.0199   -0.8820 N   0  0  0  0  0  0  0  0  0  0  0  0
    7.2859    0.7688   -0.7904 C   0  0  0  0  0  0  0  0  0  0  0  0
    5.9059    1.0216   -0.7802 C   0  0  0  0  0  0  0  0  0  0  0  0
    1.4419    1.3125   -0.3270 C   0  0  0  0  0  0  0  0  0  0  0  0
    0.6594    2.4667   -0.4721 C   0  0  0  0  0  0  0  0  0  0  0  0
   -0.7250    2.4144   -0.2680 C   0  0  0  0  0  0  0  0  0  0  0  0
   -1.3554    1.2026    0.0533 C   0  0  0  0  0  0  0  0  0  0  0  0
   -2.8193    1.2506    0.3002 C   0  0  0  0  0  0  0  0  0  0  0  0
   -3.2192    2.1535    1.0242 O   0  0  0  0  0  0  0  0  0  0  0  0
   -3.5806    0.2959   -0.3418 N   0  0  0  0  0  0  0  0  0  0  0  0
   -4.9843    0.1435   -0.2834 C   0  0  0  0  0  0  0  0  0  0  0  0
   -5.5369   -0.9380   -0.9837 C   0  0  0  0  0  0  0  0  0  0  0  0
   -6.9189   -1.1626   -0.9846 C   0  0  0  0  0  0  0  0  0  0  0  0
   -7.7658   -0.3032   -0.2813 C   0  0  0  0  0  0  0  0  0  0  0  0
   -9.2340   -0.5246   -0.2652 C   0  0  0  0  0  0  0  0  0  0  0  0
  -10.0592    0.3927    0.1744 N   0  0  0  0  0  0  0  0  0  0  0  0
  -11.4114   -0.2067    0.0178 C   0  0  0  0  0  0  0  0  0  0  0  0
  -11.1923   -1.6935   -0.2629 C   0  0  0  0  0  0  0  0  0  0  0  0
   -9.8084   -1.7049   -0.6827 N   0  0  0  0  0  0  0  0  0  0  0  0
   -7.2211    0.7799    0.4119 C   0  0  0  0  0  0  0  0  0  0  0  0
   -5.8376    0.9998    0.4133 C   0  0  0  0  0  0  0  0  0  0  0  0
   -0.5573    0.0640    0.1889 C   0  0  0  0  0  0  0  0  0  0  0  0
   -1.1404   -1.2125    0.5202 N   0  0  0  0  0  4  0  0  0  0  0  0
   -1.7621   -1.7826   -0.3838 O   0  0  0  0  0  0  0  0  0  0  0  0
   -0.9274   -1.6520    1.6555 O   0  0  0  0  0  1  0  0  0  0  0  0
    0.8335    0.0976    0.0017 C   0  0  0  0  0  0  0  0  0  0  0  0
    3.2326    0.1853    1.0449 H   0  0  0  0  0  0  0  0  0  0  0  0
    5.0661   -0.8169    1.9595 H   0  0  0  0  0  0  0  0  0  0  0  0
    7.4750   -1.2601    1.9321 H   0  0  0  0  0  0  0  0  0  0  0  0
   11.8960   -0.3764    1.4012 H   0  0  0  0  0  0  0  0  0  0  0  0
   11.6966   -2.0847    0.9644 H   0  0  0  0  0  0  0  0  0  0  0  0
   12.2515   -0.0668   -0.9214 H   0  0  0  0  0  0  0  0  0  0  0  0
   11.4327   -1.6033   -1.3188 H   0  0  0  0  0  0  0  0  0  0  0  0
    9.7298   -0.0781   -1.8100 H   0  0  0  0  0  0  0  0  0  0  0  0
    7.8966    1.2404   -1.5541 H   0  0  0  0  0  0  0  0  0  0  0  0
    5.5052    1.6697   -1.5535 H   0  0  0  0  0  0  0  0  0  0  0  0
    1.1274    3.4126   -0.7427 H   0  0  0  0  0  0  0  0  0  0  0  0
   -1.3140    3.3293   -0.3573 H   0  0  0  0  0  0  0  0  0  0  0  0
   -3.1062   -0.3950   -0.9179 H   0  0  0  0  0  0  0  0  0  0  0  0
   -4.9000   -1.6252   -1.5377 H   0  0  0  0  0  0  0  0  0  0  0  0
   -7.3184   -1.9957   -1.5532 H   0  0  0  0  0  0  0  0  0  0  0  0
  -11.9239    0.2859   -0.8156 H   0  0  0  0  0  0  0  0  0  0  0  0
  -12.0049   -0.0588    0.9247 H   0  0  0  0  0  0  0  0  0  0  0  0
  -11.8624   -2.0771   -1.0375 H   0  0  0  0  0  0  0  0  0  0  0  0
  -11.3145   -2.2838    0.6510 H   0  0  0  0  0  0  0  0  0  0  0  0
   -9.2916   -2.5532   -0.4767 H   0  0  0  0  0  0  0  0  0  0  0  0
   -7.8709    1.4631    0.9575 H   0  0  0  0  0  0  0  0  0  0  0  0
   -5.4653    1.8557    0.9662 H   0  0  0  0  0  0  0  0  0  0  0  0
    1.4170   -0.8172    0.0828 H   0  0  0  0  0  0  0  0  0  0  0  0
  1  2  2  0
  2  3  1  0
  3  4  1  0
  4  5  2  0
  5  6  1  0
  6  7  2  0
  7  8  1  0
  8  9  2  0
  9 10  1  0
 10 11  1  0
 11 12  1  0
  7 13  1  0
 13 14  2  0
  2 15  1  0
 15 16  2  0
 16 17  1  0
 17 18  2  0
 18 19  1  0
 19 20  2  0
 19 21  1  0
 21 22  1  0
 22 23  2  0
 23 24  1  0
 24 25  2  0
 25 26  1  0
 26 27  2  0
 27 28  1  0
 28 29  1  0
 29 30  1  0
 25 31  1  0
 31 32  2  0
 18 33  1  0
 33 34  1  0
 34 35  2  0
 34 36  1  0
 33 37  2  0
 14  4  1  0
 37 15  1  0
 12  8  1  0
 32 22  1  0
 30 26  1  0
  3 38  1  0
  5 39  1  0
  6 40  1  0
 10 41  1  0
 10 42  1  0
 11 43  1  0
 11 44  1  0
 12 45  1  0
 13 46  1  0
 14 47  1  0
 16 48  1  0
 17 49  1  0
 21 50  1  0
 23 51  1  0
 24 52  1  0
 28 53  1  0
 28 54  1  0
 29 55  1  0
 29 56  1  0
 30 57  1  0
 31 58  1  0
 32 59  1  0
 37 60  1  0
M  CHG  2  34   1  36  -1
M  END
$$$$
