
     RDKit          3D

 33 35  0  0  0  0  0  0  0  0999 V2000
    4.5935   -1.2603    1.6016 C   0  0  0  0  0  0  0  0  0  0  0  0
    4.6685   -0.1063    0.6547 C   0  0  0  0  0  0  0  0  0  0  0  0
    5.8987    0.5174    0.2590 C   0  0  0  0  0  0  0  0  0  0  0  0
    5.7074    1.5620   -0.6148 C   0  0  0  0  0  0  0  0  0  0  0  0
    4.0570    1.8025   -0.9664 S   0  0  0  0  0  0  0  0  0  0  0  0
    3.5788    0.5064    0.0471 C   0  0  0  0  0  0  0  0  0  0  0  0
    2.1763    0.1630    0.1917 C   0  0  0  0  0  0  0  0  0  0  0  0
    1.2342    0.8233   -0.4086 N   0  0  0  0  0  0  0  0  0  0  0  0
   -0.0739    0.4621   -0.1870 N   0  0  0  0  0  0  0  0  0  0  0  0
   -0.5985   -0.0119    1.0098 C   0  0  0  0  0  0  0  0  0  0  0  0
    0.0684   -0.2880    2.0037 O   0  0  0  0  0  0  0  0  0  0  0  0
   -2.0337   -0.1470    1.0175 C   0  0  0  0  0  0  0  0  0  0  0  0
   -2.7176   -0.5023    2.1678 N   0  0  0  0  0  0  0  0  0  0  0  0
   -4.0638   -0.5900    2.0190 N   0  0  0  0  0  0  0  0  0  0  0  0
   -4.2184   -0.2886    0.7404 C   0  0  0  0  0  0  0  0  0  0  0  0
   -3.0238   -0.0119    0.0758 C   0  0  0  0  0  0  0  0  0  0  0  0
   -3.2575    0.3046   -1.3456 C   0  0  0  0  0  0  0  0  0  0  0  0
   -4.7470   -0.1408   -1.5430 C   0  0  0  0  0  0  0  0  0  0  0  0
   -5.4073   -0.1958   -0.1253 C   0  0  0  0  0  0  0  0  0  0  0  0
    5.5879   -1.5460    1.9596 H   0  0  0  0  0  0  0  0  0  0  0  0
    4.1496   -2.1310    1.1082 H   0  0  0  0  0  0  0  0  0  0  0  0
    3.9834   -1.0014    2.4730 H   0  0  0  0  0  0  0  0  0  0  0  0
    6.8799    0.2128    0.6040 H   0  0  0  0  0  0  0  0  0  0  0  0
    6.4587    2.1976   -1.0630 H   0  0  0  0  0  0  0  0  0  0  0  0
    1.9654   -0.7191    0.8178 H   0  0  0  0  0  0  0  0  0  0  0  0
   -0.7194    0.9016   -0.8327 H   0  0  0  0  0  0  0  0  0  0  0  0
   -2.3104   -0.6934    3.0784 H   0  0  0  0  0  0  0  0  0  0  0  0
   -2.5930   -0.2413   -2.0208 H   0  0  0  0  0  0  0  0  0  0  0  0
   -3.1558    1.3800   -1.5242 H   0  0  0  0  0  0  0  0  0  0  0  0
   -4.7600   -1.1484   -1.9795 H   0  0  0  0  0  0  0  0  0  0  0  0
   -5.2890    0.5196   -2.2272 H   0  0  0  0  0  0  0  0  0  0  0  0
   -6.0760   -1.0556   -0.0329 H   0  0  0  0  0  0  0  0  0  0  0  0
   -5.9627    0.7260    0.0742 H   0  0  0  0  0  0  0  0  0  0  0  0
  1  2  1  0
  2  3  1  0
  3  4  2  0
  4  5  1  0
  5  6  1  0
  6  7  1  0
  7  8  2  3
  8  9  1  0
  9 10  1  0
 10 11  2  0
 10 12  1  0
 12 13  1  0
 13 14  1  0
 14 15  2  0
 15 16  1  0
 16 17  1  0
 17 18  1  0
 18 19  1  0
  6  2  2  0
 16 12  2  0
 19 15  1  0
  1 20  1  0
  1 21  1  0
  1 22  1  0
  3 23  1  0
  4 24  1  0
  7 25  1  0
  9 26  1  0
 13 27  1  0
 17 28  1  0
 17 29  1  0
 18 30  1  0
 18 31  1  0
 19 32  1  0
 19 33  1  0
M  END
$$$$
