
     RDKit          3D

 23 25  0  0  0  0  0  0  0  0999 V2000
    2.9257   -0.9858    0.4356 O   0  0  0  0  0  0  0  0  0  0  0  0
    2.3275    0.0627    0.2720 C   0  0  0  0  0  0  0  0  0  0  0  0
    2.8913    1.2363    0.6070 O   0  0  0  0  0  0  0  0  0  0  0  0
    0.9625    0.2349   -0.3458 C   0  0  0  0  0  0  0  0  0  0  0  0
    0.2032   -1.1085   -0.5179 C   0  0  0  0  0  0  0  0  0  0  0  0
   -0.3692   -1.3336    0.8873 C   0  0  0  0  0  0  0  0  0  0  0  0
   -1.0774    0.0061    0.9212 C   0  0  0  0  0  0  0  0  0  0  0  0
   -1.8990    0.0514   -0.3653 C   0  0  0  0  0  0  0  0  0  0  0  0
   -1.8848    1.4305   -0.7490 O   0  0  0  0  0  0  0  0  0  0  0  0
   -0.7626    2.0266   -0.2397 C   0  0  0  0  0  0  0  0  0  0  0  0
   -0.4241    3.1728   -0.4731 O   0  0  0  0  0  0  0  0  0  0  0  0
    0.0066    1.0251    0.5701 C   0  0  0  0  0  0  0  0  0  0  0  0
   -1.0707   -0.8143   -1.3490 C   0  0  0  0  0  0  0  0  0  0  0  0
   -1.9286   -2.3207   -1.7650 Cl  0  0  0  0  0  0  0  0  0  0  0  0
    3.7805    1.0010    0.9482 H   0  0  0  0  0  0  0  0  0  0  0  0
    1.1204    0.7127   -1.3212 H   0  0  0  0  0  0  0  0  0  0  0  0
    0.8166   -1.9286   -0.8991 H   0  0  0  0  0  0  0  0  0  0  0  0
   -1.0545   -2.1832    0.9567 H   0  0  0  0  0  0  0  0  0  0  0  0
    0.3995   -1.4283    1.6605 H   0  0  0  0  0  0  0  0  0  0  0  0
   -1.6404    0.2478    1.8254 H   0  0  0  0  0  0  0  0  0  0  0  0
   -2.9315   -0.2848   -0.2315 H   0  0  0  0  0  0  0  0  0  0  0  0
    0.4549    1.4756    1.4588 H   0  0  0  0  0  0  0  0  0  0  0  0
   -0.8459   -0.2956   -2.2864 H   0  0  0  0  0  0  0  0  0  0  0  0
  1  2  2  0
  2  3  1  0
  2  4  1  0
  4  5  1  0
  5  6  1  0
  6  7  1  0
  7  8  1  0
  8  9  1  0
  9 10  1  0
 10 11  2  0
 10 12  1  0
  8 13  1  0
 13 14  1  0
 12  4  1  0
 13  5  1  0
 12  7  1  0
  3 15  1  0
  4 16  1  0
  5 17  1  0
  6 18  1  0
  6 19  1  0
  7 20  1  0
  8 21  1  0
 12 22  1  0
 13 23  1  0
M  END
$$$$
