
     RDKit          3D

 31 32  0  0  0  0  0  0  0  0999 V2000
    3.6242    3.0850   -0.5776 N   0  0  0  0  0  0  0  0  0  0  0  0
    3.1251    2.1243   -1.3827 C   0  0  0  0  0  0  0  0  0  0  0  0
    3.4657    0.8545   -1.3257 N   0  0  0  0  0  0  0  0  0  0  0  0
    2.7837    0.0872   -2.2454 N   0  0  0  0  0  0  0  0  0  0  0  0
    1.9557    0.8099   -2.9680 C   0  0  0  0  0  0  0  0  0  0  0  0
    0.9351    0.0895   -4.1885 S   0  0  0  0  0  0  0  0  0  0  0  0
    0.9818   -1.6512   -3.6704 C   0  0  0  0  0  0  0  0  0  0  0  0
    0.0730   -1.8707   -2.4774 C   0  0  0  0  0  0  0  0  0  0  0  0
   -1.1094   -2.2019   -2.5919 O   0  0  0  0  0  0  0  0  0  0  0  0
    0.6660   -1.6860   -1.2390 N   0  0  0  0  0  0  0  0  0  0  0  0
   -0.2193   -1.6154   -0.1382 N   0  0  0  0  0  0  0  0  0  0  0  0
   -0.2631   -0.4162    0.5530 C   0  0  0  0  0  0  0  0  0  0  0  0
    0.5504    0.4862    0.3694 O   0  0  0  0  0  0  0  0  0  0  0  0
   -1.3743   -0.2403    1.5366 C   0  0  0  0  0  0  0  0  0  0  0  0
   -2.2036   -1.2944    1.9474 C   0  0  0  0  0  0  0  0  0  0  0  0
   -3.2252   -1.0650    2.8764 C   0  0  0  0  0  0  0  0  0  0  0  0
   -3.4121    0.2107    3.4079 C   0  0  0  0  0  0  0  0  0  0  0  0
   -4.6661    0.4844    4.5516 Cl  0  0  0  0  0  0  0  0  0  0  0  0
   -2.5861    1.2632    3.0212 C   0  0  0  0  0  0  0  0  0  0  0  0
   -1.5700    1.0376    2.0874 C   0  0  0  0  0  0  0  0  0  0  0  0
    1.9524    2.4768   -2.5905 S   0  0  0  0  0  0  0  0  0  0  0  0
    3.0176    3.8755   -0.3972 H   0  0  0  0  0  0  0  0  0  0  0  0
    4.0527    2.7257    0.2692 H   0  0  0  0  0  0  0  0  0  0  0  0
    1.9998   -1.9909   -3.4548 H   0  0  0  0  0  0  0  0  0  0  0  0
    0.6095   -2.2699   -4.4942 H   0  0  0  0  0  0  0  0  0  0  0  0
    1.5013   -1.0941   -1.1590 H   0  0  0  0  0  0  0  0  0  0  0  0
   -1.0796   -2.1427   -0.2788 H   0  0  0  0  0  0  0  0  0  0  0  0
   -2.0686   -2.3075    1.5783 H   0  0  0  0  0  0  0  0  0  0  0  0
   -3.8660   -1.8877    3.1858 H   0  0  0  0  0  0  0  0  0  0  0  0
   -2.7236    2.2575    3.4397 H   0  0  0  0  0  0  0  0  0  0  0  0
   -0.9272    1.8659    1.7929 H   0  0  0  0  0  0  0  0  0  0  0  0
  1  2  1  0
  2  3  2  0
  3  4  1  0
  4  5  2  0
  5  6  1  0
  6  7  1  0
  7  8  1  0
  8  9  2  0
  8 10  1  0
 10 11  1  0
 11 12  1  0
 12 13  2  0
 12 14  1  0
 14 15  2  0
 15 16  1  0
 16 17  2  0
 17 18  1  0
 17 19  1  0
 19 20  2  0
  5 21  1  0
 21  2  1  0
 20 14  1  0
  1 22  1  0
  1 23  1  0
  7 24  1  0
  7 25  1  0
 10 26  1  0
 11 27  1  0
 15 28  1  0
 16 29  1  0
 19 30  1  0
 20 31  1  0
M  END
$$$$
