
     RDKit          3D

 43 44  0  0  0  0  0  0  0  0999 V2000
    2.2890    1.7055   -3.7008 C   0  0  0  0  0  0  0  0  0  0  0  0
    3.5570    1.2689   -3.2288 O   0  0  0  0  0  0  0  0  0  0  0  0
    3.5671    0.5240   -2.0805 C   0  0  0  0  0  0  0  0  0  0  0  0
    4.8309    0.0909   -1.6783 C   0  0  0  0  0  0  0  0  0  0  0  0
    4.9804   -0.6727   -0.5218 C   0  0  0  0  0  0  0  0  0  0  0  0
    3.8626   -1.0074    0.2453 C   0  0  0  0  0  0  0  0  0  0  0  0
    2.5914   -0.5840   -0.1429 C   0  0  0  0  0  0  0  0  0  0  0  0
    1.4119   -0.8810    0.5694 N   0  0  0  0  0  0  0  0  0  0  0  0
    1.2826   -1.5934    1.7435 C   0  0  0  0  0  0  0  0  0  0  0  0
    2.1905   -2.0818    2.4098 O   0  0  0  0  0  0  0  0  0  0  0  0
   -0.1528   -1.7304    2.1980 C   0  0  0  0  0  0  0  0  0  0  0  0
   -0.9795   -2.6309    1.3054 C   0  0  0  0  0  0  0  0  0  0  0  0
   -0.4285   -4.0146    1.0337 C   0  0  0  0  0  0  0  0  0  0  0  0
   -2.1444   -2.3528    0.7926 N   0  0  0  0  0  0  0  0  0  0  0  0
   -2.6775   -1.1030    0.9620 N   0  0  0  0  0  0  0  0  0  0  0  0
   -2.1366   -0.0090    0.2913 C   0  0  0  0  0  0  0  0  0  0  0  0
   -1.0066    0.0177   -0.1959 O   0  0  0  0  0  0  0  0  0  0  0  0
   -2.9644    1.2275    0.2517 C   0  0  0  0  0  0  0  0  0  0  0  0
   -2.2706    2.4435    0.3932 C   0  0  0  0  0  0  0  0  0  0  0  0
   -2.9529    3.6616    0.3776 C   0  0  0  0  0  0  0  0  0  0  0  0
   -4.3343    3.6795    0.2135 C   0  0  0  0  0  0  0  0  0  0  0  0
   -5.0327    2.4804    0.0575 C   0  0  0  0  0  0  0  0  0  0  0  0
   -4.3536    1.2549    0.0713 C   0  0  0  0  0  0  0  0  0  0  0  0
   -5.3069   -0.1629   -0.1864 Cl  0  0  0  0  0  0  0  0  0  0  0  0
    2.4519    0.1821   -1.3115 C   0  0  0  0  0  0  0  0  0  0  0  0
    1.8182    2.3899   -2.9878 H   0  0  0  0  0  0  0  0  0  0  0  0
    2.4497    2.2550   -4.6331 H   0  0  0  0  0  0  0  0  0  0  0  0
    1.6343    0.8568   -3.9260 H   0  0  0  0  0  0  0  0  0  0  0  0
    5.7054    0.3498   -2.2700 H   0  0  0  0  0  0  0  0  0  0  0  0
    5.9675   -1.0111   -0.2166 H   0  0  0  0  0  0  0  0  0  0  0  0
    4.0195   -1.6032    1.1381 H   0  0  0  0  0  0  0  0  0  0  0  0
    0.5432   -0.5260    0.1569 H   0  0  0  0  0  0  0  0  0  0  0  0
   -0.1495   -2.1857    3.1964 H   0  0  0  0  0  0  0  0  0  0  0  0
   -0.5837   -0.7349    2.3237 H   0  0  0  0  0  0  0  0  0  0  0  0
    0.4255   -3.9398    0.3548 H   0  0  0  0  0  0  0  0  0  0  0  0
   -0.1038   -4.4718    1.9724 H   0  0  0  0  0  0  0  0  0  0  0  0
   -1.1885   -4.6499    0.5693 H   0  0  0  0  0  0  0  0  0  0  0  0
   -3.6960   -1.1236    1.0031 H   0  0  0  0  0  0  0  0  0  0  0  0
   -1.1888    2.4464    0.5214 H   0  0  0  0  0  0  0  0  0  0  0  0
   -2.4036    4.5941    0.4922 H   0  0  0  0  0  0  0  0  0  0  0  0
   -4.8691    4.6267    0.1961 H   0  0  0  0  0  0  0  0  0  0  0  0
   -6.1124    2.5104   -0.0839 H   0  0  0  0  0  0  0  0  0  0  0  0
    1.4584    0.5043   -1.6056 H   0  0  0  0  0  0  0  0  0  0  0  0
  1  2  1  0
  2  3  1  0
  3  4  2  0
  4  5  1  0
  5  6  2  0
  6  7  1  0
  7  8  1  0
  8  9  1  0
  9 10  2  0
  9 11  1  0
 11 12  1  0
 12 13  1  0
 12 14  2  3
 14 15  1  0
 15 16  1  0
 16 17  2  0
 16 18  1  0
 18 19  2  0
 19 20  1  0
 20 21  2  0
 21 22  1  0
 22 23  2  0
 23 24  1  0
  7 25  2  0
 25  3  1  0
 23 18  1  0
  1 26  1  0
  1 27  1  0
  1 28  1  0
  4 29  1  0
  5 30  1  0
  6 31  1  0
  8 32  1  0
 11 33  1  0
 11 34  1  0
 13 35  1  0
 13 36  1  0
 13 37  1  0
 15 38  1  0
 19 39  1  0
 20 40  1  0
 21 41  1  0
 22 42  1  0
 25 43  1  0
M  END
$$$$
