
     RDKit          3D

 61 64  0  0  0  0  0  0  0  0999 V2000
    6.7822   -2.7838    1.7411 C   0  0  0  0  0  0  0  0  0  0  0  0
    6.0423   -1.5654    1.2583 C   0  0  0  0  0  0  0  0  0  0  0  0
    6.6543   -0.3107    1.3929 C   0  0  0  0  0  0  0  0  0  0  0  0
    6.0150    0.8422    0.9504 C   0  0  0  0  0  0  0  0  0  0  0  0
    4.7535    0.7560    0.3681 C   0  0  0  0  0  0  0  0  0  0  0  0
    4.1004   -0.4793    0.2343 C   0  0  0  0  0  0  0  0  0  0  0  0
    2.8433   -0.5767   -0.3895 N   0  0  0  0  0  0  0  0  0  0  0  0
    2.9257   -0.5705   -1.8691 C   0  0  0  0  0  0  0  0  0  0  0  0
    2.0863    0.5499   -2.5056 C   0  0  0  0  0  0  0  0  0  0  0  0
    0.6984    0.5682   -2.0306 N   0  0  0  0  0  0  0  0  0  0  0  0
   -0.2556    1.1957   -2.8223 C   0  0  0  0  0  0  0  0  0  0  0  0
    0.0138    1.7870   -3.8645 O   0  0  0  0  0  0  0  0  0  0  0  0
   -1.6722    1.1666   -2.3939 C   0  0  0  0  0  0  0  0  0  0  0  0
   -2.3726    2.3743   -2.3095 C   0  0  0  0  0  0  0  0  0  0  0  0
   -3.7072    2.3737   -1.9008 C   0  0  0  0  0  0  0  0  0  0  0  0
   -4.3438    1.1680   -1.6044 C   0  0  0  0  0  0  0  0  0  0  0  0
   -5.6774    1.1753   -1.1045 N   0  0  0  0  0  0  0  0  0  0  0  0
   -5.8822    1.6294    0.5164 S   0  0  0  0  0  6  0  0  0  0  0  0
   -5.3115    2.9374    0.7399 O   0  0  0  0  0  0  0  0  0  0  0  0
   -7.2550    1.3259    0.8564 O   0  0  0  0  0  0  0  0  0  0  0  0
   -4.9672    0.5600    1.4843 C   0  0  0  0  0  0  0  0  0  0  0  0
   -3.6906    0.7695    2.0508 C   0  0  0  0  0  0  0  0  0  0  0  0
   -2.8180    1.9667    2.0168 C   0  0  0  0  0  0  0  0  0  0  0  0
   -3.2726   -0.3312    2.6917 N   0  0  0  0  0  0  0  0  0  0  0  0
   -4.2891   -1.2580    2.5649 O   0  0  0  0  0  0  0  0  0  0  0  0
   -5.3053   -0.7239    1.8369 C   0  0  0  0  0  0  0  0  0  0  0  0
   -6.4729   -1.5946    1.6082 C   0  0  0  0  0  0  0  0  0  0  0  0
   -3.6542   -0.0422   -1.7167 C   0  0  0  0  0  0  0  0  0  0  0  0
   -2.3167   -0.0444   -2.1196 C   0  0  0  0  0  0  0  0  0  0  0  0
    0.4902    0.1561   -0.6305 C   0  0  0  0  0  0  0  0  0  0  0  0
    1.7793    0.2530    0.2066 C   0  0  0  0  0  0  0  0  0  0  0  0
    4.7453   -1.6518    0.6973 C   0  0  0  0  0  0  0  0  0  0  0  0
    4.0654   -2.9903    0.5372 C   0  0  0  0  0  0  0  0  0  0  0  0
    6.3067   -3.1805    2.6456 H   0  0  0  0  0  0  0  0  0  0  0  0
    6.8006   -3.5564    0.9637 H   0  0  0  0  0  0  0  0  0  0  0  0
    7.8259   -2.5492    1.9854 H   0  0  0  0  0  0  0  0  0  0  0  0
    7.6430   -0.2259    1.8387 H   0  0  0  0  0  0  0  0  0  0  0  0
    6.5046    1.8070    1.0476 H   0  0  0  0  0  0  0  0  0  0  0  0
    4.2900    1.6665    0.0004 H   0  0  0  0  0  0  0  0  0  0  0  0
    2.5419   -1.5377   -2.2159 H   0  0  0  0  0  0  0  0  0  0  0  0
    3.9598   -0.4960   -2.2284 H   0  0  0  0  0  0  0  0  0  0  0  0
    2.0986    0.4502   -3.5964 H   0  0  0  0  0  0  0  0  0  0  0  0
    2.5183    1.5277   -2.2616 H   0  0  0  0  0  0  0  0  0  0  0  0
   -1.8795    3.3123   -2.5555 H   0  0  0  0  0  0  0  0  0  0  0  0
   -4.2441    3.3165   -1.8174 H   0  0  0  0  0  0  0  0  0  0  0  0
   -6.2408    0.3548   -1.3223 H   0  0  0  0  0  0  0  0  0  0  0  0
   -2.6718    2.3162    0.9914 H   0  0  0  0  0  0  0  0  0  0  0  0
   -1.8265    1.7483    2.4288 H   0  0  0  0  0  0  0  0  0  0  0  0
   -3.2548    2.7764    2.6091 H   0  0  0  0  0  0  0  0  0  0  0  0
   -7.3036   -1.2965    2.2543 H   0  0  0  0  0  0  0  0  0  0  0  0
   -6.8031   -1.5364    0.5664 H   0  0  0  0  0  0  0  0  0  0  0  0
   -6.2337   -2.6403    1.8230 H   0  0  0  0  0  0  0  0  0  0  0  0
   -4.1388   -0.9880   -1.4899 H   0  0  0  0  0  0  0  0  0  0  0  0
   -1.7837   -0.9866   -2.2244 H   0  0  0  0  0  0  0  0  0  0  0  0
   -0.2893    0.7721   -0.1720 H   0  0  0  0  0  0  0  0  0  0  0  0
    0.1433   -0.8835   -0.6531 H   0  0  0  0  0  0  0  0  0  0  0  0
    2.0755    1.3074    0.2649 H   0  0  0  0  0  0  0  0  0  0  0  0
    1.5725   -0.0952    1.2257 H   0  0  0  0  0  0  0  0  0  0  0  0
    4.3670   -3.6930    1.3195 H   0  0  0  0  0  0  0  0  0  0  0  0
    4.3136   -3.4179   -0.4389 H   0  0  0  0  0  0  0  0  0  0  0  0
    2.9770   -2.9043    0.6223 H   0  0  0  0  0  0  0  0  0  0  0  0
  1  2  1  0
  2  3  2  0
  3  4  1  0
  4  5  2  0
  5  6  1  0
  6  7  1  0
  7  8  1  0
  8  9  1  0
  9 10  1  0
 10 11  1  0
 11 12  2  0
 11 13  1  0
 13 14  2  0
 14 15  1  0
 15 16  2  0
 16 17  1  0
 17 18  1  0
 18 19  2  0
 18 20  2  0
 18 21  1  0
 21 22  1  0
 22 23  1  0
 22 24  2  0
 24 25  1  0
 25 26  1  0
 26 27  1  0
 16 28  1  0
 28 29  2  0
 10 30  1  0
 30 31  1  0
  6 32  2  0
 32 33  1  0
 32  2  1  0
 31  7  1  0
 29 13  1  0
 26 21  2  0
  1 34  1  0
  1 35  1  0
  1 36  1  0
  3 37  1  0
  4 38  1  0
  5 39  1  0
  8 40  1  0
  8 41  1  0
  9 42  1  0
  9 43  1  0
 14 44  1  0
 15 45  1  0
 17 46  1  0
 23 47  1  0
 23 48  1  0
 23 49  1  0
 27 50  1  0
 27 51  1  0
 27 52  1  0
 28 53  1  0
 29 54  1  0
 30 55  1  0
 30 56  1  0
 31 57  1  0
 31 58  1  0
 33 59  1  0
 33 60  1  0
 33 61  1  0
M  END
$$$$
