
     RDKit          3D

 71 76  0  0  0  0  0  0  0  0999 V2000
   11.0243    0.3493   -1.6839 C   0  0  0  0  0  0  0  0  0  0  0  0
   10.2410   -0.2560   -0.6600 O   0  0  0  0  0  0  0  0  0  0  0  0
    8.9122    0.0647   -0.6363 C   0  0  0  0  0  0  0  0  0  0  0  0
    8.2278   -0.3396    0.5083 C   0  0  0  0  0  0  0  0  0  0  0  0
    6.8607   -0.0713    0.6625 C   0  0  0  0  0  0  0  0  0  0  0  0
    6.1354    0.5934   -0.3338 C   0  0  0  0  0  0  0  0  0  0  0  0
    4.7641    0.8916   -0.2358 N   0  0  0  0  0  0  0  0  0  0  0  0
    3.9471    0.1510   -1.2307 C   0  0  0  0  0  0  0  0  0  0  0  0
    2.4957    0.6776   -1.2452 C   0  0  0  0  0  0  0  0  0  0  0  0
    1.9050    0.6902    0.1021 N   0  0  0  0  0  0  0  0  0  0  0  0
    0.6068    0.3267    0.4441 C   0  0  0  0  0  0  0  0  0  0  0  0
    0.1422    0.6261    1.5454 O   0  0  0  0  0  0  0  0  0  0  0  0
   -0.2042   -0.4881   -0.5729 C   0  0  0  0  0  0  0  0  0  0  0  0
    0.4021   -1.8784   -0.7982 C   0  0  0  0  0  0  0  0  0  0  0  0
    0.0760   -2.8225    0.3479 C   0  0  0  0  0  0  0  0  0  0  0  0
   -1.4283   -2.9574    0.5228 C   0  0  0  0  0  0  0  0  0  0  0  0
   -2.0350   -1.6443    0.7383 N   0  0  0  0  0  0  0  0  0  0  0  0
   -3.3829   -1.7214    1.1547 C   0  0  0  0  0  0  0  0  0  0  0  0
   -3.7756   -2.8331    1.8588 N   0  0  0  0  0  0  0  0  0  0  0  0
   -5.0376   -2.9397    2.3168 C   0  0  0  0  0  0  0  0  0  0  0  0
   -6.0481   -2.0715    2.1676 N   0  0  0  0  0  0  0  0  0  0  0  0
   -5.6518   -0.9973    1.4666 C   0  0  0  0  0  0  0  0  0  0  0  0
   -4.3947   -0.7442    0.9322 C   0  0  0  0  0  0  0  0  0  0  0  0
   -4.4166    0.4620    0.2449 N   0  0  0  0  0  0  0  0  0  0  0  0
   -5.6369    0.9432    0.3896 C   0  0  0  0  0  0  0  0  0  0  0  0
   -6.4145    0.0880    1.1320 N   0  0  0  0  0  0  0  0  0  0  0  0
   -7.7975    0.2983    1.5000 C   0  0  0  0  0  0  0  0  0  0  0  0
   -8.7282    0.4137    0.2958 C   0  0  0  0  0  0  0  0  0  0  0  0
   -8.6476    1.7637   -0.4214 C   0  0  0  0  0  0  0  0  0  0  0  0
   -7.3142    2.0453   -1.1210 C   0  0  0  0  0  0  0  0  0  0  0  0
   -6.1377    2.2332   -0.1637 C   0  0  0  0  0  0  0  0  0  0  0  0
   -1.7002   -0.5654   -0.2039 C   0  0  0  0  0  0  0  0  0  0  0  0
    2.7198    1.4164    1.0855 C   0  0  0  0  0  0  0  0  0  0  0  0
    4.1621    0.8785    1.1218 C   0  0  0  0  0  0  0  0  0  0  0  0
    6.8421    0.9896   -1.4826 C   0  0  0  0  0  0  0  0  0  0  0  0
    8.2119    0.7311   -1.6369 C   0  0  0  0  0  0  0  0  0  0  0  0
   10.7314   -0.0164   -2.6736 H   0  0  0  0  0  0  0  0  0  0  0  0
   10.9638    1.4418   -1.6275 H   0  0  0  0  0  0  0  0  0  0  0  0
   12.0683    0.0627   -1.5222 H   0  0  0  0  0  0  0  0  0  0  0  0
    8.7617   -0.8645    1.2968 H   0  0  0  0  0  0  0  0  0  0  0  0
    6.3844   -0.4190    1.5735 H   0  0  0  0  0  0  0  0  0  0  0  0
    3.9441   -0.9164   -0.9728 H   0  0  0  0  0  0  0  0  0  0  0  0
    4.3529    0.2493   -2.2443 H   0  0  0  0  0  0  0  0  0  0  0  0
    2.4837    1.7160   -1.6000 H   0  0  0  0  0  0  0  0  0  0  0  0
    1.9036    0.0960   -1.9519 H   0  0  0  0  0  0  0  0  0  0  0  0
   -0.1616    0.0807   -1.5098 H   0  0  0  0  0  0  0  0  0  0  0  0
    1.4883   -1.8405   -0.9117 H   0  0  0  0  0  0  0  0  0  0  0  0
    0.0047   -2.2949   -1.7316 H   0  0  0  0  0  0  0  0  0  0  0  0
    0.5300   -2.4541    1.2758 H   0  0  0  0  0  0  0  0  0  0  0  0
    0.5105   -3.8086    0.1491 H   0  0  0  0  0  0  0  0  0  0  0  0
   -1.5887   -3.6282    1.3757 H   0  0  0  0  0  0  0  0  0  0  0  0
   -1.8676   -3.4342   -0.3637 H   0  0  0  0  0  0  0  0  0  0  0  0
   -5.2605   -3.8414    2.8793 H   0  0  0  0  0  0  0  0  0  0  0  0
   -7.8388    1.1943    2.1300 H   0  0  0  0  0  0  0  0  0  0  0  0
   -8.1192   -0.5468    2.1204 H   0  0  0  0  0  0  0  0  0  0  0  0
   -8.5382   -0.3991   -0.4176 H   0  0  0  0  0  0  0  0  0  0  0  0
   -9.7589    0.2884    0.6525 H   0  0  0  0  0  0  0  0  0  0  0  0
   -8.8719    2.5715    0.2870 H   0  0  0  0  0  0  0  0  0  0  0  0
   -9.4415    1.7910   -1.1791 H   0  0  0  0  0  0  0  0  0  0  0  0
   -7.4329    2.9724   -1.6955 H   0  0  0  0  0  0  0  0  0  0  0  0
   -7.0996    1.2498   -1.8460 H   0  0  0  0  0  0  0  0  0  0  0  0
   -5.3158    2.7118   -0.7109 H   0  0  0  0  0  0  0  0  0  0  0  0
   -6.4086    2.9118    0.6534 H   0  0  0  0  0  0  0  0  0  0  0  0
   -1.9972    0.4067    0.2051 H   0  0  0  0  0  0  0  0  0  0  0  0
   -2.2640   -0.7262   -1.1326 H   0  0  0  0  0  0  0  0  0  0  0  0
    2.2863    1.3497    2.0890 H   0  0  0  0  0  0  0  0  0  0  0  0
    2.7165    2.4736    0.7907 H   0  0  0  0  0  0  0  0  0  0  0  0
    4.1403   -0.1461    1.5145 H   0  0  0  0  0  0  0  0  0  0  0  0
    4.7498    1.5035    1.8044 H   0  0  0  0  0  0  0  0  0  0  0  0
    6.3258    1.5333   -2.2711 H   0  0  0  0  0  0  0  0  0  0  0  0
    8.6944    1.0678   -2.5470 H   0  0  0  0  0  0  0  0  0  0  0  0
  1  2  1  0
  2  3  1  0
  3  4  2  0
  4  5  1  0
  5  6  2  0
  6  7  1  0
  7  8  1  0
  8  9  1  0
  9 10  1  0
 10 11  1  0
 11 12  2  0
 11 13  1  0
 13 14  1  0
 14 15  1  0
 15 16  1  0
 16 17  1  0
 17 18  1  0
 18 19  2  0
 19 20  1  0
 20 21  2  0
 21 22  1  0
 22 23  2  0
 23 24  1  0
 24 25  2  0
 25 26  1  0
 26 27  1  0
 27 28  1  0
 28 29  1  0
 29 30  1  0
 30 31  1  0
 17 32  1  0
 10 33  1  0
 33 34  1  0
  6 35  1  0
 35 36  2  0
 36  3  1  0
 34  7  1  0
 32 13  1  0
 23 18  1  0
 31 25  1  0
 26 22  1  0
  1 37  1  0
  1 38  1  0
  1 39  1  0
  4 40  1  0
  5 41  1  0
  8 42  1  0
  8 43  1  0
  9 44  1  0
  9 45  1  0
 13 46  1  0
 14 47  1  0
 14 48  1  0
 15 49  1  0
 15 50  1  0
 16 51  1  0
 16 52  1  0
 20 53  1  0
 27 54  1  0
 27 55  1  0
 28 56  1  0
 28 57  1  0
 29 58  1  0
 29 59  1  0
 30 60  1  0
 30 61  1  0
 31 62  1  0
 31 63  1  0
 32 64  1  0
 32 65  1  0
 33 66  1  0
 33 67  1  0
 34 68  1  0
 34 69  1  0
 35 70  1  0
 36 71  1  0
M  END
$$$$
