
     RDKit          3D

 37 39  0  0  0  0  0  0  0  0999 V2000
   -2.6847   -3.3200   -2.4623 C   0  0  0  0  0  0  0  0  0  0  0  0
   -3.2762   -2.0848   -2.8375 O   0  0  0  0  0  0  0  0  0  0  0  0
   -2.8019   -0.9472   -2.2409 C   0  0  0  0  0  0  0  0  0  0  0  0
   -1.8049   -0.9067   -1.2628 C   0  0  0  0  0  0  0  0  0  0  0  0
   -1.3855    0.3178   -0.7151 C   0  0  0  0  0  0  0  0  0  0  0  0
   -0.3564    0.3785    0.3352 C   0  0  0  0  0  0  0  0  0  0  0  0
    0.8005   -0.2997    0.2586 C   0  0  0  0  0  0  0  0  0  0  0  0
    1.8390   -0.2793    1.2397 C   0  0  0  0  0  0  0  0  0  0  0  0
    2.9556   -0.9719    1.1182 N   0  0  0  0  0  0  0  0  0  0  0  0
    3.7899   -0.7752    2.2046 C   0  0  0  0  0  0  0  0  0  0  0  0
    5.0573   -1.3632    2.3919 C   0  0  0  0  0  0  0  0  0  0  0  0
    5.7950   -1.0736    3.5445 C   0  0  0  0  0  0  0  0  0  0  0  0
    5.2853   -0.2083    4.5073 C   0  0  0  0  0  0  0  0  0  0  0  0
    4.0305    0.3870    4.3435 C   0  0  0  0  0  0  0  0  0  0  0  0
    3.2997    0.0879    3.1814 C   0  0  0  0  0  0  0  0  0  0  0  0
    1.7521    0.6514    2.6969 S   0  0  0  0  0  0  0  0  0  0  0  0
   -1.9902    1.5125   -1.1349 C   0  0  0  0  0  0  0  0  0  0  0  0
   -2.9860    1.4902   -2.1103 C   0  0  0  0  0  0  0  0  0  0  0  0
   -3.6480    2.5827   -2.6132 O   0  0  0  0  0  0  0  0  0  0  0  0
   -3.2627    3.8553   -2.1064 C   0  0  0  0  0  0  0  0  0  0  0  0
   -3.3800    0.2587   -2.6532 C   0  0  0  0  0  0  0  0  0  0  0  0
   -4.3638    0.2469   -3.6139 O   0  0  0  0  0  0  0  0  0  0  0  0
   -3.1640   -4.1118   -3.0461 H   0  0  0  0  0  0  0  0  0  0  0  0
   -1.6153   -3.3346   -2.6976 H   0  0  0  0  0  0  0  0  0  0  0  0
   -2.8601   -3.5356   -1.4032 H   0  0  0  0  0  0  0  0  0  0  0  0
   -1.3474   -1.8223   -0.9019 H   0  0  0  0  0  0  0  0  0  0  0  0
   -0.5949    1.0306    1.1709 H   0  0  0  0  0  0  0  0  0  0  0  0
    1.0097   -0.9208   -0.6090 H   0  0  0  0  0  0  0  0  0  0  0  0
    5.4502   -2.0376    1.6375 H   0  0  0  0  0  0  0  0  0  0  0  0
    6.7724   -1.5292    3.6854 H   0  0  0  0  0  0  0  0  0  0  0  0
    5.8689    0.0089    5.3997 H   0  0  0  0  0  0  0  0  0  0  0  0
    3.6335    1.0620    5.0955 H   0  0  0  0  0  0  0  0  0  0  0  0
   -1.6601    2.4465   -0.6918 H   0  0  0  0  0  0  0  0  0  0  0  0
   -3.4631    3.9288   -1.0325 H   0  0  0  0  0  0  0  0  0  0  0  0
   -3.8700    4.6130   -2.6109 H   0  0  0  0  0  0  0  0  0  0  0  0
   -2.2120    4.0676   -2.3298 H   0  0  0  0  0  0  0  0  0  0  0  0
   -4.6127    1.1818   -3.7374 H   0  0  0  0  0  0  0  0  0  0  0  0
  1  2  1  0
  2  3  1  0
  3  4  2  0
  4  5  1  0
  5  6  1  0
  6  7  2  3
  7  8  1  0
  8  9  2  0
  9 10  1  0
 10 11  2  0
 11 12  1  0
 12 13  2  0
 13 14  1  0
 14 15  2  0
 15 16  1  0
  5 17  2  0
 17 18  1  0
 18 19  1  0
 19 20  1  0
 18 21  2  0
 21 22  1  0
 21  3  1  0
 16  8  1  0
 15 10  1  0
  1 23  1  0
  1 24  1  0
  1 25  1  0
  4 26  1  0
  6 27  1  0
  7 28  1  0
 11 29  1  0
 12 30  1  0
 13 31  1  0
 14 32  1  0
 17 33  1  0
 20 34  1  0
 20 35  1  0
 20 36  1  0
 22 37  1  0
M  END
$$$$
