
     RDKit          3D

 42 43  0  0  0  0  0  0  0  0999 V2000
   -2.0034    3.3291    1.7863 C   0  0  0  0  0  0  0  0  0  0  0  0
   -0.8814    2.7126    0.9989 C   0  0  0  0  0  0  0  0  0  0  0  0
    0.3863    3.3241    1.0527 C   0  0  0  0  0  0  0  0  0  0  0  0
    1.4711    2.8117    0.3359 C   0  0  0  0  0  0  0  0  0  0  0  0
    1.2948    1.6773   -0.4526 C   0  0  0  0  0  0  0  0  0  0  0  0
    2.6631    0.9775   -1.3443 S   0  0  0  0  0  6  0  0  0  0  0  0
    3.8672    1.6741   -0.9301 O   0  0  0  0  0  0  0  0  0  0  0  0
    2.2726    0.9304   -2.7402 O   0  0  0  0  0  0  0  0  0  0  0  0
    2.8228   -0.6997   -0.7616 C   0  0  0  0  0  0  0  0  0  0  0  0
    2.3129   -1.7544   -1.5259 C   0  0  0  0  0  0  0  0  0  0  0  0
    2.4274   -3.0624   -1.0511 C   0  0  0  0  0  0  0  0  0  0  0  0
    3.0562   -3.3056    0.1712 C   0  0  0  0  0  0  0  0  0  0  0  0
    3.1859   -4.9177    0.7568 Cl  0  0  0  0  0  0  0  0  0  0  0  0
    3.5794   -2.2524    0.9236 C   0  0  0  0  0  0  0  0  0  0  0  0
    3.4670   -0.9414    0.4565 C   0  0  0  0  0  0  0  0  0  0  0  0
    0.0503    1.0538   -0.5310 C   0  0  0  0  0  0  0  0  0  0  0  0
   -1.0298    1.5555    0.2124 C   0  0  0  0  0  0  0  0  0  0  0  0
   -2.5550    0.6313    0.1048 S   0  0  0  0  0  6  0  0  0  0  0  0
   -3.3651    0.8724    1.2785 O   0  0  0  0  0  0  0  0  0  0  0  0
   -3.0719    0.8405   -1.2287 O   0  0  0  0  0  0  0  0  0  0  0  0
   -2.0077   -0.9863    0.2365 N   0  0  0  0  0  0  0  0  0  0  0  0
   -1.5504   -1.3916    1.5812 C   0  0  0  0  0  0  0  0  0  0  0  0
   -2.9423   -1.9775   -0.3704 C   0  0  0  0  0  0  0  0  0  0  0  0
   -2.9167   -1.9929   -1.8839 C   0  0  0  0  0  0  0  0  0  0  0  0
   -3.8303   -2.3652   -2.6051 O   0  0  0  0  0  0  0  0  0  0  0  0
   -1.7308   -1.6347   -2.4257 O   0  0  0  0  0  0  0  0  0  0  0  0
   -2.2266    2.7239    2.6699 H   0  0  0  0  0  0  0  0  0  0  0  0
   -2.8980    3.4418    1.1659 H   0  0  0  0  0  0  0  0  0  0  0  0
   -1.7389    4.3341    2.1341 H   0  0  0  0  0  0  0  0  0  0  0  0
    0.5372    4.2187    1.6567 H   0  0  0  0  0  0  0  0  0  0  0  0
    2.4380    3.3080    0.3966 H   0  0  0  0  0  0  0  0  0  0  0  0
    1.8246   -1.5705   -2.4813 H   0  0  0  0  0  0  0  0  0  0  0  0
    2.0282   -3.8860   -1.6385 H   0  0  0  0  0  0  0  0  0  0  0  0
    4.0789   -2.4480    1.8695 H   0  0  0  0  0  0  0  0  0  0  0  0
    3.8847   -0.1233    1.0398 H   0  0  0  0  0  0  0  0  0  0  0  0
   -0.0874    0.1807   -1.1669 H   0  0  0  0  0  0  0  0  0  0  0  0
   -0.8850   -0.6415    2.0171 H   0  0  0  0  0  0  0  0  0  0  0  0
   -0.9768   -2.3213    1.5055 H   0  0  0  0  0  0  0  0  0  0  0  0
   -2.3994   -1.5567    2.2514 H   0  0  0  0  0  0  0  0  0  0  0  0
   -2.6733   -2.9885   -0.0435 H   0  0  0  0  0  0  0  0  0  0  0  0
   -3.9644   -1.7742   -0.0318 H   0  0  0  0  0  0  0  0  0  0  0  0
   -1.9142   -1.6314   -3.3892 H   0  0  0  0  0  0  0  0  0  0  0  0
  1  2  1  0
  2  3  2  0
  3  4  1  0
  4  5  2  0
  5  6  1  0
  6  7  2  0
  6  8  2  0
  6  9  1  0
  9 10  2  0
 10 11  1  0
 11 12  2  0
 12 13  1  0
 12 14  1  0
 14 15  2  0
  5 16  1  0
 16 17  2  0
 17 18  1  0
 18 19  2  0
 18 20  2  0
 18 21  1  0
 21 22  1  0
 21 23  1  0
 23 24  1  0
 24 25  2  0
 24 26  1  0
 17  2  1  0
 15  9  1  0
  1 27  1  0
  1 28  1  0
  1 29  1  0
  3 30  1  0
  4 31  1  0
 10 32  1  0
 11 33  1  0
 14 34  1  0
 15 35  1  0
 16 36  1  0
 22 37  1  0
 22 38  1  0
 22 39  1  0
 23 40  1  0
 23 41  1  0
 26 42  1  0
M  END
$$$$
