
     RDKit          3D

 35 36  0  0  0  0  0  0  0  0999 V2000
    4.4820   -1.0046    1.3613 C   0  0  0  0  0  0  0  0  0  0  0  0
    4.0473    0.4490    1.3014 C   0  0  0  0  0  0  0  0  0  0  0  0
    3.6559    0.8559   -0.0393 N   0  0  0  0  0  0  0  0  0  0  0  0
    4.6081    1.4120   -0.8243 N   0  0  0  0  0  0  0  0  0  0  0  0
    3.9664    1.6984   -1.9540 C   0  0  0  0  0  0  0  0  0  0  0  0
    2.6185    1.3309   -1.8895 C   0  0  0  0  0  0  0  0  0  0  0  0
    1.4446    1.5827   -3.3300 Br  0  0  0  0  0  0  0  0  0  0  0  0
    2.4084    0.7802   -0.6371 C   0  0  0  0  0  0  0  0  0  0  0  0
    1.2300    0.2147    0.0031 C   0  0  0  0  0  0  0  0  0  0  0  0
    1.3103   -0.4079    1.0564 O   0  0  0  0  0  0  0  0  0  0  0  0
    0.0434    0.4523   -0.6639 N   0  0  0  0  0  0  0  0  0  0  0  0
   -1.2611    0.0464   -0.3103 C   0  0  0  0  0  0  0  0  0  0  0  0
   -2.2994    0.4402   -1.1663 C   0  0  0  0  0  0  0  0  0  0  0  0
   -3.6309    0.0907   -0.9013 C   0  0  0  0  0  0  0  0  0  0  0  0
   -4.7326    0.5603   -1.8047 C   0  0  0  0  0  0  0  0  0  0  0  0
   -3.9233   -0.6490    0.2484 C   0  0  0  0  0  0  0  0  0  0  0  0
   -2.8993   -1.0678    1.1050 C   0  0  0  0  0  0  0  0  0  0  0  0
   -3.2213   -1.8436    2.3491 C   0  0  0  0  0  0  0  0  0  0  0  0
   -1.5722   -0.7059    0.8233 C   0  0  0  0  0  0  0  0  0  0  0  0
    4.7748   -1.2697    2.3815 H   0  0  0  0  0  0  0  0  0  0  0  0
    3.6790   -1.6798    1.0498 H   0  0  0  0  0  0  0  0  0  0  0  0
    5.3389   -1.1848    0.7033 H   0  0  0  0  0  0  0  0  0  0  0  0
    4.8771    1.0968    1.6090 H   0  0  0  0  0  0  0  0  0  0  0  0
    3.2231    0.6581    1.9884 H   0  0  0  0  0  0  0  0  0  0  0  0
    4.5140    2.1568   -2.7674 H   0  0  0  0  0  0  0  0  0  0  0  0
    0.1119    0.9893   -1.5177 H   0  0  0  0  0  0  0  0  0  0  0  0
   -2.0818    1.0322   -2.0523 H   0  0  0  0  0  0  0  0  0  0  0  0
   -5.5890   -0.1213   -1.7670 H   0  0  0  0  0  0  0  0  0  0  0  0
   -5.0630    1.5590   -1.5031 H   0  0  0  0  0  0  0  0  0  0  0  0
   -4.3933    0.5970   -2.8452 H   0  0  0  0  0  0  0  0  0  0  0  0
   -4.9560   -0.9043    0.4788 H   0  0  0  0  0  0  0  0  0  0  0  0
   -3.3967   -1.1567    3.1829 H   0  0  0  0  0  0  0  0  0  0  0  0
   -2.4001   -2.5191    2.6121 H   0  0  0  0  0  0  0  0  0  0  0  0
   -4.1142   -2.4610    2.2048 H   0  0  0  0  0  0  0  0  0  0  0  0
   -0.7998   -1.0274    1.5145 H   0  0  0  0  0  0  0  0  0  0  0  0
  1  2  1  0
  2  3  1  0
  3  4  1  0
  4  5  2  0
  5  6  1  0
  6  7  1  0
  6  8  2  0
  8  9  1  0
  9 10  2  0
  9 11  1  0
 11 12  1  0
 12 13  2  0
 13 14  1  0
 14 15  1  0
 14 16  2  0
 16 17  1  0
 17 18  1  0
 17 19  2  0
  8  3  1  0
 19 12  1  0
  1 20  1  0
  1 21  1  0
  1 22  1  0
  2 23  1  0
  2 24  1  0
  5 25  1  0
 11 26  1  0
 13 27  1  0
 15 28  1  0
 15 29  1  0
 15 30  1  0
 16 31  1  0
 18 32  1  0
 18 33  1  0
 18 34  1  0
 19 35  1  0
M  END
$$$$
