
     RDKit          3D

 49 51  0  0  0  0  0  0  0  0999 V2000
   -9.0843    3.2891    2.6741 C   0  0  0  0  0  0  0  0  0  0  0  0
   -7.8725    3.0736    3.3860 O   0  0  0  0  0  0  0  0  0  0  0  0
   -6.8415    2.5023    2.6946 C   0  0  0  0  0  0  0  0  0  0  0  0
   -5.6765    2.3044    3.4362 C   0  0  0  0  0  0  0  0  0  0  0  0
   -4.5403    1.7278    2.8551 C   0  0  0  0  0  0  0  0  0  0  0  0
   -4.5543    1.3395    1.5168 C   0  0  0  0  0  0  0  0  0  0  0  0
   -3.4600    0.7509    0.8421 N   0  0  0  0  0  0  0  0  0  0  0  0
   -2.2119    0.4526    1.3654 C   0  0  0  0  0  0  0  0  0  0  0  0
   -1.8622    0.6572    2.5250 O   0  0  0  0  0  0  0  0  0  0  0  0
   -1.2425   -0.1716    0.3929 C   0  0  0  0  0  0  0  0  0  0  0  0
   -1.6279   -0.3856   -0.9577 C   0  0  0  0  0  0  0  0  0  0  0  0
   -2.0146   -0.5161   -2.0442 N   0  0  0  0  0  0  0  0  0  0  0  0
   -0.0278   -0.5178    0.8654 C   0  0  0  0  0  0  0  0  0  0  0  0
    1.0463   -1.1456    0.0869 C   0  0  0  0  0  0  0  0  0  0  0  0
    1.4955   -2.4180    0.4461 C   0  0  0  0  0  0  0  0  0  0  0  0
    2.5248   -3.0274   -0.2762 C   0  0  0  0  0  0  0  0  0  0  0  0
    3.1240   -2.3783   -1.3589 C   0  0  0  0  0  0  0  0  0  0  0  0
    4.1129   -3.0963   -1.9662 O   0  0  0  0  0  0  0  0  0  0  0  0
    4.7969   -2.5438   -3.0916 C   0  0  0  0  0  0  0  0  0  0  0  0
    5.9277   -1.6306   -2.6944 C   0  0  0  0  0  0  0  0  0  0  0  0
    6.0150   -0.3238   -3.1970 C   0  0  0  0  0  0  0  0  0  0  0  0
    7.0747    0.5092   -2.8266 C   0  0  0  0  0  0  0  0  0  0  0  0
    8.0626    0.0444   -1.9589 C   0  0  0  0  0  0  0  0  0  0  0  0
    7.9944   -1.2568   -1.4661 C   0  0  0  0  0  0  0  0  0  0  0  0
    6.9362   -2.0820   -1.8381 C   0  0  0  0  0  0  0  0  0  0  0  0
    6.9089   -3.3381   -1.3705 F   0  0  0  0  0  0  0  0  0  0  0  0
    2.6848   -1.1036   -1.7094 C   0  0  0  0  0  0  0  0  0  0  0  0
    1.6543   -0.4877   -0.9874 C   0  0  0  0  0  0  0  0  0  0  0  0
   -5.7257    1.5400    0.7740 C   0  0  0  0  0  0  0  0  0  0  0  0
   -6.8621    2.1169    1.3568 C   0  0  0  0  0  0  0  0  0  0  0  0
   -9.5125    2.3425    2.3281 H   0  0  0  0  0  0  0  0  0  0  0  0
   -9.8006    3.7460    3.3638 H   0  0  0  0  0  0  0  0  0  0  0  0
   -8.9347    3.9838    1.8409 H   0  0  0  0  0  0  0  0  0  0  0  0
   -5.6474    2.6011    4.4822 H   0  0  0  0  0  0  0  0  0  0  0  0
   -3.6660    1.6010    3.4848 H   0  0  0  0  0  0  0  0  0  0  0  0
   -3.6451    0.5324   -0.1304 H   0  0  0  0  0  0  0  0  0  0  0  0
    0.2214   -0.3617    1.9150 H   0  0  0  0  0  0  0  0  0  0  0  0
    1.0536   -2.9498    1.2855 H   0  0  0  0  0  0  0  0  0  0  0  0
    2.8675   -4.0195    0.0102 H   0  0  0  0  0  0  0  0  0  0  0  0
    5.2305   -3.3876   -3.6429 H   0  0  0  0  0  0  0  0  0  0  0  0
    4.0983   -2.0723   -3.7933 H   0  0  0  0  0  0  0  0  0  0  0  0
    5.2592    0.0572   -3.8802 H   0  0  0  0  0  0  0  0  0  0  0  0
    7.1307    1.5228   -3.2171 H   0  0  0  0  0  0  0  0  0  0  0  0
    8.8862    0.6930   -1.6714 H   0  0  0  0  0  0  0  0  0  0  0  0
    8.7591   -1.6376   -0.7966 H   0  0  0  0  0  0  0  0  0  0  0  0
    3.1211   -0.5509   -2.5326 H   0  0  0  0  0  0  0  0  0  0  0  0
    1.3429    0.5145   -1.2741 H   0  0  0  0  0  0  0  0  0  0  0  0
   -5.7772    1.2508   -0.2731 H   0  0  0  0  0  0  0  0  0  0  0  0
   -7.7423    2.2493    0.7368 H   0  0  0  0  0  0  0  0  0  0  0  0
  1  2  1  0
  2  3  1  0
  3  4  2  0
  4  5  1  0
  5  6  2  0
  6  7  1  0
  7  8  1  0
  8  9  2  0
  8 10  1  0
 10 11  1  0
 11 12  3  0
 10 13  2  3
 13 14  1  0
 14 15  2  0
 15 16  1  0
 16 17  2  0
 17 18  1  0
 18 19  1  0
 19 20  1  0
 20 21  2  0
 21 22  1  0
 22 23  2  0
 23 24  1  0
 24 25  2  0
 25 26  1  0
 17 27  1  0
 27 28  2  0
  6 29  1  0
 29 30  2  0
 30  3  1  0
 28 14  1  0
 25 20  1  0
  1 31  1  0
  1 32  1  0
  1 33  1  0
  4 34  1  0
  5 35  1  0
  7 36  1  0
 13 37  1  0
 15 38  1  0
 16 39  1  0
 19 40  1  0
 19 41  1  0
 21 42  1  0
 22 43  1  0
 23 44  1  0
 24 45  1  0
 27 46  1  0
 28 47  1  0
 29 48  1  0
 30 49  1  0
M  END
$$$$
