
     RDKit          3D

 48 50  0  0  0  0  0  0  0  0999 V2000
    5.7143   -0.3251   -1.9990 C   0  0  0  0  0  0  0  0  0  0  0  0
    5.3307    0.6407   -0.8864 C   0  0  0  0  0  0  0  0  0  0  0  0
    4.6989   -0.0718    0.2317 N   0  0  0  0  0  0  0  0  0  0  0  0
    5.6001   -0.4882    1.3141 C   0  0  0  0  0  0  0  0  0  0  0  0
    5.7052    0.5883    2.3858 C   0  0  0  0  0  0  0  0  0  0  0  0
    3.3251   -0.2875    0.2867 C   0  0  0  0  0  0  0  0  0  0  0  0
    2.4716    0.0201   -0.7883 C   0  0  0  0  0  0  0  0  0  0  0  0
    1.0850   -0.1958   -0.7418 C   0  0  0  0  0  0  0  0  0  0  0  0
    0.4957   -0.7314    0.3989 C   0  0  0  0  0  0  0  0  0  0  0  0
   -0.9435   -0.9931    0.4561 C   0  0  0  0  0  0  0  0  0  0  0  0
   -1.9357   -0.0970    0.6369 C   0  0  0  0  0  0  0  0  0  0  0  0
   -1.7159    1.3515    0.8397 C   0  0  0  0  0  0  0  0  0  0  0  0
   -0.6231    1.8899    0.9596 O   0  0  0  0  0  0  0  0  0  0  0  0
   -2.8552    2.0958    0.9188 N   0  0  0  0  0  0  0  0  0  0  0  0
   -4.1373    1.6447    1.0139 C   0  0  0  0  0  0  0  0  0  0  0  0
   -5.0254    2.4439    1.3026 O   0  0  0  0  0  0  0  0  0  0  0  0
   -4.3376    0.2960    0.8142 N   0  0  0  0  0  0  0  0  0  0  0  0
   -5.7112   -0.1898    0.7963 C   0  0  0  0  0  0  0  0  0  0  0  0
   -6.1846   -0.2614   -0.6148 C   0  0  0  0  0  0  0  0  0  0  0  0
   -6.1725   -1.2588   -1.5693 C   0  0  0  0  0  0  0  0  0  0  0  0
   -6.7645   -0.7073   -2.7309 C   0  0  0  0  0  0  0  0  0  0  0  0
   -7.0993    0.5878   -2.4122 C   0  0  0  0  0  0  0  0  0  0  0  0
   -6.7492    0.8679   -1.1309 O   0  0  0  0  0  0  0  0  0  0  0  0
   -3.3260   -0.6338    0.6370 C   0  0  0  0  0  0  0  0  0  0  0  0
   -3.5441   -1.8380    0.4989 O   0  0  0  0  0  0  0  0  0  0  0  0
    1.3082   -1.0552    1.4806 C   0  0  0  0  0  0  0  0  0  0  0  0
    2.6932   -0.8336    1.4186 C   0  0  0  0  0  0  0  0  0  0  0  0
    4.8406   -0.8431   -2.4062 H   0  0  0  0  0  0  0  0  0  0  0  0
    6.4113   -1.0872   -1.6341 H   0  0  0  0  0  0  0  0  0  0  0  0
    6.2005    0.2150   -2.8175 H   0  0  0  0  0  0  0  0  0  0  0  0
    6.2421    1.1433   -0.5371 H   0  0  0  0  0  0  0  0  0  0  0  0
    4.6970    1.4491   -1.2685 H   0  0  0  0  0  0  0  0  0  0  0  0
    5.2990   -1.4478    1.7496 H   0  0  0  0  0  0  0  0  0  0  0  0
    6.6031   -0.6702    0.9070 H   0  0  0  0  0  0  0  0  0  0  0  0
    6.0798    1.5274    1.9646 H   0  0  0  0  0  0  0  0  0  0  0  0
    4.7361    0.7969    2.8490 H   0  0  0  0  0  0  0  0  0  0  0  0
    6.3960    0.2709    3.1735 H   0  0  0  0  0  0  0  0  0  0  0  0
    2.8625    0.4355   -1.7115 H   0  0  0  0  0  0  0  0  0  0  0  0
    0.4829    0.0640   -1.6083 H   0  0  0  0  0  0  0  0  0  0  0  0
   -1.1768   -2.0509    0.3315 H   0  0  0  0  0  0  0  0  0  0  0  0
   -2.7237    3.0802    1.1032 H   0  0  0  0  0  0  0  0  0  0  0  0
   -6.3658    0.4676    1.3792 H   0  0  0  0  0  0  0  0  0  0  0  0
   -5.7627   -1.1834    1.2569 H   0  0  0  0  0  0  0  0  0  0  0  0
   -5.7765   -2.2576   -1.4389 H   0  0  0  0  0  0  0  0  0  0  0  0
   -6.9268   -1.1920   -3.6835 H   0  0  0  0  0  0  0  0  0  0  0  0
   -7.5665    1.3975   -2.9558 H   0  0  0  0  0  0  0  0  0  0  0  0
    0.8828   -1.4782    2.3871 H   0  0  0  0  0  0  0  0  0  0  0  0
    3.2624   -1.0961    2.3045 H   0  0  0  0  0  0  0  0  0  0  0  0
  1  2  1  0
  2  3  1  0
  3  4  1  0
  4  5  1  0
  3  6  1  0
  6  7  2  0
  7  8  1  0
  8  9  2  0
  9 10  1  0
 10 11  2  3
 11 12  1  0
 12 13  2  0
 12 14  1  0
 14 15  1  0
 15 16  2  0
 15 17  1  0
 17 18  1  0
 18 19  1  0
 19 20  2  0
 20 21  1  0
 21 22  2  0
 22 23  1  0
 17 24  1  0
 24 25  2  0
  9 26  1  0
 26 27  2  0
 27  6  1  0
 24 11  1  0
 23 19  1  0
  1 28  1  0
  1 29  1  0
  1 30  1  0
  2 31  1  0
  2 32  1  0
  4 33  1  0
  4 34  1  0
  5 35  1  0
  5 36  1  0
  5 37  1  0
  7 38  1  0
  8 39  1  0
 10 40  1  0
 14 41  1  0
 18 42  1  0
 18 43  1  0
 20 44  1  0
 21 45  1  0
 22 46  1  0
 26 47  1  0
 27 48  1  0
M  END
$$$$
