
     RDKit          3D

 35 38  0  0  0  0  0  0  0  0999 V2000
   -1.5899   -2.8112   -0.9081 O   0  0  0  0  0  0  0  0  0  0  0  0
   -2.3978   -1.9256   -0.7115 C   0  0  0  0  0  0  0  0  0  0  0  0
   -3.7562   -2.0027   -0.9851 N   0  0  0  0  0  0  0  0  0  0  0  0
   -4.4089   -0.8156   -0.6771 C   0  0  0  0  0  0  0  0  0  0  0  0
   -5.7537   -0.5470   -0.8350 C   0  0  0  0  0  0  0  0  0  0  0  0
   -6.2020    0.7214   -0.4610 C   0  0  0  0  0  0  0  0  0  0  0  0
   -5.3068    1.6767    0.0540 C   0  0  0  0  0  0  0  0  0  0  0  0
   -3.9467    1.3805    0.2044 C   0  0  0  0  0  0  0  0  0  0  0  0
   -3.5063    0.1216   -0.1683 C   0  0  0  0  0  0  0  0  0  0  0  0
   -2.1890   -0.5378   -0.1552 C   0  0  0  0  0  0  0  0  0  0  0  0
   -1.0596    0.0556    0.2601 C   0  0  0  0  0  0  0  0  0  0  0  0
    0.2674   -0.4382    0.3457 C   0  0  0  0  0  0  0  0  0  0  0  0
    0.7375   -1.7110    0.5253 C   0  0  0  0  0  0  0  0  0  0  0  0
    2.0990   -1.5820    0.5562 N   0  0  0  0  0  0  0  0  0  0  0  0
    2.4169   -0.2467    0.4416 C   0  0  0  0  0  0  0  0  0  0  0  0
    3.7826    0.2934    0.4528 C   0  0  0  0  0  0  0  0  0  0  0  0
    3.9660    1.6842    0.4028 C   0  0  0  0  0  0  0  0  0  0  0  0
    5.2457    2.2451    0.4126 C   0  0  0  0  0  0  0  0  0  0  0  0
    6.3651    1.4203    0.4715 C   0  0  0  0  0  0  0  0  0  0  0  0
    6.2044    0.0376    0.5192 C   0  0  0  0  0  0  0  0  0  0  0  0
    4.9223   -0.5233    0.5095 C   0  0  0  0  0  0  0  0  0  0  0  0
    1.3034    0.4606    0.3318 N   0  0  0  0  0  0  0  0  0  0  0  0
   -4.1820   -2.8268   -1.3794 H   0  0  0  0  0  0  0  0  0  0  0  0
   -6.4403   -1.2851   -1.2327 H   0  0  0  0  0  0  0  0  0  0  0  0
   -7.2542    0.9762   -0.5688 H   0  0  0  0  0  0  0  0  0  0  0  0
   -5.6776    2.6594    0.3388 H   0  0  0  0  0  0  0  0  0  0  0  0
   -3.2685    2.1276    0.6026 H   0  0  0  0  0  0  0  0  0  0  0  0
   -1.1306    1.0959    0.5689 H   0  0  0  0  0  0  0  0  0  0  0  0
    0.2583   -2.6734    0.6279 H   0  0  0  0  0  0  0  0  0  0  0  0
    2.7567   -2.3388    0.6622 H   0  0  0  0  0  0  0  0  0  0  0  0
    3.0990    2.3418    0.3548 H   0  0  0  0  0  0  0  0  0  0  0  0
    5.3628    3.3248    0.3730 H   0  0  0  0  0  0  0  0  0  0  0  0
    7.3613    1.8547    0.4782 H   0  0  0  0  0  0  0  0  0  0  0  0
    7.0786   -0.6072    0.5621 H   0  0  0  0  0  0  0  0  0  0  0  0
    4.8430   -1.6051    0.5423 H   0  0  0  0  0  0  0  0  0  0  0  0
  1  2  2  0
  2  3  1  0
  3  4  1  0
  4  5  2  0
  5  6  1  0
  6  7  2  0
  7  8  1  0
  8  9  2  0
  9 10  1  0
 10 11  2  3
 11 12  1  0
 12 13  2  0
 13 14  1  0
 14 15  1  0
 15 16  1  0
 16 17  2  0
 17 18  1  0
 18 19  2  0
 19 20  1  0
 20 21  2  0
 15 22  2  0
 10  2  1  0
 22 12  1  0
  9  4  1  0
 21 16  1  0
  3 23  1  0
  5 24  1  0
  6 25  1  0
  7 26  1  0
  8 27  1  0
 11 28  1  0
 13 29  1  0
 14 30  1  0
 17 31  1  0
 18 32  1  0
 19 33  1  0
 20 34  1  0
 21 35  1  0
M  END
$$$$
