
     RDKit          3D

 44 47  0  0  0  0  0  0  0  0999 V2000
    4.4553    0.4269    1.7051 C   0  0  0  0  0  0  0  0  0  0  0  0
    3.3667    0.1520    0.6532 C   0  0  0  0  0  0  0  0  0  0  0  0
    3.5904   -1.2621    0.0922 C   0  0  0  0  0  0  0  0  0  0  0  0
    1.9878    0.3234    1.3124 C   0  0  0  0  0  0  0  0  0  0  0  0
    0.8499    0.3579    0.2744 C   0  0  0  0  0  0  0  0  0  0  0  0
   -0.4187    0.8572    0.9817 C   0  0  0  0  0  0  0  0  0  0  0  0
   -1.6364    0.8243    0.0517 C   0  0  0  0  0  0  0  0  0  0  0  0
   -2.9127    1.0865    0.8339 C   0  0  0  0  0  0  0  0  0  0  0  0
   -3.7155    2.2118    0.7731 C   0  0  0  0  0  0  0  0  0  0  0  0
   -4.8423    2.1282    1.6405 C   0  0  0  0  0  0  0  0  0  0  0  0
   -4.8663    0.9444    2.3411 C   0  0  0  0  0  0  0  0  0  0  0  0
   -3.5371   -0.0569    1.9563 S   0  0  0  0  0  0  0  0  0  0  0  0
   -1.6503   -0.4382   -0.7844 C   0  0  0  0  0  0  0  0  0  0  0  0
   -2.7765   -0.7939   -1.5496 C   0  0  0  0  0  0  0  0  0  0  0  0
   -2.7785   -1.9593   -2.3205 C   0  0  0  0  0  0  0  0  0  0  0  0
   -4.1960   -2.3504   -3.2229 Cl  0  0  0  0  0  0  0  0  0  0  0  0
   -1.6473   -2.7756   -2.3481 C   0  0  0  0  0  0  0  0  0  0  0  0
   -1.6441   -3.9189   -3.0988 O   0  0  0  0  0  0  0  0  0  0  0  0
   -0.5149   -2.4215   -1.6182 C   0  0  0  0  0  0  0  0  0  0  0  0
   -0.5129   -1.2485   -0.8574 C   0  0  0  0  0  0  0  0  0  0  0  0
    0.6583   -0.9784   -0.2070 O   0  0  0  0  0  0  0  0  0  0  0  0
    1.2182    1.2083   -0.8458 N   0  0  0  0  0  0  0  0  0  0  0  0
    2.4808    1.4793   -1.2420 C   0  0  0  0  0  0  0  0  0  0  0  0
    2.7709    2.2626   -2.6759 S   0  0  0  0  0  0  0  0  0  0  0  0
    3.4971    1.1278   -0.4221 N   0  0  0  0  0  0  0  0  0  0  0  0
    4.3686    1.4419    2.1103 H   0  0  0  0  0  0  0  0  0  0  0  0
    4.3869   -0.2783    2.5408 H   0  0  0  0  0  0  0  0  0  0  0  0
    5.4585    0.3412    1.2711 H   0  0  0  0  0  0  0  0  0  0  0  0
    3.3875   -2.0269    0.8496 H   0  0  0  0  0  0  0  0  0  0  0  0
    4.6283   -1.3885   -0.2394 H   0  0  0  0  0  0  0  0  0  0  0  0
    2.9690   -1.4692   -0.7840 H   0  0  0  0  0  0  0  0  0  0  0  0
    1.9850    1.2725    1.8676 H   0  0  0  0  0  0  0  0  0  0  0  0
    1.8190   -0.4790    2.0423 H   0  0  0  0  0  0  0  0  0  0  0  0
   -0.2796    1.8766    1.3661 H   0  0  0  0  0  0  0  0  0  0  0  0
   -0.5992    0.2125    1.8531 H   0  0  0  0  0  0  0  0  0  0  0  0
   -1.5259    1.6507   -0.6661 H   0  0  0  0  0  0  0  0  0  0  0  0
   -3.5074    3.0598    0.1309 H   0  0  0  0  0  0  0  0  0  0  0  0
   -5.5980    2.8973    1.7446 H   0  0  0  0  0  0  0  0  0  0  0  0
   -5.6020    0.6168    3.0629 H   0  0  0  0  0  0  0  0  0  0  0  0
   -3.6661   -0.1669   -1.5387 H   0  0  0  0  0  0  0  0  0  0  0  0
   -0.7837   -4.3602   -3.0119 H   0  0  0  0  0  0  0  0  0  0  0  0
    0.3802   -3.0360   -1.6402 H   0  0  0  0  0  0  0  0  0  0  0  0
    0.5318    1.3544   -1.5743 H   0  0  0  0  0  0  0  0  0  0  0  0
    4.4210    1.2945   -0.8076 H   0  0  0  0  0  0  0  0  0  0  0  0
  1  2  1  0
  2  3  1  0
  2  4  1  0
  4  5  1  0
  5  6  1  0
  6  7  1  0
  7  8  1  0
  8  9  2  0
  9 10  1  0
 10 11  2  0
 11 12  1  0
  7 13  1  0
 13 14  2  0
 14 15  1  0
 15 16  1  0
 15 17  2  0
 17 18  1  0
 17 19  1  0
 19 20  2  0
 20 21  1  0
  5 22  1  0
 22 23  1  0
 23 24  2  0
 23 25  1  0
 25  2  1  0
 21  5  1  0
 12  8  1  0
 20 13  1  0
  1 26  1  0
  1 27  1  0
  1 28  1  0
  3 29  1  0
  3 30  1  0
  3 31  1  0
  4 32  1  0
  4 33  1  0
  6 34  1  0
  6 35  1  0
  7 36  1  0
  9 37  1  0
 10 38  1  0
 11 39  1  0
 14 40  1  0
 18 41  1  0
 19 42  1  0
 22 43  1  0
 25 44  1  0
M  END
$$$$
