
     RDKit          3D

 45 47  0  0  0  0  0  0  0  0999 V2000
   -1.9743   -1.8664   -2.0912 O   0  0  0  0  0  0  0  0  0  0  0  0
   -1.7817   -0.8552   -1.4185 C   0  0  0  0  0  0  0  0  0  0  0  0
   -0.3795   -0.2509   -1.2689 C   0  0  0  0  0  0  0  0  0  0  0  0
   -0.2706    0.9887   -0.5654 O   0  0  0  0  0  0  0  0  0  0  0  0
   -0.1349    0.8782    0.7869 C   0  0  0  0  0  0  0  0  0  0  0  0
   -0.3265   -0.1545    1.4147 O   0  0  0  0  0  0  0  0  0  0  0  0
    0.2416    2.2167    1.3836 C   0  0  0  0  0  0  0  0  0  0  0  0
    1.7006    2.0799    2.4636 S   0  0  0  0  0  0  0  0  0  0  0  0
    2.8843    1.5050    1.2597 C   0  0  0  0  0  0  0  0  0  0  0  0
    3.5434    2.4109    0.4288 C   0  0  0  0  0  0  0  0  0  0  0  0
    4.4340    1.9486   -0.5438 C   0  0  0  0  0  0  0  0  0  0  0  0
    4.6756    0.5748   -0.7014 C   0  0  0  0  0  0  0  0  0  0  0  0
    5.5549    0.0932   -1.6844 C   0  0  0  0  0  0  0  0  0  0  0  0
    5.7780   -1.2780   -1.8318 C   0  0  0  0  0  0  0  0  0  0  0  0
    5.1297   -2.1818   -0.9963 C   0  0  0  0  0  0  0  0  0  0  0  0
    4.2563   -1.7182   -0.0112 C   0  0  0  0  0  0  0  0  0  0  0  0
    4.0179   -0.3445    0.1476 C   0  0  0  0  0  0  0  0  0  0  0  0
    3.1336    0.1344    1.1274 C   0  0  0  0  0  0  0  0  0  0  0  0
   -2.7959   -0.1737   -0.7780 N   0  0  0  0  0  0  0  0  0  0  0  0
   -4.1536   -0.6976   -0.7470 C   0  0  0  0  0  0  0  0  0  0  0  0
   -5.1520    0.3939   -0.3555 C   0  0  0  0  0  0  0  0  0  0  0  0
   -5.4078    0.2293    1.1464 C   0  0  0  0  0  0  0  0  0  0  0  0
   -4.5479   -0.9434    1.6029 C   0  0  0  0  0  0  0  0  0  0  0  0
   -4.3221   -1.7593    0.3384 C   0  0  0  0  0  0  0  0  0  0  0  0
    0.2830   -1.0078   -0.8295 H   0  0  0  0  0  0  0  0  0  0  0  0
   -0.0143   -0.0593   -2.2845 H   0  0  0  0  0  0  0  0  0  0  0  0
    0.4494    2.9440    0.5912 H   0  0  0  0  0  0  0  0  0  0  0  0
   -0.6116    2.5862    1.9598 H   0  0  0  0  0  0  0  0  0  0  0  0
    3.3715    3.4808    0.5270 H   0  0  0  0  0  0  0  0  0  0  0  0
    4.9368    2.6711   -1.1820 H   0  0  0  0  0  0  0  0  0  0  0  0
    6.0724    0.7841   -2.3469 H   0  0  0  0  0  0  0  0  0  0  0  0
    6.4586   -1.6385   -2.5992 H   0  0  0  0  0  0  0  0  0  0  0  0
    5.3005   -3.2497   -1.1119 H   0  0  0  0  0  0  0  0  0  0  0  0
    3.7593   -2.4411    0.6328 H   0  0  0  0  0  0  0  0  0  0  0  0
    2.6222   -0.5696    1.7822 H   0  0  0  0  0  0  0  0  0  0  0  0
   -2.5253    0.4756   -0.0526 H   0  0  0  0  0  0  0  0  0  0  0  0
   -4.3822   -1.1079   -1.7371 H   0  0  0  0  0  0  0  0  0  0  0  0
   -6.0965    0.2495   -0.8966 H   0  0  0  0  0  0  0  0  0  0  0  0
   -4.7929    1.4029   -0.5944 H   0  0  0  0  0  0  0  0  0  0  0  0
   -5.1668    1.1408    1.7035 H   0  0  0  0  0  0  0  0  0  0  0  0
   -6.4697    0.0117    1.3163 H   0  0  0  0  0  0  0  0  0  0  0  0
   -5.0332   -1.5285    2.3912 H   0  0  0  0  0  0  0  0  0  0  0  0
   -3.5914   -0.5777    1.9973 H   0  0  0  0  0  0  0  0  0  0  0  0
   -3.4624   -2.4285    0.4348 H   0  0  0  0  0  0  0  0  0  0  0  0
   -5.2106   -2.3682    0.1297 H   0  0  0  0  0  0  0  0  0  0  0  0
  1  2  2  0
  2  3  1  0
  3  4  1  0
  4  5  1  0
  5  6  2  0
  5  7  1  0
  7  8  1  0
  8  9  1  0
  9 10  2  0
 10 11  1  0
 11 12  2  0
 12 13  1  0
 13 14  2  0
 14 15  1  0
 15 16  2  0
 16 17  1  0
 17 18  2  0
  2 19  1  0
 19 20  1  0
 20 21  1  0
 21 22  1  0
 22 23  1  0
 23 24  1  0
 18  9  1  0
 24 20  1  0
 17 12  1  0
  3 25  1  0
  3 26  1  0
  7 27  1  0
  7 28  1  0
 10 29  1  0
 11 30  1  0
 13 31  1  0
 14 32  1  0
 15 33  1  0
 16 34  1  0
 18 35  1  0
 19 36  1  0
 20 37  1  0
 21 38  1  0
 21 39  1  0
 22 40  1  0
 22 41  1  0
 23 42  1  0
 23 43  1  0
 24 44  1  0
 24 45  1  0
M  END
$$$$
