
     RDKit          3D

 39 41  0  0  0  0  0  0  0  0999 V2000
    2.6022    2.4978   -1.9039 C   0  0  0  0  0  0  0  0  0  0  0  0
    1.8413    2.6030   -0.6083 C   0  0  0  0  0  0  0  0  0  0  0  0
    2.2565    3.2747    0.3356 O   0  0  0  0  0  0  0  0  0  0  0  0
    0.5684    1.8493   -0.5062 C   0  0  0  0  0  0  0  0  0  0  0  0
    0.5941    0.5537   -0.1087 C   0  0  0  0  0  0  0  0  0  0  0  0
    1.7388   -0.1391    0.3035 N   0  0  0  0  0  0  0  0  0  0  0  0
    2.6823    0.4047    1.3173 C   0  0  0  0  0  0  0  0  0  0  0  0
    3.1858   -0.7099    2.2482 C   0  0  0  0  0  0  0  0  0  0  0  0
    3.8643   -1.7745    1.5646 O   0  0  0  0  0  0  0  0  0  0  0  0
    3.4203   -1.9545    0.2131 C   0  0  0  0  0  0  0  0  0  0  0  0
    1.9482   -1.5735    0.0071 C   0  0  0  0  0  0  0  0  0  0  0  0
   -0.6036   -0.1272   -0.1308 N   0  0  0  0  0  0  0  0  0  0  0  0
   -1.8038    0.4805   -0.3913 C   0  0  0  0  0  0  0  0  0  0  0  0
   -3.0743   -0.2927   -0.2208 C   0  0  0  0  0  0  0  0  0  0  0  0
   -4.2727    0.3944    0.0106 C   0  0  0  0  0  0  0  0  0  0  0  0
   -5.4654   -0.3107    0.1810 C   0  0  0  0  0  0  0  0  0  0  0  0
   -5.4678   -1.7031    0.1145 C   0  0  0  0  0  0  0  0  0  0  0  0
   -4.2804   -2.3930   -0.1285 C   0  0  0  0  0  0  0  0  0  0  0  0
   -3.0839   -1.6915   -0.2986 C   0  0  0  0  0  0  0  0  0  0  0  0
   -1.8849    1.7178   -0.7743 N   0  0  0  0  0  0  0  0  0  0  0  0
   -0.7329    2.4625   -0.9488 C   0  0  0  0  0  0  0  0  0  0  0  0
   -0.8446    4.0049   -1.6444 S   0  0  0  0  0  0  0  0  0  0  0  0
    2.0494    1.9077   -2.6403 H   0  0  0  0  0  0  0  0  0  0  0  0
    2.7613    3.4997   -2.3110 H   0  0  0  0  0  0  0  0  0  0  0  0
    3.5632    2.0113   -1.7173 H   0  0  0  0  0  0  0  0  0  0  0  0
    2.1930    1.1711    1.9283 H   0  0  0  0  0  0  0  0  0  0  0  0
    3.5352    0.8524    0.7954 H   0  0  0  0  0  0  0  0  0  0  0  0
    2.3471   -1.1522    2.7987 H   0  0  0  0  0  0  0  0  0  0  0  0
    3.8807   -0.2989    2.9874 H   0  0  0  0  0  0  0  0  0  0  0  0
    3.5784   -3.0059   -0.0467 H   0  0  0  0  0  0  0  0  0  0  0  0
    4.0683   -1.3542   -0.4363 H   0  0  0  0  0  0  0  0  0  0  0  0
    1.6617   -1.7839   -1.0295 H   0  0  0  0  0  0  0  0  0  0  0  0
    1.3164   -2.1735    0.6726 H   0  0  0  0  0  0  0  0  0  0  0  0
   -0.5974   -0.9773    0.4150 H   0  0  0  0  0  0  0  0  0  0  0  0
   -4.2835    1.4814    0.0618 H   0  0  0  0  0  0  0  0  0  0  0  0
   -6.3920    0.2287    0.3618 H   0  0  0  0  0  0  0  0  0  0  0  0
   -6.3988   -2.2502    0.2433 H   0  0  0  0  0  0  0  0  0  0  0  0
   -4.2903   -3.4783   -0.1952 H   0  0  0  0  0  0  0  0  0  0  0  0
   -2.1805   -2.2512   -0.5190 H   0  0  0  0  0  0  0  0  0  0  0  0
  1  2  1  0
  2  3  2  0
  2  4  1  0
  4  5  2  0
  5  6  1  0
  6  7  1  0
  7  8  1  0
  8  9  1  0
  9 10  1  0
 10 11  1  0
  5 12  1  0
 12 13  1  0
 13 14  1  0
 14 15  2  0
 15 16  1  0
 16 17  2  0
 17 18  1  0
 18 19  2  0
 13 20  2  0
 20 21  1  0
 21 22  2  0
 21  4  1  0
 11  6  1  0
 19 14  1  0
  1 23  1  0
  1 24  1  0
  1 25  1  0
  7 26  1  0
  7 27  1  0
  8 28  1  0
  8 29  1  0
 10 30  1  0
 10 31  1  0
 11 32  1  0
 11 33  1  0
 12 34  1  0
 15 35  1  0
 16 36  1  0
 17 37  1  0
 18 38  1  0
 19 39  1  0
M  END
$$$$
