
     RDKit          3D

 30 31  0  0  0  0  0  0  0  0999 V2000
    1.3970   -1.6839   -1.2841 C   0  0  0  0  0  0  0  0  0  0  0  0
    1.9380   -0.7223   -0.2434 C   0  0  0  0  0  0  0  0  0  0  0  0
    1.1859    0.1214    0.4024 N   0  0  0  0  0  0  0  0  0  0  0  0
   -0.1486    0.1817    0.1329 N   0  0  0  0  0  0  0  0  0  0  0  0
   -0.9630    1.0577    0.8281 C   0  0  0  0  0  0  0  0  0  0  0  0
   -0.5823    1.8006    1.7294 O   0  0  0  0  0  0  0  0  0  0  0  0
   -2.4083    1.0749    0.4289 C   0  0  0  0  0  0  0  0  0  0  0  0
   -3.2542    1.9423    1.1419 C   0  0  0  0  0  0  0  0  0  0  0  0
   -4.6106    2.0181    0.8332 C   0  0  0  0  0  0  0  0  0  0  0  0
   -5.6334    3.0839    1.7147 Cl  0  0  0  0  0  0  0  0  0  0  0  0
   -5.1478    1.2360   -0.1860 C   0  0  0  0  0  0  0  0  0  0  0  0
   -4.3231    0.3698   -0.9046 C   0  0  0  0  0  0  0  0  0  0  0  0
   -2.9601    0.2897   -0.5990 C   0  0  0  0  0  0  0  0  0  0  0  0
   -2.1781   -0.5718   -1.3271 O   0  0  0  0  0  0  0  0  0  0  0  0
    3.3767   -0.7337    0.0163 C   0  0  0  0  0  0  0  0  0  0  0  0
    4.4046   -1.2749   -0.7416 C   0  0  0  0  0  0  0  0  0  0  0  0
    5.6905   -1.0856   -0.1483 C   0  0  0  0  0  0  0  0  0  0  0  0
    5.5919   -0.4051    1.0363 C   0  0  0  0  0  0  0  0  0  0  0  0
    7.0988    0.0393    2.1241 Br  0  0  0  0  0  0  0  0  0  0  0  0
    4.0037    0.0067    1.4407 S   0  0  0  0  0  0  0  0  0  0  0  0
    0.5032   -2.1864   -0.9024 H   0  0  0  0  0  0  0  0  0  0  0  0
    2.1149   -2.4652   -1.5413 H   0  0  0  0  0  0  0  0  0  0  0  0
    1.1391   -1.1261   -2.1891 H   0  0  0  0  0  0  0  0  0  0  0  0
   -0.5599   -0.3708   -0.6142 H   0  0  0  0  0  0  0  0  0  0  0  0
   -2.8500    2.5609    1.9420 H   0  0  0  0  0  0  0  0  0  0  0  0
   -6.2070    1.2979   -0.4240 H   0  0  0  0  0  0  0  0  0  0  0  0
   -4.7631   -0.2310   -1.6960 H   0  0  0  0  0  0  0  0  0  0  0  0
   -2.7385   -1.0170   -1.9894 H   0  0  0  0  0  0  0  0  0  0  0  0
    4.2600   -1.7782   -1.6895 H   0  0  0  0  0  0  0  0  0  0  0  0
    6.6237   -1.4290   -0.5772 H   0  0  0  0  0  0  0  0  0  0  0  0
  1  2  1  0
  2  3  2  3
  3  4  1  0
  4  5  1  0
  5  6  2  0
  5  7  1  0
  7  8  2  0
  8  9  1  0
  9 10  1  0
  9 11  2  0
 11 12  1  0
 12 13  2  0
 13 14  1  0
  2 15  1  0
 15 16  2  0
 16 17  1  0
 17 18  2  0
 18 19  1  0
 18 20  1  0
 13  7  1  0
 20 15  1  0
  1 21  1  0
  1 22  1  0
  1 23  1  0
  4 24  1  0
  8 25  1  0
 11 26  1  0
 12 27  1  0
 14 28  1  0
 16 29  1  0
 17 30  1  0
M  END
$$$$
