
     RDKit          3D

 46 49  0  0  0  0  0  0  0  0999 V2000
   -4.0314   -3.0679    0.2682 C   0  0  0  0  0  0  0  0  0  0  0  0
   -4.2798   -2.2706   -1.0056 C   0  0  0  0  0  0  0  0  0  0  0  0
   -3.9507   -0.7648   -0.9134 C   0  0  0  0  0  0  0  0  0  0  0  0
   -4.9641   -0.0121   -0.0245 C   0  0  0  0  0  0  0  0  0  0  0  0
   -4.4714    1.3999    0.2867 C   0  0  0  0  0  0  0  0  0  0  0  0
   -3.0951    1.3942    0.9630 C   0  0  0  0  0  0  0  0  0  0  0  0
   -2.3797    0.0506    0.8375 C   0  0  0  0  0  0  0  0  0  0  0  0
   -2.5602   -0.4967   -0.5059 N   0  0  0  0  0  0  0  0  0  0  0  0
   -1.5313   -0.7430   -1.4262 C   0  0  0  0  0  0  0  0  0  0  0  0
   -1.7650   -1.2606   -2.5180 O   0  0  0  0  0  0  0  0  0  0  0  0
   -0.1877   -0.3381   -1.0615 C   0  0  0  0  0  0  0  0  0  0  0  0
    0.3135    0.9333   -0.8598 C   0  0  0  0  0  0  0  0  0  0  0  0
    1.7013    0.9074   -0.5318 C   0  0  0  0  0  0  0  0  0  0  0  0
    2.5900    2.0116   -0.2366 C   0  0  0  0  0  0  0  0  0  0  0  0
    2.1782    3.1706   -0.2247 O   0  0  0  0  0  0  0  0  0  0  0  0
    3.9160    1.6294    0.0330 N   0  0  0  0  0  0  0  0  0  0  0  0
    4.8417    2.6270    0.3209 C   0  0  0  0  0  0  0  0  0  0  0  0
    6.1206    2.3512    0.5934 C   0  0  0  0  0  0  0  0  0  0  0  0
    6.5777    0.9901    0.5956 C   0  0  0  0  0  0  0  0  0  0  0  0
    5.7422   -0.0249    0.3275 C   0  0  0  0  0  0  0  0  0  0  0  0
    6.1704   -1.4594    0.3157 C   0  0  0  0  0  0  0  0  0  0  0  0
    4.2978    0.2738    0.0188 C   0  0  0  0  0  0  0  0  0  0  0  0
    3.4898   -0.7161   -0.2394 N   0  0  0  0  0  0  0  0  0  0  0  0
    2.2129   -0.3664   -0.5131 C   0  0  0  0  0  0  0  0  0  0  0  0
    1.0274   -1.5319   -0.8966 S   0  0  0  0  0  0  0  0  0  0  0  0
   -4.6380   -2.7044    1.1017 H   0  0  0  0  0  0  0  0  0  0  0  0
   -2.9781   -3.0322    0.5620 H   0  0  0  0  0  0  0  0  0  0  0  0
   -4.2925   -4.1188    0.1046 H   0  0  0  0  0  0  0  0  0  0  0  0
   -3.6900   -2.7291   -1.8075 H   0  0  0  0  0  0  0  0  0  0  0  0
   -5.3308   -2.3888   -1.2971 H   0  0  0  0  0  0  0  0  0  0  0  0
   -4.0535   -0.3562   -1.9286 H   0  0  0  0  0  0  0  0  0  0  0  0
   -5.9361    0.0329   -0.5296 H   0  0  0  0  0  0  0  0  0  0  0  0
   -5.1299   -0.5376    0.9227 H   0  0  0  0  0  0  0  0  0  0  0  0
   -5.1955    1.9227    0.9218 H   0  0  0  0  0  0  0  0  0  0  0  0
   -4.4096    1.9712   -0.6482 H   0  0  0  0  0  0  0  0  0  0  0  0
   -3.1982    1.6459    2.0250 H   0  0  0  0  0  0  0  0  0  0  0  0
   -2.4828    2.1866    0.5157 H   0  0  0  0  0  0  0  0  0  0  0  0
   -1.3292    0.1535    1.1154 H   0  0  0  0  0  0  0  0  0  0  0  0
   -2.8057   -0.6708    1.5450 H   0  0  0  0  0  0  0  0  0  0  0  0
   -0.2801    1.8363   -0.9458 H   0  0  0  0  0  0  0  0  0  0  0  0
    4.4824    3.6535    0.3155 H   0  0  0  0  0  0  0  0  0  0  0  0
    6.8308    3.1416    0.8152 H   0  0  0  0  0  0  0  0  0  0  0  0
    7.6253    0.8127    0.8213 H   0  0  0  0  0  0  0  0  0  0  0  0
    5.6094   -2.0351    1.0591 H   0  0  0  0  0  0  0  0  0  0  0  0
    7.2349   -1.5672    0.5503 H   0  0  0  0  0  0  0  0  0  0  0  0
    6.0041   -1.9031   -0.6713 H   0  0  0  0  0  0  0  0  0  0  0  0
  1  2  1  0
  2  3  1  0
  3  4  1  0
  4  5  1  0
  5  6  1  0
  6  7  1  0
  7  8  1  0
  8  9  1  0
  9 10  2  0
  9 11  1  0
 11 12  2  0
 12 13  1  0
 13 14  1  0
 14 15  2  0
 14 16  1  0
 16 17  1  0
 17 18  2  0
 18 19  1  0
 19 20  2  0
 20 21  1  0
 20 22  1  0
 22 23  2  0
 23 24  1  0
 24 25  1  0
  8  3  1  0
 25 11  1  0
 24 13  2  0
 22 16  1  0
  1 26  1  0
  1 27  1  0
  1 28  1  0
  2 29  1  0
  2 30  1  0
  3 31  1  0
  4 32  1  0
  4 33  1  0
  5 34  1  0
  5 35  1  0
  6 36  1  0
  6 37  1  0
  7 38  1  0
  7 39  1  0
 12 40  1  0
 17 41  1  0
 18 42  1  0
 19 43  1  0
 21 44  1  0
 21 45  1  0
 21 46  1  0
M  END
$$$$
