
     RDKit          3D

 55 59  0  0  0  0  0  0  0  0999 V2000
   -7.2581    4.2408    0.8411 C   0  0  0  0  0  0  0  0  0  0  0  0
   -6.3090    3.0793    0.8232 C   0  0  0  0  0  0  0  0  0  0  0  0
   -6.2847    2.1945   -0.2604 C   0  0  0  0  0  0  0  0  0  0  0  0
   -5.4200    1.0967   -0.2603 C   0  0  0  0  0  0  0  0  0  0  0  0
   -4.5768    0.8531    0.8320 C   0  0  0  0  0  0  0  0  0  0  0  0
   -3.6362   -0.3278    0.8262 C   0  0  0  0  0  0  0  0  0  0  0  0
   -1.9632    0.1740    0.3243 S   0  0  0  0  0  0  0  0  0  0  0  0
   -1.1187   -1.3688    0.4160 C   0  0  0  0  0  0  0  0  0  0  0  0
   -1.8206   -2.4602    0.5311 N   0  0  0  0  0  0  0  0  0  0  0  0
   -1.1657   -3.7124    0.5885 C   0  0  0  0  0  0  0  0  0  0  0  0
   -1.9329   -4.8738    0.6947 C   0  0  0  0  0  0  0  0  0  0  0  0
   -1.3165   -6.1270    0.7459 C   0  0  0  0  0  0  0  0  0  0  0  0
    0.0746   -6.2273    0.6929 C   0  0  0  0  0  0  0  0  0  0  0  0
    0.8543   -5.0750    0.5877 C   0  0  0  0  0  0  0  0  0  0  0  0
    0.2343   -3.8244    0.5346 C   0  0  0  0  0  0  0  0  0  0  0  0
    0.9803   -2.5875    0.4143 C   0  0  0  0  0  0  0  0  0  0  0  0
    2.2819   -2.4080    0.3479 N   0  0  0  0  0  0  0  0  0  0  0  0
    2.4564   -1.0491    0.2152 C   0  0  0  0  0  0  0  0  0  0  0  0
    3.8222   -0.4738    0.1069 C   0  0  0  0  0  0  0  0  0  0  0  0
    3.9745    0.4039   -1.1227 C   0  0  0  0  0  0  0  0  0  0  0  0
    4.0715   -0.0557   -2.2593 O   0  0  0  0  0  0  0  0  0  0  0  0
    4.0052    1.7565   -0.8586 N   0  0  0  0  0  0  0  0  0  0  0  0
    4.2511    2.7325   -1.8927 C   0  0  0  0  0  0  0  0  0  0  0  0
    5.6945    3.0719   -1.8775 C   0  0  0  0  0  0  0  0  0  0  0  0
    6.7963    2.5430   -2.5191 C   0  0  0  0  0  0  0  0  0  0  0  0
    7.9112    3.2987   -2.0855 C   0  0  0  0  0  0  0  0  0  0  0  0
    7.4210    4.2348   -1.2044 C   0  0  0  0  0  0  0  0  0  0  0  0
    6.0753    4.1051   -1.0693 O   0  0  0  0  0  0  0  0  0  0  0  0
    1.2384   -0.3900    0.2529 C   0  0  0  0  0  0  0  0  0  0  0  0
    0.9855    0.9176    0.2072 O   0  0  0  0  0  0  0  0  0  0  0  0
    0.2867   -1.3958    0.3557 N   0  0  0  0  0  0  0  0  0  0  0  0
   -4.6091    1.7373    1.9198 C   0  0  0  0  0  0  0  0  0  0  0  0
   -5.4692    2.8383    1.9165 C   0  0  0  0  0  0  0  0  0  0  0  0
   -6.7807    5.1230    1.2807 H   0  0  0  0  0  0  0  0  0  0  0  0
   -8.1487    3.9862    1.4246 H   0  0  0  0  0  0  0  0  0  0  0  0
   -7.5733    4.5118   -0.1731 H   0  0  0  0  0  0  0  0  0  0  0  0
   -6.9404    2.3533   -1.1142 H   0  0  0  0  0  0  0  0  0  0  0  0
   -5.4150    0.4295   -1.1195 H   0  0  0  0  0  0  0  0  0  0  0  0
   -3.6082   -0.7711    1.8267 H   0  0  0  0  0  0  0  0  0  0  0  0
   -4.0167   -1.0944    0.1397 H   0  0  0  0  0  0  0  0  0  0  0  0
   -3.0161   -4.8026    0.7348 H   0  0  0  0  0  0  0  0  0  0  0  0
   -1.9228   -7.0275    0.8238 H   0  0  0  0  0  0  0  0  0  0  0  0
    0.5518   -7.2043    0.7290 H   0  0  0  0  0  0  0  0  0  0  0  0
    1.9386   -5.1508    0.5421 H   0  0  0  0  0  0  0  0  0  0  0  0
    4.5702   -1.2701    0.0352 H   0  0  0  0  0  0  0  0  0  0  0  0
    4.0562    0.0929    1.0129 H   0  0  0  0  0  0  0  0  0  0  0  0
    3.9928    2.0847    0.0970 H   0  0  0  0  0  0  0  0  0  0  0  0
    3.6433    3.6148   -1.6685 H   0  0  0  0  0  0  0  0  0  0  0  0
    3.9505    2.3444   -2.8716 H   0  0  0  0  0  0  0  0  0  0  0  0
    6.7854    1.7096   -3.2083 H   0  0  0  0  0  0  0  0  0  0  0  0
    8.9448    3.1739   -2.3747 H   0  0  0  0  0  0  0  0  0  0  0  0
    7.8750    5.0219   -0.6195 H   0  0  0  0  0  0  0  0  0  0  0  0
    0.0208    1.0769    0.1855 H   0  0  0  0  0  0  0  0  0  0  0  0
   -3.9657    1.5735    2.7809 H   0  0  0  0  0  0  0  0  0  0  0  0
   -5.4763    3.5116    2.7717 H   0  0  0  0  0  0  0  0  0  0  0  0
  1  2  1  0
  2  3  2  0
  3  4  1  0
  4  5  2  0
  5  6  1  0
  6  7  1  0
  7  8  1  0
  8  9  2  0
  9 10  1  0
 10 11  2  0
 11 12  1  0
 12 13  2  0
 13 14  1  0
 14 15  2  0
 15 16  1  0
 16 17  2  0
 17 18  1  0
 18 19  1  0
 19 20  1  0
 20 21  2  0
 20 22  1  0
 22 23  1  0
 23 24  1  0
 24 25  2  0
 25 26  1  0
 26 27  2  0
 27 28  1  0
 18 29  2  0
 29 30  1  0
 29 31  1  0
  5 32  1  0
 32 33  2  0
 33  2  1  0
 31  8  1  0
 15 10  1  0
 31 16  1  0
 28 24  1  0
  1 34  1  0
  1 35  1  0
  1 36  1  0
  3 37  1  0
  4 38  1  0
  6 39  1  0
  6 40  1  0
 11 41  1  0
 12 42  1  0
 13 43  1  0
 14 44  1  0
 19 45  1  0
 19 46  1  0
 22 47  1  0
 23 48  1  0
 23 49  1  0
 25 50  1  0
 26 51  1  0
 27 52  1  0
 30 53  1  0
 32 54  1  0
 33 55  1  0
M  END
$$$$
