
     RDKit          3D

 43 46  0  0  0  0  0  0  0  0999 V2000
    1.9457    1.5996   -0.4689 O   0  0  0  0  0  0  0  0  0  0  0  0
    2.6222    0.7161    0.0554 C   0  0  0  0  0  0  0  0  0  0  0  0
    4.0690    0.6713   -0.2200 C   0  0  0  0  0  0  0  0  0  0  0  0
    4.6866    1.6447   -1.0128 C   0  0  0  0  0  0  0  0  0  0  0  0
    6.0584    1.5691   -1.2575 C   0  0  0  0  0  0  0  0  0  0  0  0
    6.8071    0.5243   -0.7131 C   0  0  0  0  0  0  0  0  0  0  0  0
    6.1870   -0.4469    0.0766 C   0  0  0  0  0  0  0  0  0  0  0  0
    4.8154   -0.3662    0.3195 C   0  0  0  0  0  0  0  0  0  0  0  0
    4.1889   -1.3328    1.1012 N   0  0  0  0  0  0  0  0  0  0  0  0
    2.8538   -1.3303    1.4040 C   0  0  0  0  0  0  0  0  0  0  0  0
    2.3144   -2.6055    2.3512 S   0  0  0  0  0  0  0  0  0  0  0  0
    2.0951   -0.2772    0.8967 N   0  0  0  0  0  0  0  0  0  0  0  0
    0.6461   -0.1696    1.1450 C   0  0  0  0  0  0  0  0  0  0  0  0
   -0.1775   -0.8228    0.0143 C   0  0  0  0  0  0  0  0  0  0  0  0
   -1.6360   -0.7795    0.2393 N   0  0  0  0  0  0  0  0  0  0  0  0
   -2.3272   -1.6390   -0.7374 C   0  0  0  0  0  0  0  0  0  0  0  0
   -3.8173   -1.7625   -0.3950 C   0  0  0  0  0  0  0  0  0  0  0  0
   -4.4647   -0.4233   -0.1593 C   0  0  0  0  0  0  0  0  0  0  0  0
   -5.8606   -0.3016   -0.1721 C   0  0  0  0  0  0  0  0  0  0  0  0
   -6.4620    0.9316    0.0769 C   0  0  0  0  0  0  0  0  0  0  0  0
   -5.6749    2.0486    0.3461 C   0  0  0  0  0  0  0  0  0  0  0  0
   -4.2847    1.9330    0.3717 C   0  0  0  0  0  0  0  0  0  0  0  0
   -3.6670    0.6959    0.1330 C   0  0  0  0  0  0  0  0  0  0  0  0
   -2.1541    0.6016    0.1278 C   0  0  0  0  0  0  0  0  0  0  0  0
    4.1035    2.4586   -1.4385 H   0  0  0  0  0  0  0  0  0  0  0  0
    6.5426    2.3241   -1.8728 H   0  0  0  0  0  0  0  0  0  0  0  0
    7.8762    0.4668   -0.9052 H   0  0  0  0  0  0  0  0  0  0  0  0
    6.7830   -1.2545    0.4925 H   0  0  0  0  0  0  0  0  0  0  0  0
    4.7346   -2.0966    1.4852 H   0  0  0  0  0  0  0  0  0  0  0  0
    0.3961    0.8938    1.2332 H   0  0  0  0  0  0  0  0  0  0  0  0
    0.3872   -0.6212    2.1077 H   0  0  0  0  0  0  0  0  0  0  0  0
    0.0774   -0.3697   -0.9527 H   0  0  0  0  0  0  0  0  0  0  0  0
    0.1380   -1.8720   -0.0525 H   0  0  0  0  0  0  0  0  0  0  0  0
   -2.2034   -1.2457   -1.7558 H   0  0  0  0  0  0  0  0  0  0  0  0
   -1.8996   -2.6493   -0.7277 H   0  0  0  0  0  0  0  0  0  0  0  0
   -3.9371   -2.3666    0.5132 H   0  0  0  0  0  0  0  0  0  0  0  0
   -4.3259   -2.2834   -1.2148 H   0  0  0  0  0  0  0  0  0  0  0  0
   -6.4844   -1.1689   -0.3742 H   0  0  0  0  0  0  0  0  0  0  0  0
   -7.5449    1.0201    0.0630 H   0  0  0  0  0  0  0  0  0  0  0  0
   -6.1434    3.0101    0.5379 H   0  0  0  0  0  0  0  0  0  0  0  0
   -3.6820    2.8140    0.5807 H   0  0  0  0  0  0  0  0  0  0  0  0
   -1.7861    1.1855    0.9790 H   0  0  0  0  0  0  0  0  0  0  0  0
   -1.7955    1.0762   -0.7954 H   0  0  0  0  0  0  0  0  0  0  0  0
  1  2  2  0
  2  3  1  0
  3  4  2  0
  4  5  1  0
  5  6  2  0
  6  7  1  0
  7  8  2  0
  8  9  1  0
  9 10  1  0
 10 11  2  0
 10 12  1  0
 12 13  1  0
 13 14  1  0
 14 15  1  0
 15 16  1  0
 16 17  1  0
 17 18  1  0
 18 19  2  0
 19 20  1  0
 20 21  2  0
 21 22  1  0
 22 23  2  0
 23 24  1  0
 12  2  1  0
 24 15  1  0
  8  3  1  0
 23 18  1  0
  4 25  1  0
  5 26  1  0
  6 27  1  0
  7 28  1  0
  9 29  1  0
 13 30  1  0
 13 31  1  0
 14 32  1  0
 14 33  1  0
 16 34  1  0
 16 35  1  0
 17 36  1  0
 17 37  1  0
 19 38  1  0
 20 39  1  0
 21 40  1  0
 22 41  1  0
 24 42  1  0
 24 43  1  0
M  END
$$$$
