
     RDKit          3D

 31 33  0  0  0  0  0  0  0  0999 V2000
    0.2280    1.3801    1.8186 O   0  0  0  0  0  0  0  0  0  0  0  0
   -0.8152    0.9018    2.2232 C   0  0  0  0  0  0  0  0  0  0  0  0
   -0.9503    0.5682    3.5225 O   0  0  0  0  0  0  0  0  0  0  0  0
   -2.0483    0.6191    1.4407 C   0  0  0  0  0  0  0  0  0  0  0  0
   -3.2725    0.4539    2.1129 C   0  0  0  0  0  0  0  0  0  0  0  0
   -4.4488    0.2062    1.4026 C   0  0  0  0  0  0  0  0  0  0  0  0
   -4.4160    0.1162    0.0144 C   0  0  0  0  0  0  0  0  0  0  0  0
   -3.2089    0.2784   -0.6662 C   0  0  0  0  0  0  0  0  0  0  0  0
   -2.0244    0.5472    0.0361 C   0  0  0  0  0  0  0  0  0  0  0  0
   -0.8028    0.6255   -0.7295 N   0  0  0  0  0  0  0  0  0  0  0  0
   -0.0107   -0.8850   -0.9134 S   0  0  0  0  0  6  0  0  0  0  0  0
   -0.1667   -1.6528    0.3020 O   0  0  0  0  0  0  0  0  0  0  0  0
   -0.4661   -1.3548   -2.2054 O   0  0  0  0  0  0  0  0  0  0  0  0
    1.6819   -0.4530   -1.0592 C   0  0  0  0  0  0  0  0  0  0  0  0
    2.1643    0.8419   -0.7701 C   0  0  0  0  0  0  0  0  0  0  0  0
    3.5280    1.1999   -0.8893 C   0  0  0  0  0  0  0  0  0  0  0  0
    4.5222    0.2996   -1.3057 C   0  0  0  0  0  0  0  0  0  0  0  0
    4.0913   -1.0161   -1.6011 C   0  0  0  0  0  0  0  0  0  0  0  0
    4.8823   -2.0200   -2.0081 N   0  0  0  0  0  0  0  0  0  0  0  0
    3.8990   -3.3418   -2.2075 S   0  0  0  0  0  0  0  0  0  0  0  0
    2.4293   -2.6972   -1.7936 N   0  0  0  0  0  0  0  0  0  0  0  0
    2.6369   -1.4090   -1.4752 C   0  0  0  0  0  0  0  0  0  0  0  0
   -0.0659    0.7495    3.9033 H   0  0  0  0  0  0  0  0  0  0  0  0
   -3.3204    0.5142    3.1983 H   0  0  0  0  0  0  0  0  0  0  0  0
   -5.3874    0.0733    1.9359 H   0  0  0  0  0  0  0  0  0  0  0  0
   -5.3283   -0.0948   -0.5389 H   0  0  0  0  0  0  0  0  0  0  0  0
   -3.2015    0.1736   -1.7489 H   0  0  0  0  0  0  0  0  0  0  0  0
   -0.9891    0.9582   -1.6782 H   0  0  0  0  0  0  0  0  0  0  0  0
    1.4760    1.6110   -0.4174 H   0  0  0  0  0  0  0  0  0  0  0  0
    3.8206    2.2204   -0.6376 H   0  0  0  0  0  0  0  0  0  0  0  0
    5.5637    0.5864   -1.3903 H   0  0  0  0  0  0  0  0  0  0  0  0
  1  2  2  0
  2  3  1  0
  2  4  1  0
  4  5  2  0
  5  6  1  0
  6  7  2  0
  7  8  1  0
  8  9  2  0
  9 10  1  0
 10 11  1  0
 11 12  2  0
 11 13  2  0
 11 14  1  0
 14 15  2  0
 15 16  1  0
 16 17  2  0
 17 18  1  0
 18 19  2  0
 19 20  1  0
 20 21  1  0
 21 22  2  0
  9  4  1  0
 22 14  1  0
 22 18  1  0
  3 23  1  0
  5 24  1  0
  6 25  1  0
  7 26  1  0
  8 27  1  0
 10 28  1  0
 15 29  1  0
 16 30  1  0
 17 31  1  0
M  END
$$$$
