
     RDKit          3D

 51 54  0  0  0  0  0  0  0  0999 V2000
   -2.4203   -3.8140   -3.5374 C   0  0  0  0  0  0  0  0  0  0  0  0
   -1.1656   -3.2252   -3.2215 O   0  0  0  0  0  0  0  0  0  0  0  0
   -1.1895   -2.0642   -2.4985 C   0  0  0  0  0  0  0  0  0  0  0  0
   -2.3340   -1.4168   -2.0245 C   0  0  0  0  0  0  0  0  0  0  0  0
   -2.2168   -0.2341   -1.2874 C   0  0  0  0  0  0  0  0  0  0  0  0
   -0.9497    0.2903   -1.0179 C   0  0  0  0  0  0  0  0  0  0  0  0
   -0.8272    1.5442   -0.2465 C   0  0  0  0  0  0  0  0  0  0  0  0
   -0.6341    2.6338   -0.9205 N   0  0  0  0  0  0  0  0  0  0  0  0
   -0.5419    3.8456   -0.2309 C   0  0  0  0  0  0  0  0  0  0  0  0
   -0.3182    5.0186   -0.9558 C   0  0  0  0  0  0  0  0  0  0  0  0
   -0.2286    6.2528   -0.3057 C   0  0  0  0  0  0  0  0  0  0  0  0
   -0.3636    6.3231    1.0804 C   0  0  0  0  0  0  0  0  0  0  0  0
   -0.5872    5.1589    1.8144 C   0  0  0  0  0  0  0  0  0  0  0  0
   -0.6746    3.9286    1.1511 C   0  0  0  0  0  0  0  0  0  0  0  0
   -0.9017    2.6780    1.8922 C   0  0  0  0  0  0  0  0  0  0  0  0
   -1.0366    2.7136    3.1143 O   0  0  0  0  0  0  0  0  0  0  0  0
   -0.9486    1.5030    1.1407 N   0  0  0  0  0  0  0  0  0  0  0  0
   -1.0784    0.2564    1.9134 C   0  0  0  0  0  0  0  0  0  0  0  0
    0.2193   -0.1385    2.6351 C   0  0  0  0  0  0  0  0  0  0  0  0
    1.2631   -0.4451    1.7079 O   0  0  0  0  0  0  0  0  0  0  0  0
    1.5002   -1.7568    1.3952 C   0  0  0  0  0  0  0  0  0  0  0  0
    0.5697   -2.7903    1.5338 C   0  0  0  0  0  0  0  0  0  0  0  0
    0.8942   -4.0909    1.1407 C   0  0  0  0  0  0  0  0  0  0  0  0
    2.1475   -4.3671    0.6032 C   0  0  0  0  0  0  0  0  0  0  0  0
    3.0797   -3.3422    0.4544 C   0  0  0  0  0  0  0  0  0  0  0  0
    2.7655   -2.0318    0.8442 C   0  0  0  0  0  0  0  0  0  0  0  0
    3.7834   -0.9383    0.6707 C   0  0  0  0  0  0  0  0  0  0  0  0
    0.1955   -0.3286   -1.5129 C   0  0  0  0  0  0  0  0  0  0  0  0
    0.0707   -1.5128   -2.2410 C   0  0  0  0  0  0  0  0  0  0  0  0
   -3.0267   -3.1442   -4.1560 H   0  0  0  0  0  0  0  0  0  0  0  0
   -2.9571   -4.1092   -2.6298 H   0  0  0  0  0  0  0  0  0  0  0  0
   -2.2273   -4.7205   -4.1192 H   0  0  0  0  0  0  0  0  0  0  0  0
   -3.3296   -1.8029   -2.2154 H   0  0  0  0  0  0  0  0  0  0  0  0
   -3.1081    0.2755   -0.9313 H   0  0  0  0  0  0  0  0  0  0  0  0
   -0.2141    4.9652   -2.0367 H   0  0  0  0  0  0  0  0  0  0  0  0
   -0.0536    7.1569   -0.8835 H   0  0  0  0  0  0  0  0  0  0  0  0
   -0.2935    7.2821    1.5878 H   0  0  0  0  0  0  0  0  0  0  0  0
   -0.6908    5.2087    2.8958 H   0  0  0  0  0  0  0  0  0  0  0  0
   -1.8643    0.4066    2.6636 H   0  0  0  0  0  0  0  0  0  0  0  0
   -1.4074   -0.5615    1.2721 H   0  0  0  0  0  0  0  0  0  0  0  0
    0.0444   -0.9575    3.3428 H   0  0  0  0  0  0  0  0  0  0  0  0
    0.5856    0.6979    3.2399 H   0  0  0  0  0  0  0  0  0  0  0  0
   -0.4264   -2.6175    1.9239 H   0  0  0  0  0  0  0  0  0  0  0  0
    0.1627   -4.8878    1.2456 H   0  0  0  0  0  0  0  0  0  0  0  0
    2.3973   -5.3786    0.2940 H   0  0  0  0  0  0  0  0  0  0  0  0
    4.0540   -3.5708    0.0286 H   0  0  0  0  0  0  0  0  0  0  0  0
    3.4030   -0.1687   -0.0083 H   0  0  0  0  0  0  0  0  0  0  0  0
    4.0207   -0.4847    1.6385 H   0  0  0  0  0  0  0  0  0  0  0  0
    4.7175   -1.3222    0.2472 H   0  0  0  0  0  0  0  0  0  0  0  0
    1.1775    0.0951   -1.3230 H   0  0  0  0  0  0  0  0  0  0  0  0
    0.9639   -2.0122   -2.6091 H   0  0  0  0  0  0  0  0  0  0  0  0
  1  2  1  0
  2  3  1  0
  3  4  2  0
  4  5  1  0
  5  6  2  0
  6  7  1  0
  7  8  2  0
  8  9  1  0
  9 10  2  0
 10 11  1  0
 11 12  2  0
 12 13  1  0
 13 14  2  0
 14 15  1  0
 15 16  2  0
 15 17  1  0
 17 18  1  0
 18 19  1  0
 19 20  1  0
 20 21  1  0
 21 22  2  0
 22 23  1  0
 23 24  2  0
 24 25  1  0
 25 26  2  0
 26 27  1  0
  6 28  1  0
 28 29  2  0
 29  3  1  0
 17  7  1  0
 26 21  1  0
 14  9  1  0
  1 30  1  0
  1 31  1  0
  1 32  1  0
  4 33  1  0
  5 34  1  0
 10 35  1  0
 11 36  1  0
 12 37  1  0
 13 38  1  0
 18 39  1  0
 18 40  1  0
 19 41  1  0
 19 42  1  0
 22 43  1  0
 23 44  1  0
 24 45  1  0
 25 46  1  0
 27 47  1  0
 27 48  1  0
 27 49  1  0
 28 50  1  0
 29 51  1  0
M  END
$$$$
