
     RDKit          3D

 47 48  0  0  0  0  0  0  0  0999 V2000
    7.0292   -1.4845    1.3469 C   0  0  0  0  0  0  0  0  0  0  0  0
    6.2125   -0.3065    0.9024 C   0  0  0  0  0  0  0  0  0  0  0  0
    6.7108    0.5811   -0.0583 C   0  0  0  0  0  0  0  0  0  0  0  0
    5.9371    1.6602   -0.4960 C   0  0  0  0  0  0  0  0  0  0  0  0
    4.6460    1.8672    0.0132 C   0  0  0  0  0  0  0  0  0  0  0  0
    3.8063    3.0272   -0.4659 C   0  0  0  0  0  0  0  0  0  0  0  0
    3.0671    2.7373   -2.0977 S   0  0  0  0  0  0  0  0  0  0  0  0
    1.7631    1.6714   -1.6830 C   0  0  0  0  0  0  0  0  0  0  0  0
    1.1623    1.6200   -0.5095 N   0  0  0  0  0  0  0  0  0  0  0  0
    0.1860    0.6511   -0.5995 N   0  0  0  0  0  0  0  0  0  0  0  0
    0.2431    0.1910   -1.8313 C   0  0  0  0  0  0  0  0  0  0  0  0
   -0.5750   -0.8579   -2.4829 C   0  0  0  0  0  0  0  0  0  0  0  0
   -2.0694   -0.5710   -2.3556 C   0  0  0  0  0  0  0  0  0  0  0  0
   -2.5559   -0.6958   -0.9957 N   0  0  0  0  0  0  0  0  0  0  0  0
   -3.8830   -0.8494   -0.7224 C   0  0  0  0  0  0  0  0  0  0  0  0
   -4.7443   -1.0849   -1.5547 O   0  0  0  0  0  0  0  0  0  0  0  0
   -4.0734   -0.6802    0.6055 O   0  0  0  0  0  0  0  0  0  0  0  0
   -5.4024   -0.7637    1.1821 C   0  0  0  0  0  0  0  0  0  0  0  0
   -6.3097    0.3476    0.6419 C   0  0  0  0  0  0  0  0  0  0  0  0
   -6.0158   -2.1530    0.9805 C   0  0  0  0  0  0  0  0  0  0  0  0
   -5.1904   -0.5371    2.6875 C   0  0  0  0  0  0  0  0  0  0  0  0
    1.2134    0.7938   -2.5826 O   0  0  0  0  0  0  0  0  0  0  0  0
    4.1437    0.9657    0.9622 C   0  0  0  0  0  0  0  0  0  0  0  0
    4.9179   -0.1133    1.3987 C   0  0  0  0  0  0  0  0  0  0  0  0
    8.1000   -1.2526    1.3136 H   0  0  0  0  0  0  0  0  0  0  0  0
    6.8330   -2.3436    0.6971 H   0  0  0  0  0  0  0  0  0  0  0  0
    6.7878   -1.7594    2.3799 H   0  0  0  0  0  0  0  0  0  0  0  0
    7.7066    0.4379   -0.4741 H   0  0  0  0  0  0  0  0  0  0  0  0
    6.3487    2.3370   -1.2431 H   0  0  0  0  0  0  0  0  0  0  0  0
    3.0353    3.2870    0.2694 H   0  0  0  0  0  0  0  0  0  0  0  0
    4.4482    3.9139   -0.5440 H   0  0  0  0  0  0  0  0  0  0  0  0
   -0.3351   -1.8290   -2.0330 H   0  0  0  0  0  0  0  0  0  0  0  0
   -0.3144   -0.9182   -3.5468 H   0  0  0  0  0  0  0  0  0  0  0  0
   -2.3117    0.4426   -2.6992 H   0  0  0  0  0  0  0  0  0  0  0  0
   -2.6281   -1.2731   -2.9858 H   0  0  0  0  0  0  0  0  0  0  0  0
   -2.0245   -0.2826   -0.2355 H   0  0  0  0  0  0  0  0  0  0  0  0
   -7.2596    0.3878    1.1874 H   0  0  0  0  0  0  0  0  0  0  0  0
   -5.8186    1.3231    0.7247 H   0  0  0  0  0  0  0  0  0  0  0  0
   -6.5449    0.2049   -0.4176 H   0  0  0  0  0  0  0  0  0  0  0  0
   -5.3149   -2.9371    1.2892 H   0  0  0  0  0  0  0  0  0  0  0  0
   -6.2587   -2.3441   -0.0691 H   0  0  0  0  0  0  0  0  0  0  0  0
   -6.9413   -2.2668    1.5566 H   0  0  0  0  0  0  0  0  0  0  0  0
   -4.7167    0.4342    2.8712 H   0  0  0  0  0  0  0  0  0  0  0  0
   -6.1349   -0.5725    3.2425 H   0  0  0  0  0  0  0  0  0  0  0  0
   -4.5149   -1.2941    3.1048 H   0  0  0  0  0  0  0  0  0  0  0  0
    3.1396    1.0914    1.3665 H   0  0  0  0  0  0  0  0  0  0  0  0
    4.5003   -0.8031    2.1299 H   0  0  0  0  0  0  0  0  0  0  0  0
  1  2  1  0
  2  3  2  0
  3  4  1  0
  4  5  2  0
  5  6  1  0
  6  7  1  0
  7  8  1  0
  8  9  2  0
  9 10  1  0
 10 11  2  0
 11 12  1  0
 12 13  1  0
 13 14  1  0
 14 15  1  0
 15 16  2  0
 15 17  1  0
 17 18  1  0
 18 19  1  0
 18 20  1  0
 18 21  1  0
 11 22  1  0
  5 23  1  0
 23 24  2  0
 24  2  1  0
 22  8  1  0
  1 25  1  0
  1 26  1  0
  1 27  1  0
  3 28  1  0
  4 29  1  0
  6 30  1  0
  6 31  1  0
 12 32  1  0
 12 33  1  0
 13 34  1  0
 13 35  1  0
 14 36  1  0
 19 37  1  0
 19 38  1  0
 19 39  1  0
 20 40  1  0
 20 41  1  0
 20 42  1  0
 21 43  1  0
 21 44  1  0
 21 45  1  0
 23 46  1  0
 24 47  1  0
M  END
$$$$
