
     RDKit          3D

 42 44  0  0  0  0  0  0  0  0999 V2000
   -6.4859    1.5310    1.1857 C   0  0  0  0  0  0  0  0  0  0  0  0
   -5.1854    0.9820    0.6770 C   0  0  0  0  0  0  0  0  0  0  0  0
   -4.5290   -0.0399    1.3707 C   0  0  0  0  0  0  0  0  0  0  0  0
   -3.3273   -0.5863    0.8920 C   0  0  0  0  0  0  0  0  0  0  0  0
   -2.6529   -1.6747    1.6850 C   0  0  0  0  0  0  0  0  0  0  0  0
   -2.7856   -0.1055   -0.3204 C   0  0  0  0  0  0  0  0  0  0  0  0
   -1.5529   -0.6768   -0.8398 C   0  0  0  0  0  0  0  0  0  0  0  0
   -1.5336   -1.7108   -1.7540 C   0  0  0  0  0  0  0  0  0  0  0  0
    0.0917   -2.1112   -2.1189 S   0  0  0  0  0  0  0  0  0  0  0  0
    0.6246   -0.8942   -1.0528 C   0  0  0  0  0  0  0  0  0  0  0  0
    1.9478   -0.6273   -0.8146 N   0  0  0  0  0  0  0  0  0  0  0  0
    3.0287   -1.2108   -1.4184 C   0  0  0  0  0  0  0  0  0  0  0  0
    3.0391   -2.0277   -2.3300 O   0  0  0  0  0  0  0  0  0  0  0  0
    4.3384   -0.7048   -0.9241 C   0  0  0  0  0  0  0  0  0  0  0  0
    4.5882   -0.4574    0.3709 C   0  0  0  0  0  0  0  0  0  0  0  0
    5.8625   -0.0055    0.8279 C   0  0  0  0  0  0  0  0  0  0  0  0
    7.0447    0.2486    0.1496 C   0  0  0  0  0  0  0  0  0  0  0  0
    8.0985    0.6952    1.0007 C   0  0  0  0  0  0  0  0  0  0  0  0
    7.6997    0.7737    2.3133 C   0  0  0  0  0  0  0  0  0  0  0  0
    6.0696    0.3124    2.5144 S   0  0  0  0  0  0  0  0  0  0  0  0
   -0.3141   -0.2158   -0.4357 N   0  0  0  0  0  0  0  0  0  0  0  0
   -3.4388    0.9277   -1.0277 C   0  0  0  0  0  0  0  0  0  0  0  0
   -2.8884    1.4795   -2.3165 C   0  0  0  0  0  0  0  0  0  0  0  0
   -4.6411    1.4498   -0.5235 C   0  0  0  0  0  0  0  0  0  0  0  0
   -7.3207    0.9521    0.7789 H   0  0  0  0  0  0  0  0  0  0  0  0
   -6.6076    2.5800    0.8956 H   0  0  0  0  0  0  0  0  0  0  0  0
   -6.5263    1.4908    2.2793 H   0  0  0  0  0  0  0  0  0  0  0  0
   -4.9581   -0.4131    2.2992 H   0  0  0  0  0  0  0  0  0  0  0  0
   -1.6376   -1.3741    1.9631 H   0  0  0  0  0  0  0  0  0  0  0  0
   -2.6167   -2.6030    1.1059 H   0  0  0  0  0  0  0  0  0  0  0  0
   -3.1935   -1.8882    2.6134 H   0  0  0  0  0  0  0  0  0  0  0  0
   -2.3646   -2.2319   -2.2074 H   0  0  0  0  0  0  0  0  0  0  0  0
    2.0764    0.1245   -0.1533 H   0  0  0  0  0  0  0  0  0  0  0  0
    5.0935   -0.6311   -1.6985 H   0  0  0  0  0  0  0  0  0  0  0  0
    3.8138   -0.6194    1.1178 H   0  0  0  0  0  0  0  0  0  0  0  0
    7.1655    0.1209   -0.9192 H   0  0  0  0  0  0  0  0  0  0  0  0
    9.0975    0.9442    0.6639 H   0  0  0  0  0  0  0  0  0  0  0  0
    8.2882    1.0796    3.1674 H   0  0  0  0  0  0  0  0  0  0  0  0
   -3.4619    2.3484   -2.6571 H   0  0  0  0  0  0  0  0  0  0  0  0
   -2.9350    0.7221   -3.1052 H   0  0  0  0  0  0  0  0  0  0  0  0
   -1.8533    1.8105   -2.1840 H   0  0  0  0  0  0  0  0  0  0  0  0
   -5.1579    2.2365   -1.0707 H   0  0  0  0  0  0  0  0  0  0  0  0
  1  2  1  0
  2  3  2  0
  3  4  1  0
  4  5  1  0
  4  6  2  0
  6  7  1  0
  7  8  2  0
  8  9  1  0
  9 10  1  0
 10 11  1  0
 11 12  1  0
 12 13  2  0
 12 14  1  0
 14 15  2  3
 15 16  1  0
 16 17  2  0
 17 18  1  0
 18 19  2  0
 19 20  1  0
 10 21  2  0
  6 22  1  0
 22 23  1  0
 22 24  2  0
 24  2  1  0
 21  7  1  0
 20 16  1  0
  1 25  1  0
  1 26  1  0
  1 27  1  0
  3 28  1  0
  5 29  1  0
  5 30  1  0
  5 31  1  0
  8 32  1  0
 11 33  1  0
 14 34  1  0
 15 35  1  0
 17 36  1  0
 18 37  1  0
 19 38  1  0
 23 39  1  0
 23 40  1  0
 23 41  1  0
 24 42  1  0
M  END
$$$$
