
     RDKit          3D

 51 54  0  0  0  0  0  0  0  0999 V2000
    3.3938    0.5276   -2.5103 C   0  0  0  0  0  0  0  0  0  0  0  0
    2.7413    0.9988   -1.2068 C   0  0  0  0  0  0  0  0  0  0  0  0
    1.3829    1.6741   -1.4960 C   0  0  0  0  0  0  0  0  0  0  0  0
    0.4180    0.6191   -1.0600 C   0  0  0  0  0  0  0  0  0  0  0  0
   -0.9571    0.6158   -1.2462 C   0  0  0  0  0  0  0  0  0  0  0  0
   -1.6842   -0.4433   -0.6970 C   0  0  0  0  0  0  0  0  0  0  0  0
   -3.4498   -0.5065   -0.8949 S   0  0  0  0  0  6  0  0  0  0  0  0
   -3.8752    0.7155   -1.5441 O   0  0  0  0  0  0  0  0  0  0  0  0
   -3.7595   -1.8011   -1.4627 O   0  0  0  0  0  0  0  0  0  0  0  0
   -4.0076   -0.4711    0.7134 N   0  0  0  0  0  0  0  0  0  0  0  0
   -3.7125    0.7328    1.5302 C   0  0  0  0  0  0  0  0  0  0  0  0
   -4.7562    1.8286    1.3380 C   0  0  0  0  0  0  0  0  0  0  0  0
   -6.1735    1.3046    1.5453 C   0  0  0  0  0  0  0  0  0  0  0  0
   -6.4300    0.0715    0.6852 C   0  0  0  0  0  0  0  0  0  0  0  0
   -5.3761   -0.9984    0.9392 C   0  0  0  0  0  0  0  0  0  0  0  0
   -1.0465   -1.4688    0.0211 C   0  0  0  0  0  0  0  0  0  0  0  0
    0.3399   -1.4389    0.2069 C   0  0  0  0  0  0  0  0  0  0  0  0
    1.0650   -0.3914   -0.3416 C   0  0  0  0  0  0  0  0  0  0  0  0
    2.4570   -0.1454   -0.3011 N   0  0  0  0  0  0  0  0  0  0  0  0
    3.3807   -0.8865    0.4367 C   0  0  0  0  0  0  0  0  0  0  0  0
    3.0510   -1.8575    1.1324 O   0  0  0  0  0  0  0  0  0  0  0  0
    4.8736   -0.4381    0.3819 C   0  0  0  0  0  0  0  0  0  0  0  0
    5.6856   -0.5244    1.7084 C   0  0  0  0  0  0  0  0  0  0  0  0
    6.8966   -0.9646    0.8653 C   0  0  0  0  0  0  0  0  0  0  0  0
    5.8930   -1.4650   -0.1899 C   0  0  0  0  0  0  0  0  0  0  0  0
    2.7568   -0.1904   -3.0388 H   0  0  0  0  0  0  0  0  0  0  0  0
    3.5764    1.3763   -3.1778 H   0  0  0  0  0  0  0  0  0  0  0  0
    4.3528    0.0363   -2.3279 H   0  0  0  0  0  0  0  0  0  0  0  0
    3.4037    1.7116   -0.7046 H   0  0  0  0  0  0  0  0  0  0  0  0
    1.2555    2.5623   -0.8671 H   0  0  0  0  0  0  0  0  0  0  0  0
    1.2543    1.9504   -2.5467 H   0  0  0  0  0  0  0  0  0  0  0  0
   -1.4482    1.4137   -1.7956 H   0  0  0  0  0  0  0  0  0  0  0  0
   -3.6865    0.4248    2.5830 H   0  0  0  0  0  0  0  0  0  0  0  0
   -2.7145    1.1226    1.3086 H   0  0  0  0  0  0  0  0  0  0  0  0
   -4.6741    2.2573    0.3334 H   0  0  0  0  0  0  0  0  0  0  0  0
   -4.5615    2.6462    2.0415 H   0  0  0  0  0  0  0  0  0  0  0  0
   -6.8998    2.0878    1.3014 H   0  0  0  0  0  0  0  0  0  0  0  0
   -6.3183    1.0504    2.6025 H   0  0  0  0  0  0  0  0  0  0  0  0
   -6.4298    0.3569   -0.3734 H   0  0  0  0  0  0  0  0  0  0  0  0
   -7.4247   -0.3307    0.9077 H   0  0  0  0  0  0  0  0  0  0  0  0
   -5.4383   -1.3510    1.9764 H   0  0  0  0  0  0  0  0  0  0  0  0
   -5.5650   -1.8768    0.3140 H   0  0  0  0  0  0  0  0  0  0  0  0
   -1.6275   -2.2902    0.4361 H   0  0  0  0  0  0  0  0  0  0  0  0
    0.8158   -2.2406    0.7615 H   0  0  0  0  0  0  0  0  0  0  0  0
    5.0241    0.5503   -0.0664 H   0  0  0  0  0  0  0  0  0  0  0  0
    5.8091    0.4183    2.2484 H   0  0  0  0  0  0  0  0  0  0  0  0
    5.3390   -1.2907    2.4111 H   0  0  0  0  0  0  0  0  0  0  0  0
    7.5369   -1.7282    1.3134 H   0  0  0  0  0  0  0  0  0  0  0  0
    7.5197   -0.1316    0.5205 H   0  0  0  0  0  0  0  0  0  0  0  0
    6.1927   -1.3090   -1.2294 H   0  0  0  0  0  0  0  0  0  0  0  0
    5.6010   -2.5136   -0.0596 H   0  0  0  0  0  0  0  0  0  0  0  0
  1  2  1  0
  2  3  1  0
  3  4  1  0
  4  5  2  0
  5  6  1  0
  6  7  1  0
  7  8  2  0
  7  9  2  0
  7 10  1  0
 10 11  1  0
 11 12  1  0
 12 13  1  0
 13 14  1  0
 14 15  1  0
  6 16  2  0
 16 17  1  0
 17 18  2  0
 18 19  1  0
 19 20  1  0
 20 21  2  0
 20 22  1  0
 22 23  1  0
 23 24  1  0
 24 25  1  0
 19  2  1  0
 25 22  1  0
 18  4  1  0
 15 10  1  0
  1 26  1  0
  1 27  1  0
  1 28  1  0
  2 29  1  0
  3 30  1  0
  3 31  1  0
  5 32  1  0
 11 33  1  0
 11 34  1  0
 12 35  1  0
 12 36  1  0
 13 37  1  0
 13 38  1  0
 14 39  1  0
 14 40  1  0
 15 41  1  0
 15 42  1  0
 16 43  1  0
 17 44  1  0
 22 45  1  0
 23 46  1  0
 23 47  1  0
 24 48  1  0
 24 49  1  0
 25 50  1  0
 25 51  1  0
M  END
$$$$
