
     RDKit          3D

 43 45  0  0  0  0  0  0  0  0999 V2000
    4.3869   -2.9224   -0.9847 C   0  0  0  0  0  0  0  0  0  0  0  0
    4.6531   -1.7871   -0.1722 O   0  0  0  0  0  0  0  0  0  0  0  0
    3.6684   -0.8383   -0.0522 C   0  0  0  0  0  0  0  0  0  0  0  0
    2.3484   -1.0142   -0.4948 C   0  0  0  0  0  0  0  0  0  0  0  0
    1.3861   -0.0014   -0.3331 C   0  0  0  0  0  0  0  0  0  0  0  0
    0.0046   -0.2739   -0.7890 C   0  0  0  0  0  0  0  0  0  0  0  0
   -0.2462   -0.3590   -2.1961 C   0  0  0  0  0  0  0  0  0  0  0  0
   -0.4025   -0.4627   -3.3412 N   0  0  0  0  0  0  0  0  0  0  0  0
   -0.9496   -0.4881    0.1388 C   0  0  0  0  0  0  0  0  0  0  0  0
   -2.3554   -0.8166   -0.1619 C   0  0  0  0  0  0  0  0  0  0  0  0
   -2.6444   -2.1301   -0.5639 C   0  0  0  0  0  0  0  0  0  0  0  0
   -3.9507   -2.5060   -0.8574 C   0  0  0  0  0  0  0  0  0  0  0  0
   -4.9811   -1.5757   -0.7478 C   0  0  0  0  0  0  0  0  0  0  0  0
   -4.7235   -0.2571   -0.3433 C   0  0  0  0  0  0  0  0  0  0  0  0
   -5.7768    0.6665   -0.2377 C   0  0  0  0  0  0  0  0  0  0  0  0
   -5.5419    1.9815    0.1603 C   0  0  0  0  0  0  0  0  0  0  0  0
   -4.2492    2.3908    0.4581 C   0  0  0  0  0  0  0  0  0  0  0  0
   -3.1912    1.4845    0.3588 C   0  0  0  0  0  0  0  0  0  0  0  0
   -3.3971    0.1433   -0.0423 C   0  0  0  0  0  0  0  0  0  0  0  0
    1.7975    1.1911    0.2818 C   0  0  0  0  0  0  0  0  0  0  0  0
    0.8658    2.2897    0.4600 N   0  0  0  0  0  4  0  0  0  0  0  0
    0.6978    2.6994    1.6158 O   0  0  0  0  0  0  0  0  0  0  0  0
    0.3147    2.7377   -0.5520 O   0  0  0  0  0  1  0  0  0  0  0  0
    3.1070    1.3826    0.7457 C   0  0  0  0  0  0  0  0  0  0  0  0
    4.0465    0.3646    0.5819 C   0  0  0  0  0  0  0  0  0  0  0  0
    5.3527    0.4427    0.9934 O   0  0  0  0  0  0  0  0  0  0  0  0
    5.7716    1.6209    1.6685 C   0  0  0  0  0  0  0  0  0  0  0  0
    5.3096   -3.5062   -1.0562 H   0  0  0  0  0  0  0  0  0  0  0  0
    4.0995   -2.6278   -1.9995 H   0  0  0  0  0  0  0  0  0  0  0  0
    3.6246   -3.5605   -0.5264 H   0  0  0  0  0  0  0  0  0  0  0  0
    2.0463   -1.9492   -0.9604 H   0  0  0  0  0  0  0  0  0  0  0  0
   -0.7320   -0.4345    1.2043 H   0  0  0  0  0  0  0  0  0  0  0  0
   -1.8534   -2.8714   -0.6531 H   0  0  0  0  0  0  0  0  0  0  0  0
   -4.1682   -3.5227   -1.1743 H   0  0  0  0  0  0  0  0  0  0  0  0
   -5.9959   -1.8896   -0.9845 H   0  0  0  0  0  0  0  0  0  0  0  0
   -6.7967    0.3666   -0.4695 H   0  0  0  0  0  0  0  0  0  0  0  0
   -6.3674    2.6844    0.2336 H   0  0  0  0  0  0  0  0  0  0  0  0
   -4.0571    3.4160    0.7643 H   0  0  0  0  0  0  0  0  0  0  0  0
   -2.1950    1.8481    0.5967 H   0  0  0  0  0  0  0  0  0  0  0  0
    3.3667    2.3240    1.2207 H   0  0  0  0  0  0  0  0  0  0  0  0
    6.8252    1.4965    1.9365 H   0  0  0  0  0  0  0  0  0  0  0  0
    5.2071    1.7670    2.5953 H   0  0  0  0  0  0  0  0  0  0  0  0
    5.6952    2.4966    1.0158 H   0  0  0  0  0  0  0  0  0  0  0  0
  1  2  1  0
  2  3  1  0
  3  4  2  0
  4  5  1  0
  5  6  1  0
  6  7  1  0
  7  8  3  0
  6  9  2  3
  9 10  1  0
 10 11  2  0
 11 12  1  0
 12 13  2  0
 13 14  1  0
 14 15  2  0
 15 16  1  0
 16 17  2  0
 17 18  1  0
 18 19  2  0
  5 20  2  0
 20 21  1  0
 21 22  2  0
 21 23  1  0
 20 24  1  0
 24 25  2  0
 25 26  1  0
 26 27  1  0
 25  3  1  0
 19 10  1  0
 19 14  1  0
  1 28  1  0
  1 29  1  0
  1 30  1  0
  4 31  1  0
  9 32  1  0
 11 33  1  0
 12 34  1  0
 13 35  1  0
 15 36  1  0
 16 37  1  0
 17 38  1  0
 18 39  1  0
 24 40  1  0
 27 41  1  0
 27 42  1  0
 27 43  1  0
M  CHG  2  21   1  23  -1
M  END
$$$$
