
     RDKit          3D

 39 41  0  0  0  0  0  0  0  0999 V2000
    4.9040   -0.8425    0.7023 C   0  0  0  0  0  0  0  0  0  0  0  0
    4.2782    0.5334    0.4745 C   0  0  0  0  0  0  0  0  0  0  0  0
    4.7474    1.1213   -0.8562 C   0  0  0  0  0  0  0  0  0  0  0  0
    2.7432    0.5062    0.5943 C   0  0  0  0  0  0  0  0  0  0  0  0
    2.0210   -0.3702   -0.4374 C   0  0  0  0  0  0  0  0  0  0  0  0
    0.5716   -0.3333   -0.2454 N   0  0  0  0  0  0  0  0  0  0  0  0
    0.0150   -1.2470    0.6465 C   0  0  0  0  0  0  0  0  0  0  0  0
    0.6717   -2.0769    1.2712 O   0  0  0  0  0  0  0  0  0  0  0  0
   -1.4526   -1.1892    0.8417 C   0  0  0  0  0  0  0  0  0  0  0  0
   -2.0535   -2.1064    1.7122 C   0  0  0  0  0  0  0  0  0  0  0  0
   -3.4244   -2.0643    1.9220 C   0  0  0  0  0  0  0  0  0  0  0  0
   -4.1973   -1.1138    1.2542 C   0  0  0  0  0  0  0  0  0  0  0  0
   -3.6249   -0.1823    0.3566 C   0  0  0  0  0  0  0  0  0  0  0  0
   -4.3920    0.7820   -0.3557 C   0  0  0  0  0  0  0  0  0  0  0  0
   -5.7775    0.9378   -0.1512 N   0  0  0  0  0  0  0  0  0  0  0  0
   -3.7371    1.7444   -1.1337 C   0  0  0  0  0  0  0  0  0  0  0  0
   -2.3582    1.6997   -1.3111 C   0  0  0  0  0  0  0  0  0  0  0  0
   -1.6045    0.7106   -0.6738 C   0  0  0  0  0  0  0  0  0  0  0  0
   -2.2157   -0.2247    0.1683 C   0  0  0  0  0  0  0  0  0  0  0  0
   -0.1386    0.6802   -0.8843 C   0  0  0  0  0  0  0  0  0  0  0  0
    0.3832    1.5357   -1.5955 O   0  0  0  0  0  0  0  0  0  0  0  0
    4.5583   -1.2767    1.6461 H   0  0  0  0  0  0  0  0  0  0  0  0
    5.9954   -0.7633    0.7518 H   0  0  0  0  0  0  0  0  0  0  0  0
    4.6606   -1.5399   -0.1055 H   0  0  0  0  0  0  0  0  0  0  0  0
    4.6457    1.1946    1.2706 H   0  0  0  0  0  0  0  0  0  0  0  0
    4.2892    2.0998   -1.0336 H   0  0  0  0  0  0  0  0  0  0  0  0
    4.5005    0.4690   -1.6999 H   0  0  0  0  0  0  0  0  0  0  0  0
    5.8343    1.2581   -0.8524 H   0  0  0  0  0  0  0  0  0  0  0  0
    2.3672    1.5349    0.5185 H   0  0  0  0  0  0  0  0  0  0  0  0
    2.4762    0.1674    1.6039 H   0  0  0  0  0  0  0  0  0  0  0  0
    2.3600   -1.4087   -0.3604 H   0  0  0  0  0  0  0  0  0  0  0  0
    2.2503   -0.0316   -1.4533 H   0  0  0  0  0  0  0  0  0  0  0  0
   -1.4523   -2.8486    2.2344 H   0  0  0  0  0  0  0  0  0  0  0  0
   -3.8938   -2.7662    2.6072 H   0  0  0  0  0  0  0  0  0  0  0  0
   -5.2651   -1.1026    1.4583 H   0  0  0  0  0  0  0  0  0  0  0  0
   -6.2655    0.0710    0.0462 H   0  0  0  0  0  0  0  0  0  0  0  0
   -6.2428    1.4614   -0.8871 H   0  0  0  0  0  0  0  0  0  0  0  0
   -4.3023    2.5365   -1.6195 H   0  0  0  0  0  0  0  0  0  0  0  0
   -1.8748    2.4442   -1.9410 H   0  0  0  0  0  0  0  0  0  0  0  0
  1  2  1  0
  2  3  1  0
  2  4  1  0
  4  5  1  0
  5  6  1  0
  6  7  1  0
  7  8  2  0
  7  9  1  0
  9 10  1  0
 10 11  2  0
 11 12  1  0
 12 13  2  0
 13 14  1  0
 14 15  1  0
 14 16  2  0
 16 17  1  0
 17 18  2  0
 18 19  1  0
 18 20  1  0
 20 21  2  0
 20  6  1  0
 19  9  2  0
 19 13  1  0
  1 22  1  0
  1 23  1  0
  1 24  1  0
  2 25  1  0
  3 26  1  0
  3 27  1  0
  3 28  1  0
  4 29  1  0
  4 30  1  0
  5 31  1  0
  5 32  1  0
 10 33  1  0
 11 34  1  0
 12 35  1  0
 15 36  1  0
 15 37  1  0
 16 38  1  0
 17 39  1  0
M  END
$$$$
