
     RDKit          3D

 38 40  0  0  0  0  0  0  0  0999 V2000
   -4.9126   -1.3593   -1.5055 C   0  0  0  0  0  0  0  0  0  0  0  0
   -4.5894   -1.5161   -0.1286 O   0  0  0  0  0  0  0  0  0  0  0  0
   -3.3426   -1.0995    0.2616 C   0  0  0  0  0  0  0  0  0  0  0  0
   -2.3672   -0.5322   -0.5584 C   0  0  0  0  0  0  0  0  0  0  0  0
   -1.1176   -0.1395   -0.0311 C   0  0  0  0  0  0  0  0  0  0  0  0
   -0.8561   -0.3339    1.3421 C   0  0  0  0  0  0  0  0  0  0  0  0
   -1.8339   -0.9128    2.1605 C   0  0  0  0  0  0  0  0  0  0  0  0
   -3.0579   -1.2800    1.6174 C   0  0  0  0  0  0  0  0  0  0  0  0
   -3.9910   -1.8382    2.4490 O   0  0  0  0  0  0  0  0  0  0  0  0
    0.4907    0.0048    1.9308 C   0  0  0  0  0  0  0  0  0  0  0  0
    1.2630    0.9890    1.0605 C   0  0  0  0  0  0  0  0  0  0  0  0
    1.2492    0.5568   -0.3367 N   0  0  0  0  0  0  0  0  0  0  0  0
    2.3686    0.5754   -1.1810 C   0  0  0  0  0  0  0  0  0  0  0  0
    2.2260    0.6441   -2.4031 O   0  0  0  0  0  0  0  0  0  0  0  0
    3.6846    0.4643   -0.5776 C   0  0  0  0  0  0  0  0  0  0  0  0
    4.1854   -0.3128    0.4539 C   0  0  0  0  0  0  0  0  0  0  0  0
    5.5647   -0.0127    0.5642 C   0  0  0  0  0  0  0  0  0  0  0  0
    5.8316    0.9128   -0.4152 C   0  0  0  0  0  0  0  0  0  0  0  0
    4.7070    1.2008   -1.1169 O   0  0  0  0  0  0  0  0  0  0  0  0
   -0.0787    0.4874   -0.9602 C   0  0  0  0  0  0  0  0  0  0  0  0
   -0.5417    1.8716   -1.4403 C   0  0  0  0  0  0  0  0  0  0  0  0
   -5.9289   -1.7364   -1.6546 H   0  0  0  0  0  0  0  0  0  0  0  0
   -4.9033   -0.3033   -1.7951 H   0  0  0  0  0  0  0  0  0  0  0  0
   -4.2420   -1.9504   -2.1380 H   0  0  0  0  0  0  0  0  0  0  0  0
   -2.5475   -0.3855   -1.6190 H   0  0  0  0  0  0  0  0  0  0  0  0
   -1.6479   -1.0857    3.2171 H   0  0  0  0  0  0  0  0  0  0  0  0
   -4.7591   -2.0231    1.8742 H   0  0  0  0  0  0  0  0  0  0  0  0
    0.3704    0.4313    2.9334 H   0  0  0  0  0  0  0  0  0  0  0  0
    1.0615   -0.9272    2.0253 H   0  0  0  0  0  0  0  0  0  0  0  0
    0.7957    1.9809    1.1003 H   0  0  0  0  0  0  0  0  0  0  0  0
    2.2735    1.1251    1.4487 H   0  0  0  0  0  0  0  0  0  0  0  0
    3.6213   -1.0239    1.0412 H   0  0  0  0  0  0  0  0  0  0  0  0
    6.2800   -0.4308    1.2586 H   0  0  0  0  0  0  0  0  0  0  0  0
    6.7251    1.4318   -0.7340 H   0  0  0  0  0  0  0  0  0  0  0  0
    0.0083   -0.1693   -1.8362 H   0  0  0  0  0  0  0  0  0  0  0  0
   -1.4768    1.8053   -2.0068 H   0  0  0  0  0  0  0  0  0  0  0  0
    0.2043    2.3392   -2.0909 H   0  0  0  0  0  0  0  0  0  0  0  0
   -0.7169    2.5519   -0.5993 H   0  0  0  0  0  0  0  0  0  0  0  0
  1  2  1  0
  2  3  1  0
  3  4  2  0
  4  5  1  0
  5  6  2  0
  6  7  1  0
  7  8  2  0
  8  9  1  0
  6 10  1  0
 10 11  1  0
 11 12  1  0
 12 13  1  0
 13 14  2  0
 13 15  1  0
 15 16  2  0
 16 17  1  0
 17 18  2  0
 18 19  1  0
 12 20  1  0
 20 21  1  0
  8  3  1  0
 19 15  1  0
 20  5  1  0
  1 22  1  0
  1 23  1  0
  1 24  1  0
  4 25  1  0
  7 26  1  0
  9 27  1  0
 10 28  1  0
 10 29  1  0
 11 30  1  0
 11 31  1  0
 16 32  1  0
 17 33  1  0
 18 34  1  0
 20 35  1  0
 21 36  1  0
 21 37  1  0
 21 38  1  0
M  END
$$$$
