
     RDKit          3D

 47 50  0  0  0  0  0  0  0  0999 V2000
   -1.5582    0.9803   -1.1639 O   0  0  0  0  0  0  0  0  0  0  0  0
   -0.7528    1.5649   -0.4325 C   0  0  0  0  0  0  0  0  0  0  0  0
   -1.2059    2.7884    0.3521 C   0  0  0  0  0  0  0  0  0  0  0  0
   -1.3438    2.4494    2.1259 S   0  0  0  0  0  0  0  0  0  0  0  0
   -2.6219    1.2741    2.1553 C   0  0  0  0  0  0  0  0  0  0  0  0
   -2.9430    0.5729    3.2232 N   0  0  0  0  0  0  0  0  0  0  0  0
   -3.9912   -0.2490    2.8558 N   0  0  0  0  0  0  0  0  0  0  0  0
   -4.2320    0.0030    1.5850 C   0  0  0  0  0  0  0  0  0  0  0  0
   -5.2148   -0.5755    0.6791 C   0  0  0  0  0  0  0  0  0  0  0  0
   -5.2033   -0.2992   -0.6973 C   0  0  0  0  0  0  0  0  0  0  0  0
   -6.1561   -0.8681   -1.5472 C   0  0  0  0  0  0  0  0  0  0  0  0
   -7.1302   -1.7211   -1.0322 C   0  0  0  0  0  0  0  0  0  0  0  0
   -7.1514   -2.0101    0.3309 C   0  0  0  0  0  0  0  0  0  0  0  0
   -6.1986   -1.4418    1.1805 C   0  0  0  0  0  0  0  0  0  0  0  0
   -3.4146    0.9791    1.0828 O   0  0  0  0  0  0  0  0  0  0  0  0
    0.5622    1.1411   -0.3246 N   0  0  0  0  0  0  0  0  0  0  0  0
    0.9618   -0.0874   -1.0200 C   0  0  0  0  0  0  0  0  0  0  0  0
    2.1278   -0.8226   -0.3345 C   0  0  0  0  0  0  0  0  0  0  0  0
    3.2912    0.0605   -0.1445 N   0  0  0  0  0  0  0  0  0  0  0  0
    4.5753   -0.4546   -0.0477 C   0  0  0  0  0  0  0  0  0  0  0  0
    5.7116    0.3284   -0.3128 C   0  0  0  0  0  0  0  0  0  0  0  0
    7.0105   -0.1879   -0.2147 C   0  0  0  0  0  0  0  0  0  0  0  0
    7.2080   -1.5122    0.1560 C   0  0  0  0  0  0  0  0  0  0  0  0
    6.1069   -2.3147    0.4259 C   0  0  0  0  0  0  0  0  0  0  0  0
    4.8123   -1.7894    0.3230 C   0  0  0  0  0  0  0  0  0  0  0  0
    3.0391    1.5072   -0.0797 C   0  0  0  0  0  0  0  0  0  0  0  0
    1.6205    1.8126    0.4424 C   0  0  0  0  0  0  0  0  0  0  0  0
   -0.5178    3.6203    0.1809 H   0  0  0  0  0  0  0  0  0  0  0  0
   -2.1777    3.1150   -0.0356 H   0  0  0  0  0  0  0  0  0  0  0  0
   -4.4435    0.3537   -1.1257 H   0  0  0  0  0  0  0  0  0  0  0  0
   -6.1309   -0.6491   -2.6120 H   0  0  0  0  0  0  0  0  0  0  0  0
   -7.8702   -2.1642   -1.6942 H   0  0  0  0  0  0  0  0  0  0  0  0
   -7.9085   -2.6780    0.7345 H   0  0  0  0  0  0  0  0  0  0  0  0
   -6.2296   -1.6783    2.2432 H   0  0  0  0  0  0  0  0  0  0  0  0
    0.1056   -0.7647   -1.1111 H   0  0  0  0  0  0  0  0  0  0  0  0
    1.2550    0.2104   -2.0346 H   0  0  0  0  0  0  0  0  0  0  0  0
    2.3879   -1.6843   -0.9610 H   0  0  0  0  0  0  0  0  0  0  0  0
    1.8004   -1.1950    0.6436 H   0  0  0  0  0  0  0  0  0  0  0  0
    5.6083    1.3626   -0.6299 H   0  0  0  0  0  0  0  0  0  0  0  0
    7.8634    0.4487   -0.4332 H   0  0  0  0  0  0  0  0  0  0  0  0
    8.2132   -1.9165    0.2344 H   0  0  0  0  0  0  0  0  0  0  0  0
    6.2471   -3.3505    0.7225 H   0  0  0  0  0  0  0  0  0  0  0  0
    3.9851   -2.4502    0.5683 H   0  0  0  0  0  0  0  0  0  0  0  0
    3.1611    1.9357   -1.0822 H   0  0  0  0  0  0  0  0  0  0  0  0
    3.7486    2.0019    0.5940 H   0  0  0  0  0  0  0  0  0  0  0  0
    1.5316    1.4604    1.4771 H   0  0  0  0  0  0  0  0  0  0  0  0
    1.4614    2.8938    0.4384 H   0  0  0  0  0  0  0  0  0  0  0  0
  1  2  2  0
  2  3  1  0
  3  4  1  0
  4  5  1  0
  5  6  2  0
  6  7  1  0
  7  8  2  0
  8  9  1  0
  9 10  2  0
 10 11  1  0
 11 12  2  0
 12 13  1  0
 13 14  2  0
  8 15  1  0
  2 16  1  0
 16 17  1  0
 17 18  1  0
 18 19  1  0
 19 20  1  0
 20 21  2  0
 21 22  1  0
 22 23  2  0
 23 24  1  0
 24 25  2  0
 19 26  1  0
 26 27  1  0
 15  5  1  0
 27 16  1  0
 14  9  1  0
 25 20  1  0
  3 28  1  0
  3 29  1  0
 10 30  1  0
 11 31  1  0
 12 32  1  0
 13 33  1  0
 14 34  1  0
 17 35  1  0
 17 36  1  0
 18 37  1  0
 18 38  1  0
 21 39  1  0
 22 40  1  0
 23 41  1  0
 24 42  1  0
 25 43  1  0
 26 44  1  0
 26 45  1  0
 27 46  1  0
 27 47  1  0
M  END
$$$$
