
     RDKit          3D

 52 54  0  0  0  0  0  0  0  0999 V2000
   -6.1163    0.8661   -1.4241 C   0  0  0  0  0  0  0  0  0  0  0  0
   -6.6271   -0.1402   -0.3928 C   0  0  0  0  0  0  0  0  0  0  0  0
   -7.4047   -1.2625   -1.0794 C   0  0  0  0  0  0  0  0  0  0  0  0
   -5.4985   -0.6724    0.5069 C   0  0  0  0  0  0  0  0  0  0  0  0
   -4.4229   -1.4951   -0.2055 C   0  0  0  0  0  0  0  0  0  0  0  0
   -3.4273   -1.9246    0.7265 O   0  0  0  0  0  0  0  0  0  0  0  0
   -2.3446   -1.1223    0.9535 C   0  0  0  0  0  0  0  0  0  0  0  0
   -2.1523    0.1686    0.4575 C   0  0  0  0  0  0  0  0  0  0  0  0
   -0.9898    0.8794    0.7772 C   0  0  0  0  0  0  0  0  0  0  0  0
   -0.0111    0.2937    1.5871 C   0  0  0  0  0  0  0  0  0  0  0  0
    1.2156    1.0388    1.9557 C   0  0  0  0  0  0  0  0  0  0  0  0
    1.5449    1.0601    3.1391 O   0  0  0  0  0  0  0  0  0  0  0  0
    1.9244    1.6988    0.9494 N   0  0  0  0  0  0  0  0  0  0  0  0
    3.1098    2.4554    1.3614 C   0  0  0  0  0  0  0  0  0  0  0  0
    4.3727    1.5726    1.3341 C   0  0  0  0  0  0  0  0  0  0  0  0
    4.5161    0.9226    0.0140 N   0  0  0  0  0  0  0  0  0  0  0  0
    5.6950    0.1821   -0.1161 C   0  0  0  0  0  0  0  0  0  0  0  0
    5.7451   -0.8073   -1.0269 N   0  0  0  0  0  0  0  0  0  0  0  0
    6.8994   -1.4890   -1.1548 C   0  0  0  0  0  0  0  0  0  0  0  0
    8.0199   -1.2279   -0.4119 C   0  0  0  0  0  0  0  0  0  0  0  0
    7.8876   -0.2042    0.4880 C   0  0  0  0  0  0  0  0  0  0  0  0
    6.7537    0.5036    0.6485 N   0  0  0  0  0  0  0  0  0  0  0  0
    3.3182    0.2147   -0.4745 C   0  0  0  0  0  0  0  0  0  0  0  0
    2.0731    1.1256   -0.3964 C   0  0  0  0  0  0  0  0  0  0  0  0
   -0.2115   -0.9839    2.1115 C   0  0  0  0  0  0  0  0  0  0  0  0
   -1.3731   -1.6879    1.7869 C   0  0  0  0  0  0  0  0  0  0  0  0
   -5.4707    0.3934   -2.1708 H   0  0  0  0  0  0  0  0  0  0  0  0
   -5.5490    1.6674   -0.9392 H   0  0  0  0  0  0  0  0  0  0  0  0
   -6.9548    1.3274   -1.9572 H   0  0  0  0  0  0  0  0  0  0  0  0
   -7.3303    0.3922    0.2615 H   0  0  0  0  0  0  0  0  0  0  0  0
   -7.7601   -1.9950   -0.3473 H   0  0  0  0  0  0  0  0  0  0  0  0
   -8.2804   -0.8594   -1.5997 H   0  0  0  0  0  0  0  0  0  0  0  0
   -6.7933   -1.7870   -1.8205 H   0  0  0  0  0  0  0  0  0  0  0  0
   -5.9340   -1.2896    1.3042 H   0  0  0  0  0  0  0  0  0  0  0  0
   -5.0328    0.1716    1.0303 H   0  0  0  0  0  0  0  0  0  0  0  0
   -3.9805   -0.9855   -1.0673 H   0  0  0  0  0  0  0  0  0  0  0  0
   -4.8748   -2.4118   -0.6000 H   0  0  0  0  0  0  0  0  0  0  0  0
   -2.8915    0.6606   -0.1651 H   0  0  0  0  0  0  0  0  0  0  0  0
   -0.8574    1.8922    0.4044 H   0  0  0  0  0  0  0  0  0  0  0  0
    3.2209    3.2915    0.6602 H   0  0  0  0  0  0  0  0  0  0  0  0
    2.9656    2.8803    2.3606 H   0  0  0  0  0  0  0  0  0  0  0  0
    5.2304    2.2201    1.5530 H   0  0  0  0  0  0  0  0  0  0  0  0
    4.3046    0.8084    2.1195 H   0  0  0  0  0  0  0  0  0  0  0  0
    6.8898   -2.2770   -1.9016 H   0  0  0  0  0  0  0  0  0  0  0  0
    8.9378   -1.7845   -0.5284 H   0  0  0  0  0  0  0  0  0  0  0  0
    8.7118    0.0932    1.1290 H   0  0  0  0  0  0  0  0  0  0  0  0
    3.4357   -0.0886   -1.5221 H   0  0  0  0  0  0  0  0  0  0  0  0
    3.1453   -0.6855    0.1304 H   0  0  0  0  0  0  0  0  0  0  0  0
    2.1763    1.9641   -1.0955 H   0  0  0  0  0  0  0  0  0  0  0  0
    1.1939    0.5508   -0.6939 H   0  0  0  0  0  0  0  0  0  0  0  0
    0.5286   -1.4289    2.7723 H   0  0  0  0  0  0  0  0  0  0  0  0
   -1.5271   -2.6852    2.1929 H   0  0  0  0  0  0  0  0  0  0  0  0
  1  2  1  0
  2  3  1  0
  2  4  1  0
  4  5  1  0
  5  6  1  0
  6  7  1  0
  7  8  2  0
  8  9  1  0
  9 10  2  0
 10 11  1  0
 11 12  2  0
 11 13  1  0
 13 14  1  0
 14 15  1  0
 15 16  1  0
 16 17  1  0
 17 18  2  0
 18 19  1  0
 19 20  2  0
 20 21  1  0
 21 22  2  0
 16 23  1  0
 23 24  1  0
 10 25  1  0
 25 26  2  0
 26  7  1  0
 24 13  1  0
 22 17  1  0
  1 27  1  0
  1 28  1  0
  1 29  1  0
  2 30  1  0
  3 31  1  0
  3 32  1  0
  3 33  1  0
  4 34  1  0
  4 35  1  0
  5 36  1  0
  5 37  1  0
  8 38  1  0
  9 39  1  0
 14 40  1  0
 14 41  1  0
 15 42  1  0
 15 43  1  0
 19 44  1  0
 20 45  1  0
 21 46  1  0
 23 47  1  0
 23 48  1  0
 24 49  1  0
 24 50  1  0
 25 51  1  0
 26 52  1  0
M  END
$$$$
