
     RDKit          3D

 47 50  0  0  0  0  0  0  0  0999 V2000
   -0.6983    2.0673   -2.5331 C   0  0  0  0  0  0  0  0  0  0  0  0
   -0.5194    0.5540   -2.2945 C   0  0  0  0  0  0  0  0  0  0  0  0
   -0.7199   -0.1656   -3.6419 C   0  0  0  0  0  0  0  0  0  0  0  0
   -1.5897    0.0313   -1.2842 C   0  0  0  0  0  0  0  0  0  0  0  0
   -1.2123    0.3515    0.1250 C   0  0  0  0  0  0  0  0  0  0  0  0
    0.0548    0.7443    0.5205 C   0  0  0  0  0  0  0  0  0  0  0  0
   -0.0786    1.0583    1.8767 C   0  0  0  0  0  0  0  0  0  0  0  0
   -1.3144    0.8540    2.3244 N   0  0  0  0  0  0  0  0  0  0  0  0
   -2.0144    0.3621    1.2597 N   0  0  0  0  0  0  0  0  0  0  0  0
   -3.3729   -0.0418    1.4589 C   0  0  0  0  0  0  0  0  0  0  0  0
   -4.0923   -0.7802    0.5101 C   0  0  0  0  0  0  0  0  0  0  0  0
   -5.4197   -1.1497    0.7602 C   0  0  0  0  0  0  0  0  0  0  0  0
   -6.0267   -0.7913    1.9568 C   0  0  0  0  0  0  0  0  0  0  0  0
   -7.2959   -1.1506    2.1874 F   0  0  0  0  0  0  0  0  0  0  0  0
   -5.3306   -0.0742    2.9178 C   0  0  0  0  0  0  0  0  0  0  0  0
   -4.0056    0.2959    2.6729 C   0  0  0  0  0  0  0  0  0  0  0  0
    1.2246    0.8762   -0.3923 C   0  0  0  0  0  0  0  0  0  0  0  0
    2.3591    0.2265    0.2229 N   0  0  0  0  0  0  0  0  0  0  0  0
    3.6568    0.5037   -0.1466 C   0  0  0  0  0  0  0  0  0  0  0  0
    3.9726    1.3872   -0.9339 O   0  0  0  0  0  0  0  0  0  0  0  0
    4.6778   -0.3771    0.4854 C   0  0  0  0  0  0  0  0  0  0  0  0
    6.0255   -0.1798    0.2267 C   0  0  0  0  0  0  0  0  0  0  0  0
    6.9882   -0.9617    0.7800 N   0  0  0  0  0  0  0  0  0  0  0  0
    6.5391   -1.9419    1.5985 C   0  0  0  0  0  0  0  0  0  0  0  0
    5.1901   -2.1394    1.8553 C   0  0  0  0  0  0  0  0  0  0  0  0
    4.2218   -1.3682    1.3078 N   0  0  0  0  0  0  0  0  0  0  0  0
    0.9152    0.2480   -1.7718 C   0  0  0  0  0  0  0  0  0  0  0  0
   -0.6258    2.6475   -1.6081 H   0  0  0  0  0  0  0  0  0  0  0  0
   -1.6791    2.2811   -2.9733 H   0  0  0  0  0  0  0  0  0  0  0  0
    0.0636    2.4473   -3.2230 H   0  0  0  0  0  0  0  0  0  0  0  0
   -1.7267    0.0097   -4.0374 H   0  0  0  0  0  0  0  0  0  0  0  0
   -0.5872   -1.2483   -3.5377 H   0  0  0  0  0  0  0  0  0  0  0  0
   -0.0001    0.1865   -4.3894 H   0  0  0  0  0  0  0  0  0  0  0  0
   -2.5629    0.4667   -1.5374 H   0  0  0  0  0  0  0  0  0  0  0  0
   -1.6637   -1.0596   -1.3762 H   0  0  0  0  0  0  0  0  0  0  0  0
    0.6712    1.4407    2.5581 H   0  0  0  0  0  0  0  0  0  0  0  0
   -3.6576   -1.1223   -0.4191 H   0  0  0  0  0  0  0  0  0  0  0  0
   -5.9805   -1.7251    0.0298 H   0  0  0  0  0  0  0  0  0  0  0  0
   -5.8162    0.1932    3.8507 H   0  0  0  0  0  0  0  0  0  0  0  0
   -3.4776    0.8605    3.4406 H   0  0  0  0  0  0  0  0  0  0  0  0
    1.4619    1.9391   -0.5240 H   0  0  0  0  0  0  0  0  0  0  0  0
    2.2196   -0.6029    0.7952 H   0  0  0  0  0  0  0  0  0  0  0  0
    6.3733    0.6101   -0.4306 H   0  0  0  0  0  0  0  0  0  0  0  0
    7.2999   -2.5712    2.0475 H   0  0  0  0  0  0  0  0  0  0  0  0
    4.8530   -2.9316    2.5152 H   0  0  0  0  0  0  0  0  0  0  0  0
    1.0336   -0.8438   -1.7045 H   0  0  0  0  0  0  0  0  0  0  0  0
    1.6663    0.5835   -2.4990 H   0  0  0  0  0  0  0  0  0  0  0  0
  1  2  1  0
  2  3  1  0
  2  4  1  0
  4  5  1  0
  5  6  2  0
  6  7  1  0
  7  8  2  0
  8  9  1  0
  9 10  1  0
 10 11  2  0
 11 12  1  0
 12 13  2  0
 13 14  1  0
 13 15  1  0
 15 16  2  0
  6 17  1  0
 17 18  1  0
 18 19  1  0
 19 20  2  0
 19 21  1  0
 21 22  2  0
 22 23  1  0
 23 24  2  0
 24 25  1  0
 25 26  2  0
 17 27  1  0
 27  2  1  0
  9  5  1  0
 16 10  1  0
 26 21  1  0
  1 28  1  0
  1 29  1  0
  1 30  1  0
  3 31  1  0
  3 32  1  0
  3 33  1  0
  4 34  1  0
  4 35  1  0
  7 36  1  0
 11 37  1  0
 12 38  1  0
 15 39  1  0
 16 40  1  0
 17 41  1  0
 18 42  1  0
 22 43  1  0
 24 44  1  0
 25 45  1  0
 27 46  1  0
 27 47  1  0
M  END
$$$$
