
     RDKit          3D

 46 49  0  0  0  0  0  0  0  0999 V2000
    0.0765   -2.8497   -0.0211 O   0  0  0  0  0  0  0  0  0  0  0  0
    0.6444   -1.9906    0.6536 C   0  0  0  0  0  0  0  0  0  0  0  0
    2.0458   -2.2572    1.1936 C   0  0  0  0  0  0  0  0  0  0  0  0
    2.8582   -0.8525    2.0163 S   0  0  0  0  0  0  0  0  0  0  0  0
    3.2598    0.1178    0.5792 C   0  0  0  0  0  0  0  0  0  0  0  0
    2.2786    1.0105    0.2699 N   0  0  0  0  0  0  0  0  0  0  0  0
    2.4882    1.8458   -0.7710 C   0  0  0  0  0  0  0  0  0  0  0  0
    3.6413    1.8451   -1.5318 C   0  0  0  0  0  0  0  0  0  0  0  0
    4.6389    0.9315   -1.2072 C   0  0  0  0  0  0  0  0  0  0  0  0
    4.4562    0.0473   -0.1336 C   0  0  0  0  0  0  0  0  0  0  0  0
    5.5076   -0.9406    0.1799 C   0  0  0  0  0  0  0  0  0  0  0  0
    5.3577   -2.0674    0.6080 O   0  0  0  0  0  0  0  0  0  0  0  0
    6.7359   -0.4535   -0.0816 O   0  0  0  0  0  0  0  0  0  0  0  0
    0.0609   -0.7905    0.9862 N   0  0  0  0  0  0  0  0  0  0  0  0
   -1.2372   -0.3187    0.4974 C   0  0  0  0  0  0  0  0  0  0  0  0
   -1.2414   -0.1545   -1.0423 C   0  0  0  0  0  0  0  0  0  0  0  0
   -2.5940    0.3991   -1.5236 C   0  0  0  0  0  0  0  0  0  0  0  0
   -2.8394    1.7720   -0.8777 C   0  0  0  0  0  0  0  0  0  0  0  0
   -2.8640    1.6356    0.6529 C   0  0  0  0  0  0  0  0  0  0  0  0
   -3.9865    0.6694    1.0606 C   0  0  0  0  0  0  0  0  0  0  0  0
   -3.7460   -0.7096    0.4273 C   0  0  0  0  0  0  0  0  0  0  0  0
   -3.7153   -0.5667   -1.1040 C   0  0  0  0  0  0  0  0  0  0  0  0
   -2.3939   -1.2638    0.9110 C   0  0  0  0  0  0  0  0  0  0  0  0
   -1.5164    1.0721    1.1300 C   0  0  0  0  0  0  0  0  0  0  0  0
    2.6695   -2.6140    0.3681 H   0  0  0  0  0  0  0  0  0  0  0  0
    1.9595   -3.0630    1.9297 H   0  0  0  0  0  0  0  0  0  0  0  0
    1.6773    2.5383   -0.9818 H   0  0  0  0  0  0  0  0  0  0  0  0
    3.7621    2.5368   -2.3588 H   0  0  0  0  0  0  0  0  0  0  0  0
    5.5535    0.9076   -1.7955 H   0  0  0  0  0  0  0  0  0  0  0  0
    7.3413   -1.1811    0.1777 H   0  0  0  0  0  0  0  0  0  0  0  0
    0.7279   -0.0647    1.2478 H   0  0  0  0  0  0  0  0  0  0  0  0
   -0.4322    0.5185   -1.3534 H   0  0  0  0  0  0  0  0  0  0  0  0
   -1.0492   -1.1136   -1.5378 H   0  0  0  0  0  0  0  0  0  0  0  0
   -2.5833    0.5012   -2.6145 H   0  0  0  0  0  0  0  0  0  0  0  0
   -2.0523    2.4741   -1.1791 H   0  0  0  0  0  0  0  0  0  0  0  0
   -3.7903    2.1883   -1.2321 H   0  0  0  0  0  0  0  0  0  0  0  0
   -3.0370    2.6169    1.1086 H   0  0  0  0  0  0  0  0  0  0  0  0
   -4.0254    0.5787    2.1531 H   0  0  0  0  0  0  0  0  0  0  0  0
   -4.9576    1.0655    0.7392 H   0  0  0  0  0  0  0  0  0  0  0  0
   -4.5503   -1.3944    0.7184 H   0  0  0  0  0  0  0  0  0  0  0  0
   -3.5585   -1.5477   -1.5690 H   0  0  0  0  0  0  0  0  0  0  0  0
   -4.6826   -0.1949   -1.4640 H   0  0  0  0  0  0  0  0  0  0  0  0
   -2.4086   -1.3867    2.0020 H   0  0  0  0  0  0  0  0  0  0  0  0
   -2.2545   -2.2666    0.4918 H   0  0  0  0  0  0  0  0  0  0  0  0
   -0.7129    1.7742    0.8698 H   0  0  0  0  0  0  0  0  0  0  0  0
   -1.5121    0.9958    2.2256 H   0  0  0  0  0  0  0  0  0  0  0  0
  1  2  2  0
  2  3  1  0
  3  4  1  0
  4  5  1  0
  5  6  2  0
  6  7  1  0
  7  8  2  0
  8  9  1  0
  9 10  2  0
 10 11  1  0
 11 12  2  0
 11 13  1  0
  2 14  1  0
 14 15  1  0
 15 16  1  0
 16 17  1  0
 17 18  1  0
 18 19  1  0
 19 20  1  0
 20 21  1  0
 21 22  1  0
 21 23  1  0
 19 24  1  0
 10  5  1  0
 23 15  1  0
 24 15  1  0
 22 17  1  0
  3 25  1  0
  3 26  1  0
  7 27  1  0
  8 28  1  0
  9 29  1  0
 13 30  1  0
 14 31  1  0
 16 32  1  0
 16 33  1  0
 17 34  1  0
 18 35  1  0
 18 36  1  0
 19 37  1  0
 20 38  1  0
 20 39  1  0
 21 40  1  0
 22 41  1  0
 22 42  1  0
 23 43  1  0
 23 44  1  0
 24 45  1  0
 24 46  1  0
M  END
$$$$
