
     RDKit          3D

 39 40  0  0  0  0  0  0  0  0999 V2000
   -3.7411   -3.1276    1.9122 C   0  0  0  0  0  0  0  0  0  0  0  0
   -3.3954   -1.6525    1.7850 C   0  0  0  0  0  0  0  0  0  0  0  0
   -2.5073   -1.3884    0.5697 C   0  0  0  0  0  0  0  0  0  0  0  0
   -2.1607    0.0968    0.4473 C   0  0  0  0  0  0  0  0  0  0  0  0
   -1.3239    0.3330   -0.7077 N   0  0  0  0  0  0  0  0  0  0  0  0
   -1.6826    0.4204   -2.0100 C   0  0  0  0  0  0  0  0  0  0  0  0
   -2.9756    0.6110   -2.3253 N   0  0  0  0  0  0  0  0  0  0  0  0
   -0.7447    0.3487   -2.9077 N   0  0  0  0  0  0  0  0  0  0  0  0
    0.4974    0.0944   -2.1186 C   0  0  0  0  0  0  0  0  0  0  0  0
    0.1281    0.2352   -0.6230 C   0  0  0  0  0  0  0  0  0  0  0  0
    0.7259    1.5024    0.0101 C   0  0  0  0  0  0  0  0  0  0  0  0
    2.2077    1.3822    0.2851 C   0  0  0  0  0  0  0  0  0  0  0  0
    2.6718    0.5923    1.3481 C   0  0  0  0  0  0  0  0  0  0  0  0
    4.0407    0.4727    1.5993 C   0  0  0  0  0  0  0  0  0  0  0  0
    4.9465    1.1452    0.7863 C   0  0  0  0  0  0  0  0  0  0  0  0
    6.2909    1.0566    0.9948 O   0  0  0  0  0  0  0  0  0  0  0  0
    4.5057    1.9338   -0.2687 C   0  0  0  0  0  0  0  0  0  0  0  0
    3.1381    2.0543   -0.5192 C   0  0  0  0  0  0  0  0  0  0  0  0
   -2.8369   -3.7335    2.0290 H   0  0  0  0  0  0  0  0  0  0  0  0
   -4.2809   -3.4816    1.0281 H   0  0  0  0  0  0  0  0  0  0  0  0
   -4.3769   -3.2936    2.7876 H   0  0  0  0  0  0  0  0  0  0  0  0
   -4.3216   -1.0721    1.7025 H   0  0  0  0  0  0  0  0  0  0  0  0
   -2.8854   -1.3230    2.6978 H   0  0  0  0  0  0  0  0  0  0  0  0
   -1.5860   -1.9784    0.6528 H   0  0  0  0  0  0  0  0  0  0  0  0
   -3.0168   -1.7316   -0.3388 H   0  0  0  0  0  0  0  0  0  0  0  0
   -1.6485    0.4266    1.3585 H   0  0  0  0  0  0  0  0  0  0  0  0
   -3.0764    0.6958    0.3794 H   0  0  0  0  0  0  0  0  0  0  0  0
   -3.6178    0.0196   -1.8203 H   0  0  0  0  0  0  0  0  0  0  0  0
   -3.1068    0.5256   -3.3277 H   0  0  0  0  0  0  0  0  0  0  0  0
    0.8403   -0.9245   -2.3324 H   0  0  0  0  0  0  0  0  0  0  0  0
    1.2800    0.7879   -2.4384 H   0  0  0  0  0  0  0  0  0  0  0  0
    0.4304   -0.6655   -0.0759 H   0  0  0  0  0  0  0  0  0  0  0  0
    0.5278    2.3770   -0.6239 H   0  0  0  0  0  0  0  0  0  0  0  0
    0.2291    1.7237    0.9635 H   0  0  0  0  0  0  0  0  0  0  0  0
    1.9682    0.0681    1.9912 H   0  0  0  0  0  0  0  0  0  0  0  0
    4.3774   -0.1427    2.4274 H   0  0  0  0  0  0  0  0  0  0  0  0
    6.4489    0.4809    1.7605 H   0  0  0  0  0  0  0  0  0  0  0  0
    5.2242    2.4549   -0.8950 H   0  0  0  0  0  0  0  0  0  0  0  0
    2.8062    2.6760   -1.3483 H   0  0  0  0  0  0  0  0  0  0  0  0
  1  2  1  0
  2  3  1  0
  3  4  1  0
  4  5  1  0
  5  6  1  0
  6  7  1  0
  6  8  2  0
  8  9  1  0
  9 10  1  0
 10 11  1  0
 11 12  1  0
 12 13  2  0
 13 14  1  0
 14 15  2  0
 15 16  1  0
 15 17  1  0
 17 18  2  0
 10  5  1  0
 18 12  1  0
  1 19  1  0
  1 20  1  0
  1 21  1  0
  2 22  1  0
  2 23  1  0
  3 24  1  0
  3 25  1  0
  4 26  1  0
  4 27  1  0
  7 28  1  0
  7 29  1  0
  9 30  1  0
  9 31  1  0
 10 32  1  0
 11 33  1  0
 11 34  1  0
 13 35  1  0
 14 36  1  0
 16 37  1  0
 17 38  1  0
 18 39  1  0
M  END
$$$$
