
     RDKit          3D

 51 54  0  0  0  0  0  0  0  0999 V2000
   -0.7962    4.6512    3.7453 C   0  0  0  0  0  0  0  0  0  0  0  0
    0.0595    3.7341    2.8891 C   0  0  0  0  0  0  0  0  0  0  0  0
   -0.2309    2.3819    3.2647 O   0  0  0  0  0  0  0  0  0  0  0  0
    0.3503    1.5059    2.3813 C   0  0  0  0  0  0  0  0  0  0  0  0
   -0.4919    0.9116    1.4374 C   0  0  0  0  0  0  0  0  0  0  0  0
    0.0143   -0.0127    0.5129 C   0  0  0  0  0  0  0  0  0  0  0  0
   -0.9429   -0.6596   -0.4885 C   0  0  0  0  0  0  0  0  0  0  0  0
   -1.3033   -2.0785   -0.0387 C   0  0  0  0  0  0  0  0  0  0  0  0
   -2.7859   -2.3898   -0.1469 C   0  0  0  0  0  0  0  0  0  0  0  0
   -3.6448   -1.5130   -0.2013 O   0  0  0  0  0  0  0  0  0  0  0  0
   -3.1653   -3.8654   -0.1682 C   0  0  0  0  0  0  0  0  0  0  0  0
   -2.0645   -4.7254    0.4569 C   0  0  0  0  0  0  0  0  0  0  0  0
   -0.7203   -4.5741   -0.2603 C   0  0  0  0  0  0  0  0  0  0  0  0
   -0.5616   -3.1632   -0.7948 C   0  0  0  0  0  0  0  0  0  0  0  0
    0.1160   -2.9960   -1.8854 N   0  0  0  0  0  0  0  0  0  0  0  0
    0.1359   -1.7641   -2.4423 C   0  0  0  0  0  0  0  0  0  0  0  0
    0.6041   -1.3887   -3.6091 N   0  0  0  0  0  0  0  0  0  0  0  0
    0.3392   -0.0288   -3.6798 C   0  0  0  0  0  0  0  0  0  0  0  0
    0.7075    0.7993   -4.8463 C   0  0  0  0  0  0  0  0  0  0  0  0
    1.2666    0.3610   -5.8485 O   0  0  0  0  0  0  0  0  0  0  0  0
    0.3604    2.1184   -4.6943 O   0  0  0  0  0  0  0  0  0  0  0  0
    0.7086    2.9458   -5.8025 C   0  0  0  0  0  0  0  0  0  0  0  0
   -0.2839    0.4469   -2.5805 N   0  0  0  0  0  0  0  0  0  0  0  0
   -0.3747   -0.6580   -1.8246 N   0  0  0  0  0  0  0  0  0  0  0  0
    1.3768   -0.3467    0.5853 C   0  0  0  0  0  0  0  0  0  0  0  0
    2.2122    0.2379    1.5472 C   0  0  0  0  0  0  0  0  0  0  0  0
    1.7071    1.1654    2.4603 C   0  0  0  0  0  0  0  0  0  0  0  0
    2.4336    1.7709    3.4496 O   0  0  0  0  0  0  0  0  0  0  0  0
    3.8204    1.4724    3.5199 C   0  0  0  0  0  0  0  0  0  0  0  0
   -1.8592    4.4281    3.6047 H   0  0  0  0  0  0  0  0  0  0  0  0
   -0.5757    4.5030    4.8078 H   0  0  0  0  0  0  0  0  0  0  0  0
   -0.6204    5.7003    3.4909 H   0  0  0  0  0  0  0  0  0  0  0  0
    1.1173    3.9620    3.0620 H   0  0  0  0  0  0  0  0  0  0  0  0
   -0.1786    3.9014    1.8307 H   0  0  0  0  0  0  0  0  0  0  0  0
   -1.5448    1.1888    1.4304 H   0  0  0  0  0  0  0  0  0  0  0  0
   -1.8328   -0.0230   -0.5644 H   0  0  0  0  0  0  0  0  0  0  0  0
   -1.0689   -2.2029    1.0273 H   0  0  0  0  0  0  0  0  0  0  0  0
   -3.3427   -4.1598   -1.2083 H   0  0  0  0  0  0  0  0  0  0  0  0
   -4.0943   -3.9916    0.3989 H   0  0  0  0  0  0  0  0  0  0  0  0
   -1.9393   -4.4375    1.5084 H   0  0  0  0  0  0  0  0  0  0  0  0
   -2.3636   -5.7794    0.4570 H   0  0  0  0  0  0  0  0  0  0  0  0
   -0.6664   -5.2749   -1.1013 H   0  0  0  0  0  0  0  0  0  0  0  0
    0.1077   -4.7964    0.4204 H   0  0  0  0  0  0  0  0  0  0  0  0
    0.1430    2.6495   -6.6918 H   0  0  0  0  0  0  0  0  0  0  0  0
    1.7855    2.9032   -5.9959 H   0  0  0  0  0  0  0  0  0  0  0  0
    0.4442    3.9773   -5.5522 H   0  0  0  0  0  0  0  0  0  0  0  0
    1.8191   -1.0644   -0.1044 H   0  0  0  0  0  0  0  0  0  0  0  0
    3.2559   -0.0593    1.5557 H   0  0  0  0  0  0  0  0  0  0  0  0
    3.9855    0.4129    3.7401 H   0  0  0  0  0  0  0  0  0  0  0  0
    4.2459    2.0528    4.3441 H   0  0  0  0  0  0  0  0  0  0  0  0
    4.3365    1.7710    2.6017 H   0  0  0  0  0  0  0  0  0  0  0  0
  1  2  1  0
  2  3  1  0
  3  4  1  0
  4  5  2  0
  5  6  1  0
  6  7  1  0
  7  8  1  0
  8  9  1  0
  9 10  2  0
  9 11  1  0
 11 12  1  0
 12 13  1  0
 13 14  1  0
 14 15  2  0
 15 16  1  0
 16 17  2  0
 17 18  1  0
 18 19  1  0
 19 20  2  0
 19 21  1  0
 21 22  1  0
 18 23  2  0
 23 24  1  0
  6 25  2  0
 25 26  1  0
 26 27  2  0
 27 28  1  0
 28 29  1  0
 27  4  1  0
 24  7  1  0
 14  8  1  0
 24 16  1  0
  1 30  1  0
  1 31  1  0
  1 32  1  0
  2 33  1  0
  2 34  1  0
  5 35  1  0
  7 36  1  0
  8 37  1  0
 11 38  1  0
 11 39  1  0
 12 40  1  0
 12 41  1  0
 13 42  1  0
 13 43  1  0
 22 44  1  0
 22 45  1  0
 22 46  1  0
 25 47  1  0
 26 48  1  0
 29 49  1  0
 29 50  1  0
 29 51  1  0
M  END
$$$$
