
     RDKit          3D

 46 48  0  0  0  0  0  0  0  0999 V2000
   -1.6101   -1.2685   -2.9460 N   0  0  0  0  0  0  0  0  0  0  0  0
   -0.5828   -1.3105   -2.0792 C   0  0  0  0  0  0  0  0  0  0  0  0
    0.2075   -2.3351   -1.9627 N   0  0  0  0  0  0  0  0  0  0  0  0
    1.1531   -1.9425   -0.8755 C   0  0  0  0  0  0  0  0  0  0  0  0
    0.8803   -0.4568   -0.5449 C   0  0  0  0  0  0  0  0  0  0  0  0
    2.0030    0.4769   -1.0243 C   0  0  0  0  0  0  0  0  0  0  0  0
    3.2348    0.4174   -0.1508 C   0  0  0  0  0  0  0  0  0  0  0  0
    4.3891   -0.2445   -0.5913 C   0  0  0  0  0  0  0  0  0  0  0  0
    5.5214   -0.3067    0.2222 C   0  0  0  0  0  0  0  0  0  0  0  0
    5.5043    0.2933    1.4748 C   0  0  0  0  0  0  0  0  0  0  0  0
    6.6324    0.2079    2.2355 O   0  0  0  0  0  0  0  0  0  0  0  0
    4.3710    0.9580    1.9304 C   0  0  0  0  0  0  0  0  0  0  0  0
    3.2373    1.0198    1.1166 C   0  0  0  0  0  0  0  0  0  0  0  0
   -0.3346   -0.2186   -1.3171 N   0  0  0  0  0  0  0  0  0  0  0  0
   -1.2772    0.8090   -0.9145 C   0  0  0  0  0  0  0  0  0  0  0  0
   -2.4824    0.2646   -0.1204 C   0  0  0  0  0  0  0  0  0  0  0  0
   -2.0735   -0.3553    1.2260 C   0  0  0  0  0  0  0  0  0  0  0  0
   -3.2838   -0.8044    2.0427 C   0  0  0  0  0  0  0  0  0  0  0  0
   -4.2839    0.3276    2.2441 C   0  0  0  0  0  0  0  0  0  0  0  0
   -4.7070    0.9371    0.9130 C   0  0  0  0  0  0  0  0  0  0  0  0
   -3.5007    1.3984    0.0999 C   0  0  0  0  0  0  0  0  0  0  0  0
   -1.5694   -2.0660   -3.5718 H   0  0  0  0  0  0  0  0  0  0  0  0
   -1.6516   -0.4008   -3.4621 H   0  0  0  0  0  0  0  0  0  0  0  0
    0.9530   -2.5710   -0.0001 H   0  0  0  0  0  0  0  0  0  0  0  0
    2.1803   -2.1306   -1.2002 H   0  0  0  0  0  0  0  0  0  0  0  0
    0.7065   -0.3389    0.5303 H   0  0  0  0  0  0  0  0  0  0  0  0
    2.2671    0.2552   -2.0670 H   0  0  0  0  0  0  0  0  0  0  0  0
    1.6486    1.5164   -1.0339 H   0  0  0  0  0  0  0  0  0  0  0  0
    4.4163   -0.7186   -1.5703 H   0  0  0  0  0  0  0  0  0  0  0  0
    6.4140   -0.8218   -0.1215 H   0  0  0  0  0  0  0  0  0  0  0  0
    6.4757    0.6694    3.0753 H   0  0  0  0  0  0  0  0  0  0  0  0
    4.3509    1.4315    2.9067 H   0  0  0  0  0  0  0  0  0  0  0  0
    2.3556    1.5455    1.4770 H   0  0  0  0  0  0  0  0  0  0  0  0
   -0.7617    1.5764   -0.3230 H   0  0  0  0  0  0  0  0  0  0  0  0
   -1.6363    1.3202   -1.8163 H   0  0  0  0  0  0  0  0  0  0  0  0
   -2.9789   -0.5160   -0.7111 H   0  0  0  0  0  0  0  0  0  0  0  0
   -1.4932    0.3707    1.8092 H   0  0  0  0  0  0  0  0  0  0  0  0
   -1.4295   -1.2262    1.0626 H   0  0  0  0  0  0  0  0  0  0  0  0
   -2.9507   -1.1792    3.0171 H   0  0  0  0  0  0  0  0  0  0  0  0
   -3.7770   -1.6404    1.5314 H   0  0  0  0  0  0  0  0  0  0  0  0
   -5.1656   -0.0483    2.7753 H   0  0  0  0  0  0  0  0  0  0  0  0
   -3.8358    1.1038    2.8766 H   0  0  0  0  0  0  0  0  0  0  0  0
   -5.2759    0.1981    0.3355 H   0  0  0  0  0  0  0  0  0  0  0  0
   -5.3763    1.7860    1.0926 H   0  0  0  0  0  0  0  0  0  0  0  0
   -3.0171    2.2367    0.6179 H   0  0  0  0  0  0  0  0  0  0  0  0
   -3.8473    1.7810   -0.8677 H   0  0  0  0  0  0  0  0  0  0  0  0
  1  2  1  0
  2  3  2  0
  3  4  1  0
  4  5  1  0
  5  6  1  0
  6  7  1  0
  7  8  2  0
  8  9  1  0
  9 10  2  0
 10 11  1  0
 10 12  1  0
 12 13  2  0
  5 14  1  0
 14 15  1  0
 15 16  1  0
 16 17  1  0
 17 18  1  0
 18 19  1  0
 19 20  1  0
 20 21  1  0
 14  2  1  0
 21 16  1  0
 13  7  1  0
  1 22  1  0
  1 23  1  0
  4 24  1  0
  4 25  1  0
  5 26  1  0
  6 27  1  0
  6 28  1  0
  8 29  1  0
  9 30  1  0
 11 31  1  0
 12 32  1  0
 13 33  1  0
 15 34  1  0
 15 35  1  0
 16 36  1  0
 17 37  1  0
 17 38  1  0
 18 39  1  0
 18 40  1  0
 19 41  1  0
 19 42  1  0
 20 43  1  0
 20 44  1  0
 21 45  1  0
 21 46  1  0
M  END
$$$$
