
     RDKit          3D

 49 52  0  0  0  0  0  0  0  0999 V2000
   -0.5534   -3.4789    2.0427 O   0  0  0  0  0  0  0  0  0  0  0  0
    0.3933   -2.7711    1.7065 C   0  0  0  0  0  0  0  0  0  0  0  0
    1.8330   -3.1641    2.0551 C   0  0  0  0  0  0  0  0  0  0  0  0
    2.7400   -2.0134    2.0678 N   0  0  0  0  0  0  0  0  0  0  0  0
    3.1784   -1.5529    0.8403 N   0  0  0  0  0  0  0  0  0  0  0  0
    3.9687   -0.5219    0.8229 C   0  0  0  0  0  0  0  0  0  0  0  0
    4.4469   -0.0043   -0.4907 C   0  0  0  0  0  0  0  0  0  0  0  0
    4.6387    1.3661   -0.7202 C   0  0  0  0  0  0  0  0  0  0  0  0
    5.0720    1.8091   -1.9728 C   0  0  0  0  0  0  0  0  0  0  0  0
    5.3028    0.8875   -2.9885 C   0  0  0  0  0  0  0  0  0  0  0  0
    5.7178    1.3178   -4.1864 F   0  0  0  0  0  0  0  0  0  0  0  0
    5.1026   -0.4718   -2.7802 C   0  0  0  0  0  0  0  0  0  0  0  0
    4.6690   -0.9200   -1.5310 C   0  0  0  0  0  0  0  0  0  0  0  0
    4.4406    0.1775    2.0370 C   0  0  0  0  0  0  0  0  0  0  0  0
    3.9694   -0.2571    3.2063 C   0  0  0  0  0  0  0  0  0  0  0  0
    3.0353   -1.3978    3.2763 C   0  0  0  0  0  0  0  0  0  0  0  0
    2.5935   -1.7388    4.3688 O   0  0  0  0  0  0  0  0  0  0  0  0
    0.3229   -1.6616    0.8817 N   0  0  0  0  0  0  0  0  0  0  0  0
   -0.8122   -1.0408    0.3379 C   0  0  0  0  0  0  0  0  0  0  0  0
   -2.1214   -1.4544    0.5890 C   0  0  0  0  0  0  0  0  0  0  0  0
   -3.2056   -0.7784    0.0134 C   0  0  0  0  0  0  0  0  0  0  0  0
   -2.9868    0.3294   -0.8124 C   0  0  0  0  0  0  0  0  0  0  0  0
   -4.1030    1.0853   -1.4464 C   0  0  0  0  0  0  0  0  0  0  0  0
   -3.9109    1.6904   -2.4963 O   0  0  0  0  0  0  0  0  0  0  0  0
   -5.3091    1.0793   -0.7698 N   0  0  0  0  0  0  0  0  0  0  0  0
   -6.4422    1.8126   -1.2393 C   0  0  0  0  0  0  0  0  0  0  0  0
   -6.8207    3.1201   -0.6012 C   0  0  0  0  0  0  0  0  0  0  0  0
   -7.6908    1.9133   -0.4065 C   0  0  0  0  0  0  0  0  0  0  0  0
   -1.6750    0.7353   -1.0791 C   0  0  0  0  0  0  0  0  0  0  0  0
   -0.5964    0.0568   -0.5035 C   0  0  0  0  0  0  0  0  0  0  0  0
    2.1905   -3.8819    1.3091 H   0  0  0  0  0  0  0  0  0  0  0  0
    1.8300   -3.6464    3.0378 H   0  0  0  0  0  0  0  0  0  0  0  0
    4.4342    2.1055    0.0491 H   0  0  0  0  0  0  0  0  0  0  0  0
    5.2230    2.8668   -2.1675 H   0  0  0  0  0  0  0  0  0  0  0  0
    5.2819   -1.1725   -3.5901 H   0  0  0  0  0  0  0  0  0  0  0  0
    4.5114   -1.9854   -1.3735 H   0  0  0  0  0  0  0  0  0  0  0  0
    5.1526    0.9889    1.9788 H   0  0  0  0  0  0  0  0  0  0  0  0
    4.2563    0.1873    4.1509 H   0  0  0  0  0  0  0  0  0  0  0  0
    1.2350   -1.2764    0.6358 H   0  0  0  0  0  0  0  0  0  0  0  0
   -2.3341   -2.3086    1.2252 H   0  0  0  0  0  0  0  0  0  0  0  0
   -4.2063   -1.1554    0.2035 H   0  0  0  0  0  0  0  0  0  0  0  0
   -5.3513    0.6900    0.1627 H   0  0  0  0  0  0  0  0  0  0  0  0
   -6.5840    1.7346   -2.3161 H   0  0  0  0  0  0  0  0  0  0  0  0
   -7.1757    3.9094   -1.2539 H   0  0  0  0  0  0  0  0  0  0  0  0
   -6.2336    3.4715    0.2387 H   0  0  0  0  0  0  0  0  0  0  0  0
   -8.6434    1.8864   -0.9235 H   0  0  0  0  0  0  0  0  0  0  0  0
   -7.7067    1.4537    0.5740 H   0  0  0  0  0  0  0  0  0  0  0  0
   -1.4892    1.5831   -1.7360 H   0  0  0  0  0  0  0  0  0  0  0  0
    0.4118    0.3961   -0.7282 H   0  0  0  0  0  0  0  0  0  0  0  0
  1  2  2  0
  2  3  1  0
  3  4  1  0
  4  5  1  0
  5  6  2  0
  6  7  1  0
  7  8  2  0
  8  9  1  0
  9 10  2  0
 10 11  1  0
 10 12  1  0
 12 13  2  0
  6 14  1  0
 14 15  2  0
 15 16  1  0
 16 17  2  0
  2 18  1  0
 18 19  1  0
 19 20  2  0
 20 21  1  0
 21 22  2  0
 22 23  1  0
 23 24  2  0
 23 25  1  0
 25 26  1  0
 26 27  1  0
 27 28  1  0
 22 29  1  0
 29 30  2  0
 16  4  1  0
 30 19  1  0
 13  7  1  0
 28 26  1  0
  3 31  1  0
  3 32  1  0
  8 33  1  0
  9 34  1  0
 12 35  1  0
 13 36  1  0
 14 37  1  0
 15 38  1  0
 18 39  1  0
 20 40  1  0
 21 41  1  0
 25 42  1  0
 26 43  1  0
 27 44  1  0
 27 45  1  0
 28 46  1  0
 28 47  1  0
 29 48  1  0
 30 49  1  0
M  END
$$$$
