
     RDKit          3D

 66 72  0  0  0  0  0  0  0  0999 V2000
    2.3166    1.2616   -1.6315 O   0  0  0  0  0  0  0  0  0  0  0  0
    2.3395    0.7274   -0.5289 C   0  0  0  0  0  0  0  0  0  0  0  0
    3.3860   -0.0591   -0.0145 N   0  0  0  0  0  0  0  0  0  0  0  0
    4.5919   -0.3579   -0.7503 C   0  0  0  0  0  0  0  0  0  0  0  0
    4.6246   -1.7579   -1.3225 C   0  0  0  0  0  0  0  0  0  0  0  0
    5.7341   -2.5884   -1.1013 C   0  0  0  0  0  0  0  0  0  0  0  0
    5.7775   -3.8753   -1.6425 C   0  0  0  0  0  0  0  0  0  0  0  0
    4.7174   -4.3438   -2.4154 C   0  0  0  0  0  0  0  0  0  0  0  0
    3.6169   -3.5228   -2.6573 C   0  0  0  0  0  0  0  0  0  0  0  0
    3.5726   -2.2352   -2.1197 C   0  0  0  0  0  0  0  0  0  0  0  0
    3.0750   -0.5517    1.2622 C   0  0  0  0  0  0  0  0  0  0  0  0
    3.8346   -1.3695    2.0801 C   0  0  0  0  0  0  0  0  0  0  0  0
    3.3075   -1.7300    3.3233 C   0  0  0  0  0  0  0  0  0  0  0  0
    2.0428   -1.2736    3.7278 C   0  0  0  0  0  0  0  0  0  0  0  0
    1.2851   -0.4480    2.8947 C   0  0  0  0  0  0  0  0  0  0  0  0
    1.8131   -0.0940    1.6583 C   0  0  0  0  0  0  0  0  0  0  0  0
    1.2483    0.7768    0.5723 C   0  0  0  0  0  0  0  0  0  0  0  0
    0.9630    2.1876    1.0110 N   0  0  0  0  0  0  0  0  0  0  0  0
   -0.4177    2.5871    0.5226 C   0  0  2  0  0  0  0  0  0  0  0  0
   -1.1607    3.3382    1.6438 C   0  0  0  0  0  0  0  0  0  0  0  0
   -2.3936    4.1025    1.2178 C   0  0  0  0  0  0  0  0  0  0  0  0
   -2.3014    5.1631    0.3043 C   0  0  0  0  0  0  0  0  0  0  0  0
   -3.4389    5.8877   -0.0598 C   0  0  0  0  0  0  0  0  0  0  0  0
   -4.6788    5.5655    0.4899 C   0  0  0  0  0  0  0  0  0  0  0  0
   -4.7819    4.5189    1.4046 C   0  0  0  0  0  0  0  0  0  0  0  0
   -3.6455    3.7936    1.7694 C   0  0  0  0  0  0  0  0  0  0  0  0
   -1.0062    1.2865    0.1214 C   0  0  0  0  0  0  0  0  0  0  0  0
   -0.0604    0.2632    0.1534 C   0  0  0  0  0  0  0  0  0  0  0  0
   -0.6349   -0.8932   -0.3010 C   0  0  0  0  0  0  0  0  0  0  0  0
   -0.0461   -2.0642   -0.5397 O   0  0  0  0  0  0  0  0  0  0  0  0
   -1.9826   -0.5999   -0.5732 N   0  0  0  0  0  0  0  0  0  0  0  0
   -2.9550   -1.5246   -1.0555 C   0  0  0  0  0  0  0  0  0  0  0  0
   -2.9741   -2.8396   -0.5707 C   0  0  0  0  0  0  0  0  0  0  0  0
   -3.9287   -3.7428   -1.0437 C   0  0  0  0  0  0  0  0  0  0  0  0
   -4.8612   -3.3394   -1.9986 C   0  0  0  0  0  0  0  0  0  0  0  0
   -4.8427   -2.0329   -2.4847 C   0  0  0  0  0  0  0  0  0  0  0  0
   -3.8924   -1.1237   -2.0166 C   0  0  0  0  0  0  0  0  0  0  0  0
   -2.1996    0.7642   -0.3019 C   0  0  0  0  0  0  0  0  0  0  0  0
   -3.3757    1.3766   -0.4083 O   0  0  0  0  0  0  0  0  0  0  0  0
    5.4452   -0.1871   -0.0830 H   0  0  0  0  0  0  0  0  0  0  0  0
    4.6976    0.3514   -1.5799 H   0  0  0  0  0  0  0  0  0  0  0  0
    6.5740   -2.2398   -0.5051 H   0  0  0  0  0  0  0  0  0  0  0  0
    6.6406   -4.5115   -1.4609 H   0  0  0  0  0  0  0  0  0  0  0  0
    4.7499   -5.3458   -2.8359 H   0  0  0  0  0  0  0  0  0  0  0  0
    2.7915   -3.8841   -3.2643 H   0  0  0  0  0  0  0  0  0  0  0  0
    2.7091   -1.6032   -2.3249 H   0  0  0  0  0  0  0  0  0  0  0  0
    4.8086   -1.7363    1.7793 H   0  0  0  0  0  0  0  0  0  0  0  0
    3.8815   -2.3765    3.9839 H   0  0  0  0  0  0  0  0  0  0  0  0
    1.6496   -1.5725    4.6972 H   0  0  0  0  0  0  0  0  0  0  0  0
    0.3026   -0.1046    3.2030 H   0  0  0  0  0  0  0  0  0  0  0  0
    0.9390    2.1735    2.0283 H   0  0  0  0  0  0  0  0  0  0  0  0
   -0.2802    3.2192   -0.3623 H   0  0  0  0  0  0  0  0  0  0  0  0
   -1.4163    2.6402    2.4533 H   0  0  0  0  0  0  0  0  0  0  0  0
   -0.4848    4.0787    2.0951 H   0  0  0  0  0  0  0  0  0  0  0  0
   -1.3412    5.4380   -0.1284 H   0  0  0  0  0  0  0  0  0  0  0  0
   -3.3556    6.7058   -0.7715 H   0  0  0  0  0  0  0  0  0  0  0  0
   -5.5634    6.1292    0.2059 H   0  0  0  0  0  0  0  0  0  0  0  0
   -5.7476    4.2654    1.8340 H   0  0  0  0  0  0  0  0  0  0  0  0
   -3.7448    2.9769    2.4811 H   0  0  0  0  0  0  0  0  0  0  0  0
   -0.5620   -2.5476   -1.2090 H   0  0  0  0  0  0  0  0  0  0  0  0
   -2.2839   -3.1673    0.2048 H   0  0  0  0  0  0  0  0  0  0  0  0
   -3.9510   -4.7604   -0.6600 H   0  0  0  0  0  0  0  0  0  0  0  0
   -5.6031   -4.0452   -2.3660 H   0  0  0  0  0  0  0  0  0  0  0  0
   -5.5622   -1.7237   -3.2395 H   0  0  0  0  0  0  0  0  0  0  0  0
   -3.8701   -0.1248   -2.4492 H   0  0  0  0  0  0  0  0  0  0  0  0
   -4.0915    0.7194   -0.3453 H   0  0  0  0  0  0  0  0  0  0  0  0
  1  2  2  0
  2  3  1  0
  3  4  1  0
  4  5  1  0
  5  6  2  0
  6  7  1  0
  7  8  2  0
  8  9  1  0
  9 10  2  0
  3 11  1  0
 11 12  2  0
 12 13  1  0
 13 14  2  0
 14 15  1  0
 15 16  2  0
 16 17  1  0
 17 18  1  0
 18 19  1  0
 19 20  1  0
 20 21  1  0
 21 22  2  0
 22 23  1  0
 23 24  2  0
 24 25  1  0
 25 26  2  0
 19 27  1  0
 27 28  1  0
 28 29  2  0
 29 30  1  0
 29 31  1  0
 31 32  1  0
 32 33  2  0
 33 34  1  0
 34 35  2  0
 35 36  1  0
 36 37  2  0
 31 38  1  0
 38 39  1  0
 17  2  1  0
 26 21  1  0
 38 27  2  0
 10  5  1  0
 16 11  1  0
 28 17  1  0
 37 32  1  0
  4 40  1  0
  4 41  1  0
  6 42  1  0
  7 43  1  0
  8 44  1  0
  9 45  1  0
 10 46  1  0
 12 47  1  0
 13 48  1  0
 14 49  1  0
 15 50  1  0
 18 51  1  0
 19 52  1  6
 20 53  1  0
 20 54  1  0
 22 55  1  0
 23 56  1  0
 24 57  1  0
 25 58  1  0
 26 59  1  0
 30 60  1  0
 33 61  1  0
 34 62  1  0
 35 63  1  0
 36 64  1  0
 37 65  1  0
 39 66  1  0
M  END
$$$$
