
     RDKit          3D

 42 44  0  0  0  0  0  0  0  0999 V2000
    7.5946   -1.9688   -2.0859 C   0  0  0  0  0  0  0  0  0  0  0  0
    7.3052   -0.8390   -1.2721 O   0  0  0  0  0  0  0  0  0  0  0  0
    5.9869   -0.5348   -1.0770 C   0  0  0  0  0  0  0  0  0  0  0  0
    4.8968   -1.2326   -1.6000 C   0  0  0  0  0  0  0  0  0  0  0  0
    3.5897   -0.8135   -1.3197 C   0  0  0  0  0  0  0  0  0  0  0  0
    3.3678    0.3042   -0.5047 C   0  0  0  0  0  0  0  0  0  0  0  0
    1.9927    0.7827   -0.1795 C   0  0  0  0  0  0  0  0  0  0  0  0
    1.8183    1.9893   -0.0694 O   0  0  0  0  0  0  0  0  0  0  0  0
    1.0643   -0.2283    0.0045 N   0  0  0  0  0  0  0  0  0  0  0  0
   -0.2911   -0.0741    0.2742 C   0  0  0  0  0  0  0  0  0  0  0  0
   -1.0313    1.4599    0.2805 S   0  0  0  0  0  0  0  0  0  0  0  0
   -2.5579    0.8114    0.6473 C   0  0  0  0  0  0  0  0  0  0  0  0
   -2.5247   -0.5636    0.7692 C   0  0  0  0  0  0  0  0  0  0  0  0
   -1.2086   -1.0772    0.5393 C   0  0  0  0  0  0  0  0  0  0  0  0
   -0.8583   -2.4657    0.5720 C   0  0  0  0  0  0  0  0  0  0  0  0
   -0.5358   -3.5801    0.5860 N   0  0  0  0  0  0  0  0  0  0  0  0
   -3.7763   -1.3265    1.0805 C   0  0  0  0  0  0  0  0  0  0  0  0
   -4.8238   -0.4040    1.7239 C   0  0  0  0  0  0  0  0  0  0  0  0
   -4.9714    0.8674    0.9954 N   0  0  0  0  0  0  0  0  0  0  0  0
   -6.2497    1.4014    0.8765 C   0  0  0  0  0  0  0  0  0  0  0  0
   -6.3698    2.7747    0.2635 C   0  0  0  0  0  0  0  0  0  0  0  0
   -7.2602    0.7958    1.2337 O   0  0  0  0  0  0  0  0  0  0  0  0
   -3.7607    1.6868    0.8198 C   0  0  0  0  0  0  0  0  0  0  0  0
    4.4599    1.0147    0.0022 C   0  0  0  0  0  0  0  0  0  0  0  0
    5.7606    0.5905   -0.2798 C   0  0  0  0  0  0  0  0  0  0  0  0
    8.6826   -2.0724   -2.1395 H   0  0  0  0  0  0  0  0  0  0  0  0
    7.1939   -2.8867   -1.6434 H   0  0  0  0  0  0  0  0  0  0  0  0
    7.2228   -1.8258   -3.1059 H   0  0  0  0  0  0  0  0  0  0  0  0
    5.0292   -2.1009   -2.2378 H   0  0  0  0  0  0  0  0  0  0  0  0
    2.7621   -1.3543   -1.7712 H   0  0  0  0  0  0  0  0  0  0  0  0
    1.4162   -1.1783    0.0194 H   0  0  0  0  0  0  0  0  0  0  0  0
   -4.1749   -1.7348    0.1436 H   0  0  0  0  0  0  0  0  0  0  0  0
   -3.5676   -2.1668    1.7514 H   0  0  0  0  0  0  0  0  0  0  0  0
   -5.7782   -0.9373    1.7843 H   0  0  0  0  0  0  0  0  0  0  0  0
   -4.5311   -0.1481    2.7504 H   0  0  0  0  0  0  0  0  0  0  0  0
   -6.0085    2.7590   -0.7680 H   0  0  0  0  0  0  0  0  0  0  0  0
   -5.8167    3.5080    0.8558 H   0  0  0  0  0  0  0  0  0  0  0  0
   -7.4224    3.0740    0.2516 H   0  0  0  0  0  0  0  0  0  0  0  0
   -3.8788    2.3402   -0.0497 H   0  0  0  0  0  0  0  0  0  0  0  0
   -3.6549    2.3101    1.7153 H   0  0  0  0  0  0  0  0  0  0  0  0
    4.3033    1.8981    0.6182 H   0  0  0  0  0  0  0  0  0  0  0  0
    6.6057    1.1452    0.1219 H   0  0  0  0  0  0  0  0  0  0  0  0
  1  2  1  0
  2  3  1  0
  3  4  2  0
  4  5  1  0
  5  6  2  0
  6  7  1  0
  7  8  2  0
  7  9  1  0
  9 10  1  0
 10 11  1  0
 11 12  1  0
 12 13  2  0
 13 14  1  0
 14 15  1  0
 15 16  3  0
 13 17  1  0
 17 18  1  0
 18 19  1  0
 19 20  1  0
 20 21  1  0
 20 22  2  0
 19 23  1  0
  6 24  1  0
 24 25  2  0
 25  3  1  0
 14 10  2  0
 23 12  1  0
  1 26  1  0
  1 27  1  0
  1 28  1  0
  4 29  1  0
  5 30  1  0
  9 31  1  0
 17 32  1  0
 17 33  1  0
 18 34  1  0
 18 35  1  0
 21 36  1  0
 21 37  1  0
 21 38  1  0
 23 39  1  0
 23 40  1  0
 24 41  1  0
 25 42  1  0
M  END
$$$$
