
     RDKit          3D

 42 45  0  0  0  0  0  0  0  0999 V2000
    8.4870   -0.6365   -0.0448 C   0  0  0  0  0  0  0  0  0  0  0  0
    7.0491   -0.6599   -0.2621 N   0  0  0  0  0  0  0  0  0  0  0  0
    6.5839    0.0244   -1.4603 C   0  0  0  0  0  0  0  0  0  0  0  0
    6.2368   -0.9776    0.8272 C   0  0  0  0  0  0  0  0  0  0  0  0
    6.7134   -1.3176    1.9150 O   0  0  0  0  0  0  0  0  0  0  0  0
    4.7276   -0.9209    0.6569 C   0  0  0  0  0  0  0  0  0  0  0  0
    4.1397    0.7697    0.9609 S   0  0  0  0  0  0  0  0  0  0  0  0
    2.4219    0.5486    0.7159 C   0  0  0  0  0  0  0  0  0  0  0  0
    1.9314   -0.5583    0.2101 N   0  0  0  0  0  0  0  0  0  0  0  0
    0.5540   -0.4588    0.1250 C   0  0  0  0  0  0  0  0  0  0  0  0
   -0.3201   -1.4442   -0.3579 C   0  0  0  0  0  0  0  0  0  0  0  0
   -1.7041   -1.2001   -0.3856 C   0  0  0  0  0  0  0  0  0  0  0  0
   -2.2632    0.0088    0.0559 C   0  0  0  0  0  0  0  0  0  0  0  0
   -3.6794    0.2346    0.0182 N   0  0  0  0  0  0  0  0  0  0  0  0
   -4.6190   -0.6743   -0.4342 C   0  0  0  0  0  0  0  0  0  0  0  0
   -4.5169   -1.8024   -0.8827 O   0  0  0  0  0  0  0  0  0  0  0  0
   -5.9301   -0.0496   -0.2990 C   0  0  0  0  0  0  0  0  0  0  0  0
   -7.1884   -0.5338   -0.6063 C   0  0  0  0  0  0  0  0  0  0  0  0
   -8.2777    0.3087   -0.3636 C   0  0  0  0  0  0  0  0  0  0  0  0
   -8.0856    1.5973    0.1731 C   0  0  0  0  0  0  0  0  0  0  0  0
   -6.8016    2.0614    0.4746 C   0  0  0  0  0  0  0  0  0  0  0  0
   -5.7427    1.2078    0.2248 C   0  0  0  0  0  0  0  0  0  0  0  0
   -4.3106    1.3953    0.4277 C   0  0  0  0  0  0  0  0  0  0  0  0
   -3.8836    2.4412    0.8833 O   0  0  0  0  0  0  0  0  0  0  0  0
   -1.3790    0.9930    0.5392 C   0  0  0  0  0  0  0  0  0  0  0  0
    0.0094    0.7439    0.5659 C   0  0  0  0  0  0  0  0  0  0  0  0
    1.2865    1.7687    1.1019 S   0  0  0  0  0  0  0  0  0  0  0  0
    8.9966   -0.9514   -0.9602 H   0  0  0  0  0  0  0  0  0  0  0  0
    8.7850   -1.3076    0.7654 H   0  0  0  0  0  0  0  0  0  0  0  0
    8.7857    0.3845    0.2109 H   0  0  0  0  0  0  0  0  0  0  0  0
    7.1888   -0.2958   -2.3139 H   0  0  0  0  0  0  0  0  0  0  0  0
    5.5395   -0.1886   -1.6865 H   0  0  0  0  0  0  0  0  0  0  0  0
    6.7031    1.1020   -1.3132 H   0  0  0  0  0  0  0  0  0  0  0  0
    4.4355   -1.2943   -0.3279 H   0  0  0  0  0  0  0  0  0  0  0  0
    4.2837   -1.5972    1.3968 H   0  0  0  0  0  0  0  0  0  0  0  0
    0.0763   -2.3930   -0.7076 H   0  0  0  0  0  0  0  0  0  0  0  0
   -2.3168   -2.0099   -0.7719 H   0  0  0  0  0  0  0  0  0  0  0  0
   -7.3216   -1.5289   -1.0193 H   0  0  0  0  0  0  0  0  0  0  0  0
   -9.2861   -0.0331   -0.5911 H   0  0  0  0  0  0  0  0  0  0  0  0
   -8.9476    2.2372    0.3546 H   0  0  0  0  0  0  0  0  0  0  0  0
   -6.6387    3.0517    0.8887 H   0  0  0  0  0  0  0  0  0  0  0  0
   -1.7226    1.9551    0.9015 H   0  0  0  0  0  0  0  0  0  0  0  0
  1  2  1  0
  2  3  1  0
  2  4  1  0
  4  5  2  0
  4  6  1  0
  6  7  1  0
  7  8  1  0
  8  9  2  0
  9 10  1  0
 10 11  2  0
 11 12  1  0
 12 13  2  0
 13 14  1  0
 14 15  1  0
 15 16  2  0
 15 17  1  0
 17 18  2  0
 18 19  1  0
 19 20  2  0
 20 21  1  0
 21 22  2  0
 22 23  1  0
 23 24  2  0
 13 25  1  0
 25 26  2  0
 26 27  1  0
 27  8  1  0
 26 10  1  0
 23 14  1  0
 22 17  1  0
  1 28  1  0
  1 29  1  0
  1 30  1  0
  3 31  1  0
  3 32  1  0
  3 33  1  0
  6 34  1  0
  6 35  1  0
 11 36  1  0
 12 37  1  0
 18 38  1  0
 19 39  1  0
 20 40  1  0
 21 41  1  0
 25 42  1  0
M  END
$$$$
