
     RDKit          3D

 43 45  0  0  0  0  0  0  0  0999 V2000
    3.7310    0.5178    2.0766 C   0  0  0  0  0  0  0  0  0  0  0  0
    4.0257   -0.0328    0.6836 C   0  0  0  0  0  0  0  0  0  0  0  0
    5.5104   -0.3693    0.5508 C   0  0  0  0  0  0  0  0  0  0  0  0
    3.0637   -1.5671    0.3792 S   0  0  0  0  0  0  0  0  0  0  0  0
    1.4329   -0.9206    0.0283 C   0  0  0  0  0  0  0  0  0  0  0  0
    0.3891   -1.8126   -0.0929 C   0  0  0  0  0  0  0  0  0  0  0  0
   -0.8624   -1.2988   -0.3656 C   0  0  0  0  0  0  0  0  0  0  0  0
   -1.9639   -2.1339   -0.5188 N   0  0  0  0  0  0  0  0  0  0  0  0
   -3.2169   -1.4947   -0.9552 C   0  0  0  0  0  0  0  0  0  0  0  0
   -4.2950   -2.5716   -1.1525 C   0  0  0  0  0  0  0  0  0  0  0  0
   -4.5964   -3.3203    0.0362 O   0  0  0  0  0  0  0  0  0  0  0  0
   -3.5376   -3.3019    1.0028 C   0  0  0  0  0  0  0  0  0  0  0  0
   -2.1305   -3.2904    0.3804 C   0  0  0  0  0  0  0  0  0  0  0  0
   -1.0273    0.0233   -0.5359 N   0  0  0  0  0  0  0  0  0  0  0  0
    0.0433    0.8289   -0.4047 C   0  0  0  0  0  0  0  0  0  0  0  0
   -0.1613    2.2822   -0.5791 C   0  0  0  0  0  0  0  0  0  0  0  0
    0.9040    3.1963   -0.4567 C   0  0  0  0  0  0  0  0  0  0  0  0
    0.7118    4.5723   -0.6203 C   0  0  0  0  0  0  0  0  0  0  0  0
   -0.5549    5.0689   -0.9111 C   0  0  0  0  0  0  0  0  0  0  0  0
   -1.6275    4.1920   -1.0384 C   0  0  0  0  0  0  0  0  0  0  0  0
   -1.4310    2.8168   -0.8742 C   0  0  0  0  0  0  0  0  0  0  0  0
    1.2818    0.4008   -0.1205 N   0  0  0  0  0  0  0  0  0  0  0  0
    3.9902   -0.2022    2.8611 H   0  0  0  0  0  0  0  0  0  0  0  0
    2.6772    0.7879    2.1973 H   0  0  0  0  0  0  0  0  0  0  0  0
    4.3185    1.4251    2.2574 H   0  0  0  0  0  0  0  0  0  0  0  0
    3.7832    0.7159   -0.0777 H   0  0  0  0  0  0  0  0  0  0  0  0
    5.7453   -0.7489   -0.4501 H   0  0  0  0  0  0  0  0  0  0  0  0
    6.1193    0.5281    0.7083 H   0  0  0  0  0  0  0  0  0  0  0  0
    5.8296   -1.1162    1.2868 H   0  0  0  0  0  0  0  0  0  0  0  0
    0.5563   -2.8773   -0.0014 H   0  0  0  0  0  0  0  0  0  0  0  0
   -3.0677   -0.9672   -1.9049 H   0  0  0  0  0  0  0  0  0  0  0  0
   -3.5561   -0.7744   -0.1998 H   0  0  0  0  0  0  0  0  0  0  0  0
   -3.9783   -3.2893   -1.9184 H   0  0  0  0  0  0  0  0  0  0  0  0
   -5.2277   -2.1144   -1.4977 H   0  0  0  0  0  0  0  0  0  0  0  0
   -3.6583   -4.1856    1.6377 H   0  0  0  0  0  0  0  0  0  0  0  0
   -3.6806   -2.4221    1.6416 H   0  0  0  0  0  0  0  0  0  0  0  0
   -1.9872   -4.2001   -0.2140 H   0  0  0  0  0  0  0  0  0  0  0  0
   -1.3992   -3.2977    1.1964 H   0  0  0  0  0  0  0  0  0  0  0  0
    1.9062    2.8362   -0.2302 H   0  0  0  0  0  0  0  0  0  0  0  0
    1.5539    5.2522   -0.5201 H   0  0  0  0  0  0  0  0  0  0  0  0
   -0.7058    6.1375   -1.0387 H   0  0  0  0  0  0  0  0  0  0  0  0
   -2.6195    4.5737   -1.2659 H   0  0  0  0  0  0  0  0  0  0  0  0
   -2.2882    2.1535   -0.9796 H   0  0  0  0  0  0  0  0  0  0  0  0
  1  2  1  0
  2  3  1  0
  2  4  1  0
  4  5  1  0
  5  6  2  0
  6  7  1  0
  7  8  1  0
  8  9  1  0
  9 10  1  0
 10 11  1  0
 11 12  1  0
 12 13  1  0
  7 14  2  0
 14 15  1  0
 15 16  1  0
 16 17  2  0
 17 18  1  0
 18 19  2  0
 19 20  1  0
 20 21  2  0
 15 22  2  0
 22  5  1  0
 13  8  1  0
 21 16  1  0
  1 23  1  0
  1 24  1  0
  1 25  1  0
  2 26  1  0
  3 27  1  0
  3 28  1  0
  3 29  1  0
  6 30  1  0
  9 31  1  0
  9 32  1  0
 10 33  1  0
 10 34  1  0
 12 35  1  0
 12 36  1  0
 13 37  1  0
 13 38  1  0
 17 39  1  0
 18 40  1  0
 19 41  1  0
 20 42  1  0
 21 43  1  0
M  END
$$$$
