
     RDKit          3D

 56 59  0  0  0  0  0  0  0  0999 V2000
   -5.1922   -0.6218   -2.6794 C   0  0  0  0  0  0  0  0  0  0  0  0
   -4.8598   -0.7730   -1.2053 C   0  0  0  0  0  0  0  0  0  0  0  0
   -3.4051   -0.8733   -1.0425 N   0  0  0  0  0  0  0  0  0  0  0  0
   -2.8331   -0.8265    0.2347 C   0  0  0  0  0  0  0  0  0  0  0  0
   -2.3016   -1.8670    0.9012 C   0  0  0  0  0  0  0  0  0  0  0  0
   -2.3206   -3.1635    0.2726 N   0  0  0  0  0  0  0  0  0  0  0  0
   -1.1630   -3.4039   -0.9496 S   0  0  0  0  0  6  0  0  0  0  0  0
   -1.7586   -2.9456   -2.1881 O   0  0  0  0  0  0  0  0  0  0  0  0
   -0.7052   -4.7684   -0.8003 O   0  0  0  0  0  0  0  0  0  0  0  0
    0.1965   -2.3356   -0.5429 C   0  0  0  0  0  0  0  0  0  0  0  0
    0.3464   -1.1161   -1.2057 C   0  0  0  0  0  0  0  0  0  0  0  0
    1.3949   -0.2664   -0.8514 C   0  0  0  0  0  0  0  0  0  0  0  0
    2.3056   -0.6300    0.1540 C   0  0  0  0  0  0  0  0  0  0  0  0
    3.4462    0.2878    0.5607 C   0  0  0  0  0  0  0  0  0  0  0  0
    2.9615    1.6825    0.9837 C   0  0  0  0  0  0  0  0  0  0  0  0
    4.1053    2.5280    1.5521 C   0  0  0  0  0  0  0  0  0  0  0  0
    5.4706    2.1990    0.9453 C   0  0  0  0  0  0  0  0  0  0  0  0
    5.3487    1.6685   -0.4764 C   0  0  0  0  0  0  0  0  0  0  0  0
    4.5217    0.3809   -0.5410 C   0  0  0  0  0  0  0  0  0  0  0  0
    2.1566   -1.8763    0.7839 C   0  0  0  0  0  0  0  0  0  0  0  0
    1.1098   -2.7315    0.4361 C   0  0  0  0  0  0  0  0  0  0  0  0
   -1.7860   -1.7990    2.2880 C   0  0  0  0  0  0  0  0  0  0  0  0
   -1.3626   -2.8124    2.8405 O   0  0  0  0  0  0  0  0  0  0  0  0
   -1.8253   -0.5708    2.9142 O   0  0  0  0  0  0  0  0  0  0  0  0
   -2.2505    0.5696    2.2103 C   0  0  0  0  0  0  0  0  0  0  0  0
   -2.1325    1.7843    2.8895 C   0  0  0  0  0  0  0  0  0  0  0  0
   -2.4881    2.9651    2.2451 C   0  0  0  0  0  0  0  0  0  0  0  0
   -2.9464    2.9223    0.9302 C   0  0  0  0  0  0  0  0  0  0  0  0
   -3.0618    1.6968    0.2639 C   0  0  0  0  0  0  0  0  0  0  0  0
   -2.7340    0.4911    0.9020 C   0  0  0  0  0  0  0  0  0  0  0  0
   -4.7271    0.2783   -3.0950 H   0  0  0  0  0  0  0  0  0  0  0  0
   -6.2746   -0.5457   -2.8209 H   0  0  0  0  0  0  0  0  0  0  0  0
   -4.8309   -1.4808   -3.2545 H   0  0  0  0  0  0  0  0  0  0  0  0
   -5.3354   -1.6775   -0.8092 H   0  0  0  0  0  0  0  0  0  0  0  0
   -5.2611    0.0834   -0.6536 H   0  0  0  0  0  0  0  0  0  0  0  0
   -3.1054   -1.7309   -1.5287 H   0  0  0  0  0  0  0  0  0  0  0  0
   -2.1721   -3.9118    0.9618 H   0  0  0  0  0  0  0  0  0  0  0  0
   -0.3533   -0.8099   -1.9811 H   0  0  0  0  0  0  0  0  0  0  0  0
    1.4953    0.6852   -1.3698 H   0  0  0  0  0  0  0  0  0  0  0  0
    3.9269   -0.1531    1.4463 H   0  0  0  0  0  0  0  0  0  0  0  0
    2.5306    2.2097    0.1227 H   0  0  0  0  0  0  0  0  0  0  0  0
    2.1600    1.6098    1.7294 H   0  0  0  0  0  0  0  0  0  0  0  0
    3.8723    3.5874    1.3896 H   0  0  0  0  0  0  0  0  0  0  0  0
    4.1623    2.3921    2.6390 H   0  0  0  0  0  0  0  0  0  0  0  0
    6.1056    3.0919    0.9648 H   0  0  0  0  0  0  0  0  0  0  0  0
    5.9727    1.4470    1.5669 H   0  0  0  0  0  0  0  0  0  0  0  0
    4.8767    2.4340   -1.1054 H   0  0  0  0  0  0  0  0  0  0  0  0
    6.3429    1.4869   -0.9002 H   0  0  0  0  0  0  0  0  0  0  0  0
    4.0856    0.3063   -1.5449 H   0  0  0  0  0  0  0  0  0  0  0  0
    5.1896   -0.4855   -0.4460 H   0  0  0  0  0  0  0  0  0  0  0  0
    2.8560   -2.1899    1.5569 H   0  0  0  0  0  0  0  0  0  0  0  0
    1.0084   -3.6899    0.9415 H   0  0  0  0  0  0  0  0  0  0  0  0
   -1.7564    1.8091    3.9084 H   0  0  0  0  0  0  0  0  0  0  0  0
   -2.3971    3.9178    2.7607 H   0  0  0  0  0  0  0  0  0  0  0  0
   -3.2096    3.8435    0.4157 H   0  0  0  0  0  0  0  0  0  0  0  0
   -3.3996    1.6980   -0.7701 H   0  0  0  0  0  0  0  0  0  0  0  0
  1  2  1  0
  2  3  1  0
  3  4  1  0
  4  5  2  0
  5  6  1  0
  6  7  1  0
  7  8  2  0
  7  9  2  0
  7 10  1  0
 10 11  2  0
 11 12  1  0
 12 13  2  0
 13 14  1  0
 14 15  1  0
 15 16  1  0
 16 17  1  0
 17 18  1  0
 18 19  1  0
 13 20  1  0
 20 21  2  0
  5 22  1  0
 22 23  2  0
 22 24  1  0
 24 25  1  0
 25 26  2  0
 26 27  1  0
 27 28  2  0
 28 29  1  0
 29 30  2  0
 30  4  1  0
 21 10  1  0
 30 25  1  0
 19 14  1  0
  1 31  1  0
  1 32  1  0
  1 33  1  0
  2 34  1  0
  2 35  1  0
  3 36  1  0
  6 37  1  0
 11 38  1  0
 12 39  1  0
 14 40  1  0
 15 41  1  0
 15 42  1  0
 16 43  1  0
 16 44  1  0
 17 45  1  0
 17 46  1  0
 18 47  1  0
 18 48  1  0
 19 49  1  0
 19 50  1  0
 20 51  1  0
 21 52  1  0
 26 53  1  0
 27 54  1  0
 28 55  1  0
 29 56  1  0
M  END
$$$$
