
     RDKit          3D

 55 59  0  0  0  0  0  0  0  0999 V2000
   -2.1027   -1.7968   -0.1853 C   0  0  0  0  0  0  0  0  0  0  0  0
   -2.6790   -0.4082   -0.1999 C   0  0  0  0  0  0  0  0  0  0  0  0
   -4.0426   -0.1622   -0.0445 C   0  0  0  0  0  0  0  0  0  0  0  0
   -5.0630   -1.2111    0.1168 C   0  0  0  0  0  0  0  0  0  0  0  0
   -5.8694   -1.2466    1.2691 C   0  0  0  0  0  0  0  0  0  0  0  0
   -6.8466   -2.2306    1.4379 C   0  0  0  0  0  0  0  0  0  0  0  0
   -7.0362   -3.1968    0.4511 C   0  0  0  0  0  0  0  0  0  0  0  0
   -6.2561   -3.1652   -0.7025 C   0  0  0  0  0  0  0  0  0  0  0  0
   -6.4919   -4.3542   -1.9222 Cl  0  0  0  0  0  0  0  0  0  0  0  0
   -5.2827   -2.1805   -0.8766 C   0  0  0  0  0  0  0  0  0  0  0  0
   -4.5608    1.0920   -0.0304 N   0  0  0  0  0  0  0  0  0  0  0  0
   -3.7627    2.1533   -0.2176 C   0  0  0  0  0  0  0  0  0  0  0  0
   -4.3346    3.4192   -0.2126 C   0  0  0  0  0  0  0  0  0  0  0  0
   -3.5766    4.5752   -0.4148 C   0  0  0  0  0  0  0  0  0  0  0  0
   -2.2107    4.4705   -0.6321 C   0  0  0  0  0  0  0  0  0  0  0  0
   -1.6138    3.2111   -0.6392 C   0  0  0  0  0  0  0  0  0  0  0  0
   -2.3811    2.0347   -0.4270 C   0  0  0  0  0  0  0  0  0  0  0  0
   -1.8641    0.7188   -0.4088 C   0  0  0  0  0  0  0  0  0  0  0  0
   -0.4262    0.5247   -0.6499 C   0  0  0  0  0  0  0  0  0  0  0  0
    0.0716    0.2949   -1.7395 O   0  0  0  0  0  0  0  0  0  0  0  0
    0.2308    0.6473    0.5292 O   0  0  0  0  0  0  0  0  0  0  0  0
    1.6463    0.5068    0.4024 C   0  0  0  0  0  0  0  0  0  0  0  0
    2.0838   -0.8658   -0.1202 C   0  0  0  0  0  0  0  0  0  0  0  0
    1.6084   -1.9030    0.3529 O   0  0  0  0  0  0  0  0  0  0  0  0
    3.1074   -0.8586   -1.2388 C   0  0  0  0  0  0  0  0  0  0  0  0
    3.1663   -2.1532   -1.9272 C   0  0  0  0  0  0  0  0  0  0  0  0
    3.3182   -3.1579   -2.4909 N   0  0  0  0  0  0  0  0  0  0  0  0
    4.4299   -0.4731   -0.6395 C   0  0  0  0  0  0  0  0  0  0  0  0
    4.6842    0.6830   -0.0527 N   0  0  0  0  0  0  0  0  0  0  0  0
    5.9974    0.6238    0.3469 C   0  0  0  0  0  0  0  0  0  0  0  0
    6.7752    1.5787    1.0159 C   0  0  0  0  0  0  0  0  0  0  0  0
    8.1109    1.2679    1.3099 C   0  0  0  0  0  0  0  0  0  0  0  0
    8.6577    0.0330    0.9448 C   0  0  0  0  0  0  0  0  0  0  0  0
    7.8936   -0.9319    0.2777 C   0  0  0  0  0  0  0  0  0  0  0  0
    6.5652   -0.5956   -0.0014 C   0  0  0  0  0  0  0  0  0  0  0  0
    5.5518   -1.2800   -0.6225 N   0  0  0  0  0  0  0  0  0  0  0  0
   -2.7211   -2.4921    0.3919 H   0  0  0  0  0  0  0  0  0  0  0  0
   -2.0048   -2.1739   -1.2083 H   0  0  0  0  0  0  0  0  0  0  0  0
   -1.1206   -1.8156    0.2968 H   0  0  0  0  0  0  0  0  0  0  0  0
   -5.7359   -0.4931    2.0436 H   0  0  0  0  0  0  0  0  0  0  0  0
   -7.4586   -2.2394    2.3375 H   0  0  0  0  0  0  0  0  0  0  0  0
   -7.7947   -3.9635    0.5846 H   0  0  0  0  0  0  0  0  0  0  0  0
   -4.6962   -2.1643   -1.7933 H   0  0  0  0  0  0  0  0  0  0  0  0
   -5.4073    3.5084   -0.0498 H   0  0  0  0  0  0  0  0  0  0  0  0
   -4.0583    5.5499   -0.4034 H   0  0  0  0  0  0  0  0  0  0  0  0
   -1.6104    5.3629   -0.7941 H   0  0  0  0  0  0  0  0  0  0  0  0
   -0.5407    3.1556   -0.8133 H   0  0  0  0  0  0  0  0  0  0  0  0
    2.0256    1.3135   -0.2344 H   0  0  0  0  0  0  0  0  0  0  0  0
    2.0879    0.6380    1.3948 H   0  0  0  0  0  0  0  0  0  0  0  0
    2.8103   -0.0954   -1.9682 H   0  0  0  0  0  0  0  0  0  0  0  0
    6.3470    2.5344    1.2969 H   0  0  0  0  0  0  0  0  0  0  0  0
    8.7285    1.9981    1.8280 H   0  0  0  0  0  0  0  0  0  0  0  0
    9.7006   -0.1830    1.1834 H   0  0  0  0  0  0  0  0  0  0  0  0
    8.3212   -1.8895   -0.0053 H   0  0  0  0  0  0  0  0  0  0  0  0
    5.6295   -2.2145   -1.0059 H   0  0  0  0  0  0  0  0  0  0  0  0
  1  2  1  0
  2  3  2  0
  3  4  1  0
  4  5  2  0
  5  6  1  0
  6  7  2  0
  7  8  1  0
  8  9  1  0
  8 10  2  0
  3 11  1  0
 11 12  2  0
 12 13  1  0
 13 14  2  0
 14 15  1  0
 15 16  2  0
 16 17  1  0
 17 18  2  0
 18 19  1  0
 19 20  2  0
 19 21  1  0
 21 22  1  0
 22 23  1  0
 23 24  2  0
 23 25  1  0
 25 26  1  0
 26 27  3  0
 25 28  1  0
 28 29  2  0
 29 30  1  0
 30 31  2  0
 31 32  1  0
 32 33  2  0
 33 34  1  0
 34 35  2  0
 35 36  1  0
 18  2  1  0
 36 28  1  0
 10  4  1  0
 17 12  1  0
 35 30  1  0
  1 37  1  0
  1 38  1  0
  1 39  1  0
  5 40  1  0
  6 41  1  0
  7 42  1  0
 10 43  1  0
 13 44  1  0
 14 45  1  0
 15 46  1  0
 16 47  1  0
 22 48  1  0
 22 49  1  0
 25 50  1  0
 31 51  1  0
 32 52  1  0
 33 53  1  0
 34 54  1  0
 36 55  1  0
M  END
$$$$
