
     RDKit          3D

 28 29  0  0  0  0  0  0  0  0999 V2000
    0.3886    1.0060   -1.7765 O   0  0  0  0  0  0  0  0  0  0  0  0
    0.5483    0.3527   -0.7479 C   0  0  0  0  0  0  0  0  0  0  0  0
   -0.4424   -0.0835    0.1044 N   0  0  0  0  0  0  0  0  0  0  0  0
   -1.8388    0.0424   -0.0503 C   0  0  0  0  0  0  0  0  0  0  0  0
   -2.4642    0.5739   -1.1767 C   0  0  0  0  0  0  0  0  0  0  0  0
   -3.8601    0.6511   -1.2329 C   0  0  0  0  0  0  0  0  0  0  0  0
   -4.6371    0.1960   -0.1668 C   0  0  0  0  0  0  0  0  0  0  0  0
   -4.0240   -0.3417    0.9636 C   0  0  0  0  0  0  0  0  0  0  0  0
   -2.6332   -0.4157    1.0130 C   0  0  0  0  0  0  0  0  0  0  0  0
   -2.0026   -0.9436    2.1135 O   0  0  0  0  0  0  0  0  0  0  0  0
    1.9504    0.0407   -0.3404 C   0  0  0  0  0  0  0  0  0  0  0  0
    2.2538   -1.0653    0.4695 C   0  0  0  0  0  0  0  0  0  0  0  0
    3.5759   -1.3225    0.8458 C   0  0  0  0  0  0  0  0  0  0  0  0
    4.6037   -0.4865    0.4113 C   0  0  0  0  0  0  0  0  0  0  0  0
    4.3166    0.6001   -0.4131 C   0  0  0  0  0  0  0  0  0  0  0  0
    3.0007    0.8544   -0.7954 C   0  0  0  0  0  0  0  0  0  0  0  0
    2.8114    1.9272   -1.6272 O   0  0  0  0  0  0  0  0  0  0  0  0
   -0.1861   -0.4810    1.0022 H   0  0  0  0  0  0  0  0  0  0  0  0
   -1.8952    0.9332   -2.0280 H   0  0  0  0  0  0  0  0  0  0  0  0
   -4.3389    1.0687   -2.1156 H   0  0  0  0  0  0  0  0  0  0  0  0
   -5.7210    0.2610   -0.2214 H   0  0  0  0  0  0  0  0  0  0  0  0
   -4.6400   -0.6940    1.7844 H   0  0  0  0  0  0  0  0  0  0  0  0
   -2.6846   -1.1870    2.7625 H   0  0  0  0  0  0  0  0  0  0  0  0
    1.4827   -1.7563    0.7979 H   0  0  0  0  0  0  0  0  0  0  0  0
    3.8058   -2.1811    1.4726 H   0  0  0  0  0  0  0  0  0  0  0  0
    5.6316   -0.6872    0.7035 H   0  0  0  0  0  0  0  0  0  0  0  0
    5.1164    1.2457   -0.7666 H   0  0  0  0  0  0  0  0  0  0  0  0
    1.8820    1.8922   -1.9491 H   0  0  0  0  0  0  0  0  0  0  0  0
  1  2  2  0
  2  3  1  0
  3  4  1  0
  4  5  2  0
  5  6  1  0
  6  7  2  0
  7  8  1  0
  8  9  2  0
  9 10  1  0
  2 11  1  0
 11 12  2  0
 12 13  1  0
 13 14  2  0
 14 15  1  0
 15 16  2  0
 16 17  1  0
  9  4  1  0
 16 11  1  0
  3 18  1  0
  5 19  1  0
  6 20  1  0
  7 21  1  0
  8 22  1  0
 10 23  1  0
 12 24  1  0
 13 25  1  0
 14 26  1  0
 15 27  1  0
 17 28  1  0
M  END
$$$$
