
     RDKit          3D

 49 52  0  0  0  0  0  0  0  0999 V2000
   -3.7852   -4.9579   -2.4038 C   0  0  0  0  0  0  0  0  0  0  0  0
   -2.9649   -3.8879   -2.8555 O   0  0  0  0  0  0  0  0  0  0  0  0
   -2.5434   -2.9937   -1.9103 C   0  0  0  0  0  0  0  0  0  0  0  0
   -2.8602   -3.0218   -0.5536 C   0  0  0  0  0  0  0  0  0  0  0  0
   -2.3616   -2.0360    0.3069 C   0  0  0  0  0  0  0  0  0  0  0  0
   -1.5372   -1.0048   -0.1712 C   0  0  0  0  0  0  0  0  0  0  0  0
   -1.0282    0.0797    0.7827 C   0  0  0  0  0  0  0  0  0  0  0  0
    0.4386    0.2265    0.6566 N   0  0  0  0  0  0  0  0  0  0  0  0
    0.8823    1.2713    0.0483 C   0  0  0  0  0  0  0  0  0  0  0  0
    2.1964    1.5528   -0.2340 N   0  0  0  0  0  0  0  0  0  0  0  0
    3.3546    0.8232    0.1096 C   0  0  0  0  0  0  0  0  0  0  0  0
    4.5741    1.1866   -0.4874 C   0  0  0  0  0  0  0  0  0  0  0  0
    5.7685    0.5287   -0.1713 C   0  0  0  0  0  0  0  0  0  0  0  0
    5.7756   -0.5135    0.7569 C   0  0  0  0  0  0  0  0  0  0  0  0
    7.0545   -1.2031    1.1264 C   0  0  0  0  0  0  0  0  0  0  0  0
    4.5764   -0.8611    1.3827 C   0  0  0  0  0  0  0  0  0  0  0  0
    3.3842   -0.1984    1.0628 C   0  0  0  0  0  0  0  0  0  0  0  0
    0.0420    2.2502   -0.3870 N   0  0  0  0  0  0  0  0  0  0  0  0
   -1.2658    2.3635   -0.0435 C   0  0  0  0  0  0  0  0  0  0  0  0
   -1.9188    3.4525   -0.3198 N   0  0  0  0  0  0  0  0  0  0  0  0
   -3.2224    3.5355    0.0990 C   0  0  0  0  0  0  0  0  0  0  0  0
   -3.9427    4.7963   -0.2843 C   0  0  0  0  0  0  0  0  0  0  0  0
   -3.8300    2.5816    0.8134 C   0  0  0  0  0  0  0  0  0  0  0  0
   -3.0765    1.3634    1.1512 C   0  0  0  0  0  0  0  0  0  0  0  0
   -3.6094    0.5070    1.8517 O   0  0  0  0  0  0  0  0  0  0  0  0
   -1.8019    1.3041    0.6398 N   0  0  0  0  0  0  0  0  0  0  0  0
   -1.2286   -0.9858   -1.5391 C   0  0  0  0  0  0  0  0  0  0  0  0
   -1.7260   -1.9721   -2.3958 C   0  0  0  0  0  0  0  0  0  0  0  0
   -4.7226   -4.5864   -1.9763 H   0  0  0  0  0  0  0  0  0  0  0  0
   -3.2488   -5.5911   -1.6892 H   0  0  0  0  0  0  0  0  0  0  0  0
   -4.0372   -5.5751   -3.2715 H   0  0  0  0  0  0  0  0  0  0  0  0
   -3.4960   -3.7908   -0.1284 H   0  0  0  0  0  0  0  0  0  0  0  0
   -2.6347   -2.0717    1.3609 H   0  0  0  0  0  0  0  0  0  0  0  0
   -1.1946   -0.2742    1.8088 H   0  0  0  0  0  0  0  0  0  0  0  0
    2.3580    2.1870   -1.0028 H   0  0  0  0  0  0  0  0  0  0  0  0
    4.6134    1.9940   -1.2146 H   0  0  0  0  0  0  0  0  0  0  0  0
    6.6914    0.8389   -0.6558 H   0  0  0  0  0  0  0  0  0  0  0  0
    7.7679   -1.1781    0.2960 H   0  0  0  0  0  0  0  0  0  0  0  0
    6.8731   -2.2561    1.3665 H   0  0  0  0  0  0  0  0  0  0  0  0
    7.5065   -0.7137    1.9946 H   0  0  0  0  0  0  0  0  0  0  0  0
    4.5541   -1.6512    2.1302 H   0  0  0  0  0  0  0  0  0  0  0  0
    2.4843   -0.5027    1.5885 H   0  0  0  0  0  0  0  0  0  0  0  0
    0.4339    3.1138   -0.7281 H   0  0  0  0  0  0  0  0  0  0  0  0
   -4.9761    4.8088    0.0778 H   0  0  0  0  0  0  0  0  0  0  0  0
   -3.9692    4.9014   -1.3738 H   0  0  0  0  0  0  0  0  0  0  0  0
   -3.4304    5.6684    0.1351 H   0  0  0  0  0  0  0  0  0  0  0  0
   -4.8527    2.6437    1.1582 H   0  0  0  0  0  0  0  0  0  0  0  0
   -0.5926   -0.2081   -1.9515 H   0  0  0  0  0  0  0  0  0  0  0  0
   -1.4723   -1.9436   -3.4525 H   0  0  0  0  0  0  0  0  0  0  0  0
  1  2  1  0
  2  3  1  0
  3  4  2  0
  4  5  1  0
  5  6  2  0
  6  7  1  0
  7  8  1  0
  8  9  2  0
  9 10  1  0
 10 11  1  0
 11 12  2  0
 12 13  1  0
 13 14  2  0
 14 15  1  0
 14 16  1  0
 16 17  2  0
  9 18  1  0
 18 19  1  0
 19 20  2  0
 20 21  1  0
 21 22  1  0
 21 23  2  0
 23 24  1  0
 24 25  2  0
 24 26  1  0
  6 27  1  0
 27 28  2  0
 28  3  1  0
 26  7  1  0
 17 11  1  0
 26 19  1  0
  1 29  1  0
  1 30  1  0
  1 31  1  0
  4 32  1  0
  5 33  1  0
  7 34  1  0
 10 35  1  0
 12 36  1  0
 13 37  1  0
 15 38  1  0
 15 39  1  0
 15 40  1  0
 16 41  1  0
 17 42  1  0
 18 43  1  0
 22 44  1  0
 22 45  1  0
 22 46  1  0
 23 47  1  0
 27 48  1  0
 28 49  1  0
M  END
$$$$
