
     RDKit          3D

 42 44  0  0  0  0  0  0  0  0999 V2000
   -2.6067   -1.3706   -4.7078 C   0  0  0  0  0  0  0  0  0  0  0  0
   -3.5863   -0.8064   -3.8484 O   0  0  0  0  0  0  0  0  0  0  0  0
   -3.1679   -0.3356   -2.6328 C   0  0  0  0  0  0  0  0  0  0  0  0
   -1.8440   -0.3216   -2.1872 C   0  0  0  0  0  0  0  0  0  0  0  0
   -1.5192    0.1845   -0.9176 C   0  0  0  0  0  0  0  0  0  0  0  0
   -0.1040    0.2021   -0.5131 C   0  0  0  0  0  0  0  0  0  0  0  0
    0.4287   -0.3482    0.5992 C   0  0  0  0  0  0  0  0  0  0  0  0
   -0.3706   -1.0722    1.5359 C   0  0  0  0  0  0  0  0  0  0  0  0
   -1.0042   -1.6147    2.3436 N   0  0  0  0  0  0  0  0  0  0  0  0
    1.8498   -0.2545    0.7491 C   0  0  0  0  0  0  0  0  0  0  0  0
    2.7601   -0.3056   -0.2103 N   0  0  0  0  0  0  0  0  0  0  0  0
    3.9804   -0.2197    0.4030 C   0  0  0  0  0  0  0  0  0  0  0  0
    5.2642   -0.2582   -0.1605 C   0  0  0  0  0  0  0  0  0  0  0  0
    6.3747   -0.1545    0.6845 C   0  0  0  0  0  0  0  0  0  0  0  0
    6.2089   -0.0144    2.0626 C   0  0  0  0  0  0  0  0  0  0  0  0
    4.9343    0.0296    2.6403 C   0  0  0  0  0  0  0  0  0  0  0  0
    3.8350   -0.0751    1.7768 C   0  0  0  0  0  0  0  0  0  0  0  0
    2.4688   -0.0578    1.9757 N   0  0  0  0  0  0  0  0  0  0  0  0
    1.8443    0.1927    3.2563 C   0  0  0  0  0  0  0  0  0  0  0  0
   -2.5285    0.7011   -0.0916 C   0  0  0  0  0  0  0  0  0  0  0  0
   -3.8563    0.6830   -0.5165 C   0  0  0  0  0  0  0  0  0  0  0  0
   -4.9354    1.1433    0.1966 O   0  0  0  0  0  0  0  0  0  0  0  0
   -4.7018    1.4819    1.5591 C   0  0  0  0  0  0  0  0  0  0  0  0
   -4.1602    0.1708   -1.7862 C   0  0  0  0  0  0  0  0  0  0  0  0
   -5.4716    0.1695   -2.1995 O   0  0  0  0  0  0  0  0  0  0  0  0
   -3.1143   -1.7136   -5.6145 H   0  0  0  0  0  0  0  0  0  0  0  0
   -2.1281   -2.2403   -4.2456 H   0  0  0  0  0  0  0  0  0  0  0  0
   -1.8650   -0.6220   -5.0053 H   0  0  0  0  0  0  0  0  0  0  0  0
   -1.0426   -0.7033   -2.8130 H   0  0  0  0  0  0  0  0  0  0  0  0
    0.5520    0.6918   -1.2350 H   0  0  0  0  0  0  0  0  0  0  0  0
    5.3842   -0.3701   -1.2323 H   0  0  0  0  0  0  0  0  0  0  0  0
    7.3754   -0.1858    0.2600 H   0  0  0  0  0  0  0  0  0  0  0  0
    7.0869    0.0621    2.7012 H   0  0  0  0  0  0  0  0  0  0  0  0
    4.8186    0.1370    3.7134 H   0  0  0  0  0  0  0  0  0  0  0  0
    0.9563    0.8129    3.1141 H   0  0  0  0  0  0  0  0  0  0  0  0
    1.5917   -0.7685    3.7095 H   0  0  0  0  0  0  0  0  0  0  0  0
    2.5353    0.7377    3.9041 H   0  0  0  0  0  0  0  0  0  0  0  0
   -2.2604    1.1220    0.8714 H   0  0  0  0  0  0  0  0  0  0  0  0
   -5.6667    1.7303    2.0113 H   0  0  0  0  0  0  0  0  0  0  0  0
   -4.2816    0.6359    2.1135 H   0  0  0  0  0  0  0  0  0  0  0  0
   -4.0601    2.3654    1.6376 H   0  0  0  0  0  0  0  0  0  0  0  0
   -5.9742    0.5589   -1.4599 H   0  0  0  0  0  0  0  0  0  0  0  0
  1  2  1  0
  2  3  1  0
  3  4  2  0
  4  5  1  0
  5  6  1  0
  6  7  2  3
  7  8  1  0
  8  9  3  0
  7 10  1  0
 10 11  2  0
 11 12  1  0
 12 13  2  0
 13 14  1  0
 14 15  2  0
 15 16  1  0
 16 17  2  0
 17 18  1  0
 18 19  1  0
  5 20  2  0
 20 21  1  0
 21 22  1  0
 22 23  1  0
 21 24  2  0
 24 25  1  0
 24  3  1  0
 18 10  1  0
 17 12  1  0
  1 26  1  0
  1 27  1  0
  1 28  1  0
  4 29  1  0
  6 30  1  0
 13 31  1  0
 14 32  1  0
 15 33  1  0
 16 34  1  0
 19 35  1  0
 19 36  1  0
 19 37  1  0
 20 38  1  0
 23 39  1  0
 23 40  1  0
 23 41  1  0
 25 42  1  0
M  END
$$$$
