
     RDKit          3D

 32 33  0  0  0  0  0  0  0  0999 V2000
   -0.1199   -1.2013    1.5291 C   0  0  0  0  0  0  0  0  0  0  0  0
   -0.0398   -1.0468    0.0083 C   0  0  0  0  0  0  0  0  0  0  0  0
   -0.7813    0.1998   -0.5110 C   0  0  0  0  0  0  0  0  0  0  0  0
   -2.2771    0.1166   -0.3369 C   0  0  0  0  0  0  0  0  0  0  0  0
   -2.9127    0.8227    0.6936 C   0  0  0  0  0  0  0  0  0  0  0  0
   -4.2937    0.7256    0.8683 C   0  0  0  0  0  0  0  0  0  0  0  0
   -5.0515   -0.0737    0.0154 C   0  0  0  0  0  0  0  0  0  0  0  0
   -4.4307   -0.7735   -1.0169 C   0  0  0  0  0  0  0  0  0  0  0  0
   -3.0498   -0.6792   -1.1947 C   0  0  0  0  0  0  0  0  0  0  0  0
    1.3511   -1.0361   -0.4397 N   0  0  0  0  0  4  0  0  0  0  0  0
    2.2799   -0.1101   -0.0515 C   0  0  0  0  0  0  0  0  0  0  0  0
    3.4267   -0.4083   -0.7640 C   0  0  0  0  0  0  0  0  0  0  0  0
    4.6453    0.1780   -0.8393 N   0  0  0  0  0  0  0  0  0  0  0  0
    4.7077    1.4406   -0.5453 C   0  0  0  0  0  0  0  0  0  0  0  0
    5.8745    2.1058   -0.6063 N   0  0  0  0  0  0  0  0  0  0  0  0
    3.8977    2.2882   -0.1552 O   0  0  0  0  0  1  0  0  0  0  0  0
    3.1348   -1.5482   -1.5069 O   0  0  0  0  0  0  0  0  0  0  0  0
    1.8005   -1.9262   -1.2948 N   0  0  0  0  0  0  0  0  0  0  0  0
   -1.1475   -1.3854    1.8570 H   0  0  0  0  0  0  0  0  0  0  0  0
    0.2456   -0.3065    2.0436 H   0  0  0  0  0  0  0  0  0  0  0  0
    0.4921   -2.0472    1.8604 H   0  0  0  0  0  0  0  0  0  0  0  0
   -0.5036   -1.9418   -0.4303 H   0  0  0  0  0  0  0  0  0  0  0  0
   -0.3978    1.1031   -0.0194 H   0  0  0  0  0  0  0  0  0  0  0  0
   -0.5658    0.3384   -1.5790 H   0  0  0  0  0  0  0  0  0  0  0  0
   -2.3442    1.4614    1.3673 H   0  0  0  0  0  0  0  0  0  0  0  0
   -4.7815    1.2801    1.6668 H   0  0  0  0  0  0  0  0  0  0  0  0
   -6.1284   -0.1431    0.1494 H   0  0  0  0  0  0  0  0  0  0  0  0
   -5.0266   -1.3867   -1.6890 H   0  0  0  0  0  0  0  0  0  0  0  0
   -2.5914   -1.2238   -2.0178 H   0  0  0  0  0  0  0  0  0  0  0  0
    2.1076    0.6956    0.6445 H   0  0  0  0  0  0  0  0  0  0  0  0
    5.8037    2.9523   -0.0573 H   0  0  0  0  0  0  0  0  0  0  0  0
    6.6762    1.5296   -0.4071 H   0  0  0  0  0  0  0  0  0  0  0  0
  1  2  1  0
  2  3  1  0
  3  4  1  0
  4  5  2  0
  5  6  1  0
  6  7  2  0
  7  8  1  0
  8  9  2  0
  2 10  1  0
 10 11  1  0
 11 12  2  0
 12 13  1  0
 13 14  2  3
 14 15  1  0
 14 16  1  0
 12 17  1  0
 17 18  1  0
  9  4  1  0
 18 10  2  0
  1 19  1  0
  1 20  1  0
  1 21  1  0
  2 22  1  0
  3 23  1  0
  3 24  1  0
  5 25  1  0
  6 26  1  0
  7 27  1  0
  8 28  1  0
  9 29  1  0
 11 30  1  0
 15 31  1  0
 15 32  1  0
M  CHG  2  10   1  16  -1
M  END
$$$$
