
     RDKit          3D

 45 47  0  0  0  0  0  0  0  0999 V2000
    7.0819    0.5519    0.0819 C   0  0  0  0  0  0  0  0  0  0  0  0
    6.2813    0.6357   -1.0969 O   0  0  0  0  0  0  0  0  0  0  0  0
    4.9371    0.5267   -0.8381 C   0  0  0  0  0  0  0  0  0  0  0  0
    4.1517    1.5617   -1.3494 C   0  0  0  0  0  0  0  0  0  0  0  0
    2.7714    1.5580   -1.1530 C   0  0  0  0  0  0  0  0  0  0  0  0
    2.1607    0.5138   -0.4503 C   0  0  0  0  0  0  0  0  0  0  0  0
    0.7599    0.5794   -0.2907 N   0  0  0  0  0  0  0  0  0  0  0  0
   -0.0316   -0.2050    0.5205 C   0  0  0  0  0  0  0  0  0  0  0  0
    0.3903   -1.0157    1.3422 O   0  0  0  0  0  0  0  0  0  0  0  0
   -1.4007    0.0103    0.3558 N   0  0  0  0  0  0  0  0  0  0  0  0
   -2.0141    0.6763   -0.7988 C   0  0  0  0  0  0  0  0  0  0  0  0
   -3.3748    0.0826   -1.1366 C   0  0  0  0  0  0  0  0  0  0  0  0
   -4.3324    0.1782    0.0564 C   0  0  0  0  0  0  0  0  0  0  0  0
   -3.6206    0.1262    1.4122 C   0  0  0  0  0  0  0  0  0  0  0  0
   -2.3089   -0.6367    1.3044 C   0  0  0  0  0  0  0  0  0  0  0  0
   -5.2642   -0.9174   -0.0389 O   0  0  0  0  0  0  0  0  0  0  0  0
   -6.5491   -0.3268    0.1495 C   0  0  0  0  0  0  0  0  0  0  0  0
   -6.3789    1.0513   -0.4264 C   0  0  0  0  0  0  0  0  0  0  0  0
   -5.0622    1.4202   -0.0165 O   0  0  0  0  0  0  0  0  0  0  0  0
    2.9491   -0.5414    0.0251 C   0  0  0  0  0  0  0  0  0  0  0  0
    4.3386   -0.5522   -0.1682 C   0  0  0  0  0  0  0  0  0  0  0  0
    5.1655   -1.5684    0.2369 O   0  0  0  0  0  0  0  0  0  0  0  0
    4.5649   -2.7042    0.8475 C   0  0  0  0  0  0  0  0  0  0  0  0
    6.5994    1.0290    0.9458 H   0  0  0  0  0  0  0  0  0  0  0  0
    8.0157    1.0900   -0.1152 H   0  0  0  0  0  0  0  0  0  0  0  0
    7.3458   -0.4878    0.3037 H   0  0  0  0  0  0  0  0  0  0  0  0
    4.6226    2.3796   -1.8897 H   0  0  0  0  0  0  0  0  0  0  0  0
    2.1873    2.3857   -1.5476 H   0  0  0  0  0  0  0  0  0  0  0  0
    0.3134    1.4051   -0.6583 H   0  0  0  0  0  0  0  0  0  0  0  0
   -2.1037    1.7413   -0.5511 H   0  0  0  0  0  0  0  0  0  0  0  0
   -1.3593    0.5851   -1.6726 H   0  0  0  0  0  0  0  0  0  0  0  0
   -3.2429   -0.9687   -1.4294 H   0  0  0  0  0  0  0  0  0  0  0  0
   -3.7921    0.6008   -2.0091 H   0  0  0  0  0  0  0  0  0  0  0  0
   -4.2595   -0.3482    2.1673 H   0  0  0  0  0  0  0  0  0  0  0  0
   -3.4133    1.1448    1.7692 H   0  0  0  0  0  0  0  0  0  0  0  0
   -1.8329   -0.6939    2.2907 H   0  0  0  0  0  0  0  0  0  0  0  0
   -2.4762   -1.6655    0.9606 H   0  0  0  0  0  0  0  0  0  0  0  0
   -7.3225   -0.9149   -0.3518 H   0  0  0  0  0  0  0  0  0  0  0  0
   -6.7570   -0.2937    1.2253 H   0  0  0  0  0  0  0  0  0  0  0  0
   -6.4033    1.0368   -1.5222 H   0  0  0  0  0  0  0  0  0  0  0  0
   -7.1150    1.7695   -0.0575 H   0  0  0  0  0  0  0  0  0  0  0  0
    2.4717   -1.3662    0.5388 H   0  0  0  0  0  0  0  0  0  0  0  0
    3.8624   -3.1947    0.1664 H   0  0  0  0  0  0  0  0  0  0  0  0
    4.0831   -2.4331    1.7932 H   0  0  0  0  0  0  0  0  0  0  0  0
    5.3615   -3.4203    1.0745 H   0  0  0  0  0  0  0  0  0  0  0  0
  1  2  1  0
  2  3  1  0
  3  4  2  0
  4  5  1  0
  5  6  2  0
  6  7  1  0
  7  8  1  0
  8  9  2  0
  8 10  1  0
 10 11  1  0
 11 12  1  0
 12 13  1  0
 13 14  1  0
 14 15  1  0
 13 16  1  0
 16 17  1  0
 17 18  1  0
 18 19  1  0
  6 20  1  0
 20 21  2  0
 21 22  1  0
 22 23  1  0
 21  3  1  0
 15 10  1  0
 19 13  1  0
  1 24  1  0
  1 25  1  0
  1 26  1  0
  4 27  1  0
  5 28  1  0
  7 29  1  0
 11 30  1  0
 11 31  1  0
 12 32  1  0
 12 33  1  0
 14 34  1  0
 14 35  1  0
 15 36  1  0
 15 37  1  0
 17 38  1  0
 17 39  1  0
 18 40  1  0
 18 41  1  0
 20 42  1  0
 23 43  1  0
 23 44  1  0
 23 45  1  0
M  END
$$$$
