
     RDKit          3D

 50 53  0  0  0  0  0  0  0  0999 V2000
   -4.5814   -4.5652   -1.2724 C   0  0  0  0  0  0  0  0  0  0  0  0
   -3.8439   -3.5414   -1.9273 O   0  0  0  0  0  0  0  0  0  0  0  0
   -3.1036   -2.7082   -1.1353 C   0  0  0  0  0  0  0  0  0  0  0  0
   -3.0528   -2.7294    0.2576 C   0  0  0  0  0  0  0  0  0  0  0  0
   -2.2502   -1.8128    0.9482 C   0  0  0  0  0  0  0  0  0  0  0  0
   -1.4799   -0.8632    0.2577 C   0  0  0  0  0  0  0  0  0  0  0  0
   -0.6402    0.1357    1.0404 C   0  0  0  0  0  0  0  0  0  0  0  0
   -1.3700    1.4731    1.1799 C   0  0  0  0  0  0  0  0  0  0  0  0
   -0.5144    2.3422    0.2999 C   0  0  0  0  0  0  0  0  0  0  0  0
   -0.9008    3.7324   -0.0372 C   0  0  0  0  0  0  0  0  0  0  0  0
   -0.0943    4.4657   -0.9166 C   0  0  0  0  0  0  0  0  0  0  0  0
   -0.4325    5.7775   -1.2543 C   0  0  0  0  0  0  0  0  0  0  0  0
   -1.5763    6.3628   -0.7147 C   0  0  0  0  0  0  0  0  0  0  0  0
   -2.3825    5.6387    0.1628 C   0  0  0  0  0  0  0  0  0  0  0  0
   -2.0476    4.3252    0.5032 C   0  0  0  0  0  0  0  0  0  0  0  0
    0.5891    1.7928   -0.1091 N   0  0  0  0  0  0  0  0  0  0  0  0
    0.6038    0.5115    0.3641 N   0  0  0  0  0  0  0  0  0  0  0  0
    1.7336   -0.2905    0.2153 C   0  0  0  0  0  0  0  0  0  0  0  0
    2.8634    0.1840   -0.4790 C   0  0  0  0  0  0  0  0  0  0  0  0
    4.0150   -0.5926   -0.6455 C   0  0  0  0  0  0  0  0  0  0  0  0
    4.0562   -1.8729   -0.1009 C   0  0  0  0  0  0  0  0  0  0  0  0
    5.5086   -2.8674   -0.2927 S   0  0  0  0  0  6  0  0  0  0  0  0
    6.3954   -2.4250    1.0712 N   0  0  0  0  0  0  0  0  0  0  0  0
    6.2620   -2.3743   -1.4226 O   0  0  0  0  0  0  0  0  0  0  0  0
    5.1423   -4.2561   -0.1482 O   0  0  0  0  0  0  0  0  0  0  0  0
    2.9536   -2.3847    0.5804 C   0  0  0  0  0  0  0  0  0  0  0  0
    1.8081   -1.5939    0.7351 C   0  0  0  0  0  0  0  0  0  0  0  0
   -1.5463   -0.8458   -1.1427 C   0  0  0  0  0  0  0  0  0  0  0  0
   -2.3485   -1.7613   -1.8284 C   0  0  0  0  0  0  0  0  0  0  0  0
   -5.3499   -4.1400   -0.6185 H   0  0  0  0  0  0  0  0  0  0  0  0
   -3.9185   -5.2383   -0.7185 H   0  0  0  0  0  0  0  0  0  0  0  0
   -5.0886   -5.1560   -2.0412 H   0  0  0  0  0  0  0  0  0  0  0  0
   -3.6261   -3.4445    0.8381 H   0  0  0  0  0  0  0  0  0  0  0  0
   -2.2323   -1.8507    2.0356 H   0  0  0  0  0  0  0  0  0  0  0  0
   -0.4229   -0.2627    2.0397 H   0  0  0  0  0  0  0  0  0  0  0  0
   -1.3099    1.8473    2.2075 H   0  0  0  0  0  0  0  0  0  0  0  0
   -2.4123    1.4522    0.8502 H   0  0  0  0  0  0  0  0  0  0  0  0
    0.8007    4.0197   -1.3458 H   0  0  0  0  0  0  0  0  0  0  0  0
    0.1973    6.3402   -1.9388 H   0  0  0  0  0  0  0  0  0  0  0  0
   -1.8394    7.3843   -0.9786 H   0  0  0  0  0  0  0  0  0  0  0  0
   -3.2741    6.0987    0.5824 H   0  0  0  0  0  0  0  0  0  0  0  0
   -2.6943    3.7899    1.1913 H   0  0  0  0  0  0  0  0  0  0  0  0
    2.8442    1.1834   -0.9106 H   0  0  0  0  0  0  0  0  0  0  0  0
    4.8578   -0.1884   -1.2008 H   0  0  0  0  0  0  0  0  0  0  0  0
    5.8608   -1.8524    1.7238 H   0  0  0  0  0  0  0  0  0  0  0  0
    7.2495   -1.9555    0.7657 H   0  0  0  0  0  0  0  0  0  0  0  0
    2.9694   -3.3936    0.9880 H   0  0  0  0  0  0  0  0  0  0  0  0
    0.9669   -2.0295    1.2663 H   0  0  0  0  0  0  0  0  0  0  0  0
   -0.9642   -0.1242   -1.7142 H   0  0  0  0  0  0  0  0  0  0  0  0
   -2.3798   -1.7370   -2.9152 H   0  0  0  0  0  0  0  0  0  0  0  0
  1  2  1  0
  2  3  1  0
  3  4  2  0
  4  5  1  0
  5  6  2  0
  6  7  1  0
  7  8  1  0
  8  9  1  0
  9 10  1  0
 10 11  2  0
 11 12  1  0
 12 13  2  0
 13 14  1  0
 14 15  2  0
  9 16  2  0
 16 17  1  0
 17 18  1  0
 18 19  2  0
 19 20  1  0
 20 21  2  0
 21 22  1  0
 22 23  1  0
 22 24  2  0
 22 25  2  0
 21 26  1  0
 26 27  2  0
  6 28  1  0
 28 29  2  0
 29  3  1  0
 17  7  1  0
 27 18  1  0
 15 10  1  0
  1 30  1  0
  1 31  1  0
  1 32  1  0
  4 33  1  0
  5 34  1  0
  7 35  1  0
  8 36  1  0
  8 37  1  0
 11 38  1  0
 12 39  1  0
 13 40  1  0
 14 41  1  0
 15 42  1  0
 19 43  1  0
 20 44  1  0
 23 45  1  0
 23 46  1  0
 26 47  1  0
 27 48  1  0
 28 49  1  0
 29 50  1  0
M  END
$$$$
