
     RDKit          3D

 53 55  0  0  0  0  0  0  0  0999 V2000
   -6.7618    0.4412   -0.5194 C   0  0  0  0  0  0  0  0  0  0  0  0
   -6.3867    1.5195   -1.3638 O   0  0  0  0  0  0  0  0  0  0  0  0
   -5.1074    2.0037   -1.2441 C   0  0  0  0  0  0  0  0  0  0  0  0
   -4.1948    1.5906   -0.2689 C   0  0  0  0  0  0  0  0  0  0  0  0
   -2.9125    2.1450   -0.2195 C   0  0  0  0  0  0  0  0  0  0  0  0
   -2.5236    3.1147   -1.1469 C   0  0  0  0  0  0  0  0  0  0  0  0
   -1.1965    3.7399   -1.0928 C   0  0  0  0  0  0  0  0  0  0  0  0
   -0.0162    3.1049   -1.1539 C   0  0  0  0  0  0  0  0  0  0  0  0
    0.1130    1.6385   -1.3417 C   0  0  0  0  0  0  0  0  0  0  0  0
   -0.2738    1.1069   -2.3711 O   0  0  0  0  0  0  0  0  0  0  0  0
    0.7163    1.0532   -0.2486 N   0  0  0  0  0  0  0  0  0  0  0  0
    0.9694   -0.3195   -0.0491 C   0  0  0  0  0  0  0  0  0  0  0  0
    0.6170   -1.3185   -0.9616 C   0  0  0  0  0  0  0  0  0  0  0  0
    0.8851   -2.6655   -0.6890 C   0  0  0  0  0  0  0  0  0  0  0  0
    1.5135   -3.0278    0.4985 C   0  0  0  0  0  0  0  0  0  0  0  0
    1.8751   -2.0311    1.4056 C   0  0  0  0  0  0  0  0  0  0  0  0
    2.6847   -2.4935    2.9134 S   0  0  0  0  0  6  0  0  0  0  0  0
    1.8998   -3.5446    3.5232 O   0  0  0  0  0  0  0  0  0  0  0  0
    3.0164   -1.2862    3.6422 O   0  0  0  0  0  0  0  0  0  0  0  0
    4.1383   -3.1690    2.3592 N   0  0  0  0  0  0  0  0  0  0  0  0
    5.0521   -2.2851    1.5925 C   0  0  0  0  0  0  0  0  0  0  0  0
    6.4276   -2.8922    1.8202 C   0  0  0  0  0  0  0  0  0  0  0  0
    6.3498   -3.3240    3.2699 C   0  0  0  0  0  0  0  0  0  0  0  0
    4.9391   -3.8850    3.3910 C   0  0  0  0  0  0  0  0  0  0  0  0
    1.6027   -0.6840    1.1437 C   0  0  0  0  0  0  0  0  0  0  0  0
   -3.4392    3.5394   -2.1178 C   0  0  0  0  0  0  0  0  0  0  0  0
   -4.7252    2.9862   -2.1789 C   0  0  0  0  0  0  0  0  0  0  0  0
   -5.6800    3.3496   -3.0978 O   0  0  0  0  0  0  0  0  0  0  0  0
   -5.2617    4.1519   -4.1925 C   0  0  0  0  0  0  0  0  0  0  0  0
   -7.7793    0.1430   -0.7898 H   0  0  0  0  0  0  0  0  0  0  0  0
   -6.7750    0.7504    0.5307 H   0  0  0  0  0  0  0  0  0  0  0  0
   -6.1110   -0.4266   -0.6693 H   0  0  0  0  0  0  0  0  0  0  0  0
   -4.4498    0.8407    0.4720 H   0  0  0  0  0  0  0  0  0  0  0  0
   -2.2276    1.8101    0.5553 H   0  0  0  0  0  0  0  0  0  0  0  0
   -1.2065    4.8242   -1.0054 H   0  0  0  0  0  0  0  0  0  0  0  0
    0.9154    3.6560   -1.1009 H   0  0  0  0  0  0  0  0  0  0  0  0
    0.9779    1.6698    0.5102 H   0  0  0  0  0  0  0  0  0  0  0  0
    0.1187   -1.0838   -1.8982 H   0  0  0  0  0  0  0  0  0  0  0  0
    0.5950   -3.4279   -1.4085 H   0  0  0  0  0  0  0  0  0  0  0  0
    1.7180   -4.0743    0.7134 H   0  0  0  0  0  0  0  0  0  0  0  0
    4.7918   -2.2817    0.5308 H   0  0  0  0  0  0  0  0  0  0  0  0
    5.0279   -1.2597    1.9755 H   0  0  0  0  0  0  0  0  0  0  0  0
    7.2362   -2.1811    1.6307 H   0  0  0  0  0  0  0  0  0  0  0  0
    6.5731   -3.7645    1.1719 H   0  0  0  0  0  0  0  0  0  0  0  0
    6.4651   -2.4539    3.9275 H   0  0  0  0  0  0  0  0  0  0  0  0
    7.1152   -4.0574    3.5383 H   0  0  0  0  0  0  0  0  0  0  0  0
    4.9215   -4.9540    3.1529 H   0  0  0  0  0  0  0  0  0  0  0  0
    4.5539   -3.7505    4.4061 H   0  0  0  0  0  0  0  0  0  0  0  0
    1.8846    0.0715    1.8730 H   0  0  0  0  0  0  0  0  0  0  0  0
   -3.1269    4.3025   -2.8228 H   0  0  0  0  0  0  0  0  0  0  0  0
   -6.1087    4.2487   -4.8788 H   0  0  0  0  0  0  0  0  0  0  0  0
   -4.4404    3.6808   -4.7428 H   0  0  0  0  0  0  0  0  0  0  0  0
   -4.9895    5.1584   -3.8587 H   0  0  0  0  0  0  0  0  0  0  0  0
  1  2  1  0
  2  3  1  0
  3  4  2  0
  4  5  1  0
  5  6  2  0
  6  7  1  0
  7  8  2  3
  8  9  1  0
  9 10  2  0
  9 11  1  0
 11 12  1  0
 12 13  2  0
 13 14  1  0
 14 15  2  0
 15 16  1  0
 16 17  1  0
 17 18  2  0
 17 19  2  0
 17 20  1  0
 20 21  1  0
 21 22  1  0
 22 23  1  0
 23 24  1  0
 16 25  2  0
  6 26  1  0
 26 27  2  0
 27 28  1  0
 28 29  1  0
 27  3  1  0
 25 12  1  0
 24 20  1  0
  1 30  1  0
  1 31  1  0
  1 32  1  0
  4 33  1  0
  5 34  1  0
  7 35  1  0
  8 36  1  0
 11 37  1  0
 13 38  1  0
 14 39  1  0
 15 40  1  0
 21 41  1  0
 21 42  1  0
 22 43  1  0
 22 44  1  0
 23 45  1  0
 23 46  1  0
 24 47  1  0
 24 48  1  0
 25 49  1  0
 26 50  1  0
 29 51  1  0
 29 52  1  0
 29 53  1  0
M  END
$$$$
