
     RDKit          3D

 55 57  0  0  0  0  0  0  0  0999 V2000
   -6.8229    1.7305   -2.9185 C   0  0  0  0  0  0  0  0  0  0  0  0
   -6.4407    0.7794   -1.8231 C   0  0  0  0  0  0  0  0  0  0  0  0
   -7.3832    0.3591   -0.8796 C   0  0  0  0  0  0  0  0  0  0  0  0
   -7.0200   -0.5144    0.1512 C   0  0  0  0  0  0  0  0  0  0  0  0
   -5.7021   -0.9805    0.2721 C   0  0  0  0  0  0  0  0  0  0  0  0
   -5.3691   -1.9404    1.3776 C   0  0  0  0  0  0  0  0  0  0  0  0
   -4.7492   -0.5139   -0.6480 C   0  0  0  0  0  0  0  0  0  0  0  0
   -3.3191   -0.8872   -0.5792 C   0  0  0  0  0  0  0  0  0  0  0  0
   -2.8062   -1.4802   -1.5253 O   0  0  0  0  0  0  0  0  0  0  0  0
   -2.5489   -0.4525    0.6618 C   0  0  0  0  0  0  0  0  0  0  0  0
   -1.1608   -0.2516    0.3867 O   0  0  0  0  0  0  0  0  0  0  0  0
   -0.8983    0.8476   -0.3622 C   0  0  0  0  0  0  0  0  0  0  0  0
   -1.7148    1.6914   -0.6983 O   0  0  0  0  0  0  0  0  0  0  0  0
    0.5476    0.9146   -0.7075 C   0  0  0  0  0  0  0  0  0  0  0  0
    1.0098    2.0393   -1.3983 C   0  0  0  0  0  0  0  0  0  0  0  0
    2.3578    2.1494   -1.7509 C   0  0  0  0  0  0  0  0  0  0  0  0
    3.2796    1.1444   -1.4134 C   0  0  0  0  0  0  0  0  0  0  0  0
    4.7080    1.3076   -1.8552 C   0  0  0  0  0  0  0  0  0  0  0  0
    2.8070    0.0147   -0.7159 C   0  0  0  0  0  0  0  0  0  0  0  0
    3.8947   -1.3258   -0.2521 S   0  0  0  0  0  6  0  0  0  0  0  0
    4.6912   -1.6751   -1.4079 O   0  0  0  0  0  0  0  0  0  0  0  0
    3.1206   -2.3290    0.4503 O   0  0  0  0  0  0  0  0  0  0  0  0
    4.9151   -0.6028    0.9081 N   0  0  0  0  0  0  0  0  0  0  0  0
    6.1668   -1.3928    1.1549 C   0  0  0  0  0  0  0  0  0  0  0  0
    6.8392   -0.9326    2.4514 C   0  0  0  0  0  0  0  0  0  0  0  0
    6.0267   -1.1438    3.6158 O   0  0  0  0  0  0  0  0  0  0  0  0
    4.6198   -1.1174    3.3375 C   0  0  0  0  0  0  0  0  0  0  0  0
    4.2570   -0.1748    2.1860 C   0  0  0  0  0  0  0  0  0  0  0  0
    1.4486   -0.1028   -0.3736 C   0  0  0  0  0  0  0  0  0  0  0  0
   -5.1176    0.3458   -1.6941 C   0  0  0  0  0  0  0  0  0  0  0  0
   -7.8804    1.6210   -3.1819 H   0  0  0  0  0  0  0  0  0  0  0  0
   -6.2413    1.5337   -3.8252 H   0  0  0  0  0  0  0  0  0  0  0  0
   -6.6437    2.7620   -2.5985 H   0  0  0  0  0  0  0  0  0  0  0  0
   -8.4142    0.7011   -0.9459 H   0  0  0  0  0  0  0  0  0  0  0  0
   -7.7838   -0.8365    0.8571 H   0  0  0  0  0  0  0  0  0  0  0  0
   -4.6591   -2.7011    1.0370 H   0  0  0  0  0  0  0  0  0  0  0  0
   -4.9480   -1.4023    2.2322 H   0  0  0  0  0  0  0  0  0  0  0  0
   -6.2628   -2.4759    1.7172 H   0  0  0  0  0  0  0  0  0  0  0  0
   -2.9830    0.4504    1.1068 H   0  0  0  0  0  0  0  0  0  0  0  0
   -2.6093   -1.2580    1.3995 H   0  0  0  0  0  0  0  0  0  0  0  0
    0.3196    2.8350   -1.6760 H   0  0  0  0  0  0  0  0  0  0  0  0
    2.6818    3.0314   -2.3026 H   0  0  0  0  0  0  0  0  0  0  0  0
    5.4032    1.1456   -1.0282 H   0  0  0  0  0  0  0  0  0  0  0  0
    4.8952    2.3235   -2.2215 H   0  0  0  0  0  0  0  0  0  0  0  0
    4.9334    0.6182   -2.6741 H   0  0  0  0  0  0  0  0  0  0  0  0
    5.9228   -2.4593    1.2305 H   0  0  0  0  0  0  0  0  0  0  0  0
    6.8503   -1.2396    0.3132 H   0  0  0  0  0  0  0  0  0  0  0  0
    7.0815    0.1357    2.4023 H   0  0  0  0  0  0  0  0  0  0  0  0
    7.7778   -1.4750    2.6045 H   0  0  0  0  0  0  0  0  0  0  0  0
    4.2985   -2.1427    3.1208 H   0  0  0  0  0  0  0  0  0  0  0  0
    4.1128   -0.8030    4.2553 H   0  0  0  0  0  0  0  0  0  0  0  0
    4.6072    0.8418    2.4037 H   0  0  0  0  0  0  0  0  0  0  0  0
    3.1701   -0.1211    2.0809 H   0  0  0  0  0  0  0  0  0  0  0  0
    1.0960   -0.9923    0.1459 H   0  0  0  0  0  0  0  0  0  0  0  0
   -4.3610    0.6818   -2.4031 H   0  0  0  0  0  0  0  0  0  0  0  0
  1  2  1  0
  2  3  2  0
  3  4  1  0
  4  5  2  0
  5  6  1  0
  5  7  1  0
  7  8  1  0
  8  9  2  0
  8 10  1  0
 10 11  1  0
 11 12  1  0
 12 13  2  0
 12 14  1  0
 14 15  2  0
 15 16  1  0
 16 17  2  0
 17 18  1  0
 17 19  1  0
 19 20  1  0
 20 21  2  0
 20 22  2  0
 20 23  1  0
 23 24  1  0
 24 25  1  0
 25 26  1  0
 26 27  1  0
 27 28  1  0
 19 29  2  0
  7 30  2  0
 30  2  1  0
 29 14  1  0
 28 23  1  0
  1 31  1  0
  1 32  1  0
  1 33  1  0
  3 34  1  0
  4 35  1  0
  6 36  1  0
  6 37  1  0
  6 38  1  0
 10 39  1  0
 10 40  1  0
 15 41  1  0
 16 42  1  0
 18 43  1  0
 18 44  1  0
 18 45  1  0
 24 46  1  0
 24 47  1  0
 25 48  1  0
 25 49  1  0
 27 50  1  0
 27 51  1  0
 28 52  1  0
 28 53  1  0
 29 54  1  0
 30 55  1  0
M  END
$$$$
