
     RDKit          3D

 37 37  0  0  0  0  0  0  0  0999 V2000
    5.0769   -1.0386    0.9593 C   0  0  0  0  0  0  0  0  0  0  0  0
    4.1906    0.1380    0.5800 C   0  0  0  0  0  0  0  0  0  0  0  0
    2.7769   -0.0267    1.1384 C   0  0  0  0  0  0  0  0  0  0  0  0
    1.8747    1.1832    0.8769 C   0  0  0  0  0  0  0  0  0  0  0  0
    1.6341    1.5253   -0.5969 C   0  0  0  0  0  0  0  0  0  0  0  0
    1.0418    0.3993   -1.4503 C   0  0  0  0  0  0  0  0  0  0  0  0
   -0.2824   -0.1847   -0.9500 C   0  0  0  0  0  0  0  0  0  0  0  0
   -1.4134    0.8447   -0.8830 C   0  0  0  0  0  0  0  0  0  0  0  0
   -2.6752    0.1938   -0.4912 N   0  0  0  0  0  0  0  0  0  0  0  0
   -3.0133    0.0295    0.8465 C   0  0  0  0  0  0  0  0  0  0  0  0
   -4.1261   -0.5780    1.2791 C   0  0  0  0  0  0  0  0  0  0  0  0
   -5.0650   -1.1206    0.2614 C   0  0  0  0  0  0  0  0  0  0  0  0
   -6.1690   -1.7196    0.5710 N   0  0  0  0  0  0  0  0  0  0  0  0
   -4.6888   -0.9544   -1.1639 C   0  0  0  0  0  0  0  0  0  0  0  0
   -3.5419   -0.3240   -1.4460 C   0  0  0  0  0  0  0  0  0  0  0  0
    4.6723   -1.9768    0.5663 H   0  0  0  0  0  0  0  0  0  0  0  0
    6.0823   -0.9035    0.5485 H   0  0  0  0  0  0  0  0  0  0  0  0
    5.1641   -1.1302    2.0467 H   0  0  0  0  0  0  0  0  0  0  0  0
    4.1625    0.2166   -0.5120 H   0  0  0  0  0  0  0  0  0  0  0  0
    4.6375    1.0626    0.9631 H   0  0  0  0  0  0  0  0  0  0  0  0
    2.3192   -0.9347    0.7297 H   0  0  0  0  0  0  0  0  0  0  0  0
    2.8369   -0.1753    2.2241 H   0  0  0  0  0  0  0  0  0  0  0  0
    0.9115    1.0140    1.3729 H   0  0  0  0  0  0  0  0  0  0  0  0
    2.3129    2.0624    1.3662 H   0  0  0  0  0  0  0  0  0  0  0  0
    2.5780    1.8461   -1.0538 H   0  0  0  0  0  0  0  0  0  0  0  0
    0.9760    2.4013   -0.6455 H   0  0  0  0  0  0  0  0  0  0  0  0
    0.8973    0.7801   -2.4693 H   0  0  0  0  0  0  0  0  0  0  0  0
    1.7719   -0.4143   -1.5356 H   0  0  0  0  0  0  0  0  0  0  0  0
   -0.5733   -0.9965   -1.6291 H   0  0  0  0  0  0  0  0  0  0  0  0
   -0.1423   -0.6526    0.0313 H   0  0  0  0  0  0  0  0  0  0  0  0
   -1.1734    1.6370   -0.1642 H   0  0  0  0  0  0  0  0  0  0  0  0
   -1.5314    1.3377   -1.8563 H   0  0  0  0  0  0  0  0  0  0  0  0
   -2.2946    0.4380    1.5512 H   0  0  0  0  0  0  0  0  0  0  0  0
   -4.3598   -0.6878    2.3276 H   0  0  0  0  0  0  0  0  0  0  0  0
   -6.2870   -1.7561    1.5871 H   0  0  0  0  0  0  0  0  0  0  0  0
   -5.3541   -1.3505   -1.9179 H   0  0  0  0  0  0  0  0  0  0  0  0
   -3.2266   -0.1847   -2.4759 H   0  0  0  0  0  0  0  0  0  0  0  0
  1  2  1  0
  2  3  1  0
  3  4  1  0
  4  5  1  0
  5  6  1  0
  6  7  1  0
  7  8  1  0
  8  9  1  0
  9 10  1  0
 10 11  2  0
 11 12  1  0
 12 13  2  3
 12 14  1  0
 14 15  2  0
 15  9  1  0
  1 16  1  0
  1 17  1  0
  1 18  1  0
  2 19  1  0
  2 20  1  0
  3 21  1  0
  3 22  1  0
  4 23  1  0
  4 24  1  0
  5 25  1  0
  5 26  1  0
  6 27  1  0
  6 28  1  0
  7 29  1  0
  7 30  1  0
  8 31  1  0
  8 32  1  0
 10 33  1  0
 11 34  1  0
 13 35  1  0
 14 36  1  0
 15 37  1  0
M  END
$$$$
