
     RDKit          3D

 42 44  0  0  0  0  0  0  0  0999 V2000
   -1.9583    5.6869    0.2999 C   0  0  0  0  0  0  0  0  0  0  0  0
   -2.2396    5.1925   -1.0046 O   0  0  0  0  0  0  0  0  0  0  0  0
   -1.9780    3.8648   -1.2339 C   0  0  0  0  0  0  0  0  0  0  0  0
   -1.4842    2.9531   -0.3013 C   0  0  0  0  0  0  0  0  0  0  0  0
   -1.2600    1.6168   -0.6682 C   0  0  0  0  0  0  0  0  0  0  0  0
   -0.7766    0.6801    0.3585 C   0  0  0  0  0  0  0  0  0  0  0  0
    0.3011   -0.1255    0.2677 C   0  0  0  0  0  0  0  0  0  0  0  0
    1.1707   -0.1540   -0.8562 C   0  0  0  0  0  0  0  0  0  0  0  0
    1.8560   -0.1914   -1.7924 N   0  0  0  0  0  0  0  0  0  0  0  0
    0.6172   -0.9413    1.4772 C   0  0  0  0  0  0  0  0  0  0  0  0
    0.4259   -0.4870    2.6035 O   0  0  0  0  0  0  0  0  0  0  0  0
    1.1511   -2.2839    1.2491 C   0  0  0  0  0  0  0  0  0  0  0  0
    0.9821   -3.0857    0.1307 C   0  0  0  0  0  0  0  0  0  0  0  0
    1.6468   -4.2672    0.3337 N   0  0  0  0  0  0  0  0  0  0  0  0
    2.2212   -4.2809    1.5807 C   0  0  0  0  0  0  0  0  0  0  0  0
    2.9746   -5.2777    2.2127 C   0  0  0  0  0  0  0  0  0  0  0  0
    3.4367   -5.0201    3.5061 C   0  0  0  0  0  0  0  0  0  0  0  0
    3.1549   -3.8133    4.1396 C   0  0  0  0  0  0  0  0  0  0  0  0
    2.4016   -2.8276    3.4918 C   0  0  0  0  0  0  0  0  0  0  0  0
    1.9215   -3.0591    2.1843 C   0  0  0  0  0  0  0  0  0  0  0  0
   -1.5512    1.1938   -1.9746 C   0  0  0  0  0  0  0  0  0  0  0  0
   -2.0277    2.1005   -2.9250 C   0  0  0  0  0  0  0  0  0  0  0  0
   -2.3375    1.7737   -4.2184 O   0  0  0  0  0  0  0  0  0  0  0  0
   -1.6748    0.6383   -4.7600 C   0  0  0  0  0  0  0  0  0  0  0  0
   -2.2477    3.4259   -2.5377 C   0  0  0  0  0  0  0  0  0  0  0  0
   -2.7331    4.3293   -3.4525 O   0  0  0  0  0  0  0  0  0  0  0  0
   -0.8936    5.5915    0.5370 H   0  0  0  0  0  0  0  0  0  0  0  0
   -2.2086    6.7520    0.3141 H   0  0  0  0  0  0  0  0  0  0  0  0
   -2.5788    5.1888    1.0521 H   0  0  0  0  0  0  0  0  0  0  0  0
   -1.2660    3.2585    0.7176 H   0  0  0  0  0  0  0  0  0  0  0  0
   -1.3638    0.6923    1.2781 H   0  0  0  0  0  0  0  0  0  0  0  0
    0.4492   -2.9326   -0.7988 H   0  0  0  0  0  0  0  0  0  0  0  0
    1.6999   -5.0299   -0.3284 H   0  0  0  0  0  0  0  0  0  0  0  0
    3.1957   -6.2205    1.7229 H   0  0  0  0  0  0  0  0  0  0  0  0
    4.0242   -5.7743    4.0249 H   0  0  0  0  0  0  0  0  0  0  0  0
    3.5214   -3.6315    5.1470 H   0  0  0  0  0  0  0  0  0  0  0  0
    2.1875   -1.8904    3.9995 H   0  0  0  0  0  0  0  0  0  0  0  0
   -1.4231    0.1487   -2.2373 H   0  0  0  0  0  0  0  0  0  0  0  0
   -1.8309    0.6449   -5.8430 H   0  0  0  0  0  0  0  0  0  0  0  0
   -2.1085   -0.2869   -4.3676 H   0  0  0  0  0  0  0  0  0  0  0  0
   -0.5951    0.6747   -4.5781 H   0  0  0  0  0  0  0  0  0  0  0  0
   -2.8023    5.1737   -2.9690 H   0  0  0  0  0  0  0  0  0  0  0  0
  1  2  1  0
  2  3  1  0
  3  4  2  0
  4  5  1  0
  5  6  1  0
  6  7  2  3
  7  8  1  0
  8  9  3  0
  7 10  1  0
 10 11  2  0
 10 12  1  0
 12 13  2  0
 13 14  1  0
 14 15  1  0
 15 16  2  0
 16 17  1  0
 17 18  2  0
 18 19  1  0
 19 20  2  0
  5 21  2  0
 21 22  1  0
 22 23  1  0
 23 24  1  0
 22 25  2  0
 25 26  1  0
 25  3  1  0
 20 12  1  0
 20 15  1  0
  1 27  1  0
  1 28  1  0
  1 29  1  0
  4 30  1  0
  6 31  1  0
 13 32  1  0
 14 33  1  0
 16 34  1  0
 17 35  1  0
 18 36  1  0
 19 37  1  0
 21 38  1  0
 24 39  1  0
 24 40  1  0
 24 41  1  0
 26 42  1  0
M  END
$$$$
