
     RDKit          3D

 43 45  0  0  0  0  0  0  0  0999 V2000
    4.5909   -1.2416   -0.4088 O   0  0  0  0  0  0  0  0  0  0  0  0
    3.7149   -0.3697   -0.4443 C   0  0  0  0  0  0  0  0  0  0  0  0
    4.1410    1.1071   -0.6070 C   0  0  0  0  0  0  0  0  0  0  0  0
    4.3939    1.7631    0.7408 C   0  0  0  0  0  0  0  0  0  0  0  0
    4.3756    3.2261    0.3786 C   0  0  0  0  0  0  0  0  0  0  0  0
    3.3118    3.2812   -0.6960 C   0  0  0  0  0  0  0  0  0  0  0  0
    3.2735    1.9906   -1.3235 O   0  0  0  0  0  0  0  0  0  0  0  0
    2.3769   -0.6940   -0.2780 N   0  0  0  0  0  0  0  0  0  0  0  0
    1.2725    0.2667   -0.2614 C   0  0  0  0  0  0  0  0  0  0  0  0
   -0.0107   -0.2995    0.3679 C   0  0  0  0  0  0  0  0  0  0  0  0
   -0.4501   -1.5700   -0.2386 N   0  0  0  0  0  0  0  0  0  0  0  0
   -1.8141   -1.8973   -0.3949 C   0  0  0  0  0  0  0  0  0  0  0  0
   -2.3610   -3.0607   -1.4790 S   0  0  0  0  0  0  0  0  0  0  0  0
   -2.6205   -1.1975    0.4951 N   0  0  0  0  0  0  0  0  0  0  0  0
   -4.0050   -0.9231    0.4716 C   0  0  0  0  0  0  0  0  0  0  0  0
   -4.7668   -0.8642   -0.6993 C   0  0  0  0  0  0  0  0  0  0  0  0
   -6.1281   -0.5478   -0.6442 C   0  0  0  0  0  0  0  0  0  0  0  0
   -6.7215   -0.2733    0.5802 C   0  0  0  0  0  0  0  0  0  0  0  0
   -8.0240    0.0335    0.6314 F   0  0  0  0  0  0  0  0  0  0  0  0
   -5.9773   -0.2990    1.7515 C   0  0  0  0  0  0  0  0  0  0  0  0
   -4.6174   -0.6146    1.6956 C   0  0  0  0  0  0  0  0  0  0  0  0
    0.6262   -2.3771   -0.8512 C   0  0  0  0  0  0  0  0  0  0  0  0
    2.0022   -2.1102   -0.2271 C   0  0  0  0  0  0  0  0  0  0  0  0
    5.0759    1.0883   -1.1837 H   0  0  0  0  0  0  0  0  0  0  0  0
    5.3371    1.4449    1.1948 H   0  0  0  0  0  0  0  0  0  0  0  0
    3.5900    1.5390    1.4514 H   0  0  0  0  0  0  0  0  0  0  0  0
    5.3454    3.5152   -0.0437 H   0  0  0  0  0  0  0  0  0  0  0  0
    4.1643    3.8868    1.2234 H   0  0  0  0  0  0  0  0  0  0  0  0
    3.5168    4.0487   -1.4478 H   0  0  0  0  0  0  0  0  0  0  0  0
    2.3234    3.4735   -0.2660 H   0  0  0  0  0  0  0  0  0  0  0  0
    1.0784    0.5494   -1.3025 H   0  0  0  0  0  0  0  0  0  0  0  0
    1.5683    1.1592    0.2935 H   0  0  0  0  0  0  0  0  0  0  0  0
    0.1608   -0.5073    1.4310 H   0  0  0  0  0  0  0  0  0  0  0  0
   -0.8037    0.4518    0.2930 H   0  0  0  0  0  0  0  0  0  0  0  0
   -2.1738   -1.0509    1.3904 H   0  0  0  0  0  0  0  0  0  0  0  0
   -4.3229   -1.0274   -1.6760 H   0  0  0  0  0  0  0  0  0  0  0  0
   -6.7215   -0.5063   -1.5521 H   0  0  0  0  0  0  0  0  0  0  0  0
   -6.4579   -0.0742    2.6981 H   0  0  0  0  0  0  0  0  0  0  0  0
   -4.0503   -0.6325    2.6226 H   0  0  0  0  0  0  0  0  0  0  0  0
    0.3883   -3.4410   -0.7510 H   0  0  0  0  0  0  0  0  0  0  0  0
    0.6488   -2.1266   -1.9189 H   0  0  0  0  0  0  0  0  0  0  0  0
    1.9938   -2.3933    0.8324 H   0  0  0  0  0  0  0  0  0  0  0  0
    2.7561   -2.7257   -0.7291 H   0  0  0  0  0  0  0  0  0  0  0  0
  1  2  2  0
  2  3  1  0
  3  4  1  0
  4  5  1  0
  5  6  1  0
  6  7  1  0
  2  8  1  0
  8  9  1  0
  9 10  1  0
 10 11  1  0
 11 12  1  0
 12 13  2  0
 12 14  1  0
 14 15  1  0
 15 16  2  0
 16 17  1  0
 17 18  2  0
 18 19  1  0
 18 20  1  0
 20 21  2  0
 11 22  1  0
 22 23  1  0
  7  3  1  0
 23  8  1  0
 21 15  1  0
  3 24  1  0
  4 25  1  0
  4 26  1  0
  5 27  1  0
  5 28  1  0
  6 29  1  0
  6 30  1  0
  9 31  1  0
  9 32  1  0
 10 33  1  0
 10 34  1  0
 14 35  1  0
 16 36  1  0
 17 37  1  0
 20 38  1  0
 21 39  1  0
 22 40  1  0
 22 41  1  0
 23 42  1  0
 23 43  1  0
M  END
$$$$
