
     RDKit          3D

 61 63  0  0  0  0  0  0  0  0999 V2000
    3.2522   -0.9393   -3.6253 C   0  0  0  0  0  0  0  0  0  0  0  0
    3.0229   -1.2330   -2.1515 C   0  0  0  0  0  0  0  0  0  0  0  0
    2.3146   -0.0725   -1.4560 C   0  0  0  0  0  0  0  0  0  0  0  0
    2.0282   -0.3935    0.0059 C   0  0  0  0  0  0  0  0  0  0  0  0
    1.2095    0.6276    0.6215 N   0  0  0  0  0  0  0  0  0  0  0  0
    0.8408    0.5284    1.9515 C   0  0  0  0  0  0  0  0  0  0  0  0
    1.2924   -0.3192    2.7153 O   0  0  0  0  0  0  0  0  0  0  0  0
   -0.1539    1.6024    2.4011 C   0  0  0  0  0  0  0  0  0  0  0  0
    0.6136    2.9222    2.6026 C   0  0  0  0  0  0  0  0  0  0  0  0
   -0.2527    4.0516    3.1136 C   0  0  0  0  0  0  0  0  0  0  0  0
   -0.8575    3.9759    4.3760 C   0  0  0  0  0  0  0  0  0  0  0  0
   -1.6705    5.0138    4.8338 C   0  0  0  0  0  0  0  0  0  0  0  0
   -1.8819    6.1386    4.0398 C   0  0  0  0  0  0  0  0  0  0  0  0
   -1.2773    6.2292    2.7878 C   0  0  0  0  0  0  0  0  0  0  0  0
   -0.4638    5.1926    2.3271 C   0  0  0  0  0  0  0  0  0  0  0  0
   -1.2101    1.7685    1.3533 N   0  0  0  0  0  0  0  0  0  0  0  0
   -2.5244    0.7056    1.4033 S   0  0  0  0  0  6  0  0  0  0  0  0
   -3.5422    1.2955    0.5640 O   0  0  0  0  0  0  0  0  0  0  0  0
   -2.7818    0.3596    2.7809 O   0  0  0  0  0  0  0  0  0  0  0  0
   -1.9198   -0.7262    0.5549 C   0  0  0  0  0  0  0  0  0  0  0  0
   -1.6637   -1.9004    1.2610 C   0  0  0  0  0  0  0  0  0  0  0  0
   -1.1802   -3.0265    0.5840 C   0  0  0  0  0  0  0  0  0  0  0  0
   -0.9473   -2.9927   -0.8013 C   0  0  0  0  0  0  0  0  0  0  0  0
   -1.2212   -1.8085   -1.4871 C   0  0  0  0  0  0  0  0  0  0  0  0
   -1.7198   -0.6767   -0.8230 C   0  0  0  0  0  0  0  0  0  0  0  0
   -0.9427   -1.7316   -2.9294 C   0  0  0  0  0  0  0  0  0  0  0  0
   -1.0919   -0.6563   -3.5040 O   0  0  0  0  0  0  0  0  0  0  0  0
   -0.4939   -2.8884   -3.5408 N   0  0  0  0  0  0  0  0  0  0  0  0
   -0.2276   -2.8515   -4.9681 C   0  0  0  0  0  0  0  0  0  0  0  0
   -0.1879   -4.0738   -2.8802 C   0  0  0  0  0  0  0  0  0  0  0  0
    0.2842   -5.0389   -3.4851 O   0  0  0  0  0  0  0  0  0  0  0  0
   -0.4283   -4.1091   -1.5096 N   0  0  0  0  0  0  0  0  0  0  0  0
   -0.1283   -5.3395   -0.7889 C   0  0  0  0  0  0  0  0  0  0  0  0
    3.8846   -0.0563   -3.7532 H   0  0  0  0  0  0  0  0  0  0  0  0
    2.3037   -0.7605   -4.1421 H   0  0  0  0  0  0  0  0  0  0  0  0
    3.7488   -1.7877   -4.1088 H   0  0  0  0  0  0  0  0  0  0  0  0
    3.9868   -1.4251   -1.6664 H   0  0  0  0  0  0  0  0  0  0  0  0
    2.4246   -2.1474   -2.0583 H   0  0  0  0  0  0  0  0  0  0  0  0
    1.3760    0.1490   -1.9777 H   0  0  0  0  0  0  0  0  0  0  0  0
    2.9256    0.8361   -1.5201 H   0  0  0  0  0  0  0  0  0  0  0  0
    1.4990   -1.3466    0.1002 H   0  0  0  0  0  0  0  0  0  0  0  0
    2.9598   -0.4787    0.5763 H   0  0  0  0  0  0  0  0  0  0  0  0
    0.5681    1.1559    0.0385 H   0  0  0  0  0  0  0  0  0  0  0  0
   -0.5994    1.2864    3.3496 H   0  0  0  0  0  0  0  0  0  0  0  0
    1.0916    3.2266    1.6623 H   0  0  0  0  0  0  0  0  0  0  0  0
    1.4360    2.7718    3.3147 H   0  0  0  0  0  0  0  0  0  0  0  0
   -0.7040    3.1098    5.0165 H   0  0  0  0  0  0  0  0  0  0  0  0
   -2.1397    4.9442    5.8126 H   0  0  0  0  0  0  0  0  0  0  0  0
   -2.5157    6.9463    4.3985 H   0  0  0  0  0  0  0  0  0  0  0  0
   -1.4371    7.1109    2.1717 H   0  0  0  0  0  0  0  0  0  0  0  0
    0.0036    5.2877    1.3491 H   0  0  0  0  0  0  0  0  0  0  0  0
   -1.5613    2.7222    1.2268 H   0  0  0  0  0  0  0  0  0  0  0  0
   -1.8232   -1.9499    2.3373 H   0  0  0  0  0  0  0  0  0  0  0  0
   -0.9805   -3.9162    1.1772 H   0  0  0  0  0  0  0  0  0  0  0  0
   -1.9351    0.2361   -1.3764 H   0  0  0  0  0  0  0  0  0  0  0  0
   -0.5763   -1.9255   -5.4349 H   0  0  0  0  0  0  0  0  0  0  0  0
   -0.7256   -3.6983   -5.4504 H   0  0  0  0  0  0  0  0  0  0  0  0
    0.8521   -2.9465   -5.1286 H   0  0  0  0  0  0  0  0  0  0  0  0
    0.2478   -6.1267   -1.4492 H   0  0  0  0  0  0  0  0  0  0  0  0
   -1.0406   -5.7132   -0.3134 H   0  0  0  0  0  0  0  0  0  0  0  0
    0.6405   -5.1386   -0.0345 H   0  0  0  0  0  0  0  0  0  0  0  0
  1  2  1  0
  2  3  1  0
  3  4  1  0
  4  5  1  0
  5  6  1  0
  6  7  2  0
  6  8  1  0
  8  9  1  0
  9 10  1  0
 10 11  2  0
 11 12  1  0
 12 13  2  0
 13 14  1  0
 14 15  2  0
  8 16  1  0
 16 17  1  0
 17 18  2  0
 17 19  2  0
 17 20  1  0
 20 21  2  0
 21 22  1  0
 22 23  2  0
 23 24  1  0
 24 25  2  0
 24 26  1  0
 26 27  2  0
 26 28  1  0
 28 29  1  0
 28 30  1  0
 30 31  2  0
 30 32  1  0
 32 33  1  0
 15 10  1  0
 25 20  1  0
 32 23  1  0
  1 34  1  0
  1 35  1  0
  1 36  1  0
  2 37  1  0
  2 38  1  0
  3 39  1  0
  3 40  1  0
  4 41  1  0
  4 42  1  0
  5 43  1  0
  8 44  1  0
  9 45  1  0
  9 46  1  0
 11 47  1  0
 12 48  1  0
 13 49  1  0
 14 50  1  0
 15 51  1  0
 16 52  1  0
 21 53  1  0
 22 54  1  0
 25 55  1  0
 29 56  1  0
 29 57  1  0
 29 58  1  0
 33 59  1  0
 33 60  1  0
 33 61  1  0
M  END
$$$$
