
     RDKit          3D

 71 74  0  0  0  0  0  0  0  0999 V2000
    8.3646   -1.5546   -2.1500 C   0  0  0  0  0  0  0  0  0  0  0  0
    7.8808   -2.0653   -0.8016 C   0  0  0  0  0  0  0  0  0  0  0  0
    7.3823   -0.9748    0.0460 N   0  0  0  0  0  0  0  0  0  0  0  0
    8.3789   -0.2702    0.8670 C   0  0  0  0  0  0  0  0  0  0  0  0
    8.6893    1.1160    0.3150 C   0  0  0  0  0  0  0  0  0  0  0  0
    6.0381   -0.6090    0.0476 C   0  0  0  0  0  0  0  0  0  0  0  0
    5.4914    0.2350    1.0320 C   0  0  0  0  0  0  0  0  0  0  0  0
    4.1390    0.6109    1.0388 C   0  0  0  0  0  0  0  0  0  0  0  0
    3.2773    0.1484    0.0502 C   0  0  0  0  0  0  0  0  0  0  0  0
    1.8709    0.5468    0.0550 C   0  0  0  0  0  0  0  0  0  0  0  0
    0.8574   -0.2686    0.3919 C   0  0  0  0  0  0  0  0  0  0  0  0
    0.9745   -1.7121    0.8128 C   0  0  0  0  0  0  0  0  0  0  0  0
   -0.4619   -2.2150    0.9192 C   0  0  0  0  0  0  0  0  0  0  0  0
   -1.2862   -0.9909    0.7030 C   0  0  0  0  0  0  0  0  0  0  0  0
   -2.7529   -1.0979    0.8168 C   0  0  0  0  0  0  0  0  0  0  0  0
   -3.4934   -0.1937    1.3732 N   0  0  0  0  0  0  0  0  0  0  0  0
   -4.8531   -0.3724    1.3766 N   0  0  0  0  0  0  0  0  0  0  0  0
   -5.5877   -0.9438    0.3441 C   0  0  0  0  0  0  0  0  0  0  0  0
   -5.1299   -1.4773   -0.6623 O   0  0  0  0  0  0  0  0  0  0  0  0
   -7.0676   -0.7928    0.5270 C   0  0  0  0  0  0  0  0  0  0  0  0
   -7.7193   -0.8539    1.8189 C   0  0  0  0  0  0  0  0  0  0  0  0
   -9.0435   -0.6805    1.9221 C   0  0  0  0  0  0  0  0  0  0  0  0
   -9.8747   -0.4418    0.7089 C   0  0  0  0  0  0  0  0  0  0  0  0
  -11.0785   -0.2481    0.8410 O   0  0  0  0  0  0  0  0  0  0  0  0
   -9.1902   -0.4639   -0.5057 N   0  0  0  0  0  0  0  0  0  0  0  0
   -9.9305   -0.2603   -1.7411 C   0  0  0  0  0  0  0  0  0  0  0  0
   -7.8142   -0.6287   -0.5779 C   0  0  0  0  0  0  0  0  0  0  0  0
   -0.5591    0.0914    0.3892 C   0  0  0  0  0  0  0  0  0  0  0  0
   -0.9395    1.3824    0.0569 N   0  0  0  0  0  0  0  0  0  0  0  0
   -0.9984    2.3978    1.1349 C   0  0  0  0  0  0  0  0  0  0  0  0
   -0.9348    3.8088    0.5300 C   0  0  0  0  0  0  0  0  0  0  0  0
   -1.9787    4.0270   -0.4344 O   0  0  0  0  0  0  0  0  0  0  0  0
   -1.8865    3.0537   -1.4895 C   0  0  0  0  0  0  0  0  0  0  0  0
   -2.0037    1.6211   -0.9457 C   0  0  0  0  0  0  0  0  0  0  0  0
    3.7844   -0.6844   -0.9426 C   0  0  0  0  0  0  0  0  0  0  0  0
    5.1373   -1.0550   -0.9350 C   0  0  0  0  0  0  0  0  0  0  0  0
    7.5841   -1.0010   -2.6806 H   0  0  0  0  0  0  0  0  0  0  0  0
    8.6758   -2.3935   -2.7798 H   0  0  0  0  0  0  0  0  0  0  0  0
    9.2270   -0.8894   -2.0335 H   0  0  0  0  0  0  0  0  0  0  0  0
    8.7135   -2.5738   -0.2998 H   0  0  0  0  0  0  0  0  0  0  0  0
    7.1247   -2.8484   -0.9376 H   0  0  0  0  0  0  0  0  0  0  0  0
    8.0602   -0.2115    1.9133 H   0  0  0  0  0  0  0  0  0  0  0  0
    9.3165   -0.8400    0.8907 H   0  0  0  0  0  0  0  0  0  0  0  0
    9.0925    1.0544   -0.7009 H   0  0  0  0  0  0  0  0  0  0  0  0
    9.4362    1.6150    0.9415 H   0  0  0  0  0  0  0  0  0  0  0  0
    7.8009    1.7541    0.2782 H   0  0  0  0  0  0  0  0  0  0  0  0
    6.1066    0.6251    1.8372 H   0  0  0  0  0  0  0  0  0  0  0  0
    3.7722    1.2618    1.8286 H   0  0  0  0  0  0  0  0  0  0  0  0
    1.6806    1.5754   -0.2384 H   0  0  0  0  0  0  0  0  0  0  0  0
    1.4784   -1.7913    1.7830 H   0  0  0  0  0  0  0  0  0  0  0  0
    1.5292   -2.3113    0.0826 H   0  0  0  0  0  0  0  0  0  0  0  0
   -0.6713   -2.9685    0.1526 H   0  0  0  0  0  0  0  0  0  0  0  0
   -0.6481   -2.6588    1.9031 H   0  0  0  0  0  0  0  0  0  0  0  0
   -3.1619   -2.0511    0.4405 H   0  0  0  0  0  0  0  0  0  0  0  0
   -5.3302    0.2812    1.9906 H   0  0  0  0  0  0  0  0  0  0  0  0
   -7.1302   -1.0687    2.7046 H   0  0  0  0  0  0  0  0  0  0  0  0
   -9.5716   -0.7213    2.8664 H   0  0  0  0  0  0  0  0  0  0  0  0
  -11.0110   -0.2785   -1.5719 H   0  0  0  0  0  0  0  0  0  0  0  0
   -9.6552    0.7124   -2.1616 H   0  0  0  0  0  0  0  0  0  0  0  0
   -9.6766   -1.0541   -2.4499 H   0  0  0  0  0  0  0  0  0  0  0  0
   -7.3715   -0.6044   -1.5714 H   0  0  0  0  0  0  0  0  0  0  0  0
   -1.9320    2.2738    1.6954 H   0  0  0  0  0  0  0  0  0  0  0  0
   -0.1634    2.2718    1.8331 H   0  0  0  0  0  0  0  0  0  0  0  0
   -1.0523    4.5572    1.3201 H   0  0  0  0  0  0  0  0  0  0  0  0
    0.0339    3.9834    0.0466 H   0  0  0  0  0  0  0  0  0  0  0  0
   -0.9395    3.1973   -2.0232 H   0  0  0  0  0  0  0  0  0  0  0  0
   -2.7020    3.2520   -2.1924 H   0  0  0  0  0  0  0  0  0  0  0  0
   -1.9126    0.9115   -1.7767 H   0  0  0  0  0  0  0  0  0  0  0  0
   -2.9901    1.4986   -0.4871 H   0  0  0  0  0  0  0  0  0  0  0  0
    3.1382   -1.0472   -1.7372 H   0  0  0  0  0  0  0  0  0  0  0  0
    5.4673   -1.6965   -1.7462 H   0  0  0  0  0  0  0  0  0  0  0  0
  1  2  1  0
  2  3  1  0
  3  4  1  0
  4  5  1  0
  3  6  1  0
  6  7  2  0
  7  8  1  0
  8  9  2  0
  9 10  1  0
 10 11  2  3
 11 12  1  0
 12 13  1  0
 13 14  1  0
 14 15  1  0
 15 16  2  3
 16 17  1  0
 17 18  1  0
 18 19  2  0
 18 20  1  0
 20 21  1  0
 21 22  2  0
 22 23  1  0
 23 24  2  0
 23 25  1  0
 25 26  1  0
 25 27  1  0
 14 28  2  0
 28 29  1  0
 29 30  1  0
 30 31  1  0
 31 32  1  0
 32 33  1  0
 33 34  1  0
  9 35  1  0
 35 36  2  0
 36  6  1  0
 28 11  1  0
 34 29  1  0
 27 20  2  0
  1 37  1  0
  1 38  1  0
  1 39  1  0
  2 40  1  0
  2 41  1  0
  4 42  1  0
  4 43  1  0
  5 44  1  0
  5 45  1  0
  5 46  1  0
  7 47  1  0
  8 48  1  0
 10 49  1  0
 12 50  1  0
 12 51  1  0
 13 52  1  0
 13 53  1  0
 15 54  1  0
 17 55  1  0
 21 56  1  0
 22 57  1  0
 26 58  1  0
 26 59  1  0
 26 60  1  0
 27 61  1  0
 30 62  1  0
 30 63  1  0
 31 64  1  0
 31 65  1  0
 33 66  1  0
 33 67  1  0
 34 68  1  0
 34 69  1  0
 35 70  1  0
 36 71  1  0
M  END
$$$$
