
     RDKit          3D

 53 56  0  0  0  0  0  0  0  0999 V2000
    1.2260   -3.0991   -0.0954 O   0  0  0  0  0  0  0  0  0  0  0  0
    1.0529   -2.1321   -0.8379 C   0  0  0  0  0  0  0  0  0  0  0  0
   -0.3269   -1.7899   -1.3735 C   0  0  0  0  0  0  0  0  0  0  0  0
   -1.3813   -2.7400   -0.8131 C   0  0  0  0  0  0  0  0  0  0  0  0
   -3.0463   -2.3564   -1.4534 S   0  0  0  0  0  0  0  0  0  0  0  0
   -3.5581   -1.1773   -0.2343 C   0  0  0  0  0  0  0  0  0  0  0  0
   -4.7064   -1.4181    0.4060 N   0  0  0  0  0  0  0  0  0  0  0  0
   -5.0935   -0.5069    1.3199 C   0  0  0  0  0  0  0  0  0  0  0  0
   -6.3461   -0.8195    1.9947 C   0  0  0  0  0  0  0  0  0  0  0  0
   -7.2418   -1.8690    1.9098 C   0  0  0  0  0  0  0  0  0  0  0  0
   -8.2766   -1.5992    2.8371 C   0  0  0  0  0  0  0  0  0  0  0  0
   -7.9529   -0.4027    3.4313 C   0  0  0  0  0  0  0  0  0  0  0  0
   -6.7863    0.0792    2.9286 O   0  0  0  0  0  0  0  0  0  0  0  0
   -4.3645    0.6303    1.5986 C   0  0  0  0  0  0  0  0  0  0  0  0
   -3.1907    0.8007    0.8895 C   0  0  0  0  0  0  0  0  0  0  0  0
   -2.3486    2.0388    1.1438 C   0  0  0  0  0  0  0  0  0  0  0  0
   -2.0431    2.2010    2.4638 F   0  0  0  0  0  0  0  0  0  0  0  0
   -1.1549    2.0422    0.4837 F   0  0  0  0  0  0  0  0  0  0  0  0
   -2.9853    3.1864    0.7700 F   0  0  0  0  0  0  0  0  0  0  0  0
   -2.7813   -0.1031   -0.0358 N   0  0  0  0  0  0  0  0  0  0  0  0
    2.1052   -1.3165   -1.2479 N   0  0  0  0  0  0  0  0  0  0  0  0
    1.9025    0.0203   -1.8338 C   0  0  0  0  0  0  0  0  0  0  0  0
    3.1293    0.5393   -2.6116 C   0  0  0  0  0  0  0  0  0  0  0  0
    4.3758    0.3997   -1.8332 N   0  0  0  0  0  0  0  0  0  0  0  0
    4.7823    1.4011   -0.9465 C   0  0  0  0  0  0  0  0  0  0  0  0
    6.0623    1.3577   -0.3636 C   0  0  0  0  0  0  0  0  0  0  0  0
    6.5137    2.3417    0.5244 C   0  0  0  0  0  0  0  0  0  0  0  0
    5.6951    3.4156    0.8451 C   0  0  0  0  0  0  0  0  0  0  0  0
    4.4361    3.5065    0.2651 C   0  0  0  0  0  0  0  0  0  0  0  0
    3.9941    2.5168   -0.6240 C   0  0  0  0  0  0  0  0  0  0  0  0
    4.5928   -1.0056   -1.4118 C   0  0  0  0  0  0  0  0  0  0  0  0
    3.4022   -1.5174   -0.5818 C   0  0  0  0  0  0  0  0  0  0  0  0
   -0.2968   -1.8656   -2.4669 H   0  0  0  0  0  0  0  0  0  0  0  0
   -0.5541   -0.7590   -1.0886 H   0  0  0  0  0  0  0  0  0  0  0  0
   -1.1501   -3.7670   -1.1187 H   0  0  0  0  0  0  0  0  0  0  0  0
   -1.3886   -2.7317    0.2832 H   0  0  0  0  0  0  0  0  0  0  0  0
   -7.1471   -2.7233    1.2528 H   0  0  0  0  0  0  0  0  0  0  0  0
   -9.1490   -2.2025    3.0464 H   0  0  0  0  0  0  0  0  0  0  0  0
   -8.4232    0.2078    4.1897 H   0  0  0  0  0  0  0  0  0  0  0  0
   -4.6932    1.3536    2.3366 H   0  0  0  0  0  0  0  0  0  0  0  0
    1.0433    0.0088   -2.5103 H   0  0  0  0  0  0  0  0  0  0  0  0
    1.6554    0.6902   -1.0026 H   0  0  0  0  0  0  0  0  0  0  0  0
    3.2394   -0.0664   -3.5211 H   0  0  0  0  0  0  0  0  0  0  0  0
    2.9724    1.5650   -2.9636 H   0  0  0  0  0  0  0  0  0  0  0  0
    6.7553    0.5621   -0.6236 H   0  0  0  0  0  0  0  0  0  0  0  0
    7.5105    2.2686    0.9512 H   0  0  0  0  0  0  0  0  0  0  0  0
    6.0405    4.1833    1.5315 H   0  0  0  0  0  0  0  0  0  0  0  0
    3.7909    4.3493    0.4981 H   0  0  0  0  0  0  0  0  0  0  0  0
    3.0025    2.6481   -1.0434 H   0  0  0  0  0  0  0  0  0  0  0  0
    4.6828   -1.6184   -2.3183 H   0  0  0  0  0  0  0  0  0  0  0  0
    5.5225   -1.1565   -0.8550 H   0  0  0  0  0  0  0  0  0  0  0  0
    3.3524   -0.9894    0.3784 H   0  0  0  0  0  0  0  0  0  0  0  0
    3.5487   -2.5811   -0.3646 H   0  0  0  0  0  0  0  0  0  0  0  0
  1  2  2  0
  2  3  1  0
  3  4  1  0
  4  5  1  0
  5  6  1  0
  6  7  2  0
  7  8  1  0
  8  9  1  0
  9 10  2  0
 10 11  1  0
 11 12  2  0
 12 13  1  0
  8 14  2  0
 14 15  1  0
 15 16  1  0
 16 17  1  0
 16 18  1  0
 16 19  1  0
 15 20  2  0
  2 21  1  0
 21 22  1  0
 22 23  1  0
 23 24  1  0
 24 25  1  0
 25 26  2  0
 26 27  1  0
 27 28  2  0
 28 29  1  0
 29 30  2  0
 24 31  1  0
 31 32  1  0
 20  6  1  0
 32 21  1  0
 13  9  1  0
 30 25  1  0
  3 33  1  0
  3 34  1  0
  4 35  1  0
  4 36  1  0
 10 37  1  0
 11 38  1  0
 12 39  1  0
 14 40  1  0
 22 41  1  0
 22 42  1  0
 23 43  1  0
 23 44  1  0
 26 45  1  0
 27 46  1  0
 28 47  1  0
 29 48  1  0
 30 49  1  0
 31 50  1  0
 31 51  1  0
 32 52  1  0
 32 53  1  0
M  END
$$$$
