
     RDKit          3D

 31 33  0  0  0  0  0  0  0  0999 V2000
   -4.0900    0.6901    0.7018 O   0  0  0  0  0  0  0  0  0  0  0  0
   -3.2241    0.4658   -0.1294 C   0  0  0  0  0  0  0  0  0  0  0  0
   -3.0734    1.2934   -1.1881 O   0  0  0  0  0  0  0  0  0  0  0  0
   -2.2282   -0.6911   -0.1084 C   0  0  0  0  0  0  0  0  0  0  0  0
   -2.2255   -1.4571   -1.4171 C   0  0  0  0  0  0  0  0  0  0  0  0
   -1.2295   -2.5582   -1.7010 C   0  0  0  0  0  0  0  0  0  0  0  0
   -0.9593   -1.1383   -2.1345 C   0  0  0  0  0  0  0  0  0  0  0  0
   -0.1673   -0.1879   -1.2857 C   0  0  0  0  0  0  0  0  0  0  0  0
   -0.7938   -0.2782    0.0567 N   0  0  0  0  0  0  0  0  0  0  0  0
   -0.4927    0.9585    1.1560 S   0  0  0  0  0  6  0  0  0  0  0  0
   -1.1200    0.6011    2.4088 O   0  0  0  0  0  0  0  0  0  0  0  0
   -0.7701    2.2230    0.5096 O   0  0  0  0  0  0  0  0  0  0  0  0
    1.2642    0.8294    1.3918 C   0  0  0  0  0  0  0  0  0  0  0  0
    1.7732   -0.2595    2.1078 C   0  0  0  0  0  0  0  0  0  0  0  0
    3.1508   -0.3703    2.3029 C   0  0  0  0  0  0  0  0  0  0  0  0
    4.0033    0.6079    1.7882 C   0  0  0  0  0  0  0  0  0  0  0  0
    5.8691    0.4553    2.0526 Br  0  0  0  0  0  0  0  0  0  0  0  0
    3.4931    1.6994    1.0824 C   0  0  0  0  0  0  0  0  0  0  0  0
    2.1158    1.8153    0.8842 C   0  0  0  0  0  0  0  0  0  0  0  0
   -3.6757    2.0412   -0.9888 H   0  0  0  0  0  0  0  0  0  0  0  0
   -2.5013   -1.3720    0.7052 H   0  0  0  0  0  0  0  0  0  0  0  0
   -3.1673   -1.4617   -1.9469 H   0  0  0  0  0  0  0  0  0  0  0  0
   -1.4803   -3.2825   -2.4677 H   0  0  0  0  0  0  0  0  0  0  0  0
   -0.6588   -2.9679   -0.8749 H   0  0  0  0  0  0  0  0  0  0  0  0
   -0.9814   -0.8876   -3.1846 H   0  0  0  0  0  0  0  0  0  0  0  0
    0.8804   -0.4972   -1.2427 H   0  0  0  0  0  0  0  0  0  0  0  0
   -0.2408    0.8247   -1.6936 H   0  0  0  0  0  0  0  0  0  0  0  0
    1.1036   -1.0157    2.5130 H   0  0  0  0  0  0  0  0  0  0  0  0
    3.5480   -1.2160    2.8588 H   0  0  0  0  0  0  0  0  0  0  0  0
    4.1582    2.4646    0.6895 H   0  0  0  0  0  0  0  0  0  0  0  0
    1.7199    2.6713    0.3419 H   0  0  0  0  0  0  0  0  0  0  0  0
  1  2  2  0
  2  3  1  0
  2  4  1  0
  4  5  1  0
  5  6  1  0
  6  7  1  0
  7  8  1  0
  8  9  1  0
  9 10  1  0
 10 11  2  0
 10 12  2  0
 10 13  1  0
 13 14  2  0
 14 15  1  0
 15 16  2  0
 16 17  1  0
 16 18  1  0
 18 19  2  0
  9  4  1  0
 19 13  1  0
  7  5  1  0
  3 20  1  0
  4 21  1  0
  5 22  1  0
  6 23  1  0
  6 24  1  0
  7 25  1  0
  8 26  1  0
  8 27  1  0
 14 28  1  0
 15 29  1  0
 18 30  1  0
 19 31  1  0
M  END
$$$$
