
     RDKit          3D

 31 31  0  0  0  0  0  0  0  0999 V2000
    5.1322    0.2810   -0.9089 N   0  0  0  0  0  0  0  0  0  0  0  0
    3.9898    0.1589   -0.1810 C   0  0  0  0  0  0  0  0  0  0  0  0
    3.9772    0.5685    1.4330 S   0  0  0  0  0  0  0  0  0  0  0  0
    2.9312   -0.3297   -0.9075 N   0  0  0  0  0  0  0  0  0  0  0  0
    1.6360   -0.3092   -0.3554 N   0  0  0  0  0  0  0  0  0  0  0  0
    0.6148    0.1379   -1.1683 C   0  0  0  0  0  0  0  0  0  0  0  0
    0.7723    0.3318   -2.3737 O   0  0  0  0  0  0  0  0  0  0  0  0
   -0.7280    0.3626   -0.4830 C   0  0  0  0  0  0  0  0  0  0  0  0
   -0.6345    1.4847    0.5602 C   0  0  0  0  0  0  0  0  0  0  0  0
   -1.9724    1.7109    1.2597 C   0  0  0  0  0  0  0  0  0  0  0  0
   -2.4999    0.4237    1.8864 C   0  0  0  0  0  0  0  0  0  0  0  0
   -2.6046   -0.6993    0.8581 C   0  0  0  0  0  0  0  0  0  0  0  0
   -1.2702   -0.9346    0.1398 C   0  0  0  0  0  0  0  0  0  0  0  0
   -1.4225   -2.0162   -0.9050 C   0  0  0  0  0  0  0  0  0  0  0  0
   -0.8674   -3.1021   -0.8853 O   0  0  0  0  0  0  0  0  0  0  0  0
   -2.2545   -1.6866   -1.9076 O   0  0  0  0  0  0  0  0  0  0  0  0
    5.9752    0.5157   -0.3968 H   0  0  0  0  0  0  0  0  0  0  0  0
    5.2617   -0.2929   -1.7315 H   0  0  0  0  0  0  0  0  0  0  0  0
    2.9440   -0.1916   -1.9191 H   0  0  0  0  0  0  0  0  0  0  0  0
    1.5941   -0.2276    0.6582 H   0  0  0  0  0  0  0  0  0  0  0  0
   -1.4188    0.6982   -1.2698 H   0  0  0  0  0  0  0  0  0  0  0  0
   -0.3098    2.4148    0.0780 H   0  0  0  0  0  0  0  0  0  0  0  0
    0.1236    1.2502    1.3171 H   0  0  0  0  0  0  0  0  0  0  0  0
   -2.7035    2.0934    0.5369 H   0  0  0  0  0  0  0  0  0  0  0  0
   -1.8577    2.4775    2.0343 H   0  0  0  0  0  0  0  0  0  0  0  0
   -1.8332    0.1129    2.7001 H   0  0  0  0  0  0  0  0  0  0  0  0
   -3.4839    0.6074    2.3323 H   0  0  0  0  0  0  0  0  0  0  0  0
   -3.3886   -0.4477    0.1322 H   0  0  0  0  0  0  0  0  0  0  0  0
   -2.9297   -1.6223    1.3535 H   0  0  0  0  0  0  0  0  0  0  0  0
   -0.5512   -1.3147    0.8784 H   0  0  0  0  0  0  0  0  0  0  0  0
   -2.2216   -2.4555   -2.5156 H   0  0  0  0  0  0  0  0  0  0  0  0
  1  2  1  0
  2  3  2  0
  2  4  1  0
  4  5  1  0
  5  6  1  0
  6  7  2  0
  6  8  1  0
  8  9  1  0
  9 10  1  0
 10 11  1  0
 11 12  1  0
 12 13  1  0
 13 14  1  0
 14 15  2  0
 14 16  1  0
 13  8  1  0
  1 17  1  0
  1 18  1  0
  4 19  1  0
  5 20  1  0
  8 21  1  0
  9 22  1  0
  9 23  1  0
 10 24  1  0
 10 25  1  0
 11 26  1  0
 11 27  1  0
 12 28  1  0
 12 29  1  0
 13 30  1  0
 16 31  1  0
M  END
$$$$
