
     RDKit          3D

 42 44  0  0  0  0  0  0  0  0999 V2000
   -3.9733   -0.5588    1.3050 C   0  0  0  0  0  0  0  0  0  0  0  0
   -4.7188   -0.8132    0.0187 C   0  0  0  0  0  0  0  0  0  0  0  0
   -6.1070   -1.0266    0.0497 C   0  0  0  0  0  0  0  0  0  0  0  0
   -6.8165   -1.2881   -1.1242 C   0  0  0  0  0  0  0  0  0  0  0  0
   -6.1451   -1.3431   -2.3393 C   0  0  0  0  0  0  0  0  0  0  0  0
   -4.7619   -1.1421   -2.3850 C   0  0  0  0  0  0  0  0  0  0  0  0
   -4.0446   -0.8781   -1.2127 C   0  0  0  0  0  0  0  0  0  0  0  0
   -2.6845   -0.7196   -1.1675 O   0  0  0  0  0  0  0  0  0  0  0  0
   -2.0790   -0.2035   -2.3542 C   0  0  0  0  0  0  0  0  0  0  0  0
   -0.6566    0.2144   -1.9997 C   0  0  0  0  0  0  0  0  0  0  0  0
   -0.1927    1.3160   -2.2782 O   0  0  0  0  0  0  0  0  0  0  0  0
    0.0689   -0.7756   -1.3716 N   0  0  0  0  0  0  0  0  0  0  0  0
    1.4215   -0.5557   -0.9008 C   0  0  0  0  0  0  0  0  0  0  0  0
    1.4454    0.0884    0.4848 C   0  0  0  0  0  0  0  0  0  0  0  0
    2.8388    0.3923    0.9068 C   0  0  0  0  0  0  0  0  0  0  0  0
    3.8077   -0.4827    1.1028 N   0  0  0  0  0  0  0  0  0  0  0  0
    4.9104    0.2641    1.4461 C   0  0  0  0  0  0  0  0  0  0  0  0
    6.2229   -0.1481    1.7066 C   0  0  0  0  0  0  0  0  0  0  0  0
    7.1817    0.8260    2.0194 C   0  0  0  0  0  0  0  0  0  0  0  0
    6.8356    2.1780    2.0845 C   0  0  0  0  0  0  0  0  0  0  0  0
    5.5294    2.6072    1.8260 C   0  0  0  0  0  0  0  0  0  0  0  0
    4.6007    1.6184    1.4934 C   0  0  0  0  0  0  0  0  0  0  0  0
    3.2710    1.6704    1.1607 N   0  0  0  0  0  0  0  0  0  0  0  0
   -3.5123   -1.4829    1.6664 H   0  0  0  0  0  0  0  0  0  0  0  0
   -3.1863    0.1937    1.1603 H   0  0  0  0  0  0  0  0  0  0  0  0
   -4.6431   -0.1661    2.0796 H   0  0  0  0  0  0  0  0  0  0  0  0
   -6.6446   -0.9893    0.9919 H   0  0  0  0  0  0  0  0  0  0  0  0
   -7.8922   -1.4461   -1.0888 H   0  0  0  0  0  0  0  0  0  0  0  0
   -6.6979   -1.5481   -3.2513 H   0  0  0  0  0  0  0  0  0  0  0  0
   -4.2681   -1.2240   -3.3456 H   0  0  0  0  0  0  0  0  0  0  0  0
   -2.0151   -0.9852   -3.1154 H   0  0  0  0  0  0  0  0  0  0  0  0
   -2.6190    0.6720   -2.7368 H   0  0  0  0  0  0  0  0  0  0  0  0
   -0.4311   -1.6021   -1.0599 H   0  0  0  0  0  0  0  0  0  0  0  0
    1.9159   -1.5305   -0.8884 H   0  0  0  0  0  0  0  0  0  0  0  0
    1.9496    0.0702   -1.6273 H   0  0  0  0  0  0  0  0  0  0  0  0
    0.9897   -0.5983    1.2137 H   0  0  0  0  0  0  0  0  0  0  0  0
    0.8393    1.0033    0.4845 H   0  0  0  0  0  0  0  0  0  0  0  0
    6.4819   -1.2015    1.6610 H   0  0  0  0  0  0  0  0  0  0  0  0
    8.2069    0.5197    2.2202 H   0  0  0  0  0  0  0  0  0  0  0  0
    7.5990    2.9105    2.3333 H   0  0  0  0  0  0  0  0  0  0  0  0
    5.2638    3.6570    1.8640 H   0  0  0  0  0  0  0  0  0  0  0  0
    2.7096    2.5079    1.0924 H   0  0  0  0  0  0  0  0  0  0  0  0
  1  2  1  0
  2  3  2  0
  3  4  1  0
  4  5  2  0
  5  6  1  0
  6  7  2  0
  7  8  1  0
  8  9  1  0
  9 10  1  0
 10 11  2  0
 10 12  1  0
 12 13  1  0
 13 14  1  0
 14 15  1  0
 15 16  2  0
 16 17  1  0
 17 18  2  0
 18 19  1  0
 19 20  2  0
 20 21  1  0
 21 22  2  0
 22 23  1  0
  7  2  1  0
 23 15  1  0
 22 17  1  0
  1 24  1  0
  1 25  1  0
  1 26  1  0
  3 27  1  0
  4 28  1  0
  5 29  1  0
  6 30  1  0
  9 31  1  0
  9 32  1  0
 12 33  1  0
 13 34  1  0
 13 35  1  0
 14 36  1  0
 14 37  1  0
 18 38  1  0
 19 39  1  0
 20 40  1  0
 21 41  1  0
 23 42  1  0
M  END
$$$$
