
     RDKit          3D

 58 61  0  0  0  0  0  0  0  0999 V2000
    1.8822    0.9244   -2.1500 O   0  0  0  0  0  0  0  0  0  0  0  0
    1.9787    0.9628   -0.9255 C   0  0  0  0  0  0  0  0  0  0  0  0
    3.1857    0.4853   -0.1410 C   0  0  0  0  0  0  0  0  0  0  0  0
    4.3173    0.0237   -1.0620 C   0  0  0  0  0  0  0  0  0  0  0  0
    5.6017   -0.4458   -0.3533 C   0  0  0  0  0  0  0  0  0  0  0  0
    6.3801    0.7176    0.2912 C   0  0  0  0  0  0  0  0  0  0  0  0
    7.3432    0.2697    1.3957 C   0  0  0  0  0  0  0  0  0  0  0  0
    7.8317   -1.1574    1.1898 C   0  0  0  0  0  0  0  0  0  0  0  0
    6.6756   -2.1590    1.1745 C   0  0  0  0  0  0  0  0  0  0  0  0
    5.3589   -1.5670    0.6622 C   0  0  0  0  0  0  0  0  0  0  0  0
    0.9694    1.4546   -0.1152 N   0  0  0  0  0  0  0  0  0  0  0  0
   -0.2926    1.6382   -0.7369 N   0  0  0  0  0  0  0  0  0  0  0  0
   -1.3572    1.0093   -0.1144 C   0  0  0  0  0  0  0  0  0  0  0  0
   -1.2615    0.4909    0.9922 O   0  0  0  0  0  0  0  0  0  0  0  0
   -2.4902    1.0573   -0.8870 N   0  0  0  0  0  0  0  0  0  0  0  0
   -3.7968    0.5412   -0.4651 C   0  0  0  0  0  0  0  0  0  0  0  0
   -4.3426    1.3078    0.7644 C   0  0  0  0  0  0  0  0  0  0  0  0
   -5.7388    0.7880    1.1494 C   0  0  0  0  0  0  0  0  0  0  0  0
   -6.7010    0.9925   -0.0318 C   0  0  0  0  0  0  0  0  0  0  0  0
   -6.1950    0.2222   -1.2616 C   0  0  0  0  0  0  0  0  0  0  0  0
   -6.1088   -1.2741   -0.9247 C   0  0  0  0  0  0  0  0  0  0  0  0
   -5.1425   -1.4915    0.2497 C   0  0  0  0  0  0  0  0  0  0  0  0
   -5.6489   -0.7124    1.4756 C   0  0  0  0  0  0  0  0  0  0  0  0
   -3.7460   -0.9733   -0.1374 C   0  0  0  0  0  0  0  0  0  0  0  0
   -4.7962    0.7357   -1.6376 C   0  0  0  0  0  0  0  0  0  0  0  0
    2.8556   -0.3405    0.4987 H   0  0  0  0  0  0  0  0  0  0  0  0
    3.5166    1.3080    0.5005 H   0  0  0  0  0  0  0  0  0  0  0  0
    3.9450   -0.8013   -1.6845 H   0  0  0  0  0  0  0  0  0  0  0  0
    4.5734    0.8325   -1.7590 H   0  0  0  0  0  0  0  0  0  0  0  0
    6.2449   -0.8606   -1.1438 H   0  0  0  0  0  0  0  0  0  0  0  0
    5.7063    1.4709    0.7137 H   0  0  0  0  0  0  0  0  0  0  0  0
    6.9462    1.2322   -0.4963 H   0  0  0  0  0  0  0  0  0  0  0  0
    8.1934    0.9592    1.4427 H   0  0  0  0  0  0  0  0  0  0  0  0
    6.8349    0.3364    2.3660 H   0  0  0  0  0  0  0  0  0  0  0  0
    8.3771   -1.2163    0.2394 H   0  0  0  0  0  0  0  0  0  0  0  0
    8.5452   -1.4325    1.9748 H   0  0  0  0  0  0  0  0  0  0  0  0
    6.9629   -3.0168    0.5539 H   0  0  0  0  0  0  0  0  0  0  0  0
    6.5133   -2.5549    2.1846 H   0  0  0  0  0  0  0  0  0  0  0  0
    4.7958   -1.1755    1.5185 H   0  0  0  0  0  0  0  0  0  0  0  0
    4.7490   -2.3657    0.2243 H   0  0  0  0  0  0  0  0  0  0  0  0
    0.9076    1.1316    0.8518 H   0  0  0  0  0  0  0  0  0  0  0  0
   -0.2504    1.5302   -1.7503 H   0  0  0  0  0  0  0  0  0  0  0  0
   -2.5068    1.8430   -1.5230 H   0  0  0  0  0  0  0  0  0  0  0  0
   -3.6688    1.1986    1.6226 H   0  0  0  0  0  0  0  0  0  0  0  0
   -4.3917    2.3828    0.5476 H   0  0  0  0  0  0  0  0  0  0  0  0
   -6.1071    1.3348    2.0246 H   0  0  0  0  0  0  0  0  0  0  0  0
   -7.7061    0.6466    0.2388 H   0  0  0  0  0  0  0  0  0  0  0  0
   -6.7848    2.0606   -0.2666 H   0  0  0  0  0  0  0  0  0  0  0  0
   -6.8826    0.3732   -2.1012 H   0  0  0  0  0  0  0  0  0  0  0  0
   -7.1033   -1.6590   -0.6680 H   0  0  0  0  0  0  0  0  0  0  0  0
   -5.7661   -1.8370   -1.8016 H   0  0  0  0  0  0  0  0  0  0  0  0
   -5.0863   -2.5595    0.4881 H   0  0  0  0  0  0  0  0  0  0  0  0
   -6.6341   -1.0886    1.7767 H   0  0  0  0  0  0  0  0  0  0  0  0
   -4.9743   -0.8710    2.3259 H   0  0  0  0  0  0  0  0  0  0  0  0
   -3.0546   -1.1764    0.6881 H   0  0  0  0  0  0  0  0  0  0  0  0
   -3.3654   -1.5334   -1.0016 H   0  0  0  0  0  0  0  0  0  0  0  0
   -4.8561    1.7978   -1.9108 H   0  0  0  0  0  0  0  0  0  0  0  0
   -4.4353    0.2101   -2.5319 H   0  0  0  0  0  0  0  0  0  0  0  0
  1  2  2  0
  2  3  1  0
  3  4  1  0
  4  5  1  0
  5  6  1  0
  6  7  1  0
  7  8  1  0
  8  9  1  0
  9 10  1  0
  2 11  1  0
 11 12  1  0
 12 13  1  0
 13 14  2  0
 13 15  1  0
 15 16  1  0
 16 17  1  0
 17 18  1  0
 18 19  1  0
 19 20  1  0
 20 21  1  0
 21 22  1  0
 22 23  1  0
 22 24  1  0
 20 25  1  0
 10  5  1  0
 24 16  1  0
 25 16  1  0
 23 18  1  0
  3 26  1  0
  3 27  1  0
  4 28  1  0
  4 29  1  0
  5 30  1  0
  6 31  1  0
  6 32  1  0
  7 33  1  0
  7 34  1  0
  8 35  1  0
  8 36  1  0
  9 37  1  0
  9 38  1  0
 10 39  1  0
 10 40  1  0
 11 41  1  0
 12 42  1  0
 15 43  1  0
 17 44  1  0
 17 45  1  0
 18 46  1  0
 19 47  1  0
 19 48  1  0
 20 49  1  0
 21 50  1  0
 21 51  1  0
 22 52  1  0
 23 53  1  0
 23 54  1  0
 24 55  1  0
 24 56  1  0
 25 57  1  0
 25 58  1  0
M  END
$$$$
