
     RDKit          3D

 27 28  0  0  0  0  0  0  0  0999 V2000
    3.2092    1.6819   -0.2373 C   0  0  0  0  0  0  0  0  0  0  0  0
    2.5954    0.3189   -0.1066 C   0  0  0  0  0  0  0  0  0  0  0  0
    3.3908   -0.8271   -0.1919 C   0  0  0  0  0  0  0  0  0  0  0  0
    2.8208   -2.0877   -0.0327 C   0  0  0  0  0  0  0  0  0  0  0  0
    1.4535   -2.2093    0.2224 C   0  0  0  0  0  0  0  0  0  0  0  0
    0.6342   -1.0769    0.3325 C   0  0  0  0  0  0  0  0  0  0  0  0
   -0.7454   -1.2707    0.5539 N   0  0  0  0  0  0  0  0  0  0  0  0
   -1.7884   -0.3880    0.3556 C   0  0  0  0  0  0  0  0  0  0  0  0
   -2.8874   -0.4260    1.1263 C   0  0  0  0  0  0  0  0  0  0  0  0
   -4.0018    0.5074    0.8829 C   0  0  0  0  0  0  0  0  0  0  0  0
   -5.0150    0.4686    1.5715 O   0  0  0  0  0  0  0  0  0  0  0  0
   -3.8327    1.3904   -0.1390 N   0  0  0  0  0  0  0  0  0  0  0  0
   -2.7547    1.4054   -0.9699 C   0  0  0  0  0  0  0  0  0  0  0  0
   -2.6789    2.1715   -1.9248 O   0  0  0  0  0  0  0  0  0  0  0  0
   -1.7680    0.5120   -0.6775 N   0  0  0  0  0  0  0  0  0  0  0  0
    1.2240    0.1831    0.1640 C   0  0  0  0  0  0  0  0  0  0  0  0
    4.0900    1.6540   -0.8874 H   0  0  0  0  0  0  0  0  0  0  0  0
    2.4999    2.3875   -0.6827 H   0  0  0  0  0  0  0  0  0  0  0  0
    3.5085    2.0533    0.7475 H   0  0  0  0  0  0  0  0  0  0  0  0
    4.4582   -0.7441   -0.3839 H   0  0  0  0  0  0  0  0  0  0  0  0
    3.4400   -2.9776   -0.1110 H   0  0  0  0  0  0  0  0  0  0  0  0
    1.0272   -3.2045    0.3237 H   0  0  0  0  0  0  0  0  0  0  0  0
   -0.9261   -2.0114    1.2257 H   0  0  0  0  0  0  0  0  0  0  0  0
   -3.0140   -1.1150    1.9504 H   0  0  0  0  0  0  0  0  0  0  0  0
   -4.5861    2.0273   -0.3434 H   0  0  0  0  0  0  0  0  0  0  0  0
   -0.9810    0.4917   -1.3135 H   0  0  0  0  0  0  0  0  0  0  0  0
    0.6279    1.0852    0.2777 H   0  0  0  0  0  0  0  0  0  0  0  0
  1  2  1  0
  2  3  2  0
  3  4  1  0
  4  5  2  0
  5  6  1  0
  6  7  1  0
  7  8  1  0
  8  9  2  0
  9 10  1  0
 10 11  2  0
 10 12  1  0
 12 13  1  0
 13 14  2  0
 13 15  1  0
  6 16  2  0
 16  2  1  0
 15  8  1  0
  1 17  1  0
  1 18  1  0
  1 19  1  0
  3 20  1  0
  4 21  1  0
  5 22  1  0
  7 23  1  0
  9 24  1  0
 12 25  1  0
 15 26  1  0
 16 27  1  0
M  END
$$$$
