
     RDKit          3D

 40 43  0  0  0  0  0  0  0  0999 V2000
   -1.9768    3.8825   -2.6886 C   0  0  0  0  0  0  0  0  0  0  0  0
   -1.1679    3.0204   -2.0575 C   0  0  0  0  0  0  0  0  0  0  0  0
   -1.1146    2.8447   -0.5629 C   0  0  0  0  0  0  0  0  0  0  0  0
   -1.7511    1.5766   -0.2057 N   0  0  0  0  0  0  0  0  0  0  0  0
   -1.0898    0.3580   -0.1766 C   0  0  0  0  0  0  0  0  0  0  0  0
    0.6216    0.3232   -0.5663 S   0  0  0  0  0  0  0  0  0  0  0  0
    1.1198   -1.1750    0.3321 C   0  0  0  0  0  0  0  0  0  0  0  0
    2.6288   -1.2954    0.3214 C   0  0  0  0  0  0  0  0  0  0  0  0
    3.2458   -2.0945   -0.5660 C   0  0  0  0  0  0  0  0  0  0  0  0
    4.7200   -2.2021   -0.5493 C   0  0  0  0  0  0  0  0  0  0  0  0
    5.2903   -2.9251   -1.3608 O   0  0  0  0  0  0  0  0  0  0  0  0
    5.3313   -1.4502    0.4214 N   0  0  0  0  0  0  0  0  0  0  0  0
    6.6920   -1.3883    0.6311 C   0  0  0  0  0  0  0  0  0  0  0  0
    7.0477   -0.5908    1.6447 C   0  0  0  0  0  0  0  0  0  0  0  0
    5.6573    0.1372    2.4044 S   0  0  0  0  0  0  0  0  0  0  0  0
    4.5823   -0.6844    1.2842 C   0  0  0  0  0  0  0  0  0  0  0  0
    3.2983   -0.5746    1.2910 N   0  0  0  0  0  0  0  0  0  0  0  0
   -1.6534   -0.7698    0.1099 N   0  0  0  0  0  0  0  0  0  0  0  0
   -3.0156   -0.7807    0.4168 C   0  0  0  0  0  0  0  0  0  0  0  0
   -3.6310   -1.9984    0.7168 C   0  0  0  0  0  0  0  0  0  0  0  0
   -4.9905   -2.0492    1.0377 C   0  0  0  0  0  0  0  0  0  0  0  0
   -5.7466   -0.8790    1.0610 C   0  0  0  0  0  0  0  0  0  0  0  0
   -5.1430    0.3406    0.7597 C   0  0  0  0  0  0  0  0  0  0  0  0
   -3.7803    0.3791    0.4385 C   0  0  0  0  0  0  0  0  0  0  0  0
   -3.1078    1.6477    0.1136 C   0  0  0  0  0  0  0  0  0  0  0  0
   -3.7635    2.6871    0.1482 O   0  0  0  0  0  0  0  0  0  0  0  0
   -2.6770    4.5079   -2.1408 H   0  0  0  0  0  0  0  0  0  0  0  0
   -1.9679    3.9668   -3.7713 H   0  0  0  0  0  0  0  0  0  0  0  0
   -0.4898    2.4128   -2.6516 H   0  0  0  0  0  0  0  0  0  0  0  0
   -1.6237    3.6766   -0.0604 H   0  0  0  0  0  0  0  0  0  0  0  0
   -0.0771    2.8810   -0.2191 H   0  0  0  0  0  0  0  0  0  0  0  0
    0.7639   -1.1312    1.3678 H   0  0  0  0  0  0  0  0  0  0  0  0
    0.6617   -2.0511   -0.1403 H   0  0  0  0  0  0  0  0  0  0  0  0
    2.7214   -2.6662   -1.3207 H   0  0  0  0  0  0  0  0  0  0  0  0
    7.3603   -1.9574   -0.0026 H   0  0  0  0  0  0  0  0  0  0  0  0
    8.0604   -0.4023    1.9733 H   0  0  0  0  0  0  0  0  0  0  0  0
   -3.0449   -2.9131    0.7012 H   0  0  0  0  0  0  0  0  0  0  0  0
   -5.4568   -3.0029    1.2710 H   0  0  0  0  0  0  0  0  0  0  0  0
   -6.8040   -0.9162    1.3122 H   0  0  0  0  0  0  0  0  0  0  0  0
   -5.7299    1.2555    0.7762 H   0  0  0  0  0  0  0  0  0  0  0  0
  1  2  2  0
  2  3  1  0
  3  4  1  0
  4  5  1  0
  5  6  1  0
  6  7  1  0
  7  8  1  0
  8  9  2  0
  9 10  1  0
 10 11  2  0
 10 12  1  0
 12 13  1  0
 13 14  2  0
 14 15  1  0
 15 16  1  0
 16 17  2  0
  5 18  2  0
 18 19  1  0
 19 20  2  0
 20 21  1  0
 21 22  2  0
 22 23  1  0
 23 24  2  0
 24 25  1  0
 25 26  2  0
 25  4  1  0
 17  8  1  0
 24 19  1  0
 16 12  1  0
  1 27  1  0
  1 28  1  0
  2 29  1  0
  3 30  1  0
  3 31  1  0
  7 32  1  0
  7 33  1  0
  9 34  1  0
 13 35  1  0
 14 36  1  0
 20 37  1  0
 21 38  1  0
 22 39  1  0
 23 40  1  0
M  END
$$$$
