
     RDKit          3D

 48 50  0  0  0  0  0  0  0  0999 V2000
   -0.4517   -1.6185    1.7624 C   0  0  0  0  0  0  0  0  0  0  0  0
   -0.1233   -0.9203    0.6657 C   0  0  0  0  0  0  0  0  0  0  0  0
    1.2420   -0.7629    0.1114 C   0  0  0  0  0  0  0  0  0  0  0  0
    2.3796   -1.2415    0.6461 C   0  0  0  0  0  0  0  0  0  0  0  0
    3.6628   -1.0747    0.0533 C   0  0  0  0  0  0  0  0  0  0  0  0
    4.9340   -0.3548    0.9720 S   0  0  0  0  0  0  0  0  0  0  0  0
    5.9884   -0.5154   -0.3498 C   0  0  0  0  0  0  0  0  0  0  0  0
    7.2915   -0.0900   -0.3321 N   0  0  0  0  0  0  0  0  0  0  0  0
    7.9488    0.5396    0.6985 C   0  0  0  0  0  0  0  0  0  0  0  0
    9.3747    0.8759    0.3369 C   0  0  0  0  0  0  0  0  0  0  0  0
    7.4977    0.8486    1.7951 O   0  0  0  0  0  0  0  0  0  0  0  0
    5.4908   -1.0884   -1.4171 N   0  0  0  0  0  0  0  0  0  0  0  0
    4.1778   -1.4221   -1.1889 C   0  0  0  0  0  0  0  0  0  0  0  0
    3.4559   -2.0582   -2.1310 O   0  0  0  0  0  0  0  0  0  0  0  0
    1.1224    0.0350   -1.1069 C   0  0  0  0  0  0  0  0  0  0  0  0
   -0.1845    0.3192   -1.2740 C   0  0  0  0  0  0  0  0  0  0  0  0
   -0.7330    1.1873   -2.3565 C   0  0  0  0  0  0  0  0  0  0  0  0
   -0.9600   -0.2414   -0.2368 N   0  0  0  0  0  0  0  0  0  0  0  0
   -2.3479   -0.0160   -0.0628 C   0  0  0  0  0  0  0  0  0  0  0  0
   -2.8431    0.5946    1.0966 C   0  0  0  0  0  0  0  0  0  0  0  0
   -4.2140    0.8261    1.2591 C   0  0  0  0  0  0  0  0  0  0  0  0
   -5.1251    0.4489    0.2661 C   0  0  0  0  0  0  0  0  0  0  0  0
   -6.4878    0.7213    0.5041 N   0  0  0  0  0  0  0  0  0  0  0  0
   -7.5606    0.4342   -0.3207 C   0  0  0  0  0  0  0  0  0  0  0  0
   -8.8710    0.8832    0.2770 C   0  0  0  0  0  0  0  0  0  0  0  0
   -7.5285   -0.1349   -1.4057 O   0  0  0  0  0  0  0  0  0  0  0  0
   -4.6407   -0.1631   -0.8889 C   0  0  0  0  0  0  0  0  0  0  0  0
   -3.2675   -0.3910   -1.0502 C   0  0  0  0  0  0  0  0  0  0  0  0
    0.2802   -2.1261    2.3777 H   0  0  0  0  0  0  0  0  0  0  0  0
   -1.4865   -1.7198    2.0711 H   0  0  0  0  0  0  0  0  0  0  0  0
    2.3572   -1.7670    1.5966 H   0  0  0  0  0  0  0  0  0  0  0  0
    7.7719   -0.2690   -1.2029 H   0  0  0  0  0  0  0  0  0  0  0  0
    9.8152    0.0948   -0.2898 H   0  0  0  0  0  0  0  0  0  0  0  0
    9.9723    0.9536    1.2497 H   0  0  0  0  0  0  0  0  0  0  0  0
    9.3973    1.8306   -0.1955 H   0  0  0  0  0  0  0  0  0  0  0  0
    2.5680   -2.2653   -1.7959 H   0  0  0  0  0  0  0  0  0  0  0  0
    1.9316    0.3817   -1.7300 H   0  0  0  0  0  0  0  0  0  0  0  0
   -1.3563    0.6080   -3.0436 H   0  0  0  0  0  0  0  0  0  0  0  0
    0.0707    1.6394   -2.9480 H   0  0  0  0  0  0  0  0  0  0  0  0
   -1.3288    2.0051   -1.9390 H   0  0  0  0  0  0  0  0  0  0  0  0
   -2.1544    0.9150    1.8750 H   0  0  0  0  0  0  0  0  0  0  0  0
   -4.5505    1.3100    2.1718 H   0  0  0  0  0  0  0  0  0  0  0  0
   -6.7002    1.1753    1.3833 H   0  0  0  0  0  0  0  0  0  0  0  0
   -8.7675    1.8674    0.7435 H   0  0  0  0  0  0  0  0  0  0  0  0
   -9.6244    0.9593   -0.5125 H   0  0  0  0  0  0  0  0  0  0  0  0
   -9.1999    0.1537    1.0217 H   0  0  0  0  0  0  0  0  0  0  0  0
   -5.3019   -0.4805   -1.6891 H   0  0  0  0  0  0  0  0  0  0  0  0
   -2.9216   -0.8873   -1.9538 H   0  0  0  0  0  0  0  0  0  0  0  0
  1  2  2  0
  2  3  1  0
  3  4  2  3
  4  5  1  0
  5  6  1  0
  6  7  1  0
  7  8  1  0
  8  9  1  0
  9 10  1  0
  9 11  2  0
  7 12  2  0
 12 13  1  0
 13 14  1  0
  3 15  1  0
 15 16  2  0
 16 17  1  0
 16 18  1  0
 18 19  1  0
 19 20  2  0
 20 21  1  0
 21 22  2  0
 22 23  1  0
 23 24  1  0
 24 25  1  0
 24 26  2  0
 22 27  1  0
 27 28  2  0
 18  2  1  0
 28 19  1  0
 13  5  2  0
  1 29  1  0
  1 30  1  0
  4 31  1  0
  8 32  1  0
 10 33  1  0
 10 34  1  0
 10 35  1  0
 14 36  1  0
 15 37  1  0
 17 38  1  0
 17 39  1  0
 17 40  1  0
 20 41  1  0
 21 42  1  0
 23 43  1  0
 25 44  1  0
 25 45  1  0
 25 46  1  0
 27 47  1  0
 28 48  1  0
M  END
$$$$
