
     RDKit          3D

 54 56  0  0  0  0  0  0  0  0999 V2000
   -4.7726   -1.1010   -3.0476 C   0  0  0  0  0  0  0  0  0  0  0  0
   -4.7885   -0.9294   -1.5554 C   0  0  0  0  0  0  0  0  0  0  0  0
   -6.0263   -1.1592   -0.9275 C   0  0  0  0  0  0  0  0  0  0  0  0
   -6.1893   -0.9323    0.4280 C   0  0  0  0  0  0  0  0  0  0  0  0
   -5.1163   -0.4641    1.1779 C   0  0  0  0  0  0  0  0  0  0  0  0
   -3.8472   -0.2394    0.5995 C   0  0  0  0  0  0  0  0  0  0  0  0
   -2.7652    0.2540    1.5639 C   0  0  0  0  0  0  0  0  0  0  0  0
   -1.6234   -0.7465    1.7516 C   0  0  0  0  0  0  0  0  0  0  0  0
   -2.2757    1.6725    1.2606 C   0  0  0  0  0  0  0  0  0  0  0  0
   -3.6726   -0.5207   -0.7829 C   0  0  0  0  0  0  0  0  0  0  0  0
   -2.4004   -0.3072   -1.3662 N   0  0  0  0  0  0  0  0  0  0  0  0
   -1.7790   -1.1150   -2.3066 C   0  0  0  0  0  0  0  0  0  0  0  0
   -2.1824   -2.1948   -2.7196 O   0  0  0  0  0  0  0  0  0  0  0  0
   -0.4497   -0.5430   -2.7832 C   0  0  0  0  0  0  0  0  0  0  0  0
    0.6271   -0.8995   -1.8070 C   0  0  0  0  0  0  0  0  0  0  0  0
    1.1885   -2.1372   -1.5702 C   0  0  0  0  0  0  0  0  0  0  0  0
    2.1377   -2.1043   -0.5101 C   0  0  0  0  0  0  0  0  0  0  0  0
    2.2821   -0.8373    0.0240 C   0  0  0  0  0  0  0  0  0  0  0  0
    3.2509   -0.2183    1.3779 S   0  0  0  0  0  6  0  0  0  0  0  0
    2.2842    0.1576    2.3866 O   0  0  0  0  0  0  0  0  0  0  0  0
    4.2407   -1.2420    1.6320 O   0  0  0  0  0  0  0  0  0  0  0  0
    4.0784    1.1820    0.8764 N   0  0  0  0  0  0  0  0  0  0  0  0
    5.0285    0.9847   -0.2667 C   0  0  0  0  0  0  0  0  0  0  0  0
    6.0019    2.1636   -0.3606 C   0  0  0  0  0  0  0  0  0  0  0  0
    6.8284    2.3129    0.8003 O   0  0  0  0  0  0  0  0  0  0  0  0
    6.2182    1.8187    2.0019 C   0  0  0  0  0  0  0  0  0  0  0  0
    4.6939    1.9636    1.9998 C   0  0  0  0  0  0  0  0  0  0  0  0
    1.2993    0.3007   -0.7852 S   0  0  0  0  0  0  0  0  0  0  0  0
   -4.5733   -2.1420   -3.3135 H   0  0  0  0  0  0  0  0  0  0  0  0
   -4.0554   -0.4342   -3.5332 H   0  0  0  0  0  0  0  0  0  0  0  0
   -5.7465   -0.8445   -3.4748 H   0  0  0  0  0  0  0  0  0  0  0  0
   -6.8830   -1.4983   -1.5081 H   0  0  0  0  0  0  0  0  0  0  0  0
   -7.1534   -1.1058    0.8977 H   0  0  0  0  0  0  0  0  0  0  0  0
   -5.2783   -0.2810    2.2374 H   0  0  0  0  0  0  0  0  0  0  0  0
   -3.2258    0.3351    2.5600 H   0  0  0  0  0  0  0  0  0  0  0  0
   -0.9076   -0.3760    2.4899 H   0  0  0  0  0  0  0  0  0  0  0  0
   -1.0771   -0.9492    0.8308 H   0  0  0  0  0  0  0  0  0  0  0  0
   -2.0087   -1.7049    2.1165 H   0  0  0  0  0  0  0  0  0  0  0  0
   -1.6605    1.7419    0.3596 H   0  0  0  0  0  0  0  0  0  0  0  0
   -3.1210    2.3557    1.1348 H   0  0  0  0  0  0  0  0  0  0  0  0
   -1.6679    2.0470    2.0912 H   0  0  0  0  0  0  0  0  0  0  0  0
   -1.7473    0.2267   -0.8167 H   0  0  0  0  0  0  0  0  0  0  0  0
   -0.5461    0.5440   -2.9078 H   0  0  0  0  0  0  0  0  0  0  0  0
   -0.2279   -0.9545   -3.7739 H   0  0  0  0  0  0  0  0  0  0  0  0
    0.9007   -3.0390   -2.1065 H   0  0  0  0  0  0  0  0  0  0  0  0
    2.6715   -2.9706   -0.1276 H   0  0  0  0  0  0  0  0  0  0  0  0
    4.4543    0.9202   -1.1978 H   0  0  0  0  0  0  0  0  0  0  0  0
    5.5985    0.0563   -0.1340 H   0  0  0  0  0  0  0  0  0  0  0  0
    5.4552    3.1011   -0.5030 H   0  0  0  0  0  0  0  0  0  0  0  0
    6.6661    2.0387   -1.2211 H   0  0  0  0  0  0  0  0  0  0  0  0
    6.5111    0.7688    2.1235 H   0  0  0  0  0  0  0  0  0  0  0  0
    6.6495    2.3752    2.8390 H   0  0  0  0  0  0  0  0  0  0  0  0
    4.2920    1.6574    2.9703 H   0  0  0  0  0  0  0  0  0  0  0  0
    4.4099    3.0126    1.8515 H   0  0  0  0  0  0  0  0  0  0  0  0
  1  2  1  0
  2  3  2  0
  3  4  1  0
  4  5  2  0
  5  6  1  0
  6  7  1  0
  7  8  1  0
  7  9  1  0
  6 10  2  0
 10 11  1  0
 11 12  1  0
 12 13  2  0
 12 14  1  0
 14 15  1  0
 15 16  2  0
 16 17  1  0
 17 18  2  0
 18 19  1  0
 19 20  2  0
 19 21  2  0
 19 22  1  0
 22 23  1  0
 23 24  1  0
 24 25  1  0
 25 26  1  0
 26 27  1  0
 18 28  1  0
 10  2  1  0
 28 15  1  0
 27 22  1  0
  1 29  1  0
  1 30  1  0
  1 31  1  0
  3 32  1  0
  4 33  1  0
  5 34  1  0
  7 35  1  0
  8 36  1  0
  8 37  1  0
  8 38  1  0
  9 39  1  0
  9 40  1  0
  9 41  1  0
 11 42  1  0
 14 43  1  0
 14 44  1  0
 16 45  1  0
 17 46  1  0
 23 47  1  0
 23 48  1  0
 24 49  1  0
 24 50  1  0
 26 51  1  0
 26 52  1  0
 27 53  1  0
 27 54  1  0
M  END
$$$$
