
     RDKit          3D

 30 31  0  0  0  0  0  0  0  0999 V2000
    3.4265   -3.0642   -0.2942 N   0  0  0  0  0  0  0  0  0  0  0  0
    2.6474   -2.3382    0.1657 C   0  0  0  0  0  0  0  0  0  0  0  0
    1.7102   -1.4012    0.6822 C   0  0  0  0  0  0  0  0  0  0  0  0
    2.0334   -0.6784    1.7701 C   0  0  0  0  0  0  0  0  0  0  0  0
    1.2533    0.3328    2.3999 C   0  0  0  0  0  0  0  0  0  0  0  0
    0.2411    1.1741    1.9347 C   0  0  0  0  0  0  0  0  0  0  0  0
   -0.1668    2.0202    2.9987 C   0  0  0  0  0  0  0  0  0  0  0  0
    0.6253    1.6639    4.0558 C   0  0  0  0  0  0  0  0  0  0  0  0
    0.7020    2.1513    5.3951 N   0  0  0  0  0  4  0  0  0  0  0  0
   -0.0262    3.1146    5.6689 O   0  0  0  0  0  0  0  0  0  0  0  0
    1.4828    1.5885    6.1729 O   0  0  0  0  0  1  0  0  0  0  0  0
    1.4875    0.6739    3.7204 O   0  0  0  0  0  0  0  0  0  0  0  0
    0.3925   -1.3170   -0.0114 C   0  0  0  0  0  0  0  0  0  0  0  0
   -0.6438   -1.4207    0.6342 O   0  0  0  0  0  0  0  0  0  0  0  0
    0.5018   -1.1118   -1.3753 N   0  0  0  0  0  0  0  0  0  0  0  0
   -0.5537   -0.9976   -2.3070 C   0  0  0  0  0  0  0  0  0  0  0  0
   -0.2001   -0.8356   -3.6560 C   0  0  0  0  0  0  0  0  0  0  0  0
   -1.1846   -0.7314   -4.6435 C   0  0  0  0  0  0  0  0  0  0  0  0
   -2.5239   -0.7864   -4.2831 C   0  0  0  0  0  0  0  0  0  0  0  0
   -3.4687   -0.6928   -5.2273 F   0  0  0  0  0  0  0  0  0  0  0  0
   -2.8941   -0.9391   -2.9541 C   0  0  0  0  0  0  0  0  0  0  0  0
   -1.9089   -1.0446   -1.9650 C   0  0  0  0  0  0  0  0  0  0  0  0
    2.9950   -0.8609    2.2487 H   0  0  0  0  0  0  0  0  0  0  0  0
   -0.1691    1.1876    0.9327 H   0  0  0  0  0  0  0  0  0  0  0  0
   -0.9313    2.7845    2.9891 H   0  0  0  0  0  0  0  0  0  0  0  0
    1.4314   -1.0558   -1.7756 H   0  0  0  0  0  0  0  0  0  0  0  0
    0.8425   -0.7977   -3.9612 H   0  0  0  0  0  0  0  0  0  0  0  0
   -0.9148   -0.6117   -5.6882 H   0  0  0  0  0  0  0  0  0  0  0  0
   -3.9456   -0.9824   -2.6890 H   0  0  0  0  0  0  0  0  0  0  0  0
   -2.2408   -1.1676   -0.9381 H   0  0  0  0  0  0  0  0  0  0  0  0
  1  2  3  0
  2  3  1  0
  3  4  2  3
  4  5  1  0
  5  6  2  0
  6  7  1  0
  7  8  2  0
  8  9  1  0
  9 10  2  0
  9 11  1  0
  8 12  1  0
  3 13  1  0
 13 14  2  0
 13 15  1  0
 15 16  1  0
 16 17  2  0
 17 18  1  0
 18 19  2  0
 19 20  1  0
 19 21  1  0
 21 22  2  0
 12  5  1  0
 22 16  1  0
  4 23  1  0
  6 24  1  0
  7 25  1  0
 15 26  1  0
 17 27  1  0
 18 28  1  0
 21 29  1  0
 22 30  1  0
M  CHG  2   9   1  11  -1
M  END
$$$$
