
     RDKit          3D

 44 46  0  0  0  0  0  0  0  0999 V2000
    6.2844    0.5864    2.5262 C   0  0  0  0  0  0  0  0  0  0  0  0
    6.0274   -0.7560    1.8678 C   0  0  0  0  0  0  0  0  0  0  0  0
    4.7705   -0.7345    1.1755 O   0  0  0  0  0  0  0  0  0  0  0  0
    4.8069   -0.2731   -0.0993 C   0  0  0  0  0  0  0  0  0  0  0  0
    5.7989    0.1209   -0.6923 O   0  0  0  0  0  0  0  0  0  0  0  0
    3.4481   -0.3003   -0.7056 C   0  0  0  0  0  0  0  0  0  0  0  0
    3.2996    0.1541   -2.0203 C   0  0  0  0  0  0  0  0  0  0  0  0
    2.0410    0.1478   -2.6331 C   0  0  0  0  0  0  0  0  0  0  0  0
    0.9002   -0.2879   -1.9423 C   0  0  0  0  0  0  0  0  0  0  0  0
   -0.3380   -0.3296   -2.6201 N   0  0  0  0  0  0  0  0  0  0  0  0
   -1.6433   -0.2805   -2.0697 C   0  0  0  0  0  0  0  0  0  0  0  0
   -2.7029   -0.5812   -2.9066 C   0  0  0  0  0  0  0  0  0  0  0  0
   -3.9705   -0.5416   -2.3632 C   0  0  0  0  0  0  0  0  0  0  0  0
   -5.1670   -0.8627   -3.2063 C   0  0  0  0  0  0  0  0  0  0  0  0
   -4.1880   -0.2229   -1.0753 N   0  0  0  0  0  0  0  0  0  0  0  0
   -3.1059    0.0529   -0.3229 C   0  0  0  0  0  0  0  0  0  0  0  0
   -3.3186    0.4025    1.0970 C   0  0  0  0  0  0  0  0  0  0  0  0
   -2.2460    0.7746    1.9318 C   0  0  0  0  0  0  0  0  0  0  0  0
   -2.4441    1.1052    3.2765 C   0  0  0  0  0  0  0  0  0  0  0  0
   -3.7243    1.0716    3.8205 C   0  0  0  0  0  0  0  0  0  0  0  0
   -4.8044    0.7092    3.0218 C   0  0  0  0  0  0  0  0  0  0  0  0
   -4.6020    0.3795    1.6774 C   0  0  0  0  0  0  0  0  0  0  0  0
   -1.8404    0.0301   -0.7799 N   0  0  0  0  0  0  0  0  0  0  0  0
    1.0691   -0.7741   -0.6402 C   0  0  0  0  0  0  0  0  0  0  0  0
    2.3248   -0.7711   -0.0191 C   0  0  0  0  0  0  0  0  0  0  0  0
    7.2115    0.5631    3.1057 H   0  0  0  0  0  0  0  0  0  0  0  0
    5.4574    0.8521    3.1929 H   0  0  0  0  0  0  0  0  0  0  0  0
    6.3592    1.3827    1.7789 H   0  0  0  0  0  0  0  0  0  0  0  0
    6.8475   -1.0380    1.1975 H   0  0  0  0  0  0  0  0  0  0  0  0
    5.9568   -1.5345    2.6345 H   0  0  0  0  0  0  0  0  0  0  0  0
    4.1634    0.5114   -2.5780 H   0  0  0  0  0  0  0  0  0  0  0  0
    1.9644    0.4955   -3.6603 H   0  0  0  0  0  0  0  0  0  0  0  0
   -0.3145    0.2043   -3.4821 H   0  0  0  0  0  0  0  0  0  0  0  0
   -2.5445   -0.8524   -3.9425 H   0  0  0  0  0  0  0  0  0  0  0  0
   -6.0892   -0.7816   -2.6217 H   0  0  0  0  0  0  0  0  0  0  0  0
   -5.2350   -0.1664   -4.0479 H   0  0  0  0  0  0  0  0  0  0  0  0
   -5.0961   -1.8853   -3.5898 H   0  0  0  0  0  0  0  0  0  0  0  0
   -1.2339    0.8127    1.5308 H   0  0  0  0  0  0  0  0  0  0  0  0
   -1.5961    1.3892    3.8940 H   0  0  0  0  0  0  0  0  0  0  0  0
   -3.8800    1.3284    4.8649 H   0  0  0  0  0  0  0  0  0  0  0  0
   -5.8071    0.6816    3.4403 H   0  0  0  0  0  0  0  0  0  0  0  0
   -5.4649    0.0991    1.0750 H   0  0  0  0  0  0  0  0  0  0  0  0
    0.2220   -1.1737   -0.0878 H   0  0  0  0  0  0  0  0  0  0  0  0
    2.4041   -1.1484    0.9972 H   0  0  0  0  0  0  0  0  0  0  0  0
  1  2  1  0
  2  3  1  0
  3  4  1  0
  4  5  2  0
  4  6  1  0
  6  7  2  0
  7  8  1  0
  8  9  2  0
  9 10  1  0
 10 11  1  0
 11 12  2  0
 12 13  1  0
 13 14  1  0
 13 15  2  0
 15 16  1  0
 16 17  1  0
 17 18  2  0
 18 19  1  0
 19 20  2  0
 20 21  1  0
 21 22  2  0
 16 23  2  0
  9 24  1  0
 24 25  2  0
 25  6  1  0
 23 11  1  0
 22 17  1  0
  1 26  1  0
  1 27  1  0
  1 28  1  0
  2 29  1  0
  2 30  1  0
  7 31  1  0
  8 32  1  0
 10 33  1  0
 12 34  1  0
 14 35  1  0
 14 36  1  0
 14 37  1  0
 18 38  1  0
 19 39  1  0
 20 40  1  0
 21 41  1  0
 22 42  1  0
 24 43  1  0
 25 44  1  0
M  END
$$$$
