
     RDKit          3D

 42 44  0  0  0  0  0  0  0  0999 V2000
   -6.4483    1.5255    1.3065 C   0  0  0  0  0  0  0  0  0  0  0  0
   -6.1097    0.4295    0.4009 N   0  0  0  0  0  0  0  0  0  0  0  0
   -7.1849   -0.5236    0.1321 C   0  0  0  0  0  0  0  0  0  0  0  0
   -4.7816   -0.0058    0.3258 C   0  0  0  0  0  0  0  0  0  0  0  0
   -3.7143    0.7522    0.8370 C   0  0  0  0  0  0  0  0  0  0  0  0
   -2.3774    0.3293    0.7486 C   0  0  0  0  0  0  0  0  0  0  0  0
   -2.0493   -0.8713    0.1205 C   0  0  0  0  0  0  0  0  0  0  0  0
   -0.6728   -1.3769    0.0266 C   0  0  0  0  0  0  0  0  0  0  0  0
    0.4130   -0.5980   -0.1064 C   0  0  0  0  0  0  0  0  0  0  0  0
    1.7601   -1.2250   -0.1919 C   0  0  0  0  0  0  0  0  0  0  0  0
    1.9067   -2.4350    0.0006 O   0  0  0  0  0  0  0  0  0  0  0  0
    2.9525   -0.3557   -0.4273 C   0  0  0  0  0  0  0  0  0  0  0  0
    4.1372   -0.7938    0.0483 C   0  0  0  0  0  0  0  0  0  0  0  0
    4.3265   -1.9946    0.7123 O   0  0  0  0  0  0  0  0  0  0  0  0
    5.3478    0.0156   -0.0967 C   0  0  0  0  0  0  0  0  0  0  0  0
    6.6004   -0.3785    0.3893 C   0  0  0  0  0  0  0  0  0  0  0  0
    7.7189    0.4467    0.2283 C   0  0  0  0  0  0  0  0  0  0  0  0
    7.5968    1.6757   -0.4201 C   0  0  0  0  0  0  0  0  0  0  0  0
    6.3572    2.0797   -0.9088 C   0  0  0  0  0  0  0  0  0  0  0  0
    5.2540    1.2436   -0.7396 C   0  0  0  0  0  0  0  0  0  0  0  0
    4.0294    1.6898   -1.2579 O   0  0  0  0  0  0  0  0  0  0  0  0
    2.8779    0.9182   -1.1766 C   0  0  0  0  0  0  0  0  0  0  0  0
    1.8477    1.2990   -1.7218 O   0  0  0  0  0  0  0  0  0  0  0  0
   -3.0898   -1.6429   -0.3952 C   0  0  0  0  0  0  0  0  0  0  0  0
   -4.4228   -1.2105   -0.3021 C   0  0  0  0  0  0  0  0  0  0  0  0
   -5.9297    2.4480    1.0242 H   0  0  0  0  0  0  0  0  0  0  0  0
   -6.2061    1.2686    2.3436 H   0  0  0  0  0  0  0  0  0  0  0  0
   -7.5182    1.7594    1.2654 H   0  0  0  0  0  0  0  0  0  0  0  0
   -7.1373   -0.8955   -0.8969 H   0  0  0  0  0  0  0  0  0  0  0  0
   -7.1480   -1.3664    0.8312 H   0  0  0  0  0  0  0  0  0  0  0  0
   -8.1691   -0.0526    0.2348 H   0  0  0  0  0  0  0  0  0  0  0  0
   -3.8907    1.7052    1.3262 H   0  0  0  0  0  0  0  0  0  0  0  0
   -1.6092    0.9599    1.1878 H   0  0  0  0  0  0  0  0  0  0  0  0
   -0.5710   -2.4611    0.0484 H   0  0  0  0  0  0  0  0  0  0  0  0
    0.3298    0.4799   -0.1482 H   0  0  0  0  0  0  0  0  0  0  0  0
    3.5095   -2.5374    0.6279 H   0  0  0  0  0  0  0  0  0  0  0  0
    6.7180   -1.3323    0.9002 H   0  0  0  0  0  0  0  0  0  0  0  0
    8.6854    0.1271    0.6110 H   0  0  0  0  0  0  0  0  0  0  0  0
    8.4674    2.3148   -0.5445 H   0  0  0  0  0  0  0  0  0  0  0  0
    6.2522    3.0334   -1.4180 H   0  0  0  0  0  0  0  0  0  0  0  0
   -2.8832   -2.5887   -0.8914 H   0  0  0  0  0  0  0  0  0  0  0  0
   -5.1749   -1.8555   -0.7457 H   0  0  0  0  0  0  0  0  0  0  0  0
  1  2  1  0
  2  3  1  0
  2  4  1  0
  4  5  2  0
  5  6  1  0
  6  7  2  0
  7  8  1  0
  8  9  2  3
  9 10  1  0
 10 11  2  0
 10 12  1  0
 12 13  2  0
 13 14  1  0
 13 15  1  0
 15 16  2  0
 16 17  1  0
 17 18  2  0
 18 19  1  0
 19 20  2  0
 20 21  1  0
 21 22  1  0
 22 23  2  0
  7 24  1  0
 24 25  2  0
 25  4  1  0
 22 12  1  0
 20 15  1  0
  1 26  1  0
  1 27  1  0
  1 28  1  0
  3 29  1  0
  3 30  1  0
  3 31  1  0
  5 32  1  0
  6 33  1  0
  8 34  1  0
  9 35  1  0
 14 36  1  0
 16 37  1  0
 17 38  1  0
 18 39  1  0
 19 40  1  0
 24 41  1  0
 25 42  1  0
M  END
$$$$
