
     RDKit          3D

 45 47  0  0  0  0  0  0  0  0999 V2000
    9.2459    0.9575    2.5792 N   0  0  0  0  0  0  0  0  0  0  0  0
    8.3273    0.7904    1.8896 C   0  0  0  0  0  0  0  0  0  0  0  0
    7.1908    0.5928    1.0385 C   0  0  0  0  0  0  0  0  0  0  0  0
    5.8992    0.6117    1.5737 C   0  0  0  0  0  0  0  0  0  0  0  0
    4.7866    0.4203    0.7451 C   0  0  0  0  0  0  0  0  0  0  0  0
    4.9589    0.2143   -0.6238 C   0  0  0  0  0  0  0  0  0  0  0  0
    3.9660    0.0075   -1.5390 O   0  0  0  0  0  0  0  0  0  0  0  0
    2.6344    0.3362   -1.1703 C   0  0  0  0  0  0  0  0  0  0  0  0
    1.8496   -0.7543   -0.4186 C   0  0  0  0  0  0  0  0  0  0  0  0
    2.3997   -1.7713    0.0067 O   0  0  0  0  0  0  0  0  0  0  0  0
    0.4896   -0.5341   -0.2286 N   0  0  0  0  0  0  0  0  0  0  0  0
   -0.3066   -1.5923    0.4066 C   0  0  0  0  0  0  0  0  0  0  0  0
   -1.7958   -1.5284    0.0304 C   0  0  0  0  0  0  0  0  0  0  0  0
   -2.3596   -0.2111    0.3689 N   0  0  0  0  0  0  0  0  0  0  0  0
   -3.7325   -0.0762    0.1955 C   0  0  0  0  0  0  0  0  0  0  0  0
   -4.4088    1.0563    0.6502 C   0  0  0  0  0  0  0  0  0  0  0  0
   -5.7909    1.1657    0.4825 C   0  0  0  0  0  0  0  0  0  0  0  0
   -6.4920    0.1360   -0.1396 C   0  0  0  0  0  0  0  0  0  0  0  0
   -7.9742    0.1676   -0.3335 C   0  0  0  0  0  0  0  0  0  0  0  0
   -8.4853    1.4305   -0.3485 F   0  0  0  0  0  0  0  0  0  0  0  0
   -8.3700   -0.4052   -1.5039 F   0  0  0  0  0  0  0  0  0  0  0  0
   -8.6420   -0.4934    0.6508 F   0  0  0  0  0  0  0  0  0  0  0  0
   -5.7589   -0.9648   -0.5429 C   0  0  0  0  0  0  0  0  0  0  0  0
   -4.4186   -1.0842   -0.3866 N   0  0  0  0  0  0  0  0  0  0  0  0
   -1.4983    0.9616    0.1565 C   0  0  0  0  0  0  0  0  0  0  0  0
   -0.2557    0.6390   -0.6994 C   0  0  0  0  0  0  0  0  0  0  0  0
    6.2528    0.1830   -1.1525 C   0  0  0  0  0  0  0  0  0  0  0  0
    7.3660    0.3753   -0.3298 C   0  0  0  0  0  0  0  0  0  0  0  0
    5.7473    0.7631    2.6411 H   0  0  0  0  0  0  0  0  0  0  0  0
    3.8050    0.4098    1.2072 H   0  0  0  0  0  0  0  0  0  0  0  0
    2.1064    0.5153   -2.1142 H   0  0  0  0  0  0  0  0  0  0  0  0
    2.6063    1.2749   -0.6045 H   0  0  0  0  0  0  0  0  0  0  0  0
   -0.1867   -1.4655    1.4895 H   0  0  0  0  0  0  0  0  0  0  0  0
    0.0998   -2.5741    0.1399 H   0  0  0  0  0  0  0  0  0  0  0  0
   -1.9040   -1.7190   -1.0455 H   0  0  0  0  0  0  0  0  0  0  0  0
   -2.3211   -2.3218    0.5764 H   0  0  0  0  0  0  0  0  0  0  0  0
   -3.8761    1.8496    1.1640 H   0  0  0  0  0  0  0  0  0  0  0  0
   -6.3094    2.0498    0.8475 H   0  0  0  0  0  0  0  0  0  0  0  0
   -6.2337   -1.8194   -1.0207 H   0  0  0  0  0  0  0  0  0  0  0  0
   -2.0309    1.7846   -0.3354 H   0  0  0  0  0  0  0  0  0  0  0  0
   -1.1717    1.3211    1.1398 H   0  0  0  0  0  0  0  0  0  0  0  0
   -0.5618    0.4195   -1.7296 H   0  0  0  0  0  0  0  0  0  0  0  0
    0.3956    1.5163   -0.7311 H   0  0  0  0  0  0  0  0  0  0  0  0
    6.3943    0.0060   -2.2165 H   0  0  0  0  0  0  0  0  0  0  0  0
    8.3628    0.3482   -0.7652 H   0  0  0  0  0  0  0  0  0  0  0  0
  1  2  3  0
  2  3  1  0
  3  4  2  0
  4  5  1  0
  5  6  2  0
  6  7  1  0
  7  8  1  0
  8  9  1  0
  9 10  2  0
  9 11  1  0
 11 12  1  0
 12 13  1  0
 13 14  1  0
 14 15  1  0
 15 16  2  0
 16 17  1  0
 17 18  2  0
 18 19  1  0
 19 20  1  0
 19 21  1  0
 19 22  1  0
 18 23  1  0
 23 24  2  0
 14 25  1  0
 25 26  1  0
  6 27  1  0
 27 28  2  0
 28  3  1  0
 26 11  1  0
 24 15  1  0
  4 29  1  0
  5 30  1  0
  8 31  1  0
  8 32  1  0
 12 33  1  0
 12 34  1  0
 13 35  1  0
 13 36  1  0
 16 37  1  0
 17 38  1  0
 23 39  1  0
 25 40  1  0
 25 41  1  0
 26 42  1  0
 26 43  1  0
 27 44  1  0
 28 45  1  0
M  END
$$$$
