
     RDKit          3D

 49 52  0  0  0  0  0  0  0  0999 V2000
    8.1095   -0.6872    1.4746 C   0  0  0  0  0  0  0  0  0  0  0  0
    7.3496   -0.6113    0.2277 N   0  0  0  0  0  0  0  0  0  0  0  0
    7.6817   -1.6299   -0.7684 C   0  0  0  0  0  0  0  0  0  0  0  0
    6.0365   -0.1211    0.2697 C   0  0  0  0  0  0  0  0  0  0  0  0
    5.5463    0.6138    1.3635 C   0  0  0  0  0  0  0  0  0  0  0  0
    4.2368    1.1185    1.4042 C   0  0  0  0  0  0  0  0  0  0  0  0
    3.3618    0.9073    0.3409 C   0  0  0  0  0  0  0  0  0  0  0  0
    2.0176    1.4882    0.3886 C   0  0  0  0  0  0  0  0  0  0  0  0
    0.8504    0.8382    0.2731 C   0  0  0  0  0  0  0  0  0  0  0  0
   -0.4303    1.4670    0.3271 C   0  0  0  0  0  0  0  0  0  0  0  0
   -1.3239    0.4894    0.1878 C   0  0  0  0  0  0  0  0  0  0  0  0
   -2.7914    0.5970    0.1638 C   0  0  0  0  0  0  0  0  0  0  0  0
   -3.4549    1.7378    0.6334 C   0  0  0  0  0  0  0  0  0  0  0  0
   -4.8505    1.8221    0.6024 C   0  0  0  0  0  0  0  0  0  0  0  0
   -5.6208    0.7673    0.0988 C   0  0  0  0  0  0  0  0  0  0  0  0
   -4.9767   -0.3957   -0.3509 C   0  0  0  0  0  0  0  0  0  0  0  0
   -3.5719   -0.4630   -0.3238 C   0  0  0  0  0  0  0  0  0  0  0  0
   -5.7534   -1.5575   -0.9220 C   0  0  0  0  0  0  0  0  0  0  0  0
   -7.2360   -1.5302   -0.5553 C   0  0  0  0  0  0  0  0  0  0  0  0
   -7.8161   -0.1409   -0.7868 C   0  0  0  0  0  0  0  0  0  0  0  0
   -7.1254    0.8822    0.1130 C   0  0  0  0  0  0  0  0  0  0  0  0
   -0.7679   -0.7969    0.0346 O   0  0  0  0  0  0  0  0  0  0  0  0
    0.6002   -0.6220    0.0885 C   0  0  0  0  0  0  0  0  0  0  0  0
    1.4162   -1.5201   -0.0056 O   0  0  0  0  0  0  0  0  0  0  0  0
    3.8287    0.2123   -0.7710 C   0  0  0  0  0  0  0  0  0  0  0  0
    5.1396   -0.2895   -0.8002 C   0  0  0  0  0  0  0  0  0  0  0  0
    7.6063   -1.3299    2.2055 H   0  0  0  0  0  0  0  0  0  0  0  0
    8.2679    0.3076    1.9044 H   0  0  0  0  0  0  0  0  0  0  0  0
    9.1100   -1.1008    1.3041 H   0  0  0  0  0  0  0  0  0  0  0  0
    7.0603   -2.5235   -0.6424 H   0  0  0  0  0  0  0  0  0  0  0  0
    8.7290   -1.9410   -0.6823 H   0  0  0  0  0  0  0  0  0  0  0  0
    7.5693   -1.2415   -1.7862 H   0  0  0  0  0  0  0  0  0  0  0  0
    6.1740    0.8200    2.2246 H   0  0  0  0  0  0  0  0  0  0  0  0
    3.9176    1.6752    2.2818 H   0  0  0  0  0  0  0  0  0  0  0  0
    2.0144    2.5646    0.5510 H   0  0  0  0  0  0  0  0  0  0  0  0
   -0.6111    2.5219    0.4455 H   0  0  0  0  0  0  0  0  0  0  0  0
   -2.9027    2.5798    1.0418 H   0  0  0  0  0  0  0  0  0  0  0  0
   -5.3353    2.7204    0.9792 H   0  0  0  0  0  0  0  0  0  0  0  0
   -3.0875   -1.3645   -0.6973 H   0  0  0  0  0  0  0  0  0  0  0  0
   -5.3221   -2.5029   -0.5718 H   0  0  0  0  0  0  0  0  0  0  0  0
   -5.6499   -1.5302   -2.0141 H   0  0  0  0  0  0  0  0  0  0  0  0
   -7.3657   -1.8113    0.4976 H   0  0  0  0  0  0  0  0  0  0  0  0
   -7.7769   -2.2710   -1.1546 H   0  0  0  0  0  0  0  0  0  0  0  0
   -8.8929   -0.1416   -0.5839 H   0  0  0  0  0  0  0  0  0  0  0  0
   -7.6872    0.1401   -1.8398 H   0  0  0  0  0  0  0  0  0  0  0  0
   -7.4257    1.8883   -0.2032 H   0  0  0  0  0  0  0  0  0  0  0  0
   -7.4665    0.7440    1.1467 H   0  0  0  0  0  0  0  0  0  0  0  0
    3.1854    0.0426   -1.6308 H   0  0  0  0  0  0  0  0  0  0  0  0
    5.4337   -0.8217   -1.6993 H   0  0  0  0  0  0  0  0  0  0  0  0
  1  2  1  0
  2  3  1  0
  2  4  1  0
  4  5  2  0
  5  6  1  0
  6  7  2  0
  7  8  1  0
  8  9  2  3
  9 10  1  0
 10 11  2  0
 11 12  1  0
 12 13  2  0
 13 14  1  0
 14 15  2  0
 15 16  1  0
 16 17  2  0
 16 18  1  0
 18 19  1  0
 19 20  1  0
 20 21  1  0
 11 22  1  0
 22 23  1  0
 23 24  2  0
  7 25  1  0
 25 26  2  0
 26  4  1  0
 23  9  1  0
 17 12  1  0
 21 15  1  0
  1 27  1  0
  1 28  1  0
  1 29  1  0
  3 30  1  0
  3 31  1  0
  3 32  1  0
  5 33  1  0
  6 34  1  0
  8 35  1  0
 10 36  1  0
 13 37  1  0
 14 38  1  0
 17 39  1  0
 18 40  1  0
 18 41  1  0
 19 42  1  0
 19 43  1  0
 20 44  1  0
 20 45  1  0
 21 46  1  0
 21 47  1  0
 25 48  1  0
 26 49  1  0
M  END
$$$$
