
     RDKit          3D

 42 43  0  0  0  0  0  0  0  0999 V2000
   -1.6608    3.5727   -0.1169 C   0  0  0  0  0  0  0  0  0  0  0  0
   -0.6656    2.5672    0.3952 C   0  0  0  0  0  0  0  0  0  0  0  0
    0.1994    2.9585    1.4336 C   0  0  0  0  0  0  0  0  0  0  0  0
    1.1491    2.0765    1.9534 C   0  0  0  0  0  0  0  0  0  0  0  0
    1.2503    0.7864    1.4327 C   0  0  0  0  0  0  0  0  0  0  0  0
    2.4559   -0.3258    2.1186 S   0  0  0  0  0  6  0  0  0  0  0  0
    1.7481   -1.1443    3.0844 O   0  0  0  0  0  0  0  0  0  0  0  0
    3.5937    0.4801    2.5248 O   0  0  0  0  0  0  0  0  0  0  0  0
    3.0406   -1.3929    0.8185 C   0  0  0  0  0  0  0  0  0  0  0  0
    4.0430   -0.9353   -0.0435 C   0  0  0  0  0  0  0  0  0  0  0  0
    4.5075   -1.7727   -1.0598 C   0  0  0  0  0  0  0  0  0  0  0  0
    3.9756   -3.0565   -1.2011 C   0  0  0  0  0  0  0  0  0  0  0  0
    4.5490   -4.0852   -2.4555 Cl  0  0  0  0  0  0  0  0  0  0  0  0
    2.9850   -3.5149   -0.3314 C   0  0  0  0  0  0  0  0  0  0  0  0
    2.5165   -2.6843    0.6887 C   0  0  0  0  0  0  0  0  0  0  0  0
    0.4274    0.3797    0.3826 C   0  0  0  0  0  0  0  0  0  0  0  0
   -0.5330    1.2664   -0.1317 C   0  0  0  0  0  0  0  0  0  0  0  0
   -1.5555    0.6810   -1.4779 S   0  0  0  0  0  6  0  0  0  0  0  0
   -1.0393   -0.5980   -1.9194 O   0  0  0  0  0  0  0  0  0  0  0  0
   -1.7142    1.7630   -2.4256 O   0  0  0  0  0  0  0  0  0  0  0  0
   -3.0599    0.4009   -0.7181 N   0  0  0  0  0  0  0  0  0  0  0  0
   -4.1623    0.1836   -1.6825 C   0  0  0  0  0  0  0  0  0  0  0  0
   -3.0644   -0.5917    0.3936 C   0  0  0  0  0  0  0  0  0  0  0  0
   -2.4701   -1.9489    0.1047 C   0  0  0  0  0  0  0  0  0  0  0  0
   -1.4560   -2.4093    0.6074 O   0  0  0  0  0  0  0  0  0  0  0  0
   -3.1791   -2.6585   -0.7970 O   0  0  0  0  0  0  0  0  0  0  0  0
   -2.6435    3.1214   -0.2730 H   0  0  0  0  0  0  0  0  0  0  0  0
   -1.3023    4.0200   -1.0488 H   0  0  0  0  0  0  0  0  0  0  0  0
   -1.8084    4.3822    0.6075 H   0  0  0  0  0  0  0  0  0  0  0  0
    0.1343    3.9619    1.8533 H   0  0  0  0  0  0  0  0  0  0  0  0
    1.7964    2.3994    2.7666 H   0  0  0  0  0  0  0  0  0  0  0  0
    4.4677    0.0607    0.0712 H   0  0  0  0  0  0  0  0  0  0  0  0
    5.2850   -1.4228   -1.7346 H   0  0  0  0  0  0  0  0  0  0  0  0
    2.5760   -4.5168   -0.4416 H   0  0  0  0  0  0  0  0  0  0  0  0
    1.7444   -3.0470    1.3653 H   0  0  0  0  0  0  0  0  0  0  0  0
    0.5071   -0.6266   -0.0218 H   0  0  0  0  0  0  0  0  0  0  0  0
   -4.3124    1.0846   -2.2853 H   0  0  0  0  0  0  0  0  0  0  0  0
   -5.1018   -0.0018   -1.1510 H   0  0  0  0  0  0  0  0  0  0  0  0
   -3.9594   -0.6651   -2.3418 H   0  0  0  0  0  0  0  0  0  0  0  0
   -2.5321   -0.1607    1.2492 H   0  0  0  0  0  0  0  0  0  0  0  0
   -4.0883   -0.7458    0.7543 H   0  0  0  0  0  0  0  0  0  0  0  0
   -2.6436   -3.4673   -0.9473 H   0  0  0  0  0  0  0  0  0  0  0  0
  1  2  1  0
  2  3  2  0
  3  4  1  0
  4  5  2  0
  5  6  1  0
  6  7  2  0
  6  8  2  0
  6  9  1  0
  9 10  2  0
 10 11  1  0
 11 12  2  0
 12 13  1  0
 12 14  1  0
 14 15  2  0
  5 16  1  0
 16 17  2  0
 17 18  1  0
 18 19  2  0
 18 20  2  0
 18 21  1  0
 21 22  1  0
 21 23  1  0
 23 24  1  0
 24 25  2  0
 24 26  1  0
 17  2  1  0
 15  9  1  0
  1 27  1  0
  1 28  1  0
  1 29  1  0
  3 30  1  0
  4 31  1  0
 10 32  1  0
 11 33  1  0
 14 34  1  0
 15 35  1  0
 16 36  1  0
 22 37  1  0
 22 38  1  0
 22 39  1  0
 23 40  1  0
 23 41  1  0
 26 42  1  0
M  END
$$$$
