
     RDKit          3D

 52 57  0  0  0  0  0  0  0  0999 V2000
   -5.9989   -2.4014   -0.7358 C   0  0  0  0  0  0  0  0  0  0  0  0
   -4.6406   -1.8216   -0.4559 C   0  0  0  0  0  0  0  0  0  0  0  0
   -4.0453   -0.9443   -1.3764 C   0  0  0  0  0  0  0  0  0  0  0  0
   -2.7749   -0.4240   -1.1345 C   0  0  0  0  0  0  0  0  0  0  0  0
   -2.1133   -0.8066    0.0261 C   0  0  0  0  0  0  0  0  0  0  0  0
   -0.7910   -0.2686    0.2745 N   0  0  0  0  0  0  0  0  0  0  0  0
   -0.4326    1.0882    0.3817 C   0  0  0  0  0  0  0  0  0  0  0  0
   -1.3268    2.3855    0.5447 C   0  0  0  0  0  0  0  0  0  0  0  0
   -0.7425    3.6511    0.3895 C   0  0  0  0  0  0  0  0  0  0  0  0
   -1.5142    4.8091    0.5326 C   0  0  0  0  0  0  0  0  0  0  0  0
   -2.8674    4.7063    0.8408 C   0  0  0  0  0  0  0  0  0  0  0  0
   -3.9098    6.2690    1.0351 Br  0  0  0  0  0  0  0  0  0  0  0  0
   -3.4536    3.4558    1.0132 C   0  0  0  0  0  0  0  0  0  0  0  0
   -2.6832    2.2964    0.8694 C   0  0  0  0  0  0  0  0  0  0  0  0
    0.9481    1.0862    0.3548 C   0  0  0  0  0  0  0  0  0  0  0  0
    1.3912   -0.2193    0.2787 N   0  0  0  0  0  4  0  0  0  0  0  0
    0.3218   -1.0338    0.2517 C   0  0  0  0  0  0  0  0  0  0  0  0
    0.4593   -2.5139    0.0988 C   0  0  0  0  0  0  0  0  0  0  0  0
    1.7402   -3.0139    0.7347 C   0  0  0  0  0  0  0  0  0  0  0  0
    2.9106   -2.1341    0.3821 C   0  0  0  0  0  0  0  0  0  0  0  0
    4.1878   -2.6911    0.3303 C   0  0  0  0  0  0  0  0  0  0  0  0
    5.2897   -1.8813    0.0680 C   0  0  0  0  0  0  0  0  0  0  0  0
    5.1399   -0.5001   -0.1406 C   0  0  0  0  0  0  0  0  0  0  0  0
    6.2627    0.2923   -0.4140 C   0  0  0  0  0  0  0  0  0  0  0  0
    6.1195    1.6541   -0.6333 C   0  0  0  0  0  0  0  0  0  0  0  0
    4.8496    2.1823   -0.5721 C   0  0  0  0  0  0  0  0  0  0  0  0
    3.7434    1.4489   -0.3069 N   0  0  0  0  0  0  0  0  0  0  0  0
    3.8681    0.1128   -0.0839 C   0  0  0  0  0  0  0  0  0  0  0  0
    2.7769   -0.7429    0.1909 C   0  0  0  0  0  0  0  0  0  0  0  0
   -2.6672   -1.6802    0.9526 C   0  0  0  0  0  0  0  0  0  0  0  0
   -3.9393   -2.1933    0.7026 C   0  0  0  0  0  0  0  0  0  0  0  0
   -6.6111   -1.6999   -1.3123 H   0  0  0  0  0  0  0  0  0  0  0  0
   -5.8977   -3.3324   -1.3018 H   0  0  0  0  0  0  0  0  0  0  0  0
   -6.5340   -2.6091    0.1967 H   0  0  0  0  0  0  0  0  0  0  0  0
   -4.5762   -0.6630   -2.2853 H   0  0  0  0  0  0  0  0  0  0  0  0
   -2.3211    0.2548   -1.8489 H   0  0  0  0  0  0  0  0  0  0  0  0
    0.3073    3.7755    0.1374 H   0  0  0  0  0  0  0  0  0  0  0  0
   -1.0519    5.7852    0.4003 H   0  0  0  0  0  0  0  0  0  0  0  0
   -4.5079    3.3721    1.2694 H   0  0  0  0  0  0  0  0  0  0  0  0
   -3.1740    1.3481    1.0554 H   0  0  0  0  0  0  0  0  0  0  0  0
    1.6591    1.8880    0.4352 H   0  0  0  0  0  0  0  0  0  0  0  0
    0.4528   -2.6837   -0.9832 H   0  0  0  0  0  0  0  0  0  0  0  0
   -0.4047   -3.0039    0.5459 H   0  0  0  0  0  0  0  0  0  0  0  0
    1.6373   -3.0108    1.8270 H   0  0  0  0  0  0  0  0  0  0  0  0
    1.9174   -4.0486    0.4199 H   0  0  0  0  0  0  0  0  0  0  0  0
    4.3429   -3.7565    0.4984 H   0  0  0  0  0  0  0  0  0  0  0  0
    6.2783   -2.3398    0.0278 H   0  0  0  0  0  0  0  0  0  0  0  0
    7.2581   -0.1461   -0.4624 H   0  0  0  0  0  0  0  0  0  0  0  0
    6.9773    2.2825   -0.8488 H   0  0  0  0  0  0  0  0  0  0  0  0
    4.6796    3.2428   -0.7401 H   0  0  0  0  0  0  0  0  0  0  0  0
   -2.1471   -1.9441    1.8670 H   0  0  0  0  0  0  0  0  0  0  0  0
   -4.3929   -2.8787    1.4177 H   0  0  0  0  0  0  0  0  0  0  0  0
  1  2  1  0
  2  3  2  0
  3  4  1  0
  4  5  2  0
  5  6  1  0
  6  7  1  0
  7  8  1  0
  8  9  2  0
  9 10  1  0
 10 11  2  0
 11 12  1  0
 11 13  1  0
 13 14  2  0
  7 15  2  0
 15 16  1  0
 16 17  2  0
 17 18  1  0
 18 19  1  0
 19 20  1  0
 20 21  2  0
 21 22  1  0
 22 23  2  0
 23 24  1  0
 24 25  2  0
 25 26  1  0
 26 27  2  0
 27 28  1  0
 28 29  2  0
  5 30  1  0
 30 31  2  0
 31  2  1  0
 17  6  1  0
 29 20  1  0
 14  8  1  0
 29 16  1  0
 28 23  1  0
  1 32  1  0
  1 33  1  0
  1 34  1  0
  3 35  1  0
  4 36  1  0
  9 37  1  0
 10 38  1  0
 13 39  1  0
 14 40  1  0
 15 41  1  0
 18 42  1  0
 18 43  1  0
 19 44  1  0
 19 45  1  0
 21 46  1  0
 22 47  1  0
 24 48  1  0
 25 49  1  0
 26 50  1  0
 30 51  1  0
 31 52  1  0
M  CHG  1  16   1
M  END
$$$$
