
     RDKit          3D

 38 42  0  0  0  0  0  0  0  0999 V2000
    0.0994    1.9839   -1.8576 O   0  0  0  0  0  0  0  0  0  0  0  0
   -0.2828    1.1566   -0.8932 C   0  0  0  0  0  0  0  0  0  0  0  0
   -1.4810    0.5443   -0.6398 C   0  0  0  0  0  0  0  0  0  0  0  0
   -1.3285   -0.2413    0.5499 C   0  0  0  0  0  0  0  0  0  0  0  0
   -0.0392   -0.1168    0.9906 C   0  0  0  0  0  0  0  0  0  0  0  0
    0.5501   -0.6835    2.0372 O   0  0  0  0  0  0  0  0  0  0  0  0
    0.5914    0.7646    0.1153 N   0  0  0  0  0  0  0  0  0  0  0  0
    1.9372    1.3109    0.2798 C   0  0  0  0  0  0  0  0  0  0  0  0
    3.0212    0.2824    0.0563 C   0  0  0  0  0  0  0  0  0  0  0  0
    4.0424    0.1196    1.0056 C   0  0  0  0  0  0  0  0  0  0  0  0
    5.0554   -0.8194    0.8040 C   0  0  0  0  0  0  0  0  0  0  0  0
    5.0661   -1.5975   -0.3516 C   0  0  0  0  0  0  0  0  0  0  0  0
    4.0683   -1.4336   -1.3099 C   0  0  0  0  0  0  0  0  0  0  0  0
    3.0548   -0.4950   -1.1111 C   0  0  0  0  0  0  0  0  0  0  0  0
   -2.5889   -0.9827    0.9588 C   0  0  0  0  0  0  0  0  0  0  0  0
   -2.9805   -1.8022   -0.3079 C   0  0  0  0  0  0  0  0  0  0  0  0
   -3.1287   -1.0569   -1.4362 C   0  0  0  0  0  0  0  0  0  0  0  0
   -2.8783    0.4658   -1.2348 C   0  0  0  0  0  0  0  0  0  0  0  0
   -3.9227    0.8959   -0.1539 C   0  0  0  0  0  0  0  0  0  0  0  0
   -3.6024    1.5544    1.1721 C   0  0  0  0  0  0  0  0  0  0  0  0
   -3.7548    0.0479    1.1290 C   0  0  0  0  0  0  0  0  0  0  0  0
   -0.6706    2.1167   -2.4382 H   0  0  0  0  0  0  0  0  0  0  0  0
    1.5095   -0.7133    1.8823 H   0  0  0  0  0  0  0  0  0  0  0  0
    1.9763    1.7156    1.2985 H   0  0  0  0  0  0  0  0  0  0  0  0
    2.0787    2.1496   -0.4096 H   0  0  0  0  0  0  0  0  0  0  0  0
    4.0594    0.7244    1.9103 H   0  0  0  0  0  0  0  0  0  0  0  0
    5.8400   -0.9415    1.5465 H   0  0  0  0  0  0  0  0  0  0  0  0
    5.8553   -2.3282   -0.5088 H   0  0  0  0  0  0  0  0  0  0  0  0
    4.0787   -2.0356   -2.2150 H   0  0  0  0  0  0  0  0  0  0  0  0
    2.2862   -0.3766   -1.8737 H   0  0  0  0  0  0  0  0  0  0  0  0
   -2.4568   -1.6114    1.8422 H   0  0  0  0  0  0  0  0  0  0  0  0
   -3.1023   -2.8754   -0.2646 H   0  0  0  0  0  0  0  0  0  0  0  0
   -3.3859   -1.4652   -2.4034 H   0  0  0  0  0  0  0  0  0  0  0  0
   -2.9840    1.0335   -2.1620 H   0  0  0  0  0  0  0  0  0  0  0  0
   -4.9219    0.9984   -0.5585 H   0  0  0  0  0  0  0  0  0  0  0  0
   -2.6243    1.9889    1.3396 H   0  0  0  0  0  0  0  0  0  0  0  0
   -4.3936    2.1208    1.6535 H   0  0  0  0  0  0  0  0  0  0  0  0
   -4.6430   -0.3981    1.5586 H   0  0  0  0  0  0  0  0  0  0  0  0
  1  2  1  0
  2  3  2  0
  3  4  1  0
  4  5  2  0
  5  6  1  0
  5  7  1  0
  7  8  1  0
  8  9  1  0
  9 10  2  0
 10 11  1  0
 11 12  2  0
 12 13  1  0
 13 14  2  0
  4 15  1  0
 15 16  1  0
 16 17  2  0
 17 18  1  0
 18 19  1  0
 19 20  1  0
 20 21  1  0
  7  2  1  0
 14  9  1  0
 21 15  1  0
 18  3  1  0
 21 19  1  0
  1 22  1  0
  6 23  1  0
  8 24  1  0
  8 25  1  0
 10 26  1  0
 11 27  1  0
 12 28  1  0
 13 29  1  0
 14 30  1  0
 15 31  1  0
 16 32  1  0
 17 33  1  0
 18 34  1  0
 19 35  1  0
 20 36  1  0
 20 37  1  0
 21 38  1  0
M  END
$$$$
