
     RDKit          3D

 43 46  0  0  0  0  0  0  0  0999 V2000
   -2.8854    5.4644   -0.1956 N   0  0  0  0  0  0  0  0  0  0  0  0
   -2.1466    4.5800   -0.3271 C   0  0  0  0  0  0  0  0  0  0  0  0
   -1.2340    3.4465   -0.4930 C   0  0  0  0  0  0  0  0  0  0  0  0
   -1.9097    2.3455   -1.2952 C   0  0  0  0  0  0  0  0  0  0  0  0
   -1.0579    1.1778   -1.4101 N   0  0  0  0  0  0  0  0  0  0  0  0
   -1.2411   -0.0279   -0.8079 C   0  0  0  0  0  0  0  0  0  0  0  0
   -0.1645   -0.8014   -1.1783 C   0  0  0  0  0  0  0  0  0  0  0  0
    0.0483   -2.1685   -0.8171 C   0  0  0  0  0  0  0  0  0  0  0  0
   -0.0941   -2.7456    0.3947 C   0  0  0  0  0  0  0  0  0  0  0  0
    0.1623   -4.1395    0.5468 C   0  0  0  0  0  0  0  0  0  0  0  0
    0.4000   -5.2712    0.6456 N   0  0  0  0  0  0  0  0  0  0  0  0
   -0.4706   -1.9973    1.5468 C   0  0  0  0  0  0  0  0  0  0  0  0
   -1.6929   -1.8625    2.0226 N   0  0  0  0  0  0  0  0  0  0  0  0
   -1.6945   -1.0523    3.1457 C   0  0  0  0  0  0  0  0  0  0  0  0
   -2.8287   -0.6889    3.8993 C   0  0  0  0  0  0  0  0  0  0  0  0
   -2.6857    0.1468    5.0117 C   0  0  0  0  0  0  0  0  0  0  0  0
   -1.4306    0.6207    5.3797 C   0  0  0  0  0  0  0  0  0  0  0  0
   -0.2902    0.2725    4.6493 C   0  0  0  0  0  0  0  0  0  0  0  0
   -0.4462   -0.5665    3.5335 C   0  0  0  0  0  0  0  0  0  0  0  0
    0.7484   -1.1640    2.4512 S   0  0  0  0  0  0  0  0  0  0  0  0
    0.6187    0.0295   -2.0381 C   0  0  0  0  0  0  0  0  0  0  0  0
    1.8733   -0.2746   -2.7270 C   0  0  0  0  0  0  0  0  0  0  0  0
    2.9147   -0.9488   -2.0707 C   0  0  0  0  0  0  0  0  0  0  0  0
    4.1052   -1.2338   -2.7447 C   0  0  0  0  0  0  0  0  0  0  0  0
    4.2566   -0.8393   -4.0690 C   0  0  0  0  0  0  0  0  0  0  0  0
    5.3993   -1.1128   -4.7115 F   0  0  0  0  0  0  0  0  0  0  0  0
    3.2430   -0.1601   -4.7331 C   0  0  0  0  0  0  0  0  0  0  0  0
    2.0525    0.1257   -4.0611 C   0  0  0  0  0  0  0  0  0  0  0  0
    0.0463    1.2391   -2.1690 N   0  0  0  0  0  0  0  0  0  0  0  0
   -0.9338    3.0675    0.4915 H   0  0  0  0  0  0  0  0  0  0  0  0
   -0.3178    3.7807   -0.9938 H   0  0  0  0  0  0  0  0  0  0  0  0
   -2.8482    2.0295   -0.8237 H   0  0  0  0  0  0  0  0  0  0  0  0
   -2.1474    2.6755   -2.3139 H   0  0  0  0  0  0  0  0  0  0  0  0
   -2.1077   -0.2315   -0.1920 H   0  0  0  0  0  0  0  0  0  0  0  0
    0.3878   -2.8035   -1.6377 H   0  0  0  0  0  0  0  0  0  0  0  0
   -3.8064   -1.0631    3.6117 H   0  0  0  0  0  0  0  0  0  0  0  0
   -3.5627    0.4238    5.5925 H   0  0  0  0  0  0  0  0  0  0  0  0
   -1.3330    1.2681    6.2493 H   0  0  0  0  0  0  0  0  0  0  0  0
    0.6890    0.6406    4.9410 H   0  0  0  0  0  0  0  0  0  0  0  0
    2.8213   -1.2388   -1.0275 H   0  0  0  0  0  0  0  0  0  0  0  0
    4.9169   -1.7524   -2.2441 H   0  0  0  0  0  0  0  0  0  0  0  0
    3.3845    0.1462   -5.7645 H   0  0  0  0  0  0  0  0  0  0  0  0
    1.2615    0.6641   -4.5801 H   0  0  0  0  0  0  0  0  0  0  0  0
  1  2  3  0
  2  3  1  0
  3  4  1  0
  4  5  1  0
  5  6  1  0
  6  7  2  0
  7  8  1  0
  8  9  2  3
  9 10  1  0
 10 11  3  0
  9 12  1  0
 12 13  2  0
 13 14  1  0
 14 15  2  0
 15 16  1  0
 16 17  2  0
 17 18  1  0
 18 19  2  0
 19 20  1  0
  7 21  1  0
 21 22  1  0
 22 23  2  0
 23 24  1  0
 24 25  2  0
 25 26  1  0
 25 27  1  0
 27 28  2  0
 21 29  2  0
 29  5  1  0
 20 12  1  0
 28 22  1  0
 19 14  1  0
  3 30  1  0
  3 31  1  0
  4 32  1  0
  4 33  1  0
  6 34  1  0
  8 35  1  0
 15 36  1  0
 16 37  1  0
 17 38  1  0
 18 39  1  0
 23 40  1  0
 24 41  1  0
 27 42  1  0
 28 43  1  0
M  END
$$$$
