
     RDKit          3D

 48 50  0  0  0  0  0  0  0  0999 V2000
    2.9657    1.7669    0.3620 C   0  0  0  0  0  0  0  0  0  0  0  0
    1.7186    1.3271    0.5860 C   0  0  0  0  0  0  0  0  0  0  0  0
    0.7555    1.9788    1.4703 C   0  0  0  0  0  0  0  0  0  0  0  0
    1.0255    3.1329    2.3395 C   0  0  0  0  0  0  0  0  0  0  0  0
    2.0466    3.2706    2.9990 O   0  0  0  0  0  0  0  0  0  0  0  0
    0.0159    4.0377    2.2511 O   0  0  0  0  0  0  0  0  0  0  0  0
    0.2002    5.1947    3.0646 C   0  0  0  0  0  0  0  0  0  0  0  0
   -0.4066    1.3046    1.4116 C   0  0  0  0  0  0  0  0  0  0  0  0
   -1.5077    1.5441    2.1860 O   0  0  0  0  0  0  0  0  0  0  0  0
   -0.2856    0.1799    0.4719 C   0  0  0  0  0  0  0  0  0  0  0  0
   -1.2212   -0.7263    0.1224 C   0  0  0  0  0  0  0  0  0  0  0  0
   -2.6284   -0.7822    0.5185 C   0  0  0  0  0  0  0  0  0  0  0  0
   -3.5421    0.1695    0.0475 C   0  0  0  0  0  0  0  0  0  0  0  0
   -4.8817    0.1139    0.4392 C   0  0  0  0  0  0  0  0  0  0  0  0
   -5.3011   -0.8991    1.2955 C   0  0  0  0  0  0  0  0  0  0  0  0
   -6.5976   -0.9911    1.7055 O   0  0  0  0  0  0  0  0  0  0  0  0
   -4.4062   -1.8550    1.7627 C   0  0  0  0  0  0  0  0  0  0  0  0
   -3.0675   -1.7998    1.3722 C   0  0  0  0  0  0  0  0  0  0  0  0
    1.0508    0.2299    0.0198 N   0  0  0  0  0  0  0  0  0  0  0  0
    1.6199   -0.6338   -0.9531 C   0  0  0  0  0  0  0  0  0  0  0  0
    2.7356   -1.4244   -0.6375 C   0  0  0  0  0  0  0  0  0  0  0  0
    3.3171   -2.2719   -1.5896 C   0  0  0  0  0  0  0  0  0  0  0  0
    4.4909   -3.1307   -1.2228 C   0  0  0  0  0  0  0  0  0  0  0  0
    2.7537   -2.3479   -2.8690 C   0  0  0  0  0  0  0  0  0  0  0  0
    1.6339   -1.5781   -3.2063 C   0  0  0  0  0  0  0  0  0  0  0  0
    1.0659   -1.6287   -4.5936 C   0  0  0  0  0  0  0  0  0  0  0  0
    1.0858   -0.7148   -2.2484 C   0  0  0  0  0  0  0  0  0  0  0  0
    3.3671    2.6454    0.8569 H   0  0  0  0  0  0  0  0  0  0  0  0
    3.6294    1.2636   -0.3318 H   0  0  0  0  0  0  0  0  0  0  0  0
   -0.6732    5.8405    2.9389 H   0  0  0  0  0  0  0  0  0  0  0  0
    1.0890    5.7489    2.7466 H   0  0  0  0  0  0  0  0  0  0  0  0
    0.2743    4.9153    4.1204 H   0  0  0  0  0  0  0  0  0  0  0  0
   -2.0719    0.7541    2.1873 H   0  0  0  0  0  0  0  0  0  0  0  0
   -0.9469   -1.5386   -0.5480 H   0  0  0  0  0  0  0  0  0  0  0  0
   -3.2143    0.9631   -0.6214 H   0  0  0  0  0  0  0  0  0  0  0  0
   -5.5746    0.8630    0.0689 H   0  0  0  0  0  0  0  0  0  0  0  0
   -7.1059   -0.2695    1.2998 H   0  0  0  0  0  0  0  0  0  0  0  0
   -4.7507   -2.6424    2.4277 H   0  0  0  0  0  0  0  0  0  0  0  0
   -2.3739   -2.5525    1.7410 H   0  0  0  0  0  0  0  0  0  0  0  0
    3.1482   -1.3803    0.3686 H   0  0  0  0  0  0  0  0  0  0  0  0
    5.1263   -3.3173   -2.0949 H   0  0  0  0  0  0  0  0  0  0  0  0
    5.1133   -2.6395   -0.4676 H   0  0  0  0  0  0  0  0  0  0  0  0
    4.1434   -4.0896   -0.8263 H   0  0  0  0  0  0  0  0  0  0  0  0
    3.1931   -3.0123   -3.6111 H   0  0  0  0  0  0  0  0  0  0  0  0
   -0.0132   -1.4424   -4.5802 H   0  0  0  0  0  0  0  0  0  0  0  0
    1.2188   -2.6154   -5.0433 H   0  0  0  0  0  0  0  0  0  0  0  0
    1.5480   -0.8744   -5.2230 H   0  0  0  0  0  0  0  0  0  0  0  0
    0.2380   -0.0866   -2.5137 H   0  0  0  0  0  0  0  0  0  0  0  0
  1  2  2  0
  2  3  1  0
  3  4  1  0
  4  5  2  0
  4  6  1  0
  6  7  1  0
  3  8  2  0
  8  9  1  0
  8 10  1  0
 10 11  2  3
 11 12  1  0
 12 13  2  0
 13 14  1  0
 14 15  2  0
 15 16  1  0
 15 17  1  0
 17 18  2  0
 10 19  1  0
 19 20  1  0
 20 21  2  0
 21 22  1  0
 22 23  1  0
 22 24  2  0
 24 25  1  0
 25 26  1  0
 25 27  2  0
 19  2  1  0
 27 20  1  0
 18 12  1  0
  1 28  1  0
  1 29  1  0
  7 30  1  0
  7 31  1  0
  7 32  1  0
  9 33  1  0
 11 34  1  0
 13 35  1  0
 14 36  1  0
 16 37  1  0
 17 38  1  0
 18 39  1  0
 21 40  1  0
 23 41  1  0
 23 42  1  0
 23 43  1  0
 24 44  1  0
 26 45  1  0
 26 46  1  0
 26 47  1  0
 27 48  1  0
M  END
$$$$
