
     RDKit          3D

 60 63  0  0  0  0  0  0  0  0999 V2000
   -3.9383   -0.5456   -4.0056 C   0  0  0  0  0  0  0  0  0  0  0  0
   -3.4779   -1.3233   -2.9037 O   0  0  0  0  0  0  0  0  0  0  0  0
   -2.8697   -0.5941   -1.9180 C   0  0  0  0  0  0  0  0  0  0  0  0
   -1.9490    0.4181   -2.1768 C   0  0  0  0  0  0  0  0  0  0  0  0
   -1.3524    1.1098   -1.1161 C   0  0  0  0  0  0  0  0  0  0  0  0
   -0.4154    2.0694   -1.4039 O   0  0  0  0  0  0  0  0  0  0  0  0
   -1.0458    3.2806   -1.8370 C   0  0  0  0  0  0  0  0  0  0  0  0
   -1.6194    0.7805    0.2220 C   0  0  0  0  0  0  0  0  0  0  0  0
   -0.8945    1.4945    1.3526 C   0  0  0  0  0  0  0  0  0  0  0  0
   -0.0903    0.6105    2.3218 C   0  0  0  0  0  0  0  0  0  0  0  0
    0.7265   -0.4019    1.5418 C   0  0  0  0  0  0  0  0  0  0  0  0
    0.3423   -1.5566    1.3970 O   0  0  0  0  0  0  0  0  0  0  0  0
    1.9077    0.1297    1.0501 N   0  0  0  0  0  0  0  0  0  0  0  0
    2.8477   -0.5294    0.2221 C   0  0  0  0  0  0  0  0  0  0  0  0
    2.5111   -1.6673   -0.5193 C   0  0  0  0  0  0  0  0  0  0  0  0
    3.4540   -2.2986   -1.3367 C   0  0  0  0  0  0  0  0  0  0  0  0
    4.7582   -1.8137   -1.4178 C   0  0  0  0  0  0  0  0  0  0  0  0
    5.7702   -2.4800   -2.3021 C   0  0  0  0  0  0  0  0  0  0  0  0
    5.0948   -0.6578   -0.7031 C   0  0  0  0  0  0  0  0  0  0  0  0
    4.1551   -0.0057    0.1181 C   0  0  0  0  0  0  0  0  0  0  0  0
    4.6009    1.2195    0.8736 C   0  0  0  0  0  0  0  0  0  0  0  0
   -0.9794    0.0630    3.4369 C   0  0  0  0  0  0  0  0  0  0  0  0
   -0.6138   -1.2358    4.1148 C   0  0  0  0  0  0  0  0  0  0  0  0
   -2.0135    0.7026    3.9041 N   0  0  0  0  0  0  0  0  0  0  0  0
   -2.3224    1.8991    3.3501 C   0  0  0  0  0  0  0  0  0  0  0  0
   -3.0681    2.8774    3.8146 N   0  0  0  0  0  0  0  0  0  0  0  0
   -2.9717    3.8464    2.8518 C   0  0  0  0  0  0  0  0  0  0  0  0
   -2.1920    3.5468    1.8061 N   0  0  0  0  0  0  0  0  0  0  0  0
   -1.8371    2.2900    2.1253 N   0  0  0  0  0  0  0  0  0  0  0  0
   -2.5540   -0.2399    0.4678 C   0  0  0  0  0  0  0  0  0  0  0  0
   -3.1438   -0.9353   -0.5920 C   0  0  0  0  0  0  0  0  0  0  0  0
   -4.0523   -1.9182   -0.2903 O   0  0  0  0  0  0  0  0  0  0  0  0
   -3.3878   -3.1826   -0.2263 C   0  0  0  0  0  0  0  0  0  0  0  0
   -4.6503   -1.1558   -4.5651 H   0  0  0  0  0  0  0  0  0  0  0  0
   -4.4613    0.3592   -3.6759 H   0  0  0  0  0  0  0  0  0  0  0  0
   -3.1118   -0.2947   -4.6762 H   0  0  0  0  0  0  0  0  0  0  0  0
   -1.6618    0.6620   -3.1940 H   0  0  0  0  0  0  0  0  0  0  0  0
   -0.2626    3.9398   -2.2172 H   0  0  0  0  0  0  0  0  0  0  0  0
   -1.5277    3.7832   -0.9943 H   0  0  0  0  0  0  0  0  0  0  0  0
   -1.7679    3.1154   -2.6430 H   0  0  0  0  0  0  0  0  0  0  0  0
   -0.1870    2.2211    0.9346 H   0  0  0  0  0  0  0  0  0  0  0  0
    0.6204    1.2519    2.8686 H   0  0  0  0  0  0  0  0  0  0  0  0
    2.2109    1.0134    1.4329 H   0  0  0  0  0  0  0  0  0  0  0  0
    1.5034   -2.0785   -0.5041 H   0  0  0  0  0  0  0  0  0  0  0  0
    3.1533   -3.1748   -1.9073 H   0  0  0  0  0  0  0  0  0  0  0  0
    5.8346   -1.9560   -3.2618 H   0  0  0  0  0  0  0  0  0  0  0  0
    6.7562   -2.4783   -1.8254 H   0  0  0  0  0  0  0  0  0  0  0  0
    5.5033   -3.5266   -2.4891 H   0  0  0  0  0  0  0  0  0  0  0  0
    6.1103   -0.2626   -0.7838 H   0  0  0  0  0  0  0  0  0  0  0  0
    4.4660    1.0722    1.9514 H   0  0  0  0  0  0  0  0  0  0  0  0
    5.6622    1.4359    0.7077 H   0  0  0  0  0  0  0  0  0  0  0  0
    4.0320    2.0966    0.5476 H   0  0  0  0  0  0  0  0  0  0  0  0
   -1.0539   -1.2729    5.1160 H   0  0  0  0  0  0  0  0  0  0  0  0
   -1.0031   -2.0722    3.5322 H   0  0  0  0  0  0  0  0  0  0  0  0
    0.4716   -1.3208    4.2102 H   0  0  0  0  0  0  0  0  0  0  0  0
   -3.4772    4.8001    2.9251 H   0  0  0  0  0  0  0  0  0  0  0  0
   -2.8346   -0.5286    1.4764 H   0  0  0  0  0  0  0  0  0  0  0  0
   -4.1450   -3.9473   -0.0273 H   0  0  0  0  0  0  0  0  0  0  0  0
   -2.6622   -3.2024    0.5938 H   0  0  0  0  0  0  0  0  0  0  0  0
   -2.8979   -3.4314   -1.1731 H   0  0  0  0  0  0  0  0  0  0  0  0
  1  2  1  0
  2  3  1  0
  3  4  2  0
  4  5  1  0
  5  6  1  0
  6  7  1  0
  5  8  2  0
  8  9  1  0
  9 10  1  0
 10 11  1  0
 11 12  2  0
 11 13  1  0
 13 14  1  0
 14 15  2  0
 15 16  1  0
 16 17  2  0
 17 18  1  0
 17 19  1  0
 19 20  2  0
 20 21  1  0
 10 22  1  0
 22 23  1  0
 22 24  2  0
 24 25  1  0
 25 26  2  0
 26 27  1  0
 27 28  2  0
 28 29  1  0
  8 30  1  0
 30 31  2  0
 31 32  1  0
 32 33  1  0
 31  3  1  0
 29  9  1  0
 20 14  1  0
 29 25  1  0
  1 34  1  0
  1 35  1  0
  1 36  1  0
  4 37  1  0
  7 38  1  0
  7 39  1  0
  7 40  1  0
  9 41  1  0
 10 42  1  0
 13 43  1  0
 15 44  1  0
 16 45  1  0
 18 46  1  0
 18 47  1  0
 18 48  1  0
 19 49  1  0
 21 50  1  0
 21 51  1  0
 21 52  1  0
 23 53  1  0
 23 54  1  0
 23 55  1  0
 27 56  1  0
 30 57  1  0
 33 58  1  0
 33 59  1  0
 33 60  1  0
M  END
$$$$
