
     RDKit          3D

 57 61  0  0  0  0  0  0  0  0999 V2000
   -7.0244   -4.0155    1.2673 C   0  0  0  0  0  0  0  0  0  0  0  0
   -6.1561   -2.8501    0.8979 C   0  0  0  0  0  0  0  0  0  0  0  0
   -4.7731   -2.9981    0.7717 C   0  0  0  0  0  0  0  0  0  0  0  0
   -3.9713   -1.9110    0.4005 C   0  0  0  0  0  0  0  0  0  0  0  0
   -4.5254   -0.6450    0.1384 C   0  0  0  0  0  0  0  0  0  0  0  0
   -3.6964    0.5174   -0.2476 C   0  0  0  0  0  0  0  0  0  0  0  0
   -2.3880    0.6853    0.1708 C   0  0  0  0  0  0  0  0  0  0  0  0
   -1.7011    1.8220   -0.2537 C   0  0  0  0  0  0  0  0  0  0  0  0
   -0.2973    1.9590    0.1772 C   0  0  0  0  0  0  0  0  0  0  0  0
   -0.0540    2.6676    1.1427 O   0  0  0  0  0  0  0  0  0  0  0  0
    0.5787    1.2278   -0.5994 N   0  0  0  0  0  0  0  0  0  0  0  0
    1.9766    1.1304   -0.4475 C   0  0  0  0  0  0  0  0  0  0  0  0
    2.6986    1.7894    0.5514 C   0  0  0  0  0  0  0  0  0  0  0  0
    4.0872    1.6423    0.6386 C   0  0  0  0  0  0  0  0  0  0  0  0
    4.7549    0.8230   -0.2734 C   0  0  0  0  0  0  0  0  0  0  0  0
    6.5203    0.6617   -0.1671 S   0  0  0  0  0  6  0  0  0  0  0  0
    6.9946   -0.1490   -1.2692 O   0  0  0  0  0  0  0  0  0  0  0  0
    7.0401    2.0019    0.0247 O   0  0  0  0  0  0  0  0  0  0  0  0
    6.7594   -0.1322    1.2695 N   0  0  0  0  0  0  0  0  0  0  0  0
    6.6137   -1.5127    1.2772 C   0  0  0  0  0  0  0  0  0  0  0  0
    7.4498   -2.1256    2.1216 N   0  0  0  0  0  0  0  0  0  0  0  0
    7.2508   -3.4480    2.2741 C   0  0  0  0  0  0  0  0  0  0  0  0
    6.2384   -4.1395    1.6510 C   0  0  0  0  0  0  0  0  0  0  0  0
    5.4114   -3.3860    0.8512 C   0  0  0  0  0  0  0  0  0  0  0  0
    5.5641   -2.0622    0.6639 N   0  0  0  0  0  0  0  0  0  0  0  0
    4.0504    0.1672   -1.2827 C   0  0  0  0  0  0  0  0  0  0  0  0
    2.6638    0.3214   -1.3644 C   0  0  0  0  0  0  0  0  0  0  0  0
   -2.3083    2.7944   -1.0680 C   0  0  0  0  0  0  0  0  0  0  0  0
   -1.6746    3.9783   -1.5204 C   0  0  0  0  0  0  0  0  0  0  0  0
   -2.3528    4.8844   -2.3326 C   0  0  0  0  0  0  0  0  0  0  0  0
   -3.6642    4.6200   -2.7017 C   0  0  0  0  0  0  0  0  0  0  0  0
   -4.2892    3.4534   -2.2529 C   0  0  0  0  0  0  0  0  0  0  0  0
   -3.6371    2.5354   -1.4403 C   0  0  0  0  0  0  0  0  0  0  0  0
   -4.3013    1.4334   -1.0469 N   0  0  0  0  0  0  0  0  0  0  0  0
   -5.9225   -0.5236    0.2489 C   0  0  0  0  0  0  0  0  0  0  0  0
   -6.7272   -1.6063    0.6206 C   0  0  0  0  0  0  0  0  0  0  0  0
   -7.4758   -4.4462    0.3685 H   0  0  0  0  0  0  0  0  0  0  0  0
   -6.4466   -4.7947    1.7753 H   0  0  0  0  0  0  0  0  0  0  0  0
   -7.8195   -3.7018    1.9514 H   0  0  0  0  0  0  0  0  0  0  0  0
   -4.3056   -3.9624    0.9582 H   0  0  0  0  0  0  0  0  0  0  0  0
   -2.9019   -2.0811    0.3028 H   0  0  0  0  0  0  0  0  0  0  0  0
   -1.9064   -0.0258    0.8329 H   0  0  0  0  0  0  0  0  0  0  0  0
    0.1798    0.7141   -1.3765 H   0  0  0  0  0  0  0  0  0  0  0  0
    2.2109    2.4341    1.2769 H   0  0  0  0  0  0  0  0  0  0  0  0
    4.6362    2.1723    1.4143 H   0  0  0  0  0  0  0  0  0  0  0  0
    7.5630    0.1925    1.7931 H   0  0  0  0  0  0  0  0  0  0  0  0
    7.9477   -3.9501    2.9397 H   0  0  0  0  0  0  0  0  0  0  0  0
    6.0953   -5.2021    1.7903 H   0  0  0  0  0  0  0  0  0  0  0  0
    4.5732   -3.8354    0.3272 H   0  0  0  0  0  0  0  0  0  0  0  0
    4.5683   -0.4659   -1.9993 H   0  0  0  0  0  0  0  0  0  0  0  0
    2.1318   -0.2002   -2.1559 H   0  0  0  0  0  0  0  0  0  0  0  0
   -0.6503    4.2071   -1.2293 H   0  0  0  0  0  0  0  0  0  0  0  0
   -1.8596    5.7931   -2.6691 H   0  0  0  0  0  0  0  0  0  0  0  0
   -4.2077    5.3187   -3.3330 H   0  0  0  0  0  0  0  0  0  0  0  0
   -5.3183    3.2554   -2.5448 H   0  0  0  0  0  0  0  0  0  0  0  0
   -6.3995    0.4342    0.0442 H   0  0  0  0  0  0  0  0  0  0  0  0
   -7.8035   -1.4663    0.6904 H   0  0  0  0  0  0  0  0  0  0  0  0
  1  2  1  0
  2  3  2  0
  3  4  1  0
  4  5  2  0
  5  6  1  0
  6  7  2  0
  7  8  1  0
  8  9  1  0
  9 10  2  0
  9 11  1  0
 11 12  1  0
 12 13  2  0
 13 14  1  0
 14 15  2  0
 15 16  1  0
 16 17  2  0
 16 18  2  0
 16 19  1  0
 19 20  1  0
 20 21  2  0
 21 22  1  0
 22 23  2  0
 23 24  1  0
 24 25  2  0
 15 26  1  0
 26 27  2  0
  8 28  2  0
 28 29  1  0
 29 30  2  0
 30 31  1  0
 31 32  2  0
 32 33  1  0
 33 34  2  0
  5 35  1  0
 35 36  2  0
 36  2  1  0
 34  6  1  0
 27 12  1  0
 33 28  1  0
 25 20  1  0
  1 37  1  0
  1 38  1  0
  1 39  1  0
  3 40  1  0
  4 41  1  0
  7 42  1  0
 11 43  1  0
 13 44  1  0
 14 45  1  0
 19 46  1  0
 22 47  1  0
 23 48  1  0
 24 49  1  0
 26 50  1  0
 27 51  1  0
 29 52  1  0
 30 53  1  0
 31 54  1  0
 32 55  1  0
 35 56  1  0
 36 57  1  0
M  END
$$$$
