
     RDKit          3D

 39 41  0  0  0  0  0  0  0  0999 V2000
    2.8860    1.5867    1.3423 O   0  0  0  0  0  0  0  0  0  0  0  0
    2.0875    0.7256    0.9865 C   0  0  0  0  0  0  0  0  0  0  0  0
    2.3951   -0.3917    0.2439 N   0  0  0  0  0  0  0  0  0  0  0  0
    3.6650   -0.8409   -0.1894 C   0  0  0  0  0  0  0  0  0  0  0  0
    3.6662   -1.8367   -1.1788 C   0  0  0  0  0  0  0  0  0  0  0  0
    2.4974   -2.2973   -1.6527 F   0  0  0  0  0  0  0  0  0  0  0  0
    4.8433   -2.3602   -1.7033 C   0  0  0  0  0  0  0  0  0  0  0  0
    6.0539   -1.8894   -1.2224 C   0  0  0  0  0  0  0  0  0  0  0  0
    7.1968   -2.3842   -1.7136 F   0  0  0  0  0  0  0  0  0  0  0  0
    6.0975   -0.9233   -0.2276 C   0  0  0  0  0  0  0  0  0  0  0  0
    4.9071   -0.4091    0.2890 C   0  0  0  0  0  0  0  0  0  0  0  0
    5.0204    0.4546    1.3043 F   0  0  0  0  0  0  0  0  0  0  0  0
    0.6306    0.8765    1.3208 C   0  0  0  0  0  0  0  0  0  0  0  0
    0.2707    1.9180    2.0942 C   0  0  0  0  0  0  0  0  0  0  0  0
   -1.1012    2.1446    2.4668 C   0  0  0  0  0  0  0  0  0  0  0  0
   -2.0532    1.3053    2.0495 C   0  0  0  0  0  0  0  0  0  0  0  0
   -1.7455    0.2113    1.2593 N   0  0  0  0  0  0  0  0  0  0  0  0
   -2.8271   -0.6635    0.8033 C   0  0  0  0  0  0  0  0  0  0  0  0
   -3.5705   -0.0951   -0.3845 C   0  0  0  0  0  0  0  0  0  0  0  0
   -4.8249    0.5111   -0.2222 C   0  0  0  0  0  0  0  0  0  0  0  0
   -5.5009    1.0452   -1.3208 C   0  0  0  0  0  0  0  0  0  0  0  0
   -4.9305    0.9811   -2.5906 C   0  0  0  0  0  0  0  0  0  0  0  0
   -3.6839    0.3834   -2.7643 C   0  0  0  0  0  0  0  0  0  0  0  0
   -3.0065   -0.1513   -1.6676 C   0  0  0  0  0  0  0  0  0  0  0  0
   -0.4391   -0.0610    0.8459 C   0  0  0  0  0  0  0  0  0  0  0  0
   -0.1403   -1.0156    0.1263 O   0  0  0  0  0  0  0  0  0  0  0  0
    1.6033   -0.9323   -0.1179 H   0  0  0  0  0  0  0  0  0  0  0  0
    4.8126   -3.1217   -2.4737 H   0  0  0  0  0  0  0  0  0  0  0  0
    7.0497   -0.5779    0.1603 H   0  0  0  0  0  0  0  0  0  0  0  0
    1.0053    2.6291    2.4652 H   0  0  0  0  0  0  0  0  0  0  0  0
   -1.3380    3.0064    3.0827 H   0  0  0  0  0  0  0  0  0  0  0  0
   -3.0959    1.4587    2.3119 H   0  0  0  0  0  0  0  0  0  0  0  0
   -2.4309   -1.6511    0.5365 H   0  0  0  0  0  0  0  0  0  0  0  0
   -3.5140   -0.8360    1.6421 H   0  0  0  0  0  0  0  0  0  0  0  0
   -5.2858    0.5718    0.7608 H   0  0  0  0  0  0  0  0  0  0  0  0
   -6.4731    1.5124   -1.1866 H   0  0  0  0  0  0  0  0  0  0  0  0
   -5.4568    1.3976   -3.4455 H   0  0  0  0  0  0  0  0  0  0  0  0
   -3.2372    0.3337   -3.7540 H   0  0  0  0  0  0  0  0  0  0  0  0
   -2.0330   -0.6146   -1.8191 H   0  0  0  0  0  0  0  0  0  0  0  0
  1  2  2  0
  2  3  1  0
  3  4  1  0
  4  5  2  0
  5  6  1  0
  5  7  1  0
  7  8  2  0
  8  9  1  0
  8 10  1  0
 10 11  2  0
 11 12  1  0
  2 13  1  0
 13 14  2  0
 14 15  1  0
 15 16  2  0
 16 17  1  0
 17 18  1  0
 18 19  1  0
 19 20  2  0
 20 21  1  0
 21 22  2  0
 22 23  1  0
 23 24  2  0
 17 25  1  0
 25 26  2  0
 11  4  1  0
 25 13  1  0
 24 19  1  0
  3 27  1  0
  7 28  1  0
 10 29  1  0
 14 30  1  0
 15 31  1  0
 16 32  1  0
 18 33  1  0
 18 34  1  0
 20 35  1  0
 21 36  1  0
 22 37  1  0
 23 38  1  0
 24 39  1  0
M  END
$$$$
