
     RDKit          3D

 62 65  0  0  0  0  0  0  0  0999 V2000
   -6.3724   -2.0142   -3.2431 C   0  0  0  0  0  0  0  0  0  0  0  0
   -6.2460   -0.5998   -3.3370 O   0  0  0  0  0  0  0  0  0  0  0  0
   -6.1777    0.0439   -2.0690 C   0  0  0  0  0  0  0  0  0  0  0  0
   -4.7941   -0.0716   -1.5109 C   0  0  0  0  0  0  0  0  0  0  0  0
   -4.5199   -0.3328   -0.2228 C   0  0  0  0  0  0  0  0  0  0  0  0
   -3.1703   -0.4287    0.3129 C   0  0  0  0  0  0  0  0  0  0  0  0
   -2.3517   -1.3901   -0.1761 C   0  0  0  0  0  0  0  0  0  0  0  0
   -0.9910   -1.5249    0.3456 C   0  0  0  0  0  0  0  0  0  0  0  0
   -0.1856   -2.4801   -0.1403 C   0  0  0  0  0  0  0  0  0  0  0  0
    1.1944   -2.6703    0.3558 C   0  0  0  0  0  0  0  0  0  0  0  0
    1.8948   -3.5223   -0.1941 O   0  0  0  0  0  0  0  0  0  0  0  0
    1.6923   -1.8594    1.5553 C   0  0  0  0  0  0  0  0  0  0  0  0
    1.6656   -2.8140    2.7643 C   0  0  0  0  0  0  0  0  0  0  0  0
    3.0749   -1.4975    1.3793 O   0  0  0  0  0  0  0  0  0  0  0  0
    3.3198   -0.6854    0.3151 C   0  0  0  0  0  0  0  0  0  0  0  0
    2.4521   -0.2213   -0.4096 O   0  0  0  0  0  0  0  0  0  0  0  0
    4.7846   -0.4825    0.1360 C   0  0  0  0  0  0  0  0  0  0  0  0
    5.7053   -0.8825    1.0863 C   0  0  0  0  0  0  0  0  0  0  0  0
    7.0424   -0.7189    0.9229 N   0  0  0  0  0  0  0  0  0  0  0  0
    7.4398   -0.1421   -0.2278 C   0  0  0  0  0  0  0  0  0  0  0  0
    8.7947    0.0464   -0.4730 C   0  0  0  0  0  0  0  0  0  0  0  0
    9.2445    0.6377   -1.6548 C   0  0  0  0  0  0  0  0  0  0  0  0
    8.3226    1.0544   -2.6070 C   0  0  0  0  0  0  0  0  0  0  0  0
    6.9593    0.8687   -2.3726 C   0  0  0  0  0  0  0  0  0  0  0  0
    6.4996    0.2766   -1.2020 C   0  0  0  0  0  0  0  0  0  0  0  0
    5.1759    0.1112   -1.0203 N   0  0  0  0  0  0  0  0  0  0  0  0
    0.8331   -0.6529    1.9342 C   0  0  0  0  0  0  0  0  0  0  0  0
    1.2414    0.2140    2.7126 O   0  0  0  0  0  0  0  0  0  0  0  0
   -0.5433   -0.5972    1.3750 C   0  0  0  0  0  0  0  0  0  0  0  0
   -1.4192    0.3242    1.8136 C   0  0  0  0  0  0  0  0  0  0  0  0
   -2.7358    0.4552    1.3339 N   0  0  0  0  0  0  0  0  0  0  0  0
   -3.5783    1.5497    1.8635 C   0  0  0  0  0  0  0  0  0  0  0  0
   -3.1493    2.9379    1.3449 C   0  0  0  0  0  0  0  0  0  0  0  0
   -3.9907    4.0221    2.0254 C   0  0  0  0  0  0  0  0  0  0  0  0
   -3.2796    3.0694   -0.1736 C   0  0  0  0  0  0  0  0  0  0  0  0
   -6.4594   -2.4149   -4.2587 H   0  0  0  0  0  0  0  0  0  0  0  0
   -5.4902   -2.4568   -2.7714 H   0  0  0  0  0  0  0  0  0  0  0  0
   -7.2748   -2.2851   -2.6856 H   0  0  0  0  0  0  0  0  0  0  0  0
   -6.9473   -0.3471   -1.3943 H   0  0  0  0  0  0  0  0  0  0  0  0
   -6.3946    1.1034   -2.2423 H   0  0  0  0  0  0  0  0  0  0  0  0
   -3.9826    0.0829   -2.2188 H   0  0  0  0  0  0  0  0  0  0  0  0
   -5.3258   -0.4554    0.4951 H   0  0  0  0  0  0  0  0  0  0  0  0
   -2.6850   -2.0686   -0.9518 H   0  0  0  0  0  0  0  0  0  0  0  0
   -0.4900   -3.1638   -0.9270 H   0  0  0  0  0  0  0  0  0  0  0  0
    2.0977   -2.3375    3.6540 H   0  0  0  0  0  0  0  0  0  0  0  0
    2.2636   -3.7137    2.5661 H   0  0  0  0  0  0  0  0  0  0  0  0
    0.6454   -3.1359    3.0102 H   0  0  0  0  0  0  0  0  0  0  0  0
    5.4128   -1.3486    2.0185 H   0  0  0  0  0  0  0  0  0  0  0  0
    9.5159   -0.2787    0.2727 H   0  0  0  0  0  0  0  0  0  0  0  0
   10.3104    0.7680   -1.8273 H   0  0  0  0  0  0  0  0  0  0  0  0
    8.6599    1.5199   -3.5309 H   0  0  0  0  0  0  0  0  0  0  0  0
    6.2378    1.1899   -3.1196 H   0  0  0  0  0  0  0  0  0  0  0  0
   -1.1482    1.0460    2.5811 H   0  0  0  0  0  0  0  0  0  0  0  0
   -4.6415    1.3870    1.6536 H   0  0  0  0  0  0  0  0  0  0  0  0
   -3.5016    1.5387    2.9598 H   0  0  0  0  0  0  0  0  0  0  0  0
   -2.1001    3.1158    1.6104 H   0  0  0  0  0  0  0  0  0  0  0  0
   -5.0535    3.9078    1.7855 H   0  0  0  0  0  0  0  0  0  0  0  0
   -3.8812    3.9761    3.1149 H   0  0  0  0  0  0  0  0  0  0  0  0
   -3.6750    5.0197    1.7006 H   0  0  0  0  0  0  0  0  0  0  0  0
   -3.0003    4.0791   -0.5023 H   0  0  0  0  0  0  0  0  0  0  0  0
   -4.3081    2.8834   -0.5016 H   0  0  0  0  0  0  0  0  0  0  0  0
   -2.6168    2.3657   -0.6905 H   0  0  0  0  0  0  0  0  0  0  0  0
  1  2  1  0
  2  3  1  0
  3  4  1  0
  4  5  2  3
  5  6  1  0
  6  7  2  0
  7  8  1  0
  8  9  2  0
  9 10  1  0
 10 11  2  0
 10 12  1  0
 12 13  1  0
 12 14  1  0
 14 15  1  0
 15 16  2  0
 15 17  1  0
 17 18  2  0
 18 19  1  0
 19 20  2  0
 20 21  1  0
 21 22  2  0
 22 23  1  0
 23 24  2  0
 24 25  1  0
 25 26  2  0
 12 27  1  0
 27 28  2  0
 27 29  1  0
 29 30  2  0
 30 31  1  0
 31 32  1  0
 32 33  1  0
 33 34  1  0
 33 35  1  0
 31  6  1  0
 29  8  1  0
 26 17  1  0
 25 20  1  0
  1 36  1  0
  1 37  1  0
  1 38  1  0
  3 39  1  0
  3 40  1  0
  4 41  1  0
  5 42  1  0
  7 43  1  0
  9 44  1  0
 13 45  1  0
 13 46  1  0
 13 47  1  0
 18 48  1  0
 21 49  1  0
 22 50  1  0
 23 51  1  0
 24 52  1  0
 30 53  1  0
 32 54  1  0
 32 55  1  0
 33 56  1  0
 34 57  1  0
 34 58  1  0
 34 59  1  0
 35 60  1  0
 35 61  1  0
 35 62  1  0
M  END
$$$$
