
     RDKit          3D

 45 47  0  0  0  0  0  0  0  0999 V2000
    0.3383   -2.0668   -1.9637 O   0  0  0  0  0  0  0  0  0  0  0  0
    0.5364   -1.7285   -0.8046 C   0  0  0  0  0  0  0  0  0  0  0  0
    1.8171   -1.1327   -0.3477 C   0  0  0  0  0  0  0  0  0  0  0  0
    2.8038   -0.9226   -1.2328 C   0  0  0  0  0  0  0  0  0  0  0  0
    4.1015   -0.3251   -0.8901 C   0  0  0  0  0  0  0  0  0  0  0  0
    4.7231    0.5222   -1.8354 C   0  0  0  0  0  0  0  0  0  0  0  0
    5.9704    1.1029   -1.5783 C   0  0  0  0  0  0  0  0  0  0  0  0
    6.5758    0.8108   -0.3771 C   0  0  0  0  0  0  0  0  0  0  0  0
    5.9875   -0.0232    0.5430 C   0  0  0  0  0  0  0  0  0  0  0  0
    4.7589   -0.6099    0.3166 C   0  0  0  0  0  0  0  0  0  0  0  0
    6.7517   -0.1884    1.6564 O   0  0  0  0  0  0  0  0  0  0  0  0
    7.8898    0.6363    1.3285 C   0  0  0  0  0  0  0  0  0  0  0  0
    7.7820    1.2778    0.0410 O   0  0  0  0  0  0  0  0  0  0  0  0
   -0.3857   -1.8512    0.2073 N   0  0  0  0  0  0  0  0  0  0  0  0
   -1.7190   -2.3605   -0.0431 C   0  0  0  0  0  0  0  0  0  0  0  0
   -2.6751   -1.2950   -0.5829 C   0  0  0  0  0  0  0  0  0  0  0  0
   -3.0087   -0.2316    0.4734 C   0  0  0  0  0  0  0  0  0  0  0  0
   -3.8858    0.8343   -0.0342 N   0  0  0  0  0  0  0  0  0  0  0  0
   -4.0556    1.9256    0.9505 C   0  0  0  0  0  0  0  0  0  0  0  0
   -5.3748    1.8423    1.7343 C   0  0  0  0  0  0  0  0  0  0  0  0
   -6.5368    1.8878    0.8956 O   0  0  0  0  0  0  0  0  0  0  0  0
   -6.2884    1.4096   -0.4340 C   0  0  0  0  0  0  0  0  0  0  0  0
   -5.2028    0.3233   -0.4755 C   0  0  0  0  0  0  0  0  0  0  0  0
    1.9156   -0.8681    0.6962 H   0  0  0  0  0  0  0  0  0  0  0  0
    2.6585   -1.1765   -2.2821 H   0  0  0  0  0  0  0  0  0  0  0  0
    4.2291    0.7398   -2.7811 H   0  0  0  0  0  0  0  0  0  0  0  0
    6.4452    1.7575   -2.3003 H   0  0  0  0  0  0  0  0  0  0  0  0
    4.3383   -1.2804    1.0571 H   0  0  0  0  0  0  0  0  0  0  0  0
    7.9949    1.4098    2.0979 H   0  0  0  0  0  0  0  0  0  0  0  0
    8.7895    0.0101    1.3343 H   0  0  0  0  0  0  0  0  0  0  0  0
   -0.1660   -1.5115    1.1330 H   0  0  0  0  0  0  0  0  0  0  0  0
   -2.0929   -2.7778    0.8978 H   0  0  0  0  0  0  0  0  0  0  0  0
   -1.6457   -3.1804   -0.7666 H   0  0  0  0  0  0  0  0  0  0  0  0
   -2.2433   -0.8151   -1.4697 H   0  0  0  0  0  0  0  0  0  0  0  0
   -3.5923   -1.8030   -0.9025 H   0  0  0  0  0  0  0  0  0  0  0  0
   -2.0656    0.2233    0.8010 H   0  0  0  0  0  0  0  0  0  0  0  0
   -3.4556   -0.7097    1.3547 H   0  0  0  0  0  0  0  0  0  0  0  0
   -3.2089    1.9815    1.6447 H   0  0  0  0  0  0  0  0  0  0  0  0
   -4.0492    2.8669    0.3864 H   0  0  0  0  0  0  0  0  0  0  0  0
   -5.4472    2.6785    2.4371 H   0  0  0  0  0  0  0  0  0  0  0  0
   -5.4169    0.9187    2.3233 H   0  0  0  0  0  0  0  0  0  0  0  0
   -7.2329    1.0123   -0.8195 H   0  0  0  0  0  0  0  0  0  0  0  0
   -6.0145    2.2643   -1.0637 H   0  0  0  0  0  0  0  0  0  0  0  0
   -5.1171   -0.0595   -1.4981 H   0  0  0  0  0  0  0  0  0  0  0  0
   -5.5268   -0.5014    0.1729 H   0  0  0  0  0  0  0  0  0  0  0  0
  1  2  2  0
  2  3  1  0
  3  4  2  3
  4  5  1  0
  5  6  2  0
  6  7  1  0
  7  8  2  0
  8  9  1  0
  9 10  2  0
  9 11  1  0
 11 12  1  0
 12 13  1  0
  2 14  1  0
 14 15  1  0
 15 16  1  0
 16 17  1  0
 17 18  1  0
 18 19  1  0
 19 20  1  0
 20 21  1  0
 21 22  1  0
 22 23  1  0
 10  5  1  0
 23 18  1  0
 13  8  1  0
  3 24  1  0
  4 25  1  0
  6 26  1  0
  7 27  1  0
 10 28  1  0
 12 29  1  0
 12 30  1  0
 14 31  1  0
 15 32  1  0
 15 33  1  0
 16 34  1  0
 16 35  1  0
 17 36  1  0
 17 37  1  0
 19 38  1  0
 19 39  1  0
 20 40  1  0
 20 41  1  0
 22 42  1  0
 22 43  1  0
 23 44  1  0
 23 45  1  0
M  END
$$$$
