
     RDKit          3D

 39 41  0  0  0  0  0  0  0  0999 V2000
   -7.3793    1.4540   -0.1362 C   0  0  0  0  0  0  0  0  0  0  0  0
   -6.4812    1.2180   -1.2128 O   0  0  0  0  0  0  0  0  0  0  0  0
   -5.2040    0.8563   -0.8861 C   0  0  0  0  0  0  0  0  0  0  0  0
   -4.6956    0.7104    0.4032 C   0  0  0  0  0  0  0  0  0  0  0  0
   -3.3610    0.3297    0.5969 C   0  0  0  0  0  0  0  0  0  0  0  0
   -2.5197    0.0855   -0.4997 C   0  0  0  0  0  0  0  0  0  0  0  0
   -1.1586   -0.3071   -0.2876 N   0  0  0  0  0  0  0  0  0  0  0  0
   -0.6807   -1.0685    0.7867 C   0  0  0  0  0  0  0  0  0  0  0  0
   -1.4539   -1.7059    1.6678 O   0  0  0  0  0  0  0  0  0  0  0  0
    0.6952   -1.0808    0.7316 C   0  0  0  0  0  0  0  0  0  0  0  0
    1.0828   -0.4175   -0.4463 C   0  0  0  0  0  0  0  0  0  0  0  0
    2.3450   -0.2247   -0.9010 N   0  0  0  0  0  0  0  0  0  0  0  0
    3.4660   -0.4776   -0.0863 N   0  0  0  0  0  0  0  0  0  0  0  0
    4.6136    0.2642   -0.3536 C   0  0  0  0  0  0  0  0  0  0  0  0
    4.5781    1.2062   -1.1487 O   0  0  0  0  0  0  0  0  0  0  0  0
    5.8039   -0.1796    0.3455 C   0  0  0  0  0  0  0  0  0  0  0  0
    6.0274   -1.1240    1.3347 C   0  0  0  0  0  0  0  0  0  0  0  0
    7.4165   -1.1071    1.6155 C   0  0  0  0  0  0  0  0  0  0  0  0
    7.9604   -0.1538    0.7902 C   0  0  0  0  0  0  0  0  0  0  0  0
    6.9979    0.4116    0.0209 O   0  0  0  0  0  0  0  0  0  0  0  0
   -0.0606    0.0049   -1.0967 C   0  0  0  0  0  0  0  0  0  0  0  0
   -0.1851    0.6574   -2.2539 O   0  0  0  0  0  0  0  0  0  0  0  0
   -3.0287    0.2520   -1.7909 C   0  0  0  0  0  0  0  0  0  0  0  0
   -4.3631    0.6294   -1.9768 C   0  0  0  0  0  0  0  0  0  0  0  0
   -7.0448    2.2943    0.4806 H   0  0  0  0  0  0  0  0  0  0  0  0
   -8.3511    1.7208   -0.5632 H   0  0  0  0  0  0  0  0  0  0  0  0
   -7.5178    0.5509    0.4673 H   0  0  0  0  0  0  0  0  0  0  0  0
   -5.3040    0.8993    1.2817 H   0  0  0  0  0  0  0  0  0  0  0  0
   -2.9876    0.2849    1.6186 H   0  0  0  0  0  0  0  0  0  0  0  0
   -2.3313   -1.8472    1.2676 H   0  0  0  0  0  0  0  0  0  0  0  0
    1.3295   -1.5673    1.4582 H   0  0  0  0  0  0  0  0  0  0  0  0
    2.5365    0.5632   -1.5326 H   0  0  0  0  0  0  0  0  0  0  0  0
    3.5275   -1.4119    0.3002 H   0  0  0  0  0  0  0  0  0  0  0  0
    5.2842   -1.7493    1.8090 H   0  0  0  0  0  0  0  0  0  0  0  0
    7.9543   -1.7101    2.3339 H   0  0  0  0  0  0  0  0  0  0  0  0
    8.9624    0.2226    0.6353 H   0  0  0  0  0  0  0  0  0  0  0  0
    0.6999    0.7027   -2.6554 H   0  0  0  0  0  0  0  0  0  0  0  0
   -2.4239    0.0673   -2.6739 H   0  0  0  0  0  0  0  0  0  0  0  0
   -4.7494    0.7467   -2.9867 H   0  0  0  0  0  0  0  0  0  0  0  0
  1  2  1  0
  2  3  1  0
  3  4  2  0
  4  5  1  0
  5  6  2  0
  6  7  1  0
  7  8  1  0
  8  9  1  0
  8 10  2  0
 10 11  1  0
 11 12  1  0
 12 13  1  0
 13 14  1  0
 14 15  2  0
 14 16  1  0
 16 17  2  0
 17 18  1  0
 18 19  2  0
 19 20  1  0
 11 21  2  0
 21 22  1  0
  6 23  1  0
 23 24  2  0
 24  3  1  0
 21  7  1  0
 20 16  1  0
  1 25  1  0
  1 26  1  0
  1 27  1  0
  4 28  1  0
  5 29  1  0
  9 30  1  0
 10 31  1  0
 12 32  1  0
 13 33  1  0
 17 34  1  0
 18 35  1  0
 19 36  1  0
 22 37  1  0
 23 38  1  0
 24 39  1  0
M  END
$$$$
