
     RDKit          3D

 53 56  0  0  0  0  0  0  0  0999 V2000
    6.0970    2.3412    1.3883 C   0  0  0  0  0  0  0  0  0  0  0  0
    5.4112    1.1336    0.8238 C   0  0  0  0  0  0  0  0  0  0  0  0
    4.0364    1.0205    0.8837 C   0  0  0  0  0  0  0  0  0  0  0  0
    3.4485   -0.1197    0.3371 C   0  0  0  0  0  0  0  0  0  0  0  0
    1.9679   -0.1680    0.3618 C   0  0  0  0  0  0  0  0  0  0  0  0
    1.3997   -0.0345    1.4368 O   0  0  0  0  0  0  0  0  0  0  0  0
    1.3880   -0.2800   -0.8878 N   0  0  0  0  0  0  0  0  0  0  0  0
    0.0139   -0.3843   -1.1821 C   0  0  0  0  0  0  0  0  0  0  0  0
   -0.3570   -0.3198   -2.5276 C   0  0  0  0  0  0  0  0  0  0  0  0
   -1.7006   -0.4050   -2.9037 C   0  0  0  0  0  0  0  0  0  0  0  0
   -2.7114   -0.5580   -1.9437 C   0  0  0  0  0  0  0  0  0  0  0  0
   -4.1353   -0.6596   -2.4151 C   0  0  0  0  0  0  0  0  0  0  0  0
   -2.3300   -0.6485   -0.5915 C   0  0  0  0  0  0  0  0  0  0  0  0
   -3.5330   -0.9092    0.7045 S   0  0  0  0  0  6  0  0  0  0  0  0
   -2.8439   -1.0886    1.9650 O   0  0  0  0  0  0  0  0  0  0  0  0
   -4.4840   -1.8967    0.2404 O   0  0  0  0  0  0  0  0  0  0  0  0
   -4.3270    0.5992    0.7872 N   0  0  0  0  0  0  0  0  0  0  0  0
   -3.4890    1.7496    1.2665 C   0  0  0  0  0  0  0  0  0  0  0  0
   -3.8652    2.1492    2.6962 C   0  0  0  0  0  0  0  0  0  0  0  0
   -5.2275    2.5862    2.8128 O   0  0  0  0  0  0  0  0  0  0  0  0
   -6.1140    1.9272    1.8971 C   0  0  0  0  0  0  0  0  0  0  0  0
   -5.6426    0.5247    1.5038 C   0  0  0  0  0  0  0  0  0  0  0  0
   -0.9762   -0.5652   -0.2176 C   0  0  0  0  0  0  0  0  0  0  0  0
    4.2339   -1.1550   -0.2179 C   0  0  0  0  0  0  0  0  0  0  0  0
    3.7303   -2.3821   -0.7234 C   0  0  0  0  0  0  0  0  0  0  0  0
    4.5836   -3.3421   -1.2638 C   0  0  0  0  0  0  0  0  0  0  0  0
    5.9483   -3.0978   -1.3006 C   0  0  0  0  0  0  0  0  0  0  0  0
    6.4508   -1.9008   -0.7854 C   0  0  0  0  0  0  0  0  0  0  0  0
    5.6235   -0.9296   -0.2374 C   0  0  0  0  0  0  0  0  0  0  0  0
    6.1902    0.1858    0.2550 N   0  0  0  0  0  0  0  0  0  0  0  0
    7.1833    2.2587    1.2801 H   0  0  0  0  0  0  0  0  0  0  0  0
    5.7690    3.2427    0.8615 H   0  0  0  0  0  0  0  0  0  0  0  0
    5.8683    2.4434    2.4537 H   0  0  0  0  0  0  0  0  0  0  0  0
    3.4286    1.7980    1.3366 H   0  0  0  0  0  0  0  0  0  0  0  0
    2.0133   -0.2269   -1.6841 H   0  0  0  0  0  0  0  0  0  0  0  0
    0.3908   -0.1940   -3.3069 H   0  0  0  0  0  0  0  0  0  0  0  0
   -1.9523   -0.3500   -3.9618 H   0  0  0  0  0  0  0  0  0  0  0  0
   -4.7984   -0.0219   -1.8249 H   0  0  0  0  0  0  0  0  0  0  0  0
   -4.2315   -0.3241   -3.4540 H   0  0  0  0  0  0  0  0  0  0  0  0
   -4.4774   -1.6978   -2.3714 H   0  0  0  0  0  0  0  0  0  0  0  0
   -3.6719    2.5850    0.5800 H   0  0  0  0  0  0  0  0  0  0  0  0
   -2.4213    1.5215    1.2163 H   0  0  0  0  0  0  0  0  0  0  0  0
   -3.7168    1.3135    3.3893 H   0  0  0  0  0  0  0  0  0  0  0  0
   -3.2298    2.9729    3.0363 H   0  0  0  0  0  0  0  0  0  0  0  0
   -7.0980    1.8763    2.3736 H   0  0  0  0  0  0  0  0  0  0  0  0
   -6.2115    2.5641    1.0102 H   0  0  0  0  0  0  0  0  0  0  0  0
   -5.5401   -0.0905    2.4055 H   0  0  0  0  0  0  0  0  0  0  0  0
   -6.3796    0.0645    0.8376 H   0  0  0  0  0  0  0  0  0  0  0  0
   -0.7143   -0.6558    0.8331 H   0  0  0  0  0  0  0  0  0  0  0  0
    2.6670   -2.6115   -0.6792 H   0  0  0  0  0  0  0  0  0  0  0  0
    4.1838   -4.2794   -1.6431 H   0  0  0  0  0  0  0  0  0  0  0  0
    6.6283   -3.8381   -1.7146 H   0  0  0  0  0  0  0  0  0  0  0  0
    7.5242   -1.7233   -0.8036 H   0  0  0  0  0  0  0  0  0  0  0  0
  1  2  1  0
  2  3  2  0
  3  4  1  0
  4  5  1  0
  5  6  2  0
  5  7  1  0
  7  8  1  0
  8  9  2  0
  9 10  1  0
 10 11  2  0
 11 12  1  0
 11 13  1  0
 13 14  1  0
 14 15  2  0
 14 16  2  0
 14 17  1  0
 17 18  1  0
 18 19  1  0
 19 20  1  0
 20 21  1  0
 21 22  1  0
 13 23  2  0
  4 24  2  0
 24 25  1  0
 25 26  2  0
 26 27  1  0
 27 28  2  0
 28 29  1  0
 29 30  2  0
 30  2  1  0
 23  8  1  0
 29 24  1  0
 22 17  1  0
  1 31  1  0
  1 32  1  0
  1 33  1  0
  3 34  1  0
  7 35  1  0
  9 36  1  0
 10 37  1  0
 12 38  1  0
 12 39  1  0
 12 40  1  0
 18 41  1  0
 18 42  1  0
 19 43  1  0
 19 44  1  0
 21 45  1  0
 21 46  1  0
 22 47  1  0
 22 48  1  0
 23 49  1  0
 25 50  1  0
 26 51  1  0
 27 52  1  0
 28 53  1  0
M  END
$$$$
