
     RDKit          3D

 44 45  0  0  0  0  0  0  0  0999 V2000
    7.6763   -1.8784    1.3759 C   0  0  0  0  0  0  0  0  0  0  0  0
    6.3424   -1.3690    0.9129 C   0  0  0  0  0  0  0  0  0  0  0  0
    6.2332   -0.1049    0.3187 C   0  0  0  0  0  0  0  0  0  0  0  0
    5.0008    0.3652   -0.1505 C   0  0  0  0  0  0  0  0  0  0  0  0
    3.8524   -0.4212   -0.0275 C   0  0  0  0  0  0  0  0  0  0  0  0
    2.6452   -0.0171   -0.5272 O   0  0  0  0  0  0  0  0  0  0  0  0
    2.2931    1.3331   -0.2232 C   0  0  0  0  0  0  0  0  0  0  0  0
    0.7729    1.5002   -0.1748 C   0  0  0  0  0  0  0  0  0  0  0  0
    0.2558    2.5850   -0.4348 O   0  0  0  0  0  0  0  0  0  0  0  0
    0.1152    0.3561    0.2387 N   0  0  0  0  0  0  0  0  0  0  0  0
   -1.2493    0.2281    0.4044 C   0  0  0  0  0  0  0  0  0  0  0  0
   -1.9466   -0.9303    0.8160 C   0  0  0  0  0  0  0  0  0  0  0  0
   -3.2676   -0.7387    0.8835 N   0  0  0  0  0  0  0  0  0  0  0  0
   -3.4137    0.5466    0.5083 N   0  0  0  0  0  0  0  0  0  0  0  0
   -4.7386    1.1349    0.4531 C   0  0  0  0  0  0  0  0  0  0  0  0
   -5.4588    0.8002   -0.8489 C   0  0  0  0  0  0  0  0  0  0  0  0
   -6.8488    1.4192   -0.8810 C   0  0  0  0  0  0  0  0  0  0  0  0
   -7.5308    1.1105   -2.1812 C   0  0  0  0  0  0  0  0  0  0  0  0
   -7.4948    1.7921   -3.1912 O   0  0  0  0  0  0  0  0  0  0  0  0
   -8.1974   -0.0573   -2.1553 O   0  0  0  0  0  0  0  0  0  0  0  0
   -2.2339    1.1666    0.2162 C   0  0  0  0  0  0  0  0  0  0  0  0
    3.9695   -1.6960    0.5414 C   0  0  0  0  0  0  0  0  0  0  0  0
    2.7970   -2.5527    0.6831 N   0  0  0  0  0  4  0  0  0  0  0  0
    1.7196   -2.0179    0.9946 O   0  0  0  0  0  0  0  0  0  0  0  0
    2.9580   -3.7690    0.5109 O   0  0  0  0  0  1  0  0  0  0  0  0
    5.2029   -2.1756    1.0088 C   0  0  0  0  0  0  0  0  0  0  0  0
    8.3134   -1.0539    1.7127 H   0  0  0  0  0  0  0  0  0  0  0  0
    7.5598   -2.5647    2.2212 H   0  0  0  0  0  0  0  0  0  0  0  0
    8.1797   -2.4044    0.5590 H   0  0  0  0  0  0  0  0  0  0  0  0
    7.1163    0.5228    0.2049 H   0  0  0  0  0  0  0  0  0  0  0  0
    4.9667    1.3382   -0.6340 H   0  0  0  0  0  0  0  0  0  0  0  0
    2.6803    1.6490    0.7537 H   0  0  0  0  0  0  0  0  0  0  0  0
    2.6790    1.9848   -1.0146 H   0  0  0  0  0  0  0  0  0  0  0  0
    0.6741   -0.4787    0.4197 H   0  0  0  0  0  0  0  0  0  0  0  0
   -1.5447   -1.9029    1.0695 H   0  0  0  0  0  0  0  0  0  0  0  0
   -4.6237    2.2189    0.5680 H   0  0  0  0  0  0  0  0  0  0  0  0
   -5.2961    0.7647    1.3214 H   0  0  0  0  0  0  0  0  0  0  0  0
   -4.8710    1.1585   -1.7040 H   0  0  0  0  0  0  0  0  0  0  0  0
   -5.5342   -0.2883   -0.9687 H   0  0  0  0  0  0  0  0  0  0  0  0
   -6.7986    2.5091   -0.7765 H   0  0  0  0  0  0  0  0  0  0  0  0
   -7.4692    1.0538   -0.0546 H   0  0  0  0  0  0  0  0  0  0  0  0
   -8.5645   -0.1469   -3.0598 H   0  0  0  0  0  0  0  0  0  0  0  0
   -2.1993    2.2003   -0.0982 H   0  0  0  0  0  0  0  0  0  0  0  0
    5.2780   -3.1700    1.4468 H   0  0  0  0  0  0  0  0  0  0  0  0
  1  2  1  0
  2  3  2  0
  3  4  1  0
  4  5  2  0
  5  6  1  0
  6  7  1  0
  7  8  1  0
  8  9  2  0
  8 10  1  0
 10 11  1  0
 11 12  1  0
 12 13  2  0
 13 14  1  0
 14 15  1  0
 15 16  1  0
 16 17  1  0
 17 18  1  0
 18 19  2  0
 18 20  1  0
 14 21  1  0
  5 22  1  0
 22 23  1  0
 23 24  2  0
 23 25  1  0
 22 26  2  0
 26  2  1  0
 21 11  2  0
  1 27  1  0
  1 28  1  0
  1 29  1  0
  3 30  1  0
  4 31  1  0
  7 32  1  0
  7 33  1  0
 10 34  1  0
 12 35  1  0
 15 36  1  0
 15 37  1  0
 16 38  1  0
 16 39  1  0
 17 40  1  0
 17 41  1  0
 20 42  1  0
 21 43  1  0
 26 44  1  0
M  CHG  2  23   1  25  -1
M  END
$$$$
