
     RDKit          3D

 43 46  0  0  0  0  0  0  0  0999 V2000
   -3.9869   -2.3353    2.4139 C   0  0  0  0  0  0  0  0  0  0  0  0
   -3.9431   -2.3212    0.8974 C   0  0  0  0  0  0  0  0  0  0  0  0
   -3.9024   -0.9714    0.4162 O   0  0  0  0  0  0  0  0  0  0  0  0
   -2.6640   -0.4124    0.3154 C   0  0  0  0  0  0  0  0  0  0  0  0
   -1.6186   -0.9692    0.6271 O   0  0  0  0  0  0  0  0  0  0  0  0
   -2.7704    0.9420   -0.1994 C   0  0  0  0  0  0  0  0  0  0  0  0
   -3.9230    1.6459   -0.5304 C   0  0  0  0  0  0  0  0  0  0  0  0
   -3.5049    2.9170   -1.0070 C   0  0  0  0  0  0  0  0  0  0  0  0
   -4.2008    4.3817   -1.6134 S   0  0  0  0  0  0  0  0  0  0  0  0
   -2.6257    5.0417   -1.8129 C   0  0  0  0  0  0  0  0  0  0  0  0
   -1.6055    4.1958   -1.4324 C   0  0  0  0  0  0  0  0  0  0  0  0
   -2.1446    2.9653   -0.9620 C   0  0  0  0  0  0  0  0  0  0  0  0
   -1.6865    1.7648   -0.4605 N   0  0  0  0  0  0  0  0  0  0  0  0
   -0.2767    1.4720   -0.2360 C   0  0  0  0  0  0  0  0  0  0  0  0
    0.3079    0.5502   -1.2881 C   0  0  0  0  0  0  0  0  0  0  0  0
   -0.1706    0.4336   -2.4159 O   0  0  0  0  0  0  0  0  0  0  0  0
    1.5428   -0.2194   -0.9523 C   0  0  0  0  0  0  0  0  0  0  0  0
    1.9105   -1.2851   -1.7886 C   0  0  0  0  0  0  0  0  0  0  0  0
    3.0635   -2.0287   -1.5253 C   0  0  0  0  0  0  0  0  0  0  0  0
    3.8588   -1.7061   -0.4299 C   0  0  0  0  0  0  0  0  0  0  0  0
    3.4872   -0.6581    0.4180 C   0  0  0  0  0  0  0  0  0  0  0  0
    2.3429    0.0961    0.1521 C   0  0  0  0  0  0  0  0  0  0  0  0
    4.2076   -0.3021    1.5305 O   0  0  0  0  0  0  0  0  0  0  0  0
    5.1347   -1.3300    1.9016 C   0  0  0  0  0  0  0  0  0  0  0  0
    5.8861   -1.8397    0.6829 C   0  0  0  0  0  0  0  0  0  0  0  0
    4.9868   -2.4616   -0.2421 O   0  0  0  0  0  0  0  0  0  0  0  0
   -3.0830   -1.8865    2.8376 H   0  0  0  0  0  0  0  0  0  0  0  0
   -4.8355   -1.7477    2.7793 H   0  0  0  0  0  0  0  0  0  0  0  0
   -4.0779   -3.3583    2.7897 H   0  0  0  0  0  0  0  0  0  0  0  0
   -4.8565   -2.7752    0.4993 H   0  0  0  0  0  0  0  0  0  0  0  0
   -3.1001   -2.9078    0.5144 H   0  0  0  0  0  0  0  0  0  0  0  0
   -4.9413    1.2891   -0.4473 H   0  0  0  0  0  0  0  0  0  0  0  0
   -2.5293    6.0419   -2.2128 H   0  0  0  0  0  0  0  0  0  0  0  0
   -0.5553    4.4473   -1.4967 H   0  0  0  0  0  0  0  0  0  0  0  0
   -0.2028    1.0427    0.7670 H   0  0  0  0  0  0  0  0  0  0  0  0
    0.2782    2.4157   -0.2467 H   0  0  0  0  0  0  0  0  0  0  0  0
    1.2984   -1.5420   -2.6520 H   0  0  0  0  0  0  0  0  0  0  0  0
    3.3435   -2.8493   -2.1804 H   0  0  0  0  0  0  0  0  0  0  0  0
    2.1047    0.9158    0.8218 H   0  0  0  0  0  0  0  0  0  0  0  0
    5.8341   -0.8998    2.6252 H   0  0  0  0  0  0  0  0  0  0  0  0
    4.5808   -2.1361    2.3987 H   0  0  0  0  0  0  0  0  0  0  0  0
    6.6265   -2.5888    0.9804 H   0  0  0  0  0  0  0  0  0  0  0  0
    6.4106   -1.0267    0.1657 H   0  0  0  0  0  0  0  0  0  0  0  0
  1  2  1  0
  2  3  1  0
  3  4  1  0
  4  5  2  0
  4  6  1  0
  6  7  2  0
  7  8  1  0
  8  9  1  0
  9 10  1  0
 10 11  2  0
 11 12  1  0
 12 13  1  0
 13 14  1  0
 14 15  1  0
 15 16  2  0
 15 17  1  0
 17 18  2  0
 18 19  1  0
 19 20  2  0
 20 21  1  0
 21 22  2  0
 21 23  1  0
 23 24  1  0
 24 25  1  0
 25 26  1  0
 13  6  1  0
 22 17  1  0
 12  8  2  0
 26 20  1  0
  1 27  1  0
  1 28  1  0
  1 29  1  0
  2 30  1  0
  2 31  1  0
  7 32  1  0
 10 33  1  0
 11 34  1  0
 14 35  1  0
 14 36  1  0
 18 37  1  0
 19 38  1  0
 22 39  1  0
 24 40  1  0
 24 41  1  0
 25 42  1  0
 25 43  1  0
M  END
$$$$
