
     RDKit          3D

 57 60  0  0  0  0  0  0  0  0999 V2000
    7.1615    2.7467   -0.6003 C   0  0  0  0  0  0  0  0  0  0  0  0
    6.4926    3.1226    0.7149 C   0  0  0  0  0  0  0  0  0  0  0  0
    5.8225    1.9226    1.4024 C   0  0  0  0  0  0  0  0  0  0  0  0
    5.3047    2.3235    2.7835 C   0  0  0  0  0  0  0  0  0  0  0  0
    4.7287    1.4004    0.5912 N   0  0  0  0  0  0  0  0  0  0  0  0
    4.3503    0.0734    0.6844 C   0  0  0  0  0  0  0  0  0  0  0  0
    4.9254   -0.7454    1.3929 O   0  0  0  0  0  0  0  0  0  0  0  0
    3.1561   -0.3283   -0.1117 C   0  0  0  0  0  0  0  0  0  0  0  0
    2.7950    0.3186   -1.3019 C   0  0  0  0  0  0  0  0  0  0  0  0
    1.6874   -0.1230   -2.0346 C   0  0  0  0  0  0  0  0  0  0  0  0
    0.9362   -1.2232   -1.5974 C   0  0  0  0  0  0  0  0  0  0  0  0
   -0.2219   -1.7424   -2.4131 C   0  0  0  0  0  0  0  0  0  0  0  0
   -1.7687   -0.8277   -2.1460 S   0  0  0  0  0  0  0  0  0  0  0  0
   -2.5385   -1.7922   -0.9320 C   0  0  0  0  0  0  0  0  0  0  0  0
   -1.9225   -2.6436   -0.1462 N   0  0  0  0  0  0  0  0  0  0  0  0
   -2.9022   -3.1805    0.6507 C   0  0  0  0  0  0  0  0  0  0  0  0
   -2.7897   -4.1132    1.6828 C   0  0  0  0  0  0  0  0  0  0  0  0
   -3.9764   -4.4702    2.3030 C   0  0  0  0  0  0  0  0  0  0  0  0
   -5.1988   -3.9919    1.9678 N   0  0  0  0  0  0  0  0  0  0  0  0
   -5.3080   -3.0868    0.9662 C   0  0  0  0  0  0  0  0  0  0  0  0
   -4.1533   -2.6688    0.3155 C   0  0  0  0  0  0  0  0  0  0  0  0
   -3.8971   -1.7650   -0.6968 N   0  0  0  0  0  0  0  0  0  0  0  0
   -4.9086   -1.0196   -1.4306 C   0  0  0  0  0  0  0  0  0  0  0  0
   -5.0504    0.4061   -0.9544 C   0  0  0  0  0  0  0  0  0  0  0  0
   -4.7069    1.4705   -1.8057 C   0  0  0  0  0  0  0  0  0  0  0  0
   -4.8848    2.7915   -1.3946 C   0  0  0  0  0  0  0  0  0  0  0  0
   -5.4065    3.0562   -0.1305 C   0  0  0  0  0  0  0  0  0  0  0  0
   -5.5947    4.3247    0.2582 F   0  0  0  0  0  0  0  0  0  0  0  0
   -5.7491    2.0215    0.7296 C   0  0  0  0  0  0  0  0  0  0  0  0
   -5.5667    0.6992    0.3225 C   0  0  0  0  0  0  0  0  0  0  0  0
    1.2985   -1.8557   -0.3999 C   0  0  0  0  0  0  0  0  0  0  0  0
    2.4041   -1.4184    0.3327 C   0  0  0  0  0  0  0  0  0  0  0  0
    7.6196    3.6337   -1.0436 H   0  0  0  0  0  0  0  0  0  0  0  0
    6.4412    2.3463   -1.3216 H   0  0  0  0  0  0  0  0  0  0  0  0
    7.9487    2.0048   -0.4416 H   0  0  0  0  0  0  0  0  0  0  0  0
    5.7543    3.9186    0.5264 H   0  0  0  0  0  0  0  0  0  0  0  0
    7.2628    3.5432    1.3812 H   0  0  0  0  0  0  0  0  0  0  0  0
    6.5675    1.1225    1.5367 H   0  0  0  0  0  0  0  0  0  0  0  0
    4.5558    3.1187    2.7065 H   0  0  0  0  0  0  0  0  0  0  0  0
    4.8371    1.4749    3.2909 H   0  0  0  0  0  0  0  0  0  0  0  0
    6.1213    2.6831    3.4172 H   0  0  0  0  0  0  0  0  0  0  0  0
    4.0587    2.0603    0.2196 H   0  0  0  0  0  0  0  0  0  0  0  0
    3.3816    1.1427   -1.6956 H   0  0  0  0  0  0  0  0  0  0  0  0
    1.4286    0.3814   -2.9646 H   0  0  0  0  0  0  0  0  0  0  0  0
   -0.3612   -2.8130   -2.2441 H   0  0  0  0  0  0  0  0  0  0  0  0
    0.0343   -1.6534   -3.4734 H   0  0  0  0  0  0  0  0  0  0  0  0
   -1.8360   -4.5239    1.9823 H   0  0  0  0  0  0  0  0  0  0  0  0
   -3.9739   -5.1844    3.1239 H   0  0  0  0  0  0  0  0  0  0  0  0
   -6.3046   -2.7325    0.7348 H   0  0  0  0  0  0  0  0  0  0  0  0
   -4.6580   -1.0735   -2.4984 H   0  0  0  0  0  0  0  0  0  0  0  0
   -5.8718   -1.5362   -1.3236 H   0  0  0  0  0  0  0  0  0  0  0  0
   -4.3053    1.2779   -2.8019 H   0  0  0  0  0  0  0  0  0  0  0  0
   -4.6220    3.6159   -2.0506 H   0  0  0  0  0  0  0  0  0  0  0  0
   -6.1601    2.2505    1.7112 H   0  0  0  0  0  0  0  0  0  0  0  0
   -5.8469   -0.0964    1.0091 H   0  0  0  0  0  0  0  0  0  0  0  0
    0.7309   -2.7072   -0.0326 H   0  0  0  0  0  0  0  0  0  0  0  0
    2.6792   -1.9358    1.2490 H   0  0  0  0  0  0  0  0  0  0  0  0
  1  2  1  0
  2  3  1  0
  3  4  1  0
  3  5  1  0
  5  6  1  0
  6  7  2  0
  6  8  1  0
  8  9  2  0
  9 10  1  0
 10 11  2  0
 11 12  1  0
 12 13  1  0
 13 14  1  0
 14 15  2  0
 15 16  1  0
 16 17  2  0
 17 18  1  0
 18 19  2  0
 19 20  1  0
 20 21  2  0
 21 22  1  0
 22 23  1  0
 23 24  1  0
 24 25  2  0
 25 26  1  0
 26 27  2  0
 27 28  1  0
 27 29  1  0
 29 30  2  0
 11 31  1  0
 31 32  2  0
 32  8  1  0
 22 14  1  0
 30 24  1  0
 21 16  1  0
  1 33  1  0
  1 34  1  0
  1 35  1  0
  2 36  1  0
  2 37  1  0
  3 38  1  0
  4 39  1  0
  4 40  1  0
  4 41  1  0
  5 42  1  0
  9 43  1  0
 10 44  1  0
 12 45  1  0
 12 46  1  0
 17 47  1  0
 18 48  1  0
 20 49  1  0
 23 50  1  0
 23 51  1  0
 25 52  1  0
 26 53  1  0
 29 54  1  0
 30 55  1  0
 31 56  1  0
 32 57  1  0
M  END
$$$$
