
     RDKit          3D

 38 39  0  0  0  0  0  0  0  0999 V2000
    2.1331   -1.2160   -1.8461 O   0  0  0  0  0  0  0  0  0  0  0  0
    1.8006   -0.1750   -1.3050 C   0  0  0  0  0  0  0  0  0  0  0  0
    2.6619    0.7358   -0.7409 N   0  0  0  0  0  0  0  0  0  0  0  0
    4.0954    0.5631   -0.7582 C   0  0  0  0  0  0  0  0  0  0  0  0
    4.7235    0.9405   -2.0991 C   0  0  0  0  0  0  0  0  0  0  0  0
    6.1307    0.7300   -2.0678 O   0  0  0  0  0  0  0  0  0  0  0  0
    0.3250    0.2240   -1.1873 C   0  0  0  0  0  0  0  0  0  0  0  0
   -0.6830   -0.7919   -1.6945 C   0  0  0  0  0  0  0  0  0  0  0  0
   -1.3655   -1.5295   -0.5660 C   0  0  0  0  0  0  0  0  0  0  0  0
   -0.6452   -2.4353    0.2266 C   0  0  0  0  0  0  0  0  0  0  0  0
   -1.2657   -3.0942    1.2899 C   0  0  0  0  0  0  0  0  0  0  0  0
   -2.6078   -2.8473    1.5673 C   0  0  0  0  0  0  0  0  0  0  0  0
   -3.4427   -3.7252    3.0172 Br  0  0  0  0  0  0  0  0  0  0  0  0
   -3.3393   -1.9574    0.7839 C   0  0  0  0  0  0  0  0  0  0  0  0
   -2.7214   -1.3067   -0.2854 C   0  0  0  0  0  0  0  0  0  0  0  0
    0.0817    1.3757   -0.6242 N   0  0  0  0  0  0  0  0  0  0  0  0
   -1.2295    1.7493   -0.4844 C   0  0  0  0  0  0  0  0  0  0  0  0
   -1.9694    1.9535   -1.4405 O   0  0  0  0  0  0  0  0  0  0  0  0
   -1.6526    1.8987    0.9037 C   0  0  0  0  0  0  0  0  0  0  0  0
   -2.8980    2.3184    1.3405 C   0  0  0  0  0  0  0  0  0  0  0  0
   -3.0113    2.3293    2.7608 C   0  0  0  0  0  0  0  0  0  0  0  0
   -1.8497    1.9149    3.3698 C   0  0  0  0  0  0  0  0  0  0  0  0
   -0.6356    1.5207    2.2340 S   0  0  0  0  0  0  0  0  0  0  0  0
    2.2468    1.5779   -0.3496 H   0  0  0  0  0  0  0  0  0  0  0  0
    4.3323   -0.4797   -0.5172 H   0  0  0  0  0  0  0  0  0  0  0  0
    4.5168    1.1787    0.0435 H   0  0  0  0  0  0  0  0  0  0  0  0
    4.3013    0.3566   -2.9231 H   0  0  0  0  0  0  0  0  0  0  0  0
    4.5431    1.9981   -2.3163 H   0  0  0  0  0  0  0  0  0  0  0  0
    6.2759   -0.2324   -2.0712 H   0  0  0  0  0  0  0  0  0  0  0  0
   -1.4180   -0.2857   -2.3292 H   0  0  0  0  0  0  0  0  0  0  0  0
   -0.2014   -1.5244   -2.3505 H   0  0  0  0  0  0  0  0  0  0  0  0
    0.4041   -2.6414    0.0202 H   0  0  0  0  0  0  0  0  0  0  0  0
   -0.6935   -3.7923    1.8955 H   0  0  0  0  0  0  0  0  0  0  0  0
   -4.3861   -1.7615    0.9971 H   0  0  0  0  0  0  0  0  0  0  0  0
   -3.3065   -0.6158   -0.8911 H   0  0  0  0  0  0  0  0  0  0  0  0
   -3.6954    2.6015    0.6624 H   0  0  0  0  0  0  0  0  0  0  0  0
   -3.9004    2.6238    3.3059 H   0  0  0  0  0  0  0  0  0  0  0  0
   -1.6546    1.8212    4.4295 H   0  0  0  0  0  0  0  0  0  0  0  0
  1  2  2  0
  2  3  1  0
  3  4  1  0
  4  5  1  0
  5  6  1  0
  2  7  1  0
  7  8  1  0
  8  9  1  0
  9 10  2  0
 10 11  1  0
 11 12  2  0
 12 13  1  0
 12 14  1  0
 14 15  2  0
  7 16  2  3
 16 17  1  0
 17 18  2  0
 17 19  1  0
 19 20  2  0
 20 21  1  0
 21 22  2  0
 22 23  1  0
 15  9  1  0
 23 19  1  0
  3 24  1  0
  4 25  1  0
  4 26  1  0
  5 27  1  0
  5 28  1  0
  6 29  1  0
  8 30  1  0
  8 31  1  0
 10 32  1  0
 11 33  1  0
 14 34  1  0
 15 35  1  0
 20 36  1  0
 21 37  1  0
 22 38  1  0
M  END
$$$$
