
     RDKit          3D

 35 37  0  0  0  0  0  0  0  0999 V2000
   -3.8667    2.3623    0.5917 C   0  0  0  0  0  0  0  0  0  0  0  0
   -3.1563    1.0474    0.4511 C   0  0  0  0  0  0  0  0  0  0  0  0
   -2.0965    0.7221    1.3090 C   0  0  0  0  0  0  0  0  0  0  0  0
   -1.4552   -0.5129    1.2046 C   0  0  0  0  0  0  0  0  0  0  0  0
   -1.8752   -1.4258    0.2341 C   0  0  0  0  0  0  0  0  0  0  0  0
   -1.0653   -3.0027    0.0923 S   0  0  0  0  0  6  0  0  0  0  0  0
   -2.0380   -3.9491   -0.4121 O   0  0  0  0  0  0  0  0  0  0  0  0
   -0.3413   -3.2524    1.3205 O   0  0  0  0  0  0  0  0  0  0  0  0
    0.0368   -2.7483   -1.1657 N   0  0  0  0  0  0  0  0  0  0  0  0
    0.9685   -1.6800   -1.0647 C   0  0  0  0  0  0  0  0  0  0  0  0
    0.8561   -0.5941   -1.9311 C   0  0  0  0  0  0  0  0  0  0  0  0
    1.7398    0.4834   -1.8194 C   0  0  0  0  0  0  0  0  0  0  0  0
    2.7437    0.4764   -0.8380 C   0  0  0  0  0  0  0  0  0  0  0  0
    3.6276    1.5779   -0.7371 N   0  0  0  0  0  0  0  0  0  0  0  0
    4.6696    1.7881    0.1305 C   0  0  0  0  0  0  0  0  0  0  0  0
    5.2227    2.9513   -0.1263 N   0  0  0  0  0  0  0  0  0  0  0  0
    4.5137    3.4761   -1.1735 N   0  0  0  0  0  0  0  0  0  0  0  0
    3.5454    2.6544   -1.5528 N   0  0  0  0  0  0  0  0  0  0  0  0
    2.8546   -0.6199    0.0278 C   0  0  0  0  0  0  0  0  0  0  0  0
    1.9648   -1.6932   -0.0894 C   0  0  0  0  0  0  0  0  0  0  0  0
   -2.9517   -1.1293   -0.6060 C   0  0  0  0  0  0  0  0  0  0  0  0
   -3.5892    0.1073   -0.4944 C   0  0  0  0  0  0  0  0  0  0  0  0
   -4.2706    2.6925   -0.3712 H   0  0  0  0  0  0  0  0  0  0  0  0
   -3.1805    3.1413    0.9400 H   0  0  0  0  0  0  0  0  0  0  0  0
   -4.6891    2.2683    1.3074 H   0  0  0  0  0  0  0  0  0  0  0  0
   -1.7682    1.4300    2.0676 H   0  0  0  0  0  0  0  0  0  0  0  0
   -0.6358   -0.7528    1.8783 H   0  0  0  0  0  0  0  0  0  0  0  0
   -0.3828   -2.9330   -2.0755 H   0  0  0  0  0  0  0  0  0  0  0  0
    0.0787   -0.5637   -2.6899 H   0  0  0  0  0  0  0  0  0  0  0  0
    1.6254    1.3216   -2.5060 H   0  0  0  0  0  0  0  0  0  0  0  0
    4.9765    1.0978    0.8992 H   0  0  0  0  0  0  0  0  0  0  0  0
    3.6132   -0.6797    0.8031 H   0  0  0  0  0  0  0  0  0  0  0  0
    2.0615   -2.5429    0.5842 H   0  0  0  0  0  0  0  0  0  0  0  0
   -3.3044   -1.8519   -1.3381 H   0  0  0  0  0  0  0  0  0  0  0  0
   -4.4319    0.3333   -1.1451 H   0  0  0  0  0  0  0  0  0  0  0  0
  1  2  1  0
  2  3  2  0
  3  4  1  0
  4  5  2  0
  5  6  1  0
  6  7  2  0
  6  8  2  0
  6  9  1  0
  9 10  1  0
 10 11  2  0
 11 12  1  0
 12 13  2  0
 13 14  1  0
 14 15  1  0
 15 16  2  0
 16 17  1  0
 17 18  2  0
 13 19  1  0
 19 20  2  0
  5 21  1  0
 21 22  2  0
 22  2  1  0
 20 10  1  0
 18 14  1  0
  1 23  1  0
  1 24  1  0
  1 25  1  0
  3 26  1  0
  4 27  1  0
  9 28  1  0
 11 29  1  0
 12 30  1  0
 15 31  1  0
 19 32  1  0
 20 33  1  0
 21 34  1  0
 22 35  1  0
M  END
$$$$
