
     RDKit          3D

 72 76  0  0  0  0  0  0  0  0999 V2000
   10.1546   -1.8988   -0.8817 C   0  0  0  0  0  0  0  0  0  0  0  0
    9.6534   -0.7235   -1.5111 O   0  0  0  0  0  0  0  0  0  0  0  0
    8.3210   -0.4596   -1.3544 C   0  0  0  0  0  0  0  0  0  0  0  0
    7.8521    0.6336   -2.0866 C   0  0  0  0  0  0  0  0  0  0  0  0
    6.5088    1.0157   -2.0196 C   0  0  0  0  0  0  0  0  0  0  0  0
    5.6094    0.3036   -1.2168 C   0  0  0  0  0  0  0  0  0  0  0  0
    4.2001    0.7093   -1.1398 C   0  0  0  0  0  0  0  0  0  0  0  0
    3.9119    2.0122   -1.0266 N   0  0  0  0  0  0  0  0  0  0  0  0
    2.2774    2.2118   -0.9283 S   0  0  0  0  0  0  0  0  0  0  0  0
    1.8725    0.5555   -1.0079 C   0  0  0  0  0  0  0  0  0  0  0  0
    0.4924    0.1006   -1.0080 C   0  0  0  0  0  0  0  0  0  0  0  0
    0.1239   -0.7862   -1.7848 O   0  0  0  0  0  0  0  0  0  0  0  0
   -0.4266    0.7381   -0.1436 N   0  0  0  0  0  0  0  0  0  0  0  0
   -0.0373    1.0818    1.1949 C   0  0  0  0  0  0  0  0  0  0  0  0
   -0.4560    2.2875    1.7721 C   0  0  0  0  0  0  0  0  0  0  0  0
   -0.0628    2.6285    3.0698 C   0  0  0  0  0  0  0  0  0  0  0  0
    0.7577    1.7698    3.7882 C   0  0  0  0  0  0  0  0  0  0  0  0
    1.1296    2.0983    5.0324 F   0  0  0  0  0  0  0  0  0  0  0  0
    1.1971    0.5769    3.2323 C   0  0  0  0  0  0  0  0  0  0  0  0
    0.8027    0.2340    1.9372 C   0  0  0  0  0  0  0  0  0  0  0  0
   -1.8506    0.4025   -0.3892 C   0  0  0  0  0  0  0  0  0  0  0  0
   -2.3102   -0.9247    0.2892 C   0  0  0  0  0  0  0  0  0  0  0  0
   -1.6770   -1.5033    1.1714 O   0  0  0  0  0  0  0  0  0  0  0  0
   -3.5298   -1.4041   -0.1735 N   0  0  0  0  0  0  0  0  0  0  0  0
   -4.0596   -2.6755    0.2680 C   0  0  0  0  0  0  0  0  0  0  0  0
   -5.5582   -2.7972    0.0243 C   0  0  0  0  0  0  0  0  0  0  0  0
   -5.8113   -4.2944    0.1170 C   0  0  0  0  0  0  0  0  0  0  0  0
   -4.5242   -4.9652   -0.3643 C   0  0  0  0  0  0  0  0  0  0  0  0
   -3.4918   -3.8524   -0.5218 C   0  0  0  0  0  0  0  0  0  0  0  0
   -2.8172    1.5723   -0.1938 C   0  0  0  0  0  0  0  0  0  0  0  0
   -3.6529    1.6884    0.9298 C   0  0  0  0  0  0  0  0  0  0  0  0
   -4.5194    2.7813    1.0691 C   0  0  0  0  0  0  0  0  0  0  0  0
   -4.5613    3.7772    0.0940 C   0  0  0  0  0  0  0  0  0  0  0  0
   -5.3544    4.8889    0.1134 O   0  0  0  0  0  0  0  0  0  0  0  0
   -6.2564    5.0205    1.2057 C   0  0  0  0  0  0  0  0  0  0  0  0
   -3.7271    3.6741   -1.0200 C   0  0  0  0  0  0  0  0  0  0  0  0
   -2.8618    2.5869   -1.1651 C   0  0  0  0  0  0  0  0  0  0  0  0
    3.0396   -0.1646   -1.1764 C   0  0  0  0  0  0  0  0  0  0  0  0
    3.0672   -1.5149   -1.3382 N   0  0  0  0  0  0  0  0  0  0  0  0
    6.0880   -0.7813   -0.4698 C   0  0  0  0  0  0  0  0  0  0  0  0
    7.4348   -1.1622   -0.5385 C   0  0  0  0  0  0  0  0  0  0  0  0
   10.0917   -1.8185    0.2089 H   0  0  0  0  0  0  0  0  0  0  0  0
    9.6366   -2.7936   -1.2471 H   0  0  0  0  0  0  0  0  0  0  0  0
   11.2123   -1.9955   -1.1462 H   0  0  0  0  0  0  0  0  0  0  0  0
    8.5412    1.1987   -2.7100 H   0  0  0  0  0  0  0  0  0  0  0  0
    6.1707    1.8766   -2.5926 H   0  0  0  0  0  0  0  0  0  0  0  0
   -1.0562    3.0011    1.2150 H   0  0  0  0  0  0  0  0  0  0  0  0
   -0.3824    3.5645    3.5167 H   0  0  0  0  0  0  0  0  0  0  0  0
    1.8361   -0.0862    3.8065 H   0  0  0  0  0  0  0  0  0  0  0  0
    1.1266   -0.7249    1.5376 H   0  0  0  0  0  0  0  0  0  0  0  0
   -1.9350    0.1707   -1.4632 H   0  0  0  0  0  0  0  0  0  0  0  0
   -3.9346   -0.9763   -0.9970 H   0  0  0  0  0  0  0  0  0  0  0  0
   -3.8404   -2.8086    1.3355 H   0  0  0  0  0  0  0  0  0  0  0  0
   -5.8274   -2.4340   -0.9754 H   0  0  0  0  0  0  0  0  0  0  0  0
   -6.1474   -2.2305    0.7514 H   0  0  0  0  0  0  0  0  0  0  0  0
   -6.0067   -4.5797    1.1560 H   0  0  0  0  0  0  0  0  0  0  0  0
   -6.6790   -4.5985   -0.4759 H   0  0  0  0  0  0  0  0  0  0  0  0
   -4.6796   -5.4882   -1.3140 H   0  0  0  0  0  0  0  0  0  0  0  0
   -4.1903   -5.7094    0.3672 H   0  0  0  0  0  0  0  0  0  0  0  0
   -3.3856   -3.5954   -1.5834 H   0  0  0  0  0  0  0  0  0  0  0  0
   -2.5027   -4.1550   -0.1616 H   0  0  0  0  0  0  0  0  0  0  0  0
   -3.6338    0.9400    1.7220 H   0  0  0  0  0  0  0  0  0  0  0  0
   -5.1416    2.8258    1.9585 H   0  0  0  0  0  0  0  0  0  0  0  0
   -6.9571    4.1807    1.2449 H   0  0  0  0  0  0  0  0  0  0  0  0
   -5.7147    5.1299    2.1514 H   0  0  0  0  0  0  0  0  0  0  0  0
   -6.8398    5.9341    1.0457 H   0  0  0  0  0  0  0  0  0  0  0  0
   -3.7509    4.4495   -1.7829 H   0  0  0  0  0  0  0  0  0  0  0  0
   -2.2188    2.5403   -2.0433 H   0  0  0  0  0  0  0  0  0  0  0  0
    3.8791   -1.9386   -1.7836 H   0  0  0  0  0  0  0  0  0  0  0  0
    2.2044   -1.9881   -1.6191 H   0  0  0  0  0  0  0  0  0  0  0  0
    5.4184   -1.3332    0.1894 H   0  0  0  0  0  0  0  0  0  0  0  0
    7.7586   -1.9988    0.0713 H   0  0  0  0  0  0  0  0  0  0  0  0
  1  2  1  0
  2  3  1  0
  3  4  2  0
  4  5  1  0
  5  6  2  0
  6  7  1  0
  7  8  2  0
  8  9  1  0
  9 10  1  0
 10 11  1  0
 11 12  2  0
 11 13  1  0
 13 14  1  0
 14 15  2  0
 15 16  1  0
 16 17  2  0
 17 18  1  0
 17 19  1  0
 19 20  2  0
 13 21  1  0
 21 22  1  0
 22 23  2  0
 22 24  1  0
 24 25  1  0
 25 26  1  0
 26 27  1  0
 27 28  1  0
 28 29  1  0
 21 30  1  0
 30 31  2  0
 31 32  1  0
 32 33  2  0
 33 34  1  0
 34 35  1  0
 33 36  1  0
 36 37  2  0
 10 38  2  0
 38 39  1  0
  6 40  1  0
 40 41  2  0
 41  3  1  0
 38  7  1  0
 20 14  1  0
 29 25  1  0
 37 30  1  0
  1 42  1  0
  1 43  1  0
  1 44  1  0
  4 45  1  0
  5 46  1  0
 15 47  1  0
 16 48  1  0
 19 49  1  0
 20 50  1  0
 21 51  1  0
 24 52  1  0
 25 53  1  0
 26 54  1  0
 26 55  1  0
 27 56  1  0
 27 57  1  0
 28 58  1  0
 28 59  1  0
 29 60  1  0
 29 61  1  0
 31 62  1  0
 32 63  1  0
 35 64  1  0
 35 65  1  0
 35 66  1  0
 36 67  1  0
 37 68  1  0
 39 69  1  0
 39 70  1  0
 40 71  1  0
 41 72  1  0
M  END
$$$$
