
     RDKit          3D

 54 58  0  0  0  0  0  0  0  0999 V2000
   -6.2012   -3.0541    1.0179 C   0  0  0  0  0  0  0  0  0  0  0  0
   -5.0003   -2.1208    1.0903 C   0  0  0  0  0  0  0  0  0  0  0  0
   -3.8623   -2.5166    0.1287 C   0  0  0  0  0  0  0  0  0  0  0  0
   -4.2565   -2.4131   -1.3484 C   0  0  0  0  0  0  0  0  0  0  0  0
   -2.6250   -1.7705    0.4189 N   0  0  0  0  0  0  0  0  0  0  0  0
   -1.5198   -2.4682    0.9023 C   0  0  0  0  0  0  0  0  0  0  0  0
   -0.3639   -1.9638    1.2133 N   0  0  0  0  0  0  0  0  0  0  0  0
   -0.2973   -0.6272    1.0182 C   0  0  0  0  0  0  0  0  0  0  0  0
   -1.3026    0.1993    0.5628 C   0  0  0  0  0  0  0  0  0  0  0  0
   -2.5826   -0.3767    0.2339 C   0  0  0  0  0  0  0  0  0  0  0  0
   -3.5315    0.2924   -0.1608 O   0  0  0  0  0  0  0  0  0  0  0  0
   -0.7965    1.5127    0.5345 C   0  0  0  0  0  0  0  0  0  0  0  0
   -1.3674    2.6907    0.1824 N   0  0  0  0  0  0  0  0  0  0  0  0
   -0.5631    3.7588    0.2952 C   0  0  0  0  0  0  0  0  0  0  0  0
   -1.0736    5.0037   -0.0492 C   0  0  0  0  0  0  0  0  0  0  0  0
   -0.3011    6.1622    0.0421 C   0  0  0  0  0  0  0  0  0  0  0  0
    1.0101    6.0757    0.4876 C   0  0  0  0  0  0  0  0  0  0  0  0
    1.5368    4.8313    0.8373 C   0  0  0  0  0  0  0  0  0  0  0  0
    0.7804    3.6693    0.7512 C   0  0  0  0  0  0  0  0  0  0  0  0
    1.3567    2.5070    1.1049 N   0  0  0  0  0  0  0  0  0  0  0  0
    0.5243    1.4530    0.9742 C   0  0  0  0  0  0  0  0  0  0  0  0
    0.8202    0.1384    1.2430 N   0  0  0  0  0  0  0  0  0  0  0  0
    2.1020   -0.3439    1.7264 C   0  0  0  0  0  0  0  0  0  0  0  0
    3.0082   -0.7416    0.5874 C   0  0  0  0  0  0  0  0  0  0  0  0
    3.8197    0.2096   -0.0461 C   0  0  0  0  0  0  0  0  0  0  0  0
    4.6498   -0.1532   -1.1129 C   0  0  0  0  0  0  0  0  0  0  0  0
    4.6767   -1.4726   -1.5636 C   0  0  0  0  0  0  0  0  0  0  0  0
    5.4382   -1.9577   -2.5911 O   0  0  0  0  0  0  0  0  0  0  0  0
    6.2624   -1.0225   -3.2750 C   0  0  0  0  0  0  0  0  0  0  0  0
    3.8647   -2.4219   -0.9397 C   0  0  0  0  0  0  0  0  0  0  0  0
    3.0340   -2.0625    0.1242 C   0  0  0  0  0  0  0  0  0  0  0  0
   -5.9043   -4.0924    1.1956 H   0  0  0  0  0  0  0  0  0  0  0  0
   -6.6959   -2.9957    0.0441 H   0  0  0  0  0  0  0  0  0  0  0  0
   -6.9369   -2.7780    1.7802 H   0  0  0  0  0  0  0  0  0  0  0  0
   -4.6184   -2.1302    2.1191 H   0  0  0  0  0  0  0  0  0  0  0  0
   -5.3402   -1.0979    0.8952 H   0  0  0  0  0  0  0  0  0  0  0  0
   -3.6480   -3.5778    0.3110 H   0  0  0  0  0  0  0  0  0  0  0  0
   -5.0322   -3.1436   -1.5990 H   0  0  0  0  0  0  0  0  0  0  0  0
   -4.6418   -1.4221   -1.6053 H   0  0  0  0  0  0  0  0  0  0  0  0
   -3.3941   -2.6145   -1.9934 H   0  0  0  0  0  0  0  0  0  0  0  0
   -1.6784   -3.5519    1.0204 H   0  0  0  0  0  0  0  0  0  0  0  0
   -2.1020    5.0708   -0.3982 H   0  0  0  0  0  0  0  0  0  0  0  0
   -0.7270    7.1234   -0.2343 H   0  0  0  0  0  0  0  0  0  0  0  0
    1.6244    6.9692    0.5648 H   0  0  0  0  0  0  0  0  0  0  0  0
    2.5646    4.7659    1.1867 H   0  0  0  0  0  0  0  0  0  0  0  0
    1.9220   -1.1892    2.4009 H   0  0  0  0  0  0  0  0  0  0  0  0
    2.5635    0.4428    2.3348 H   0  0  0  0  0  0  0  0  0  0  0  0
    3.8042    1.2476    0.2833 H   0  0  0  0  0  0  0  0  0  0  0  0
    5.2568    0.6209   -1.5697 H   0  0  0  0  0  0  0  0  0  0  0  0
    6.7938   -1.5611   -4.0656 H   0  0  0  0  0  0  0  0  0  0  0  0
    5.6619   -0.2403   -3.7511 H   0  0  0  0  0  0  0  0  0  0  0  0
    7.0127   -0.5925   -2.6033 H   0  0  0  0  0  0  0  0  0  0  0  0
    3.8748   -3.4512   -1.2896 H   0  0  0  0  0  0  0  0  0  0  0  0
    2.4011   -2.8195    0.5831 H   0  0  0  0  0  0  0  0  0  0  0  0
  1  2  1  0
  2  3  1  0
  3  4  1  0
  3  5  1  0
  5  6  1  0
  6  7  2  0
  7  8  1  0
  8  9  2  0
  9 10  1  0
 10 11  2  0
  9 12  1  0
 12 13  2  0
 13 14  1  0
 14 15  2  0
 15 16  1  0
 16 17  2  0
 17 18  1  0
 18 19  2  0
 19 20  1  0
 20 21  2  0
 21 22  1  0
 22 23  1  0
 23 24  1  0
 24 25  2  0
 25 26  1  0
 26 27  2  0
 27 28  1  0
 28 29  1  0
 27 30  1  0
 30 31  2  0
 10  5  1  0
 21 12  1  0
 31 24  1  0
 22  8  1  0
 19 14  1  0
  1 32  1  0
  1 33  1  0
  1 34  1  0
  2 35  1  0
  2 36  1  0
  3 37  1  0
  4 38  1  0
  4 39  1  0
  4 40  1  0
  6 41  1  0
 15 42  1  0
 16 43  1  0
 17 44  1  0
 18 45  1  0
 23 46  1  0
 23 47  1  0
 25 48  1  0
 26 49  1  0
 29 50  1  0
 29 51  1  0
 29 52  1  0
 30 53  1  0
 31 54  1  0
M  END
$$$$
