
     RDKit          3D

 31 33  0  0  0  0  0  0  0  0999 V2000
   -0.8305    2.0660   -1.2181 C   0  0  0  0  0  0  0  0  0  0  0  0
   -1.4413    0.8289   -1.6417 N   0  0  0  0  0  0  0  0  0  0  0  0
   -1.8299    0.5870   -2.9348 C   0  0  0  0  0  0  0  0  0  0  0  0
   -2.4577   -0.5585   -3.0535 N   0  0  0  0  0  0  0  0  0  0  0  0
   -2.4683   -1.0848   -1.7758 C   0  0  0  0  0  0  0  0  0  0  0  0
   -3.0891   -2.3639   -1.5149 N   0  0  0  0  0  4  0  0  0  0  0  0
   -3.7370   -2.8841   -2.4340 O   0  0  0  0  0  0  0  0  0  0  0  0
   -2.9275   -2.8564   -0.3890 O   0  0  0  0  0  1  0  0  0  0  0  0
   -1.8106   -0.2602   -0.8744 C   0  0  0  0  0  0  0  0  0  0  0  0
   -1.6166   -0.4152    0.4413 O   0  0  0  0  0  0  0  0  0  0  0  0
   -0.5020    0.0671    1.0899 C   0  0  0  0  0  0  0  0  0  0  0  0
   -0.7497    1.0152    2.0883 C   0  0  0  0  0  0  0  0  0  0  0  0
    0.3096    1.5820    2.7858 C   0  0  0  0  0  0  0  0  0  0  0  0
    1.6159    1.1884    2.4987 C   0  0  0  0  0  0  0  0  0  0  0  0
    1.8811    0.2040    1.5316 C   0  0  0  0  0  0  0  0  0  0  0  0
    3.2017   -0.2012    1.2765 C   0  0  0  0  0  0  0  0  0  0  0  0
    3.4788   -1.1985    0.3423 C   0  0  0  0  0  0  0  0  0  0  0  0
    2.4378   -1.8116   -0.3425 C   0  0  0  0  0  0  0  0  0  0  0  0
    1.1200   -1.4173   -0.1035 C   0  0  0  0  0  0  0  0  0  0  0  0
    0.8109   -0.3922    0.8198 C   0  0  0  0  0  0  0  0  0  0  0  0
    0.2245    1.8841   -1.0056 H   0  0  0  0  0  0  0  0  0  0  0  0
   -1.3618    2.4437   -0.3424 H   0  0  0  0  0  0  0  0  0  0  0  0
   -0.9123    2.8044   -2.0210 H   0  0  0  0  0  0  0  0  0  0  0  0
   -1.6417    1.2837   -3.7432 H   0  0  0  0  0  0  0  0  0  0  0  0
   -1.7702    1.3164    2.3109 H   0  0  0  0  0  0  0  0  0  0  0  0
    0.1216    2.3261    3.5555 H   0  0  0  0  0  0  0  0  0  0  0  0
    2.4327    1.6434    3.0562 H   0  0  0  0  0  0  0  0  0  0  0  0
    4.0308    0.2527    1.8156 H   0  0  0  0  0  0  0  0  0  0  0  0
    4.5057   -1.5058    0.1621 H   0  0  0  0  0  0  0  0  0  0  0  0
    2.6459   -2.6044   -1.0567 H   0  0  0  0  0  0  0  0  0  0  0  0
    0.3291   -1.9390   -0.6359 H   0  0  0  0  0  0  0  0  0  0  0  0
  1  2  1  0
  2  3  1  0
  3  4  2  0
  4  5  1  0
  5  6  1  0
  6  7  2  0
  6  8  1  0
  5  9  2  0
  9 10  1  0
 10 11  1  0
 11 12  2  0
 12 13  1  0
 13 14  2  0
 14 15  1  0
 15 16  2  0
 16 17  1  0
 17 18  2  0
 18 19  1  0
 19 20  2  0
  9  2  1  0
 20 11  1  0
 20 15  1  0
  1 21  1  0
  1 22  1  0
  1 23  1  0
  3 24  1  0
 12 25  1  0
 13 26  1  0
 14 27  1  0
 16 28  1  0
 17 29  1  0
 18 30  1  0
 19 31  1  0
M  CHG  2   6   1   8  -1
M  END
$$$$
