
     RDKit          3D

 54 57  0  0  0  0  0  0  0  0999 V2000
   -2.7560   -4.1665   -3.3224 C   0  0  0  0  0  0  0  0  0  0  0  0
   -3.5588   -3.8405   -2.1950 O   0  0  0  0  0  0  0  0  0  0  0  0
   -3.4161   -2.5822   -1.6791 C   0  0  0  0  0  0  0  0  0  0  0  0
   -4.1904   -2.3246   -0.5460 C   0  0  0  0  0  0  0  0  0  0  0  0
   -4.1392   -1.0787    0.0856 C   0  0  0  0  0  0  0  0  0  0  0  0
   -3.3112   -0.0656   -0.4125 C   0  0  0  0  0  0  0  0  0  0  0  0
   -3.2350    1.2415    0.2537 C   0  0  0  0  0  0  0  0  0  0  0  0
   -4.6537    2.1966    0.3322 S   0  0  0  0  0  0  0  0  0  0  0  0
   -3.8605    3.4759    1.1569 C   0  0  0  0  0  0  0  0  0  0  0  0
   -4.4381    4.6873    1.5880 C   0  0  0  0  0  0  0  0  0  0  0  0
   -3.6420    5.6197    2.2555 C   0  0  0  0  0  0  0  0  0  0  0  0
   -2.3016    5.3568    2.4935 C   0  0  0  0  0  0  0  0  0  0  0  0
   -1.7335    4.1544    2.0625 C   0  0  0  0  0  0  0  0  0  0  0  0
   -2.5124    3.1863    1.3746 C   0  0  0  0  0  0  0  0  0  0  0  0
   -2.1557    1.8893    0.8377 C   0  0  0  0  0  0  0  0  0  0  0  0
   -0.8259    1.2871    0.8849 C   0  0  0  0  0  0  0  0  0  0  0  0
   -0.5885    0.1393    1.6456 C   0  0  0  0  0  0  0  0  0  0  0  0
    0.6897   -0.4235    1.6792 C   0  0  0  0  0  0  0  0  0  0  0  0
    1.7426    0.1501    0.9616 C   0  0  0  0  0  0  0  0  0  0  0  0
    2.9375   -0.5011    1.0871 O   0  0  0  0  0  0  0  0  0  0  0  0
    4.0399   -0.0008    0.3290 C   0  0  0  0  0  0  0  0  0  0  0  0
    5.2836   -0.8754    0.5859 C   0  0  0  0  0  0  0  0  0  0  0  0
    5.1809   -2.2799    0.1357 N   0  0  0  0  0  0  0  0  0  0  0  0
    6.3388   -3.0441    0.6039 C   0  0  0  0  0  0  0  0  0  0  0  0
    5.0602   -2.3926   -1.3168 C   0  0  0  0  0  0  0  0  0  0  0  0
    1.5079    1.3000    0.2074 C   0  0  0  0  0  0  0  0  0  0  0  0
    0.2285    1.8665    0.1694 C   0  0  0  0  0  0  0  0  0  0  0  0
   -2.5384   -0.3279   -1.5510 C   0  0  0  0  0  0  0  0  0  0  0  0
   -2.5892   -1.5777   -2.1807 C   0  0  0  0  0  0  0  0  0  0  0  0
   -1.6898   -4.1012   -3.0810 H   0  0  0  0  0  0  0  0  0  0  0  0
   -2.9717   -5.2034   -3.5977 H   0  0  0  0  0  0  0  0  0  0  0  0
   -3.0072   -3.5352   -4.1811 H   0  0  0  0  0  0  0  0  0  0  0  0
   -4.8370   -3.1027   -0.1477 H   0  0  0  0  0  0  0  0  0  0  0  0
   -4.7454   -0.9109    0.9727 H   0  0  0  0  0  0  0  0  0  0  0  0
   -5.4894    4.8929    1.4066 H   0  0  0  0  0  0  0  0  0  0  0  0
   -4.0797    6.5560    2.5936 H   0  0  0  0  0  0  0  0  0  0  0  0
   -1.6886    6.0846    3.0193 H   0  0  0  0  0  0  0  0  0  0  0  0
   -0.6826    3.9597    2.2642 H   0  0  0  0  0  0  0  0  0  0  0  0
   -1.3904   -0.3265    2.2131 H   0  0  0  0  0  0  0  0  0  0  0  0
    0.8671   -1.3205    2.2680 H   0  0  0  0  0  0  0  0  0  0  0  0
    4.2733    1.0179    0.6632 H   0  0  0  0  0  0  0  0  0  0  0  0
    3.7992    0.0243   -0.7393 H   0  0  0  0  0  0  0  0  0  0  0  0
    5.4502   -0.8775    1.6712 H   0  0  0  0  0  0  0  0  0  0  0  0
    6.1550   -0.3949    0.1226 H   0  0  0  0  0  0  0  0  0  0  0  0
    6.4026   -3.0188    1.6975 H   0  0  0  0  0  0  0  0  0  0  0  0
    6.2443   -4.0991    0.3231 H   0  0  0  0  0  0  0  0  0  0  0  0
    7.2799   -2.6603    0.1934 H   0  0  0  0  0  0  0  0  0  0  0  0
    4.1266   -1.9469   -1.6734 H   0  0  0  0  0  0  0  0  0  0  0  0
    5.0237   -3.4455   -1.6199 H   0  0  0  0  0  0  0  0  0  0  0  0
    5.8976   -1.9160   -1.8389 H   0  0  0  0  0  0  0  0  0  0  0  0
    2.2949    1.7820   -0.3618 H   0  0  0  0  0  0  0  0  0  0  0  0
    0.0598    2.7606   -0.4268 H   0  0  0  0  0  0  0  0  0  0  0  0
   -1.8865    0.4417   -1.9584 H   0  0  0  0  0  0  0  0  0  0  0  0
   -1.9694   -1.7300   -3.0576 H   0  0  0  0  0  0  0  0  0  0  0  0
  1  2  1  0
  2  3  1  0
  3  4  2  0
  4  5  1  0
  5  6  2  0
  6  7  1  0
  7  8  1  0
  8  9  1  0
  9 10  2  0
 10 11  1  0
 11 12  2  0
 12 13  1  0
 13 14  2  0
 14 15  1  0
 15 16  1  0
 16 17  2  0
 17 18  1  0
 18 19  2  0
 19 20  1  0
 20 21  1  0
 21 22  1  0
 22 23  1  0
 23 24  1  0
 23 25  1  0
 19 26  1  0
 26 27  2  0
  6 28  1  0
 28 29  2  0
 29  3  1  0
 15  7  2  0
 27 16  1  0
 14  9  1  0
  1 30  1  0
  1 31  1  0
  1 32  1  0
  4 33  1  0
  5 34  1  0
 10 35  1  0
 11 36  1  0
 12 37  1  0
 13 38  1  0
 17 39  1  0
 18 40  1  0
 21 41  1  0
 21 42  1  0
 22 43  1  0
 22 44  1  0
 24 45  1  0
 24 46  1  0
 24 47  1  0
 25 48  1  0
 25 49  1  0
 25 50  1  0
 26 51  1  0
 27 52  1  0
 28 53  1  0
 29 54  1  0
M  END
$$$$
