
     RDKit          3D

 55 58  0  0  0  0  0  0  0  0999 V2000
   -2.3532   -3.8221   -2.0491 C   0  0  0  0  0  0  0  0  0  0  0  0
   -2.9565   -2.7817   -1.2760 O   0  0  0  0  0  0  0  0  0  0  0  0
   -2.0978   -1.8106   -0.8766 C   0  0  0  0  0  0  0  0  0  0  0  0
   -0.8999   -1.7781   -1.1283 O   0  0  0  0  0  0  0  0  0  0  0  0
   -2.7963   -0.7609   -0.0702 C   0  0  0  0  0  0  0  0  0  0  0  0
   -4.1593   -0.9096    0.2416 C   0  0  0  0  0  0  0  0  0  0  0  0
   -4.8201    0.0485    1.0136 C   0  0  0  0  0  0  0  0  0  0  0  0
   -6.1563   -0.0366    1.3181 O   0  0  0  0  0  0  0  0  0  0  0  0
   -6.6328   -1.3476    1.6072 C   0  0  0  0  0  0  0  0  0  0  0  0
   -4.1317    1.1866    1.4603 C   0  0  0  0  0  0  0  0  0  0  0  0
   -4.8652    2.0798    2.1990 O   0  0  0  0  0  0  0  0  0  0  0  0
   -4.2020    3.2430    2.6754 C   0  0  0  0  0  0  0  0  0  0  0  0
   -2.7737    1.3348    1.1511 C   0  0  0  0  0  0  0  0  0  0  0  0
   -2.0890    0.3752    0.3914 C   0  0  0  0  0  0  0  0  0  0  0  0
   -0.7140    0.5182    0.0686 N   0  0  0  0  0  0  0  0  0  0  0  0
    0.1678    1.5106    0.4513 C   0  0  0  0  0  0  0  0  0  0  0  0
   -0.0738    2.4872    1.1476 O   0  0  0  0  0  0  0  0  0  0  0  0
    1.5510    1.3117   -0.0583 C   0  0  0  0  0  0  0  0  0  0  0  0
    2.1563    0.0737    0.1806 C   0  0  0  0  0  0  0  0  0  0  0  0
    3.4381   -0.1433   -0.2943 C   0  0  0  0  0  0  0  0  0  0  0  0
    4.1549   -1.4241   -0.1185 C   0  0  0  0  0  0  0  0  0  0  0  0
    5.5581   -1.4505    0.0037 C   0  0  0  0  0  0  0  0  0  0  0  0
    6.2552   -2.6503    0.1734 C   0  0  0  0  0  0  0  0  0  0  0  0
    5.5621   -3.8564    0.2180 C   0  0  0  0  0  0  0  0  0  0  0  0
    4.1756   -3.8630    0.0896 C   0  0  0  0  0  0  0  0  0  0  0  0
    3.4805   -2.6597   -0.0789 C   0  0  0  0  0  0  0  0  0  0  0  0
    4.1153    0.8259   -0.9570 N   0  0  0  0  0  0  0  0  0  0  0  0
    3.5395    2.0201   -1.1781 C   0  0  0  0  0  0  0  0  0  0  0  0
    4.2673    2.9790   -1.8716 C   0  0  0  0  0  0  0  0  0  0  0  0
    3.7456    4.2420   -2.1578 C   0  0  0  0  0  0  0  0  0  0  0  0
    2.4614    4.5620   -1.7442 C   0  0  0  0  0  0  0  0  0  0  0  0
    1.7109    3.6177   -1.0464 C   0  0  0  0  0  0  0  0  0  0  0  0
    2.2375    2.3344   -0.7487 C   0  0  0  0  0  0  0  0  0  0  0  0
   -3.1021   -4.6051   -2.2032 H   0  0  0  0  0  0  0  0  0  0  0  0
   -2.0447   -3.4355   -3.0256 H   0  0  0  0  0  0  0  0  0  0  0  0
   -1.5008   -4.2602   -1.5178 H   0  0  0  0  0  0  0  0  0  0  0  0
   -4.7115   -1.7642   -0.1365 H   0  0  0  0  0  0  0  0  0  0  0  0
   -5.9470   -1.8943    2.2652 H   0  0  0  0  0  0  0  0  0  0  0  0
   -7.5893   -1.2476    2.1307 H   0  0  0  0  0  0  0  0  0  0  0  0
   -6.8165   -1.9054    0.6830 H   0  0  0  0  0  0  0  0  0  0  0  0
   -3.3985    2.9804    3.3705 H   0  0  0  0  0  0  0  0  0  0  0  0
   -3.8290    3.8551    1.8469 H   0  0  0  0  0  0  0  0  0  0  0  0
   -4.9342    3.8426    3.2255 H   0  0  0  0  0  0  0  0  0  0  0  0
   -2.2462    2.2120    1.5034 H   0  0  0  0  0  0  0  0  0  0  0  0
   -0.3379   -0.2214   -0.5297 H   0  0  0  0  0  0  0  0  0  0  0  0
    1.6379   -0.6918    0.7483 H   0  0  0  0  0  0  0  0  0  0  0  0
    6.1216   -0.5184   -0.0311 H   0  0  0  0  0  0  0  0  0  0  0  0
    7.3382   -2.6369    0.2683 H   0  0  0  0  0  0  0  0  0  0  0  0
    6.1031   -4.7899    0.3474 H   0  0  0  0  0  0  0  0  0  0  0  0
    3.6320   -4.8041    0.1135 H   0  0  0  0  0  0  0  0  0  0  0  0
    2.4003   -2.7081   -0.2021 H   0  0  0  0  0  0  0  0  0  0  0  0
    5.2744    2.7337   -2.2022 H   0  0  0  0  0  0  0  0  0  0  0  0
    4.3454    4.9673   -2.7020 H   0  0  0  0  0  0  0  0  0  0  0  0
    2.0426    5.5419   -1.9594 H   0  0  0  0  0  0  0  0  0  0  0  0
    0.7068    3.8938   -0.7293 H   0  0  0  0  0  0  0  0  0  0  0  0
  1  2  1  0
  2  3  1  0
  3  4  2  0
  3  5  1  0
  5  6  2  0
  6  7  1  0
  7  8  1  0
  8  9  1  0
  7 10  2  0
 10 11  1  0
 11 12  1  0
 10 13  1  0
 13 14  2  0
 14 15  1  0
 15 16  1  0
 16 17  2  0
 16 18  1  0
 18 19  2  0
 19 20  1  0
 20 21  1  0
 21 22  2  0
 22 23  1  0
 23 24  2  0
 24 25  1  0
 25 26  2  0
 20 27  2  0
 27 28  1  0
 28 29  2  0
 29 30  1  0
 30 31  2  0
 31 32  1  0
 32 33  2  0
 14  5  1  0
 33 18  1  0
 26 21  1  0
 33 28  1  0
  1 34  1  0
  1 35  1  0
  1 36  1  0
  6 37  1  0
  9 38  1  0
  9 39  1  0
  9 40  1  0
 12 41  1  0
 12 42  1  0
 12 43  1  0
 13 44  1  0
 15 45  1  0
 19 46  1  0
 22 47  1  0
 23 48  1  0
 24 49  1  0
 25 50  1  0
 26 51  1  0
 29 52  1  0
 30 53  1  0
 31 54  1  0
 32 55  1  0
M  END
$$$$
