
     RDKit          3D

 48 50  0  0  0  0  0  0  0  0999 V2000
    2.6620   -2.0652   -0.7728 O   0  0  0  0  0  0  0  0  0  0  0  0
    2.7232   -0.9739   -1.3333 C   0  0  0  0  0  0  0  0  0  0  0  0
    2.0856   -0.7616   -2.7150 C   0  0  0  0  0  0  0  0  0  0  0  0
    0.6527   -0.4119   -2.6803 N   0  0  0  0  0  0  0  0  0  0  0  0
   -0.1698   -1.4532   -2.0225 C   0  0  0  0  0  0  0  0  0  0  0  0
   -1.6779   -1.1133   -2.0767 C   0  0  0  0  0  0  0  0  0  0  0  0
   -1.9314    0.2223   -1.5183 N   0  0  0  0  0  0  0  0  0  0  0  0
   -2.1318    0.3680   -0.1490 C   0  0  0  0  0  0  0  0  0  0  0  0
   -1.5866    1.2581    0.5023 O   0  0  0  0  0  0  0  0  0  0  0  0
   -2.9902   -0.5554    0.4356 N   0  0  0  0  0  0  0  0  0  0  0  0
   -4.2966   -0.8140   -0.1831 C   0  0  0  0  0  0  0  0  0  0  0  0
   -5.3433    0.1720    0.3591 C   0  0  0  0  0  0  0  0  0  0  0  0
   -5.4157    0.1134    1.7940 O   0  0  0  0  0  0  0  0  0  0  0  0
   -4.1386    0.4290    2.3808 C   0  0  0  0  0  0  0  0  0  0  0  0
   -3.0672   -0.5554    1.8974 C   0  0  0  0  0  0  0  0  0  0  0  0
   -1.1278    1.2533   -2.1738 C   0  0  0  0  0  0  0  0  0  0  0  0
    0.3767    0.9151   -2.0944 C   0  0  0  0  0  0  0  0  0  0  0  0
    3.3354    0.1688   -0.8409 N   0  0  0  0  0  0  0  0  0  0  0  0
    4.0000    0.3255    0.3921 C   0  0  0  0  0  0  0  0  0  0  0  0
    4.5061    1.5988    0.6873 C   0  0  0  0  0  0  0  0  0  0  0  0
    5.1772    1.8408    1.8900 C   0  0  0  0  0  0  0  0  0  0  0  0
    5.3459    0.8062    2.8051 C   0  0  0  0  0  0  0  0  0  0  0  0
    6.2497    1.1285    4.4325 Br  0  0  0  0  0  0  0  0  0  0  0  0
    4.8502   -0.4637    2.5259 C   0  0  0  0  0  0  0  0  0  0  0  0
    4.1788   -0.7020    1.3208 C   0  0  0  0  0  0  0  0  0  0  0  0
    2.2253   -1.6866   -3.2882 H   0  0  0  0  0  0  0  0  0  0  0  0
    2.6417    0.0058   -3.2674 H   0  0  0  0  0  0  0  0  0  0  0  0
   -0.0152   -2.4173   -2.5211 H   0  0  0  0  0  0  0  0  0  0  0  0
    0.1176   -1.5677   -0.9702 H   0  0  0  0  0  0  0  0  0  0  0  0
   -2.2302   -1.8876   -1.5380 H   0  0  0  0  0  0  0  0  0  0  0  0
   -2.0297   -1.1083   -3.1152 H   0  0  0  0  0  0  0  0  0  0  0  0
   -4.5752   -1.8406    0.0802 H   0  0  0  0  0  0  0  0  0  0  0  0
   -4.2555   -0.7309   -1.2720 H   0  0  0  0  0  0  0  0  0  0  0  0
   -5.1144    1.2011    0.0581 H   0  0  0  0  0  0  0  0  0  0  0  0
   -6.3327   -0.0830   -0.0331 H   0  0  0  0  0  0  0  0  0  0  0  0
   -4.2482    0.3615    3.4679 H   0  0  0  0  0  0  0  0  0  0  0  0
   -3.8805    1.4644    2.1312 H   0  0  0  0  0  0  0  0  0  0  0  0
   -3.3346   -1.5752    2.1986 H   0  0  0  0  0  0  0  0  0  0  0  0
   -2.0918   -0.3149    2.3336 H   0  0  0  0  0  0  0  0  0  0  0  0
   -1.4503    1.3095   -3.2206 H   0  0  0  0  0  0  0  0  0  0  0  0
   -1.3203    2.2312   -1.7189 H   0  0  0  0  0  0  0  0  0  0  0  0
    0.6984    0.9520   -1.0471 H   0  0  0  0  0  0  0  0  0  0  0  0
    0.9329    1.6839   -2.6429 H   0  0  0  0  0  0  0  0  0  0  0  0
    3.2660    0.9992   -1.4146 H   0  0  0  0  0  0  0  0  0  0  0  0
    4.3845    2.4231   -0.0104 H   0  0  0  0  0  0  0  0  0  0  0  0
    5.5616    2.8354    2.1012 H   0  0  0  0  0  0  0  0  0  0  0  0
    4.9769   -1.2791    3.2337 H   0  0  0  0  0  0  0  0  0  0  0  0
    3.8070   -1.7062    1.1412 H   0  0  0  0  0  0  0  0  0  0  0  0
  1  2  2  0
  2  3  1  0
  3  4  1  0
  4  5  1  0
  5  6  1  0
  6  7  1  0
  7  8  1  0
  8  9  2  0
  8 10  1  0
 10 11  1  0
 11 12  1  0
 12 13  1  0
 13 14  1  0
 14 15  1  0
  7 16  1  0
 16 17  1  0
  2 18  1  0
 18 19  1  0
 19 20  2  0
 20 21  1  0
 21 22  2  0
 22 23  1  0
 22 24  1  0
 24 25  2  0
 17  4  1  0
 25 19  1  0
 15 10  1  0
  3 26  1  0
  3 27  1  0
  5 28  1  0
  5 29  1  0
  6 30  1  0
  6 31  1  0
 11 32  1  0
 11 33  1  0
 12 34  1  0
 12 35  1  0
 14 36  1  0
 14 37  1  0
 15 38  1  0
 15 39  1  0
 16 40  1  0
 16 41  1  0
 17 42  1  0
 17 43  1  0
 18 44  1  0
 20 45  1  0
 21 46  1  0
 24 47  1  0
 25 48  1  0
M  END
$$$$
