
     RDKit          3D

 40 41  0  0  0  0  0  0  0  0999 V2000
   -0.3163    3.7418    1.5071 C   0  0  0  0  0  0  0  0  0  0  0  0
    0.7448    2.7214    1.8993 C   0  0  0  0  0  0  0  0  0  0  0  0
    0.8969    1.6038    0.8531 C   0  0  0  0  0  0  0  0  0  0  0  0
    2.0361    0.6511    1.2693 C   0  0  0  0  0  0  0  0  0  0  0  0
    2.4580   -0.3754    0.2382 C   0  0  0  0  0  0  0  0  0  0  0  0
    2.7668   -0.0117   -1.0797 C   0  0  0  0  0  0  0  0  0  0  0  0
    3.2034   -0.9676   -2.0010 C   0  0  0  0  0  0  0  0  0  0  0  0
    3.3523   -2.2971   -1.6137 C   0  0  0  0  0  0  0  0  0  0  0  0
    3.0624   -2.6717   -0.3041 C   0  0  0  0  0  0  0  0  0  0  0  0
    2.6213   -1.7171    0.6160 C   0  0  0  0  0  0  0  0  0  0  0  0
   -0.3479    0.8721    0.8254 O   0  0  0  0  0  0  0  0  0  0  0  0
   -0.8910    0.6575   -0.3967 C   0  0  0  0  0  0  0  0  0  0  0  0
   -0.4613    1.0253   -1.4761 O   0  0  0  0  0  0  0  0  0  0  0  0
   -2.1515   -0.0923   -0.2381 C   0  0  0  0  0  0  0  0  0  0  0  0
   -3.1413    0.3991    0.6258 C   0  0  0  0  0  0  0  0  0  0  0  0
   -4.3833   -0.2361    0.6963 C   0  0  0  0  0  0  0  0  0  0  0  0
   -4.6460   -1.3522   -0.1003 C   0  0  0  0  0  0  0  0  0  0  0  0
   -3.6622   -1.8481   -0.9585 C   0  0  0  0  0  0  0  0  0  0  0  0
   -2.4083   -1.2266   -1.0164 C   0  0  0  0  0  0  0  0  0  0  0  0
   -1.3815   -1.8292   -1.8815 C   0  0  0  0  0  0  0  0  0  0  0  0
   -1.5414   -2.2434   -3.0122 O   0  0  0  0  0  0  0  0  0  0  0  0
   -0.2368   -1.9643   -1.1963 O   0  0  0  0  0  0  0  0  0  0  0  0
   -1.3077    3.2838    1.4419 H   0  0  0  0  0  0  0  0  0  0  0  0
   -0.3651    4.5400    2.2546 H   0  0  0  0  0  0  0  0  0  0  0  0
   -0.0828    4.1968    0.5396 H   0  0  0  0  0  0  0  0  0  0  0  0
    0.4649    2.2903    2.8683 H   0  0  0  0  0  0  0  0  0  0  0  0
    1.7010    3.2411    2.0308 H   0  0  0  0  0  0  0  0  0  0  0  0
    1.1163    2.0738   -0.1121 H   0  0  0  0  0  0  0  0  0  0  0  0
    2.9322    1.2333    1.5211 H   0  0  0  0  0  0  0  0  0  0  0  0
    1.7301    0.1270    2.1847 H   0  0  0  0  0  0  0  0  0  0  0  0
    2.6699    1.0199   -1.4096 H   0  0  0  0  0  0  0  0  0  0  0  0
    3.4326   -0.6680   -3.0208 H   0  0  0  0  0  0  0  0  0  0  0  0
    3.7013   -3.0373   -2.3290 H   0  0  0  0  0  0  0  0  0  0  0  0
    3.1827   -3.7066    0.0057 H   0  0  0  0  0  0  0  0  0  0  0  0
    2.4049   -2.0311    1.6349 H   0  0  0  0  0  0  0  0  0  0  0  0
   -2.9571    1.2861    1.2272 H   0  0  0  0  0  0  0  0  0  0  0  0
   -5.1531    0.1486    1.3621 H   0  0  0  0  0  0  0  0  0  0  0  0
   -5.6180   -1.8384   -0.0513 H   0  0  0  0  0  0  0  0  0  0  0  0
   -3.8673   -2.7238   -1.5717 H   0  0  0  0  0  0  0  0  0  0  0  0
    0.4417   -2.2747   -1.8324 H   0  0  0  0  0  0  0  0  0  0  0  0
  1  2  1  0
  2  3  1  0
  3  4  1  0
  4  5  1  0
  5  6  2  0
  6  7  1  0
  7  8  2  0
  8  9  1  0
  9 10  2  0
  3 11  1  0
 11 12  1  0
 12 13  2  0
 12 14  1  0
 14 15  2  0
 15 16  1  0
 16 17  2  0
 17 18  1  0
 18 19  2  0
 19 20  1  0
 20 21  2  0
 20 22  1  0
 10  5  1  0
 19 14  1  0
  1 23  1  0
  1 24  1  0
  1 25  1  0
  2 26  1  0
  2 27  1  0
  3 28  1  0
  4 29  1  0
  4 30  1  0
  6 31  1  0
  7 32  1  0
  8 33  1  0
  9 34  1  0
 10 35  1  0
 15 36  1  0
 16 37  1  0
 17 38  1  0
 18 39  1  0
 22 40  1  0
M  END
$$$$
