
     RDKit          3D

 48 50  0  0  0  0  0  0  0  0999 V2000
   -0.7028   -4.7059   -1.5327 C   0  0  0  0  0  0  0  0  0  0  0  0
   -1.5365   -3.6409   -2.2211 C   0  0  0  0  0  0  0  0  0  0  0  0
   -1.1925   -2.3451   -1.7021 O   0  0  0  0  0  0  0  0  0  0  0  0
   -1.9338   -1.8958   -0.6546 C   0  0  0  0  0  0  0  0  0  0  0  0
   -2.8171   -2.5377   -0.1005 O   0  0  0  0  0  0  0  0  0  0  0  0
   -1.5138   -0.5116   -0.2185 C   0  0  0  0  0  0  0  0  0  0  0  0
   -0.4892    0.1384   -1.1226 C   0  0  0  0  0  0  0  0  0  0  0  0
    0.9725   -0.1562   -0.8970 C   0  0  0  0  0  0  0  0  0  0  0  0
    1.5791    0.8035    0.4671 S   0  0  0  0  0  6  0  0  0  0  0  0
    1.0351    0.2266    1.6829 O   0  0  0  0  0  0  0  0  0  0  0  0
    1.4278    2.2148    0.1751 O   0  0  0  0  0  0  0  0  0  0  0  0
    3.3249    0.4625    0.4581 C   0  0  0  0  0  0  0  0  0  0  0  0
    4.1300    1.0634   -0.5153 C   0  0  0  0  0  0  0  0  0  0  0  0
    5.5000    0.8068   -0.5198 C   0  0  0  0  0  0  0  0  0  0  0  0
    6.0587   -0.0287    0.4506 C   0  0  0  0  0  0  0  0  0  0  0  0
    5.2520   -0.6113    1.4294 C   0  0  0  0  0  0  0  0  0  0  0  0
    3.8792   -0.3641    1.4410 C   0  0  0  0  0  0  0  0  0  0  0  0
   -0.7957    0.8991   -2.1260 N   0  0  0  0  0  0  0  0  0  0  0  0
   -2.0941    1.2160   -2.4054 C   0  0  0  0  0  0  0  0  0  0  0  0
   -2.4378    1.7512   -3.4517 O   0  0  0  0  0  0  0  0  0  0  0  0
   -3.0358    0.9367   -1.4636 N   0  0  0  0  0  0  0  0  0  0  0  0
   -2.7380    0.3957   -0.1619 C   0  0  0  0  0  0  0  0  0  0  0  0
   -2.5977    1.4683    0.9092 C   0  0  0  0  0  0  0  0  0  0  0  0
   -3.0703    1.1975    2.2060 C   0  0  0  0  0  0  0  0  0  0  0  0
   -2.9108    2.1270    3.2346 C   0  0  0  0  0  0  0  0  0  0  0  0
   -2.2702    3.3387    2.9876 C   0  0  0  0  0  0  0  0  0  0  0  0
   -1.7991    3.6241    1.7095 C   0  0  0  0  0  0  0  0  0  0  0  0
   -1.9608    2.6977    0.6775 C   0  0  0  0  0  0  0  0  0  0  0  0
    0.3643   -4.5036   -1.6642 H   0  0  0  0  0  0  0  0  0  0  0  0
   -0.9257   -5.6969   -1.9397 H   0  0  0  0  0  0  0  0  0  0  0  0
   -0.8934   -4.7183   -0.4550 H   0  0  0  0  0  0  0  0  0  0  0  0
   -1.3088   -3.6275   -3.2923 H   0  0  0  0  0  0  0  0  0  0  0  0
   -2.6090   -3.8466   -2.1198 H   0  0  0  0  0  0  0  0  0  0  0  0
   -1.0781   -0.6502    0.7754 H   0  0  0  0  0  0  0  0  0  0  0  0
    1.1182   -1.2144   -0.6654 H   0  0  0  0  0  0  0  0  0  0  0  0
    1.5469    0.1121   -1.7886 H   0  0  0  0  0  0  0  0  0  0  0  0
    3.7056    1.7312   -1.2629 H   0  0  0  0  0  0  0  0  0  0  0  0
    6.1381    1.2634   -1.2747 H   0  0  0  0  0  0  0  0  0  0  0  0
    7.1299   -0.2204    0.4469 H   0  0  0  0  0  0  0  0  0  0  0  0
    5.6964   -1.2519    2.1880 H   0  0  0  0  0  0  0  0  0  0  0  0
    3.2613   -0.8063    2.2187 H   0  0  0  0  0  0  0  0  0  0  0  0
   -3.9546    1.3118   -1.6632 H   0  0  0  0  0  0  0  0  0  0  0  0
   -3.6377   -0.1809    0.0927 H   0  0  0  0  0  0  0  0  0  0  0  0
   -3.5599    0.2506    2.4300 H   0  0  0  0  0  0  0  0  0  0  0  0
   -3.2739    1.8997    4.2340 H   0  0  0  0  0  0  0  0  0  0  0  0
   -2.1335    4.0572    3.7901 H   0  0  0  0  0  0  0  0  0  0  0  0
   -1.2870    4.5642    1.5150 H   0  0  0  0  0  0  0  0  0  0  0  0
   -1.5623    2.9560   -0.3007 H   0  0  0  0  0  0  0  0  0  0  0  0
  1  2  1  0
  2  3  1  0
  3  4  1  0
  4  5  2  0
  4  6  1  0
  6  7  1  0
  7  8  1  0
  8  9  1  0
  9 10  2  0
  9 11  2  0
  9 12  1  0
 12 13  2  0
 13 14  1  0
 14 15  2  0
 15 16  1  0
 16 17  2  0
  7 18  2  0
 18 19  1  0
 19 20  2  0
 19 21  1  0
 21 22  1  0
 22 23  1  0
 23 24  2  0
 24 25  1  0
 25 26  2  0
 26 27  1  0
 27 28  2  0
 22  6  1  0
 28 23  1  0
 17 12  1  0
  1 29  1  0
  1 30  1  0
  1 31  1  0
  2 32  1  0
  2 33  1  0
  6 34  1  0
  8 35  1  0
  8 36  1  0
 13 37  1  0
 14 38  1  0
 15 39  1  0
 16 40  1  0
 17 41  1  0
 21 42  1  0
 22 43  1  0
 24 44  1  0
 25 45  1  0
 26 46  1  0
 27 47  1  0
 28 48  1  0
M  END
$$$$
