
     RDKit          3D

 49 52  0  0  0  0  0  0  0  0999 V2000
   -5.9056   -2.9046    0.6285 C   0  0  0  0  0  0  0  0  0  0  0  0
   -5.1680   -1.6325    0.3309 C   0  0  0  0  0  0  0  0  0  0  0  0
   -5.7749   -0.3924    0.5450 C   0  0  0  0  0  0  0  0  0  0  0  0
   -5.0821    0.7943    0.2815 C   0  0  0  0  0  0  0  0  0  0  0  0
   -5.7422    2.1216    0.5212 C   0  0  0  0  0  0  0  0  0  0  0  0
   -3.7489    0.7359   -0.1593 C   0  0  0  0  0  0  0  0  0  0  0  0
   -3.1094   -0.4938   -0.3518 C   0  0  0  0  0  0  0  0  0  0  0  0
   -1.7534   -0.6053   -0.7977 N   0  0  0  0  0  0  0  0  0  0  0  0
   -1.2813   -1.8364   -1.1627 N   0  0  0  0  0  0  0  0  0  0  0  0
   -0.0428   -1.6322   -1.6027 C   0  0  0  0  0  0  0  0  0  0  0  0
    0.3441   -0.2946   -1.4935 C   0  0  0  0  0  0  0  0  0  0  0  0
   -0.7538    0.3500   -0.9484 C   0  0  0  0  0  0  0  0  0  0  0  0
   -0.7829    1.8022   -0.6127 C   0  0  0  0  0  0  0  0  0  0  0  0
    0.6386    2.3992   -0.6354 C   0  0  0  0  0  0  0  0  0  0  0  0
    1.4661    1.9020   -1.8359 C   0  0  0  0  0  0  0  0  0  0  0  0
    1.6381    0.3654   -1.8238 C   0  0  0  0  0  0  0  0  0  0  0  0
    2.5959   -0.0476   -0.8272 N   0  0  0  0  0  0  0  0  0  0  0  0
    3.9543    0.0427   -1.0194 C   0  0  0  0  0  0  0  0  0  0  0  0
    4.4711    0.3725   -2.0824 O   0  0  0  0  0  0  0  0  0  0  0  0
    4.7311   -0.2843    0.1860 C   0  0  0  0  0  0  0  0  0  0  0  0
    6.1434   -0.3208    0.3098 C   0  0  0  0  0  0  0  0  0  0  0  0
    6.3913   -0.6745    1.6164 C   0  0  0  0  0  0  0  0  0  0  0  0
    7.6501   -0.8832    2.3640 C   0  0  0  0  0  0  0  0  0  0  0  0
    5.1623   -0.8265    2.1940 N   0  0  0  0  0  0  0  0  0  0  0  0
    4.1364   -0.5903    1.3587 N   0  0  0  0  0  0  0  0  0  0  0  0
   -3.8379   -1.6740   -0.1101 C   0  0  0  0  0  0  0  0  0  0  0  0
   -5.5870   -3.7071   -0.0451 H   0  0  0  0  0  0  0  0  0  0  0  0
   -5.7179   -3.2127    1.6616 H   0  0  0  0  0  0  0  0  0  0  0  0
   -6.9839   -2.7738    0.4890 H   0  0  0  0  0  0  0  0  0  0  0  0
   -6.7991   -0.3502    0.9109 H   0  0  0  0  0  0  0  0  0  0  0  0
   -5.5481    2.4554    1.5451 H   0  0  0  0  0  0  0  0  0  0  0  0
   -5.3649    2.8771   -0.1758 H   0  0  0  0  0  0  0  0  0  0  0  0
   -6.8247    2.0537    0.3701 H   0  0  0  0  0  0  0  0  0  0  0  0
   -3.2588    1.6766   -0.3674 H   0  0  0  0  0  0  0  0  0  0  0  0
    0.5310   -2.4746   -1.9680 H   0  0  0  0  0  0  0  0  0  0  0  0
   -1.3916    2.3312   -1.3552 H   0  0  0  0  0  0  0  0  0  0  0  0
   -1.2083    1.9719    0.3816 H   0  0  0  0  0  0  0  0  0  0  0  0
    0.5702    3.4930   -0.6591 H   0  0  0  0  0  0  0  0  0  0  0  0
    1.1592    2.1368    0.2947 H   0  0  0  0  0  0  0  0  0  0  0  0
    2.4419    2.4015   -1.8404 H   0  0  0  0  0  0  0  0  0  0  0  0
    0.9504    2.1993   -2.7586 H   0  0  0  0  0  0  0  0  0  0  0  0
    1.9961    0.0383   -2.8072 H   0  0  0  0  0  0  0  0  0  0  0  0
    2.3025   -0.2448    0.1265 H   0  0  0  0  0  0  0  0  0  0  0  0
    6.8687   -0.1154   -0.4662 H   0  0  0  0  0  0  0  0  0  0  0  0
    8.5202   -0.7023    1.7250 H   0  0  0  0  0  0  0  0  0  0  0  0
    7.7115   -1.9108    2.7364 H   0  0  0  0  0  0  0  0  0  0  0  0
    7.7096   -0.2010    3.2181 H   0  0  0  0  0  0  0  0  0  0  0  0
    4.9511   -1.0880    3.1519 H   0  0  0  0  0  0  0  0  0  0  0  0
   -3.3678   -2.6468   -0.2531 H   0  0  0  0  0  0  0  0  0  0  0  0
  1  2  1  0
  2  3  2  0
  3  4  1  0
  4  5  1  0
  4  6  2  0
  6  7  1  0
  7  8  1  0
  8  9  1  0
  9 10  2  0
 10 11  1  0
 11 12  2  0
 12 13  1  0
 13 14  1  0
 14 15  1  0
 15 16  1  0
 16 17  1  0
 17 18  1  0
 18 19  2  0
 18 20  1  0
 20 21  1  0
 21 22  2  0
 22 23  1  0
 22 24  1  0
 24 25  1  0
  7 26  2  0
 26  2  1  0
 12  8  1  0
 25 20  2  0
 16 11  1  0
  1 27  1  0
  1 28  1  0
  1 29  1  0
  3 30  1  0
  5 31  1  0
  5 32  1  0
  5 33  1  0
  6 34  1  0
 10 35  1  0
 13 36  1  0
 13 37  1  0
 14 38  1  0
 14 39  1  0
 15 40  1  0
 15 41  1  0
 16 42  1  0
 17 43  1  0
 21 44  1  0
 23 45  1  0
 23 46  1  0
 23 47  1  0
 24 48  1  0
 26 49  1  0
M  END
$$$$
