
     RDKit          3D

 59 62  0  0  0  0  0  0  0  0999 V2000
    8.1560    1.2108   -4.6015 C   0  0  0  0  0  0  0  0  0  0  0  0
    7.0384    0.4543   -3.9471 C   0  0  0  0  0  0  0  0  0  0  0  0
    7.0884    0.1567   -2.5805 C   0  0  0  0  0  0  0  0  0  0  0  0
    6.0333   -0.5197   -1.9622 C   0  0  0  0  0  0  0  0  0  0  0  0
    4.9077   -0.9068   -2.7008 C   0  0  0  0  0  0  0  0  0  0  0  0
    3.7538   -1.6146   -2.0393 C   0  0  0  0  0  0  0  0  0  0  0  0
    2.6982   -0.6810   -1.7192 N   0  0  0  0  0  0  0  0  0  0  0  0
    1.5801   -0.5514   -2.5131 C   0  0  0  0  0  0  0  0  0  0  0  0
    1.3471   -1.2655   -3.4818 O   0  0  0  0  0  0  0  0  0  0  0  0
    0.6842    0.5942   -2.0814 C   0  0  0  0  0  0  0  0  0  0  0  0
   -0.6628    0.6105   -2.8029 C   0  0  0  0  0  0  0  0  0  0  0  0
   -1.5754   -0.5662   -2.4440 C   0  0  0  0  0  0  0  0  0  0  0  0
   -1.9872   -0.5588   -1.0433 N   0  0  0  0  0  0  0  0  0  0  0  0
   -1.2486   -1.3852   -0.1887 N   0  0  0  0  0  0  0  0  0  0  0  0
   -1.5341   -1.4694    1.0802 C   0  0  0  0  0  0  0  0  0  0  0  0
   -0.6998   -2.3762    1.9393 C   0  0  0  0  0  0  0  0  0  0  0  0
   -2.6280   -0.6955    1.6130 C   0  0  0  0  0  0  0  0  0  0  0  0
   -3.2295   -0.6026    2.8575 C   0  0  0  0  0  0  0  0  0  0  0  0
   -3.0162   -1.4185    4.0807 C   0  0  0  0  0  0  0  0  0  0  0  0
   -4.1821    0.4172    2.7343 N   0  0  0  0  0  0  0  0  0  0  0  0
   -4.9607    1.0912    3.7269 C   0  0  0  0  0  0  0  0  0  0  0  0
   -6.0812    1.8358    3.3173 C   0  0  0  0  0  0  0  0  0  0  0  0
   -6.8675    2.5146    4.2515 C   0  0  0  0  0  0  0  0  0  0  0  0
   -6.5362    2.4714    5.6022 C   0  0  0  0  0  0  0  0  0  0  0  0
   -5.4128    1.7597    6.0175 C   0  0  0  0  0  0  0  0  0  0  0  0
   -4.6226    1.0772    5.0854 C   0  0  0  0  0  0  0  0  0  0  0  0
   -4.3353    0.7821    1.4323 N   0  0  0  0  0  0  0  0  0  0  0  0
   -3.3582    0.1539    0.7755 C   0  0  0  0  0  0  0  0  0  0  0  0
   -3.0576    0.2703   -0.6458 C   0  0  0  0  0  0  0  0  0  0  0  0
   -3.6676    1.0114   -1.4136 O   0  0  0  0  0  0  0  0  0  0  0  0
    4.8509   -0.5888   -4.0645 C   0  0  0  0  0  0  0  0  0  0  0  0
    5.9051    0.0882   -4.6812 C   0  0  0  0  0  0  0  0  0  0  0  0
    7.9852    2.2874   -4.5058 H   0  0  0  0  0  0  0  0  0  0  0  0
    8.2301    0.9577   -5.6647 H   0  0  0  0  0  0  0  0  0  0  0  0
    9.1179    0.9614   -4.1409 H   0  0  0  0  0  0  0  0  0  0  0  0
    7.9517    0.4506   -1.9876 H   0  0  0  0  0  0  0  0  0  0  0  0
    6.0984   -0.7410   -0.8995 H   0  0  0  0  0  0  0  0  0  0  0  0
    4.0761   -2.0727   -1.0975 H   0  0  0  0  0  0  0  0  0  0  0  0
    3.3835   -2.4212   -2.6819 H   0  0  0  0  0  0  0  0  0  0  0  0
    2.9173    0.0611   -1.0694 H   0  0  0  0  0  0  0  0  0  0  0  0
    0.5460    0.5619   -0.9957 H   0  0  0  0  0  0  0  0  0  0  0  0
    1.2179    1.5234   -2.3157 H   0  0  0  0  0  0  0  0  0  0  0  0
   -0.4982    0.6065   -3.8873 H   0  0  0  0  0  0  0  0  0  0  0  0
   -1.1707    1.5531   -2.5654 H   0  0  0  0  0  0  0  0  0  0  0  0
   -2.4788   -0.5101   -3.0631 H   0  0  0  0  0  0  0  0  0  0  0  0
   -1.1018   -1.5287   -2.6648 H   0  0  0  0  0  0  0  0  0  0  0  0
    0.2007   -2.6868    1.4006 H   0  0  0  0  0  0  0  0  0  0  0  0
   -1.2763   -3.2693    2.1937 H   0  0  0  0  0  0  0  0  0  0  0  0
   -0.3961   -1.8593    2.8531 H   0  0  0  0  0  0  0  0  0  0  0  0
   -2.6948   -2.4316    3.8235 H   0  0  0  0  0  0  0  0  0  0  0  0
   -2.2441   -0.9730    4.7151 H   0  0  0  0  0  0  0  0  0  0  0  0
   -3.9385   -1.5437    4.6558 H   0  0  0  0  0  0  0  0  0  0  0  0
   -6.3643    1.8888    2.2664 H   0  0  0  0  0  0  0  0  0  0  0  0
   -7.7333    3.0811    3.9190 H   0  0  0  0  0  0  0  0  0  0  0  0
   -7.1449    3.0035    6.3288 H   0  0  0  0  0  0  0  0  0  0  0  0
   -5.1416    1.7475    7.0706 H   0  0  0  0  0  0  0  0  0  0  0  0
   -3.7300    0.5902    5.4580 H   0  0  0  0  0  0  0  0  0  0  0  0
    3.9757   -0.8644   -4.6522 H   0  0  0  0  0  0  0  0  0  0  0  0
    5.8330    0.3280   -5.7397 H   0  0  0  0  0  0  0  0  0  0  0  0
  1  2  1  0
  2  3  2  0
  3  4  1  0
  4  5  2  0
  5  6  1  0
  6  7  1  0
  7  8  1  0
  8  9  2  0
  8 10  1  0
 10 11  1  0
 11 12  1  0
 12 13  1  0
 13 14  1  0
 14 15  2  0
 15 16  1  0
 15 17  1  0
 17 18  2  0
 18 19  1  0
 18 20  1  0
 20 21  1  0
 21 22  2  0
 22 23  1  0
 23 24  2  0
 24 25  1  0
 25 26  2  0
 20 27  1  0
 27 28  2  0
 28 29  1  0
 29 30  2  0
  5 31  1  0
 31 32  2  0
 32  2  1  0
 29 13  1  0
 28 17  1  0
 26 21  1  0
  1 33  1  0
  1 34  1  0
  1 35  1  0
  3 36  1  0
  4 37  1  0
  6 38  1  0
  6 39  1  0
  7 40  1  0
 10 41  1  0
 10 42  1  0
 11 43  1  0
 11 44  1  0
 12 45  1  0
 12 46  1  0
 16 47  1  0
 16 48  1  0
 16 49  1  0
 19 50  1  0
 19 51  1  0
 19 52  1  0
 22 53  1  0
 23 54  1  0
 24 55  1  0
 25 56  1  0
 26 57  1  0
 31 58  1  0
 32 59  1  0
M  END
$$$$
