
     RDKit          3D

 61 64  0  0  0  0  0  0  0  0999 V2000
    8.1480   -3.9644    3.1655 C   0  0  0  0  0  0  0  0  0  0  0  0
    7.2269   -3.3717    2.1287 C   0  0  0  0  0  0  0  0  0  0  0  0
    7.0034   -3.9625    1.0784 O   0  0  0  0  0  0  0  0  0  0  0  0
    6.6878   -2.1645    2.5367 N   0  0  0  0  0  0  0  0  0  0  0  0
    5.8075   -1.3300    1.8173 C   0  0  0  0  0  0  0  0  0  0  0  0
    5.3580   -0.1685    2.4644 C   0  0  0  0  0  0  0  0  0  0  0  0
    4.4844    0.7153    1.8246 C   0  0  0  0  0  0  0  0  0  0  0  0
    4.0610    0.4366    0.5256 C   0  0  0  0  0  0  0  0  0  0  0  0
    2.9420    1.5385   -0.3032 S   0  0  0  0  0  6  0  0  0  0  0  0
    3.6134    2.0026   -1.4971 O   0  0  0  0  0  0  0  0  0  0  0  0
    2.4064    2.4594    0.6775 O   0  0  0  0  0  0  0  0  0  0  0  0
    1.6701    0.5036   -0.7677 N   0  0  0  0  0  0  0  0  0  0  0  0
    0.8685   -0.0883    0.3576 C   0  0  0  0  0  0  0  0  0  0  0  0
   -0.5166    0.5667    0.4931 C   0  0  0  0  0  0  0  0  0  0  0  0
   -1.3411    0.3786   -0.7334 N   0  0  0  0  0  0  0  0  0  0  0  0
   -2.3751    1.2637   -0.8128 C   0  0  0  0  0  0  0  0  0  0  0  0
   -2.3432    2.4721   -1.3228 N   0  0  0  0  0  0  0  0  0  0  0  0
   -3.6091    2.9741   -1.1605 C   0  0  0  0  0  0  0  0  0  0  0  0
   -4.1166    4.2333   -1.5147 C   0  0  0  0  0  0  0  0  0  0  0  0
   -5.4609    4.5190   -1.2500 C   0  0  0  0  0  0  0  0  0  0  0  0
   -6.2843    3.5688   -0.6441 C   0  0  0  0  0  0  0  0  0  0  0  0
   -5.7964    2.3068   -0.2833 C   0  0  0  0  0  0  0  0  0  0  0  0
   -4.4475    2.0416   -0.5549 C   0  0  0  0  0  0  0  0  0  0  0  0
   -3.6378    0.9434   -0.3637 N   0  0  0  0  0  0  0  0  0  0  0  0
   -4.0438   -0.3344    0.1925 C   0  0  0  0  0  0  0  0  0  0  0  0
   -4.2486   -1.4381   -0.8612 C   0  0  0  0  0  0  0  0  0  0  0  0
   -5.4443   -1.1493   -1.7715 C   0  0  0  0  0  0  0  0  0  0  0  0
   -4.4414   -2.7875   -0.1667 C   0  0  0  0  0  0  0  0  0  0  0  0
   -0.5191    0.3214   -1.9748 C   0  0  0  0  0  0  0  0  0  0  0  0
    0.7977    1.1019   -1.8391 C   0  0  0  0  0  0  0  0  0  0  0  0
    4.5040   -0.7102   -0.1356 C   0  0  0  0  0  0  0  0  0  0  0  0
    5.3744   -1.5915    0.5142 C   0  0  0  0  0  0  0  0  0  0  0  0
    8.8418   -4.6579    2.6816 H   0  0  0  0  0  0  0  0  0  0  0  0
    8.7360   -3.1845    3.6562 H   0  0  0  0  0  0  0  0  0  0  0  0
    7.5580   -4.5037    3.9090 H   0  0  0  0  0  0  0  0  0  0  0  0
    6.9461   -1.8431    3.4609 H   0  0  0  0  0  0  0  0  0  0  0  0
    5.6814    0.0662    3.4755 H   0  0  0  0  0  0  0  0  0  0  0  0
    4.1478    1.6119    2.3404 H   0  0  0  0  0  0  0  0  0  0  0  0
    0.7625   -1.1611    0.1534 H   0  0  0  0  0  0  0  0  0  0  0  0
    1.4021   -0.0072    1.3100 H   0  0  0  0  0  0  0  0  0  0  0  0
   -1.0399    0.1163    1.3446 H   0  0  0  0  0  0  0  0  0  0  0  0
   -0.3889    1.6359    0.7127 H   0  0  0  0  0  0  0  0  0  0  0  0
   -3.4693    4.9651   -1.9847 H   0  0  0  0  0  0  0  0  0  0  0  0
   -5.8644    5.4917   -1.5219 H   0  0  0  0  0  0  0  0  0  0  0  0
   -7.3269    3.8128   -0.4508 H   0  0  0  0  0  0  0  0  0  0  0  0
   -6.4462    1.5742    0.1814 H   0  0  0  0  0  0  0  0  0  0  0  0
   -3.2709   -0.6288    0.9128 H   0  0  0  0  0  0  0  0  0  0  0  0
   -4.9594   -0.1807    0.7754 H   0  0  0  0  0  0  0  0  0  0  0  0
   -3.3548   -1.5119   -1.4931 H   0  0  0  0  0  0  0  0  0  0  0  0
   -5.5952   -1.9674   -2.4843 H   0  0  0  0  0  0  0  0  0  0  0  0
   -5.2891   -0.2357   -2.3532 H   0  0  0  0  0  0  0  0  0  0  0  0
   -6.3663   -1.0343   -1.1912 H   0  0  0  0  0  0  0  0  0  0  0  0
   -4.5521   -3.5911   -0.9030 H   0  0  0  0  0  0  0  0  0  0  0  0
   -3.5775   -3.0289    0.4619 H   0  0  0  0  0  0  0  0  0  0  0  0
   -5.3342   -2.7845    0.4690 H   0  0  0  0  0  0  0  0  0  0  0  0
   -1.0808    0.6826   -2.8468 H   0  0  0  0  0  0  0  0  0  0  0  0
   -0.2976   -0.7353   -2.1726 H   0  0  0  0  0  0  0  0  0  0  0  0
    1.3399    1.0539   -2.7893 H   0  0  0  0  0  0  0  0  0  0  0  0
    0.5871    2.1523   -1.6085 H   0  0  0  0  0  0  0  0  0  0  0  0
    4.1809   -0.9219   -1.1527 H   0  0  0  0  0  0  0  0  0  0  0  0
    5.7020   -2.4713   -0.0309 H   0  0  0  0  0  0  0  0  0  0  0  0
  1  2  1  0
  2  3  2  0
  2  4  1  0
  4  5  1  0
  5  6  2  0
  6  7  1  0
  7  8  2  0
  8  9  1  0
  9 10  2  0
  9 11  2  0
  9 12  1  0
 12 13  1  0
 13 14  1  0
 14 15  1  0
 15 16  1  0
 16 17  2  0
 17 18  1  0
 18 19  2  0
 19 20  1  0
 20 21  2  0
 21 22  1  0
 22 23  2  0
 23 24  1  0
 24 25  1  0
 25 26  1  0
 26 27  1  0
 26 28  1  0
 15 29  1  0
 29 30  1  0
  8 31  1  0
 31 32  2  0
 32  5  1  0
 30 12  1  0
 24 16  1  0
 23 18  1  0
  1 33  1  0
  1 34  1  0
  1 35  1  0
  4 36  1  0
  6 37  1  0
  7 38  1  0
 13 39  1  0
 13 40  1  0
 14 41  1  0
 14 42  1  0
 19 43  1  0
 20 44  1  0
 21 45  1  0
 22 46  1  0
 25 47  1  0
 25 48  1  0
 26 49  1  0
 27 50  1  0
 27 51  1  0
 27 52  1  0
 28 53  1  0
 28 54  1  0
 28 55  1  0
 29 56  1  0
 29 57  1  0
 30 58  1  0
 30 59  1  0
 31 60  1  0
 32 61  1  0
M  END
$$$$
