
     RDKit          3D

 49 51  0  0  0  0  0  0  0  0999 V2000
   -8.0622    0.6808    2.6141 C   0  0  0  0  0  0  0  0  0  0  0  0
   -7.7614    0.6771    1.2262 O   0  0  0  0  0  0  0  0  0  0  0  0
   -6.4383    0.7002    0.8606 C   0  0  0  0  0  0  0  0  0  0  0  0
   -5.3714    0.7882    1.7604 C   0  0  0  0  0  0  0  0  0  0  0  0
   -4.0537    0.8076    1.2954 C   0  0  0  0  0  0  0  0  0  0  0  0
   -3.7869    0.7321   -0.0733 C   0  0  0  0  0  0  0  0  0  0  0  0
   -2.4119    0.7676   -0.5831 C   0  0  0  0  0  0  0  0  0  0  0  0
   -1.4720   -0.1661   -0.3829 C   0  0  0  0  0  0  0  0  0  0  0  0
   -1.6000   -1.6352    0.5004 S   0  0  0  0  0  0  0  0  0  0  0  0
    0.0639   -2.0774    0.1676 C   0  0  0  0  0  0  0  0  0  0  0  0
    0.6003   -3.0566    0.6604 O   0  0  0  0  0  0  0  0  0  0  0  0
    0.6379   -1.1531   -0.6635 N   0  0  0  0  0  0  0  0  0  0  0  0
    2.0256   -1.2743   -1.0839 C   0  0  0  0  0  0  0  0  0  0  0  0
    2.9786   -0.6320   -0.0800 C   0  0  0  0  0  0  0  0  0  0  0  0
    4.4203   -0.7670   -0.5308 C   0  0  0  0  0  0  0  0  0  0  0  0
    4.7176   -1.3302   -1.5774 O   0  0  0  0  0  0  0  0  0  0  0  0
    5.2922   -0.1870    0.3760 N   0  0  0  0  0  0  0  0  0  0  0  0
    6.6990   -0.1200    0.2943 C   0  0  0  0  0  0  0  0  0  0  0  0
    7.3696    0.5231    1.3438 C   0  0  0  0  0  0  0  0  0  0  0  0
    8.7629    0.6329    1.3406 C   0  0  0  0  0  0  0  0  0  0  0  0
    9.4999    0.1003    0.2871 C   0  0  0  0  0  0  0  0  0  0  0  0
    8.8430   -0.5405   -0.7603 C   0  0  0  0  0  0  0  0  0  0  0  0
    7.4483   -0.6506   -0.7572 C   0  0  0  0  0  0  0  0  0  0  0  0
   -0.1065   -0.0358   -0.9593 C   0  0  0  0  0  0  0  0  0  0  0  0
    0.2834    0.9462   -1.5746 O   0  0  0  0  0  0  0  0  0  0  0  0
   -4.8520    0.6557   -0.9794 C   0  0  0  0  0  0  0  0  0  0  0  0
   -6.1763    0.6360   -0.5231 C   0  0  0  0  0  0  0  0  0  0  0  0
   -7.2773    0.5583   -1.3407 O   0  0  0  0  0  0  0  0  0  0  0  0
   -7.0574    0.4733   -2.7411 C   0  0  0  0  0  0  0  0  0  0  0  0
   -7.7260    1.6089    3.0879 H   0  0  0  0  0  0  0  0  0  0  0  0
   -9.1500    0.6295    2.7206 H   0  0  0  0  0  0  0  0  0  0  0  0
   -7.6379   -0.1962    3.1139 H   0  0  0  0  0  0  0  0  0  0  0  0
   -5.5306    0.8469    2.8318 H   0  0  0  0  0  0  0  0  0  0  0  0
   -3.2421    0.8848    2.0154 H   0  0  0  0  0  0  0  0  0  0  0  0
   -2.1813    1.6397   -1.1943 H   0  0  0  0  0  0  0  0  0  0  0  0
    2.2634   -2.3383   -1.2030 H   0  0  0  0  0  0  0  0  0  0  0  0
    2.1357   -0.7990   -2.0661 H   0  0  0  0  0  0  0  0  0  0  0  0
    2.8719   -1.1093    0.9013 H   0  0  0  0  0  0  0  0  0  0  0  0
    2.7455    0.4331    0.0348 H   0  0  0  0  0  0  0  0  0  0  0  0
    4.8815    0.2401    1.1968 H   0  0  0  0  0  0  0  0  0  0  0  0
    6.8204    0.9482    2.1794 H   0  0  0  0  0  0  0  0  0  0  0  0
    9.2714    1.1341    2.1601 H   0  0  0  0  0  0  0  0  0  0  0  0
   10.5836    0.1834    0.2804 H   0  0  0  0  0  0  0  0  0  0  0  0
    9.4131   -0.9587   -1.5863 H   0  0  0  0  0  0  0  0  0  0  0  0
    6.9805   -1.1580   -1.5947 H   0  0  0  0  0  0  0  0  0  0  0  0
   -4.6261    0.6078   -2.0397 H   0  0  0  0  0  0  0  0  0  0  0  0
   -6.5551    1.3706   -3.1169 H   0  0  0  0  0  0  0  0  0  0  0  0
   -8.0344    0.4109   -3.2301 H   0  0  0  0  0  0  0  0  0  0  0  0
   -6.4985   -0.4322   -2.9992 H   0  0  0  0  0  0  0  0  0  0  0  0
  1  2  1  0
  2  3  1  0
  3  4  2  0
  4  5  1  0
  5  6  2  0
  6  7  1  0
  7  8  2  3
  8  9  1  0
  9 10  1  0
 10 11  2  0
 10 12  1  0
 12 13  1  0
 13 14  1  0
 14 15  1  0
 15 16  2  0
 15 17  1  0
 17 18  1  0
 18 19  2  0
 19 20  1  0
 20 21  2  0
 21 22  1  0
 22 23  2  0
 12 24  1  0
 24 25  2  0
  6 26  1  0
 26 27  2  0
 27 28  1  0
 28 29  1  0
 27  3  1  0
 24  8  1  0
 23 18  1  0
  1 30  1  0
  1 31  1  0
  1 32  1  0
  4 33  1  0
  5 34  1  0
  7 35  1  0
 13 36  1  0
 13 37  1  0
 14 38  1  0
 14 39  1  0
 17 40  1  0
 19 41  1  0
 20 42  1  0
 21 43  1  0
 22 44  1  0
 23 45  1  0
 26 46  1  0
 29 47  1  0
 29 48  1  0
 29 49  1  0
M  END
$$$$
