
     RDKit          3D

 55 58  0  0  0  0  0  0  0  0999 V2000
    5.2386   -4.2099    1.9900 N   0  0  0  0  0  0  0  0  0  0  0  0
    3.9638   -4.1664    1.4903 C   0  0  0  0  0  0  0  0  0  0  0  0
    3.3802   -5.1982    1.1662 O   0  0  0  0  0  0  0  0  0  0  0  0
    3.3898   -2.8151    1.3677 C   0  0  0  0  0  0  0  0  0  0  0  0
    4.1455   -1.7453    1.6714 N   0  0  0  0  0  0  0  0  0  0  0  0
    3.2744   -0.3697    1.3790 S   0  0  0  0  0  0  0  0  0  0  0  0
    1.8311   -1.1462    0.9036 C   0  0  0  0  0  0  0  0  0  0  0  0
    0.6685   -0.3990    0.4557 C   0  0  0  0  0  0  0  0  0  0  0  0
    0.0575   -0.7546   -0.5542 O   0  0  0  0  0  0  0  0  0  0  0  0
    0.3004    0.7649    1.1631 N   0  0  0  0  0  0  0  0  0  0  0  0
    0.3993    0.8774    2.5870 C   0  0  0  0  0  0  0  0  0  0  0  0
    0.6509    2.1184    3.1894 C   0  0  0  0  0  0  0  0  0  0  0  0
    0.7502    2.2307    4.5791 C   0  0  0  0  0  0  0  0  0  0  0  0
    0.5958    1.1060    5.3844 C   0  0  0  0  0  0  0  0  0  0  0  0
    0.3376   -0.1310    4.8014 C   0  0  0  0  0  0  0  0  0  0  0  0
    0.2362   -0.2453    3.4122 C   0  0  0  0  0  0  0  0  0  0  0  0
   -0.5455    1.7431    0.4545 C   0  0  0  0  0  0  0  0  0  0  0  0
   -1.9331    1.1662    0.0579 C   0  0  0  0  0  0  0  0  0  0  0  0
   -2.5250    0.3584    0.7799 O   0  0  0  0  0  0  0  0  0  0  0  0
   -2.5316    1.7016   -1.0703 N   0  0  0  0  0  0  0  0  0  0  0  0
   -3.7521    1.1403   -1.6075 C   0  0  0  0  0  0  0  0  0  0  0  0
   -3.4585    0.2882   -2.8178 C   0  0  0  0  0  0  0  0  0  0  0  0
   -2.8044   -0.9464   -2.6701 C   0  0  0  0  0  0  0  0  0  0  0  0
   -2.5022   -1.7260   -3.7871 C   0  0  0  0  0  0  0  0  0  0  0  0
   -2.8539   -1.2736   -5.0520 C   0  0  0  0  0  0  0  0  0  0  0  0
   -2.5614   -2.0189   -6.1265 F   0  0  0  0  0  0  0  0  0  0  0  0
   -3.5014   -0.0556   -5.2214 C   0  0  0  0  0  0  0  0  0  0  0  0
   -3.8031    0.7278   -4.1058 C   0  0  0  0  0  0  0  0  0  0  0  0
    0.2394    2.3853   -0.6549 C   0  0  0  0  0  0  0  0  0  0  0  0
    1.0730    3.4879   -0.6906 C   0  0  0  0  0  0  0  0  0  0  0  0
    1.5407    3.5983   -2.0229 C   0  0  0  0  0  0  0  0  0  0  0  0
    0.9677    2.5607   -2.7177 C   0  0  0  0  0  0  0  0  0  0  0  0
    0.1708    1.8287   -1.9005 O   0  0  0  0  0  0  0  0  0  0  0  0
    2.0509   -2.5093    0.9169 C   0  0  0  0  0  0  0  0  0  0  0  0
    1.1163   -3.4272    0.5630 N   0  0  0  0  0  0  0  0  0  0  0  0
    5.7186   -5.0953    2.0425 H   0  0  0  0  0  0  0  0  0  0  0  0
    5.7220   -3.3427    2.1917 H   0  0  0  0  0  0  0  0  0  0  0  0
    0.8141    3.0110    2.5926 H   0  0  0  0  0  0  0  0  0  0  0  0
    0.9553    3.1964    5.0335 H   0  0  0  0  0  0  0  0  0  0  0  0
    0.6720    1.1929    6.4653 H   0  0  0  0  0  0  0  0  0  0  0  0
    0.2038   -1.0110    5.4250 H   0  0  0  0  0  0  0  0  0  0  0  0
   -0.0156   -1.2199    2.9969 H   0  0  0  0  0  0  0  0  0  0  0  0
   -0.8138    2.5577    1.1407 H   0  0  0  0  0  0  0  0  0  0  0  0
   -1.9012    2.1021   -1.7579 H   0  0  0  0  0  0  0  0  0  0  0  0
   -4.3921    1.9863   -1.8831 H   0  0  0  0  0  0  0  0  0  0  0  0
   -4.2914    0.5529   -0.8561 H   0  0  0  0  0  0  0  0  0  0  0  0
   -2.5135   -1.2966   -1.6800 H   0  0  0  0  0  0  0  0  0  0  0  0
   -1.9896   -2.6756   -3.6751 H   0  0  0  0  0  0  0  0  0  0  0  0
   -3.7635    0.2765   -6.2203 H   0  0  0  0  0  0  0  0  0  0  0  0
   -4.3052    1.6820   -4.2481 H   0  0  0  0  0  0  0  0  0  0  0  0
    1.3194    4.1302    0.1440 H   0  0  0  0  0  0  0  0  0  0  0  0
    2.2167    4.3394   -2.4279 H   0  0  0  0  0  0  0  0  0  0  0  0
    1.0197    2.2232   -3.7444 H   0  0  0  0  0  0  0  0  0  0  0  0
    1.4021   -4.3992    0.4139 H   0  0  0  0  0  0  0  0  0  0  0  0
    0.3358   -3.1564   -0.0377 H   0  0  0  0  0  0  0  0  0  0  0  0
  1  2  1  0
  2  3  2  0
  2  4  1  0
  4  5  2  0
  5  6  1  0
  6  7  1  0
  7  8  1  0
  8  9  2  0
  8 10  1  0
 10 11  1  0
 11 12  2  0
 12 13  1  0
 13 14  2  0
 14 15  1  0
 15 16  2  0
 10 17  1  0
 17 18  1  0
 18 19  2  0
 18 20  1  0
 20 21  1  0
 21 22  1  0
 22 23  2  0
 23 24  1  0
 24 25  2  0
 25 26  1  0
 25 27  1  0
 27 28  2  0
 17 29  1  0
 29 30  2  0
 30 31  1  0
 31 32  2  0
 32 33  1  0
  7 34  2  0
 34 35  1  0
 34  4  1  0
 16 11  1  0
 28 22  1  0
 33 29  1  0
  1 36  1  0
  1 37  1  0
 12 38  1  0
 13 39  1  0
 14 40  1  0
 15 41  1  0
 16 42  1  0
 17 43  1  0
 20 44  1  0
 21 45  1  0
 21 46  1  0
 23 47  1  0
 24 48  1  0
 27 49  1  0
 28 50  1  0
 30 51  1  0
 31 52  1  0
 32 53  1  0
 35 54  1  0
 35 55  1  0
M  END
$$$$
