
     RDKit          3D

 64 68  0  0  0  0  0  0  0  0999 V2000
   -5.2154    2.0087    0.8269 C   0  0  0  0  0  0  0  0  0  0  0  0
   -4.9450    0.8768   -0.1828 C   0  0  0  0  0  0  0  0  0  0  0  0
   -3.8773    1.3646   -1.1750 C   0  0  0  0  0  0  0  0  0  0  0  0
   -6.2414    0.5648   -0.9459 C   0  0  0  0  0  0  0  0  0  0  0  0
   -4.5493   -0.3821    0.6191 C   0  0  0  0  0  0  0  0  0  0  0  0
   -5.2367   -0.7839    1.5654 O   0  0  0  0  0  0  0  0  0  0  0  0
   -3.3802   -1.2053    0.2097 C   0  0  0  0  0  0  0  0  0  0  0  0
   -3.5949   -2.0139   -0.9362 C   0  0  0  0  0  0  0  0  0  0  0  0
   -3.7953   -2.6504   -1.8868 N   0  0  0  0  0  0  0  0  0  0  0  0
   -2.2167   -1.1162    0.8872 C   0  0  0  0  0  0  0  0  0  0  0  0
   -1.9329    0.1212    2.1008 S   0  0  0  0  0  0  0  0  0  0  0  0
   -0.2562    0.1317    1.6889 C   0  0  0  0  0  0  0  0  0  0  0  0
    0.5221    1.2181    1.8264 C   0  0  0  0  0  0  0  0  0  0  0  0
    1.8121    1.4269    1.2537 C   0  0  0  0  0  0  0  0  0  0  0  0
    2.9080    1.9076    1.9282 C   0  0  0  0  0  0  0  0  0  0  0  0
    3.9401    1.9772    1.0154 N   0  0  0  0  0  0  0  0  0  0  0  0
    5.2823    2.3996    1.2403 C   0  0  0  0  0  0  0  0  0  0  0  0
    6.1766    2.4566    0.1606 C   0  0  0  0  0  0  0  0  0  0  0  0
    7.4950    2.8761    0.3583 C   0  0  0  0  0  0  0  0  0  0  0  0
    7.9288    3.2420    1.6303 C   0  0  0  0  0  0  0  0  0  0  0  0
    7.0460    3.1891    2.7057 C   0  0  0  0  0  0  0  0  0  0  0  0
    5.7260    2.7691    2.5180 C   0  0  0  0  0  0  0  0  0  0  0  0
    3.5322    1.6054   -0.2250 N   0  0  0  0  0  0  0  0  0  0  0  0
    2.2412    1.2732   -0.0974 C   0  0  0  0  0  0  0  0  0  0  0  0
    1.4591    0.8273   -1.2457 C   0  0  0  0  0  0  0  0  0  0  0  0
    1.9309   -0.1655   -2.1046 C   0  0  0  0  0  0  0  0  0  0  0  0
    1.1035   -0.6520   -3.1155 C   0  0  0  0  0  0  0  0  0  0  0  0
   -0.1759   -0.1324   -3.2302 C   0  0  0  0  0  0  0  0  0  0  0  0
   -0.6636    0.8422   -2.4316 N   0  0  0  0  0  0  0  0  0  0  0  0
    0.1765    1.3172   -1.4803 C   0  0  0  0  0  0  0  0  0  0  0  0
    0.1317   -1.1712    1.0754 C   0  0  0  0  0  0  0  0  0  0  0  0
    1.2872   -1.5593    1.0306 O   0  0  0  0  0  0  0  0  0  0  0  0
   -1.0367   -1.8307    0.6462 N   0  0  0  0  0  0  0  0  0  0  0  0
   -0.9439   -3.1751    0.1595 C   0  0  0  0  0  0  0  0  0  0  0  0
   -1.9001   -4.1358    0.5399 C   0  0  0  0  0  0  0  0  0  0  0  0
   -1.8103   -5.4544    0.0869 C   0  0  0  0  0  0  0  0  0  0  0  0
   -0.7588   -5.8237   -0.7426 C   0  0  0  0  0  0  0  0  0  0  0  0
   -0.6688   -7.0871   -1.1768 F   0  0  0  0  0  0  0  0  0  0  0  0
    0.2098   -4.9005   -1.1147 C   0  0  0  0  0  0  0  0  0  0  0  0
    0.1218   -3.5838   -0.6547 C   0  0  0  0  0  0  0  0  0  0  0  0
   -5.5051    2.9268    0.3090 H   0  0  0  0  0  0  0  0  0  0  0  0
   -6.0238    1.7522    1.5229 H   0  0  0  0  0  0  0  0  0  0  0  0
   -4.3207    2.2329    1.4236 H   0  0  0  0  0  0  0  0  0  0  0  0
   -2.9332    1.5738   -0.6668 H   0  0  0  0  0  0  0  0  0  0  0  0
   -3.6839    0.6291   -1.9637 H   0  0  0  0  0  0  0  0  0  0  0  0
   -4.1967    2.2899   -1.6692 H   0  0  0  0  0  0  0  0  0  0  0  0
   -6.0798   -0.2086   -1.7061 H   0  0  0  0  0  0  0  0  0  0  0  0
   -7.0216    0.1998   -0.2684 H   0  0  0  0  0  0  0  0  0  0  0  0
   -6.6305    1.4606   -1.4491 H   0  0  0  0  0  0  0  0  0  0  0  0
    0.1088    2.0812    2.3490 H   0  0  0  0  0  0  0  0  0  0  0  0
    3.0413    2.1825    2.9617 H   0  0  0  0  0  0  0  0  0  0  0  0
    5.8606    2.1818   -0.8455 H   0  0  0  0  0  0  0  0  0  0  0  0
    8.1820    2.9195   -0.4810 H   0  0  0  0  0  0  0  0  0  0  0  0
    8.9557    3.5629    1.7832 H   0  0  0  0  0  0  0  0  0  0  0  0
    7.3875    3.4777    3.6958 H   0  0  0  0  0  0  0  0  0  0  0  0
    5.0777    2.7388    3.3877 H   0  0  0  0  0  0  0  0  0  0  0  0
    2.9272   -0.5795   -1.9665 H   0  0  0  0  0  0  0  0  0  0  0  0
    1.4471   -1.4320   -3.7837 H   0  0  0  0  0  0  0  0  0  0  0  0
   -0.8637   -0.4971   -3.9913 H   0  0  0  0  0  0  0  0  0  0  0  0
   -0.2380    2.1203   -0.8806 H   0  0  0  0  0  0  0  0  0  0  0  0
   -2.7051   -3.8902    1.2300 H   0  0  0  0  0  0  0  0  0  0  0  0
   -2.5456   -6.1973    0.3879 H   0  0  0  0  0  0  0  0  0  0  0  0
    1.0318   -5.2124   -1.7504 H   0  0  0  0  0  0  0  0  0  0  0  0
    0.8965   -2.8850   -0.9565 H   0  0  0  0  0  0  0  0  0  0  0  0
  1  2  1  0
  2  3  1  0
  2  4  1  0
  2  5  1  0
  5  6  2  0
  5  7  1  0
  7  8  1  0
  8  9  3  0
  7 10  2  3
 10 11  1  0
 11 12  1  0
 12 13  2  3
 13 14  1  0
 14 15  2  0
 15 16  1  0
 16 17  1  0
 17 18  2  0
 18 19  1  0
 19 20  2  0
 20 21  1  0
 21 22  2  0
 16 23  1  0
 23 24  2  0
 24 25  1  0
 25 26  2  0
 26 27  1  0
 27 28  2  0
 28 29  1  0
 29 30  2  0
 12 31  1  0
 31 32  2  0
 31 33  1  0
 33 34  1  0
 34 35  2  0
 35 36  1  0
 36 37  2  0
 37 38  1  0
 37 39  1  0
 39 40  2  0
 33 10  1  0
 40 34  1  0
 24 14  1  0
 30 25  1  0
 22 17  1  0
  1 41  1  0
  1 42  1  0
  1 43  1  0
  3 44  1  0
  3 45  1  0
  3 46  1  0
  4 47  1  0
  4 48  1  0
  4 49  1  0
 13 50  1  0
 15 51  1  0
 18 52  1  0
 19 53  1  0
 20 54  1  0
 21 55  1  0
 22 56  1  0
 26 57  1  0
 27 58  1  0
 28 59  1  0
 30 60  1  0
 35 61  1  0
 36 62  1  0
 39 63  1  0
 40 64  1  0
M  END
$$$$
