
     RDKit          3D

 43 45  0  0  0  0  0  0  0  0999 V2000
   -6.6206   -1.0419   -1.3591 C   0  0  0  0  0  0  0  0  0  0  0  0
   -6.1599   -0.1499   -0.2038 C   0  0  0  0  0  0  0  0  0  0  0  0
   -6.7751    1.2475   -0.3143 C   0  0  0  0  0  0  0  0  0  0  0  0
   -4.6440   -0.0884   -0.1173 C   0  0  0  0  0  0  0  0  0  0  0  0
   -3.9902   -0.5900    1.0185 C   0  0  0  0  0  0  0  0  0  0  0  0
   -2.5961   -0.5471    1.1217 C   0  0  0  0  0  0  0  0  0  0  0  0
   -1.8357    0.0090    0.0872 C   0  0  0  0  0  0  0  0  0  0  0  0
   -0.3513    0.0788    0.1473 C   0  0  0  0  0  0  0  0  0  0  0  0
    0.3151    0.0355   -0.8837 O   0  0  0  0  0  0  0  0  0  0  0  0
    0.2053    0.2388    1.4104 N   0  0  0  0  0  0  0  0  0  0  0  0
    1.5446    0.2791    1.7806 C   0  0  0  0  0  0  0  0  0  0  0  0
    1.8258    0.5202    3.4079 S   0  0  0  0  0  0  0  0  0  0  0  0
    2.4265    0.1160    0.7386 N   0  0  0  0  0  0  0  0  0  0  0  0
    3.8345    0.0464    0.6387 C   0  0  0  0  0  0  0  0  0  0  0  0
    4.7335    0.0482    1.7287 C   0  0  0  0  0  0  0  0  0  0  0  0
    6.1248   -0.0274    1.5437 C   0  0  0  0  0  0  0  0  0  0  0  0
    6.5771   -0.1079    0.2522 C   0  0  0  0  0  0  0  0  0  0  0  0
    7.8747   -0.1941   -0.2376 N   0  0  0  0  0  0  0  0  0  0  0  0
    7.8231   -0.2580   -1.6378 C   0  0  0  0  0  0  0  0  0  0  0  0
    8.7707   -0.3401   -2.3981 O   0  0  0  0  0  0  0  0  0  0  0  0
    6.4664   -0.2091   -1.9912 N   0  0  0  0  0  0  0  0  0  0  0  0
    5.7065   -0.1171   -0.8298 C   0  0  0  0  0  0  0  0  0  0  0  0
    4.3417   -0.0441   -0.6725 C   0  0  0  0  0  0  0  0  0  0  0  0
   -2.4764    0.4936   -1.0574 C   0  0  0  0  0  0  0  0  0  0  0  0
   -3.8694    0.4497   -1.1557 C   0  0  0  0  0  0  0  0  0  0  0  0
   -7.7114   -1.1422   -1.3565 H   0  0  0  0  0  0  0  0  0  0  0  0
   -6.3266   -0.6357   -2.3331 H   0  0  0  0  0  0  0  0  0  0  0  0
   -6.1915   -2.0465   -1.2733 H   0  0  0  0  0  0  0  0  0  0  0  0
   -6.5442   -0.5974    0.7224 H   0  0  0  0  0  0  0  0  0  0  0  0
   -6.4539    1.8834    0.5182 H   0  0  0  0  0  0  0  0  0  0  0  0
   -6.4909    1.7484   -1.2461 H   0  0  0  0  0  0  0  0  0  0  0  0
   -7.8687    1.1893   -0.2890 H   0  0  0  0  0  0  0  0  0  0  0  0
   -4.5652   -1.0300    1.8317 H   0  0  0  0  0  0  0  0  0  0  0  0
   -2.1296   -0.9801    2.0021 H   0  0  0  0  0  0  0  0  0  0  0  0
   -0.4192    0.3852    2.1916 H   0  0  0  0  0  0  0  0  0  0  0  0
    1.9477    0.0601   -0.1634 H   0  0  0  0  0  0  0  0  0  0  0  0
    4.3892    0.0968    2.7537 H   0  0  0  0  0  0  0  0  0  0  0  0
    6.8004   -0.0250    2.3905 H   0  0  0  0  0  0  0  0  0  0  0  0
    8.7295   -0.2107    0.2934 H   0  0  0  0  0  0  0  0  0  0  0  0
    6.1330   -0.2381   -2.9405 H   0  0  0  0  0  0  0  0  0  0  0  0
    3.6882   -0.0534   -1.5378 H   0  0  0  0  0  0  0  0  0  0  0  0
   -1.8952    0.9108   -1.8777 H   0  0  0  0  0  0  0  0  0  0  0  0
   -4.3432    0.8373   -2.0554 H   0  0  0  0  0  0  0  0  0  0  0  0
  1  2  1  0
  2  3  1  0
  2  4  1  0
  4  5  2  0
  5  6  1  0
  6  7  2  0
  7  8  1  0
  8  9  2  0
  8 10  1  0
 10 11  1  0
 11 12  2  0
 11 13  1  0
 13 14  1  0
 14 15  2  0
 15 16  1  0
 16 17  2  0
 17 18  1  0
 18 19  1  0
 19 20  2  0
 19 21  1  0
 21 22  1  0
 22 23  2  0
  7 24  1  0
 24 25  2  0
 25  4  1  0
 23 14  1  0
 22 17  1  0
  1 26  1  0
  1 27  1  0
  1 28  1  0
  2 29  1  0
  3 30  1  0
  3 31  1  0
  3 32  1  0
  5 33  1  0
  6 34  1  0
 10 35  1  0
 13 36  1  0
 15 37  1  0
 16 38  1  0
 18 39  1  0
 21 40  1  0
 23 41  1  0
 24 42  1  0
 25 43  1  0
M  END
$$$$
