
     RDKit          3D

 42 44  0  0  0  0  0  0  0  0999 V2000
   -5.3890    2.4264   -1.6922 C   0  0  0  0  0  0  0  0  0  0  0  0
   -5.1178    1.3457   -0.6610 C   0  0  0  0  0  0  0  0  0  0  0  0
   -3.7209    1.0594   -0.6840 O   0  0  0  0  0  0  0  0  0  0  0  0
   -3.2581    0.0874    0.1723 C   0  0  0  0  0  0  0  0  0  0  0  0
   -4.0521   -0.6230    1.0778 C   0  0  0  0  0  0  0  0  0  0  0  0
   -3.4811   -1.6017    1.8934 C   0  0  0  0  0  0  0  0  0  0  0  0
   -2.1215   -1.8848    1.7980 C   0  0  0  0  0  0  0  0  0  0  0  0
   -1.3202   -1.1788    0.8985 C   0  0  0  0  0  0  0  0  0  0  0  0
   -1.8716   -0.1726    0.1003 C   0  0  0  0  0  0  0  0  0  0  0  0
   -1.1296    0.5752   -0.8430 N   0  0  0  0  0  0  0  0  0  0  0  0
    0.2088    0.7378   -1.0527 C   0  0  0  0  0  0  0  0  0  0  0  0
    0.6892    1.3596   -2.5297 S   0  0  0  0  0  0  0  0  0  0  0  0
    1.0356    0.4266   -0.0097 N   0  0  0  0  0  0  0  0  0  0  0  0
    2.4944    0.5379    0.0116 C   0  0  0  0  0  0  0  0  0  0  0  0
    3.0567    0.3798    1.4439 C   0  0  0  0  0  0  0  0  0  0  0  0
    4.0202   -0.8130    1.3161 C   0  0  0  0  0  0  0  0  0  0  0  0
    5.2393   -0.3866    0.4810 C   0  0  0  0  0  0  0  0  0  0  0  0
    4.6646   -0.2778   -0.9388 C   0  0  0  0  0  0  0  0  0  0  0  0
    3.1807   -0.6326   -0.7378 C   0  0  0  0  0  0  0  0  0  0  0  0
    3.2692   -1.7146    0.3412 C   0  0  0  0  0  0  0  0  0  0  0  0
   -4.8100    3.3282   -1.4669 H   0  0  0  0  0  0  0  0  0  0  0  0
   -5.0836    2.0928   -2.6896 H   0  0  0  0  0  0  0  0  0  0  0  0
   -6.4512    2.6852   -1.7159 H   0  0  0  0  0  0  0  0  0  0  0  0
   -5.6946    0.4508   -0.9212 H   0  0  0  0  0  0  0  0  0  0  0  0
   -5.4143    1.7131    0.3280 H   0  0  0  0  0  0  0  0  0  0  0  0
   -5.1175   -0.4434    1.1716 H   0  0  0  0  0  0  0  0  0  0  0  0
   -4.1027   -2.1559    2.5926 H   0  0  0  0  0  0  0  0  0  0  0  0
   -1.6849   -2.6688    2.4120 H   0  0  0  0  0  0  0  0  0  0  0  0
   -0.2800   -1.4725    0.8066 H   0  0  0  0  0  0  0  0  0  0  0  0
   -1.7140    1.0561   -1.5237 H   0  0  0  0  0  0  0  0  0  0  0  0
    0.5758    0.5345    0.8851 H   0  0  0  0  0  0  0  0  0  0  0  0
    2.7723    1.5131   -0.4032 H   0  0  0  0  0  0  0  0  0  0  0  0
    2.2703    0.1557    2.1739 H   0  0  0  0  0  0  0  0  0  0  0  0
    3.5739    1.2869    1.7742 H   0  0  0  0  0  0  0  0  0  0  0  0
    4.2828   -1.2668    2.2736 H   0  0  0  0  0  0  0  0  0  0  0  0
    5.6736    0.5581    0.8230 H   0  0  0  0  0  0  0  0  0  0  0  0
    6.0213   -1.1537    0.5123 H   0  0  0  0  0  0  0  0  0  0  0  0
    4.8063    0.7196   -1.3668 H   0  0  0  0  0  0  0  0  0  0  0  0
    5.1522   -1.0043   -1.5987 H   0  0  0  0  0  0  0  0  0  0  0  0
    2.6850   -0.9508   -1.6567 H   0  0  0  0  0  0  0  0  0  0  0  0
    3.8495   -2.5889    0.0277 H   0  0  0  0  0  0  0  0  0  0  0  0
    2.2928   -2.0393    0.7148 H   0  0  0  0  0  0  0  0  0  0  0  0
  1  2  1  0
  2  3  1  0
  3  4  1  0
  4  5  2  0
  5  6  1  0
  6  7  2  0
  7  8  1  0
  8  9  2  0
  9 10  1  0
 10 11  1  0
 11 12  2  0
 11 13  1  0
 13 14  1  0
 14 15  1  0
 15 16  1  0
 16 17  1  0
 17 18  1  0
 18 19  1  0
 19 20  1  0
  9  4  1  0
 19 14  1  0
 20 16  1  0
  1 21  1  0
  1 22  1  0
  1 23  1  0
  2 24  1  0
  2 25  1  0
  5 26  1  0
  6 27  1  0
  7 28  1  0
  8 29  1  0
 10 30  1  0
 13 31  1  0
 14 32  1  0
 15 33  1  0
 15 34  1  0
 16 35  1  0
 17 36  1  0
 17 37  1  0
 18 38  1  0
 18 39  1  0
 19 40  1  0
 20 41  1  0
 20 42  1  0
M  END
$$$$
