
     RDKit          3D

 52 55  0  0  0  0  0  0  0  0999 V2000
   -4.2529    2.0885    2.9472 C   0  0  0  0  0  0  0  0  0  0  0  0
   -4.1444    1.4537    1.5942 C   0  0  0  0  0  0  0  0  0  0  0  0
   -3.5458    0.1980    1.4311 C   0  0  0  0  0  0  0  0  0  0  0  0
   -3.4786   -0.3809    0.1564 C   0  0  0  0  0  0  0  0  0  0  0  0
   -2.7057   -1.9712   -0.0297 S   0  0  0  0  0  6  0  0  0  0  0  0
   -3.0309   -2.7557    1.1395 O   0  0  0  0  0  0  0  0  0  0  0  0
   -2.9636   -2.4462   -1.3706 O   0  0  0  0  0  0  0  0  0  0  0  0
   -1.0753   -1.5947    0.0794 N   0  0  0  0  0  0  0  0  0  0  0  0
   -0.4879   -0.6572   -0.9011 C   0  0  0  0  0  0  0  0  0  0  0  0
    1.0734   -0.7838   -0.9447 C   0  0  0  0  0  0  0  0  0  0  0  0
    1.6136   -0.4445    0.4535 C   0  0  0  0  0  0  0  0  0  0  0  0
    1.6231    0.8919    0.9268 C   0  0  0  0  0  0  0  0  0  0  0  0
    2.0910    1.2019    2.2073 C   0  0  0  0  0  0  0  0  0  0  0  0
    2.5423    0.1645    2.9924 C   0  0  0  0  0  0  0  0  0  0  0  0
    2.5408   -1.1352    2.5456 C   0  0  0  0  0  0  0  0  0  0  0  0
    2.0859   -1.4737    1.2886 C   0  0  0  0  0  0  0  0  0  0  0  0
    3.0239   -2.0035    3.4737 O   0  0  0  0  0  0  0  0  0  0  0  0
    3.3407   -1.0994    4.5529 C   0  0  0  0  0  0  0  0  0  0  0  0
    3.0275    0.2778    4.2574 O   0  0  0  0  0  0  0  0  0  0  0  0
    1.7165    0.0646   -1.9856 N   0  0  0  0  0  0  0  0  0  0  0  0
    1.0972   -0.1003   -3.3218 C   0  0  0  0  0  0  0  0  0  0  0  0
    2.0393    0.3255   -4.4585 C   0  0  0  0  0  0  0  0  0  0  0  0
    3.2078   -0.4991   -4.5388 O   0  0  0  0  0  0  0  0  0  0  0  0
    3.6037   -1.0352   -3.2705 C   0  0  0  0  0  0  0  0  0  0  0  0
    3.1839   -0.1527   -2.0838 C   0  0  0  0  0  0  0  0  0  0  0  0
   -4.0301    0.2623   -0.9560 C   0  0  0  0  0  0  0  0  0  0  0  0
   -4.6375    1.5063   -0.7914 C   0  0  0  0  0  0  0  0  0  0  0  0
   -4.6909    2.0885    0.4737 C   0  0  0  0  0  0  0  0  0  0  0  0
   -5.2853    3.2823    0.6092 F   0  0  0  0  0  0  0  0  0  0  0  0
   -4.0268    3.1583    2.8901 H   0  0  0  0  0  0  0  0  0  0  0  0
   -5.2642    1.9561    3.3437 H   0  0  0  0  0  0  0  0  0  0  0  0
   -3.5426    1.6433    3.6517 H   0  0  0  0  0  0  0  0  0  0  0  0
   -3.1384   -0.3299    2.2918 H   0  0  0  0  0  0  0  0  0  0  0  0
   -0.7399   -1.5387    1.0418 H   0  0  0  0  0  0  0  0  0  0  0  0
   -0.9061   -0.8878   -1.8855 H   0  0  0  0  0  0  0  0  0  0  0  0
   -0.7763    0.3664   -0.6365 H   0  0  0  0  0  0  0  0  0  0  0  0
    1.3118   -1.8344   -1.1649 H   0  0  0  0  0  0  0  0  0  0  0  0
    1.2726    1.6973    0.2827 H   0  0  0  0  0  0  0  0  0  0  0  0
    2.1040    2.2238    2.5693 H   0  0  0  0  0  0  0  0  0  0  0  0
    2.0948   -2.5104    0.9671 H   0  0  0  0  0  0  0  0  0  0  0  0
    4.4119   -1.1764    4.7721 H   0  0  0  0  0  0  0  0  0  0  0  0
    2.7767   -1.4039    5.4420 H   0  0  0  0  0  0  0  0  0  0  0  0
    0.8254   -1.1513   -3.4862 H   0  0  0  0  0  0  0  0  0  0  0  0
    0.1867    0.5062   -3.3737 H   0  0  0  0  0  0  0  0  0  0  0  0
    1.5227    0.2554   -5.4212 H   0  0  0  0  0  0  0  0  0  0  0  0
    2.3577    1.3674   -4.3356 H   0  0  0  0  0  0  0  0  0  0  0  0
    3.1770   -2.0405   -3.1752 H   0  0  0  0  0  0  0  0  0  0  0  0
    4.6928   -1.1456   -3.2890 H   0  0  0  0  0  0  0  0  0  0  0  0
    3.6161   -0.5605   -1.1646 H   0  0  0  0  0  0  0  0  0  0  0  0
    3.6370    0.8381   -2.2168 H   0  0  0  0  0  0  0  0  0  0  0  0
   -3.9969   -0.1964   -1.9418 H   0  0  0  0  0  0  0  0  0  0  0  0
   -5.0778    2.0255   -1.6375 H   0  0  0  0  0  0  0  0  0  0  0  0
  1  2  1  0
  2  3  2  0
  3  4  1  0
  4  5  1  0
  5  6  2  0
  5  7  2  0
  5  8  1  0
  8  9  1  0
  9 10  1  0
 10 11  1  0
 11 12  2  0
 12 13  1  0
 13 14  2  0
 14 15  1  0
 15 16  2  0
 15 17  1  0
 17 18  1  0
 18 19  1  0
 10 20  1  0
 20 21  1  0
 21 22  1  0
 22 23  1  0
 23 24  1  0
 24 25  1  0
  4 26  2  0
 26 27  1  0
 27 28  2  0
 28 29  1  0
 28  2  1  0
 16 11  1  0
 25 20  1  0
 19 14  1  0
  1 30  1  0
  1 31  1  0
  1 32  1  0
  3 33  1  0
  8 34  1  0
  9 35  1  0
  9 36  1  0
 10 37  1  0
 12 38  1  0
 13 39  1  0
 16 40  1  0
 18 41  1  0
 18 42  1  0
 21 43  1  0
 21 44  1  0
 22 45  1  0
 22 46  1  0
 24 47  1  0
 24 48  1  0
 25 49  1  0
 25 50  1  0
 26 51  1  0
 27 52  1  0
M  END
$$$$
