
     RDKit          3D

 53 56  0  0  0  0  0  0  0  0999 V2000
   -6.3935    0.8424    1.5569 C   0  0  0  0  0  0  0  0  0  0  0  0
   -5.8550    1.1327    0.1377 C   0  0  0  0  0  0  0  0  0  0  0  0
   -6.7529    0.3647   -0.8563 C   0  0  0  0  0  0  0  0  0  0  0  0
   -6.0076    2.6494   -0.1078 C   0  0  0  0  0  0  0  0  0  0  0  0
   -4.3870    0.7210   -0.0664 C   0  0  0  0  0  0  0  0  0  0  0  0
   -3.7637    0.9186   -1.3102 C   0  0  0  0  0  0  0  0  0  0  0  0
   -2.4296    0.5533   -1.5277 C   0  0  0  0  0  0  0  0  0  0  0  0
   -1.6683   -0.0348   -0.5080 C   0  0  0  0  0  0  0  0  0  0  0  0
   -0.3113   -0.3934   -0.7793 N   0  0  0  0  0  0  0  0  0  0  0  0
    0.2648    0.0357   -1.9425 N   0  0  0  0  0  0  0  0  0  0  0  0
    1.5318   -0.3659   -1.8843 C   0  0  0  0  0  0  0  0  0  0  0  0
    1.8097   -1.0855   -0.7181 C   0  0  0  0  0  0  0  0  0  0  0  0
    0.6008   -1.1416   -0.0452 C   0  0  0  0  0  0  0  0  0  0  0  0
    0.3840   -1.9155    1.2102 C   0  0  0  0  0  0  0  0  0  0  0  0
    1.5344   -2.9197    1.4235 C   0  0  0  0  0  0  0  0  0  0  0  0
    2.9105   -2.2784    1.1827 C   0  0  0  0  0  0  0  0  0  0  0  0
    3.0606   -1.7605   -0.2664 C   0  0  0  0  0  0  0  0  0  0  0  0
    4.1515   -0.8193   -0.3646 N   0  0  0  0  0  0  0  0  0  0  0  0
    5.4682   -1.2196   -0.4188 C   0  0  0  0  0  0  0  0  0  0  0  0
    5.8282   -2.3874   -0.5008 O   0  0  0  0  0  0  0  0  0  0  0  0
    6.4532   -0.1044   -0.3573 C   0  0  0  0  0  0  0  0  0  0  0  0
    7.8117   -0.3682   -0.4409 C   0  0  0  0  0  0  0  0  0  0  0  0
    8.7431    0.6187   -0.3862 N   0  0  0  0  0  0  0  0  0  0  0  0
    8.2515    1.8721   -0.2456 C   0  0  0  0  0  0  0  0  0  0  0  0
    6.8919    2.1347   -0.1603 C   0  0  0  0  0  0  0  0  0  0  0  0
    5.9550    1.1591   -0.2112 N   0  0  0  0  0  0  0  0  0  0  0  0
   -2.2693   -0.2207    0.7373 C   0  0  0  0  0  0  0  0  0  0  0  0
   -3.6079    0.1493    0.9505 C   0  0  0  0  0  0  0  0  0  0  0  0
   -6.3466   -0.2266    1.7954 H   0  0  0  0  0  0  0  0  0  0  0  0
   -5.8295    1.3884    2.3221 H   0  0  0  0  0  0  0  0  0  0  0  0
   -7.4425    1.1481    1.6516 H   0  0  0  0  0  0  0  0  0  0  0  0
   -6.5142    0.6019   -1.8989 H   0  0  0  0  0  0  0  0  0  0  0  0
   -6.6425   -0.7192   -0.7319 H   0  0  0  0  0  0  0  0  0  0  0  0
   -7.8105    0.6118   -0.7061 H   0  0  0  0  0  0  0  0  0  0  0  0
   -5.3590    3.2248    0.5634 H   0  0  0  0  0  0  0  0  0  0  0  0
   -7.0399    2.9758    0.0648 H   0  0  0  0  0  0  0  0  0  0  0  0
   -5.7503    2.9307   -1.1348 H   0  0  0  0  0  0  0  0  0  0  0  0
   -4.3087    1.3645   -2.1398 H   0  0  0  0  0  0  0  0  0  0  0  0
   -2.0026    0.7294   -2.5141 H   0  0  0  0  0  0  0  0  0  0  0  0
    2.1974   -0.1247   -2.7036 H   0  0  0  0  0  0  0  0  0  0  0  0
    0.3576   -1.2262    2.0619 H   0  0  0  0  0  0  0  0  0  0  0  0
   -0.5565   -2.4746    1.1763 H   0  0  0  0  0  0  0  0  0  0  0  0
    1.4824   -3.3197    2.4425 H   0  0  0  0  0  0  0  0  0  0  0  0
    1.4120   -3.7697    0.7396 H   0  0  0  0  0  0  0  0  0  0  0  0
    3.7034   -3.0041    1.3999 H   0  0  0  0  0  0  0  0  0  0  0  0
    3.0433   -1.4529    1.8957 H   0  0  0  0  0  0  0  0  0  0  0  0
    3.2661   -2.6109   -0.9290 H   0  0  0  0  0  0  0  0  0  0  0  0
    3.9858    0.1680   -0.1843 H   0  0  0  0  0  0  0  0  0  0  0  0
    8.1936   -1.3772   -0.5547 H   0  0  0  0  0  0  0  0  0  0  0  0
    8.9866    2.6684   -0.2027 H   0  0  0  0  0  0  0  0  0  0  0  0
    6.5203    3.1476   -0.0480 H   0  0  0  0  0  0  0  0  0  0  0  0
   -1.7352   -0.6177    1.5898 H   0  0  0  0  0  0  0  0  0  0  0  0
   -4.0153   -0.0188    1.9441 H   0  0  0  0  0  0  0  0  0  0  0  0
  1  2  1  0
  2  3  1  0
  2  4  1  0
  2  5  1  0
  5  6  2  0
  6  7  1  0
  7  8  2  0
  8  9  1  0
  9 10  1  0
 10 11  2  0
 11 12  1  0
 12 13  2  0
 13 14  1  0
 14 15  1  0
 15 16  1  0
 16 17  1  0
 17 18  1  0
 18 19  1  0
 19 20  2  0
 19 21  1  0
 21 22  2  0
 22 23  1  0
 23 24  2  0
 24 25  1  0
 25 26  2  0
  8 27  1  0
 27 28  2  0
 28  5  1  0
 13  9  1  0
 26 21  1  0
 17 12  1  0
  1 29  1  0
  1 30  1  0
  1 31  1  0
  3 32  1  0
  3 33  1  0
  3 34  1  0
  4 35  1  0
  4 36  1  0
  4 37  1  0
  6 38  1  0
  7 39  1  0
 11 40  1  0
 14 41  1  0
 14 42  1  0
 15 43  1  0
 15 44  1  0
 16 45  1  0
 16 46  1  0
 17 47  1  0
 18 48  1  0
 22 49  1  0
 24 50  1  0
 25 51  1  0
 27 52  1  0
 28 53  1  0
M  END
$$$$
