
     RDKit          3D

 39 40  0  0  0  0  0  0  0  0999 V2000
   -5.8354    0.9187    1.8227 N   0  0  0  0  0  0  0  0  0  0  0  0
   -4.6084   -0.0702    2.4141 S   0  0  0  0  0  6  0  0  0  0  0  0
   -3.8813    0.7334    3.3697 O   0  0  0  0  0  0  0  0  0  0  0  0
   -5.1865   -1.3478    2.7555 O   0  0  0  0  0  0  0  0  0  0  0  0
   -3.5966   -0.2815    0.9738 C   0  0  0  0  0  0  0  0  0  0  0  0
   -3.8887   -1.3130    0.0776 C   0  0  0  0  0  0  0  0  0  0  0  0
   -3.0870   -1.4912   -1.0505 C   0  0  0  0  0  0  0  0  0  0  0  0
   -1.9919   -0.6465   -1.2829 C   0  0  0  0  0  0  0  0  0  0  0  0
   -1.1006   -0.8581   -2.4870 C   0  0  0  0  0  0  0  0  0  0  0  0
   -0.1039   -2.0089   -2.2943 C   0  0  0  0  0  0  0  0  0  0  0  0
    0.7979   -1.8149   -1.1700 N   0  0  0  0  0  0  0  0  0  0  0  0
    1.8197   -0.8896   -1.2459 C   0  0  0  0  0  0  0  0  0  0  0  0
    2.0550   -0.2506   -2.2617 O   0  0  0  0  0  0  0  0  0  0  0  0
    2.4981   -0.8168   -0.0495 N   0  0  0  0  0  0  0  0  0  0  0  0
    3.5379    0.0686    0.2959 C   0  0  0  0  0  0  0  0  0  0  0  0
    4.1807   -0.1483    1.5207 C   0  0  0  0  0  0  0  0  0  0  0  0
    5.2160    0.6919    1.9408 C   0  0  0  0  0  0  0  0  0  0  0  0
    5.6172    1.7633    1.1413 C   0  0  0  0  0  0  0  0  0  0  0  0
    6.9006    2.7630    1.7213 Cl  0  0  0  0  0  0  0  0  0  0  0  0
    4.9764    1.9912   -0.0801 C   0  0  0  0  0  0  0  0  0  0  0  0
    5.4131    3.3044   -1.1173 Cl  0  0  0  0  0  0  0  0  0  0  0  0
    3.9396    1.1460   -0.4982 C   0  0  0  0  0  0  0  0  0  0  0  0
   -1.7062    0.3784   -0.3673 C   0  0  0  0  0  0  0  0  0  0  0  0
   -2.5033    0.5610    0.7631 C   0  0  0  0  0  0  0  0  0  0  0  0
   -5.7971    1.8184    2.3051 H   0  0  0  0  0  0  0  0  0  0  0  0
   -5.8112    1.0295    0.8096 H   0  0  0  0  0  0  0  0  0  0  0  0
   -4.7306   -1.9804    0.2534 H   0  0  0  0  0  0  0  0  0  0  0  0
   -3.3189   -2.2962   -1.7457 H   0  0  0  0  0  0  0  0  0  0  0  0
   -1.7309   -1.0671   -3.3606 H   0  0  0  0  0  0  0  0  0  0  0  0
   -0.5701    0.0737   -2.7177 H   0  0  0  0  0  0  0  0  0  0  0  0
    0.4974   -2.1259   -3.2030 H   0  0  0  0  0  0  0  0  0  0  0  0
   -0.6307   -2.9526   -2.1154 H   0  0  0  0  0  0  0  0  0  0  0  0
    0.3821   -1.9309   -0.2569 H   0  0  0  0  0  0  0  0  0  0  0  0
    2.3127   -1.5752    0.5904 H   0  0  0  0  0  0  0  0  0  0  0  0
    3.8890   -0.9744    2.1652 H   0  0  0  0  0  0  0  0  0  0  0  0
    5.7046    0.5045    2.8941 H   0  0  0  0  0  0  0  0  0  0  0  0
    3.4570    1.3538   -1.4486 H   0  0  0  0  0  0  0  0  0  0  0  0
   -0.8529    1.0362   -0.5300 H   0  0  0  0  0  0  0  0  0  0  0  0
   -2.2627    1.3538    1.4684 H   0  0  0  0  0  0  0  0  0  0  0  0
  1  2  1  0
  2  3  2  0
  2  4  2  0
  2  5  1  0
  5  6  2  0
  6  7  1  0
  7  8  2  0
  8  9  1  0
  9 10  1  0
 10 11  1  0
 11 12  1  0
 12 13  2  0
 12 14  1  0
 14 15  1  0
 15 16  2  0
 16 17  1  0
 17 18  2  0
 18 19  1  0
 18 20  1  0
 20 21  1  0
 20 22  2  0
  8 23  1  0
 23 24  2  0
 24  5  1  0
 22 15  1  0
  1 25  1  0
  1 26  1  0
  6 27  1  0
  7 28  1  0
  9 29  1  0
  9 30  1  0
 10 31  1  0
 10 32  1  0
 11 33  1  0
 14 34  1  0
 16 35  1  0
 17 36  1  0
 22 37  1  0
 23 38  1  0
 24 39  1  0
M  END
$$$$
