
     RDKit          3D

 45 46  0  0  0  0  0  0  0  0999 V2000
    7.5442    0.0514    1.7122 C   0  0  0  0  0  0  0  0  0  0  0  0
    6.6673   -0.3697    2.8780 C   0  0  0  0  0  0  0  0  0  0  0  0
    5.2785   -0.5372    2.4866 N   0  0  0  0  0  0  0  0  0  0  0  0
    4.8892   -1.7282    1.9992 N   0  0  0  0  0  0  0  0  0  0  0  0
    3.5896   -1.5644    1.7515 C   0  0  0  0  0  0  0  0  0  0  0  0
    3.1339   -0.2682    2.0747 C   0  0  0  0  0  0  0  0  0  0  0  0
    1.8004    0.2640    1.9441 C   0  0  0  0  0  0  0  0  0  0  0  0
    0.8682   -0.4971    1.4722 N   0  0  0  0  0  0  0  0  0  0  0  0
   -0.3732    0.0622    1.3714 N   0  0  0  0  0  0  0  0  0  0  0  0
   -1.4360   -0.7017    0.8888 C   0  0  0  0  0  0  0  0  0  0  0  0
   -1.3532   -1.8754    0.5389 O   0  0  0  0  0  0  0  0  0  0  0  0
   -2.7363    0.1089    0.8318 C   0  0  0  0  0  0  0  0  0  0  0  0
   -3.8917   -0.5846    0.3838 O   0  0  0  0  0  0  0  0  0  0  0  0
   -4.1945   -0.3949   -0.9371 C   0  0  0  0  0  0  0  0  0  0  0  0
   -5.5389   -0.1654   -1.2313 C   0  0  0  0  0  0  0  0  0  0  0  0
   -5.9549    0.0294   -2.5533 C   0  0  0  0  0  0  0  0  0  0  0  0
   -7.3920    0.3240   -2.8656 C   0  0  0  0  0  0  0  0  0  0  0  0
   -5.0016   -0.0078   -3.5791 C   0  0  0  0  0  0  0  0  0  0  0  0
   -3.6563   -0.2836   -3.2988 C   0  0  0  0  0  0  0  0  0  0  0  0
   -2.6454   -0.3316   -4.4068 C   0  0  0  0  0  0  0  0  0  0  0  0
   -3.2583   -0.4736   -1.9687 C   0  0  0  0  0  0  0  0  0  0  0  0
    4.2610    0.3875    2.5508 C   0  0  0  0  0  0  0  0  0  0  0  0
    4.4603    1.7713    3.0517 C   0  0  0  0  0  0  0  0  0  0  0  0
    7.5193   -0.6938    0.9099 H   0  0  0  0  0  0  0  0  0  0  0  0
    8.5822    0.1654    2.0397 H   0  0  0  0  0  0  0  0  0  0  0  0
    7.2117    1.0058    1.2907 H   0  0  0  0  0  0  0  0  0  0  0  0
    7.0110   -1.3240    3.2932 H   0  0  0  0  0  0  0  0  0  0  0  0
    6.7097    0.3708    3.6830 H   0  0  0  0  0  0  0  0  0  0  0  0
    3.0184   -2.3916    1.3460 H   0  0  0  0  0  0  0  0  0  0  0  0
    1.6188    1.3069    2.2529 H   0  0  0  0  0  0  0  0  0  0  0  0
   -0.5143    1.0239    1.6587 H   0  0  0  0  0  0  0  0  0  0  0  0
   -2.9519    0.4226    1.8607 H   0  0  0  0  0  0  0  0  0  0  0  0
   -2.5648    1.0294    0.2570 H   0  0  0  0  0  0  0  0  0  0  0  0
   -6.2613   -0.1343   -0.4191 H   0  0  0  0  0  0  0  0  0  0  0  0
   -7.6879   -0.1471   -3.8086 H   0  0  0  0  0  0  0  0  0  0  0  0
   -7.5438    1.4046   -2.9441 H   0  0  0  0  0  0  0  0  0  0  0  0
   -8.0530   -0.0673   -2.0860 H   0  0  0  0  0  0  0  0  0  0  0  0
   -5.3129    0.1600   -4.6087 H   0  0  0  0  0  0  0  0  0  0  0  0
   -1.8130   -0.9957   -4.1506 H   0  0  0  0  0  0  0  0  0  0  0  0
   -2.2513    0.6718   -4.5965 H   0  0  0  0  0  0  0  0  0  0  0  0
   -3.0952   -0.7167   -5.3280 H   0  0  0  0  0  0  0  0  0  0  0  0
   -2.2204   -0.7149   -1.7571 H   0  0  0  0  0  0  0  0  0  0  0  0
    5.3037    2.2527    2.5466 H   0  0  0  0  0  0  0  0  0  0  0  0
    3.5776    2.3934    2.8782 H   0  0  0  0  0  0  0  0  0  0  0  0
    4.6572    1.7628    4.1283 H   0  0  0  0  0  0  0  0  0  0  0  0
  1  2  1  0
  2  3  1  0
  3  4  1  0
  4  5  2  0
  5  6  1  0
  6  7  1  0
  7  8  2  3
  8  9  1  0
  9 10  1  0
 10 11  2  0
 10 12  1  0
 12 13  1  0
 13 14  1  0
 14 15  2  0
 15 16  1  0
 16 17  1  0
 16 18  2  0
 18 19  1  0
 19 20  1  0
 19 21  2  0
  6 22  2  0
 22 23  1  0
 22  3  1  0
 21 14  1  0
  1 24  1  0
  1 25  1  0
  1 26  1  0
  2 27  1  0
  2 28  1  0
  5 29  1  0
  7 30  1  0
  9 31  1  0
 12 32  1  0
 12 33  1  0
 15 34  1  0
 17 35  1  0
 17 36  1  0
 17 37  1  0
 18 38  1  0
 20 39  1  0
 20 40  1  0
 20 41  1  0
 21 42  1  0
 23 43  1  0
 23 44  1  0
 23 45  1  0
M  END
$$$$
