
     RDKit          3D

 51 54  0  0  0  0  0  0  0  0999 V2000
   -1.0385   -2.5809   -0.3762 O   0  0  0  0  0  0  0  0  0  0  0  0
   -1.0725   -1.3548   -0.2432 C   0  0  0  0  0  0  0  0  0  0  0  0
    0.1887   -0.5934   -0.3383 C   0  0  0  0  0  0  0  0  0  0  0  0
    1.4477   -1.1375   -0.7268 C   0  0  0  0  0  0  0  0  0  0  0  0
    2.3307   -0.0905   -0.6460 C   0  0  0  0  0  0  0  0  0  0  0  0
    3.7789    0.0671   -0.9062 C   0  0  0  0  0  0  0  0  0  0  0  0
    4.4553   -0.6162    0.1471 O   0  0  0  0  0  0  0  0  0  0  0  0
    5.8169   -0.5002    0.1937 C   0  0  0  0  0  0  0  0  0  0  0  0
    6.4085   -1.0487    1.3350 C   0  0  0  0  0  0  0  0  0  0  0  0
    7.7905   -0.9983    1.5156 C   0  0  0  0  0  0  0  0  0  0  0  0
    8.5946   -0.3967    0.5498 C   0  0  0  0  0  0  0  0  0  0  0  0
    8.0209    0.1591   -0.6039 C   0  0  0  0  0  0  0  0  0  0  0  0
    8.8968    0.7874   -1.6598 C   0  0  0  0  0  0  0  0  0  0  0  0
    8.2343    1.6896   -2.4378 F   0  0  0  0  0  0  0  0  0  0  0  0
    9.4157   -0.1339   -2.5181 F   0  0  0  0  0  0  0  0  0  0  0  0
    9.9610    1.4591   -1.1387 F   0  0  0  0  0  0  0  0  0  0  0  0
    6.6251    0.0928   -0.7777 C   0  0  0  0  0  0  0  0  0  0  0  0
    1.6616    1.0161   -0.2314 O   0  0  0  0  0  0  0  0  0  0  0  0
    0.3326    0.7069   -0.0301 N   0  0  0  0  0  0  0  0  0  0  0  0
   -2.2946   -0.7017   -0.0023 N   0  0  0  0  0  0  0  0  0  0  0  0
   -3.4826   -1.5222    0.2247 C   0  0  0  0  0  0  0  0  0  0  0  0
   -4.3867   -0.9092    1.2910 C   0  0  0  0  0  0  0  0  0  0  0  0
   -4.7943    0.5425    0.9630 C   0  0  0  0  0  0  0  0  0  0  0  0
   -6.2788    0.6881    0.6790 C   0  0  0  0  0  0  0  0  0  0  0  0
   -7.0528    1.5808    1.4294 C   0  0  0  0  0  0  0  0  0  0  0  0
   -8.4054    1.6996    1.1443 C   0  0  0  0  0  0  0  0  0  0  0  0
   -9.0336    1.0027    0.1743 N   0  0  0  0  0  0  0  0  0  0  0  0
   -8.2735    0.1480   -0.5420 C   0  0  0  0  0  0  0  0  0  0  0  0
   -6.9149   -0.0409   -0.3324 C   0  0  0  0  0  0  0  0  0  0  0  0
   -3.9597    1.1423   -0.1810 C   0  0  0  0  0  0  0  0  0  0  0  0
   -2.4905    0.7488   -0.0560 C   0  0  0  0  0  0  0  0  0  0  0  0
    1.6608   -2.1577   -1.0119 H   0  0  0  0  0  0  0  0  0  0  0  0
    4.0276   -0.3882   -1.8725 H   0  0  0  0  0  0  0  0  0  0  0  0
    4.0447    1.1305   -0.9165 H   0  0  0  0  0  0  0  0  0  0  0  0
    5.7847   -1.5188    2.0932 H   0  0  0  0  0  0  0  0  0  0  0  0
    8.2367   -1.4276    2.4098 H   0  0  0  0  0  0  0  0  0  0  0  0
    9.6733   -0.3624    0.6983 H   0  0  0  0  0  0  0  0  0  0  0  0
    6.2006    0.5121   -1.6859 H   0  0  0  0  0  0  0  0  0  0  0  0
   -4.0094   -1.6120   -0.7331 H   0  0  0  0  0  0  0  0  0  0  0  0
   -3.2003   -2.5354    0.5332 H   0  0  0  0  0  0  0  0  0  0  0  0
   -3.8315   -0.9016    2.2392 H   0  0  0  0  0  0  0  0  0  0  0  0
   -5.2573   -1.5538    1.4592 H   0  0  0  0  0  0  0  0  0  0  0  0
   -4.5734    1.1303    1.8665 H   0  0  0  0  0  0  0  0  0  0  0  0
   -6.6196    2.1779    2.2261 H   0  0  0  0  0  0  0  0  0  0  0  0
   -9.0370    2.3809    1.7083 H   0  0  0  0  0  0  0  0  0  0  0  0
   -8.8004   -0.4016   -1.3173 H   0  0  0  0  0  0  0  0  0  0  0  0
   -6.3736   -0.7460   -0.9546 H   0  0  0  0  0  0  0  0  0  0  0  0
   -4.3326    0.8029   -1.1566 H   0  0  0  0  0  0  0  0  0  0  0  0
   -4.0543    2.2355   -0.1810 H   0  0  0  0  0  0  0  0  0  0  0  0
   -1.9473    1.1538   -0.9163 H   0  0  0  0  0  0  0  0  0  0  0  0
   -2.0728    1.1753    0.8640 H   0  0  0  0  0  0  0  0  0  0  0  0
  1  2  2  0
  2  3  1  0
  3  4  1  0
  4  5  2  0
  5  6  1  0
  6  7  1  0
  7  8  1  0
  8  9  2  0
  9 10  1  0
 10 11  2  0
 11 12  1  0
 12 13  1  0
 13 14  1  0
 13 15  1  0
 13 16  1  0
 12 17  2  0
  5 18  1  0
 18 19  1  0
  2 20  1  0
 20 21  1  0
 21 22  1  0
 22 23  1  0
 23 24  1  0
 24 25  2  0
 25 26  1  0
 26 27  2  0
 27 28  1  0
 28 29  2  0
 23 30  1  0
 30 31  1  0
 19  3  2  0
 31 20  1  0
 17  8  1  0
 29 24  1  0
  4 32  1  0
  6 33  1  0
  6 34  1  0
  9 35  1  0
 10 36  1  0
 11 37  1  0
 17 38  1  0
 21 39  1  0
 21 40  1  0
 22 41  1  0
 22 42  1  0
 23 43  1  0
 25 44  1  0
 26 45  1  0
 28 46  1  0
 29 47  1  0
 30 48  1  0
 30 49  1  0
 31 50  1  0
 31 51  1  0
M  END
$$$$
