
     RDKit          3D

 41 43  0  0  0  0  0  0  0  0999 V2000
   -7.0289   -0.3804    1.2544 C   0  0  0  0  0  0  0  0  0  0  0  0
   -6.7601    0.5936    0.1205 C   0  0  0  0  0  0  0  0  0  0  0  0
   -5.7724    0.0746   -0.7684 O   0  0  0  0  0  0  0  0  0  0  0  0
   -4.4577    0.3585   -0.5335 C   0  0  0  0  0  0  0  0  0  0  0  0
   -3.9346    0.9960    0.5884 C   0  0  0  0  0  0  0  0  0  0  0  0
   -2.5545    1.2192    0.6968 C   0  0  0  0  0  0  0  0  0  0  0  0
   -1.6741    0.8157   -0.3176 C   0  0  0  0  0  0  0  0  0  0  0  0
   -0.2513    1.0378   -0.2056 N   0  0  0  0  0  0  0  0  0  0  0  0
    0.5690   -0.0899   -0.3943 C   0  0  0  0  0  0  0  0  0  0  0  0
    0.1402   -1.2237   -0.6219 O   0  0  0  0  0  0  0  0  0  0  0  0
    2.0458    0.1268   -0.2821 C   0  0  0  0  0  0  0  0  0  0  0  0
    2.8147   -0.9209   -0.6426 C   0  0  0  0  0  0  0  0  0  0  0  0
    4.2342   -0.9841   -0.6885 C   0  0  0  0  0  0  0  0  0  0  0  0
    5.1913   -0.0837   -1.1431 C   0  0  0  0  0  0  0  0  0  0  0  0
    6.4658   -0.6832   -1.0022 C   0  0  0  0  0  0  0  0  0  0  0  0
    6.2370   -1.9369   -0.4927 C   0  0  0  0  0  0  0  0  0  0  0  0
    7.1150   -3.0624   -0.1199 C   0  0  0  0  0  0  0  0  0  0  0  0
    4.9044   -2.1315   -0.3191 O   0  0  0  0  0  0  0  0  0  0  0  0
    2.5454    1.4142    0.2305 C   0  0  0  0  0  0  0  0  0  0  0  0
    3.6923    1.6459    0.5869 O   0  0  0  0  0  0  0  0  0  0  0  0
    1.6035    2.3967    0.3075 N   0  0  0  0  0  0  0  0  0  0  0  0
    0.2537    2.3106    0.0876 C   0  0  0  0  0  0  0  0  0  0  0  0
   -0.5623    3.7813    0.1549 S   0  0  0  0  0  0  0  0  0  0  0  0
   -2.2077    0.1516   -1.4297 C   0  0  0  0  0  0  0  0  0  0  0  0
   -3.5848   -0.0692   -1.5348 C   0  0  0  0  0  0  0  0  0  0  0  0
   -7.8359   -0.0140    1.8953 H   0  0  0  0  0  0  0  0  0  0  0  0
   -6.1379   -0.5344    1.8701 H   0  0  0  0  0  0  0  0  0  0  0  0
   -7.3127   -1.3608    0.8575 H   0  0  0  0  0  0  0  0  0  0  0  0
   -6.5165    1.5990    0.4811 H   0  0  0  0  0  0  0  0  0  0  0  0
   -7.6790    0.7008   -0.4673 H   0  0  0  0  0  0  0  0  0  0  0  0
   -4.5646    1.3213    1.4091 H   0  0  0  0  0  0  0  0  0  0  0  0
   -2.1834    1.6862    1.6060 H   0  0  0  0  0  0  0  0  0  0  0  0
    2.3410   -1.8586   -0.9307 H   0  0  0  0  0  0  0  0  0  0  0  0
    4.9933    0.9059   -1.5308 H   0  0  0  0  0  0  0  0  0  0  0  0
    7.4267   -0.2535   -1.2471 H   0  0  0  0  0  0  0  0  0  0  0  0
    8.1669   -2.8132   -0.2901 H   0  0  0  0  0  0  0  0  0  0  0  0
    6.9906   -3.3109    0.9385 H   0  0  0  0  0  0  0  0  0  0  0  0
    6.8743   -3.9491   -0.7143 H   0  0  0  0  0  0  0  0  0  0  0  0
    1.9590    3.3016    0.5926 H   0  0  0  0  0  0  0  0  0  0  0  0
   -1.5663   -0.1947   -2.2366 H   0  0  0  0  0  0  0  0  0  0  0  0
   -3.9796   -0.5824   -2.4088 H   0  0  0  0  0  0  0  0  0  0  0  0
  1  2  1  0
  2  3  1  0
  3  4  1  0
  4  5  2  0
  5  6  1  0
  6  7  2  0
  7  8  1  0
  8  9  1  0
  9 10  2  0
  9 11  1  0
 11 12  2  3
 12 13  1  0
 13 14  2  0
 14 15  1  0
 15 16  2  0
 16 17  1  0
 16 18  1  0
 11 19  1  0
 19 20  2  0
 19 21  1  0
 21 22  1  0
 22 23  2  0
  7 24  1  0
 24 25  2  0
 25  4  1  0
 22  8  1  0
 18 13  1  0
  1 26  1  0
  1 27  1  0
  1 28  1  0
  2 29  1  0
  2 30  1  0
  5 31  1  0
  6 32  1  0
 12 33  1  0
 14 34  1  0
 15 35  1  0
 17 36  1  0
 17 37  1  0
 17 38  1  0
 21 39  1  0
 24 40  1  0
 25 41  1  0
M  END
$$$$
