
     RDKit          3D

 57 60  0  0  0  0  0  0  0  0999 V2000
   -3.7812    3.2424    1.9708 C   0  0  0  0  0  0  0  0  0  0  0  0
   -4.0625    2.4223    0.8345 O   0  0  0  0  0  0  0  0  0  0  0  0
   -2.9164    2.1036    0.1618 C   0  0  0  0  0  0  0  0  0  0  0  0
   -2.3292    3.0825   -0.6482 C   0  0  0  0  0  0  0  0  0  0  0  0
   -1.1979    2.7805   -1.4080 C   0  0  0  0  0  0  0  0  0  0  0  0
   -0.6508    1.4956   -1.3616 C   0  0  0  0  0  0  0  0  0  0  0  0
    0.5341    1.1973   -2.1985 C   0  0  0  0  0  0  0  0  0  0  0  0
    0.4852    1.5152   -3.3848 O   0  0  0  0  0  0  0  0  0  0  0  0
    1.6378    0.5835   -1.6192 N   0  0  0  0  0  0  0  0  0  0  0  0
    2.7601    0.2277   -2.4895 C   0  0  0  0  0  0  0  0  0  0  0  0
    3.6999   -0.8238   -1.8736 C   0  0  0  0  0  0  0  0  0  0  0  0
    4.1850   -0.4150   -0.5435 N   0  0  0  0  0  0  0  0  0  0  0  0
    5.4083   -0.8571   -0.0622 C   0  0  0  0  0  0  0  0  0  0  0  0
    6.0097   -2.0338   -0.5407 C   0  0  0  0  0  0  0  0  0  0  0  0
    7.2439   -2.4889   -0.0593 C   0  0  0  0  0  0  0  0  0  0  0  0
    7.9145   -1.7731    0.9239 C   0  0  0  0  0  0  0  0  0  0  0  0
    7.3476   -0.6069    1.4221 C   0  0  0  0  0  0  0  0  0  0  0  0
    6.1130   -0.1605    0.9338 C   0  0  0  0  0  0  0  0  0  0  0  0
    3.3732    0.5615    0.1991 C   0  0  0  0  0  0  0  0  0  0  0  0
    1.8809    0.4621   -0.1745 C   0  0  0  0  0  0  0  0  0  0  0  0
   -1.2612    0.4998   -0.5940 C   0  0  0  0  0  0  0  0  0  0  0  0
   -2.3991    0.8057    0.1686 C   0  0  0  0  0  0  0  0  0  0  0  0
   -3.0855   -0.4810    1.1816 S   0  0  0  0  0  6  0  0  0  0  0  0
   -3.7269    0.0935    2.3449 O   0  0  0  0  0  0  0  0  0  0  0  0
   -2.0448   -1.4764    1.3581 O   0  0  0  0  0  0  0  0  0  0  0  0
   -4.2718   -1.1697    0.1866 N   0  0  0  0  0  0  0  0  0  0  0  0
   -5.4214   -0.3151   -0.2008 C   0  0  0  0  0  0  0  0  0  0  0  0
   -6.5219   -1.3131   -0.5249 C   0  0  0  0  0  0  0  0  0  0  0  0
   -6.3220   -2.3635    0.5477 C   0  0  0  0  0  0  0  0  0  0  0  0
   -4.8062   -2.4825    0.6457 C   0  0  0  0  0  0  0  0  0  0  0  0
   -2.9555    2.8398    2.5691 H   0  0  0  0  0  0  0  0  0  0  0  0
   -4.6776    3.2625    2.5978 H   0  0  0  0  0  0  0  0  0  0  0  0
   -3.5598    4.2688    1.6622 H   0  0  0  0  0  0  0  0  0  0  0  0
   -2.7638    4.0771   -0.7081 H   0  0  0  0  0  0  0  0  0  0  0  0
   -0.7512    3.5405   -2.0460 H   0  0  0  0  0  0  0  0  0  0  0  0
    2.3752   -0.1352   -3.4496 H   0  0  0  0  0  0  0  0  0  0  0  0
    3.3142    1.1544   -2.6876 H   0  0  0  0  0  0  0  0  0  0  0  0
    4.5338   -0.9650   -2.5716 H   0  0  0  0  0  0  0  0  0  0  0  0
    3.1676   -1.7779   -1.7766 H   0  0  0  0  0  0  0  0  0  0  0  0
    5.5118   -2.6421   -1.2910 H   0  0  0  0  0  0  0  0  0  0  0  0
    7.6733   -3.4060   -0.4542 H   0  0  0  0  0  0  0  0  0  0  0  0
    8.8723   -2.1218    1.2994 H   0  0  0  0  0  0  0  0  0  0  0  0
    7.8637   -0.0352    2.1885 H   0  0  0  0  0  0  0  0  0  0  0  0
    5.7244    0.7688    1.3397 H   0  0  0  0  0  0  0  0  0  0  0  0
    3.4506    0.3949    1.2802 H   0  0  0  0  0  0  0  0  0  0  0  0
    3.7390    1.5718   -0.0206 H   0  0  0  0  0  0  0  0  0  0  0  0
    1.4959   -0.5191    0.1266 H   0  0  0  0  0  0  0  0  0  0  0  0
    1.3227    1.2310    0.3680 H   0  0  0  0  0  0  0  0  0  0  0  0
   -0.8632   -0.5131   -0.6063 H   0  0  0  0  0  0  0  0  0  0  0  0
   -5.7381    0.3241    0.6294 H   0  0  0  0  0  0  0  0  0  0  0  0
   -5.1782    0.2998   -1.0706 H   0  0  0  0  0  0  0  0  0  0  0  0
   -6.3635   -1.7497   -1.5181 H   0  0  0  0  0  0  0  0  0  0  0  0
   -7.5180   -0.8621   -0.4983 H   0  0  0  0  0  0  0  0  0  0  0  0
   -6.8024   -3.3160    0.3062 H   0  0  0  0  0  0  0  0  0  0  0  0
   -6.7320   -2.0080    1.5010 H   0  0  0  0  0  0  0  0  0  0  0  0
   -4.5049   -2.7368    1.6662 H   0  0  0  0  0  0  0  0  0  0  0  0
   -4.4307   -3.2579   -0.0310 H   0  0  0  0  0  0  0  0  0  0  0  0
  1  2  1  0
  2  3  1  0
  3  4  2  0
  4  5  1  0
  5  6  2  0
  6  7  1  0
  7  8  2  0
  7  9  1  0
  9 10  1  0
 10 11  1  0
 11 12  1  0
 12 13  1  0
 13 14  2  0
 14 15  1  0
 15 16  2  0
 16 17  1  0
 17 18  2  0
 12 19  1  0
 19 20  1  0
  6 21  1  0
 21 22  2  0
 22 23  1  0
 23 24  2  0
 23 25  2  0
 23 26  1  0
 26 27  1  0
 27 28  1  0
 28 29  1  0
 29 30  1  0
 22  3  1  0
 30 26  1  0
 20  9  1  0
 18 13  1  0
  1 31  1  0
  1 32  1  0
  1 33  1  0
  4 34  1  0
  5 35  1  0
 10 36  1  0
 10 37  1  0
 11 38  1  0
 11 39  1  0
 14 40  1  0
 15 41  1  0
 16 42  1  0
 17 43  1  0
 18 44  1  0
 19 45  1  0
 19 46  1  0
 20 47  1  0
 20 48  1  0
 21 49  1  0
 27 50  1  0
 27 51  1  0
 28 52  1  0
 28 53  1  0
 29 54  1  0
 29 55  1  0
 30 56  1  0
 30 57  1  0
M  END
$$$$
