
     RDKit          3D

 46 47  0  0  0  0  0  0  0  0999 V2000
    3.3418   -3.4584   -0.8021 C   0  0  0  0  0  0  0  0  0  0  0  0
    2.3981   -2.9076   -1.8548 C   0  0  0  0  0  0  0  0  0  0  0  0
    2.4457   -1.4742   -1.8625 O   0  0  0  0  0  0  0  0  0  0  0  0
    1.6370   -0.8460   -0.9629 C   0  0  0  0  0  0  0  0  0  0  0  0
    0.8657   -1.4232   -0.2050 O   0  0  0  0  0  0  0  0  0  0  0  0
    1.7572    0.6093   -1.0057 C   0  0  0  0  0  0  0  0  0  0  0  0
    2.1417    1.3851   -2.0969 C   0  0  0  0  0  0  0  0  0  0  0  0
    2.5338    1.0048   -3.4817 C   0  0  0  0  0  0  0  0  0  0  0  0
    2.1143    2.7037   -1.7128 N   0  0  0  0  0  0  0  0  0  0  0  0
    1.7208    2.8127   -0.4031 C   0  0  0  0  0  0  0  0  0  0  0  0
    1.6294    4.1381    0.2651 C   0  0  0  0  0  0  0  0  0  0  0  0
    1.4942    1.5266    0.0653 C   0  0  0  0  0  0  0  0  0  0  0  0
    1.0436    1.0513    1.6805 S   0  0  0  0  0  6  0  0  0  0  0  0
    0.7103    2.2820    2.3623 O   0  0  0  0  0  0  0  0  0  0  0  0
    2.1443    0.2134    2.0988 O   0  0  0  0  0  0  0  0  0  0  0  0
   -0.3391    0.1066    1.6022 N   0  0  0  0  0  0  0  0  0  0  0  0
   -1.5474    0.7723    1.1133 C   0  0  0  0  0  0  0  0  0  0  0  0
   -2.7158   -0.1891    1.0701 C   0  0  0  0  0  0  0  0  0  0  0  0
   -3.0208   -0.8307   -0.1444 C   0  0  0  0  0  0  0  0  0  0  0  0
   -4.0788   -1.7348   -0.2307 C   0  0  0  0  0  0  0  0  0  0  0  0
   -4.8420   -2.0176    0.8967 C   0  0  0  0  0  0  0  0  0  0  0  0
   -4.5430   -1.4035    2.1127 C   0  0  0  0  0  0  0  0  0  0  0  0
   -3.4780   -0.4943    2.2180 C   0  0  0  0  0  0  0  0  0  0  0  0
   -3.1806    0.1334    3.5532 C   0  0  0  0  0  0  0  0  0  0  0  0
    3.0421   -3.1390    0.2011 H   0  0  0  0  0  0  0  0  0  0  0  0
    3.3579   -4.5516   -0.8299 H   0  0  0  0  0  0  0  0  0  0  0  0
    4.3584   -3.0855   -0.9645 H   0  0  0  0  0  0  0  0  0  0  0  0
    2.7185   -3.2428   -2.8467 H   0  0  0  0  0  0  0  0  0  0  0  0
    1.3748   -3.2718   -1.7083 H   0  0  0  0  0  0  0  0  0  0  0  0
    1.8123    0.2998   -3.9067 H   0  0  0  0  0  0  0  0  0  0  0  0
    2.5725    1.8775   -4.1420 H   0  0  0  0  0  0  0  0  0  0  0  0
    3.5233    0.5371   -3.4821 H   0  0  0  0  0  0  0  0  0  0  0  0
    2.3611    3.4853   -2.3085 H   0  0  0  0  0  0  0  0  0  0  0  0
    2.2774    4.1703    1.1465 H   0  0  0  0  0  0  0  0  0  0  0  0
    1.9404    4.9470   -0.4045 H   0  0  0  0  0  0  0  0  0  0  0  0
    0.5994    4.3407    0.5746 H   0  0  0  0  0  0  0  0  0  0  0  0
   -0.1282   -0.7762    1.1168 H   0  0  0  0  0  0  0  0  0  0  0  0
   -1.8009    1.6307    1.7440 H   0  0  0  0  0  0  0  0  0  0  0  0
   -1.3750    1.1627    0.1034 H   0  0  0  0  0  0  0  0  0  0  0  0
   -2.4279   -0.6309   -1.0345 H   0  0  0  0  0  0  0  0  0  0  0  0
   -4.3039   -2.2213   -1.1758 H   0  0  0  0  0  0  0  0  0  0  0  0
   -5.6663   -2.7229    0.8338 H   0  0  0  0  0  0  0  0  0  0  0  0
   -5.1454   -1.6461    2.9857 H   0  0  0  0  0  0  0  0  0  0  0  0
   -3.8212   -0.2775    4.3408 H   0  0  0  0  0  0  0  0  0  0  0  0
   -2.1439   -0.0581    3.8467 H   0  0  0  0  0  0  0  0  0  0  0  0
   -3.3579    1.2126    3.5126 H   0  0  0  0  0  0  0  0  0  0  0  0
  1  2  1  0
  2  3  1  0
  3  4  1  0
  4  5  2  0
  4  6  1  0
  6  7  2  0
  7  8  1  0
  7  9  1  0
  9 10  1  0
 10 11  1  0
 10 12  2  0
 12 13  1  0
 13 14  2  0
 13 15  2  0
 13 16  1  0
 16 17  1  0
 17 18  1  0
 18 19  2  0
 19 20  1  0
 20 21  2  0
 21 22  1  0
 22 23  2  0
 23 24  1  0
 12  6  1  0
 23 18  1  0
  1 25  1  0
  1 26  1  0
  1 27  1  0
  2 28  1  0
  2 29  1  0
  8 30  1  0
  8 31  1  0
  8 32  1  0
  9 33  1  0
 11 34  1  0
 11 35  1  0
 11 36  1  0
 16 37  1  0
 17 38  1  0
 17 39  1  0
 19 40  1  0
 20 41  1  0
 21 42  1  0
 22 43  1  0
 24 44  1  0
 24 45  1  0
 24 46  1  0
M  END
$$$$
