
     RDKit          3D

 53 56  0  0  0  0  0  0  0  0999 V2000
   -4.5616   -2.4513   -2.2221 C   0  0  0  0  0  0  0  0  0  0  0  0
   -4.7967   -1.7182   -0.9064 C   0  0  0  0  0  0  0  0  0  0  0  0
   -3.8568   -2.2032    0.2109 C   0  0  0  0  0  0  0  0  0  0  0  0
   -4.2756   -1.6783    1.6064 C   0  0  0  0  0  0  0  0  0  0  0  0
   -4.0888   -0.1911    1.8175 C   0  0  0  0  0  0  0  0  0  0  0  0
   -5.0899    0.7191    1.4549 C   0  0  0  0  0  0  0  0  0  0  0  0
   -4.8988    2.0902    1.6351 C   0  0  0  0  0  0  0  0  0  0  0  0
   -3.7088    2.5644    2.1841 C   0  0  0  0  0  0  0  0  0  0  0  0
   -2.7103    1.6683    2.5587 C   0  0  0  0  0  0  0  0  0  0  0  0
   -2.9000    0.2977    2.3789 C   0  0  0  0  0  0  0  0  0  0  0  0
   -2.4706   -1.8608   -0.0995 N   0  0  0  0  0  0  0  0  0  0  0  0
   -1.4123   -2.5734    0.4208 C   0  0  0  0  0  0  0  0  0  0  0  0
   -1.5451   -3.6199    1.0450 O   0  0  0  0  0  0  0  0  0  0  0  0
   -0.0502   -2.0185    0.1815 C   0  0  0  0  0  0  0  0  0  0  0  0
    1.0184   -2.9170    0.1155 C   0  0  0  0  0  0  0  0  0  0  0  0
    2.3242   -2.4606   -0.0991 C   0  0  0  0  0  0  0  0  0  0  0  0
    2.5673   -1.0800   -0.2376 C   0  0  0  0  0  0  0  0  0  0  0  0
    3.7981   -0.4912   -0.4518 N   0  0  0  0  0  0  0  0  0  0  0  0
    3.7040    0.8201   -0.5168 C   0  0  0  0  0  0  0  0  0  0  0  0
    4.7817    1.6377   -0.7443 N   0  0  0  0  0  0  0  0  0  0  0  0
    6.1035    0.9754   -0.6886 C   0  0  0  0  0  0  0  0  0  0  0  0
    7.1935    1.8951   -1.2547 C   0  0  0  0  0  0  0  0  0  0  0  0
    7.2138    3.1627   -0.5815 O   0  0  0  0  0  0  0  0  0  0  0  0
    5.9505    3.8207   -0.7477 C   0  0  0  0  0  0  0  0  0  0  0  0
    4.7971    2.9924   -0.1600 C   0  0  0  0  0  0  0  0  0  0  0  0
    2.0815    1.4034   -0.3403 S   0  0  0  0  0  0  0  0  0  0  0  0
    1.4943   -0.1984   -0.1522 C   0  0  0  0  0  0  0  0  0  0  0  0
    0.1746   -0.6382    0.0595 C   0  0  0  0  0  0  0  0  0  0  0  0
   -3.5525   -2.2710   -2.6054 H   0  0  0  0  0  0  0  0  0  0  0  0
   -4.6965   -3.5306   -2.0991 H   0  0  0  0  0  0  0  0  0  0  0  0
   -5.2741   -2.1052   -2.9777 H   0  0  0  0  0  0  0  0  0  0  0  0
   -4.6674   -0.6442   -1.0828 H   0  0  0  0  0  0  0  0  0  0  0  0
   -5.8390   -1.8778   -0.6055 H   0  0  0  0  0  0  0  0  0  0  0  0
   -3.9236   -3.2985    0.2552 H   0  0  0  0  0  0  0  0  0  0  0  0
   -5.3243   -1.9391    1.7999 H   0  0  0  0  0  0  0  0  0  0  0  0
   -3.7008   -2.2098    2.3771 H   0  0  0  0  0  0  0  0  0  0  0  0
   -6.0277    0.3671    1.0313 H   0  0  0  0  0  0  0  0  0  0  0  0
   -5.6817    2.7888    1.3513 H   0  0  0  0  0  0  0  0  0  0  0  0
   -3.5641    3.6318    2.3285 H   0  0  0  0  0  0  0  0  0  0  0  0
   -1.7867    2.0354    2.9987 H   0  0  0  0  0  0  0  0  0  0  0  0
   -2.1160   -0.3923    2.6856 H   0  0  0  0  0  0  0  0  0  0  0  0
   -2.3100   -0.9686   -0.5451 H   0  0  0  0  0  0  0  0  0  0  0  0
    0.8407   -3.9857    0.2284 H   0  0  0  0  0  0  0  0  0  0  0  0
    3.1525   -3.1603   -0.1559 H   0  0  0  0  0  0  0  0  0  0  0  0
    6.1073    0.0457   -1.2702 H   0  0  0  0  0  0  0  0  0  0  0  0
    6.3374    0.7339    0.3562 H   0  0  0  0  0  0  0  0  0  0  0  0
    7.0481    2.0634   -2.3286 H   0  0  0  0  0  0  0  0  0  0  0  0
    8.1764    1.4323   -1.1207 H   0  0  0  0  0  0  0  0  0  0  0  0
    6.0099    4.7869   -0.2367 H   0  0  0  0  0  0  0  0  0  0  0  0
    5.7881    4.0181   -1.8143 H   0  0  0  0  0  0  0  0  0  0  0  0
    3.8674    3.5352   -0.3598 H   0  0  0  0  0  0  0  0  0  0  0  0
    4.9248    2.9096    0.9267 H   0  0  0  0  0  0  0  0  0  0  0  0
   -0.6253    0.0879    0.1519 H   0  0  0  0  0  0  0  0  0  0  0  0
  1  2  1  0
  2  3  1  0
  3  4  1  0
  4  5  1  0
  5  6  2  0
  6  7  1  0
  7  8  2  0
  8  9  1  0
  9 10  2  0
  3 11  1  0
 11 12  1  0
 12 13  2  0
 12 14  1  0
 14 15  2  0
 15 16  1  0
 16 17  2  0
 17 18  1  0
 18 19  2  0
 19 20  1  0
 20 21  1  0
 21 22  1  0
 22 23  1  0
 23 24  1  0
 24 25  1  0
 19 26  1  0
 26 27  1  0
 27 28  2  0
 10  5  1  0
 28 14  1  0
 27 17  1  0
 25 20  1  0
  1 29  1  0
  1 30  1  0
  1 31  1  0
  2 32  1  0
  2 33  1  0
  3 34  1  0
  4 35  1  0
  4 36  1  0
  6 37  1  0
  7 38  1  0
  8 39  1  0
  9 40  1  0
 10 41  1  0
 11 42  1  0
 15 43  1  0
 16 44  1  0
 21 45  1  0
 21 46  1  0
 22 47  1  0
 22 48  1  0
 24 49  1  0
 24 50  1  0
 25 51  1  0
 25 52  1  0
 28 53  1  0
M  END
$$$$
