
     RDKit          3D

 41 42  0  0  0  0  0  0  0  0999 V2000
    4.3097   -2.6914    0.5293 C   0  0  0  0  0  0  0  0  0  0  0  0
    3.2583   -1.7543    0.3209 O   0  0  0  0  0  0  0  0  0  0  0  0
    3.6180   -0.4579    0.0279 C   0  0  0  0  0  0  0  0  0  0  0  0
    4.9336    0.0102   -0.0349 C   0  0  0  0  0  0  0  0  0  0  0  0
    5.1724    1.3583   -0.3406 C   0  0  0  0  0  0  0  0  0  0  0  0
    6.5541    1.8524   -0.4060 N   0  0  0  0  0  4  0  0  0  0  0  0
    6.7282    3.0533   -0.6553 O   0  0  0  0  0  0  0  0  0  0  0  0
    7.4659    1.0369   -0.2053 O   0  0  0  0  0  1  0  0  0  0  0  0
    4.1117    2.2379   -0.5797 C   0  0  0  0  0  0  0  0  0  0  0  0
    2.7979    1.7669   -0.5151 C   0  0  0  0  0  0  0  0  0  0  0  0
    2.5415    0.4252   -0.2180 C   0  0  0  0  0  0  0  0  0  0  0  0
    1.2410   -0.1159   -0.1306 N   0  0  0  0  0  0  0  0  0  0  0  0
    0.0405    0.4823   -0.4652 C   0  0  0  0  0  0  0  0  0  0  0  0
   -0.0919    1.5934   -0.9646 O   0  0  0  0  0  0  0  0  0  0  0  0
   -1.0250   -0.3695   -0.1545 N   0  0  0  0  0  0  0  0  0  0  0  0
   -2.3497    0.0593   -0.3911 N   0  0  0  0  0  0  0  0  0  0  0  0
   -2.9231    0.8127    0.7402 C   0  0  0  0  0  0  0  0  0  0  0  0
   -3.9173    0.0016    1.5977 C   0  0  0  0  0  0  0  0  0  0  0  0
   -5.0254   -0.6227    0.8468 N   0  0  0  0  0  0  0  0  0  0  0  0
   -6.2777    0.1108    1.0142 C   0  0  0  0  0  0  0  0  0  0  0  0
   -4.7001   -0.7649   -0.5882 C   0  0  0  0  0  0  0  0  0  0  0  0
   -3.2063   -1.0591   -0.8227 C   0  0  0  0  0  0  0  0  0  0  0  0
    3.8529   -3.6660    0.7265 H   0  0  0  0  0  0  0  0  0  0  0  0
    4.9332   -2.7908   -0.3653 H   0  0  0  0  0  0  0  0  0  0  0  0
    4.9092   -2.4215    1.4048 H   0  0  0  0  0  0  0  0  0  0  0  0
    5.7739   -0.6512    0.1505 H   0  0  0  0  0  0  0  0  0  0  0  0
    4.2831    3.2865   -0.8160 H   0  0  0  0  0  0  0  0  0  0  0  0
    1.9925    2.4728   -0.6986 H   0  0  0  0  0  0  0  0  0  0  0  0
    1.2194   -1.1104    0.0558 H   0  0  0  0  0  0  0  0  0  0  0  0
   -0.8720   -1.0290    0.5994 H   0  0  0  0  0  0  0  0  0  0  0  0
   -3.4502    1.6816    0.3256 H   0  0  0  0  0  0  0  0  0  0  0  0
   -2.1360    1.2231    1.3854 H   0  0  0  0  0  0  0  0  0  0  0  0
   -4.2920    0.6304    2.4152 H   0  0  0  0  0  0  0  0  0  0  0  0
   -3.3616   -0.8100    2.0856 H   0  0  0  0  0  0  0  0  0  0  0  0
   -7.0892   -0.3830    0.4680 H   0  0  0  0  0  0  0  0  0  0  0  0
   -6.2013    1.1454    0.6609 H   0  0  0  0  0  0  0  0  0  0  0  0
   -6.5744    0.1272    2.0687 H   0  0  0  0  0  0  0  0  0  0  0  0
   -4.9680    0.1427   -1.1470 H   0  0  0  0  0  0  0  0  0  0  0  0
   -5.2970   -1.5855   -1.0033 H   0  0  0  0  0  0  0  0  0  0  0  0
   -2.9437   -1.9830   -0.2887 H   0  0  0  0  0  0  0  0  0  0  0  0
   -3.0351   -1.2449   -1.8893 H   0  0  0  0  0  0  0  0  0  0  0  0
  1  2  1  0
  2  3  1  0
  3  4  2  0
  4  5  1  0
  5  6  1  0
  6  7  2  0
  6  8  1  0
  5  9  2  0
  9 10  1  0
 10 11  2  0
 11 12  1  0
 12 13  1  0
 13 14  2  0
 13 15  1  0
 15 16  1  0
 16 17  1  0
 17 18  1  0
 18 19  1  0
 19 20  1  0
 19 21  1  0
 21 22  1  0
 11  3  1  0
 22 16  1  0
  1 23  1  0
  1 24  1  0
  1 25  1  0
  4 26  1  0
  9 27  1  0
 10 28  1  0
 12 29  1  0
 15 30  1  0
 17 31  1  0
 17 32  1  0
 18 33  1  0
 18 34  1  0
 20 35  1  0
 20 36  1  0
 20 37  1  0
 21 38  1  0
 21 39  1  0
 22 40  1  0
 22 41  1  0
M  CHG  2   6   1   8  -1
M  END
$$$$
