
     RDKit          3D

 49 52  0  0  0  0  0  0  0  0999 V2000
   -3.7779   -4.9625   -2.3775 C   0  0  0  0  0  0  0  0  0  0  0  0
   -2.9646   -3.8898   -2.8353 O   0  0  0  0  0  0  0  0  0  0  0  0
   -2.5434   -2.9918   -1.8935 C   0  0  0  0  0  0  0  0  0  0  0  0
   -1.7252   -1.9725   -2.3820 C   0  0  0  0  0  0  0  0  0  0  0  0
   -1.2279   -0.9832   -1.5287 C   0  0  0  0  0  0  0  0  0  0  0  0
   -1.5367   -0.9977   -0.1605 C   0  0  0  0  0  0  0  0  0  0  0  0
   -1.0257    0.0888    0.7901 C   0  0  0  0  0  0  0  0  0  0  0  0
    0.4408    0.2351    0.6600 N   0  0  0  0  0  0  0  0  0  0  0  0
    0.8831    1.2786    0.0482 C   0  0  0  0  0  0  0  0  0  0  0  0
    2.1965    1.5574   -0.2401 N   0  0  0  0  0  0  0  0  0  0  0  0
    3.3531    0.8229    0.0979 C   0  0  0  0  0  0  0  0  0  0  0  0
    4.5677    1.1666   -0.5205 C   0  0  0  0  0  0  0  0  0  0  0  0
    5.7598    0.5010   -0.2121 C   0  0  0  0  0  0  0  0  0  0  0  0
    5.7696   -0.5294    0.7295 C   0  0  0  0  0  0  0  0  0  0  0  0
    7.0468   -1.2268    1.0896 C   0  0  0  0  0  0  0  0  0  0  0  0
    4.5759   -0.8568    1.3761 C   0  0  0  0  0  0  0  0  0  0  0  0
    3.3859   -0.1866    1.0636 C   0  0  0  0  0  0  0  0  0  0  0  0
    0.0421    2.2572   -0.3863 N   0  0  0  0  0  0  0  0  0  0  0  0
   -1.2651    2.3711   -0.0401 C   0  0  0  0  0  0  0  0  0  0  0  0
   -1.9187    3.4597   -0.3165 N   0  0  0  0  0  0  0  0  0  0  0  0
   -3.2213    3.5435    0.1051 C   0  0  0  0  0  0  0  0  0  0  0  0
   -3.9422    4.8038   -0.2786 C   0  0  0  0  0  0  0  0  0  0  0  0
   -3.8274    2.5908    0.8228 C   0  0  0  0  0  0  0  0  0  0  0  0
   -3.0728    1.3736    1.1613 C   0  0  0  0  0  0  0  0  0  0  0  0
   -3.6031    0.5193    1.8661 O   0  0  0  0  0  0  0  0  0  0  0  0
   -1.7997    1.3129    0.6460 N   0  0  0  0  0  0  0  0  0  0  0  0
   -2.3619   -2.0266    0.3209 C   0  0  0  0  0  0  0  0  0  0  0  0
   -2.8605   -3.0150   -0.5365 C   0  0  0  0  0  0  0  0  0  0  0  0
   -4.0220   -5.5891   -3.2410 H   0  0  0  0  0  0  0  0  0  0  0  0
   -4.7198   -4.5934   -1.9582 H   0  0  0  0  0  0  0  0  0  0  0  0
   -3.2394   -5.5855   -1.6555 H   0  0  0  0  0  0  0  0  0  0  0  0
   -1.4698   -1.9485   -3.4383 H   0  0  0  0  0  0  0  0  0  0  0  0
   -0.5913   -0.2073   -1.9435 H   0  0  0  0  0  0  0  0  0  0  0  0
   -1.1898   -0.2630    1.8173 H   0  0  0  0  0  0  0  0  0  0  0  0
    2.3551    2.1851   -1.0149 H   0  0  0  0  0  0  0  0  0  0  0  0
    4.6049    1.9634   -1.2591 H   0  0  0  0  0  0  0  0  0  0  0  0
    6.6789    0.7956   -0.7133 H   0  0  0  0  0  0  0  0  0  0  0  0
    7.5214   -0.7246    1.9382 H   0  0  0  0  0  0  0  0  0  0  0  0
    7.7439   -1.2275    0.2453 H   0  0  0  0  0  0  0  0  0  0  0  0
    6.8583   -2.2721    1.3552 H   0  0  0  0  0  0  0  0  0  0  0  0
    4.5560   -1.6370    2.1344 H   0  0  0  0  0  0  0  0  0  0  0  0
    2.4903   -0.4747    1.6057 H   0  0  0  0  0  0  0  0  0  0  0  0
    0.4338    3.1204   -0.7288 H   0  0  0  0  0  0  0  0  0  0  0  0
   -4.9720    4.8213    0.0937 H   0  0  0  0  0  0  0  0  0  0  0  0
   -3.4236    5.6772    0.1306 H   0  0  0  0  0  0  0  0  0  0  0  0
   -3.9787    4.9022   -1.3687 H   0  0  0  0  0  0  0  0  0  0  0  0
   -4.8493    2.6537    1.1700 H   0  0  0  0  0  0  0  0  0  0  0  0
   -2.6364   -2.0581    1.3744 H   0  0  0  0  0  0  0  0  0  0  0  0
   -3.4976   -3.7815   -0.1090 H   0  0  0  0  0  0  0  0  0  0  0  0
  1  2  1  0
  2  3  1  0
  3  4  2  0
  4  5  1  0
  5  6  2  0
  6  7  1  0
  7  8  1  0
  8  9  2  0
  9 10  1  0
 10 11  1  0
 11 12  2  0
 12 13  1  0
 13 14  2  0
 14 15  1  0
 14 16  1  0
 16 17  2  0
  9 18  1  0
 18 19  1  0
 19 20  2  0
 20 21  1  0
 21 22  1  0
 21 23  2  0
 23 24  1  0
 24 25  2  0
 24 26  1  0
  6 27  1  0
 27 28  2  0
 28  3  1  0
 26  7  1  0
 17 11  1  0
 26 19  1  0
  1 29  1  0
  1 30  1  0
  1 31  1  0
  4 32  1  0
  5 33  1  0
  7 34  1  0
 10 35  1  0
 12 36  1  0
 13 37  1  0
 15 38  1  0
 15 39  1  0
 15 40  1  0
 16 41  1  0
 17 42  1  0
 18 43  1  0
 22 44  1  0
 22 45  1  0
 22 46  1  0
 23 47  1  0
 27 48  1  0
 28 49  1  0
M  END
$$$$
