
     RDKit          3D

 41 43  0  0  0  0  0  0  0  0999 V2000
   -1.8366    2.5554    1.5932 O   0  0  0  0  0  0  0  0  0  0  0  0
   -2.6477    1.7735    1.0931 C   0  0  0  0  0  0  0  0  0  0  0  0
   -4.0823    1.7076    1.5956 C   0  0  0  0  0  0  0  0  0  0  0  0
   -5.0013    0.7626    0.8579 C   0  0  0  0  0  0  0  0  0  0  0  0
   -5.1840   -0.5512    1.3131 C   0  0  0  0  0  0  0  0  0  0  0  0
   -5.9928   -1.4378    0.6019 C   0  0  0  0  0  0  0  0  0  0  0  0
   -6.6235   -1.0208   -0.5685 C   0  0  0  0  0  0  0  0  0  0  0  0
   -6.4471    0.2826   -1.0297 C   0  0  0  0  0  0  0  0  0  0  0  0
   -5.6391    1.1719   -0.3215 C   0  0  0  0  0  0  0  0  0  0  0  0
   -2.3110    0.9191    0.0592 N   0  0  0  0  0  0  0  0  0  0  0  0
   -0.9419    0.7886   -0.2286 N   0  0  0  0  0  0  0  0  0  0  0  0
   -0.1839   -0.0888    0.5266 C   0  0  0  0  0  0  0  0  0  0  0  0
   -0.6024   -0.8648    1.3766 O   0  0  0  0  0  0  0  0  0  0  0  0
    1.2415    0.0242    0.1110 C   0  0  0  0  0  0  0  0  0  0  0  0
    2.2000   -0.7073    0.6965 C   0  0  0  0  0  0  0  0  0  0  0  0
    3.6292   -0.6910    0.3687 C   0  0  0  0  0  0  0  0  0  0  0  0
    4.4038    0.4639    0.5311 C   0  0  0  0  0  0  0  0  0  0  0  0
    5.7689    0.4467    0.2307 C   0  0  0  0  0  0  0  0  0  0  0  0
    6.3751   -0.7300   -0.2254 C   0  0  0  0  0  0  0  0  0  0  0  0
    7.8254   -0.7016   -0.5331 C   0  0  0  0  0  0  0  0  0  0  0  0
    8.5437    0.2794   -0.4908 O   0  0  0  0  0  0  0  0  0  0  0  0
    8.3114   -1.9083   -0.8711 O   0  0  0  0  0  0  0  0  0  0  0  0
    5.6053   -1.8893   -0.3794 C   0  0  0  0  0  0  0  0  0  0  0  0
    4.2393   -1.8688   -0.0802 C   0  0  0  0  0  0  0  0  0  0  0  0
    1.4038    1.1558   -1.1822 S   0  0  0  0  0  0  0  0  0  0  0  0
   -0.3161    1.5417   -1.1997 C   0  0  0  0  0  0  0  0  0  0  0  0
   -1.0051    2.6210   -2.2688 S   0  0  0  0  0  0  0  0  0  0  0  0
   -4.0458    1.4255    2.6552 H   0  0  0  0  0  0  0  0  0  0  0  0
   -4.5001    2.7220    1.5523 H   0  0  0  0  0  0  0  0  0  0  0  0
   -4.6976   -0.8952    2.2249 H   0  0  0  0  0  0  0  0  0  0  0  0
   -6.1340   -2.4526    0.9646 H   0  0  0  0  0  0  0  0  0  0  0  0
   -7.2592   -1.7088   -1.1213 H   0  0  0  0  0  0  0  0  0  0  0  0
   -6.9426    0.6072   -1.9419 H   0  0  0  0  0  0  0  0  0  0  0  0
   -5.5076    2.1858   -0.6969 H   0  0  0  0  0  0  0  0  0  0  0  0
   -2.8647    0.0803   -0.0927 H   0  0  0  0  0  0  0  0  0  0  0  0
    1.9303   -1.4078    1.4865 H   0  0  0  0  0  0  0  0  0  0  0  0
    3.9562    1.3869    0.8935 H   0  0  0  0  0  0  0  0  0  0  0  0
    6.3563    1.3543    0.3537 H   0  0  0  0  0  0  0  0  0  0  0  0
    9.2622   -1.7379   -1.0396 H   0  0  0  0  0  0  0  0  0  0  0  0
    6.0572   -2.8136   -0.7327 H   0  0  0  0  0  0  0  0  0  0  0  0
    3.6567   -2.7802   -0.2076 H   0  0  0  0  0  0  0  0  0  0  0  0
  1  2  2  0
  2  3  1  0
  3  4  1  0
  4  5  2  0
  5  6  1  0
  6  7  2  0
  7  8  1  0
  8  9  2  0
  2 10  1  0
 10 11  1  0
 11 12  1  0
 12 13  2  0
 12 14  1  0
 14 15  2  3
 15 16  1  0
 16 17  2  0
 17 18  1  0
 18 19  2  0
 19 20  1  0
 20 21  2  0
 20 22  1  0
 19 23  1  0
 23 24  2  0
 14 25  1  0
 25 26  1  0
 26 27  2  0
  9  4  1  0
 26 11  1  0
 24 16  1  0
  3 28  1  0
  3 29  1  0
  5 30  1  0
  6 31  1  0
  7 32  1  0
  8 33  1  0
  9 34  1  0
 10 35  1  0
 15 36  1  0
 17 37  1  0
 18 38  1  0
 22 39  1  0
 23 40  1  0
 24 41  1  0
M  END
$$$$
