
     RDKit          3D

 40 43  0  0  0  0  0  0  0  0999 V2000
    0.6117    2.7146    1.7612 C   0  0  0  0  0  0  0  0  0  0  0  0
    0.5671    1.4494    2.2000 C   0  0  0  0  0  0  0  0  0  0  0  0
   -0.6828    0.7549    2.6687 C   0  0  0  0  0  0  0  0  0  0  0  0
   -1.2545   -0.0426    1.5858 N   0  0  0  0  0  0  0  0  0  0  0  0
   -0.8979   -1.3540    1.3136 C   0  0  0  0  0  0  0  0  0  0  0  0
    0.3902   -2.0965    2.2479 S   0  0  0  0  0  0  0  0  0  0  0  0
    1.4777   -2.5945    0.8736 C   0  0  0  0  0  0  0  0  0  0  0  0
    2.1346   -1.3839    0.2414 C   0  0  0  0  0  0  0  0  0  0  0  0
    3.4112   -1.0670    0.5173 C   0  0  0  0  0  0  0  0  0  0  0  0
    4.0113    0.1404   -0.0920 C   0  0  0  0  0  0  0  0  0  0  0  0
    5.1736    0.4402    0.1644 O   0  0  0  0  0  0  0  0  0  0  0  0
    3.1666    0.8401   -0.9154 N   0  0  0  0  0  0  0  0  0  0  0  0
    3.4936    1.9998   -1.5837 C   0  0  0  0  0  0  0  0  0  0  0  0
    2.4999    2.4910   -2.3334 C   0  0  0  0  0  0  0  0  0  0  0  0
    1.0724    1.4946   -2.2373 S   0  0  0  0  0  0  0  0  0  0  0  0
    1.8842    0.3960   -1.1355 C   0  0  0  0  0  0  0  0  0  0  0  0
    1.3453   -0.6561   -0.6249 N   0  0  0  0  0  0  0  0  0  0  0  0
   -1.4577   -2.0997    0.4174 N   0  0  0  0  0  0  0  0  0  0  0  0
   -2.4487   -1.5373   -0.3890 C   0  0  0  0  0  0  0  0  0  0  0  0
   -3.0330   -2.3213   -1.3869 C   0  0  0  0  0  0  0  0  0  0  0  0
   -4.0185   -1.7911   -2.2241 C   0  0  0  0  0  0  0  0  0  0  0  0
   -4.4277   -0.4674   -2.0689 C   0  0  0  0  0  0  0  0  0  0  0  0
   -3.8514    0.3237   -1.0759 C   0  0  0  0  0  0  0  0  0  0  0  0
   -2.8644   -0.2187   -0.2433 C   0  0  0  0  0  0  0  0  0  0  0  0
   -2.2433    0.5811    0.8256 C   0  0  0  0  0  0  0  0  0  0  0  0
   -2.6360    1.7333    1.0039 O   0  0  0  0  0  0  0  0  0  0  0  0
    1.5476    3.1701    1.4549 H   0  0  0  0  0  0  0  0  0  0  0  0
   -0.2900    3.3176    1.6849 H   0  0  0  0  0  0  0  0  0  0  0  0
    1.4925    0.8853    2.2661 H   0  0  0  0  0  0  0  0  0  0  0  0
   -1.4147    1.4922    3.0204 H   0  0  0  0  0  0  0  0  0  0  0  0
   -0.4559    0.1304    3.5383 H   0  0  0  0  0  0  0  0  0  0  0  0
    2.2358   -3.2677    1.2898 H   0  0  0  0  0  0  0  0  0  0  0  0
    0.9293   -3.1752    0.1241 H   0  0  0  0  0  0  0  0  0  0  0  0
    4.0380   -1.6357    1.1919 H   0  0  0  0  0  0  0  0  0  0  0  0
    4.4830    2.4253   -1.4708 H   0  0  0  0  0  0  0  0  0  0  0  0
    2.5475    3.3888   -2.9345 H   0  0  0  0  0  0  0  0  0  0  0  0
   -2.7120   -3.3522   -1.5127 H   0  0  0  0  0  0  0  0  0  0  0  0
   -4.4631   -2.4122   -2.9978 H   0  0  0  0  0  0  0  0  0  0  0  0
   -5.1931   -0.0523   -2.7200 H   0  0  0  0  0  0  0  0  0  0  0  0
   -4.1684    1.3566   -0.9512 H   0  0  0  0  0  0  0  0  0  0  0  0
  1  2  2  0
  2  3  1  0
  3  4  1  0
  4  5  1  0
  5  6  1  0
  6  7  1  0
  7  8  1  0
  8  9  2  0
  9 10  1  0
 10 11  2  0
 10 12  1  0
 12 13  1  0
 13 14  2  0
 14 15  1  0
 15 16  1  0
 16 17  2  0
  5 18  2  0
 18 19  1  0
 19 20  2  0
 20 21  1  0
 21 22  2  0
 22 23  1  0
 23 24  2  0
 24 25  1  0
 25 26  2  0
 25  4  1  0
 17  8  1  0
 24 19  1  0
 16 12  1  0
  1 27  1  0
  1 28  1  0
  2 29  1  0
  3 30  1  0
  3 31  1  0
  7 32  1  0
  7 33  1  0
  9 34  1  0
 13 35  1  0
 14 36  1  0
 20 37  1  0
 21 38  1  0
 22 39  1  0
 23 40  1  0
M  END
$$$$
