
     RDKit          3D

 51 53  0  0  0  0  0  0  0  0999 V2000
    2.6185   -2.2953    1.5344 O   0  0  0  0  0  0  0  0  0  0  0  0
    2.1002   -1.7784    0.5493 C   0  0  0  0  0  0  0  0  0  0  0  0
    2.8343   -1.2399   -0.4849 N   0  0  0  0  0  0  0  0  0  0  0  0
    4.2799   -1.1129   -0.3937 C   0  0  0  0  0  0  0  0  0  0  0  0
    4.6873    0.1095    0.4444 C   0  0  0  0  0  0  0  0  0  0  0  0
    6.1971    0.2519    0.5765 C   0  0  0  0  0  0  0  0  0  0  0  0
    6.5513    1.1577   -0.5763 C   0  0  0  0  0  0  0  0  0  0  0  0
    5.3572    2.0829   -0.6226 C   0  0  0  0  0  0  0  0  0  0  0  0
    4.2208    1.3031   -0.2279 O   0  0  0  0  0  0  0  0  0  0  0  0
    0.5958   -1.6509    0.3701 C   0  0  0  0  0  0  0  0  0  0  0  0
   -0.1647   -2.5904    1.3138 C   0  0  0  0  0  0  0  0  0  0  0  0
   -1.6728   -2.3899    1.1887 C   0  0  0  0  0  0  0  0  0  0  0  0
   -2.0706   -0.9270    1.3632 C   0  0  0  0  0  0  0  0  0  0  0  0
   -1.2884   -0.0257    0.4784 N   0  0  0  0  0  0  0  0  0  0  0  0
   -1.8337    0.2048   -1.1178 S   0  0  0  0  0  6  0  0  0  0  0  0
   -0.9583    1.1579   -1.7656 O   0  0  0  0  0  0  0  0  0  0  0  0
   -2.0751   -1.0964   -1.7024 O   0  0  0  0  0  0  0  0  0  0  0  0
   -3.3991    1.0114   -0.8816 C   0  0  0  0  0  0  0  0  0  0  0  0
   -3.4185    2.3033   -0.3498 C   0  0  0  0  0  0  0  0  0  0  0  0
   -4.6383    2.9516   -0.1678 C   0  0  0  0  0  0  0  0  0  0  0  0
   -5.8303    2.3115   -0.5183 C   0  0  0  0  0  0  0  0  0  0  0  0
   -5.8190    1.0124   -1.0543 C   0  0  0  0  0  0  0  0  0  0  0  0
   -7.1042    0.3269   -1.4533 C   0  0  0  0  0  0  0  0  0  0  0  0
   -7.3157    0.3628   -2.7969 F   0  0  0  0  0  0  0  0  0  0  0  0
   -7.1258   -0.9893   -1.1028 F   0  0  0  0  0  0  0  0  0  0  0  0
   -8.2106    0.8804   -0.8829 F   0  0  0  0  0  0  0  0  0  0  0  0
   -4.5864    0.3664   -1.2434 C   0  0  0  0  0  0  0  0  0  0  0  0
    0.1817   -0.2058    0.6414 C   0  0  0  0  0  0  0  0  0  0  0  0
    2.3740   -0.6369   -1.1575 H   0  0  0  0  0  0  0  0  0  0  0  0
    4.6412   -1.0198   -1.4233 H   0  0  0  0  0  0  0  0  0  0  0  0
    4.6889   -2.0308    0.0423 H   0  0  0  0  0  0  0  0  0  0  0  0
    4.2138    0.0676    1.4314 H   0  0  0  0  0  0  0  0  0  0  0  0
    6.7355   -0.7000    0.5664 H   0  0  0  0  0  0  0  0  0  0  0  0
    6.4342    0.7596    1.5196 H   0  0  0  0  0  0  0  0  0  0  0  0
    6.6128    0.5756   -1.5031 H   0  0  0  0  0  0  0  0  0  0  0  0
    7.4972    1.6888   -0.4418 H   0  0  0  0  0  0  0  0  0  0  0  0
    5.4643    2.9056    0.0925 H   0  0  0  0  0  0  0  0  0  0  0  0
    5.1880    2.5037   -1.6174 H   0  0  0  0  0  0  0  0  0  0  0  0
    0.3577   -1.9285   -0.6646 H   0  0  0  0  0  0  0  0  0  0  0  0
    0.0896   -3.6339    1.0928 H   0  0  0  0  0  0  0  0  0  0  0  0
    0.1355   -2.4109    2.3545 H   0  0  0  0  0  0  0  0  0  0  0  0
   -2.0050   -2.7599    0.2130 H   0  0  0  0  0  0  0  0  0  0  0  0
   -2.1861   -2.9991    1.9416 H   0  0  0  0  0  0  0  0  0  0  0  0
   -3.1446   -0.8058    1.1944 H   0  0  0  0  0  0  0  0  0  0  0  0
   -1.8929   -0.6149    2.4000 H   0  0  0  0  0  0  0  0  0  0  0  0
   -2.4897    2.8040   -0.0828 H   0  0  0  0  0  0  0  0  0  0  0  0
   -4.6621    3.9587    0.2429 H   0  0  0  0  0  0  0  0  0  0  0  0
   -6.7750    2.8354   -0.3735 H   0  0  0  0  0  0  0  0  0  0  0  0
   -4.5592   -0.6355   -1.6716 H   0  0  0  0  0  0  0  0  0  0  0  0
    0.4484    0.0858    1.6664 H   0  0  0  0  0  0  0  0  0  0  0  0
    0.7209    0.4986   -0.0011 H   0  0  0  0  0  0  0  0  0  0  0  0
  1  2  2  0
  2  3  1  0
  3  4  1  0
  4  5  1  0
  5  6  1  0
  6  7  1  0
  7  8  1  0
  8  9  1  0
  2 10  1  0
 10 11  1  0
 11 12  1  0
 12 13  1  0
 13 14  1  0
 14 15  1  0
 15 16  2  0
 15 17  2  0
 15 18  1  0
 18 19  2  0
 19 20  1  0
 20 21  2  0
 21 22  1  0
 22 23  1  0
 23 24  1  0
 23 25  1  0
 23 26  1  0
 22 27  2  0
 14 28  1  0
  9  5  1  0
 28 10  1  0
 27 18  1  0
  3 29  1  0
  4 30  1  0
  4 31  1  0
  5 32  1  0
  6 33  1  0
  6 34  1  0
  7 35  1  0
  7 36  1  0
  8 37  1  0
  8 38  1  0
 10 39  1  0
 11 40  1  0
 11 41  1  0
 12 42  1  0
 12 43  1  0
 13 44  1  0
 13 45  1  0
 19 46  1  0
 20 47  1  0
 21 48  1  0
 27 49  1  0
 28 50  1  0
 28 51  1  0
M  END
$$$$
