
     RDKit          3D

 56 60  0  0  0  0  0  0  0  0999 V2000
   -0.0373   -0.9189    0.1850 C   0  0  0  0  0  0  0  0  0  0  0  0
   -0.4894    0.1478    0.8591 C   0  0  0  0  0  0  0  0  0  0  0  0
    0.3102    1.2047    1.5157 C   0  0  0  0  0  0  0  0  0  0  0  0
    1.6232    1.3169    1.7805 C   0  0  0  0  0  0  0  0  0  0  0  0
    2.7042    0.3810    1.5235 C   0  0  0  0  0  0  0  0  0  0  0  0
    2.8195   -0.8241    2.0963 C   0  0  0  0  0  0  0  0  0  0  0  0
    1.9328   -1.3830    2.9761 O   0  0  0  0  0  0  0  0  0  0  0  0
    3.8649   -1.6323    1.8289 N   0  0  0  0  0  0  0  0  0  0  0  0
    4.8578   -1.3732    0.9276 C   0  0  0  0  0  0  0  0  0  0  0  0
    5.6717   -2.2726    0.7182 O   0  0  0  0  0  0  0  0  0  0  0  0
    4.8175   -0.1186    0.3126 N   0  0  0  0  0  0  0  0  0  0  0  0
    5.8383    0.2444   -0.6498 C   0  0  0  0  0  0  0  0  0  0  0  0
    5.5526    1.1315   -1.7054 C   0  0  0  0  0  0  0  0  0  0  0  0
    6.5244    1.4842   -2.6504 C   0  0  0  0  0  0  0  0  0  0  0  0
    7.8043    0.9521   -2.5590 C   0  0  0  0  0  0  0  0  0  0  0  0
    8.9990    1.3806   -3.7183 Cl  0  0  0  0  0  0  0  0  0  0  0  0
    8.1182    0.0737   -1.5295 C   0  0  0  0  0  0  0  0  0  0  0  0
    7.1430   -0.2750   -0.5847 C   0  0  0  0  0  0  0  0  0  0  0  0
    3.8540    0.8343    0.6675 C   0  0  0  0  0  0  0  0  0  0  0  0
    3.9043    2.0329    0.3772 O   0  0  0  0  0  0  0  0  0  0  0  0
   -0.6221    2.2446    1.9465 C   0  0  0  0  0  0  0  0  0  0  0  0
   -1.8637    1.8164    1.6494 C   0  0  0  0  0  0  0  0  0  0  0  0
   -3.1261    2.5547    1.9434 C   0  0  0  0  0  0  0  0  0  0  0  0
   -1.8319    0.5488    1.0278 N   0  0  0  0  0  0  0  0  0  0  0  0
   -2.9230   -0.0999    0.5166 C   0  0  0  0  0  0  0  0  0  0  0  0
   -3.6437   -1.4218    1.3555 S   0  0  0  0  0  0  0  0  0  0  0  0
   -4.8250   -1.6349    0.1552 C   0  0  0  0  0  0  0  0  0  0  0  0
   -4.7063   -0.7268   -0.8786 C   0  0  0  0  0  0  0  0  0  0  0  0
   -3.5953    0.1558   -0.6684 C   0  0  0  0  0  0  0  0  0  0  0  0
   -3.1980    1.1910   -1.5786 C   0  0  0  0  0  0  0  0  0  0  0  0
   -2.9076    2.0264   -2.3302 N   0  0  0  0  0  0  0  0  0  0  0  0
   -5.6375   -0.7433   -2.0582 C   0  0  0  0  0  0  0  0  0  0  0  0
   -6.9054   -1.5637   -1.7741 C   0  0  0  0  0  0  0  0  0  0  0  0
   -6.5766   -2.8985   -1.0911 C   0  0  0  0  0  0  0  0  0  0  0  0
   -5.8848   -2.6884    0.2648 C   0  0  0  0  0  0  0  0  0  0  0  0
    1.0116   -1.1325    0.0394 H   0  0  0  0  0  0  0  0  0  0  0  0
   -0.7244   -1.6176   -0.2808 H   0  0  0  0  0  0  0  0  0  0  0  0
    1.9799    2.2433    2.2349 H   0  0  0  0  0  0  0  0  0  0  0  0
    1.1693   -0.7867    3.0807 H   0  0  0  0  0  0  0  0  0  0  0  0
    3.8868   -2.5448    2.2676 H   0  0  0  0  0  0  0  0  0  0  0  0
    4.5575    1.5524   -1.8355 H   0  0  0  0  0  0  0  0  0  0  0  0
    6.2661    2.1665   -3.4564 H   0  0  0  0  0  0  0  0  0  0  0  0
    9.1178   -0.3450   -1.4464 H   0  0  0  0  0  0  0  0  0  0  0  0
    7.4517   -0.9399    0.2188 H   0  0  0  0  0  0  0  0  0  0  0  0
   -0.3567    3.1736    2.4252 H   0  0  0  0  0  0  0  0  0  0  0  0
   -3.7905    1.9502    2.5692 H   0  0  0  0  0  0  0  0  0  0  0  0
   -2.9250    3.4882    2.4799 H   0  0  0  0  0  0  0  0  0  0  0  0
   -3.6522    2.8130    1.0197 H   0  0  0  0  0  0  0  0  0  0  0  0
   -5.1063   -1.1806   -2.9128 H   0  0  0  0  0  0  0  0  0  0  0  0
   -5.9239    0.2779   -2.3350 H   0  0  0  0  0  0  0  0  0  0  0  0
   -7.5777   -0.9863   -1.1257 H   0  0  0  0  0  0  0  0  0  0  0  0
   -7.4416   -1.7436   -2.7126 H   0  0  0  0  0  0  0  0  0  0  0  0
   -5.9240   -3.4864   -1.7489 H   0  0  0  0  0  0  0  0  0  0  0  0
   -7.4931   -3.4810   -0.9456 H   0  0  0  0  0  0  0  0  0  0  0  0
   -5.4632   -3.6394    0.6096 H   0  0  0  0  0  0  0  0  0  0  0  0
   -6.6284   -2.3659    1.0039 H   0  0  0  0  0  0  0  0  0  0  0  0
  1  2  2  0
  2  3  1  0
  3  4  2  3
  4  5  1  0
  5  6  2  0
  6  7  1  0
  6  8  1  0
  8  9  1  0
  9 10  2  0
  9 11  1  0
 11 12  1  0
 12 13  2  0
 13 14  1  0
 14 15  2  0
 15 16  1  0
 15 17  1  0
 17 18  2  0
 11 19  1  0
 19 20  2  0
  3 21  1  0
 21 22  2  0
 22 23  1  0
 22 24  1  0
 24 25  1  0
 25 26  1  0
 26 27  1  0
 27 28  2  0
 28 29  1  0
 29 30  1  0
 30 31  3  0
 28 32  1  0
 32 33  1  0
 33 34  1  0
 34 35  1  0
 24  2  1  0
 29 25  2  0
 19  5  1  0
 35 27  1  0
 18 12  1  0
  1 36  1  0
  1 37  1  0
  4 38  1  0
  7 39  1  0
  8 40  1  0
 13 41  1  0
 14 42  1  0
 17 43  1  0
 18 44  1  0
 21 45  1  0
 23 46  1  0
 23 47  1  0
 23 48  1  0
 32 49  1  0
 32 50  1  0
 33 51  1  0
 33 52  1  0
 34 53  1  0
 34 54  1  0
 35 55  1  0
 35 56  1  0
M  END
$$$$
