
     RDKit          3D

 44 47  0  0  0  0  0  0  0  0999 V2000
    6.2049    2.8540   -1.2296 C   0  0  0  0  0  0  0  0  0  0  0  0
    4.9537    2.2323   -0.9739 O   0  0  0  0  0  0  0  0  0  0  0  0
    5.0187    0.9637   -0.5850 C   0  0  0  0  0  0  0  0  0  0  0  0
    6.0123    0.0399   -0.3429 C   0  0  0  0  0  0  0  0  0  0  0  0
    5.3585   -1.1521    0.0551 C   0  0  0  0  0  0  0  0  0  0  0  0
    4.0028   -0.8878    0.0309 C   0  0  0  0  0  0  0  0  0  0  0  0
    2.8621   -1.7217    0.3416 C   0  0  0  0  0  0  0  0  0  0  0  0
    2.9557   -2.8823    0.7311 O   0  0  0  0  0  0  0  0  0  0  0  0
    1.6492   -1.0936    0.1704 N   0  0  0  0  0  0  0  0  0  0  0  0
    0.4055   -1.7061    0.5723 C   0  0  0  0  0  0  0  0  0  0  0  0
    0.1984   -1.5847    2.1000 C   0  0  0  0  0  0  0  0  0  0  0  0
   -1.2747   -1.7687    2.5010 C   0  0  0  0  0  0  0  0  0  0  0  0
   -2.1736   -0.6904    1.8635 C   0  0  0  0  0  0  0  0  0  0  0  0
   -1.8699   -0.5706    0.4084 C   0  0  0  0  0  0  0  0  0  0  0  0
   -0.7071   -1.0480   -0.1727 C   0  0  0  0  0  0  0  0  0  0  0  0
   -0.8996   -0.8705   -1.5457 C   0  0  0  0  0  0  0  0  0  0  0  0
   -2.0767   -0.3170   -1.8244 N   0  0  0  0  0  0  0  0  0  0  0  0
   -2.6649   -0.0673   -0.6133 N   0  0  0  0  0  0  0  0  0  0  0  0
   -3.9297    0.5892   -0.6018 C   0  0  0  0  0  0  0  0  0  0  0  0
   -4.6747    0.6308   -1.7979 C   0  0  0  0  0  0  0  0  0  0  0  0
   -5.9294    1.2467   -1.8447 C   0  0  0  0  0  0  0  0  0  0  0  0
   -6.4545    1.8433   -0.7033 C   0  0  0  0  0  0  0  0  0  0  0  0
   -5.7160    1.8335    0.4770 C   0  0  0  0  0  0  0  0  0  0  0  0
   -4.4621    1.2174    0.5227 C   0  0  0  0  0  0  0  0  0  0  0  0
   -3.7836    1.3355    1.6684 F   0  0  0  0  0  0  0  0  0  0  0  0
    3.7979    0.4096   -0.3598 O   0  0  0  0  0  0  0  0  0  0  0  0
    6.8219    2.8798   -0.3249 H   0  0  0  0  0  0  0  0  0  0  0  0
    6.0148    3.8855   -1.5406 H   0  0  0  0  0  0  0  0  0  0  0  0
    6.7363    2.3462   -2.0418 H   0  0  0  0  0  0  0  0  0  0  0  0
    7.0762    0.1992   -0.4386 H   0  0  0  0  0  0  0  0  0  0  0  0
    5.8079   -2.0973    0.3287 H   0  0  0  0  0  0  0  0  0  0  0  0
    1.6724   -0.1008   -0.0383 H   0  0  0  0  0  0  0  0  0  0  0  0
    0.4292   -2.7696    0.3023 H   0  0  0  0  0  0  0  0  0  0  0  0
    0.8212   -2.3245    2.6170 H   0  0  0  0  0  0  0  0  0  0  0  0
    0.5362   -0.5995    2.4503 H   0  0  0  0  0  0  0  0  0  0  0  0
   -1.3715   -1.7233    3.5917 H   0  0  0  0  0  0  0  0  0  0  0  0
   -1.6118   -2.7656    2.1890 H   0  0  0  0  0  0  0  0  0  0  0  0
   -3.2204   -0.9605    2.0343 H   0  0  0  0  0  0  0  0  0  0  0  0
   -1.9618    0.2630    2.3595 H   0  0  0  0  0  0  0  0  0  0  0  0
   -0.2407   -1.1427   -2.3610 H   0  0  0  0  0  0  0  0  0  0  0  0
   -4.2942    0.1686   -2.7084 H   0  0  0  0  0  0  0  0  0  0  0  0
   -6.4913    1.2584   -2.7759 H   0  0  0  0  0  0  0  0  0  0  0  0
   -7.4273    2.3268   -0.7367 H   0  0  0  0  0  0  0  0  0  0  0  0
   -6.1002    2.3214    1.3682 H   0  0  0  0  0  0  0  0  0  0  0  0
  1  2  1  0
  2  3  1  0
  3  4  2  0
  4  5  1  0
  5  6  2  0
  6  7  1  0
  7  8  2  0
  7  9  1  0
  9 10  1  0
 10 11  1  0
 11 12  1  0
 12 13  1  0
 13 14  1  0
 14 15  2  0
 15 16  1  0
 16 17  2  0
 17 18  1  0
 18 19  1  0
 19 20  2  0
 20 21  1  0
 21 22  2  0
 22 23  1  0
 23 24  2  0
 24 25  1  0
  6 26  1  0
 26  3  1  0
 15 10  1  0
 24 19  1  0
 18 14  1  0
  1 27  1  0
  1 28  1  0
  1 29  1  0
  4 30  1  0
  5 31  1  0
  9 32  1  0
 10 33  1  0
 11 34  1  0
 11 35  1  0
 12 36  1  0
 12 37  1  0
 13 38  1  0
 13 39  1  0
 16 40  1  0
 20 41  1  0
 21 42  1  0
 22 43  1  0
 23 44  1  0
M  END
$$$$
