
     RDKit          3D

 40 40  0  0  0  0  0  0  0  0999 V2000
   -5.8803    0.1052   -1.3425 C   0  0  0  0  0  0  0  0  0  0  0  0
   -5.2786    0.0265    0.0692 C   0  0  0  0  0  0  0  0  0  0  0  0
   -5.3023    1.4139    0.7289 C   0  0  0  0  0  0  0  0  0  0  0  0
   -6.1384   -0.9313    0.9129 C   0  0  0  0  0  0  0  0  0  0  0  0
   -3.9128   -0.5043    0.0253 N   0  0  0  0  0  0  0  0  0  0  0  0
   -2.8522    0.0713   -0.6393 C   0  0  0  0  0  0  0  0  0  0  0  0
   -2.8701    1.0926   -1.3087 O   0  0  0  0  0  0  0  0  0  0  0  0
   -1.5332   -0.7087   -0.4710 C   0  0  0  0  0  0  0  0  0  0  0  0
   -1.4817   -1.7129    0.2305 O   0  0  0  0  0  0  0  0  0  0  0  0
   -0.4710   -0.1606   -1.1583 N   0  0  0  0  0  0  0  0  0  0  0  0
    0.8226   -0.6222   -0.8547 N   0  0  0  0  0  0  0  0  0  0  0  0
    1.8062    0.3400   -0.6646 C   0  0  0  0  0  0  0  0  0  0  0  0
    1.6221    1.5251   -0.9333 O   0  0  0  0  0  0  0  0  0  0  0  0
    3.1082   -0.2414   -0.1132 C   0  0  0  0  0  0  0  0  0  0  0  0
    4.0595    0.7810    0.1360 O   0  0  0  0  0  0  0  0  0  0  0  0
    5.2736    0.3977    0.6336 C   0  0  0  0  0  0  0  0  0  0  0  0
    6.1636    1.4495    0.8671 C   0  0  0  0  0  0  0  0  0  0  0  0
    7.4399    1.2032    1.3752 C   0  0  0  0  0  0  0  0  0  0  0  0
    7.8349   -0.1027    1.6535 C   0  0  0  0  0  0  0  0  0  0  0  0
    6.9534   -1.1575    1.4228 C   0  0  0  0  0  0  0  0  0  0  0  0
    5.6743   -0.9098    0.9136 C   0  0  0  0  0  0  0  0  0  0  0  0
   -5.3436    0.8186   -1.9763 H   0  0  0  0  0  0  0  0  0  0  0  0
   -5.8401   -0.8697   -1.8420 H   0  0  0  0  0  0  0  0  0  0  0  0
   -6.9285    0.4233   -1.3087 H   0  0  0  0  0  0  0  0  0  0  0  0
   -6.3282    1.7842    0.8355 H   0  0  0  0  0  0  0  0  0  0  0  0
   -4.8499    1.3826    1.7269 H   0  0  0  0  0  0  0  0  0  0  0  0
   -4.7471    2.1536    0.1428 H   0  0  0  0  0  0  0  0  0  0  0  0
   -7.1755   -0.5845    0.9814 H   0  0  0  0  0  0  0  0  0  0  0  0
   -6.1480   -1.9384    0.4797 H   0  0  0  0  0  0  0  0  0  0  0  0
   -5.7455   -1.0204    1.9325 H   0  0  0  0  0  0  0  0  0  0  0  0
   -3.6903   -1.3457    0.5528 H   0  0  0  0  0  0  0  0  0  0  0  0
   -0.5547    0.7961   -1.5155 H   0  0  0  0  0  0  0  0  0  0  0  0
    0.8616   -1.5117   -0.3582 H   0  0  0  0  0  0  0  0  0  0  0  0
    2.8659   -0.7652    0.8195 H   0  0  0  0  0  0  0  0  0  0  0  0
    3.4931   -0.9434   -0.8628 H   0  0  0  0  0  0  0  0  0  0  0  0
    5.8579    2.4706    0.6501 H   0  0  0  0  0  0  0  0  0  0  0  0
    8.1219    2.0305    1.5519 H   0  0  0  0  0  0  0  0  0  0  0  0
    8.8283   -0.2981    2.0490 H   0  0  0  0  0  0  0  0  0  0  0  0
    7.2628   -2.1770    1.6396 H   0  0  0  0  0  0  0  0  0  0  0  0
    5.0222   -1.7599    0.7484 H   0  0  0  0  0  0  0  0  0  0  0  0
  1  2  1  0
  2  3  1  0
  2  4  1  0
  2  5  1  0
  5  6  1  0
  6  7  2  0
  6  8  1  0
  8  9  2  0
  8 10  1  0
 10 11  1  0
 11 12  1  0
 12 13  2  0
 12 14  1  0
 14 15  1  0
 15 16  1  0
 16 17  2  0
 17 18  1  0
 18 19  2  0
 19 20  1  0
 20 21  2  0
 21 16  1  0
  1 22  1  0
  1 23  1  0
  1 24  1  0
  3 25  1  0
  3 26  1  0
  3 27  1  0
  4 28  1  0
  4 29  1  0
  4 30  1  0
  5 31  1  0
 10 32  1  0
 11 33  1  0
 14 34  1  0
 14 35  1  0
 17 36  1  0
 18 37  1  0
 19 38  1  0
 20 39  1  0
 21 40  1  0
M  END
$$$$
