
     RDKit          3D

 36 38  0  0  0  0  0  0  0  0999 V2000
   -5.9960    0.6790   -2.0269 C   0  0  0  0  0  0  0  0  0  0  0  0
   -4.8748    0.3653   -1.0795 C   0  0  0  0  0  0  0  0  0  0  0  0
   -5.0744   -0.5336   -0.0227 C   0  0  0  0  0  0  0  0  0  0  0  0
   -4.0456   -0.8034    0.8810 C   0  0  0  0  0  0  0  0  0  0  0  0
   -2.8121   -0.1665    0.7271 C   0  0  0  0  0  0  0  0  0  0  0  0
   -1.5010   -0.5044    1.8743 S   0  0  0  0  0  6  0  0  0  0  0  0
   -2.0832   -1.0832    3.0641 O   0  0  0  0  0  0  0  0  0  0  0  0
   -0.6439    0.6617    1.9406 O   0  0  0  0  0  0  0  0  0  0  0  0
   -0.6509   -1.7428    1.0463 N   0  0  0  0  0  0  0  0  0  0  0  0
    0.8345   -1.4616    0.9333 N   0  0  0  0  0  0  0  0  0  0  0  0
    1.2685   -0.6908   -0.1295 C   0  0  0  0  0  0  0  0  0  0  0  0
    0.5697   -0.3096   -1.0602 O   0  0  0  0  0  0  0  0  0  0  0  0
    2.7230   -0.4159    0.0254 C   0  0  0  0  0  0  0  0  0  0  0  0
    3.3799    0.2918   -0.9037 C   0  0  0  0  0  0  0  0  0  0  0  0
    4.7699    0.6044   -0.8722 C   0  0  0  0  0  0  0  0  0  0  0  0
    5.5943    1.0093    0.1647 C   0  0  0  0  0  0  0  0  0  0  0  0
    6.9425    1.2305   -0.2438 C   0  0  0  0  0  0  0  0  0  0  0  0
    7.1143    1.0069   -1.5890 C   0  0  0  0  0  0  0  0  0  0  0  0
    5.6590    0.5446   -2.3512 S   0  0  0  0  0  0  0  0  0  0  0  0
    3.3161   -1.1662    1.4623 S   0  0  0  0  0  0  0  0  0  0  0  0
    1.7406   -1.8171    1.9077 C   0  0  0  0  0  0  0  0  0  0  0  0
    1.4762   -2.7292    3.2744 S   0  0  0  0  0  0  0  0  0  0  0  0
   -2.6064    0.7525   -0.3041 C   0  0  0  0  0  0  0  0  0  0  0  0
   -3.6396    1.0160   -1.2044 C   0  0  0  0  0  0  0  0  0  0  0  0
   -5.6088    0.9759   -3.0073 H   0  0  0  0  0  0  0  0  0  0  0  0
   -6.6321   -0.1989   -2.1813 H   0  0  0  0  0  0  0  0  0  0  0  0
   -6.6067    1.4941   -1.6264 H   0  0  0  0  0  0  0  0  0  0  0  0
   -6.0374   -1.0250    0.1046 H   0  0  0  0  0  0  0  0  0  0  0  0
   -4.2181   -1.5006    1.6988 H   0  0  0  0  0  0  0  0  0  0  0  0
   -1.0737   -1.9227    0.1292 H   0  0  0  0  0  0  0  0  0  0  0  0
    2.8274    0.6388   -1.7773 H   0  0  0  0  0  0  0  0  0  0  0  0
    5.2529    1.1528    1.1831 H   0  0  0  0  0  0  0  0  0  0  0  0
    7.7414    1.5442    0.4170 H   0  0  0  0  0  0  0  0  0  0  0  0
    8.0246    1.1011   -2.1652 H   0  0  0  0  0  0  0  0  0  0  0  0
   -1.6535    1.2663   -0.4161 H   0  0  0  0  0  0  0  0  0  0  0  0
   -3.4766    1.7363   -2.0042 H   0  0  0  0  0  0  0  0  0  0  0  0
  1  2  1  0
  2  3  2  0
  3  4  1  0
  4  5  2  0
  5  6  1  0
  6  7  2  0
  6  8  2  0
  6  9  1  0
  9 10  1  0
 10 11  1  0
 11 12  2  0
 11 13  1  0
 13 14  2  3
 14 15  1  0
 15 16  2  0
 16 17  1  0
 17 18  2  0
 18 19  1  0
 13 20  1  0
 20 21  1  0
 21 22  2  0
  5 23  1  0
 23 24  2  0
 24  2  1  0
 21 10  1  0
 19 15  1  0
  1 25  1  0
  1 26  1  0
  1 27  1  0
  3 28  1  0
  4 29  1  0
  9 30  1  0
 14 31  1  0
 16 32  1  0
 17 33  1  0
 18 34  1  0
 23 35  1  0
 24 36  1  0
M  END
$$$$
