
     RDKit          3D

 50 53  0  0  0  0  0  0  0  0999 V2000
    1.0581    0.2380    4.4223 C   0  0  0  0  0  0  0  0  0  0  0  0
    1.9095    0.4780    3.2406 C   0  0  0  0  0  0  0  0  0  0  0  0
    3.2713    0.4674    3.0328 C   0  0  0  0  0  0  0  0  0  0  0  0
    3.4685    0.7773    1.6655 C   0  0  0  0  0  0  0  0  0  0  0  0
    2.2136    0.9539    1.1202 C   0  0  0  0  0  0  0  0  0  0  0  0
    1.7342    1.2921   -0.2462 C   0  0  0  0  0  0  0  0  0  0  0  0
    1.0699    0.1337   -0.8457 N   0  0  0  0  0  0  0  0  0  0  0  0
    1.9210   -0.9108   -1.4161 C   0  0  0  0  0  0  0  0  0  0  0  0
    2.5190   -0.5094   -2.7364 C   0  0  0  0  0  0  0  0  0  0  0  0
    3.8889   -0.2679   -2.8804 C   0  0  0  0  0  0  0  0  0  0  0  0
    4.3979    0.1038   -4.1215 C   0  0  0  0  0  0  0  0  0  0  0  0
    3.5171    0.2218   -5.1830 C   0  0  0  0  0  0  0  0  0  0  0  0
    2.1908   -0.0039   -5.0841 N   0  0  0  0  0  0  0  0  0  0  0  0
    1.7211   -0.3665   -3.8679 C   0  0  0  0  0  0  0  0  0  0  0  0
   -0.3113   -0.0523   -0.8739 C   0  0  0  0  0  0  0  0  0  0  0  0
   -0.8076   -1.0392   -1.4245 O   0  0  0  0  0  0  0  0  0  0  0  0
   -1.1928    1.0283   -0.2197 C   0  0  0  0  0  0  0  0  0  0  0  0
   -2.6006    0.6421   -0.1536 N   0  0  0  0  0  0  0  0  0  0  0  0
   -3.4453    1.0944   -1.1540 C   0  0  0  0  0  0  0  0  0  0  0  0
   -3.0809    1.8340   -2.0703 O   0  0  0  0  0  0  0  0  0  0  0  0
   -4.9100    0.7045   -0.9982 C   0  0  0  0  0  0  0  0  0  0  0  0
   -5.2779   -0.4273   -0.2416 O   0  0  0  0  0  0  0  0  0  0  0  0
   -4.3882   -0.7655    0.7381 C   0  0  0  0  0  0  0  0  0  0  0  0
   -4.8683   -1.6965    1.6653 C   0  0  0  0  0  0  0  0  0  0  0  0
   -4.0496   -2.1528    2.6939 C   0  0  0  0  0  0  0  0  0  0  0  0
   -2.7436   -1.6861    2.7881 C   0  0  0  0  0  0  0  0  0  0  0  0
   -2.2579   -0.7625    1.8558 C   0  0  0  0  0  0  0  0  0  0  0  0
   -3.0742   -0.2836    0.8185 C   0  0  0  0  0  0  0  0  0  0  0  0
    1.2615    0.7759    2.0811 O   0  0  0  0  0  0  0  0  0  0  0  0
    1.6627    0.1449    5.3296 H   0  0  0  0  0  0  0  0  0  0  0  0
    0.4846   -0.6855    4.2970 H   0  0  0  0  0  0  0  0  0  0  0  0
    0.3554    1.0647    4.5646 H   0  0  0  0  0  0  0  0  0  0  0  0
    4.0281    0.2622    3.7774 H   0  0  0  0  0  0  0  0  0  0  0  0
    4.4105    0.8605    1.1414 H   0  0  0  0  0  0  0  0  0  0  0  0
    1.0575    2.1487   -0.1951 H   0  0  0  0  0  0  0  0  0  0  0  0
    2.5706    1.5949   -0.8847 H   0  0  0  0  0  0  0  0  0  0  0  0
    2.7088   -1.1465   -0.6909 H   0  0  0  0  0  0  0  0  0  0  0  0
    1.3638   -1.8445   -1.5557 H   0  0  0  0  0  0  0  0  0  0  0  0
    4.5636   -0.3706   -2.0347 H   0  0  0  0  0  0  0  0  0  0  0  0
    5.4561    0.2942   -4.2600 H   0  0  0  0  0  0  0  0  0  0  0  0
    3.8645    0.5080   -6.1715 H   0  0  0  0  0  0  0  0  0  0  0  0
    0.6480   -0.5451   -3.8276 H   0  0  0  0  0  0  0  0  0  0  0  0
   -1.0932    1.9353   -0.8268 H   0  0  0  0  0  0  0  0  0  0  0  0
   -0.8476    1.2801    0.7843 H   0  0  0  0  0  0  0  0  0  0  0  0
   -5.3044    0.5464   -2.0086 H   0  0  0  0  0  0  0  0  0  0  0  0
   -5.4314    1.5739   -0.5794 H   0  0  0  0  0  0  0  0  0  0  0  0
   -5.8856   -2.0695    1.5771 H   0  0  0  0  0  0  0  0  0  0  0  0
   -4.4269   -2.8775    3.4103 H   0  0  0  0  0  0  0  0  0  0  0  0
   -2.0935   -2.0479    3.5808 H   0  0  0  0  0  0  0  0  0  0  0  0
   -1.2258   -0.4476    1.9676 H   0  0  0  0  0  0  0  0  0  0  0  0
  1  2  1  0
  2  3  2  0
  3  4  1  0
  4  5  2  0
  5  6  1  0
  6  7  1  0
  7  8  1  0
  8  9  1  0
  9 10  2  0
 10 11  1  0
 11 12  2  0
 12 13  1  0
 13 14  2  0
  7 15  1  0
 15 16  2  0
 15 17  1  0
 17 18  1  0
 18 19  1  0
 19 20  2  0
 19 21  1  0
 21 22  1  0
 22 23  1  0
 23 24  2  0
 24 25  1  0
 25 26  2  0
 26 27  1  0
 27 28  2  0
  5 29  1  0
 29  2  1  0
 14  9  1  0
 28 18  1  0
 28 23  1  0
  1 30  1  0
  1 31  1  0
  1 32  1  0
  3 33  1  0
  4 34  1  0
  6 35  1  0
  6 36  1  0
  8 37  1  0
  8 38  1  0
 10 39  1  0
 11 40  1  0
 12 41  1  0
 14 42  1  0
 17 43  1  0
 17 44  1  0
 21 45  1  0
 21 46  1  0
 24 47  1  0
 25 48  1  0
 26 49  1  0
 27 50  1  0
M  END
$$$$
