
     RDKit          3D

 36 38  0  0  0  0  0  0  0  0999 V2000
    4.8659   -0.2392    2.3433 C   0  0  0  0  0  0  0  0  0  0  0  0
    5.0428   -0.1389    0.9084 N   0  0  0  0  0  0  0  0  0  0  0  0
    6.2690   -0.1979    0.2924 C   0  0  0  0  0  0  0  0  0  0  0  0
    6.0736   -0.0900   -1.0637 C   0  0  0  0  0  0  0  0  0  0  0  0
    4.6816    0.0378   -1.2748 C   0  0  0  0  0  0  0  0  0  0  0  0
    4.0479   -0.0034   -0.0435 C   0  0  0  0  0  0  0  0  0  0  0  0
    2.6875    0.0980    0.3575 C   0  0  0  0  0  0  0  0  0  0  0  0
    1.6503   -0.4518   -0.2903 C   0  0  0  0  0  0  0  0  0  0  0  0
    1.6349   -1.4381   -1.7067 S   0  0  0  0  0  0  0  0  0  0  0  0
   -0.1164   -1.6160   -1.6982 C   0  0  0  0  0  0  0  0  0  0  0  0
   -0.9538   -2.5319   -2.8131 S   0  0  0  0  0  0  0  0  0  0  0  0
   -0.6198   -0.9231   -0.6177 N   0  0  0  0  0  0  0  0  0  0  0  0
   -1.9937   -0.8125   -0.3655 N   0  0  0  0  0  0  0  0  0  0  0  0
   -2.6532    0.2719   -0.9101 C   0  0  0  0  0  0  0  0  0  0  0  0
   -2.1630    1.0091   -1.7592 O   0  0  0  0  0  0  0  0  0  0  0  0
   -4.0412    0.5012   -0.4327 C   0  0  0  0  0  0  0  0  0  0  0  0
   -4.4216    0.2441    0.8927 C   0  0  0  0  0  0  0  0  0  0  0  0
   -5.7392    0.4802    1.2937 C   0  0  0  0  0  0  0  0  0  0  0  0
   -6.6612    0.9766    0.3771 C   0  0  0  0  0  0  0  0  0  0  0  0
   -7.9218    1.2012    0.7683 F   0  0  0  0  0  0  0  0  0  0  0  0
   -6.2914    1.2515   -0.9345 C   0  0  0  0  0  0  0  0  0  0  0  0
   -4.9763    1.0193   -1.3408 C   0  0  0  0  0  0  0  0  0  0  0  0
    0.2644   -0.2833    0.2323 C   0  0  0  0  0  0  0  0  0  0  0  0
   -0.0210    0.2875    1.2781 O   0  0  0  0  0  0  0  0  0  0  0  0
    4.1491   -1.0371    2.5535 H   0  0  0  0  0  0  0  0  0  0  0  0
    5.8231   -0.4777    2.8143 H   0  0  0  0  0  0  0  0  0  0  0  0
    4.5026    0.7230    2.7128 H   0  0  0  0  0  0  0  0  0  0  0  0
    7.1811   -0.3093    0.8644 H   0  0  0  0  0  0  0  0  0  0  0  0
    6.8482   -0.0960   -1.8194 H   0  0  0  0  0  0  0  0  0  0  0  0
    4.1970    0.1614   -2.2350 H   0  0  0  0  0  0  0  0  0  0  0  0
    2.4790    0.6666    1.2633 H   0  0  0  0  0  0  0  0  0  0  0  0
   -2.3621   -1.3623    0.3995 H   0  0  0  0  0  0  0  0  0  0  0  0
   -3.7049   -0.1024    1.6320 H   0  0  0  0  0  0  0  0  0  0  0  0
   -6.0515    0.2934    2.3169 H   0  0  0  0  0  0  0  0  0  0  0  0
   -7.0249    1.6480   -1.6299 H   0  0  0  0  0  0  0  0  0  0  0  0
   -4.6811    1.2402   -2.3653 H   0  0  0  0  0  0  0  0  0  0  0  0
  1  2  1  0
  2  3  1  0
  3  4  2  0
  4  5  1  0
  5  6  2  0
  6  7  1  0
  7  8  2  3
  8  9  1  0
  9 10  1  0
 10 11  2  0
 10 12  1  0
 12 13  1  0
 13 14  1  0
 14 15  2  0
 14 16  1  0
 16 17  2  0
 17 18  1  0
 18 19  2  0
 19 20  1  0
 19 21  1  0
 21 22  2  0
 12 23  1  0
 23 24  2  0
  6  2  1  0
 23  8  1  0
 22 16  1  0
  1 25  1  0
  1 26  1  0
  1 27  1  0
  3 28  1  0
  4 29  1  0
  5 30  1  0
  7 31  1  0
 13 32  1  0
 17 33  1  0
 18 34  1  0
 21 35  1  0
 22 36  1  0
M  END
$$$$
