
     RDKit          3D

 62 66  0  0  0  0  0  0  0  0999 V2000
   -4.6816   -5.2205    0.7072 C   0  0  0  0  0  0  0  0  0  0  0  0
   -4.4478   -5.0159   -0.6802 O   0  0  0  0  0  0  0  0  0  0  0  0
   -4.1586   -3.7390   -1.0773 C   0  0  0  0  0  0  0  0  0  0  0  0
   -3.9729   -3.5858   -2.4533 C   0  0  0  0  0  0  0  0  0  0  0  0
   -3.6668   -2.3383   -2.9945 C   0  0  0  0  0  0  0  0  0  0  0  0
   -3.5450   -1.2301   -2.1578 C   0  0  0  0  0  0  0  0  0  0  0  0
   -3.7289   -1.3633   -0.7755 C   0  0  0  0  0  0  0  0  0  0  0  0
   -3.5811   -0.1953    0.1037 C   0  0  0  0  0  0  0  0  0  0  0  0
   -4.9514    0.3435    0.9765 S   0  0  0  0  0  0  0  0  0  0  0  0
   -4.0965    1.6458    1.6963 C   0  0  0  0  0  0  0  0  0  0  0  0
   -4.6087    2.5938    2.6031 C   0  0  0  0  0  0  0  0  0  0  0  0
   -3.7639    3.5929    3.0998 C   0  0  0  0  0  0  0  0  0  0  0  0
   -2.4337    3.6527    2.7085 C   0  0  0  0  0  0  0  0  0  0  0  0
   -1.5125    4.5744    3.1249 O   0  0  0  0  0  0  0  0  0  0  0  0
   -1.9544    5.5560    4.0533 C   0  0  0  0  0  0  0  0  0  0  0  0
   -1.9382    2.7046    1.8053 C   0  0  0  0  0  0  0  0  0  0  0  0
   -2.7672    1.6803    1.2761 C   0  0  0  0  0  0  0  0  0  0  0  0
   -2.4776    0.6095    0.3460 C   0  0  0  0  0  0  0  0  0  0  0  0
   -1.1858    0.3575   -0.2861 C   0  0  0  0  0  0  0  0  0  0  0  0
   -0.6663    1.2713   -1.2067 C   0  0  0  0  0  0  0  0  0  0  0  0
    0.5718    1.0294   -1.8069 C   0  0  0  0  0  0  0  0  0  0  0  0
    1.3069   -0.1189   -1.4975 C   0  0  0  0  0  0  0  0  0  0  0  0
    2.4956   -0.2215   -2.1624 O   0  0  0  0  0  0  0  0  0  0  0  0
    3.3483   -1.3370   -1.8970 C   0  0  0  0  0  0  0  0  0  0  0  0
    4.2412   -1.1159   -0.6591 C   0  0  0  0  0  0  0  0  0  0  0  0
    5.2295   -0.0367   -0.8057 N   0  0  0  0  0  0  0  0  0  0  0  0
    6.2569   -0.3048   -1.8123 C   0  0  0  0  0  0  0  0  0  0  0  0
    7.3953    0.6411   -1.4475 C   0  0  0  0  0  0  0  0  0  0  0  0
    7.0957    1.1079   -0.0287 C   0  0  0  0  0  0  0  0  0  0  0  0
    5.9608    0.2135    0.4370 C   0  0  0  0  0  0  0  0  0  0  0  0
    0.7893   -1.0274   -0.5744 C   0  0  0  0  0  0  0  0  0  0  0  0
   -0.4509   -0.7897    0.0305 C   0  0  0  0  0  0  0  0  0  0  0  0
   -4.0339   -2.6270   -0.2418 C   0  0  0  0  0  0  0  0  0  0  0  0
   -3.7844   -4.9997    1.2946 H   0  0  0  0  0  0  0  0  0  0  0  0
   -4.9227   -6.2774    0.8527 H   0  0  0  0  0  0  0  0  0  0  0  0
   -5.5376   -4.6331    1.0569 H   0  0  0  0  0  0  0  0  0  0  0  0
   -4.0668   -4.4484   -3.1086 H   0  0  0  0  0  0  0  0  0  0  0  0
   -3.5211   -2.2313   -4.0664 H   0  0  0  0  0  0  0  0  0  0  0  0
   -3.3055   -0.2615   -2.5903 H   0  0  0  0  0  0  0  0  0  0  0  0
   -5.6485    2.5508    2.9163 H   0  0  0  0  0  0  0  0  0  0  0  0
   -4.1872    4.3095    3.7962 H   0  0  0  0  0  0  0  0  0  0  0  0
   -1.1038    6.2043    4.2859 H   0  0  0  0  0  0  0  0  0  0  0  0
   -2.2857    5.0932    4.9885 H   0  0  0  0  0  0  0  0  0  0  0  0
   -2.7413    6.1822    3.6202 H   0  0  0  0  0  0  0  0  0  0  0  0
   -0.8929    2.7563    1.5077 H   0  0  0  0  0  0  0  0  0  0  0  0
   -1.2170    2.1723   -1.4654 H   0  0  0  0  0  0  0  0  0  0  0  0
    0.9717    1.7453   -2.5215 H   0  0  0  0  0  0  0  0  0  0  0  0
    2.7766   -2.2683   -1.8113 H   0  0  0  0  0  0  0  0  0  0  0  0
    3.9720   -1.4753   -2.7876 H   0  0  0  0  0  0  0  0  0  0  0  0
    4.7472   -2.0601   -0.4196 H   0  0  0  0  0  0  0  0  0  0  0  0
    3.5973   -0.8701    0.1933 H   0  0  0  0  0  0  0  0  0  0  0  0
    5.8983   -0.1118   -2.8283 H   0  0  0  0  0  0  0  0  0  0  0  0
    6.6139   -1.3410   -1.7617 H   0  0  0  0  0  0  0  0  0  0  0  0
    7.4384    1.4981   -2.1276 H   0  0  0  0  0  0  0  0  0  0  0  0
    8.3591    0.1246   -1.4972 H   0  0  0  0  0  0  0  0  0  0  0  0
    7.9724    1.0352    0.6229 H   0  0  0  0  0  0  0  0  0  0  0  0
    6.7748    2.1571   -0.0464 H   0  0  0  0  0  0  0  0  0  0  0  0
    6.3625   -0.7135    0.8656 H   0  0  0  0  0  0  0  0  0  0  0  0
    5.3410    0.7103    1.1897 H   0  0  0  0  0  0  0  0  0  0  0  0
    1.3188   -1.9304   -0.2941 H   0  0  0  0  0  0  0  0  0  0  0  0
   -0.8364   -1.5076    0.7506 H   0  0  0  0  0  0  0  0  0  0  0  0
   -4.1605   -2.7171    0.8320 H   0  0  0  0  0  0  0  0  0  0  0  0
  1  2  1  0
  2  3  1  0
  3  4  2  0
  4  5  1  0
  5  6  2  0
  6  7  1  0
  7  8  1  0
  8  9  1  0
  9 10  1  0
 10 11  2  0
 11 12  1  0
 12 13  2  0
 13 14  1  0
 14 15  1  0
 13 16  1  0
 16 17  2  0
 17 18  1  0
 18 19  1  0
 19 20  2  0
 20 21  1  0
 21 22  2  0
 22 23  1  0
 23 24  1  0
 24 25  1  0
 25 26  1  0
 26 27  1  0
 27 28  1  0
 28 29  1  0
 29 30  1  0
 22 31  1  0
 31 32  2  0
  7 33  2  0
 33  3  1  0
 18  8  2  0
 32 19  1  0
 17 10  1  0
 30 26  1  0
  1 34  1  0
  1 35  1  0
  1 36  1  0
  4 37  1  0
  5 38  1  0
  6 39  1  0
 11 40  1  0
 12 41  1  0
 15 42  1  0
 15 43  1  0
 15 44  1  0
 16 45  1  0
 20 46  1  0
 21 47  1  0
 24 48  1  0
 24 49  1  0
 25 50  1  0
 25 51  1  0
 27 52  1  0
 27 53  1  0
 28 54  1  0
 28 55  1  0
 29 56  1  0
 29 57  1  0
 30 58  1  0
 30 59  1  0
 31 60  1  0
 32 61  1  0
 33 62  1  0
M  END
$$$$
