
     RDKit          3D

 57 60  0  0  0  0  0  0  0  0999 V2000
    8.4116   -3.8423   -2.6595 C   0  0  0  0  0  0  0  0  0  0  0  0
    8.0091   -3.9044   -1.2969 O   0  0  0  0  0  0  0  0  0  0  0  0
    7.0609   -3.0103   -0.8872 C   0  0  0  0  0  0  0  0  0  0  0  0
    6.6987   -3.1182    0.4564 C   0  0  0  0  0  0  0  0  0  0  0  0
    5.7359   -2.2706    1.0064 C   0  0  0  0  0  0  0  0  0  0  0  0
    5.1157   -1.2983    0.2123 C   0  0  0  0  0  0  0  0  0  0  0  0
    4.0512   -0.4051    0.7975 C   0  0  0  0  0  0  0  0  0  0  0  0
    2.7640   -1.1346    1.0970 C   0  0  0  0  0  0  0  0  0  0  0  0
    2.2482   -1.1989    2.2036 O   0  0  0  0  0  0  0  0  0  0  0  0
    2.2304   -1.6817   -0.0322 O   0  0  0  0  0  0  0  0  0  0  0  0
    1.0650   -2.4786    0.1870 C   0  0  0  0  0  0  0  0  0  0  0  0
   -0.2210   -1.6652    0.3262 C   0  0  0  0  0  0  0  0  0  0  0  0
   -1.2101   -2.0874    0.9228 O   0  0  0  0  0  0  0  0  0  0  0  0
   -0.1835   -0.4650   -0.3668 N   0  0  0  0  0  0  0  0  0  0  0  0
   -1.1136    0.5416   -0.4120 C   0  0  0  0  0  0  0  0  0  0  0  0
   -0.8663    1.5473   -1.0704 O   0  0  0  0  0  0  0  0  0  0  0  0
   -2.2541    0.3297    0.2986 N   0  0  0  0  0  0  0  0  0  0  0  0
   -3.3922    1.2438    0.3977 C   0  0  0  0  0  0  0  0  0  0  0  0
   -4.0588    1.4702   -0.9820 C   0  0  0  0  0  0  0  0  0  0  0  0
   -5.2812    2.3955   -0.8482 C   0  0  0  0  0  0  0  0  0  0  0  0
   -6.3062    1.7498    0.0976 C   0  0  0  0  0  0  0  0  0  0  0  0
   -5.6778    1.5322    1.4838 C   0  0  0  0  0  0  0  0  0  0  0  0
   -5.2306    2.8857    2.0588 C   0  0  0  0  0  0  0  0  0  0  0  0
   -4.1999    3.5379    1.1246 C   0  0  0  0  0  0  0  0  0  0  0  0
   -4.8321    3.7455   -0.2630 C   0  0  0  0  0  0  0  0  0  0  0  0
   -2.9773    2.6129    0.9901 C   0  0  0  0  0  0  0  0  0  0  0  0
   -4.4512    0.6153    1.3434 C   0  0  0  0  0  0  0  0  0  0  0  0
    5.4863   -1.1878   -1.1334 C   0  0  0  0  0  0  0  0  0  0  0  0
    6.4536   -2.0385   -1.6798 C   0  0  0  0  0  0  0  0  0  0  0  0
    7.5670   -4.0211   -3.3313 H   0  0  0  0  0  0  0  0  0  0  0  0
    9.1464   -4.6357   -2.8206 H   0  0  0  0  0  0  0  0  0  0  0  0
    8.8980   -2.8885   -2.8794 H   0  0  0  0  0  0  0  0  0  0  0  0
    7.1697   -3.8725    1.0824 H   0  0  0  0  0  0  0  0  0  0  0  0
    5.4731   -2.3803    2.0572 H   0  0  0  0  0  0  0  0  0  0  0  0
    3.8214    0.4347    0.1314 H   0  0  0  0  0  0  0  0  0  0  0  0
    4.4268    0.0376    1.7272 H   0  0  0  0  0  0  0  0  0  0  0  0
    1.1887   -3.1248    1.0644 H   0  0  0  0  0  0  0  0  0  0  0  0
    0.9478   -3.1287   -0.6872 H   0  0  0  0  0  0  0  0  0  0  0  0
    0.6558   -0.2426   -0.8812 H   0  0  0  0  0  0  0  0  0  0  0  0
   -2.3056   -0.5578    0.7990 H   0  0  0  0  0  0  0  0  0  0  0  0
   -3.3492    1.9135   -1.6897 H   0  0  0  0  0  0  0  0  0  0  0  0
   -4.3642    0.5091   -1.4132 H   0  0  0  0  0  0  0  0  0  0  0  0
   -5.7367    2.5530   -1.8325 H   0  0  0  0  0  0  0  0  0  0  0  0
   -7.1904    2.3923    0.1839 H   0  0  0  0  0  0  0  0  0  0  0  0
   -6.6467    0.7918   -0.3150 H   0  0  0  0  0  0  0  0  0  0  0  0
   -6.4122    1.0708    2.1542 H   0  0  0  0  0  0  0  0  0  0  0  0
   -6.0973    3.5470    2.1801 H   0  0  0  0  0  0  0  0  0  0  0  0
   -4.7954    2.7436    3.0566 H   0  0  0  0  0  0  0  0  0  0  0  0
   -3.8883    4.5047    1.5354 H   0  0  0  0  0  0  0  0  0  0  0  0
   -4.1102    4.2234   -0.9368 H   0  0  0  0  0  0  0  0  0  0  0  0
   -5.6915    4.4235   -0.1851 H   0  0  0  0  0  0  0  0  0  0  0  0
   -2.5030    2.4728    1.9692 H   0  0  0  0  0  0  0  0  0  0  0  0
   -2.2312    3.1038    0.3554 H   0  0  0  0  0  0  0  0  0  0  0  0
   -4.0108    0.4331    2.3332 H   0  0  0  0  0  0  0  0  0  0  0  0
   -4.7642   -0.3657    0.9628 H   0  0  0  0  0  0  0  0  0  0  0  0
    5.0202   -0.4404   -1.7737 H   0  0  0  0  0  0  0  0  0  0  0  0
    6.7072   -1.9169   -2.7272 H   0  0  0  0  0  0  0  0  0  0  0  0
  1  2  1  0
  2  3  1  0
  3  4  2  0
  4  5  1  0
  5  6  2  0
  6  7  1  0
  7  8  1  0
  8  9  2  0
  8 10  1  0
 10 11  1  0
 11 12  1  0
 12 13  2  0
 12 14  1  0
 14 15  1  0
 15 16  2  0
 15 17  1  0
 17 18  1  0
 18 19  1  0
 19 20  1  0
 20 21  1  0
 21 22  1  0
 22 23  1  0
 23 24  1  0
 24 25  1  0
 24 26  1  0
 22 27  1  0
  6 28  1  0
 28 29  2  0
 29  3  1  0
 26 18  1  0
 27 18  1  0
 25 20  1  0
  1 30  1  0
  1 31  1  0
  1 32  1  0
  4 33  1  0
  5 34  1  0
  7 35  1  0
  7 36  1  0
 11 37  1  0
 11 38  1  0
 14 39  1  0
 17 40  1  0
 19 41  1  0
 19 42  1  0
 20 43  1  0
 21 44  1  0
 21 45  1  0
 22 46  1  0
 23 47  1  0
 23 48  1  0
 24 49  1  0
 25 50  1  0
 25 51  1  0
 26 52  1  0
 26 53  1  0
 27 54  1  0
 27 55  1  0
 28 56  1  0
 29 57  1  0
M  END
$$$$
