
     RDKit          3D

 45 47  0  0  0  0  0  0  0  0999 V2000
    5.8932    4.2265   -2.5266 C   0  0  0  0  0  0  0  0  0  0  0  0
    5.0216    3.0434   -2.1812 C   0  0  0  0  0  0  0  0  0  0  0  0
    5.1609    1.9784   -2.7727 O   0  0  0  0  0  0  0  0  0  0  0  0
    4.1249    3.3161   -1.1640 N   0  0  0  0  0  0  0  0  0  0  0  0
    3.1867    2.4342   -0.5880 C   0  0  0  0  0  0  0  0  0  0  0  0
    2.3591    2.9518    0.4191 C   0  0  0  0  0  0  0  0  0  0  0  0
    1.4000    2.1474    1.0420 C   0  0  0  0  0  0  0  0  0  0  0  0
    1.2589    0.8147    0.6502 C   0  0  0  0  0  0  0  0  0  0  0  0
    0.0597   -0.2273    1.4594 S   0  0  0  0  0  6  0  0  0  0  0  0
   -0.2918    0.4311    2.7034 O   0  0  0  0  0  0  0  0  0  0  0  0
    0.5962   -1.5697    1.4770 O   0  0  0  0  0  0  0  0  0  0  0  0
   -1.2511   -0.1150    0.4417 N   0  0  0  0  0  0  0  0  0  0  0  0
   -2.0907    1.0791    0.5187 C   0  0  0  0  0  0  0  0  0  0  0  0
   -3.1306    0.7576   -0.5582 C   0  0  0  0  0  0  0  0  0  0  0  0
   -2.6086   -0.3813   -1.3608 N   0  0  0  0  0  0  0  0  0  0  0  0
   -1.5788   -0.8266   -0.7125 C   0  0  0  0  0  0  0  0  0  0  0  0
   -0.6757   -2.1753   -1.2727 S   0  0  0  0  0  0  0  0  0  0  0  0
   -1.9803   -3.4307   -1.2054 C   0  0  0  0  0  0  0  0  0  0  0  0
   -2.6061   -3.5817    0.1621 C   0  0  0  0  0  0  0  0  0  0  0  0
   -3.9482   -3.2223    0.3695 C   0  0  0  0  0  0  0  0  0  0  0  0
   -4.5252   -3.3430    1.6346 C   0  0  0  0  0  0  0  0  0  0  0  0
   -3.7625   -3.8195    2.6936 C   0  0  0  0  0  0  0  0  0  0  0  0
   -4.3178   -3.9303    3.9076 F   0  0  0  0  0  0  0  0  0  0  0  0
   -2.4338   -4.1803    2.5119 C   0  0  0  0  0  0  0  0  0  0  0  0
   -1.8557   -4.0653    1.2470 C   0  0  0  0  0  0  0  0  0  0  0  0
    2.0938    0.2789   -0.3307 C   0  0  0  0  0  0  0  0  0  0  0  0
    3.0474    1.0927   -0.9533 C   0  0  0  0  0  0  0  0  0  0  0  0
    5.9860    4.2959   -3.6145 H   0  0  0  0  0  0  0  0  0  0  0  0
    6.8816    4.0840   -2.0814 H   0  0  0  0  0  0  0  0  0  0  0  0
    5.4691    5.1669   -2.1640 H   0  0  0  0  0  0  0  0  0  0  0  0
    4.1368    4.2548   -0.7865 H   0  0  0  0  0  0  0  0  0  0  0  0
    2.4522    3.9873    0.7379 H   0  0  0  0  0  0  0  0  0  0  0  0
    0.7791    2.5659    1.8309 H   0  0  0  0  0  0  0  0  0  0  0  0
   -2.5637    1.2050    1.4958 H   0  0  0  0  0  0  0  0  0  0  0  0
   -1.5290    1.9777    0.2479 H   0  0  0  0  0  0  0  0  0  0  0  0
   -3.3104    1.6238   -1.2030 H   0  0  0  0  0  0  0  0  0  0  0  0
   -4.0844    0.4637   -0.1056 H   0  0  0  0  0  0  0  0  0  0  0  0
   -2.7420   -3.1927   -1.9564 H   0  0  0  0  0  0  0  0  0  0  0  0
   -1.5481   -4.3934   -1.5018 H   0  0  0  0  0  0  0  0  0  0  0  0
   -4.5497   -2.8385   -0.4524 H   0  0  0  0  0  0  0  0  0  0  0  0
   -5.5611   -3.0662    1.8012 H   0  0  0  0  0  0  0  0  0  0  0  0
   -1.8526   -4.5415    3.3545 H   0  0  0  0  0  0  0  0  0  0  0  0
   -0.8084   -4.3356    1.1176 H   0  0  0  0  0  0  0  0  0  0  0  0
    2.0240   -0.7685   -0.6162 H   0  0  0  0  0  0  0  0  0  0  0  0
    3.6751    0.6398   -1.7156 H   0  0  0  0  0  0  0  0  0  0  0  0
  1  2  1  0
  2  3  2  0
  2  4  1  0
  4  5  1  0
  5  6  2  0
  6  7  1  0
  7  8  2  0
  8  9  1  0
  9 10  2  0
  9 11  2  0
  9 12  1  0
 12 13  1  0
 13 14  1  0
 14 15  1  0
 15 16  2  0
 16 17  1  0
 17 18  1  0
 18 19  1  0
 19 20  2  0
 20 21  1  0
 21 22  2  0
 22 23  1  0
 22 24  1  0
 24 25  2  0
  8 26  1  0
 26 27  2  0
 27  5  1  0
 16 12  1  0
 25 19  1  0
  1 28  1  0
  1 29  1  0
  1 30  1  0
  4 31  1  0
  6 32  1  0
  7 33  1  0
 13 34  1  0
 13 35  1  0
 14 36  1  0
 14 37  1  0
 18 38  1  0
 18 39  1  0
 20 40  1  0
 21 41  1  0
 24 42  1  0
 25 43  1  0
 26 44  1  0
 27 45  1  0
M  END
$$$$
