
     RDKit          3D

 54 58  0  0  0  0  0  0  0  0999 V2000
    4.2344   -1.9217    2.4081 C   0  0  0  0  0  0  0  0  0  0  0  0
    4.6757   -1.8981    0.9567 C   0  0  0  0  0  0  0  0  0  0  0  0
    3.5718   -2.3631    0.0250 C   0  0  0  0  0  0  0  0  0  0  0  0
    3.5206   -3.5522   -0.2980 O   0  0  0  0  0  0  0  0  0  0  0  0
    2.6401   -1.4297   -0.4383 N   0  0  0  0  0  0  0  0  0  0  0  0
    1.5519   -1.9652   -1.2527 C   0  0  0  0  0  0  0  0  0  0  0  0
    0.8965   -0.9323   -2.1567 C   0  0  0  0  0  0  0  0  0  0  0  0
    0.6030    0.4507   -1.5253 C   0  0  0  0  0  0  0  0  0  0  0  0
    1.8583    0.9009   -0.7468 C   0  0  0  0  0  0  0  0  0  0  0  0
    2.4100   -0.1435    0.2103 C   0  0  0  0  0  0  0  0  0  0  0  0
    0.5142    1.3054   -2.7129 O   0  0  0  0  0  0  0  0  0  0  0  0
   -0.0584    2.5342   -2.5901 C   0  0  0  0  0  0  0  0  0  0  0  0
    0.1232    3.4097   -3.6603 C   0  0  0  0  0  0  0  0  0  0  0  0
   -0.4127    4.6992   -3.6101 C   0  0  0  0  0  0  0  0  0  0  0  0
   -1.1329    5.1084   -2.4878 C   0  0  0  0  0  0  0  0  0  0  0  0
   -1.7837    6.6989   -2.4255 Cl  0  0  0  0  0  0  0  0  0  0  0  0
   -1.3296    4.2373   -1.4201 C   0  0  0  0  0  0  0  0  0  0  0  0
   -0.7972    2.9461   -1.4888 C   0  0  0  0  0  0  0  0  0  0  0  0
   -0.9977    1.9925   -0.3930 C   0  0  0  0  0  0  0  0  0  0  0  0
   -1.3288    2.4055    0.7158 O   0  0  0  0  0  0  0  0  0  0  0  0
   -0.7338    0.5216   -0.7230 C   0  0  0  0  0  0  0  0  0  0  0  0
   -0.8787   -0.3204    0.5335 C   0  0  0  0  0  0  0  0  0  0  0  0
   -2.3319   -0.6449    0.4245 C   0  0  0  0  0  0  0  0  0  0  0  0
   -3.1110   -1.1875    1.5620 C   0  0  0  0  0  0  0  0  0  0  0  0
   -2.4992   -1.5312    2.7734 C   0  0  0  0  0  0  0  0  0  0  0  0
   -3.2671   -2.0441    3.8245 C   0  0  0  0  0  0  0  0  0  0  0  0
   -4.6417   -2.2145    3.6653 C   0  0  0  0  0  0  0  0  0  0  0  0
   -5.5797   -2.8457    4.9613 Cl  0  0  0  0  0  0  0  0  0  0  0  0
   -5.2582   -1.8779    2.4628 C   0  0  0  0  0  0  0  0  0  0  0  0
   -4.4932   -1.3656    1.4112 C   0  0  0  0  0  0  0  0  0  0  0  0
   -2.8382   -0.4471   -0.7506 N   0  0  0  0  0  0  0  0  0  0  0  0
   -1.8145    0.0800   -1.5671 O   0  0  0  0  0  0  0  0  0  0  0  0
    3.8882   -2.9207    2.6933 H   0  0  0  0  0  0  0  0  0  0  0  0
    3.4148   -1.2237    2.5984 H   0  0  0  0  0  0  0  0  0  0  0  0
    5.0687   -1.6503    3.0623 H   0  0  0  0  0  0  0  0  0  0  0  0
    5.0469   -0.9131    0.6608 H   0  0  0  0  0  0  0  0  0  0  0  0
    5.5238   -2.5817    0.8258 H   0  0  0  0  0  0  0  0  0  0  0  0
    1.9385   -2.7724   -1.8877 H   0  0  0  0  0  0  0  0  0  0  0  0
    0.8313   -2.4426   -0.5847 H   0  0  0  0  0  0  0  0  0  0  0  0
    1.5789   -0.7783   -3.0068 H   0  0  0  0  0  0  0  0  0  0  0  0
   -0.0076   -1.3568   -2.6095 H   0  0  0  0  0  0  0  0  0  0  0  0
    1.6726    1.8319   -0.1991 H   0  0  0  0  0  0  0  0  0  0  0  0
    2.6469    1.1519   -1.4711 H   0  0  0  0  0  0  0  0  0  0  0  0
    1.7339   -0.3132    1.0528 H   0  0  0  0  0  0  0  0  0  0  0  0
    3.3368    0.2467    0.6356 H   0  0  0  0  0  0  0  0  0  0  0  0
    0.6873    3.0913   -4.5341 H   0  0  0  0  0  0  0  0  0  0  0  0
   -0.2642    5.3773   -4.4471 H   0  0  0  0  0  0  0  0  0  0  0  0
   -1.8992    4.5516   -0.5488 H   0  0  0  0  0  0  0  0  0  0  0  0
   -0.3478   -1.2674    0.5042 H   0  0  0  0  0  0  0  0  0  0  0  0
   -0.6283    0.2026    1.4590 H   0  0  0  0  0  0  0  0  0  0  0  0
   -1.4306   -1.4152    2.9260 H   0  0  0  0  0  0  0  0  0  0  0  0
   -2.7878   -2.3094    4.7637 H   0  0  0  0  0  0  0  0  0  0  0  0
   -6.3295   -2.0098    2.3346 H   0  0  0  0  0  0  0  0  0  0  0  0
   -4.9850   -1.1048    0.4755 H   0  0  0  0  0  0  0  0  0  0  0  0
  1  2  1  0
  2  3  1  0
  3  4  2  0
  3  5  1  0
  5  6  1  0
  6  7  1  0
  7  8  1  0
  8  9  1  0
  9 10  1  0
  8 11  1  0
 11 12  1  0
 12 13  2  0
 13 14  1  0
 14 15  2  0
 15 16  1  0
 15 17  1  0
 17 18  2  0
 18 19  1  0
 19 20  2  0
 19 21  1  0
 21 22  1  0
 22 23  1  0
 23 24  1  0
 24 25  2  0
 25 26  1  0
 26 27  2  0
 27 28  1  0
 27 29  1  0
 29 30  2  0
 23 31  2  0
 31 32  1  0
 10  5  1  0
 18 12  1  0
 32 21  1  0
 21  8  1  0
 30 24  1  0
  1 33  1  0
  1 34  1  0
  1 35  1  0
  2 36  1  0
  2 37  1  0
  6 38  1  0
  6 39  1  0
  7 40  1  0
  7 41  1  0
  9 42  1  0
  9 43  1  0
 10 44  1  0
 10 45  1  0
 13 46  1  0
 14 47  1  0
 17 48  1  0
 22 49  1  0
 22 50  1  0
 25 51  1  0
 26 52  1  0
 29 53  1  0
 30 54  1  0
M  END
$$$$
