
     RDKit          3D

 80 86  0  0  0  0  0  0  0  0999 V2000
   -6.0827   -0.1840    0.5394 C   0  0  0  0  0  0  0  0  0  0  0  0
   -4.7657    0.2825    1.0912 C   0  0  0  0  0  0  0  0  0  0  0  0
   -4.7006    0.9391    2.3461 C   0  0  0  0  0  0  0  0  0  0  0  0
   -6.1021    1.1943    3.3342 Cl  0  0  0  0  0  0  0  0  0  0  0  0
   -3.4911    1.4261    2.8705 C   0  0  0  0  0  0  0  0  0  0  0  0
   -2.3072    1.2827    2.1613 C   0  0  0  0  0  0  0  0  0  0  0  0
   -2.3543    0.6373    0.9333 C   0  0  0  0  0  0  0  0  0  0  0  0
   -3.5536    0.1168    0.4041 C   0  0  0  0  0  0  0  0  0  0  0  0
   -3.2495   -0.5297   -0.8232 N   0  0  0  0  0  0  0  0  0  0  0  0
   -4.0960   -1.3808   -1.6255 C   0  0  0  0  0  0  0  0  0  0  0  0
   -3.9701   -2.8554   -1.2972 C   0  0  0  0  0  0  0  0  0  0  0  0
   -3.8987   -3.7898   -2.3432 C   0  0  0  0  0  0  0  0  0  0  0  0
   -3.8144   -5.1580   -2.0786 C   0  0  0  0  0  0  0  0  0  0  0  0
   -3.8098   -5.6156   -0.7645 C   0  0  0  0  0  0  0  0  0  0  0  0
   -3.8824   -4.7042    0.2846 C   0  0  0  0  0  0  0  0  0  0  0  0
   -3.9657   -3.3345    0.0209 C   0  0  0  0  0  0  0  0  0  0  0  0
   -1.8761   -0.4318   -1.1417 C   0  0  0  0  0  0  0  0  0  0  0  0
   -1.3231   -0.9027   -2.1266 O   0  0  0  0  0  0  0  0  0  0  0  0
   -1.2178    0.3531    0.0006 C   0  0  1  0  0  0  0  0  0  0  0  0
   -0.6049    1.6381   -0.4361 C   0  0  0  0  0  0  0  0  0  0  0  0
    0.7913    1.5061   -0.4852 C   0  0  0  0  0  0  0  0  0  0  0  0
    1.3377    2.6996   -0.8720 C   0  0  0  0  0  0  0  0  0  0  0  0
    2.6171    3.0332   -1.0162 O   0  0  0  0  0  0  0  0  0  0  0  0
    0.2711    3.6124   -1.0740 N   0  0  0  0  0  0  0  0  0  0  0  0
    0.3868    4.9942   -1.4728 C   0  0  0  0  0  0  0  0  0  0  0  0
   -0.6565    5.9026   -1.2373 C   0  0  0  0  0  0  0  0  0  0  0  0
   -0.5486    7.2436   -1.6242 C   0  0  0  0  0  0  0  0  0  0  0  0
    0.6045    7.7000   -2.2535 C   0  0  0  0  0  0  0  0  0  0  0  0
    1.6513    6.8158   -2.4901 C   0  0  0  0  0  0  0  0  0  0  0  0
    1.5440    5.4738   -2.1046 C   0  0  0  0  0  0  0  0  0  0  0  0
   -0.9362    2.9116   -0.8218 C   0  0  0  0  0  0  0  0  0  0  0  0
   -2.1393    3.4540   -0.9950 O   0  0  0  0  0  0  0  0  0  0  0  0
    1.1738    0.1197   -0.1374 C   0  0  1  0  0  0  0  0  0  0  0  0
    2.4002   -0.1280    0.7330 C   0  0  0  0  0  0  0  0  0  0  0  0
    2.4632   -1.5506    1.1230 N   0  0  0  0  0  0  0  0  0  0  0  0
    3.6559   -2.2118    1.3462 C   0  0  0  0  0  0  0  0  0  0  0  0
    3.7292   -3.3225    1.8538 O   0  0  0  0  0  0  0  0  0  0  0  0
    4.7236   -1.4921    0.9161 O   0  0  0  0  0  0  0  0  0  0  0  0
    6.0687   -2.0306    0.9904 C   0  0  0  0  0  0  0  0  0  0  0  0
    6.2105   -3.3033    0.1482 C   0  0  0  0  0  0  0  0  0  0  0  0
    6.5012   -2.2534    2.4436 C   0  0  0  0  0  0  0  0  0  0  0  0
    6.9574   -0.9368    0.3760 C   0  0  0  0  0  0  0  0  0  0  0  0
    1.2174   -2.1450    1.6345 C   0  0  0  0  0  0  0  0  0  0  0  0
   -0.0401   -1.7500    0.8176 C   0  0  0  0  0  0  0  0  0  0  0  0
   -0.0459   -0.3071    0.6188 N   0  0  0  0  0  0  0  0  0  0  0  0
   -6.2634    0.2744   -0.4387 H   0  0  0  0  0  0  0  0  0  0  0  0
   -6.9430    0.0976    1.1511 H   0  0  0  0  0  0  0  0  0  0  0  0
   -6.1044   -1.2748    0.4655 H   0  0  0  0  0  0  0  0  0  0  0  0
   -3.4728    1.9263    3.8375 H   0  0  0  0  0  0  0  0  0  0  0  0
   -1.3691    1.6607    2.5587 H   0  0  0  0  0  0  0  0  0  0  0  0
   -5.1401   -1.0763   -1.5903 H   0  0  0  0  0  0  0  0  0  0  0  0
   -3.7894   -1.2307   -2.6688 H   0  0  0  0  0  0  0  0  0  0  0  0
   -3.8978   -3.4574   -3.3791 H   0  0  0  0  0  0  0  0  0  0  0  0
   -3.7531   -5.8674   -2.9006 H   0  0  0  0  0  0  0  0  0  0  0  0
   -3.7480   -6.6806   -0.5580 H   0  0  0  0  0  0  0  0  0  0  0  0
   -3.8796   -5.0605    1.3114 H   0  0  0  0  0  0  0  0  0  0  0  0
   -4.0262   -2.6532    0.8641 H   0  0  0  0  0  0  0  0  0  0  0  0
    3.1627    2.2379   -0.8965 H   0  0  0  0  0  0  0  0  0  0  0  0
   -1.5632    5.6132   -0.7155 H   0  0  0  0  0  0  0  0  0  0  0  0
   -1.3682    7.9302   -1.4264 H   0  0  0  0  0  0  0  0  0  0  0  0
    0.6885    8.7413   -2.5513 H   0  0  0  0  0  0  0  0  0  0  0  0
    2.5591    7.1651   -2.9728 H   0  0  0  0  0  0  0  0  0  0  0  0
    2.3811    4.8283   -2.3392 H   0  0  0  0  0  0  0  0  0  0  0  0
   -2.8144    2.7945   -0.7594 H   0  0  0  0  0  0  0  0  0  0  0  0
    1.2615   -0.4589   -1.0688 H   0  0  0  0  0  0  0  0  0  0  0  0
    3.3042    0.1686    0.1937 H   0  0  0  0  0  0  0  0  0  0  0  0
    2.3673    0.4637    1.6561 H   0  0  0  0  0  0  0  0  0  0  0  0
    5.7949   -3.1544   -0.8549 H   0  0  0  0  0  0  0  0  0  0  0  0
    7.2609   -3.6023    0.0528 H   0  0  0  0  0  0  0  0  0  0  0  0
    5.6715   -4.1475    0.5879 H   0  0  0  0  0  0  0  0  0  0  0  0
    6.3161   -1.3547    3.0431 H   0  0  0  0  0  0  0  0  0  0  0  0
    7.5673   -2.5010    2.5068 H   0  0  0  0  0  0  0  0  0  0  0  0
    5.9440   -3.0690    2.9169 H   0  0  0  0  0  0  0  0  0  0  0  0
    8.0117   -1.2329    0.3544 H   0  0  0  0  0  0  0  0  0  0  0  0
    6.6418   -0.7082   -0.6485 H   0  0  0  0  0  0  0  0  0  0  0  0
    6.8717   -0.0030    0.9416 H   0  0  0  0  0  0  0  0  0  0  0  0
    1.1088   -1.7986    2.6698 H   0  0  0  0  0  0  0  0  0  0  0  0
    1.3052   -3.2364    1.6633 H   0  0  0  0  0  0  0  0  0  0  0  0
   -0.9307   -2.0711    1.3685 H   0  0  0  0  0  0  0  0  0  0  0  0
   -0.0273   -2.2823   -0.1412 H   0  0  0  0  0  0  0  0  0  0  0  0
  1  2  1  0
  2  3  2  0
  3  4  1  0
  3  5  1  0
  5  6  2  0
  6  7  1  0
  7  8  2  0
  8  9  1  0
  9 10  1  0
 10 11  1  0
 11 12  2  0
 12 13  1  0
 13 14  2  0
 14 15  1  0
 15 16  2  0
  9 17  1  0
 17 18  2  0
 17 19  1  0
 19 20  1  0
 20 21  1  0
 21 22  2  0
 22 23  1  0
 22 24  1  0
 24 25  1  0
 25 26  2  0
 26 27  1  0
 27 28  2  0
 28 29  1  0
 29 30  2  0
 24 31  1  0
 31 32  1  0
 21 33  1  0
 33 34  1  0
 34 35  1  0
 35 36  1  0
 36 37  2  0
 36 38  1  0
 38 39  1  0
 39 40  1  0
 39 41  1  0
 39 42  1  0
 35 43  1  0
 43 44  1  0
 44 45  1  0
  8  2  1  0
 16 11  1  0
 19 45  1  1
 19  7  1  0
 31 20  2  0
 45 33  1  0
 30 25  1  0
  1 46  1  0
  1 47  1  0
  1 48  1  0
  5 49  1  0
  6 50  1  0
 10 51  1  0
 10 52  1  0
 12 53  1  0
 13 54  1  0
 14 55  1  0
 15 56  1  0
 16 57  1  0
 23 58  1  0
 26 59  1  0
 27 60  1  0
 28 61  1  0
 29 62  1  0
 30 63  1  0
 32 64  1  0
 33 65  1  6
 34 66  1  0
 34 67  1  0
 40 68  1  0
 40 69  1  0
 40 70  1  0
 41 71  1  0
 41 72  1  0
 41 73  1  0
 42 74  1  0
 42 75  1  0
 42 76  1  0
 43 77  1  0
 43 78  1  0
 44 79  1  0
 44 80  1  0
M  END
$$$$
