
     RDKit          3D

 39 41  0  0  0  0  0  0  0  0999 V2000
   -2.3186    0.3197   -2.6340 C   0  0  0  0  0  0  0  0  0  0  0  0
   -2.8996    0.0168   -1.2786 C   0  0  0  0  0  0  0  0  0  0  0  0
   -4.2597   -0.3481   -1.2517 C   0  0  0  0  0  0  0  0  0  0  0  0
   -4.9311   -0.5421   -0.0501 C   0  0  0  0  0  0  0  0  0  0  0  0
   -4.2543   -0.3702    1.1502 C   0  0  0  0  0  0  0  0  0  0  0  0
   -2.8899   -0.0354    1.1627 C   0  0  0  0  0  0  0  0  0  0  0  0
   -2.2140    0.1046    2.5026 C   0  0  0  0  0  0  0  0  0  0  0  0
   -2.1911    0.1216   -0.0619 C   0  0  0  0  0  0  0  0  0  0  0  0
   -0.8116    0.4390    0.0156 N   0  0  0  0  0  0  0  0  0  0  0  0
    0.1934   -0.0530   -0.8061 C   0  0  0  0  0  0  0  0  0  0  0  0
    0.0521   -0.8701   -1.7077 O   0  0  0  0  0  0  0  0  0  0  0  0
    1.5626    0.5162   -0.4246 C   0  0  0  0  0  0  0  0  0  0  0  0
    2.6924    0.1800   -1.4218 C   0  0  0  0  0  0  0  0  0  0  0  0
    3.7321   -0.5373   -0.5416 C   0  0  0  0  0  0  0  0  0  0  0  0
    4.3696    0.4833    0.4170 C   0  0  0  0  0  0  0  0  0  0  0  0
    3.2409    0.7701    1.4186 C   0  0  0  0  0  0  0  0  0  0  0  0
    2.0868   -0.1027    0.8954 C   0  0  0  0  0  0  0  0  0  0  0  0
    2.8411   -1.3400    0.4015 C   0  0  0  0  0  0  0  0  0  0  0  0
   -1.5150    1.0595   -2.5777 H   0  0  0  0  0  0  0  0  0  0  0  0
   -3.0810    0.7623   -3.2863 H   0  0  0  0  0  0  0  0  0  0  0  0
   -1.9607   -0.5960   -3.1128 H   0  0  0  0  0  0  0  0  0  0  0  0
   -4.8110   -0.4598   -2.1838 H   0  0  0  0  0  0  0  0  0  0  0  0
   -5.9834   -0.8130   -0.0515 H   0  0  0  0  0  0  0  0  0  0  0  0
   -4.7972   -0.5123    2.0821 H   0  0  0  0  0  0  0  0  0  0  0  0
   -1.8578    1.1302    2.6422 H   0  0  0  0  0  0  0  0  0  0  0  0
   -1.3736   -0.5928    2.5809 H   0  0  0  0  0  0  0  0  0  0  0  0
   -2.8989   -0.1193    3.3276 H   0  0  0  0  0  0  0  0  0  0  0  0
   -0.4914    0.7891    0.9070 H   0  0  0  0  0  0  0  0  0  0  0  0
    1.4514    1.6051   -0.3416 H   0  0  0  0  0  0  0  0  0  0  0  0
    3.1060    1.0864   -1.8771 H   0  0  0  0  0  0  0  0  0  0  0  0
    2.3639   -0.4772   -2.2331 H   0  0  0  0  0  0  0  0  0  0  0  0
    4.4612   -1.1166   -1.1113 H   0  0  0  0  0  0  0  0  0  0  0  0
    4.7046    1.3901   -0.0964 H   0  0  0  0  0  0  0  0  0  0  0  0
    5.2303    0.0464    0.9358 H   0  0  0  0  0  0  0  0  0  0  0  0
    2.9832    1.8330    1.4579 H   0  0  0  0  0  0  0  0  0  0  0  0
    3.5416    0.4550    2.4244 H   0  0  0  0  0  0  0  0  0  0  0  0
    1.3243   -0.3108    1.6488 H   0  0  0  0  0  0  0  0  0  0  0  0
    2.2023   -2.0632   -0.1154 H   0  0  0  0  0  0  0  0  0  0  0  0
    3.3999   -1.8484    1.1945 H   0  0  0  0  0  0  0  0  0  0  0  0
  1  2  1  0
  2  3  2  0
  3  4  1  0
  4  5  2  0
  5  6  1  0
  6  7  1  0
  6  8  2  0
  8  9  1  0
  9 10  1  0
 10 11  2  0
 10 12  1  0
 12 13  1  0
 13 14  1  0
 14 15  1  0
 15 16  1  0
 16 17  1  0
 17 18  1  0
  8  2  1  0
 17 12  1  0
 18 14  1  0
  1 19  1  0
  1 20  1  0
  1 21  1  0
  3 22  1  0
  4 23  1  0
  5 24  1  0
  7 25  1  0
  7 26  1  0
  7 27  1  0
  9 28  1  0
 12 29  1  0
 13 30  1  0
 13 31  1  0
 14 32  1  0
 15 33  1  0
 15 34  1  0
 16 35  1  0
 16 36  1  0
 17 37  1  0
 18 38  1  0
 18 39  1  0
M  END
$$$$
