
     RDKit          3D

 48 51  0  0  0  0  0  0  0  0999 V2000
    9.1458    0.6549   -0.4128 C   0  0  0  0  0  0  0  0  0  0  0  0
    8.2235    0.1170    0.5261 O   0  0  0  0  0  0  0  0  0  0  0  0
    6.8948    0.2552    0.2365 C   0  0  0  0  0  0  0  0  0  0  0  0
    6.3586    0.8803   -0.8865 C   0  0  0  0  0  0  0  0  0  0  0  0
    4.9679    0.9526   -1.0594 C   0  0  0  0  0  0  0  0  0  0  0  0
    4.0781    0.4070   -0.1168 C   0  0  0  0  0  0  0  0  0  0  0  0
    2.6117    0.4780   -0.2831 C   0  0  0  0  0  0  0  0  0  0  0  0
    1.9688    1.5449   -0.9029 C   0  0  0  0  0  0  0  0  0  0  0  0
    0.5780    1.5307   -1.0155 C   0  0  0  0  0  0  0  0  0  0  0  0
   -0.1634    0.4569   -0.5068 C   0  0  0  0  0  0  0  0  0  0  0  0
   -1.6146    0.4556   -0.6217 C   0  0  0  0  0  0  0  0  0  0  0  0
   -2.2731    1.1370   -1.5758 N   0  0  0  0  0  0  0  0  0  0  0  0
   -3.6146    0.8761   -1.3038 O   0  0  0  0  0  0  0  0  0  0  0  0
   -3.6476    0.0799   -0.1961 C   0  0  0  0  0  0  0  0  0  0  0  0
   -4.9466   -0.3735    0.3052 C   0  0  0  0  0  0  0  0  0  0  0  0
   -4.9398   -1.3947    1.2780 C   0  0  0  0  0  0  0  0  0  0  0  0
   -6.1250   -1.8977    1.8129 C   0  0  0  0  0  0  0  0  0  0  0  0
   -7.3422   -1.3846    1.3855 C   0  0  0  0  0  0  0  0  0  0  0  0
   -7.3753   -0.3684    0.4279 C   0  0  0  0  0  0  0  0  0  0  0  0
   -6.1890    0.1465   -0.1185 C   0  0  0  0  0  0  0  0  0  0  0  0
   -6.1645    1.1565   -1.0453 O   0  0  0  0  0  0  0  0  0  0  0  0
   -7.4035    1.6601   -1.5266 C   0  0  0  0  0  0  0  0  0  0  0  0
   -2.4445   -0.1996    0.2585 N   0  0  0  0  0  0  0  0  0  0  0  0
    0.5576   -0.5711    0.0971 C   0  0  0  0  0  0  0  0  0  0  0  0
   -0.1262   -1.6745    0.5675 O   0  0  0  0  0  0  0  0  0  0  0  0
    0.7045   -2.6475    1.1898 C   0  0  0  0  0  0  0  0  0  0  0  0
    1.9120   -0.5699    0.2171 N   0  0  0  0  0  0  0  0  0  0  0  0
    4.6431   -0.2272    1.0028 C   0  0  0  0  0  0  0  0  0  0  0  0
    6.0295   -0.2989    1.1782 C   0  0  0  0  0  0  0  0  0  0  0  0
   10.1555    0.4605   -0.0386 H   0  0  0  0  0  0  0  0  0  0  0  0
    9.0279    1.7397   -0.5049 H   0  0  0  0  0  0  0  0  0  0  0  0
    9.0510    0.1623   -1.3862 H   0  0  0  0  0  0  0  0  0  0  0  0
    6.9896    1.3182   -1.6526 H   0  0  0  0  0  0  0  0  0  0  0  0
    4.5911    1.4296   -1.9617 H   0  0  0  0  0  0  0  0  0  0  0  0
    2.5247    2.3955   -1.2832 H   0  0  0  0  0  0  0  0  0  0  0  0
    0.0784    2.3704   -1.4953 H   0  0  0  0  0  0  0  0  0  0  0  0
   -3.9920   -1.8084    1.6234 H   0  0  0  0  0  0  0  0  0  0  0  0
   -6.0934   -2.6866    2.5601 H   0  0  0  0  0  0  0  0  0  0  0  0
   -8.2704   -1.7716    1.7993 H   0  0  0  0  0  0  0  0  0  0  0  0
   -8.3504    0.0051    0.1319 H   0  0  0  0  0  0  0  0  0  0  0  0
   -7.9752    2.1335   -0.7218 H   0  0  0  0  0  0  0  0  0  0  0  0
   -7.9854    0.8746   -2.0198 H   0  0  0  0  0  0  0  0  0  0  0  0
   -7.1834    2.4288   -2.2736 H   0  0  0  0  0  0  0  0  0  0  0  0
    0.0601   -3.4591    1.5413 H   0  0  0  0  0  0  0  0  0  0  0  0
    1.4175   -3.0755    0.4767 H   0  0  0  0  0  0  0  0  0  0  0  0
    1.2201   -2.2317    2.0625 H   0  0  0  0  0  0  0  0  0  0  0  0
    3.9968   -0.6726    1.7577 H   0  0  0  0  0  0  0  0  0  0  0  0
    6.4335   -0.7944    2.0576 H   0  0  0  0  0  0  0  0  0  0  0  0
  1  2  1  0
  2  3  1  0
  3  4  2  0
  4  5  1  0
  5  6  2  0
  6  7  1  0
  7  8  2  0
  8  9  1  0
  9 10  2  0
 10 11  1  0
 11 12  2  0
 12 13  1  0
 13 14  1  0
 14 15  1  0
 15 16  2  0
 16 17  1  0
 17 18  2  0
 18 19  1  0
 19 20  2  0
 20 21  1  0
 21 22  1  0
 14 23  2  0
 10 24  1  0
 24 25  1  0
 25 26  1  0
 24 27  2  0
  6 28  1  0
 28 29  2  0
 29  3  1  0
 27  7  1  0
 23 11  1  0
 20 15  1  0
  1 30  1  0
  1 31  1  0
  1 32  1  0
  4 33  1  0
  5 34  1  0
  8 35  1  0
  9 36  1  0
 16 37  1  0
 17 38  1  0
 18 39  1  0
 19 40  1  0
 22 41  1  0
 22 42  1  0
 22 43  1  0
 26 44  1  0
 26 45  1  0
 26 46  1  0
 28 47  1  0
 29 48  1  0
M  END
$$$$
