
     RDKit          3D

 39 41  0  0  0  0  0  0  0  0999 V2000
    0.4908   -3.1984    1.1598 S   0  0  0  0  0  0  0  0  0  0  0  0
    0.2428   -1.7208    0.3973 C   0  0  0  0  0  0  0  0  0  0  0  0
    1.1738   -0.7007    0.4341 N   0  0  0  0  0  0  0  0  0  0  0  0
    2.5016   -0.7610    1.0476 C   0  0  0  0  0  0  0  0  0  0  0  0
    3.1405    0.6273    1.0756 C   0  0  0  0  0  0  0  0  0  0  0  0
    4.5425    0.6334    1.6591 C   0  0  0  0  0  0  0  0  0  0  0  0
    5.1398    1.8498    0.9975 C   0  0  0  0  0  0  0  0  0  0  0  0
    4.5483    1.7731   -0.3939 C   0  0  0  0  0  0  0  0  0  0  0  0
    3.2633    1.1443   -0.2693 O   0  0  0  0  0  0  0  0  0  0  0  0
   -0.9191   -1.3825   -0.3062 N   0  0  0  0  0  0  0  0  0  0  0  0
   -1.8829   -2.3788   -0.7941 C   0  0  0  0  0  0  0  0  0  0  0  0
   -3.2515   -2.1597   -0.1564 C   0  0  0  0  0  0  0  0  0  0  0  0
   -3.7172   -0.7420   -0.3742 C   0  0  0  0  0  0  0  0  0  0  0  0
   -5.0840   -0.4364   -0.3271 C   0  0  0  0  0  0  0  0  0  0  0  0
   -5.5196    0.8749   -0.5132 C   0  0  0  0  0  0  0  0  0  0  0  0
   -4.5944    1.8909   -0.7392 C   0  0  0  0  0  0  0  0  0  0  0  0
   -3.2307    1.5984   -0.7726 C   0  0  0  0  0  0  0  0  0  0  0  0
   -2.7764    0.2839   -0.5821 C   0  0  0  0  0  0  0  0  0  0  0  0
   -1.2868    0.0070   -0.6162 C   0  0  0  0  0  0  0  0  0  0  0  0
    1.1646   -0.0970   -0.3787 H   0  0  0  0  0  0  0  0  0  0  0  0
    3.0991   -1.4488    0.4383 H   0  0  0  0  0  0  0  0  0  0  0  0
    2.4178   -1.1617    2.0627 H   0  0  0  0  0  0  0  0  0  0  0  0
    2.4967    1.3275    1.6228 H   0  0  0  0  0  0  0  0  0  0  0  0
    5.0994   -0.2613    1.3553 H   0  0  0  0  0  0  0  0  0  0  0  0
    4.5477    0.6861    2.7513 H   0  0  0  0  0  0  0  0  0  0  0  0
    4.7897    2.7575    1.5035 H   0  0  0  0  0  0  0  0  0  0  0  0
    6.2328    1.8586    0.9965 H   0  0  0  0  0  0  0  0  0  0  0  0
    4.4333    2.7574   -0.8563 H   0  0  0  0  0  0  0  0  0  0  0  0
    5.1615    1.1475   -1.0511 H   0  0  0  0  0  0  0  0  0  0  0  0
   -1.5501   -3.4042   -0.6195 H   0  0  0  0  0  0  0  0  0  0  0  0
   -1.9420   -2.2564   -1.8839 H   0  0  0  0  0  0  0  0  0  0  0  0
   -3.2023   -2.3478    0.9227 H   0  0  0  0  0  0  0  0  0  0  0  0
   -3.9670   -2.8644   -0.5954 H   0  0  0  0  0  0  0  0  0  0  0  0
   -5.8159   -1.2203   -0.1460 H   0  0  0  0  0  0  0  0  0  0  0  0
   -6.5814    1.1040   -0.4794 H   0  0  0  0  0  0  0  0  0  0  0  0
   -4.9349    2.9128   -0.8837 H   0  0  0  0  0  0  0  0  0  0  0  0
   -2.5202    2.4046   -0.9421 H   0  0  0  0  0  0  0  0  0  0  0  0
   -0.8014    0.6860    0.0933 H   0  0  0  0  0  0  0  0  0  0  0  0
   -0.9081    0.2171   -1.6236 H   0  0  0  0  0  0  0  0  0  0  0  0
  1  2  2  0
  2  3  1  0
  3  4  1  0
  4  5  1  0
  5  6  1  0
  6  7  1  0
  7  8  1  0
  8  9  1  0
  2 10  1  0
 10 11  1  0
 11 12  1  0
 12 13  1  0
 13 14  2  0
 14 15  1  0
 15 16  2  0
 16 17  1  0
 17 18  2  0
 18 19  1  0
  9  5  1  0
 19 10  1  0
 18 13  1  0
  3 20  1  0
  4 21  1  0
  4 22  1  0
  5 23  1  0
  6 24  1  0
  6 25  1  0
  7 26  1  0
  7 27  1  0
  8 28  1  0
  8 29  1  0
 11 30  1  0
 11 31  1  0
 12 32  1  0
 12 33  1  0
 14 34  1  0
 15 35  1  0
 16 36  1  0
 17 37  1  0
 19 38  1  0
 19 39  1  0
M  END
$$$$
