
     RDKit          3D

 45 49  0  0  0  0  0  0  0  0999 V2000
    0.7943    1.7449   -0.4899 O   0  0  0  0  0  0  0  0  0  0  0  0
    0.7709    0.9702   -1.4435 C   0  0  0  0  0  0  0  0  0  0  0  0
   -0.4199    0.7900   -2.3414 C   0  0  0  0  0  0  0  0  0  0  0  0
   -1.6233    0.4720   -1.5914 N   0  0  0  0  0  0  0  0  0  0  0  0
   -2.3319   -0.7172   -1.7336 C   0  0  0  0  0  0  0  0  0  0  0  0
   -1.8743   -1.7192   -2.4701 O   0  0  0  0  0  0  0  0  0  0  0  0
   -3.4770   -0.5639   -1.0114 C   0  0  0  0  0  0  0  0  0  0  0  0
   -3.4573    0.7089   -0.4057 C   0  0  0  0  0  0  0  0  0  0  0  0
   -2.2912    1.3359   -0.7252 C   0  0  0  0  0  0  0  0  0  0  0  0
   -1.8239    2.5174   -0.3432 O   0  0  0  0  0  0  0  0  0  0  0  0
   -4.7158    0.8465    0.3894 C   0  0  0  0  0  0  0  0  0  0  0  0
   -4.6307   -0.1318    1.5894 C   0  0  0  0  0  0  0  0  0  0  0  0
   -4.6561   -1.5440    0.9168 C   0  0  0  0  0  0  0  0  0  0  0  0
   -4.7532   -1.2258   -0.5976 C   0  0  0  0  0  0  0  0  0  0  0  0
   -5.6861    0.0289   -0.5260 C   0  0  0  0  0  0  0  0  0  0  0  0
    1.8202    0.1781   -1.8946 O   0  0  0  0  0  0  0  0  0  0  0  0
    2.9580    0.2702   -1.0924 C   0  0  0  0  0  0  0  0  0  0  0  0
    3.9784    1.1373   -1.4660 C   0  0  0  0  0  0  0  0  0  0  0  0
    5.1365    1.1958   -0.6906 C   0  0  0  0  0  0  0  0  0  0  0  0
    5.2827    0.3813    0.4459 C   0  0  0  0  0  0  0  0  0  0  0  0
    6.4427    0.4309    1.2351 C   0  0  0  0  0  0  0  0  0  0  0  0
    6.5759   -0.3842    2.3606 C   0  0  0  0  0  0  0  0  0  0  0  0
    5.5532   -1.2612    2.7105 C   0  0  0  0  0  0  0  0  0  0  0  0
    4.3933   -1.3251    1.9370 C   0  0  0  0  0  0  0  0  0  0  0  0
    4.2414   -0.5100    0.8037 C   0  0  0  0  0  0  0  0  0  0  0  0
    3.0803   -0.5627    0.0187 C   0  0  0  0  0  0  0  0  0  0  0  0
   -0.5990    1.7189   -2.8928 H   0  0  0  0  0  0  0  0  0  0  0  0
   -0.2345   -0.0011   -3.0740 H   0  0  0  0  0  0  0  0  0  0  0  0
   -2.5436   -2.4262   -2.4206 H   0  0  0  0  0  0  0  0  0  0  0  0
   -0.8494    2.4600   -0.2402 H   0  0  0  0  0  0  0  0  0  0  0  0
   -5.0275    1.8638    0.6227 H   0  0  0  0  0  0  0  0  0  0  0  0
   -5.4990   -0.0184    2.2485 H   0  0  0  0  0  0  0  0  0  0  0  0
   -3.7209    0.0090    2.1831 H   0  0  0  0  0  0  0  0  0  0  0  0
   -3.7591   -2.1201    1.1691 H   0  0  0  0  0  0  0  0  0  0  0  0
   -5.5363   -2.1013    1.2569 H   0  0  0  0  0  0  0  0  0  0  0  0
   -5.0996   -2.0381   -1.2359 H   0  0  0  0  0  0  0  0  0  0  0  0
   -6.6566   -0.1753   -0.0604 H   0  0  0  0  0  0  0  0  0  0  0  0
   -5.8356    0.4977   -1.5066 H   0  0  0  0  0  0  0  0  0  0  0  0
    3.8783    1.7661   -2.3452 H   0  0  0  0  0  0  0  0  0  0  0  0
    5.9292    1.8822   -0.9791 H   0  0  0  0  0  0  0  0  0  0  0  0
    7.2540    1.1087    0.9788 H   0  0  0  0  0  0  0  0  0  0  0  0
    7.4788   -0.3330    2.9636 H   0  0  0  0  0  0  0  0  0  0  0  0
    5.6561   -1.8950    3.5869 H   0  0  0  0  0  0  0  0  0  0  0  0
    3.6055   -2.0171    2.2271 H   0  0  0  0  0  0  0  0  0  0  0  0
    2.2722   -1.2438    0.2720 H   0  0  0  0  0  0  0  0  0  0  0  0
  1  2  2  0
  2  3  1  0
  3  4  1  0
  4  5  1  0
  5  6  1  0
  5  7  2  0
  7  8  1  0
  8  9  2  0
  9 10  1  0
  8 11  1  0
 11 12  1  0
 12 13  1  0
 13 14  1  0
 14 15  1  0
  2 16  1  0
 16 17  1  0
 17 18  2  0
 18 19  1  0
 19 20  2  0
 20 21  1  0
 21 22  2  0
 22 23  1  0
 23 24  2  0
 24 25  1  0
 25 26  2  0
  9  4  1  0
 15 11  1  0
 26 17  1  0
 14  7  1  0
 25 20  1  0
  3 27  1  0
  3 28  1  0
  6 29  1  0
 10 30  1  0
 11 31  1  0
 12 32  1  0
 12 33  1  0
 13 34  1  0
 13 35  1  0
 14 36  1  0
 15 37  1  0
 15 38  1  0
 18 39  1  0
 19 40  1  0
 21 41  1  0
 22 42  1  0
 23 43  1  0
 24 44  1  0
 26 45  1  0
M  END
$$$$
