
     RDKit          3D

 30 31  0  0  0  0  0  0  0  0999 V2000
   -4.8061    0.6580   -0.4159 C   0  0  0  0  0  0  0  0  0  0  0  0
   -4.0537    0.6355    0.9013 C   0  0  0  0  0  0  0  0  0  0  0  0
   -2.6393    0.6540    0.6630 O   0  0  0  0  0  0  0  0  0  0  0  0
   -2.0504   -0.5622    0.4668 C   0  0  0  0  0  0  0  0  0  0  0  0
   -2.6560   -1.6277    0.4818 O   0  0  0  0  0  0  0  0  0  0  0  0
   -0.6269   -0.4002    0.2397 C   0  0  0  0  0  0  0  0  0  0  0  0
    0.1025   -1.5495    0.0382 O   0  0  0  0  0  0  0  0  0  0  0  0
    1.3833   -1.1765   -0.1472 C   0  0  0  0  0  0  0  0  0  0  0  0
    1.5279    0.1873   -0.0814 C   0  0  0  0  0  0  0  0  0  0  0  0
    0.2239    0.7092    0.1741 C   0  0  0  0  0  0  0  0  0  0  0  0
   -0.1523    2.1394    0.3350 C   0  0  0  0  0  0  0  0  0  0  0  0
    2.8422    0.7849   -0.2581 C   0  0  0  0  0  0  0  0  0  0  0  0
    3.0347    1.9953   -0.1823 O   0  0  0  0  0  0  0  0  0  0  0  0
    3.9753   -0.1794   -0.6230 C   0  0  0  0  0  0  0  0  0  0  0  0
    3.7870   -1.5835   -0.0216 C   0  0  0  0  0  0  0  0  0  0  0  0
    2.4245   -2.2000   -0.3806 C   0  0  0  0  0  0  0  0  0  0  0  0
   -4.5047    1.5230   -1.0158 H   0  0  0  0  0  0  0  0  0  0  0  0
   -4.5852   -0.2341   -1.0103 H   0  0  0  0  0  0  0  0  0  0  0  0
   -5.8853    0.7054   -0.2453 H   0  0  0  0  0  0  0  0  0  0  0  0
   -4.3452   -0.2229    1.5171 H   0  0  0  0  0  0  0  0  0  0  0  0
   -4.2920    1.5369    1.4755 H   0  0  0  0  0  0  0  0  0  0  0  0
   -0.8948    2.4264   -0.4166 H   0  0  0  0  0  0  0  0  0  0  0  0
   -0.5744    2.3137    1.3300 H   0  0  0  0  0  0  0  0  0  0  0  0
    0.7039    2.8082    0.2200 H   0  0  0  0  0  0  0  0  0  0  0  0
    4.9184    0.2447   -0.2614 H   0  0  0  0  0  0  0  0  0  0  0  0
    4.0233   -0.2403   -1.7163 H   0  0  0  0  0  0  0  0  0  0  0  0
    4.5927   -2.2456   -0.3578 H   0  0  0  0  0  0  0  0  0  0  0  0
    3.8676   -1.5094    1.0713 H   0  0  0  0  0  0  0  0  0  0  0  0
    2.4147   -2.4974   -1.4351 H   0  0  0  0  0  0  0  0  0  0  0  0
    2.2443   -3.0933    0.2259 H   0  0  0  0  0  0  0  0  0  0  0  0
  1  2  1  0
  2  3  1  0
  3  4  1  0
  4  5  2  0
  4  6  1  0
  6  7  1  0
  7  8  1  0
  8  9  2  0
  9 10  1  0
 10 11  1  0
  9 12  1  0
 12 13  2  0
 12 14  1  0
 14 15  1  0
 15 16  1  0
 10  6  2  0
 16  8  1  0
  1 17  1  0
  1 18  1  0
  1 19  1  0
  2 20  1  0
  2 21  1  0
 11 22  1  0
 11 23  1  0
 11 24  1  0
 14 25  1  0
 14 26  1  0
 15 27  1  0
 15 28  1  0
 16 29  1  0
 16 30  1  0
M  END
$$$$
