
     RDKit          3D

 46 50  0  0  0  0  0  0  0  0999 V2000
   -0.7446    0.3351   -3.1107 O   0  0  0  0  0  0  0  0  0  0  0  0
   -0.9984    0.5018   -1.9222 C   0  0  0  0  0  0  0  0  0  0  0  0
   -2.0087    1.5029   -1.5291 C   0  0  0  0  0  0  0  0  0  0  0  0
   -2.5308    2.3946   -2.4712 C   0  0  0  0  0  0  0  0  0  0  0  0
   -3.4505    3.3558   -2.0597 C   0  0  0  0  0  0  0  0  0  0  0  0
   -4.0968    4.4658   -3.2032 Cl  0  0  0  0  0  0  0  0  0  0  0  0
   -3.8460    3.4316   -0.7237 C   0  0  0  0  0  0  0  0  0  0  0  0
   -3.3248    2.5317    0.2090 C   0  0  0  0  0  0  0  0  0  0  0  0
   -2.4156    1.5561   -0.1971 C   0  0  0  0  0  0  0  0  0  0  0  0
   -1.9658    0.7059    0.7734 O   0  0  0  0  0  0  0  0  0  0  0  0
   -1.3790   -0.5465    0.3070 C   0  0  0  0  0  0  0  0  0  0  0  0
   -2.5272   -1.4700   -0.1926 C   0  0  0  0  0  0  0  0  0  0  0  0
   -2.1528   -2.9461   -0.2617 C   0  0  0  0  0  0  0  0  0  0  0  0
   -1.6917   -3.4204    1.0385 N   0  0  0  0  0  0  0  0  0  0  0  0
   -0.5083   -2.6880    1.4778 C   0  0  0  0  0  0  0  0  0  0  0  0
   -0.7992   -1.1949    1.5924 C   0  0  0  0  0  0  0  0  0  0  0  0
   -0.3007   -0.2191   -0.7701 C   0  0  0  0  0  0  0  0  0  0  0  0
    0.8365    0.6881   -0.3040 C   0  0  0  0  0  0  0  0  0  0  0  0
    1.9482   -0.2988   -0.2831 C   0  0  0  0  0  0  0  0  0  0  0  0
    3.2703    0.0201    0.3046 C   0  0  0  0  0  0  0  0  0  0  0  0
    4.2449   -0.9839    0.3654 C   0  0  0  0  0  0  0  0  0  0  0  0
    5.4983   -0.7155    0.9185 C   0  0  0  0  0  0  0  0  0  0  0  0
    5.7844    0.5561    1.4117 C   0  0  0  0  0  0  0  0  0  0  0  0
    4.8197    1.5610    1.3507 C   0  0  0  0  0  0  0  0  0  0  0  0
    3.5637    1.2967    0.7979 C   0  0  0  0  0  0  0  0  0  0  0  0
    1.6688   -1.4425   -0.8178 N   0  0  0  0  0  0  0  0  0  0  0  0
    0.3341   -1.3915   -1.2795 O   0  0  0  0  0  0  0  0  0  0  0  0
   -2.2157    2.3429   -3.5112 H   0  0  0  0  0  0  0  0  0  0  0  0
   -4.5618    4.1850   -0.4035 H   0  0  0  0  0  0  0  0  0  0  0  0
   -3.6397    2.5847    1.2488 H   0  0  0  0  0  0  0  0  0  0  0  0
   -2.9008   -1.1556   -1.1734 H   0  0  0  0  0  0  0  0  0  0  0  0
   -3.3880   -1.3554    0.4825 H   0  0  0  0  0  0  0  0  0  0  0  0
   -3.0425   -3.5206   -0.5437 H   0  0  0  0  0  0  0  0  0  0  0  0
   -1.4040   -3.1385   -1.0364 H   0  0  0  0  0  0  0  0  0  0  0  0
   -1.4576   -4.4117    0.9652 H   0  0  0  0  0  0  0  0  0  0  0  0
   -0.2174   -3.0633    2.4656 H   0  0  0  0  0  0  0  0  0  0  0  0
    0.3350   -2.8941    0.8151 H   0  0  0  0  0  0  0  0  0  0  0  0
    0.0995   -0.6693    1.9328 H   0  0  0  0  0  0  0  0  0  0  0  0
   -1.5214   -1.0500    2.4100 H   0  0  0  0  0  0  0  0  0  0  0  0
    1.0839    1.4780   -1.0221 H   0  0  0  0  0  0  0  0  0  0  0  0
    0.6659    1.1396    0.6760 H   0  0  0  0  0  0  0  0  0  0  0  0
    4.0367   -1.9806   -0.0192 H   0  0  0  0  0  0  0  0  0  0  0  0
    6.2508   -1.4992    0.9613 H   0  0  0  0  0  0  0  0  0  0  0  0
    6.7617    0.7647    1.8404 H   0  0  0  0  0  0  0  0  0  0  0  0
    5.0485    2.5534    1.7321 H   0  0  0  0  0  0  0  0  0  0  0  0
    2.8386    2.1037    0.7588 H   0  0  0  0  0  0  0  0  0  0  0  0
  1  2  2  0
  2  3  1  0
  3  4  2  0
  4  5  1  0
  5  6  1  0
  5  7  2  0
  7  8  1  0
  8  9  2  0
  9 10  1  0
 10 11  1  0
 11 12  1  0
 12 13  1  0
 13 14  1  0
 14 15  1  0
 15 16  1  0
 11 17  1  0
 17 18  1  0
 18 19  1  0
 19 20  1  0
 20 21  2  0
 21 22  1  0
 22 23  2  0
 23 24  1  0
 24 25  2  0
 19 26  2  0
 26 27  1  0
 17  2  1  0
 25 20  1  0
  9  3  1  0
 16 11  1  0
 27 17  1  0
  4 28  1  0
  7 29  1  0
  8 30  1  0
 12 31  1  0
 12 32  1  0
 13 33  1  0
 13 34  1  0
 14 35  1  0
 15 36  1  0
 15 37  1  0
 16 38  1  0
 16 39  1  0
 18 40  1  0
 18 41  1  0
 21 42  1  0
 22 43  1  0
 23 44  1  0
 24 45  1  0
 25 46  1  0
M  END
$$$$
