
     RDKit          3D

 83 84  0  0  0  0  0  0  0  0999 V2000
   -0.0088    2.5196    1.5769 C   0  0  0  0  0  0  0  0  0  0  0  0
    0.2295    1.6808    0.5514 C   0  0  0  0  0  0  0  0  0  0  0  0
    1.5995    1.0859    0.2458 C   0  0  1  0  0  0  0  0  0  0  0  0
    2.3143    2.0983   -0.4840 O   0  0  0  0  0  0  0  0  0  0  0  0
    2.8581    1.7277   -1.6744 C   0  0  0  0  0  0  0  0  0  0  0  0
    3.4966    2.9098   -2.3354 C   0  0  0  0  0  0  0  0  0  0  0  0
    2.8335    0.5999   -2.1491 O   0  0  0  0  0  0  0  0  0  0  0  0
    2.4214    0.6713    1.4822 C   0  0  0  0  0  0  0  0  0  0  0  0
    3.4684   -0.4142    1.1266 C   0  0  1  0  0  0  0  0  0  0  0  0
    4.6838   -0.1411    1.8745 O   0  0  0  0  0  0  0  0  0  0  0  0
    5.5414    0.7688    1.3353 C   0  0  0  0  0  0  0  0  0  0  0  0
    6.7577    0.8949    2.2001 C   0  0  0  0  0  0  0  0  0  0  0  0
    5.3595    1.4005    0.3047 O   0  0  0  0  0  0  0  0  0  0  0  0
    3.0298   -1.8953    1.4484 C   0  0  0  0  0  0  0  0  0  0  0  0
    4.0487   -2.8564    0.7874 C   0  0  0  0  0  0  0  0  0  0  0  0
    3.0989   -2.1715    2.9730 C   0  0  0  0  0  0  0  0  0  0  0  0
    1.6008   -2.2219    0.9992 C   0  0  0  0  0  0  0  0  0  0  0  0
    1.1965   -2.5841   -0.2332 C   0  0  0  0  0  0  0  0  0  0  0  0
   -0.2339   -2.9414   -0.5885 C   0  0  0  0  0  0  0  0  0  0  0  0
   -0.3039   -4.2950   -1.2891 C   0  0  0  0  0  0  0  0  0  0  0  0
   -0.8265   -1.8591   -1.5038 C   0  0  0  0  0  0  0  0  0  0  0  0
   -0.3034   -1.6022   -2.5941 O   0  0  0  0  0  0  0  0  0  0  0  0
   -2.0400   -1.0229   -0.9927 C   0  0  1  0  0  0  0  0  0  0  0  0
   -2.6046   -0.2415   -2.0665 O   0  0  0  0  0  0  0  0  0  0  0  0
   -3.1155   -0.9320   -3.1249 C   0  0  0  0  0  0  0  0  0  0  0  0
   -3.5133    0.0190   -4.2111 C   0  0  0  0  0  0  0  0  0  0  0  0
   -3.2667   -2.1451   -3.1690 O   0  0  0  0  0  0  0  0  0  0  0  0
   -3.1574   -1.8342   -0.2833 C   0  0  0  0  0  0  0  0  0  0  0  0
   -3.1590   -1.3631    1.1806 C   0  0  2  0  0  0  0  0  0  0  0  0
   -4.5084   -1.5594    1.8554 C   0  0  0  0  0  0  0  0  0  0  0  0
   -2.6902    0.0963    1.0790 C   0  0  2  0  0  0  0  0  0  0  0  0
   -3.7482    0.8910    0.5256 O   0  0  0  0  0  0  0  0  0  0  0  0
   -4.3027    1.8240    1.3461 C   0  0  0  0  0  0  0  0  0  0  0  0
   -5.4070    2.5386    0.6301 C   0  0  0  0  0  0  0  0  0  0  0  0
   -3.9750    2.0459    2.5027 O   0  0  0  0  0  0  0  0  0  0  0  0
   -1.5117   -0.0501    0.1004 C   0  0  2  0  0  0  0  0  0  0  0  0
   -0.8483    1.2381   -0.4404 C   0  0  1  0  0  0  0  0  0  0  0  0
   -1.8027    2.2899   -0.6410 O   0  0  0  0  0  0  0  0  0  0  0  0
   -1.4587    3.2290   -1.5651 C   0  0  0  0  0  0  0  0  0  0  0  0
   -2.5320    4.2697   -1.6603 C   0  0  0  0  0  0  0  0  0  0  0  0
   -0.4438    3.2339   -2.2464 O   0  0  0  0  0  0  0  0  0  0  0  0
   -0.9991    2.9260    1.7638 H   0  0  0  0  0  0  0  0  0  0  0  0
    0.7818    2.8423    2.2473 H   0  0  0  0  0  0  0  0  0  0  0  0
    1.4373    0.1972   -0.3698 H   0  0  0  0  0  0  0  0  0  0  0  0
    2.7382    3.6666   -2.5518 H   0  0  0  0  0  0  0  0  0  0  0  0
    3.9533    2.5936   -3.2779 H   0  0  0  0  0  0  0  0  0  0  0  0
    4.2778    3.3212   -1.6913 H   0  0  0  0  0  0  0  0  0  0  0  0
    1.7607    0.2987    2.2726 H   0  0  0  0  0  0  0  0  0  0  0  0
    2.9277    1.5543    1.8929 H   0  0  0  0  0  0  0  0  0  0  0  0
    3.7107   -0.3696    0.0590 H   0  0  0  0  0  0  0  0  0  0  0  0
    7.4397    1.6274    1.7591 H   0  0  0  0  0  0  0  0  0  0  0  0
    7.2713   -0.0678    2.2595 H   0  0  0  0  0  0  0  0  0  0  0  0
    6.4707    1.2408    3.1962 H   0  0  0  0  0  0  0  0  0  0  0  0
    4.1193   -2.6910   -0.2938 H   0  0  0  0  0  0  0  0  0  0  0  0
    5.0544   -2.7167    1.2009 H   0  0  0  0  0  0  0  0  0  0  0  0
    3.7716   -3.9056    0.9474 H   0  0  0  0  0  0  0  0  0  0  0  0
    2.4544   -1.4899    3.5391 H   0  0  0  0  0  0  0  0  0  0  0  0
    2.7765   -3.1944    3.2045 H   0  0  0  0  0  0  0  0  0  0  0  0
    4.1171   -2.0650    3.3636 H   0  0  0  0  0  0  0  0  0  0  0  0
    0.8461   -2.1648    1.7843 H   0  0  0  0  0  0  0  0  0  0  0  0
    1.9139   -2.6251   -1.0544 H   0  0  0  0  0  0  0  0  0  0  0  0
   -0.8265   -3.0069    0.3280 H   0  0  0  0  0  0  0  0  0  0  0  0
    0.0813   -5.0920   -0.6433 H   0  0  0  0  0  0  0  0  0  0  0  0
    0.2763   -4.3008   -2.2197 H   0  0  0  0  0  0  0  0  0  0  0  0
   -1.3388   -4.5424   -1.5510 H   0  0  0  0  0  0  0  0  0  0  0  0
   -3.7736   -0.5466   -5.1101 H   0  0  0  0  0  0  0  0  0  0  0  0
   -2.6753    0.6778   -4.4551 H   0  0  0  0  0  0  0  0  0  0  0  0
   -4.3800    0.6035   -3.8916 H   0  0  0  0  0  0  0  0  0  0  0  0
   -3.0070   -2.9167   -0.3395 H   0  0  0  0  0  0  0  0  0  0  0  0
   -4.1366   -1.6238   -0.7317 H   0  0  0  0  0  0  0  0  0  0  0  0
   -2.4102   -1.9383    1.7414 H   0  0  0  0  0  0  0  0  0  0  0  0
   -4.7527   -2.6249    1.9133 H   0  0  0  0  0  0  0  0  0  0  0  0
   -4.4902   -1.1588    2.8751 H   0  0  0  0  0  0  0  0  0  0  0  0
   -5.3200   -1.0644    1.3127 H   0  0  0  0  0  0  0  0  0  0  0  0
   -2.3448    0.4660    2.0507 H   0  0  0  0  0  0  0  0  0  0  0  0
   -5.0328    2.9553   -0.3088 H   0  0  0  0  0  0  0  0  0  0  0  0
   -6.2326    1.8480    0.4414 H   0  0  0  0  0  0  0  0  0  0  0  0
   -5.7651    3.3631    1.2517 H   0  0  0  0  0  0  0  0  0  0  0  0
   -0.7418   -0.5946    0.6627 H   0  0  0  0  0  0  0  0  0  0  0  0
   -0.3698    1.0077   -1.4008 H   0  0  0  0  0  0  0  0  0  0  0  0
   -3.3560    3.8979   -2.2737 H   0  0  0  0  0  0  0  0  0  0  0  0
   -2.1157    5.1740   -2.1150 H   0  0  0  0  0  0  0  0  0  0  0  0
   -2.8880    4.5363   -0.6614 H   0  0  0  0  0  0  0  0  0  0  0  0
  1  2  2  0
  2  3  1  0
  3  4  1  0
  4  5  1  0
  5  6  1  0
  5  7  2  0
  3  8  1  0
  8  9  1  0
  9 10  1  0
 10 11  1  0
 11 12  1  0
 11 13  2  0
  9 14  1  0
 14 15  1  0
 14 16  1  0
 14 17  1  0
 17 18  2  3
 18 19  1  0
 19 20  1  0
 19 21  1  0
 21 22  2  0
 21 23  1  0
 23 24  1  6
 24 25  1  0
 25 26  1  0
 25 27  2  0
 23 28  1  0
 28 29  1  0
 29 30  1  0
 29 31  1  0
 31 32  1  0
 32 33  1  0
 33 34  1  0
 33 35  2  0
 31 36  1  0
 36 37  1  0
 37 38  1  0
 38 39  1  0
 39 40  1  0
 39 41  2  0
 37  2  1  0
 36 23  1  0
  1 42  1  0
  1 43  1  0
  3 44  1  6
  6 45  1  0
  6 46  1  0
  6 47  1  0
  8 48  1  0
  8 49  1  0
  9 50  1  6
 12 51  1  0
 12 52  1  0
 12 53  1  0
 15 54  1  0
 15 55  1  0
 15 56  1  0
 16 57  1  0
 16 58  1  0
 16 59  1  0
 17 60  1  0
 18 61  1  0
 19 62  1  0
 20 63  1  0
 20 64  1  0
 20 65  1  0
 26 66  1  0
 26 67  1  0
 26 68  1  0
 28 69  1  0
 28 70  1  0
 29 71  1  1
 30 72  1  0
 30 73  1  0
 30 74  1  0
 31 75  1  1
 34 76  1  0
 34 77  1  0
 34 78  1  0
 36 79  1  1
 37 80  1  6
 40 81  1  0
 40 82  1  0
 40 83  1  0
M  END
$$$$
