
     RDKit          3D

 51 53  0  0  0  0  0  0  0  0999 V2000
    5.2947   -1.5966    1.7914 O   0  0  0  0  0  0  0  0  0  0  0  0
    4.6191   -0.5765    1.7597 C   0  0  0  0  0  0  0  0  0  0  0  0
    3.4154   -0.3788    2.3897 N   0  0  0  0  0  0  0  0  0  0  0  0
    2.7069   -1.4439    3.0503 C   0  0  0  0  0  0  0  0  0  0  0  0
    1.7508   -2.0418    2.0884 C   0  0  0  0  0  0  0  0  0  0  0  0
    1.8450   -3.0664    1.1708 C   0  0  0  0  0  0  0  0  0  0  0  0
    0.5808   -3.1522    0.5387 C   0  0  0  0  0  0  0  0  0  0  0  0
   -0.2142   -2.1741    1.1050 C   0  0  0  0  0  0  0  0  0  0  0  0
   -1.5829   -1.8053    0.8520 C   0  0  0  0  0  0  0  0  0  0  0  0
   -2.1493   -0.8443    1.5107 N   0  0  0  0  0  0  0  0  0  0  0  0
   -3.4441   -0.4908    1.2307 N   0  0  0  0  0  0  0  0  0  0  0  0
   -4.1495   -0.7199    0.0630 C   0  0  0  0  0  0  0  0  0  0  0  0
   -3.8190   -1.3716   -0.9193 O   0  0  0  0  0  0  0  0  0  0  0  0
   -5.5235   -0.0206    0.0679 C   0  0  0  0  0  0  0  0  0  0  0  0
   -5.8387    0.6453    1.0438 O   0  0  0  0  0  0  0  0  0  0  0  0
   -6.2319   -0.2602   -1.0885 N   0  0  0  0  0  0  0  0  0  0  0  0
   -7.5150    0.2040   -1.4443 C   0  0  0  0  0  0  0  0  0  0  0  0
   -8.2823    1.0217   -0.6091 C   0  0  0  0  0  0  0  0  0  0  0  0
   -9.5513    1.4564   -1.0076 C   0  0  0  0  0  0  0  0  0  0  0  0
  -10.0687    1.0798   -2.2445 C   0  0  0  0  0  0  0  0  0  0  0  0
   -9.3180    0.2657   -3.0894 C   0  0  0  0  0  0  0  0  0  0  0  0
   -8.0500   -0.1691   -2.6914 C   0  0  0  0  0  0  0  0  0  0  0  0
   -7.0808   -1.2805   -3.8945 Br  0  0  0  0  0  0  0  0  0  0  0  0
    0.5026   -1.4952    2.0509 O   0  0  0  0  0  0  0  0  0  0  0  0
    5.1074    0.6416    0.9444 C   0  0  0  0  0  0  0  0  0  0  0  0
    4.3946    1.6328    0.8830 O   0  0  0  0  0  0  0  0  0  0  0  0
    6.3424    0.4124    0.3773 N   0  0  0  0  0  0  0  0  0  0  0  0
    7.0998    1.2821   -0.4243 C   0  0  0  0  0  0  0  0  0  0  0  0
    6.6859    2.5668   -0.7801 C   0  0  0  0  0  0  0  0  0  0  0  0
    7.4985    3.3741   -1.5828 C   0  0  0  0  0  0  0  0  0  0  0  0
    8.7294    2.9035   -2.0341 C   0  0  0  0  0  0  0  0  0  0  0  0
    9.1503    1.6235   -1.6837 C   0  0  0  0  0  0  0  0  0  0  0  0
    8.3386    0.8165   -0.8825 C   0  0  0  0  0  0  0  0  0  0  0  0
    2.9157    0.4766    2.1596 H   0  0  0  0  0  0  0  0  0  0  0  0
    3.4111   -2.1977    3.4168 H   0  0  0  0  0  0  0  0  0  0  0  0
    2.1809   -1.0123    3.9073 H   0  0  0  0  0  0  0  0  0  0  0  0
    2.7234   -3.6687    0.9810 H   0  0  0  0  0  0  0  0  0  0  0  0
    0.2841   -3.8414   -0.2399 H   0  0  0  0  0  0  0  0  0  0  0  0
   -2.0988   -2.4117    0.0922 H   0  0  0  0  0  0  0  0  0  0  0  0
   -3.8528    0.1848    1.8788 H   0  0  0  0  0  0  0  0  0  0  0  0
   -5.7549   -0.8482   -1.7724 H   0  0  0  0  0  0  0  0  0  0  0  0
   -7.9230    1.3442    0.3633 H   0  0  0  0  0  0  0  0  0  0  0  0
  -10.1341    2.0932   -0.3456 H   0  0  0  0  0  0  0  0  0  0  0  0
  -11.0551    1.4209   -2.5492 H   0  0  0  0  0  0  0  0  0  0  0  0
   -9.7279   -0.0242   -4.0535 H   0  0  0  0  0  0  0  0  0  0  0  0
    6.7305   -0.5071    0.5762 H   0  0  0  0  0  0  0  0  0  0  0  0
    5.7346    2.9722   -0.4502 H   0  0  0  0  0  0  0  0  0  0  0  0
    7.1652    4.3728   -1.8534 H   0  0  0  0  0  0  0  0  0  0  0  0
    9.3583    3.5341   -2.6571 H   0  0  0  0  0  0  0  0  0  0  0  0
   10.1104    1.2525   -2.0329 H   0  0  0  0  0  0  0  0  0  0  0  0
    8.6896   -0.1788   -0.6225 H   0  0  0  0  0  0  0  0  0  0  0  0
  1  2  2  0
  2  3  1  0
  3  4  1  0
  4  5  1  0
  5  6  2  0
  6  7  1  0
  7  8  2  0
  8  9  1  0
  9 10  2  3
 10 11  1  0
 11 12  1  0
 12 13  2  0
 12 14  1  0
 14 15  2  0
 14 16  1  0
 16 17  1  0
 17 18  2  0
 18 19  1  0
 19 20  2  0
 20 21  1  0
 21 22  2  0
 22 23  1  0
  8 24  1  0
  2 25  1  0
 25 26  2  0
 25 27  1  0
 27 28  1  0
 28 29  2  0
 29 30  1  0
 30 31  2  0
 31 32  1  0
 32 33  2  0
 24  5  1  0
 33 28  1  0
 22 17  1  0
  3 34  1  0
  4 35  1  0
  4 36  1  0
  6 37  1  0
  7 38  1  0
  9 39  1  0
 11 40  1  0
 16 41  1  0
 18 42  1  0
 19 43  1  0
 20 44  1  0
 21 45  1  0
 27 46  1  0
 29 47  1  0
 30 48  1  0
 31 49  1  0
 32 50  1  0
 33 51  1  0
M  END
$$$$
