
     RDKit          3D

 57 59  0  0  0  0  0  0  0  0999 V2000
   -2.8952   -3.7738   -2.1003 C   0  0  0  0  0  0  0  0  0  0  0  0
   -1.9761   -2.8912   -1.2746 C   0  0  0  0  0  0  0  0  0  0  0  0
   -1.6289   -1.5976   -2.0072 C   0  0  0  0  0  0  0  0  0  0  0  0
   -0.7363   -0.7989   -1.2323 O   0  0  0  0  0  0  0  0  0  0  0  0
   -1.2352    0.0564   -0.2825 C   0  0  0  0  0  0  0  0  0  0  0  0
   -2.5962    0.2148    0.0271 C   0  0  0  0  0  0  0  0  0  0  0  0
   -3.0602    1.1206    1.0033 C   0  0  0  0  0  0  0  0  0  0  0  0
   -4.4148    1.2585    1.2971 N   0  0  0  0  0  0  0  0  0  0  0  0
   -5.3763    0.1936    0.9810 C   0  0  0  0  0  0  0  0  0  0  0  0
   -6.1169    0.4888   -0.3145 C   0  0  0  0  0  0  0  0  0  0  0  0
   -4.9421    2.4208    2.0262 C   0  0  0  0  0  0  0  0  0  0  0  0
   -4.9221    3.6772    1.1658 C   0  0  0  0  0  0  0  0  0  0  0  0
   -2.0755    1.8792    1.6540 C   0  0  0  0  0  0  0  0  0  0  0  0
   -0.7124    1.7351    1.3700 C   0  0  0  0  0  0  0  0  0  0  0  0
   -0.2829    0.8174    0.4119 C   0  0  0  0  0  0  0  0  0  0  0  0
    1.1639    0.7076    0.1625 C   0  0  0  0  0  0  0  0  0  0  0  0
    1.9274   -0.3707    0.4354 C   0  0  0  0  0  0  0  0  0  0  0  0
    1.3804   -1.5493    1.0332 C   0  0  0  0  0  0  0  0  0  0  0  0
    1.0313   -2.5448    1.5191 N   0  0  0  0  0  0  0  0  0  0  0  0
    3.3216   -0.2889    0.1247 C   0  0  0  0  0  0  0  0  0  0  0  0
    4.0374    0.7258   -0.3317 N   0  0  0  0  0  0  0  0  0  0  0  0
    5.3243    0.2647   -0.4565 C   0  0  0  0  0  0  0  0  0  0  0  0
    6.4785    0.9294   -0.8960 C   0  0  0  0  0  0  0  0  0  0  0  0
    7.6963    0.2275   -0.9414 C   0  0  0  0  0  0  0  0  0  0  0  0
    8.9491    0.9305   -1.3773 C   0  0  0  0  0  0  0  0  0  0  0  0
    7.7462   -1.1117   -0.5253 C   0  0  0  0  0  0  0  0  0  0  0  0
    6.6028   -1.7903   -0.0837 C   0  0  0  0  0  0  0  0  0  0  0  0
    5.4122   -1.0634   -0.0671 C   0  0  0  0  0  0  0  0  0  0  0  0
    4.1318   -1.3947    0.2958 N   0  0  0  0  0  0  0  0  0  0  0  0
   -2.4281   -4.0453   -3.0523 H   0  0  0  0  0  0  0  0  0  0  0  0
   -3.1224   -4.6970   -1.5582 H   0  0  0  0  0  0  0  0  0  0  0  0
   -3.8400   -3.2635   -2.3134 H   0  0  0  0  0  0  0  0  0  0  0  0
   -2.4482   -2.6735   -0.3105 H   0  0  0  0  0  0  0  0  0  0  0  0
   -1.0530   -3.4341   -1.0386 H   0  0  0  0  0  0  0  0  0  0  0  0
   -2.5117   -1.0364   -2.3334 H   0  0  0  0  0  0  0  0  0  0  0  0
   -1.0878   -1.8516   -2.9267 H   0  0  0  0  0  0  0  0  0  0  0  0
   -3.3271   -0.3684   -0.5163 H   0  0  0  0  0  0  0  0  0  0  0  0
   -6.1080    0.1035    1.7939 H   0  0  0  0  0  0  0  0  0  0  0  0
   -4.8961   -0.7907    0.9321 H   0  0  0  0  0  0  0  0  0  0  0  0
   -6.7064    1.4073   -0.2304 H   0  0  0  0  0  0  0  0  0  0  0  0
   -5.4282    0.6109   -1.1561 H   0  0  0  0  0  0  0  0  0  0  0  0
   -6.8037   -0.3298   -0.5516 H   0  0  0  0  0  0  0  0  0  0  0  0
   -5.9833    2.2392    2.3213 H   0  0  0  0  0  0  0  0  0  0  0  0
   -4.4043    2.5793    2.9672 H   0  0  0  0  0  0  0  0  0  0  0  0
   -5.3721    4.5131    1.7107 H   0  0  0  0  0  0  0  0  0  0  0  0
   -5.4891    3.5309    0.2409 H   0  0  0  0  0  0  0  0  0  0  0  0
   -3.9046    3.9680    0.8888 H   0  0  0  0  0  0  0  0  0  0  0  0
   -2.3404    2.5984    2.4226 H   0  0  0  0  0  0  0  0  0  0  0  0
    0.0058    2.3441    1.9146 H   0  0  0  0  0  0  0  0  0  0  0  0
    1.6079    1.6004   -0.2764 H   0  0  0  0  0  0  0  0  0  0  0  0
    6.4126    1.9703   -1.1944 H   0  0  0  0  0  0  0  0  0  0  0  0
    9.6408    0.2318   -1.8596 H   0  0  0  0  0  0  0  0  0  0  0  0
    9.4454    1.3804   -0.5120 H   0  0  0  0  0  0  0  0  0  0  0  0
    8.7230    1.7172   -2.1047 H   0  0  0  0  0  0  0  0  0  0  0  0
    8.6946   -1.6471   -0.5438 H   0  0  0  0  0  0  0  0  0  0  0  0
    6.6508   -2.8271    0.2309 H   0  0  0  0  0  0  0  0  0  0  0  0
    3.8417   -2.3029    0.6311 H   0  0  0  0  0  0  0  0  0  0  0  0
  1  2  1  0
  2  3  1  0
  3  4  1  0
  4  5  1  0
  5  6  2  0
  6  7  1  0
  7  8  1  0
  8  9  1  0
  9 10  1  0
  8 11  1  0
 11 12  1  0
  7 13  2  0
 13 14  1  0
 14 15  2  0
 15 16  1  0
 16 17  2  3
 17 18  1  0
 18 19  3  0
 17 20  1  0
 20 21  2  0
 21 22  1  0
 22 23  2  0
 23 24  1  0
 24 25  1  0
 24 26  2  0
 26 27  1  0
 27 28  2  0
 28 29  1  0
 15  5  1  0
 29 20  1  0
 28 22  1  0
  1 30  1  0
  1 31  1  0
  1 32  1  0
  2 33  1  0
  2 34  1  0
  3 35  1  0
  3 36  1  0
  6 37  1  0
  9 38  1  0
  9 39  1  0
 10 40  1  0
 10 41  1  0
 10 42  1  0
 11 43  1  0
 11 44  1  0
 12 45  1  0
 12 46  1  0
 12 47  1  0
 13 48  1  0
 14 49  1  0
 16 50  1  0
 23 51  1  0
 25 52  1  0
 25 53  1  0
 25 54  1  0
 26 55  1  0
 27 56  1  0
 29 57  1  0
M  END
$$$$
