
     RDKit          3D

 42 44  0  0  0  0  0  0  0  0999 V2000
   -4.1494    2.6713   -2.1747 C   0  0  0  0  0  0  0  0  0  0  0  0
   -3.3791    3.0298   -0.9162 C   0  0  0  0  0  0  0  0  0  0  0  0
   -2.6469    1.9003   -0.4413 O   0  0  0  0  0  0  0  0  0  0  0  0
   -3.2088    1.1175    0.5416 C   0  0  0  0  0  0  0  0  0  0  0  0
   -4.5607    1.1285    0.8966 C   0  0  0  0  0  0  0  0  0  0  0  0
   -5.0296    0.2738    1.8953 C   0  0  0  0  0  0  0  0  0  0  0  0
   -4.1556   -0.6050    2.5281 C   0  0  0  0  0  0  0  0  0  0  0  0
   -2.8052   -0.6310    2.1722 C   0  0  0  0  0  0  0  0  0  0  0  0
   -2.3158    0.2368    1.1950 C   0  0  0  0  0  0  0  0  0  0  0  0
   -0.9707    0.2595    0.7535 N   0  0  0  0  0  0  0  0  0  0  0  0
    0.2135   -0.1748    1.3287 C   0  0  0  0  0  0  0  0  0  0  0  0
    0.4778   -0.5813    2.9280 S   0  0  0  0  0  0  0  0  0  0  0  0
    1.2106   -0.1678    0.3558 N   0  0  0  0  0  0  0  0  0  0  0  0
    2.5943   -0.6115    0.5294 C   0  0  0  0  0  0  0  0  0  0  0  0
    2.7289   -2.1489    0.4676 C   0  0  0  0  0  0  0  0  0  0  0  0
    3.7185   -2.3648   -0.6923 C   0  0  0  0  0  0  0  0  0  0  0  0
    5.1126   -1.8772   -0.2613 C   0  0  0  0  0  0  0  0  0  0  0  0
    4.9574   -0.3489   -0.2527 C   0  0  0  0  0  0  0  0  0  0  0  0
    3.4837   -0.1508   -0.6501 C   0  0  0  0  0  0  0  0  0  0  0  0
    3.2938   -1.2742   -1.6726 C   0  0  0  0  0  0  0  0  0  0  0  0
   -4.6623    3.5493   -2.5775 H   0  0  0  0  0  0  0  0  0  0  0  0
   -4.8914    1.8911   -1.9815 H   0  0  0  0  0  0  0  0  0  0  0  0
   -3.4708    2.2792   -2.9396 H   0  0  0  0  0  0  0  0  0  0  0  0
   -2.6365    3.7944   -1.1715 H   0  0  0  0  0  0  0  0  0  0  0  0
   -4.0181    3.4782   -0.1474 H   0  0  0  0  0  0  0  0  0  0  0  0
   -5.2792    1.7768    0.4082 H   0  0  0  0  0  0  0  0  0  0  0  0
   -6.0814    0.2836    2.1701 H   0  0  0  0  0  0  0  0  0  0  0  0
   -4.5241   -1.2841    3.2932 H   0  0  0  0  0  0  0  0  0  0  0  0
   -2.1707   -1.3651    2.6546 H   0  0  0  0  0  0  0  0  0  0  0  0
   -0.8447    0.8852   -0.0360 H   0  0  0  0  0  0  0  0  0  0  0  0
    0.8587   -0.2069   -0.5912 H   0  0  0  0  0  0  0  0  0  0  0  0
    2.9711   -0.2161    1.4786 H   0  0  0  0  0  0  0  0  0  0  0  0
    1.7704   -2.6327    0.2454 H   0  0  0  0  0  0  0  0  0  0  0  0
    3.1090   -2.5609    1.4082 H   0  0  0  0  0  0  0  0  0  0  0  0
    3.7136   -3.3828   -1.0865 H   0  0  0  0  0  0  0  0  0  0  0  0
    5.4095   -2.2663    0.7178 H   0  0  0  0  0  0  0  0  0  0  0  0
    5.8732   -2.1736   -0.9923 H   0  0  0  0  0  0  0  0  0  0  0  0
    5.1947    0.0844    0.7240 H   0  0  0  0  0  0  0  0  0  0  0  0
    5.6247    0.1014   -0.9964 H   0  0  0  0  0  0  0  0  0  0  0  0
    3.2620    0.8541   -1.0169 H   0  0  0  0  0  0  0  0  0  0  0  0
    3.9611   -1.1873   -2.5367 H   0  0  0  0  0  0  0  0  0  0  0  0
    2.2615   -1.3832   -2.0196 H   0  0  0  0  0  0  0  0  0  0  0  0
  1  2  1  0
  2  3  1  0
  3  4  1  0
  4  5  2  0
  5  6  1  0
  6  7  2  0
  7  8  1  0
  8  9  2  0
  9 10  1  0
 10 11  1  0
 11 12  2  0
 11 13  1  0
 13 14  1  0
 14 15  1  0
 15 16  1  0
 16 17  1  0
 17 18  1  0
 18 19  1  0
 19 20  1  0
  9  4  1  0
 19 14  1  0
 20 16  1  0
  1 21  1  0
  1 22  1  0
  1 23  1  0
  2 24  1  0
  2 25  1  0
  5 26  1  0
  6 27  1  0
  7 28  1  0
  8 29  1  0
 10 30  1  0
 13 31  1  0
 14 32  1  0
 15 33  1  0
 15 34  1  0
 16 35  1  0
 17 36  1  0
 17 37  1  0
 18 38  1  0
 18 39  1  0
 19 40  1  0
 20 41  1  0
 20 42  1  0
M  END
$$$$
