
     RDKit          3D

 53 57  0  0  0  0  0  0  0  0999 V2000
    7.9978    1.7455    0.9787 C   0  0  0  0  0  0  0  0  0  0  0  0
    7.4220    1.1171   -0.1598 O   0  0  0  0  0  0  0  0  0  0  0  0
    6.0767    0.8812   -0.1192 C   0  0  0  0  0  0  0  0  0  0  0  0
    5.2191    1.1834    0.9334 C   0  0  0  0  0  0  0  0  0  0  0  0
    3.8496    0.8862    0.8445 C   0  0  0  0  0  0  0  0  0  0  0  0
    3.3113    0.2813   -0.2990 C   0  0  0  0  0  0  0  0  0  0  0  0
    1.9096   -0.0306   -0.4008 N   0  0  0  0  0  0  0  0  0  0  0  0
    1.3415   -0.7907   -1.4116 C   0  0  0  0  0  0  0  0  0  0  0  0
   -0.0157   -0.9057   -1.2032 C   0  0  0  0  0  0  0  0  0  0  0  0
   -0.8619   -1.6835   -2.0860 C   0  0  0  0  0  0  0  0  0  0  0  0
   -1.0592   -1.2804   -3.4115 C   0  0  0  0  0  0  0  0  0  0  0  0
   -1.8912   -2.0219   -4.2522 C   0  0  0  0  0  0  0  0  0  0  0  0
   -2.5265   -3.1672   -3.7729 C   0  0  0  0  0  0  0  0  0  0  0  0
   -2.3300   -3.5749   -2.4540 C   0  0  0  0  0  0  0  0  0  0  0  0
   -1.4980   -2.8362   -1.6111 C   0  0  0  0  0  0  0  0  0  0  0  0
   -0.3304   -0.1761   -0.0234 C   0  0  0  0  0  0  0  0  0  0  0  0
   -1.5098    0.1154    0.7022 C   0  0  0  0  0  0  0  0  0  0  0  0
   -2.7766   -0.3470    0.2780 N   0  0  0  0  0  0  0  0  0  0  0  0
   -4.0081    0.0841    0.8053 N   0  0  0  0  0  0  0  0  0  0  0  0
   -4.2249    1.5379    0.7264 C   0  0  0  0  0  0  0  0  0  0  0  0
   -4.4426    2.1919    2.0997 C   0  0  0  0  0  0  0  0  0  0  0  0
   -5.5070    1.5870    2.8458 O   0  0  0  0  0  0  0  0  0  0  0  0
   -5.5508    0.1584    2.7140 C   0  0  0  0  0  0  0  0  0  0  0  0
   -4.2703   -0.4663    2.1408 C   0  0  0  0  0  0  0  0  0  0  0  0
   -1.3881    0.8663    1.8260 N   0  0  0  0  0  0  0  0  0  0  0  0
   -0.1777    1.3078    2.1883 C   0  0  0  0  0  0  0  0  0  0  0  0
    0.9861    1.1051    1.5669 N   0  0  0  0  0  0  0  0  0  0  0  0
    0.8710    0.3454    0.4592 C   0  0  0  0  0  0  0  0  0  0  0  0
    4.1867   -0.0208   -1.3540 C   0  0  0  0  0  0  0  0  0  0  0  0
    5.5522    0.2780   -1.2599 C   0  0  0  0  0  0  0  0  0  0  0  0
    9.0678    1.8698    0.7861 H   0  0  0  0  0  0  0  0  0  0  0  0
    7.5705    2.7409    1.1382 H   0  0  0  0  0  0  0  0  0  0  0  0
    7.8906    1.1201    1.8711 H   0  0  0  0  0  0  0  0  0  0  0  0
    5.5761    1.6486    1.8466 H   0  0  0  0  0  0  0  0  0  0  0  0
    3.2447    1.1324    1.7103 H   0  0  0  0  0  0  0  0  0  0  0  0
    1.9412   -1.2328   -2.1937 H   0  0  0  0  0  0  0  0  0  0  0  0
   -0.5744   -0.3860   -3.7957 H   0  0  0  0  0  0  0  0  0  0  0  0
   -2.0456   -1.7054   -5.2808 H   0  0  0  0  0  0  0  0  0  0  0  0
   -3.1749   -3.7435   -4.4284 H   0  0  0  0  0  0  0  0  0  0  0  0
   -2.8248   -4.4683   -2.0812 H   0  0  0  0  0  0  0  0  0  0  0  0
   -1.3525   -3.1658   -0.5843 H   0  0  0  0  0  0  0  0  0  0  0  0
   -2.7899   -0.6329   -0.6992 H   0  0  0  0  0  0  0  0  0  0  0  0
   -3.4264    2.0598    0.1863 H   0  0  0  0  0  0  0  0  0  0  0  0
   -5.1381    1.6817    0.1356 H   0  0  0  0  0  0  0  0  0  0  0  0
   -4.6992    3.2484    1.9687 H   0  0  0  0  0  0  0  0  0  0  0  0
   -3.5351    2.1591    2.7113 H   0  0  0  0  0  0  0  0  0  0  0  0
   -5.7554   -0.2538    3.7078 H   0  0  0  0  0  0  0  0  0  0  0  0
   -6.4117   -0.0877    2.0812 H   0  0  0  0  0  0  0  0  0  0  0  0
   -3.4445   -0.2724    2.8343 H   0  0  0  0  0  0  0  0  0  0  0  0
   -4.3972   -1.5529    2.0732 H   0  0  0  0  0  0  0  0  0  0  0  0
   -0.1404    1.9044    3.0945 H   0  0  0  0  0  0  0  0  0  0  0  0
    3.8522   -0.4736   -2.2814 H   0  0  0  0  0  0  0  0  0  0  0  0
    6.2120    0.0391   -2.0910 H   0  0  0  0  0  0  0  0  0  0  0  0
  1  2  1  0
  2  3  1  0
  3  4  2  0
  4  5  1  0
  5  6  2  0
  6  7  1  0
  7  8  1  0
  8  9  2  0
  9 10  1  0
 10 11  2  0
 11 12  1  0
 12 13  2  0
 13 14  1  0
 14 15  2  0
  9 16  1  0
 16 17  2  0
 17 18  1  0
 18 19  1  0
 19 20  1  0
 20 21  1  0
 21 22  1  0
 22 23  1  0
 23 24  1  0
 17 25  1  0
 25 26  2  0
 26 27  1  0
 27 28  2  0
  6 29  1  0
 29 30  2  0
 30  3  1  0
 28  7  1  0
 15 10  1  0
 28 16  1  0
 24 19  1  0
  1 31  1  0
  1 32  1  0
  1 33  1  0
  4 34  1  0
  5 35  1  0
  8 36  1  0
 11 37  1  0
 12 38  1  0
 13 39  1  0
 14 40  1  0
 15 41  1  0
 18 42  1  0
 20 43  1  0
 20 44  1  0
 21 45  1  0
 21 46  1  0
 23 47  1  0
 23 48  1  0
 24 49  1  0
 24 50  1  0
 26 51  1  0
 29 52  1  0
 30 53  1  0
M  END
$$$$
