
     RDKit          3D

 52 55  0  0  0  0  0  0  0  0999 V2000
    5.6338   -0.0038   -2.2171 C   0  0  0  0  0  0  0  0  0  0  0  0
    4.6794    0.0467   -1.1641 O   0  0  0  0  0  0  0  0  0  0  0  0
    5.1569    0.0961    0.1218 C   0  0  0  0  0  0  0  0  0  0  0  0
    6.4863    0.4232    0.4337 C   0  0  0  0  0  0  0  0  0  0  0  0
    6.9066    0.5170    1.7627 C   0  0  0  0  0  0  0  0  0  0  0  0
    6.0041    0.2926    2.7932 C   0  0  0  0  0  0  0  0  0  0  0  0
    4.6806   -0.0293    2.4924 C   0  0  0  0  0  0  0  0  0  0  0  0
    4.2291   -0.1422    1.1643 C   0  0  0  0  0  0  0  0  0  0  0  0
    2.8648   -0.4500    0.9944 N   0  0  0  0  0  0  0  0  0  0  0  0
    2.0260    0.7647    1.0283 C   0  0  0  0  0  0  0  0  0  0  0  0
    0.5618    0.4167    0.6735 C   0  0  0  0  0  0  0  0  0  0  0  0
    0.3559   -0.1936   -0.6709 N   0  0  0  0  0  0  0  0  0  0  0  0
   -0.0868    0.8313   -1.6555 C   0  0  0  0  0  0  0  0  0  0  0  0
   -1.5741    1.1802   -1.4802 C   0  0  0  0  0  0  0  0  0  0  0  0
   -2.0209    2.2498   -1.8809 O   0  0  0  0  0  0  0  0  0  0  0  0
   -2.2919    0.1494   -0.9005 N   0  0  0  0  0  0  0  0  0  0  0  0
   -3.6685    0.0844   -0.6309 C   0  0  0  0  0  0  0  0  0  0  0  0
   -4.5642    1.1145   -0.9163 C   0  0  0  0  0  0  0  0  0  0  0  0
   -5.9272    0.9752   -0.6250 C   0  0  0  0  0  0  0  0  0  0  0  0
   -6.4113   -0.2031   -0.0452 C   0  0  0  0  0  0  0  0  0  0  0  0
   -7.7939   -0.3276    0.2299 N   0  0  0  0  0  0  0  0  0  0  0  0
   -8.4865   -1.3845    0.7666 C   0  0  0  0  0  0  0  0  0  0  0  0
   -9.7639   -1.0847    0.8291 N   0  0  0  0  0  0  0  0  0  0  0  0
   -9.8689    0.1885    0.3330 N   0  0  0  0  0  0  0  0  0  0  0  0
   -8.6843    0.6572   -0.0318 N   0  0  0  0  0  0  0  0  0  0  0  0
   -5.5171   -1.2406    0.2454 C   0  0  0  0  0  0  0  0  0  0  0  0
   -4.1552   -1.0909   -0.0458 C   0  0  0  0  0  0  0  0  0  0  0  0
    1.6220   -0.8112   -1.1525 C   0  0  0  0  0  0  0  0  0  0  0  0
    2.4937   -1.4358   -0.0392 C   0  0  0  0  0  0  0  0  0  0  0  0
    6.3555   -0.8140   -2.0671 H   0  0  0  0  0  0  0  0  0  0  0  0
    5.0912   -0.2125   -3.1461 H   0  0  0  0  0  0  0  0  0  0  0  0
    6.1352    0.9616   -2.3338 H   0  0  0  0  0  0  0  0  0  0  0  0
    7.2184    0.6313   -0.3390 H   0  0  0  0  0  0  0  0  0  0  0  0
    7.9384    0.7734    1.9915 H   0  0  0  0  0  0  0  0  0  0  0  0
    6.3228    0.3705    3.8289 H   0  0  0  0  0  0  0  0  0  0  0  0
    3.9813   -0.2088    3.3069 H   0  0  0  0  0  0  0  0  0  0  0  0
    2.4004    1.5246    0.3288 H   0  0  0  0  0  0  0  0  0  0  0  0
    2.0447    1.1994    2.0364 H   0  0  0  0  0  0  0  0  0  0  0  0
    0.1991   -0.3153    1.4068 H   0  0  0  0  0  0  0  0  0  0  0  0
   -0.0654    1.3067    0.8115 H   0  0  0  0  0  0  0  0  0  0  0  0
    0.5103    1.7471   -1.5682 H   0  0  0  0  0  0  0  0  0  0  0  0
    0.0098    0.4516   -2.6786 H   0  0  0  0  0  0  0  0  0  0  0  0
   -1.7066   -0.6336   -0.6201 H   0  0  0  0  0  0  0  0  0  0  0  0
   -4.2337    2.0490   -1.3641 H   0  0  0  0  0  0  0  0  0  0  0  0
   -6.5906    1.8060   -0.8639 H   0  0  0  0  0  0  0  0  0  0  0  0
   -8.0404   -2.3133    1.0793 H   0  0  0  0  0  0  0  0  0  0  0  0
   -5.8357   -2.1763    0.6943 H   0  0  0  0  0  0  0  0  0  0  0  0
   -3.4782   -1.9087    0.1876 H   0  0  0  0  0  0  0  0  0  0  0  0
    2.2222   -0.0658   -1.6866 H   0  0  0  0  0  0  0  0  0  0  0  0
    1.3626   -1.5931   -1.8752 H   0  0  0  0  0  0  0  0  0  0  0  0
    1.9112   -2.2245    0.4558 H   0  0  0  0  0  0  0  0  0  0  0  0
    3.3609   -1.9455   -0.4730 H   0  0  0  0  0  0  0  0  0  0  0  0
  1  2  1  0
  2  3  1  0
  3  4  2  0
  4  5  1  0
  5  6  2  0
  6  7  1  0
  7  8  2  0
  8  9  1  0
  9 10  1  0
 10 11  1  0
 11 12  1  0
 12 13  1  0
 13 14  1  0
 14 15  2  0
 14 16  1  0
 16 17  1  0
 17 18  2  0
 18 19  1  0
 19 20  2  0
 20 21  1  0
 21 22  1  0
 22 23  2  0
 23 24  1  0
 24 25  2  0
 20 26  1  0
 26 27  2  0
 12 28  1  0
 28 29  1  0
  8  3  1  0
 29  9  1  0
 27 17  1  0
 25 21  1  0
  1 30  1  0
  1 31  1  0
  1 32  1  0
  4 33  1  0
  5 34  1  0
  6 35  1  0
  7 36  1  0
 10 37  1  0
 10 38  1  0
 11 39  1  0
 11 40  1  0
 13 41  1  0
 13 42  1  0
 16 43  1  0
 18 44  1  0
 19 45  1  0
 22 46  1  0
 26 47  1  0
 27 48  1  0
 28 49  1  0
 28 50  1  0
 29 51  1  0
 29 52  1  0
M  END
$$$$
