
     RDKit          3D

 47 50  0  0  0  0  0  0  0  0999 V2000
    2.3496   -0.5286    2.2826 C   0  0  0  0  0  0  0  0  0  0  0  0
    2.5791   -0.0158    0.9491 N   0  0  0  0  0  0  0  0  0  0  0  0
    3.6984    0.6844    0.5279 C   0  0  0  0  0  0  0  0  0  0  0  0
    4.8936    0.9574    1.3211 C   0  0  0  0  0  0  0  0  0  0  0  0
    5.3596    2.2696    1.4608 C   0  0  0  0  0  0  0  0  0  0  0  0
    6.5022    2.5369    2.2213 C   0  0  0  0  0  0  0  0  0  0  0  0
    7.1925    1.4945    2.8426 C   0  0  0  0  0  0  0  0  0  0  0  0
    6.7504    0.1810    2.6930 C   0  0  0  0  0  0  0  0  0  0  0  0
    5.6096   -0.0872    1.9304 C   0  0  0  0  0  0  0  0  0  0  0  0
    3.3906    1.0553   -0.7705 C   0  0  0  0  0  0  0  0  0  0  0  0
    2.1700    0.5723   -1.1590 N   0  0  0  0  0  0  0  0  0  0  0  0
    1.7177   -0.0860   -0.1181 C   0  0  0  0  0  0  0  0  0  0  0  0
    0.2116   -0.9374   -0.0677 S   0  0  0  0  0  0  0  0  0  0  0  0
   -0.2479   -0.8934   -1.8264 C   0  0  0  0  0  0  0  0  0  0  0  0
   -1.6629   -1.4379   -2.0030 C   0  0  0  0  0  0  0  0  0  0  0  0
   -1.7803   -2.5581   -2.5094 O   0  0  0  0  0  0  0  0  0  0  0  0
   -2.7422   -0.6335   -1.5797 N   0  0  0  0  0  0  0  0  0  0  0  0
   -2.5532    0.8035   -1.3347 C   0  0  0  0  0  0  0  0  0  0  0  0
   -3.7890    1.6366   -1.6238 C   0  0  0  0  0  0  0  0  0  0  0  0
   -4.9226    1.1623   -0.7452 C   0  0  0  0  0  0  0  0  0  0  0  0
   -5.1044   -0.3245   -0.8717 C   0  0  0  0  0  0  0  0  0  0  0  0
   -6.3650   -0.8507   -0.5275 C   0  0  0  0  0  0  0  0  0  0  0  0
   -6.6005   -2.2189   -0.5727 C   0  0  0  0  0  0  0  0  0  0  0  0
   -5.5746   -3.0734   -0.9506 C   0  0  0  0  0  0  0  0  0  0  0  0
   -4.3161   -2.5601   -1.2863 C   0  0  0  0  0  0  0  0  0  0  0  0
   -4.0475   -1.1805   -1.2642 C   0  0  0  0  0  0  0  0  0  0  0  0
    2.7143   -1.5571    2.3189 H   0  0  0  0  0  0  0  0  0  0  0  0
    2.8777    0.0908    3.0118 H   0  0  0  0  0  0  0  0  0  0  0  0
    1.2843   -0.4890    2.5200 H   0  0  0  0  0  0  0  0  0  0  0  0
    4.8319    3.0936    0.9877 H   0  0  0  0  0  0  0  0  0  0  0  0
    6.8530    3.5607    2.3273 H   0  0  0  0  0  0  0  0  0  0  0  0
    8.0798    1.7047    3.4346 H   0  0  0  0  0  0  0  0  0  0  0  0
    7.2964   -0.6332    3.1668 H   0  0  0  0  0  0  0  0  0  0  0  0
    5.2939   -1.1195    1.8063 H   0  0  0  0  0  0  0  0  0  0  0  0
    4.0044    1.6326   -1.4498 H   0  0  0  0  0  0  0  0  0  0  0  0
   -0.1416    0.0974   -2.2709 H   0  0  0  0  0  0  0  0  0  0  0  0
    0.4373   -1.5514   -2.3758 H   0  0  0  0  0  0  0  0  0  0  0  0
   -1.7594    1.1904   -1.9744 H   0  0  0  0  0  0  0  0  0  0  0  0
   -2.2364    0.9264   -0.2918 H   0  0  0  0  0  0  0  0  0  0  0  0
   -3.5868    2.6934   -1.4332 H   0  0  0  0  0  0  0  0  0  0  0  0
   -4.0637    1.5440   -2.6846 H   0  0  0  0  0  0  0  0  0  0  0  0
   -4.7154    1.4003    0.3029 H   0  0  0  0  0  0  0  0  0  0  0  0
   -5.8412    1.6864   -1.0349 H   0  0  0  0  0  0  0  0  0  0  0  0
   -7.1701   -0.1856   -0.2193 H   0  0  0  0  0  0  0  0  0  0  0  0
   -7.5762   -2.6171   -0.3109 H   0  0  0  0  0  0  0  0  0  0  0  0
   -5.7402   -4.1436   -0.9838 H   0  0  0  0  0  0  0  0  0  0  0  0
   -3.5607   -3.2917   -1.5481 H   0  0  0  0  0  0  0  0  0  0  0  0
  1  2  1  0
  2  3  1  0
  3  4  1  0
  4  5  2  0
  5  6  1  0
  6  7  2  0
  7  8  1  0
  8  9  2  0
  3 10  2  0
 10 11  1  0
 11 12  2  0
 12 13  1  0
 13 14  1  0
 14 15  1  0
 15 16  2  0
 15 17  1  0
 17 18  1  0
 18 19  1  0
 19 20  1  0
 20 21  1  0
 21 22  2  0
 22 23  1  0
 23 24  2  0
 24 25  1  0
 25 26  2  0
 12  2  1  0
 26 17  1  0
  9  4  1  0
 26 21  1  0
  1 27  1  0
  1 28  1  0
  1 29  1  0
  5 30  1  0
  6 31  1  0
  7 32  1  0
  8 33  1  0
  9 34  1  0
 10 35  1  0
 14 36  1  0
 14 37  1  0
 18 38  1  0
 18 39  1  0
 19 40  1  0
 19 41  1  0
 20 42  1  0
 20 43  1  0
 22 44  1  0
 23 45  1  0
 24 46  1  0
 25 47  1  0
M  END
$$$$
