
     RDKit          3D

 43 44  0  0  0  0  0  0  0  0999 V2000
   -3.9543    3.5589   -0.8770 C   0  0  0  0  0  0  0  0  0  0  0  0
   -2.8499    2.9413   -0.0418 C   0  0  0  0  0  0  0  0  0  0  0  0
   -2.8783    1.5242   -0.2459 O   0  0  0  0  0  0  0  0  0  0  0  0
   -1.9314    0.8327    0.4494 C   0  0  0  0  0  0  0  0  0  0  0  0
   -1.1167    1.3649    1.1977 O   0  0  0  0  0  0  0  0  0  0  0  0
   -1.9713   -0.6174    0.2170 C   0  0  0  0  0  0  0  0  0  0  0  0
   -0.9610   -1.4518    0.6828 C   0  0  0  0  0  0  0  0  0  0  0  0
    0.1815   -1.0583    1.3682 N   0  0  0  0  0  0  0  0  0  0  0  0
    1.2104   -1.8607    1.8317 C   0  0  0  0  0  0  0  0  0  0  0  0
    1.3296   -3.0764    1.7044 O   0  0  0  0  0  0  0  0  0  0  0  0
    2.2921   -1.0615    2.5660 C   0  0  0  0  0  0  0  0  0  0  0  0
    3.3868   -0.7170    1.7164 O   0  0  0  0  0  0  0  0  0  0  0  0
    3.1530    0.3299    0.8907 C   0  0  0  0  0  0  0  0  0  0  0  0
    2.1239    0.9856    0.8538 O   0  0  0  0  0  0  0  0  0  0  0  0
    4.3285    0.5933    0.0238 C   0  0  0  0  0  0  0  0  0  0  0  0
    4.2922    1.7118   -0.8108 C   0  0  0  0  0  0  0  0  0  0  0  0
    5.3866    1.9563   -1.6187 C   0  0  0  0  0  0  0  0  0  0  0  0
    6.4855    1.1730   -1.6452 N   0  0  0  0  0  0  0  0  0  0  0  0
    6.4932    0.0947   -0.8326 C   0  0  0  0  0  0  0  0  0  0  0  0
    5.4505   -0.2368    0.0134 C   0  0  0  0  0  0  0  0  0  0  0  0
   -1.2503   -3.0795    0.3269 S   0  0  0  0  0  0  0  0  0  0  0  0
   -2.7051   -2.7379   -0.4864 C   0  0  0  0  0  0  0  0  0  0  0  0
   -3.4856   -3.8617   -1.0887 C   0  0  0  0  0  0  0  0  0  0  0  0
   -3.0030   -1.3828   -0.4777 C   0  0  0  0  0  0  0  0  0  0  0  0
   -4.2367   -0.7987   -1.0983 C   0  0  0  0  0  0  0  0  0  0  0  0
   -4.9291    3.1517   -0.5886 H   0  0  0  0  0  0  0  0  0  0  0  0
   -3.9749    4.6454   -0.7551 H   0  0  0  0  0  0  0  0  0  0  0  0
   -3.8128    3.3241   -1.9372 H   0  0  0  0  0  0  0  0  0  0  0  0
   -1.8798    3.3416   -0.3569 H   0  0  0  0  0  0  0  0  0  0  0  0
   -3.0176    3.1664    1.0174 H   0  0  0  0  0  0  0  0  0  0  0  0
    0.2971   -0.0454    1.4711 H   0  0  0  0  0  0  0  0  0  0  0  0
    1.8717   -0.1737    3.0543 H   0  0  0  0  0  0  0  0  0  0  0  0
    2.6833   -1.6936    3.3711 H   0  0  0  0  0  0  0  0  0  0  0  0
    3.4349    2.3768   -0.8324 H   0  0  0  0  0  0  0  0  0  0  0  0
    5.4114    2.8129   -2.2867 H   0  0  0  0  0  0  0  0  0  0  0  0
    7.3903   -0.5165   -0.8832 H   0  0  0  0  0  0  0  0  0  0  0  0
    5.5219   -1.1213    0.6366 H   0  0  0  0  0  0  0  0  0  0  0  0
   -3.6505   -3.6785   -2.1557 H   0  0  0  0  0  0  0  0  0  0  0  0
   -4.4607   -3.9489   -0.5980 H   0  0  0  0  0  0  0  0  0  0  0  0
   -2.9759   -4.8262   -0.9935 H   0  0  0  0  0  0  0  0  0  0  0  0
   -4.8002   -0.2192   -0.3600 H   0  0  0  0  0  0  0  0  0  0  0  0
   -4.9094   -1.5718   -1.4817 H   0  0  0  0  0  0  0  0  0  0  0  0
   -3.9699   -0.1500   -1.9387 H   0  0  0  0  0  0  0  0  0  0  0  0
  1  2  1  0
  2  3  1  0
  3  4  1  0
  4  5  2  0
  4  6  1  0
  6  7  2  0
  7  8  1  0
  8  9  1  0
  9 10  2  0
  9 11  1  0
 11 12  1  0
 12 13  1  0
 13 14  2  0
 13 15  1  0
 15 16  2  0
 16 17  1  0
 17 18  2  0
 18 19  1  0
 19 20  2  0
  7 21  1  0
 21 22  1  0
 22 23  1  0
 22 24  2  0
 24 25  1  0
 24  6  1  0
 20 15  1  0
  1 26  1  0
  1 27  1  0
  1 28  1  0
  2 29  1  0
  2 30  1  0
  8 31  1  0
 11 32  1  0
 11 33  1  0
 16 34  1  0
 17 35  1  0
 19 36  1  0
 20 37  1  0
 23 38  1  0
 23 39  1  0
 23 40  1  0
 25 41  1  0
 25 42  1  0
 25 43  1  0
M  END
$$$$
