
     RDKit          3D

 61 64  0  0  0  0  0  0  0  0999 V2000
    9.3325    0.7712    1.2365 C   0  0  0  0  0  0  0  0  0  0  0  0
    8.0900   -0.0256    0.9258 C   0  0  0  0  0  0  0  0  0  0  0  0
    7.8916   -1.1136    1.4551 O   0  0  0  0  0  0  0  0  0  0  0  0
    7.2633    0.6316    0.0308 N   0  0  0  0  0  0  0  0  0  0  0  0
    6.0232    0.1915   -0.4767 C   0  0  0  0  0  0  0  0  0  0  0  0
    5.4418   -1.0384   -0.1560 C   0  0  0  0  0  0  0  0  0  0  0  0
    4.2037   -1.4019   -0.6963 C   0  0  0  0  0  0  0  0  0  0  0  0
    3.5430   -0.5267   -1.5607 C   0  0  0  0  0  0  0  0  0  0  0  0
    1.9636   -0.9956   -2.2233 S   0  0  0  0  0  6  0  0  0  0  0  0
    2.1489   -2.2606   -2.9002 O   0  0  0  0  0  0  0  0  0  0  0  0
    1.4108    0.1488   -2.9168 O   0  0  0  0  0  0  0  0  0  0  0  0
    1.0384   -1.2592   -0.8245 N   0  0  0  0  0  0  0  0  0  0  0  0
    0.7358   -0.0705    0.0371 C   0  0  0  0  0  0  0  0  0  0  0  0
   -0.4490    0.7673   -0.4897 C   0  0  0  0  0  0  0  0  0  0  0  0
   -1.6640   -0.0475   -0.7351 N   0  0  0  0  0  0  0  0  0  0  0  0
   -2.4215   -0.2897    0.3695 C   0  0  0  0  0  0  0  0  0  0  0  0
   -2.3364   -1.3181    1.1793 N   0  0  0  0  0  0  0  0  0  0  0  0
   -3.2480   -1.0834    2.1737 C   0  0  0  0  0  0  0  0  0  0  0  0
   -3.5353   -1.8506    3.3128 C   0  0  0  0  0  0  0  0  0  0  0  0
   -4.5082   -1.3921    4.2085 C   0  0  0  0  0  0  0  0  0  0  0  0
   -5.1819   -0.1921    3.9744 C   0  0  0  0  0  0  0  0  0  0  0  0
   -4.9105    0.5849    2.8421 C   0  0  0  0  0  0  0  0  0  0  0  0
   -3.9363    0.1070    1.9545 C   0  0  0  0  0  0  0  0  0  0  0  0
   -3.4270    0.5726    0.7601 N   0  0  0  0  0  0  0  0  0  0  0  0
   -3.8420    1.7805    0.0719 C   0  0  0  0  0  0  0  0  0  0  0  0
   -4.9652    1.6275   -0.9758 C   0  0  0  0  0  0  0  0  0  0  0  0
   -6.2898    1.1630   -0.3718 C   0  0  0  0  0  0  0  0  0  0  0  0
   -4.5752    0.7252   -2.1444 C   0  0  0  0  0  0  0  0  0  0  0  0
   -1.3673   -1.2402   -1.5696 C   0  0  0  0  0  0  0  0  0  0  0  0
   -0.1996   -2.0806   -1.0227 C   0  0  0  0  0  0  0  0  0  0  0  0
    4.1107    0.7019   -1.8985 C   0  0  0  0  0  0  0  0  0  0  0  0
    5.3496    1.0554   -1.3559 C   0  0  0  0  0  0  0  0  0  0  0  0
    9.0726    1.6160    1.8801 H   0  0  0  0  0  0  0  0  0  0  0  0
    9.7941    1.1338    0.3137 H   0  0  0  0  0  0  0  0  0  0  0  0
   10.0556    0.1341    1.7540 H   0  0  0  0  0  0  0  0  0  0  0  0
    7.5756    1.5412   -0.2901 H   0  0  0  0  0  0  0  0  0  0  0  0
    5.9283   -1.7437    0.5105 H   0  0  0  0  0  0  0  0  0  0  0  0
    3.7631   -2.3636   -0.4392 H   0  0  0  0  0  0  0  0  0  0  0  0
    1.6235    0.5628    0.1412 H   0  0  0  0  0  0  0  0  0  0  0  0
    0.5115   -0.4428    1.0452 H   0  0  0  0  0  0  0  0  0  0  0  0
   -0.6617    1.5715    0.2261 H   0  0  0  0  0  0  0  0  0  0  0  0
   -0.1823    1.2677   -1.4251 H   0  0  0  0  0  0  0  0  0  0  0  0
   -3.0029   -2.7785    3.4888 H   0  0  0  0  0  0  0  0  0  0  0  0
   -4.7368   -1.9776    5.0954 H   0  0  0  0  0  0  0  0  0  0  0  0
   -5.9341    0.1461    4.6849 H   0  0  0  0  0  0  0  0  0  0  0  0
   -5.4421    1.5157    2.6692 H   0  0  0  0  0  0  0  0  0  0  0  0
   -2.9568    2.2180   -0.4023 H   0  0  0  0  0  0  0  0  0  0  0  0
   -4.1497    2.5024    0.8387 H   0  0  0  0  0  0  0  0  0  0  0  0
   -5.1387    2.6301   -1.3900 H   0  0  0  0  0  0  0  0  0  0  0  0
   -7.0878    1.1975   -1.1225 H   0  0  0  0  0  0  0  0  0  0  0  0
   -6.2287    0.1337   -0.0033 H   0  0  0  0  0  0  0  0  0  0  0  0
   -6.5902    1.8135    0.4557 H   0  0  0  0  0  0  0  0  0  0  0  0
   -5.3433    0.7580   -2.9251 H   0  0  0  0  0  0  0  0  0  0  0  0
   -3.6326    1.0534   -2.5939 H   0  0  0  0  0  0  0  0  0  0  0  0
   -4.4691   -0.3189   -1.8339 H   0  0  0  0  0  0  0  0  0  0  0  0
   -2.2611   -1.8684   -1.6675 H   0  0  0  0  0  0  0  0  0  0  0  0
   -1.1291   -0.8911   -2.5817 H   0  0  0  0  0  0  0  0  0  0  0  0
    0.0035   -2.9203   -1.6937 H   0  0  0  0  0  0  0  0  0  0  0  0
   -0.4551   -2.5311   -0.0579 H   0  0  0  0  0  0  0  0  0  0  0  0
    3.6054    1.3828   -2.5801 H   0  0  0  0  0  0  0  0  0  0  0  0
    5.7789    2.0159   -1.6305 H   0  0  0  0  0  0  0  0  0  0  0  0
  1  2  1  0
  2  3  2  0
  2  4  1  0
  4  5  1  0
  5  6  2  0
  6  7  1  0
  7  8  2  0
  8  9  1  0
  9 10  2  0
  9 11  2  0
  9 12  1  0
 12 13  1  0
 13 14  1  0
 14 15  1  0
 15 16  1  0
 16 17  2  0
 17 18  1  0
 18 19  2  0
 19 20  1  0
 20 21  2  0
 21 22  1  0
 22 23  2  0
 23 24  1  0
 24 25  1  0
 25 26  1  0
 26 27  1  0
 26 28  1  0
 15 29  1  0
 29 30  1  0
  8 31  1  0
 31 32  2  0
 32  5  1  0
 30 12  1  0
 24 16  1  0
 23 18  1  0
  1 33  1  0
  1 34  1  0
  1 35  1  0
  4 36  1  0
  6 37  1  0
  7 38  1  0
 13 39  1  0
 13 40  1  0
 14 41  1  0
 14 42  1  0
 19 43  1  0
 20 44  1  0
 21 45  1  0
 22 46  1  0
 25 47  1  0
 25 48  1  0
 26 49  1  0
 27 50  1  0
 27 51  1  0
 27 52  1  0
 28 53  1  0
 28 54  1  0
 28 55  1  0
 29 56  1  0
 29 57  1  0
 30 58  1  0
 30 59  1  0
 31 60  1  0
 32 61  1  0
M  END
$$$$
