
     RDKit          3D

 28 29  0  0  0  0  0  0  0  0999 V2000
   -1.4967    1.7313   -0.0995 O   0  0  0  0  0  0  0  0  0  0  0  0
   -1.8751    0.6559    0.3637 C   0  0  0  0  0  0  0  0  0  0  0  0
   -3.3386    0.4065    0.6386 C   0  0  0  0  0  0  0  0  0  0  0  0
   -3.8271   -0.7215   -0.1157 N   0  0  0  0  0  0  0  0  0  0  0  0
   -4.6036   -0.7164   -1.2290 C   0  0  0  0  0  0  0  0  0  0  0  0
   -4.8366   -1.9540   -1.6009 N   0  0  0  0  0  0  0  0  0  0  0  0
   -4.1618   -2.6921   -0.6708 C   0  0  0  0  0  0  0  0  0  0  0  0
   -3.5205   -1.9803    0.2623 N   0  0  0  0  0  0  0  0  0  0  0  0
   -1.0540   -0.4100    0.7355 N   0  0  0  0  0  0  0  0  0  0  0  0
    0.2889   -0.4830    0.4609 N   0  0  0  0  0  0  0  0  0  0  0  0
    0.9962    0.5928    0.6073 C   0  0  0  0  0  0  0  0  0  0  0  0
    2.4395    0.6185    0.2910 C   0  0  0  0  0  0  0  0  0  0  0  0
    3.0949   -0.5262   -0.1752 C   0  0  0  0  0  0  0  0  0  0  0  0
    4.4604   -0.4755   -0.4662 C   0  0  0  0  0  0  0  0  0  0  0  0
    5.1622    0.7169   -0.2911 C   0  0  0  0  0  0  0  0  0  0  0  0
    6.8437    0.7789   -0.6493 Cl  0  0  0  0  0  0  0  0  0  0  0  0
    4.5111    1.8608    0.1719 C   0  0  0  0  0  0  0  0  0  0  0  0
    3.1453    1.8136    0.4642 C   0  0  0  0  0  0  0  0  0  0  0  0
   -3.9231    1.2887    0.3579 H   0  0  0  0  0  0  0  0  0  0  0  0
   -3.4955    0.2090    1.7040 H   0  0  0  0  0  0  0  0  0  0  0  0
   -4.9615    0.1810   -1.7151 H   0  0  0  0  0  0  0  0  0  0  0  0
   -4.1369   -3.7747   -0.6755 H   0  0  0  0  0  0  0  0  0  0  0  0
   -1.5045   -1.3307    0.7731 H   0  0  0  0  0  0  0  0  0  0  0  0
    0.5724    1.5337    0.9990 H   0  0  0  0  0  0  0  0  0  0  0  0
    2.5495   -1.4570   -0.3144 H   0  0  0  0  0  0  0  0  0  0  0  0
    4.9671   -1.3662   -0.8286 H   0  0  0  0  0  0  0  0  0  0  0  0
    5.0599    2.7896    0.3050 H   0  0  0  0  0  0  0  0  0  0  0  0
    2.6443    2.7104    0.8204 H   0  0  0  0  0  0  0  0  0  0  0  0
  1  2  2  0
  2  3  1  0
  3  4  1  0
  4  5  1  0
  5  6  2  0
  6  7  1  0
  7  8  2  0
  2  9  1  0
  9 10  1  0
 10 11  2  3
 11 12  1  0
 12 13  2  0
 13 14  1  0
 14 15  2  0
 15 16  1  0
 15 17  1  0
 17 18  2  0
  8  4  1  0
 18 12  1  0
  3 19  1  0
  3 20  1  0
  5 21  1  0
  7 22  1  0
  9 23  1  0
 11 24  1  0
 13 25  1  0
 14 26  1  0
 17 27  1  0
 18 28  1  0
M  END
$$$$
