
     RDKit          3D

 37 39  0  0  0  0  0  0  0  0999 V2000
   -1.2123   -3.3564   -1.5104 C   0  0  0  0  0  0  0  0  0  0  0  0
   -2.3830   -2.5893   -1.2417 O   0  0  0  0  0  0  0  0  0  0  0  0
   -2.1961   -1.2548   -1.5549 C   0  0  0  0  0  0  0  0  0  0  0  0
   -3.0591   -0.7232   -2.5153 C   0  0  0  0  0  0  0  0  0  0  0  0
   -2.9938    0.6258   -2.8504 C   0  0  0  0  0  0  0  0  0  0  0  0
   -2.0916    1.4925   -2.2122 C   0  0  0  0  0  0  0  0  0  0  0  0
   -1.9760    2.8316   -2.4696 O   0  0  0  0  0  0  0  0  0  0  0  0
   -2.8674    3.3992   -3.4189 C   0  0  0  0  0  0  0  0  0  0  0  0
   -1.2448    0.9381   -1.2250 C   0  0  0  0  0  0  0  0  0  0  0  0
   -0.0552    1.7195   -0.2531 S   0  0  0  0  0  0  0  0  0  0  0  0
    0.3365    0.2324    0.5330 C   0  0  0  0  0  0  0  0  0  0  0  0
    1.3099    0.1111    1.4832 N   0  0  0  0  0  0  0  0  0  0  0  0
    1.9435    1.2668    2.1093 C   0  0  0  0  0  0  0  0  0  0  0  0
    2.5152    0.8983    3.4773 C   0  0  0  0  0  0  0  0  0  0  0  0
    3.5137   -0.2536    3.3965 C   0  0  0  0  0  0  0  0  0  0  0  0
    3.1960   -1.2340    2.2680 C   0  0  0  0  0  0  0  0  0  0  0  0
    1.7162   -1.2296    1.9016 C   0  0  0  0  0  0  0  0  0  0  0  0
   -0.3790   -0.7845    0.1124 N   0  0  0  0  0  0  0  0  0  0  0  0
   -1.2761   -0.4120   -0.8816 C   0  0  0  0  0  0  0  0  0  0  0  0
   -0.3363   -3.0093   -0.9540 H   0  0  0  0  0  0  0  0  0  0  0  0
   -0.9962   -3.3666   -2.5852 H   0  0  0  0  0  0  0  0  0  0  0  0
   -1.4146   -4.3824   -1.1989 H   0  0  0  0  0  0  0  0  0  0  0  0
   -3.7791   -1.3717   -3.0075 H   0  0  0  0  0  0  0  0  0  0  0  0
   -3.6766    0.9819   -3.6160 H   0  0  0  0  0  0  0  0  0  0  0  0
   -3.9105    3.2573   -3.1208 H   0  0  0  0  0  0  0  0  0  0  0  0
   -2.6764    4.4769   -3.4565 H   0  0  0  0  0  0  0  0  0  0  0  0
   -2.6808    2.9926   -4.4179 H   0  0  0  0  0  0  0  0  0  0  0  0
    1.2227    2.0768    2.2657 H   0  0  0  0  0  0  0  0  0  0  0  0
    2.7407    1.6478    1.4596 H   0  0  0  0  0  0  0  0  0  0  0  0
    2.9928    1.7729    3.9395 H   0  0  0  0  0  0  0  0  0  0  0  0
    1.6896    0.6052    4.1435 H   0  0  0  0  0  0  0  0  0  0  0  0
    4.5294    0.1394    3.2534 H   0  0  0  0  0  0  0  0  0  0  0  0
    3.5203   -0.7832    4.3583 H   0  0  0  0  0  0  0  0  0  0  0  0
    3.5141   -2.2437    2.5503 H   0  0  0  0  0  0  0  0  0  0  0  0
    3.7830   -0.9567    1.3826 H   0  0  0  0  0  0  0  0  0  0  0  0
    1.5717   -1.9631    1.1008 H   0  0  0  0  0  0  0  0  0  0  0  0
    1.1093   -1.5520    2.7549 H   0  0  0  0  0  0  0  0  0  0  0  0
  1  2  1  0
  2  3  1  0
  3  4  2  0
  4  5  1  0
  5  6  2  0
  6  7  1  0
  7  8  1  0
  6  9  1  0
  9 10  1  0
 10 11  1  0
 11 12  1  0
 12 13  1  0
 13 14  1  0
 14 15  1  0
 15 16  1  0
 16 17  1  0
 11 18  2  0
 18 19  1  0
 19  3  1  0
 19  9  2  0
 17 12  1  0
  1 20  1  0
  1 21  1  0
  1 22  1  0
  4 23  1  0
  5 24  1  0
  8 25  1  0
  8 26  1  0
  8 27  1  0
 13 28  1  0
 13 29  1  0
 14 30  1  0
 14 31  1  0
 15 32  1  0
 15 33  1  0
 16 34  1  0
 16 35  1  0
 17 36  1  0
 17 37  1  0
M  END
$$$$
