
     RDKit          3D

 64 68  0  0  0  0  0  0  0  0999 V2000
   -4.1138   -1.0098   -5.4673 C   0  0  0  0  0  0  0  0  0  0  0  0
   -3.8749   -1.3474   -3.9862 C   0  0  0  0  0  0  0  0  0  0  0  0
   -5.1794   -1.0467   -3.2210 C   0  0  0  0  0  0  0  0  0  0  0  0
   -3.5667   -2.8438   -3.8350 C   0  0  0  0  0  0  0  0  0  0  0  0
   -2.7633   -0.4162   -3.4311 C   0  0  0  0  0  0  0  0  0  0  0  0
   -3.0303    0.7322   -3.0624 O   0  0  0  0  0  0  0  0  0  0  0  0
   -1.3236   -0.8288   -3.4507 C   0  0  0  0  0  0  0  0  0  0  0  0
   -0.8326   -1.2773   -4.7126 C   0  0  0  0  0  0  0  0  0  0  0  0
   -0.4485   -1.6559   -5.7401 N   0  0  0  0  0  0  0  0  0  0  0  0
   -0.4873   -0.5885   -2.4113 C   0  0  0  0  0  0  0  0  0  0  0  0
    1.2553   -0.6736   -2.6294 S   0  0  0  0  0  0  0  0  0  0  0  0
    1.5586    0.0502   -1.0929 C   0  0  0  0  0  0  0  0  0  0  0  0
    2.8059    0.2531   -0.6371 C   0  0  0  0  0  0  0  0  0  0  0  0
    3.1829    0.7128    0.6573 C   0  0  0  0  0  0  0  0  0  0  0  0
    3.8651    1.8796    0.8980 C   0  0  0  0  0  0  0  0  0  0  0  0
    3.9867    1.9924    2.2662 N   0  0  0  0  0  0  0  0  0  0  0  0
    4.5507    3.0691    3.0080 C   0  0  0  0  0  0  0  0  0  0  0  0
    4.6165    2.9822    4.4075 C   0  0  0  0  0  0  0  0  0  0  0  0
    5.1620    4.0284    5.1538 C   0  0  0  0  0  0  0  0  0  0  0  0
    5.6391    5.1700    4.5112 C   0  0  0  0  0  0  0  0  0  0  0  0
    5.5687    5.2682    3.1238 C   0  0  0  0  0  0  0  0  0  0  0  0
    5.0331    4.2201    2.3691 C   0  0  0  0  0  0  0  0  0  0  0  0
    3.4856    0.9015    2.8994 N   0  0  0  0  0  0  0  0  0  0  0  0
    2.9761    0.1231    1.9341 C   0  0  0  0  0  0  0  0  0  0  0  0
    2.3110   -1.1328    2.2595 C   0  0  0  0  0  0  0  0  0  0  0  0
    1.3609   -1.1989    3.2823 C   0  0  0  0  0  0  0  0  0  0  0  0
    0.7015   -2.3993    3.5399 C   0  0  0  0  0  0  0  0  0  0  0  0
    1.0193   -3.5025    2.7624 C   0  0  0  0  0  0  0  0  0  0  0  0
    1.9354   -3.4840    1.7678 N   0  0  0  0  0  0  0  0  0  0  0  0
    2.5670   -2.3021    1.5510 C   0  0  0  0  0  0  0  0  0  0  0  0
    0.2882    0.3342   -0.3680 C   0  0  0  0  0  0  0  0  0  0  0  0
    0.2420    0.8728    0.7285 O   0  0  0  0  0  0  0  0  0  0  0  0
   -0.7982   -0.1445   -1.1243 N   0  0  0  0  0  0  0  0  0  0  0  0
   -2.0268   -0.3524   -0.4293 C   0  0  0  0  0  0  0  0  0  0  0  0
   -2.6167    0.6795    0.3148 C   0  0  0  0  0  0  0  0  0  0  0  0
   -3.7852    0.4483    1.0445 C   0  0  0  0  0  0  0  0  0  0  0  0
   -4.3494   -0.8204    1.0504 C   0  0  0  0  0  0  0  0  0  0  0  0
   -5.4651   -1.0444    1.7541 F   0  0  0  0  0  0  0  0  0  0  0  0
   -3.7663   -1.8630    0.3403 C   0  0  0  0  0  0  0  0  0  0  0  0
   -2.6047   -1.6312   -0.4004 C   0  0  0  0  0  0  0  0  0  0  0  0
   -4.2749    0.0655   -5.6074 H   0  0  0  0  0  0  0  0  0  0  0  0
   -3.2641   -1.2943   -6.0941 H   0  0  0  0  0  0  0  0  0  0  0  0
   -4.9914   -1.5355   -5.8597 H   0  0  0  0  0  0  0  0  0  0  0  0
   -5.0520   -1.1866   -2.1448 H   0  0  0  0  0  0  0  0  0  0  0  0
   -5.9953   -1.7021   -3.5478 H   0  0  0  0  0  0  0  0  0  0  0  0
   -5.5107   -0.0129   -3.3799 H   0  0  0  0  0  0  0  0  0  0  0  0
   -3.2947   -3.0979   -2.8075 H   0  0  0  0  0  0  0  0  0  0  0  0
   -2.7447   -3.1654   -4.4809 H   0  0  0  0  0  0  0  0  0  0  0  0
   -4.4348   -3.4561   -4.1063 H   0  0  0  0  0  0  0  0  0  0  0  0
    3.6396    0.0193   -1.2983 H   0  0  0  0  0  0  0  0  0  0  0  0
    4.2299    2.6387    0.2241 H   0  0  0  0  0  0  0  0  0  0  0  0
    4.2458    2.1020    4.9309 H   0  0  0  0  0  0  0  0  0  0  0  0
    5.2143    3.9502    6.2366 H   0  0  0  0  0  0  0  0  0  0  0  0
    6.0583    5.9869    5.0942 H   0  0  0  0  0  0  0  0  0  0  0  0
    5.9333    6.1638    2.6263 H   0  0  0  0  0  0  0  0  0  0  0  0
    5.0035    4.3380    1.2900 H   0  0  0  0  0  0  0  0  0  0  0  0
    1.1235   -0.3103    3.8644 H   0  0  0  0  0  0  0  0  0  0  0  0
   -0.0442   -2.4642    4.3239 H   0  0  0  0  0  0  0  0  0  0  0  0
    0.5339   -4.4600    2.9278 H   0  0  0  0  0  0  0  0  0  0  0  0
    3.3140   -2.3358    0.7627 H   0  0  0  0  0  0  0  0  0  0  0  0
   -2.1784    1.6753    0.3246 H   0  0  0  0  0  0  0  0  0  0  0  0
   -4.2490    1.2489    1.6135 H   0  0  0  0  0  0  0  0  0  0  0  0
   -4.2138   -2.8514    0.3796 H   0  0  0  0  0  0  0  0  0  0  0  0
   -2.1272   -2.4704   -0.8969 H   0  0  0  0  0  0  0  0  0  0  0  0
  1  2  1  0
  2  3  1  0
  2  4  1  0
  2  5  1  0
  5  6  2  0
  5  7  1  0
  7  8  1  0
  8  9  3  0
  7 10  2  3
 10 11  1  0
 11 12  1  0
 12 13  2  3
 13 14  1  0
 14 15  2  0
 15 16  1  0
 16 17  1  0
 17 18  2  0
 18 19  1  0
 19 20  2  0
 20 21  1  0
 21 22  2  0
 16 23  1  0
 23 24  2  0
 24 25  1  0
 25 26  2  0
 26 27  1  0
 27 28  2  0
 28 29  1  0
 29 30  2  0
 12 31  1  0
 31 32  2  0
 31 33  1  0
 33 34  1  0
 34 35  2  0
 35 36  1  0
 36 37  2  0
 37 38  1  0
 37 39  1  0
 39 40  2  0
 33 10  1  0
 40 34  1  0
 24 14  1  0
 30 25  1  0
 22 17  1  0
  1 41  1  0
  1 42  1  0
  1 43  1  0
  3 44  1  0
  3 45  1  0
  3 46  1  0
  4 47  1  0
  4 48  1  0
  4 49  1  0
 13 50  1  0
 15 51  1  0
 18 52  1  0
 19 53  1  0
 20 54  1  0
 21 55  1  0
 22 56  1  0
 26 57  1  0
 27 58  1  0
 28 59  1  0
 30 60  1  0
 35 61  1  0
 36 62  1  0
 39 63  1  0
 40 64  1  0
M  END
$$$$
