
     RDKit          3D

 48 50  0  0  0  0  0  0  0  0999 V2000
    7.4861    0.8708    1.3680 C   0  0  0  0  0  0  0  0  0  0  0  0
    6.0454    1.3065    1.5845 C   0  0  0  0  0  0  0  0  0  0  0  0
    5.1622    0.2146    2.1964 C   0  0  0  0  0  0  0  0  0  0  0  0
    5.0076   -1.0371    1.3300 C   0  0  0  0  0  0  0  0  0  0  0  0
    4.5829   -0.7194    0.0058 O   0  0  0  0  0  0  0  0  0  0  0  0
    3.2465   -0.6261   -0.2562 C   0  0  0  0  0  0  0  0  0  0  0  0
    2.9335   -0.3999   -1.5959 C   0  0  0  0  0  0  0  0  0  0  0  0
    1.6022   -0.2803   -2.0097 C   0  0  0  0  0  0  0  0  0  0  0  0
    0.5452   -0.4002   -1.0959 C   0  0  0  0  0  0  0  0  0  0  0  0
   -0.7746   -0.2235   -1.5579 N   0  0  0  0  0  0  0  0  0  0  0  0
   -1.9409   -0.6148   -0.9543 C   0  0  0  0  0  0  0  0  0  0  0  0
   -2.0620   -1.3081    0.1257 N   0  0  0  0  0  0  0  0  0  0  0  0
   -3.3105   -1.6672    0.5192 C   0  0  0  0  0  0  0  0  0  0  0  0
   -3.3843   -2.6020    1.4979 N   0  0  0  0  0  0  0  0  0  0  0  0
   -4.4068   -1.1698    0.0649 N   0  0  0  0  0  0  0  0  0  0  0  0
   -4.2643   -0.1547   -0.9620 C   0  0  0  0  0  0  0  0  0  0  0  0
   -4.5373    1.2244   -0.3466 C   0  0  0  0  0  0  0  0  0  0  0  0
   -6.0560    1.2990   -0.2091 C   0  0  0  0  0  0  0  0  0  0  0  0
   -6.6245    0.3427   -1.2560 C   0  0  0  0  0  0  0  0  0  0  0  0
   -5.4227   -0.2907   -1.9547 C   0  0  0  0  0  0  0  0  0  0  0  0
   -3.0111   -0.1719   -1.6658 N   0  0  0  0  0  0  0  0  0  0  0  0
    0.8753   -0.5954    0.2486 C   0  0  0  0  0  0  0  0  0  0  0  0
    2.2095   -0.7164    0.6666 C   0  0  0  0  0  0  0  0  0  0  0  0
    7.9272    0.4955    2.2968 H   0  0  0  0  0  0  0  0  0  0  0  0
    8.0875    1.7192    1.0261 H   0  0  0  0  0  0  0  0  0  0  0  0
    7.5579    0.0872    0.6081 H   0  0  0  0  0  0  0  0  0  0  0  0
    6.0407    2.1718    2.2583 H   0  0  0  0  0  0  0  0  0  0  0  0
    5.6213    1.6490    0.6337 H   0  0  0  0  0  0  0  0  0  0  0  0
    5.5606   -0.0762    3.1756 H   0  0  0  0  0  0  0  0  0  0  0  0
    4.1751    0.6555    2.3763 H   0  0  0  0  0  0  0  0  0  0  0  0
    4.3585   -1.7816    1.8053 H   0  0  0  0  0  0  0  0  0  0  0  0
    5.9813   -1.5305    1.2334 H   0  0  0  0  0  0  0  0  0  0  0  0
    3.7333   -0.3136   -2.3273 H   0  0  0  0  0  0  0  0  0  0  0  0
    1.4048   -0.0972   -3.0626 H   0  0  0  0  0  0  0  0  0  0  0  0
   -0.8374   -0.2114   -2.5664 H   0  0  0  0  0  0  0  0  0  0  0  0
   -4.2516   -2.5478    2.0126 H   0  0  0  0  0  0  0  0  0  0  0  0
   -2.5496   -2.6246    2.0662 H   0  0  0  0  0  0  0  0  0  0  0  0
   -4.1985    2.0277   -1.0139 H   0  0  0  0  0  0  0  0  0  0  0  0
   -4.0387    1.3703    0.6180 H   0  0  0  0  0  0  0  0  0  0  0  0
   -6.3647    0.9793    0.7930 H   0  0  0  0  0  0  0  0  0  0  0  0
   -6.4193    2.3218   -0.3516 H   0  0  0  0  0  0  0  0  0  0  0  0
   -7.2693    0.8621   -1.9722 H   0  0  0  0  0  0  0  0  0  0  0  0
   -7.2334   -0.4264   -0.7668 H   0  0  0  0  0  0  0  0  0  0  0  0
   -5.2133    0.2635   -2.8793 H   0  0  0  0  0  0  0  0  0  0  0  0
   -5.6233   -1.3302   -2.2370 H   0  0  0  0  0  0  0  0  0  0  0  0
   -2.8395    0.6691   -2.2001 H   0  0  0  0  0  0  0  0  0  0  0  0
    0.0982   -0.6475    1.0059 H   0  0  0  0  0  0  0  0  0  0  0  0
    2.3905   -0.8682    1.7246 H   0  0  0  0  0  0  0  0  0  0  0  0
  1  2  1  0
  2  3  1  0
  3  4  1  0
  4  5  1  0
  5  6  1  0
  6  7  2  0
  7  8  1  0
  8  9  2  0
  9 10  1  0
 10 11  1  0
 11 12  2  0
 12 13  1  0
 13 14  1  0
 13 15  2  0
 15 16  1  0
 16 17  1  0
 17 18  1  0
 18 19  1  0
 19 20  1  0
 16 21  1  0
  9 22  1  0
 22 23  2  0
 23  6  1  0
 21 11  1  0
 20 16  1  0
  1 24  1  0
  1 25  1  0
  1 26  1  0
  2 27  1  0
  2 28  1  0
  3 29  1  0
  3 30  1  0
  4 31  1  0
  4 32  1  0
  7 33  1  0
  8 34  1  0
 10 35  1  0
 14 36  1  0
 14 37  1  0
 17 38  1  0
 17 39  1  0
 18 40  1  0
 18 41  1  0
 19 42  1  0
 19 43  1  0
 20 44  1  0
 20 45  1  0
 21 46  1  0
 22 47  1  0
 23 48  1  0
M  END
$$$$
