
     RDKit          3D

 49 51  0  0  0  0  0  0  0  0999 V2000
   -1.6123   -0.8924    3.4473 N   0  0  0  0  0  0  0  0  0  0  0  0
   -0.3559   -0.6863    3.0167 C   0  0  0  0  0  0  0  0  0  0  0  0
    0.6541   -0.5749    3.8275 N   0  0  0  0  0  0  0  0  0  0  0  0
    1.8206   -0.3251    2.9290 C   0  0  0  0  0  0  0  0  0  0  0  0
    1.3287   -0.5237    1.4758 C   0  0  0  0  0  0  0  0  0  0  0  0
    1.8821   -1.8106    0.8415 C   0  0  0  0  0  0  0  0  0  0  0  0
    3.3251   -1.6791    0.4112 C   0  0  0  0  0  0  0  0  0  0  0  0
    4.3495   -2.2722    1.1614 C   0  0  0  0  0  0  0  0  0  0  0  0
    5.6816   -2.1382    0.7678 C   0  0  0  0  0  0  0  0  0  0  0  0
    5.9931   -1.4151   -0.3763 C   0  0  0  0  0  0  0  0  0  0  0  0
    7.3072   -1.3105   -0.7233 O   0  0  0  0  0  0  0  0  0  0  0  0
    4.9925   -0.8219   -1.1378 C   0  0  0  0  0  0  0  0  0  0  0  0
    3.6591   -0.9542   -0.7432 C   0  0  0  0  0  0  0  0  0  0  0  0
   -0.1102   -0.6278    1.6872 N   0  0  0  0  0  0  0  0  0  0  0  0
   -1.0446   -0.4343    0.5995 C   0  0  0  0  0  0  0  0  0  0  0  0
   -1.4395    1.0418    0.4734 C   0  0  0  0  0  0  0  0  0  0  0  0
   -2.3671    1.2783   -0.6948 C   0  0  0  0  0  0  0  0  0  0  0  0
   -3.7538    1.1503   -0.5397 C   0  0  0  0  0  0  0  0  0  0  0  0
   -4.6241    1.3576   -1.6218 C   0  0  0  0  0  0  0  0  0  0  0  0
   -6.1173    1.2032   -1.4462 C   0  0  0  0  0  0  0  0  0  0  0  0
   -6.5390   -0.0604   -1.7223 F   0  0  0  0  0  0  0  0  0  0  0  0
   -6.5363    1.4709   -0.1784 F   0  0  0  0  0  0  0  0  0  0  0  0
   -6.8357    2.0265   -2.2584 F   0  0  0  0  0  0  0  0  0  0  0  0
   -4.0831    1.6755   -2.8782 C   0  0  0  0  0  0  0  0  0  0  0  0
   -2.6960    1.7957   -3.0587 C   0  0  0  0  0  0  0  0  0  0  0  0
   -2.1222    2.1642   -4.4071 C   0  0  0  0  0  0  0  0  0  0  0  0
   -2.9039    1.7644   -5.4475 F   0  0  0  0  0  0  0  0  0  0  0  0
   -0.8960    1.6134   -4.6293 F   0  0  0  0  0  0  0  0  0  0  0  0
   -1.9617    3.5075   -4.5499 F   0  0  0  0  0  0  0  0  0  0  0  0
   -1.8487    1.6019   -1.9563 C   0  0  0  0  0  0  0  0  0  0  0  0
   -1.6545   -0.7992    4.4572 H   0  0  0  0  0  0  0  0  0  0  0  0
   -2.3122   -0.3217    2.9996 H   0  0  0  0  0  0  0  0  0  0  0  0
    2.1583    0.7067    3.0797 H   0  0  0  0  0  0  0  0  0  0  0  0
    2.6415   -0.9932    3.2034 H   0  0  0  0  0  0  0  0  0  0  0  0
    1.5740    0.3579    0.8718 H   0  0  0  0  0  0  0  0  0  0  0  0
    1.7682   -2.6577    1.5309 H   0  0  0  0  0  0  0  0  0  0  0  0
    1.2946   -2.0842   -0.0441 H   0  0  0  0  0  0  0  0  0  0  0  0
    4.1195   -2.8430    2.0591 H   0  0  0  0  0  0  0  0  0  0  0  0
    6.4734   -2.5986    1.3523 H   0  0  0  0  0  0  0  0  0  0  0  0
    7.3718   -0.7919   -1.5415 H   0  0  0  0  0  0  0  0  0  0  0  0
    5.2279   -0.2593   -2.0354 H   0  0  0  0  0  0  0  0  0  0  0  0
    2.8810   -0.4916   -1.3467 H   0  0  0  0  0  0  0  0  0  0  0  0
   -0.5995   -0.7775   -0.3422 H   0  0  0  0  0  0  0  0  0  0  0  0
   -1.9348   -1.0569    0.7511 H   0  0  0  0  0  0  0  0  0  0  0  0
   -0.5442    1.6664    0.3583 H   0  0  0  0  0  0  0  0  0  0  0  0
   -1.9208    1.3912    1.3956 H   0  0  0  0  0  0  0  0  0  0  0  0
   -4.1674    0.8925    0.4358 H   0  0  0  0  0  0  0  0  0  0  0  0
   -4.7517    1.8315   -3.7270 H   0  0  0  0  0  0  0  0  0  0  0  0
   -0.7710    1.7039   -2.0878 H   0  0  0  0  0  0  0  0  0  0  0  0
  1  2  1  0
  2  3  2  0
  3  4  1  0
  4  5  1  0
  5  6  1  0
  6  7  1  0
  7  8  2  0
  8  9  1  0
  9 10  2  0
 10 11  1  0
 10 12  1  0
 12 13  2  0
  5 14  1  0
 14 15  1  0
 15 16  1  0
 16 17  1  0
 17 18  2  0
 18 19  1  0
 19 20  1  0
 20 21  1  0
 20 22  1  0
 20 23  1  0
 19 24  2  0
 24 25  1  0
 25 26  1  0
 26 27  1  0
 26 28  1  0
 26 29  1  0
 25 30  2  0
 14  2  1  0
 30 17  1  0
 13  7  1  0
  1 31  1  0
  1 32  1  0
  4 33  1  0
  4 34  1  0
  5 35  1  0
  6 36  1  0
  6 37  1  0
  8 38  1  0
  9 39  1  0
 11 40  1  0
 12 41  1  0
 13 42  1  0
 15 43  1  0
 15 44  1  0
 16 45  1  0
 16 46  1  0
 18 47  1  0
 24 48  1  0
 30 49  1  0
M  END
$$$$
