
     RDKit          3D

 39 41  0  0  0  0  0  0  0  0999 V2000
   -6.3664    1.9923    0.5883 C   0  0  0  0  0  0  0  0  0  0  0  0
   -6.0223    0.5296    0.3679 C   0  0  0  0  0  0  0  0  0  0  0  0
   -5.3715    0.3494   -0.8898 O   0  0  0  0  0  0  0  0  0  0  0  0
   -4.0036    0.3394   -0.9228 C   0  0  0  0  0  0  0  0  0  0  0  0
   -3.4632   -0.1471   -2.1131 C   0  0  0  0  0  0  0  0  0  0  0  0
   -2.0785   -0.2209   -2.3044 C   0  0  0  0  0  0  0  0  0  0  0  0
   -1.2137    0.2102   -1.2832 C   0  0  0  0  0  0  0  0  0  0  0  0
    0.1703    0.1903   -1.3239 N   0  0  0  0  0  0  0  0  0  0  0  0
    0.6510    0.6711   -0.2021 C   0  0  0  0  0  0  0  0  0  0  0  0
    2.0055    0.7404    0.0050 N   0  0  0  0  0  0  0  0  0  0  0  0
    2.6536    1.1919    1.1298 C   0  0  0  0  0  0  0  0  0  0  0  0
    2.1466    1.6381    2.1530 O   0  0  0  0  0  0  0  0  0  0  0  0
    4.1613    1.0724    1.0349 C   0  0  0  0  0  0  0  0  0  0  0  0
    4.6219   -0.2924    1.5280 C   0  0  0  0  0  0  0  0  0  0  0  0
    4.3813   -1.3424    0.5516 N   0  0  0  0  0  0  0  0  0  0  0  0
    5.1465   -1.5705   -0.5623 C   0  0  0  0  0  0  0  0  0  0  0  0
    4.5714   -2.6067   -1.2670 C   0  0  0  0  0  0  0  0  0  0  0  0
    3.4282   -3.0225   -0.5448 C   0  0  0  0  0  0  0  0  0  0  0  0
    3.3401   -2.2317    0.5798 C   0  0  0  0  0  0  0  0  0  0  0  0
   -0.4923    1.1784    0.9478 S   0  0  0  0  0  0  0  0  0  0  0  0
   -1.7693    0.7108   -0.1056 C   0  0  0  0  0  0  0  0  0  0  0  0
   -3.1605    0.7871    0.0981 C   0  0  0  0  0  0  0  0  0  0  0  0
   -6.9209    2.1214    1.5230 H   0  0  0  0  0  0  0  0  0  0  0  0
   -5.4669    2.6132    0.6264 H   0  0  0  0  0  0  0  0  0  0  0  0
   -6.9765    2.3718   -0.2374 H   0  0  0  0  0  0  0  0  0  0  0  0
   -6.9559   -0.0421    0.3190 H   0  0  0  0  0  0  0  0  0  0  0  0
   -5.4547    0.1053    1.2037 H   0  0  0  0  0  0  0  0  0  0  0  0
   -4.1282   -0.4844   -2.9074 H   0  0  0  0  0  0  0  0  0  0  0  0
   -1.6682   -0.6077   -3.2301 H   0  0  0  0  0  0  0  0  0  0  0  0
    2.5352    0.3398   -0.7601 H   0  0  0  0  0  0  0  0  0  0  0  0
    4.4904    1.2728    0.0077 H   0  0  0  0  0  0  0  0  0  0  0  0
    4.5933    1.8607    1.6649 H   0  0  0  0  0  0  0  0  0  0  0  0
    4.1211   -0.5767    2.4587 H   0  0  0  0  0  0  0  0  0  0  0  0
    5.7014   -0.2844    1.7201 H   0  0  0  0  0  0  0  0  0  0  0  0
    6.0312   -0.9852   -0.7701 H   0  0  0  0  0  0  0  0  0  0  0  0
    4.9387   -3.0233   -2.1965 H   0  0  0  0  0  0  0  0  0  0  0  0
    2.7447   -3.8165   -0.8127 H   0  0  0  0  0  0  0  0  0  0  0  0
    2.6152   -2.2289    1.3844 H   0  0  0  0  0  0  0  0  0  0  0  0
   -3.5361    1.1970    1.0257 H   0  0  0  0  0  0  0  0  0  0  0  0
  1  2  1  0
  2  3  1  0
  3  4  1  0
  4  5  2  0
  5  6  1  0
  6  7  2  0
  7  8  1  0
  8  9  2  0
  9 10  1  0
 10 11  1  0
 11 12  2  0
 11 13  1  0
 13 14  1  0
 14 15  1  0
 15 16  1  0
 16 17  2  0
 17 18  1  0
 18 19  2  0
  9 20  1  0
 20 21  1  0
 21 22  2  0
 22  4  1  0
 21  7  1  0
 19 15  1  0
  1 23  1  0
  1 24  1  0
  1 25  1  0
  2 26  1  0
  2 27  1  0
  5 28  1  0
  6 29  1  0
 10 30  1  0
 13 31  1  0
 13 32  1  0
 14 33  1  0
 14 34  1  0
 16 35  1  0
 17 36  1  0
 18 37  1  0
 19 38  1  0
 22 39  1  0
M  END
$$$$
