
     RDKit          3D

 47 50  0  0  0  0  0  0  0  0999 V2000
   -2.0451    1.5019   -0.4227 O   0  0  0  0  0  0  0  0  0  0  0  0
   -2.4140    0.3515   -0.5543 C   0  0  0  0  0  0  0  0  0  0  0  0
   -3.6637   -0.0483   -1.1972 C   0  0  0  0  0  0  0  0  0  0  0  0
   -4.6256    0.7080   -1.8367 C   0  0  0  0  0  0  0  0  0  0  0  0
   -5.7361    0.0277   -2.3465 C   0  0  0  0  0  0  0  0  0  0  0  0
   -5.8583   -1.3705   -2.2017 C   0  0  0  0  0  0  0  0  0  0  0  0
   -4.8722   -2.1133   -1.5444 C   0  0  0  0  0  0  0  0  0  0  0  0
   -3.7838   -1.4190   -1.0546 C   0  0  0  0  0  0  0  0  0  0  0  0
   -2.6090   -1.8886   -0.3231 C   0  0  0  0  0  0  0  0  0  0  0  0
   -2.4369   -3.0375    0.0366 O   0  0  0  0  0  0  0  0  0  0  0  0
   -1.8157   -0.7961   -0.1185 N   0  0  0  0  0  0  0  0  0  0  0  0
   -0.5762   -0.8203    0.6219 C   0  0  0  0  0  0  0  0  0  0  0  0
    0.5981   -0.4123   -0.1683 N   0  0  0  0  0  0  0  0  0  0  0  0
    1.4154    0.6773    0.2049 C   0  0  0  0  0  0  0  0  0  0  0  0
    2.4992    0.9225   -0.3342 O   0  0  0  0  0  0  0  0  0  0  0  0
    0.9451    1.5544    1.3836 C   0  0  0  0  0  0  0  0  0  0  0  0
    1.7433    2.7042    1.6467 O   0  0  0  0  0  0  0  0  0  0  0  0
    2.7124    2.5711    2.6023 C   0  0  0  0  0  0  0  0  0  0  0  0
    3.0151    3.7354    3.3117 C   0  0  0  0  0  0  0  0  0  0  0  0
    3.9926    3.7238    4.3080 C   0  0  0  0  0  0  0  0  0  0  0  0
    4.6834    2.5471    4.5889 C   0  0  0  0  0  0  0  0  0  0  0  0
    4.4027    1.3880    3.8664 C   0  0  0  0  0  0  0  0  0  0  0  0
    3.4228    1.4003    2.8695 C   0  0  0  0  0  0  0  0  0  0  0  0
    0.9129   -1.1912   -1.3462 C   0  0  0  0  0  0  0  0  0  0  0  0
    1.5447   -0.6057   -2.4577 C   0  0  0  0  0  0  0  0  0  0  0  0
    1.8246   -1.3450   -3.6128 C   0  0  0  0  0  0  0  0  0  0  0  0
    1.4699   -2.6823   -3.6723 C   0  0  0  0  0  0  0  0  0  0  0  0
    1.7317   -3.3914   -4.7774 F   0  0  0  0  0  0  0  0  0  0  0  0
    0.8418   -3.2921   -2.5981 C   0  0  0  0  0  0  0  0  0  0  0  0
    0.5645   -2.5505   -1.4432 C   0  0  0  0  0  0  0  0  0  0  0  0
   -4.5211    1.7836   -1.9385 H   0  0  0  0  0  0  0  0  0  0  0  0
   -6.5187    0.5826   -2.8617 H   0  0  0  0  0  0  0  0  0  0  0  0
   -6.7335   -1.8758   -2.6076 H   0  0  0  0  0  0  0  0  0  0  0  0
   -4.9563   -3.1882   -1.4230 H   0  0  0  0  0  0  0  0  0  0  0  0
   -0.7286   -0.1642    1.4793 H   0  0  0  0  0  0  0  0  0  0  0  0
   -0.3910   -1.8143    1.0434 H   0  0  0  0  0  0  0  0  0  0  0  0
    0.8414    0.9433    2.2881 H   0  0  0  0  0  0  0  0  0  0  0  0
   -0.0450    1.9427    1.1283 H   0  0  0  0  0  0  0  0  0  0  0  0
    2.4829    4.6564    3.0879 H   0  0  0  0  0  0  0  0  0  0  0  0
    4.2183    4.6339    4.8571 H   0  0  0  0  0  0  0  0  0  0  0  0
    5.4504    2.5366    5.3588 H   0  0  0  0  0  0  0  0  0  0  0  0
    4.9592    0.4760    4.0671 H   0  0  0  0  0  0  0  0  0  0  0  0
    3.2613    0.4940    2.2960 H   0  0  0  0  0  0  0  0  0  0  0  0
    1.8077    0.4499   -2.4674 H   0  0  0  0  0  0  0  0  0  0  0  0
    2.3123   -0.8757   -4.4610 H   0  0  0  0  0  0  0  0  0  0  0  0
    0.5749   -4.3427   -2.6571 H   0  0  0  0  0  0  0  0  0  0  0  0
    0.1021   -3.0872   -0.6203 H   0  0  0  0  0  0  0  0  0  0  0  0
  1  2  2  0
  2  3  1  0
  3  4  2  0
  4  5  1  0
  5  6  2  0
  6  7  1  0
  7  8  2  0
  8  9  1  0
  9 10  2  0
  9 11  1  0
 11 12  1  0
 12 13  1  0
 13 14  1  0
 14 15  2  0
 14 16  1  0
 16 17  1  0
 17 18  1  0
 18 19  2  0
 19 20  1  0
 20 21  2  0
 21 22  1  0
 22 23  2  0
 13 24  1  0
 24 25  2  0
 25 26  1  0
 26 27  2  0
 27 28  1  0
 27 29  1  0
 29 30  2  0
 11  2  1  0
 23 18  1  0
 30 24  1  0
  8  3  1  0
  4 31  1  0
  5 32  1  0
  6 33  1  0
  7 34  1  0
 12 35  1  0
 12 36  1  0
 16 37  1  0
 16 38  1  0
 19 39  1  0
 20 40  1  0
 21 41  1  0
 22 42  1  0
 23 43  1  0
 25 44  1  0
 26 45  1  0
 29 46  1  0
 30 47  1  0
M  END
$$$$
