
     RDKit          3D

 36 37  0  0  0  0  0  0  0  0999 V2000
   -3.4066   -1.7903    2.1472 C   0  0  0  0  0  0  0  0  0  0  0  0
   -2.2787   -1.6603    1.1234 C   0  0  0  0  0  0  0  0  0  0  0  0
   -2.7313   -0.9086   -0.1415 C   0  0  0  0  0  0  0  0  0  0  0  0
   -2.2428    0.5427   -0.2188 C   0  0  0  0  0  0  0  0  0  0  0  0
   -3.0193    1.4651    0.7260 C   0  0  0  0  0  0  0  0  0  0  0  0
   -0.7214    0.6583   -0.0045 C   0  0  0  0  0  0  0  0  0  0  0  0
   -0.1482   -0.5245    0.6990 N   0  0  0  0  0  0  0  0  0  0  0  0
    1.4835   -0.3578    1.1726 S   0  0  0  0  0  6  0  0  0  0  0  0
    1.9408   -1.6101    1.7334 O   0  0  0  0  0  0  0  0  0  0  0  0
    1.6069    0.8844    1.9064 O   0  0  0  0  0  0  0  0  0  0  0  0
    2.4681   -0.1185   -0.2870 C   0  0  0  0  0  0  0  0  0  0  0  0
    3.3713    0.8622   -0.6489 C   0  0  0  0  0  0  0  0  0  0  0  0
    3.9487    0.6531   -1.9538 C   0  0  0  0  0  0  0  0  0  0  0  0
    4.9243    1.5180   -2.5930 C   0  0  0  0  0  0  0  0  0  0  0  0
    5.4275    1.3687   -3.6954 O   0  0  0  0  0  0  0  0  0  0  0  0
    5.2732    2.5897   -1.8447 O   0  0  0  0  0  0  0  0  0  0  0  0
    3.4305   -0.4998   -2.5035 C   0  0  0  0  0  0  0  0  0  0  0  0
    3.7691   -1.2106   -4.0366 Cl  0  0  0  0  0  0  0  0  0  0  0  0
    2.3099   -1.2987   -1.5099 S   0  0  0  0  0  0  0  0  0  0  0  0
   -1.0324   -1.0398    1.7676 C   0  0  0  0  0  0  0  0  0  0  0  0
   -3.0745   -2.3689    3.0159 H   0  0  0  0  0  0  0  0  0  0  0  0
   -3.7465   -0.8133    2.5033 H   0  0  0  0  0  0  0  0  0  0  0  0
   -4.2674   -2.3089    1.7119 H   0  0  0  0  0  0  0  0  0  0  0  0
   -2.0219   -2.6813    0.8076 H   0  0  0  0  0  0  0  0  0  0  0  0
   -2.3155   -1.4389   -1.0101 H   0  0  0  0  0  0  0  0  0  0  0  0
   -3.8201   -0.9575   -0.2634 H   0  0  0  0  0  0  0  0  0  0  0  0
   -2.4604    0.9099   -1.2313 H   0  0  0  0  0  0  0  0  0  0  0  0
   -2.7523    2.5114    0.5405 H   0  0  0  0  0  0  0  0  0  0  0  0
   -2.8145    1.2573    1.7788 H   0  0  0  0  0  0  0  0  0  0  0  0
   -4.0980    1.3671    0.5641 H   0  0  0  0  0  0  0  0  0  0  0  0
   -0.4798    1.5839    0.5293 H   0  0  0  0  0  0  0  0  0  0  0  0
   -0.2465    0.7145   -0.9911 H   0  0  0  0  0  0  0  0  0  0  0  0
    3.6118    1.6984    0.0001 H   0  0  0  0  0  0  0  0  0  0  0  0
    5.9277    3.0513   -2.4096 H   0  0  0  0  0  0  0  0  0  0  0  0
   -1.2854   -0.2306    2.4614 H   0  0  0  0  0  0  0  0  0  0  0  0
   -0.5296   -1.8176    2.3532 H   0  0  0  0  0  0  0  0  0  0  0  0
  1  2  1  0
  2  3  1  0
  3  4  1  0
  4  5  1  0
  4  6  1  0
  6  7  1  0
  7  8  1  0
  8  9  2  0
  8 10  2  0
  8 11  1  0
 11 12  2  0
 12 13  1  0
 13 14  1  0
 14 15  2  0
 14 16  1  0
 13 17  2  0
 17 18  1  0
 17 19  1  0
  7 20  1  0
 20  2  1  0
 19 11  1  0
  1 21  1  0
  1 22  1  0
  1 23  1  0
  2 24  1  0
  3 25  1  0
  3 26  1  0
  4 27  1  0
  5 28  1  0
  5 29  1  0
  5 30  1  0
  6 31  1  0
  6 32  1  0
 12 33  1  0
 16 34  1  0
 20 35  1  0
 20 36  1  0
M  END
$$$$
