
     RDKit          3D

 61 63  0  0  0  0  0  0  0  0999 V2000
   -2.6467   -3.2424   -2.1681 C   0  0  0  0  0  0  0  0  0  0  0  0
   -1.2313   -2.7071   -2.0894 C   0  0  0  0  0  0  0  0  0  0  0  0
   -1.2746   -1.4481   -1.4092 O   0  0  0  0  0  0  0  0  0  0  0  0
   -0.0839   -0.7998   -1.3045 C   0  0  0  0  0  0  0  0  0  0  0  0
    0.9747   -1.2374   -1.7486 O   0  0  0  0  0  0  0  0  0  0  0  0
   -0.1756    0.4947   -0.6204 C   0  0  0  0  0  0  0  0  0  0  0  0
   -1.3381    1.0924    0.0033 C   0  0  0  0  0  0  0  0  0  0  0  0
   -2.6858    0.5567    0.1205 C   0  0  0  0  0  0  0  0  0  0  0  0
   -3.6998    1.0190   -0.7239 C   0  0  0  0  0  0  0  0  0  0  0  0
   -4.9908    0.4911   -0.6192 C   0  0  0  0  0  0  0  0  0  0  0  0
   -5.2925   -0.5052    0.3246 C   0  0  0  0  0  0  0  0  0  0  0  0
   -6.6486   -1.0619    0.4228 C   0  0  0  0  0  0  0  0  0  0  0  0
   -7.7489   -0.2366    0.7029 C   0  0  0  0  0  0  0  0  0  0  0  0
   -9.0393   -0.7635    0.7931 C   0  0  0  0  0  0  0  0  0  0  0  0
   -9.2510   -2.1246    0.6001 C   0  0  0  0  0  0  0  0  0  0  0  0
   -8.1730   -2.9595    0.3194 C   0  0  0  0  0  0  0  0  0  0  0  0
   -6.8823   -2.4322    0.2332 C   0  0  0  0  0  0  0  0  0  0  0  0
   -4.2631   -0.9559    1.1691 C   0  0  0  0  0  0  0  0  0  0  0  0
   -2.9707   -0.4295    1.0719 C   0  0  0  0  0  0  0  0  0  0  0  0
   -1.0574    2.3337    0.5392 C   0  0  0  0  0  0  0  0  0  0  0  0
    0.5683    2.7777    0.3142 S   0  0  0  0  0  0  0  0  0  0  0  0
    0.9252    1.3391   -0.5092 C   0  0  0  0  0  0  0  0  0  0  0  0
    2.2009    1.0819   -0.9920 N   0  0  0  0  0  0  0  0  0  0  0  0
    3.3062    1.9190   -0.9576 C   0  0  0  0  0  0  0  0  0  0  0  0
    3.3703    3.0595   -0.5107 O   0  0  0  0  0  0  0  0  0  0  0  0
    4.5437    1.2430   -1.5627 C   0  0  0  0  0  0  0  0  0  0  0  0
    5.0626    0.1607   -0.7046 N   0  0  0  0  0  0  0  0  0  0  0  0
    5.6134    0.6427    0.5775 C   0  0  0  0  0  0  0  0  0  0  0  0
    6.9244    1.4546    0.4484 C   0  0  0  0  0  0  0  0  0  0  0  0
    7.4828    1.8829    1.7491 N   0  0  0  0  0  0  0  0  0  0  0  0
    8.0392    0.7563    2.5032 C   0  0  0  0  0  0  0  0  0  0  0  0
    8.5223    2.8952    1.5361 C   0  0  0  0  0  0  0  0  0  0  0  0
   -2.6735   -4.2057   -2.6858 H   0  0  0  0  0  0  0  0  0  0  0  0
   -3.0686   -3.3676   -1.1670 H   0  0  0  0  0  0  0  0  0  0  0  0
   -3.2919   -2.5360   -2.7006 H   0  0  0  0  0  0  0  0  0  0  0  0
   -0.8331   -2.5718   -3.0991 H   0  0  0  0  0  0  0  0  0  0  0  0
   -0.5991   -3.4050   -1.5290 H   0  0  0  0  0  0  0  0  0  0  0  0
   -3.4922    1.7821   -1.4744 H   0  0  0  0  0  0  0  0  0  0  0  0
   -5.7650    0.8523   -1.2958 H   0  0  0  0  0  0  0  0  0  0  0  0
   -7.6036    0.8281    0.8650 H   0  0  0  0  0  0  0  0  0  0  0  0
   -9.8782   -0.1096    1.0146 H   0  0  0  0  0  0  0  0  0  0  0  0
  -10.2545   -2.5345    0.6662 H   0  0  0  0  0  0  0  0  0  0  0  0
   -8.3369   -4.0200    0.1613 H   0  0  0  0  0  0  0  0  0  0  0  0
   -6.0550   -3.1004    0.0039 H   0  0  0  0  0  0  0  0  0  0  0  0
   -4.4672   -1.7200    1.9172 H   0  0  0  0  0  0  0  0  0  0  0  0
   -2.1924   -0.7975    1.7382 H   0  0  0  0  0  0  0  0  0  0  0  0
   -1.7304    3.0016    1.0613 H   0  0  0  0  0  0  0  0  0  0  0  0
    2.3108    0.1822   -1.4581 H   0  0  0  0  0  0  0  0  0  0  0  0
    5.3023    1.9993   -1.7829 H   0  0  0  0  0  0  0  0  0  0  0  0
    4.2590    0.8131   -2.5307 H   0  0  0  0  0  0  0  0  0  0  0  0
    4.3049   -0.4884   -0.4932 H   0  0  0  0  0  0  0  0  0  0  0  0
    5.8080   -0.2549    1.1745 H   0  0  0  0  0  0  0  0  0  0  0  0
    4.8632    1.2190    1.1302 H   0  0  0  0  0  0  0  0  0  0  0  0
    7.6660    0.8763   -0.1190 H   0  0  0  0  0  0  0  0  0  0  0  0
    6.7043    2.3547   -0.1388 H   0  0  0  0  0  0  0  0  0  0  0  0
    8.4790    1.1061    3.4457 H   0  0  0  0  0  0  0  0  0  0  0  0
    8.8173    0.2245    1.9418 H   0  0  0  0  0  0  0  0  0  0  0  0
    7.2627    0.0382    2.7830 H   0  0  0  0  0  0  0  0  0  0  0  0
    8.1150    3.7676    1.0116 H   0  0  0  0  0  0  0  0  0  0  0  0
    8.9034    3.2639    2.4951 H   0  0  0  0  0  0  0  0  0  0  0  0
    9.3652    2.5063    0.9541 H   0  0  0  0  0  0  0  0  0  0  0  0
  1  2  1  0
  2  3  1  0
  3  4  1  0
  4  5  2  0
  4  6  1  0
  6  7  1  0
  7  8  1  0
  8  9  2  0
  9 10  1  0
 10 11  2  0
 11 12  1  0
 12 13  2  0
 13 14  1  0
 14 15  2  0
 15 16  1  0
 16 17  2  0
 11 18  1  0
 18 19  2  0
  7 20  2  0
 20 21  1  0
 21 22  1  0
 22 23  1  0
 23 24  1  0
 24 25  2  0
 24 26  1  0
 26 27  1  0
 27 28  1  0
 28 29  1  0
 29 30  1  0
 30 31  1  0
 30 32  1  0
 22  6  2  0
 19  8  1  0
 17 12  1  0
  1 33  1  0
  1 34  1  0
  1 35  1  0
  2 36  1  0
  2 37  1  0
  9 38  1  0
 10 39  1  0
 13 40  1  0
 14 41  1  0
 15 42  1  0
 16 43  1  0
 17 44  1  0
 18 45  1  0
 19 46  1  0
 20 47  1  0
 23 48  1  0
 26 49  1  0
 26 50  1  0
 27 51  1  0
 28 52  1  0
 28 53  1  0
 29 54  1  0
 29 55  1  0
 31 56  1  0
 31 57  1  0
 31 58  1  0
 32 59  1  0
 32 60  1  0
 32 61  1  0
M  END
$$$$
