
     RDKit          3D

 50 50  0  0  0  0  0  0  0  0999 V2000
    9.2632   -0.8104   -0.3259 C   0  0  0  0  0  0  0  0  0  0  0  0
    8.0478   -0.2926   -0.5769 C   0  0  0  0  0  0  0  0  0  0  0  0
    7.8432    1.1945   -0.6789 C   0  0  0  0  0  0  0  0  0  0  0  0
    6.8452   -1.1694   -0.8368 C   0  0  0  0  0  0  0  0  0  0  0  0
    5.8162   -1.3318    0.6459 S   0  0  0  0  0  0  0  0  0  0  0  0
    4.6740   -0.0451    0.4280 C   0  0  0  0  0  0  0  0  0  0  0  0
    4.5264    0.6756   -0.6657 N   0  0  0  0  0  0  0  0  0  0  0  0
    3.5161    1.5809   -0.4180 N   0  0  0  0  0  0  0  0  0  0  0  0
    3.1092    1.3447    0.8093 C   0  0  0  0  0  0  0  0  0  0  0  0
    2.0449    2.0088    1.5962 C   0  0  0  0  0  0  0  0  0  0  0  0
    0.7769    1.1578    1.7092 C   0  0  0  0  0  0  0  0  0  0  0  0
    0.0212    1.0355    0.3809 C   0  0  0  0  0  0  0  0  0  0  0  0
   -1.2084    0.1262    0.4628 C   0  0  0  0  0  0  0  0  0  0  0  0
   -2.3010    0.6584    1.3884 C   0  0  0  0  0  0  0  0  0  0  0  0
   -3.4789   -0.1759    1.3480 N   0  0  0  0  0  0  0  0  0  0  0  0
   -4.4520   -0.0357    0.4056 C   0  0  0  0  0  0  0  0  0  0  0  0
   -4.4827    0.8373   -0.4458 O   0  0  0  0  0  0  0  0  0  0  0  0
   -5.3584   -1.0252    0.5728 O   0  0  0  0  0  0  0  0  0  0  0  0
   -6.5105   -1.1281   -0.3030 C   0  0  0  0  0  0  0  0  0  0  0  0
   -7.2790   -2.3568    0.2073 C   0  0  0  0  0  0  0  0  0  0  0  0
   -6.0868   -1.3845   -1.7536 C   0  0  0  0  0  0  0  0  0  0  0  0
   -7.4171    0.1015   -0.1792 C   0  0  0  0  0  0  0  0  0  0  0  0
    3.7949    0.3280    1.4131 O   0  0  0  0  0  0  0  0  0  0  0  0
    9.4253   -1.8829   -0.2690 H   0  0  0  0  0  0  0  0  0  0  0  0
   10.1292   -0.1758   -0.1614 H   0  0  0  0  0  0  0  0  0  0  0  0
    8.7900    1.7421   -0.6190 H   0  0  0  0  0  0  0  0  0  0  0  0
    7.3773    1.4510   -1.6359 H   0  0  0  0  0  0  0  0  0  0  0  0
    7.2042    1.5559    0.1319 H   0  0  0  0  0  0  0  0  0  0  0  0
    6.2789   -0.8164   -1.7050 H   0  0  0  0  0  0  0  0  0  0  0  0
    7.1766   -2.1820   -1.0965 H   0  0  0  0  0  0  0  0  0  0  0  0
    1.8064    2.9805    1.1486 H   0  0  0  0  0  0  0  0  0  0  0  0
    2.4283    2.2117    2.6034 H   0  0  0  0  0  0  0  0  0  0  0  0
    1.0253    0.1582    2.0870 H   0  0  0  0  0  0  0  0  0  0  0  0
    0.1244    1.6285    2.4536 H   0  0  0  0  0  0  0  0  0  0  0  0
   -0.2820    2.0316    0.0362 H   0  0  0  0  0  0  0  0  0  0  0  0
    0.6889    0.6259   -0.3862 H   0  0  0  0  0  0  0  0  0  0  0  0
   -1.6157    0.0096   -0.5496 H   0  0  0  0  0  0  0  0  0  0  0  0
   -0.9064   -0.8775    0.7874 H   0  0  0  0  0  0  0  0  0  0  0  0
   -1.9626    0.6709    2.4287 H   0  0  0  0  0  0  0  0  0  0  0  0
   -2.5784    1.6792    1.1032 H   0  0  0  0  0  0  0  0  0  0  0  0
   -3.5487   -0.9970    1.9321 H   0  0  0  0  0  0  0  0  0  0  0  0
   -8.1839   -2.5442   -0.3803 H   0  0  0  0  0  0  0  0  0  0  0  0
   -7.5685   -2.2272    1.2568 H   0  0  0  0  0  0  0  0  0  0  0  0
   -6.6496   -3.2536    0.1692 H   0  0  0  0  0  0  0  0  0  0  0  0
   -6.9495   -1.6265   -2.3837 H   0  0  0  0  0  0  0  0  0  0  0  0
   -5.3714   -2.2127   -1.8090 H   0  0  0  0  0  0  0  0  0  0  0  0
   -5.5934   -0.5138   -2.1958 H   0  0  0  0  0  0  0  0  0  0  0  0
   -6.9479    0.9992   -0.5928 H   0  0  0  0  0  0  0  0  0  0  0  0
   -8.3639   -0.0466   -0.7099 H   0  0  0  0  0  0  0  0  0  0  0  0
   -7.6371    0.3181    0.8722 H   0  0  0  0  0  0  0  0  0  0  0  0
  1  2  2  0
  2  3  1  0
  2  4  1  0
  4  5  1  0
  5  6  1  0
  6  7  2  0
  7  8  1  0
  8  9  2  0
  9 10  1  0
 10 11  1  0
 11 12  1  0
 12 13  1  0
 13 14  1  0
 14 15  1  0
 15 16  1  0
 16 17  2  0
 16 18  1  0
 18 19  1  0
 19 20  1  0
 19 21  1  0
 19 22  1  0
  9 23  1  0
 23  6  1  0
  1 24  1  0
  1 25  1  0
  3 26  1  0
  3 27  1  0
  3 28  1  0
  4 29  1  0
  4 30  1  0
 10 31  1  0
 10 32  1  0
 11 33  1  0
 11 34  1  0
 12 35  1  0
 12 36  1  0
 13 37  1  0
 13 38  1  0
 14 39  1  0
 14 40  1  0
 15 41  1  0
 20 42  1  0
 20 43  1  0
 20 44  1  0
 21 45  1  0
 21 46  1  0
 21 47  1  0
 22 48  1  0
 22 49  1  0
 22 50  1  0
M  END
$$$$
