
     RDKit          3D

 43 45  0  0  0  0  0  0  0  0999 V2000
    4.7408   -2.2857   -0.9673 C   0  0  0  0  0  0  0  0  0  0  0  0
    3.7897   -2.1604    0.0910 O   0  0  0  0  0  0  0  0  0  0  0  0
    3.2285   -0.9078    0.0946 C   0  0  0  0  0  0  0  0  0  0  0  0
    1.9101   -0.8130   -0.3670 C   0  0  0  0  0  0  0  0  0  0  0  0
    1.2377    0.4171   -0.3617 C   0  0  0  0  0  0  0  0  0  0  0  0
   -0.1597    0.4484   -0.8417 C   0  0  0  0  0  0  0  0  0  0  0  0
   -0.4049    0.2834   -2.2426 C   0  0  0  0  0  0  0  0  0  0  0  0
   -0.5635    0.1310   -3.3820 N   0  0  0  0  0  0  0  0  0  0  0  0
   -1.1462    0.5933    0.0649 C   0  0  0  0  0  0  0  0  0  0  0  0
   -2.5821    0.6399   -0.2609 C   0  0  0  0  0  0  0  0  0  0  0  0
   -3.0832    1.8197   -0.8320 C   0  0  0  0  0  0  0  0  0  0  0  0
   -4.4308    1.9253   -1.1582 C   0  0  0  0  0  0  0  0  0  0  0  0
   -5.2899    0.8564   -0.9133 C   0  0  0  0  0  0  0  0  0  0  0  0
   -4.8171   -0.3337   -0.3393 C   0  0  0  0  0  0  0  0  0  0  0  0
   -5.6976   -1.4016   -0.0993 C   0  0  0  0  0  0  0  0  0  0  0  0
   -5.2456   -2.5918    0.4686 C   0  0  0  0  0  0  0  0  0  0  0  0
   -3.9056   -2.7305    0.8056 C   0  0  0  0  0  0  0  0  0  0  0  0
   -3.0169   -1.6785    0.5733 C   0  0  0  0  0  0  0  0  0  0  0  0
   -3.4461   -0.4584   -0.0019 C   0  0  0  0  0  0  0  0  0  0  0  0
    1.9362    1.5346    0.1303 C   0  0  0  0  0  0  0  0  0  0  0  0
    1.3143    2.8517    0.1509 N   0  0  0  0  0  4  0  0  0  0  0  0
    0.7792    3.2494   -0.8912 O   0  0  0  0  0  0  0  0  0  0  0  0
    1.3827    3.4868    1.2113 O   0  0  0  0  0  1  0  0  0  0  0  0
    3.2507    1.4397    0.6238 C   0  0  0  0  0  0  0  0  0  0  0  0
    3.9019    0.2066    0.6202 C   0  0  0  0  0  0  0  0  0  0  0  0
    5.1666   -0.0106    1.0946 O   0  0  0  0  0  0  0  0  0  0  0  0
    5.7941    1.0466    1.8100 C   0  0  0  0  0  0  0  0  0  0  0  0
    5.0528   -3.3336   -1.0117 H   0  0  0  0  0  0  0  0  0  0  0  0
    5.6322   -1.6782   -0.7834 H   0  0  0  0  0  0  0  0  0  0  0  0
    4.2955   -2.0253   -1.9343 H   0  0  0  0  0  0  0  0  0  0  0  0
    1.4182   -1.7167   -0.7258 H   0  0  0  0  0  0  0  0  0  0  0  0
   -0.9348    0.6794    1.1293 H   0  0  0  0  0  0  0  0  0  0  0  0
   -2.4263    2.6654   -1.0292 H   0  0  0  0  0  0  0  0  0  0  0  0
   -4.8125    2.8395   -1.6055 H   0  0  0  0  0  0  0  0  0  0  0  0
   -6.3402    0.9599   -1.1783 H   0  0  0  0  0  0  0  0  0  0  0  0
   -6.7510   -1.3138   -0.3573 H   0  0  0  0  0  0  0  0  0  0  0  0
   -5.9406   -3.4083    0.6455 H   0  0  0  0  0  0  0  0  0  0  0  0
   -3.5483   -3.6570    1.2479 H   0  0  0  0  0  0  0  0  0  0  0  0
   -1.9751   -1.8255    0.8476 H   0  0  0  0  0  0  0  0  0  0  0  0
    3.7385    2.3343    1.0008 H   0  0  0  0  0  0  0  0  0  0  0  0
    5.1896    1.3592    2.6682 H   0  0  0  0  0  0  0  0  0  0  0  0
    6.0103    1.8920    1.1488 H   0  0  0  0  0  0  0  0  0  0  0  0
    6.7479    0.6709    2.1930 H   0  0  0  0  0  0  0  0  0  0  0  0
  1  2  1  0
  2  3  1  0
  3  4  2  0
  4  5  1  0
  5  6  1  0
  6  7  1  0
  7  8  3  0
  6  9  2  3
  9 10  1  0
 10 11  2  0
 11 12  1  0
 12 13  2  0
 13 14  1  0
 14 15  2  0
 15 16  1  0
 16 17  2  0
 17 18  1  0
 18 19  2  0
  5 20  2  0
 20 21  1  0
 21 22  2  0
 21 23  1  0
 20 24  1  0
 24 25  2  0
 25 26  1  0
 26 27  1  0
 25  3  1  0
 19 10  1  0
 19 14  1  0
  1 28  1  0
  1 29  1  0
  1 30  1  0
  4 31  1  0
  9 32  1  0
 11 33  1  0
 12 34  1  0
 13 35  1  0
 15 36  1  0
 16 37  1  0
 17 38  1  0
 18 39  1  0
 24 40  1  0
 27 41  1  0
 27 42  1  0
 27 43  1  0
M  CHG  2  21   1  23  -1
M  END
$$$$
