
     RDKit          3D

 58 61  0  0  0  0  0  0  0  0999 V2000
    9.1510   -0.0292   -1.3997 C   0  0  0  0  0  0  0  0  0  0  0  0
    7.8627    0.1002   -0.6424 C   0  0  0  0  0  0  0  0  0  0  0  0
    6.9934   -0.9902   -0.5338 C   0  0  0  0  0  0  0  0  0  0  0  0
    5.7801   -0.8628    0.1457 C   0  0  0  0  0  0  0  0  0  0  0  0
    5.4111    0.3591    0.7237 C   0  0  0  0  0  0  0  0  0  0  0  0
    4.0892    0.4943    1.4332 C   0  0  0  0  0  0  0  0  0  0  0  0
    3.0183    0.6896    0.4819 N   0  0  0  0  0  0  0  0  0  0  0  0
    2.1874   -0.3413    0.1013 C   0  0  0  0  0  0  0  0  0  0  0  0
    2.2280   -1.4560    0.6122 O   0  0  0  0  0  0  0  0  0  0  0  0
    1.2160    0.0364   -1.0222 C   0  0  0  0  0  0  0  0  0  0  0  0
    0.2540    1.1521   -0.5951 C   0  0  0  0  0  0  0  0  0  0  0  0
   -0.8277    0.6595    0.3657 C   0  0  0  0  0  0  0  0  0  0  0  0
   -1.6215   -0.5132   -0.2286 C   0  0  0  0  0  0  0  0  0  0  0  0
   -2.6818   -1.0463    0.7484 C   0  0  0  0  0  0  0  0  0  0  0  0
   -3.6256   -0.0146    1.2017 N   0  0  0  0  0  0  0  0  0  0  0  0
   -4.7556    0.3203    0.4606 C   0  0  0  0  0  0  0  0  0  0  0  0
   -4.5577    1.0138   -0.6999 N   0  0  0  0  0  0  0  0  0  0  0  0
   -5.5358    1.4597   -1.5464 C   0  0  0  0  0  0  0  0  0  0  0  0
   -5.0617    2.3132   -2.9095 S   0  0  0  0  0  0  0  0  0  0  0  0
   -6.8390    1.1911   -1.2348 N   0  0  0  0  0  0  0  0  0  0  0  0
   -7.0703    0.5455   -0.1368 C   0  0  0  0  0  0  0  0  0  0  0  0
   -8.4844    0.2550    0.2316 C   0  0  0  0  0  0  0  0  0  0  0  0
   -8.7782   -0.4176    1.3524 C   0  0  0  0  0  0  0  0  0  0  0  0
   -7.7564   -0.8940    2.2519 C   0  0  0  0  0  0  0  0  0  0  0  0
   -6.4563   -0.6759    2.0086 C   0  0  0  0  0  0  0  0  0  0  0  0
   -6.0284    0.0508    0.8254 C   0  0  0  0  0  0  0  0  0  0  0  0
   -0.6717   -1.6524   -0.6304 C   0  0  0  0  0  0  0  0  0  0  0  0
    0.4456   -1.1771   -1.5605 C   0  0  0  0  0  0  0  0  0  0  0  0
    6.2720    1.4563    0.5936 C   0  0  0  0  0  0  0  0  0  0  0  0
    7.4863    1.3276   -0.0853 C   0  0  0  0  0  0  0  0  0  0  0  0
    9.5534   -1.0446   -1.3150 H   0  0  0  0  0  0  0  0  0  0  0  0
    8.9883    0.2006   -2.4575 H   0  0  0  0  0  0  0  0  0  0  0  0
    9.9083    0.6543   -1.0011 H   0  0  0  0  0  0  0  0  0  0  0  0
    7.2539   -1.9485   -0.9778 H   0  0  0  0  0  0  0  0  0  0  0  0
    5.1157   -1.7227    0.2190 H   0  0  0  0  0  0  0  0  0  0  0  0
    4.0980    1.3694    2.0921 H   0  0  0  0  0  0  0  0  0  0  0  0
    3.9029   -0.3830    2.0626 H   0  0  0  0  0  0  0  0  0  0  0  0
    3.0792    1.5046   -0.1126 H   0  0  0  0  0  0  0  0  0  0  0  0
    1.8439    0.4148   -1.8411 H   0  0  0  0  0  0  0  0  0  0  0  0
   -0.2309    1.5620   -1.4907 H   0  0  0  0  0  0  0  0  0  0  0  0
    0.7923    1.9849   -0.1289 H   0  0  0  0  0  0  0  0  0  0  0  0
   -0.3686    0.3592    1.3159 H   0  0  0  0  0  0  0  0  0  0  0  0
   -1.4986    1.4969    0.5900 H   0  0  0  0  0  0  0  0  0  0  0  0
   -2.1174   -0.1670   -1.1429 H   0  0  0  0  0  0  0  0  0  0  0  0
   -2.1806   -1.4517    1.6365 H   0  0  0  0  0  0  0  0  0  0  0  0
   -3.2348   -1.8793    0.2962 H   0  0  0  0  0  0  0  0  0  0  0  0
   -3.8824   -0.2135    2.1664 H   0  0  0  0  0  0  0  0  0  0  0  0
   -3.6121    1.2805   -0.9285 H   0  0  0  0  0  0  0  0  0  0  0  0
   -9.2501    0.6122   -0.4468 H   0  0  0  0  0  0  0  0  0  0  0  0
   -9.8127   -0.6228    1.6106 H   0  0  0  0  0  0  0  0  0  0  0  0
   -8.0733   -1.4429    3.1345 H   0  0  0  0  0  0  0  0  0  0  0  0
   -5.7171   -1.0609    2.7006 H   0  0  0  0  0  0  0  0  0  0  0  0
   -1.2384   -2.4454   -1.1337 H   0  0  0  0  0  0  0  0  0  0  0  0
   -0.2370   -2.1074    0.2675 H   0  0  0  0  0  0  0  0  0  0  0  0
    1.1316   -2.0101   -1.7567 H   0  0  0  0  0  0  0  0  0  0  0  0
    0.0003   -0.9073   -2.5272 H   0  0  0  0  0  0  0  0  0  0  0  0
    6.0045    2.4207    1.0195 H   0  0  0  0  0  0  0  0  0  0  0  0
    8.1386    2.1931   -0.1760 H   0  0  0  0  0  0  0  0  0  0  0  0
  1  2  1  0
  2  3  2  0
  3  4  1  0
  4  5  2  0
  5  6  1  0
  6  7  1  0
  7  8  1  0
  8  9  2  0
  8 10  1  0
 10 11  1  0
 11 12  1  0
 12 13  1  0
 13 14  1  0
 14 15  1  0
 15 16  1  0
 16 17  1  0
 17 18  1  0
 18 19  2  0
 18 20  1  0
 20 21  2  0
 21 22  1  0
 22 23  2  0
 23 24  1  0
 24 25  2  0
 25 26  1  0
 13 27  1  0
 27 28  1  0
  5 29  1  0
 29 30  2  0
 30  2  1  0
 28 10  1  0
 26 16  2  0
 26 21  1  0
  1 31  1  0
  1 32  1  0
  1 33  1  0
  3 34  1  0
  4 35  1  0
  6 36  1  0
  6 37  1  0
  7 38  1  0
 10 39  1  0
 11 40  1  0
 11 41  1  0
 12 42  1  0
 12 43  1  0
 13 44  1  0
 14 45  1  0
 14 46  1  0
 15 47  1  0
 17 48  1  0
 22 49  1  0
 23 50  1  0
 24 51  1  0
 25 52  1  0
 27 53  1  0
 27 54  1  0
 28 55  1  0
 28 56  1  0
 29 57  1  0
 30 58  1  0
M  END
$$$$
