
     RDKit          3D

 46 49  0  0  0  0  0  0  0  0999 V2000
   -3.3740    1.8732   -0.9904 O   0  0  0  0  0  0  0  0  0  0  0  0
   -2.6081    1.0601   -0.4655 C   0  0  0  0  0  0  0  0  0  0  0  0
   -1.2779    1.3981   -0.4273 N   0  0  0  0  0  0  0  0  0  0  0  0
   -0.2206    0.6104    0.0448 C   0  0  0  0  0  0  0  0  0  0  0  0
    1.0304    1.2182    0.1853 C   0  0  0  0  0  0  0  0  0  0  0  0
    2.1259    0.4692    0.6279 C   0  0  0  0  0  0  0  0  0  0  0  0
    3.4255    1.1556    0.8040 C   0  0  0  0  0  0  0  0  0  0  0  0
    3.4320    2.2042    1.4439 O   0  0  0  0  0  0  0  0  0  0  0  0
    4.5671    0.5973    0.2452 N   0  0  0  0  0  0  0  0  0  0  0  0
    4.5849   -0.4375   -0.7970 C   0  0  0  0  0  0  0  0  0  0  0  0
    5.7626   -0.2322   -1.7566 C   0  0  0  0  0  0  0  0  0  0  0  0
    7.0374   -0.2433   -1.1015 O   0  0  0  0  0  0  0  0  0  0  0  0
    7.0144    0.2803    0.2353 C   0  0  0  0  0  0  0  0  0  0  0  0
    5.8550    1.2422    0.5052 C   0  0  0  0  0  0  0  0  0  0  0  0
    1.9710   -0.8793    0.9565 C   0  0  0  0  0  0  0  0  0  0  0  0
    0.7264   -1.4901    0.7922 C   0  0  0  0  0  0  0  0  0  0  0  0
   -0.3732   -0.7517    0.3343 C   0  0  0  0  0  0  0  0  0  0  0  0
   -1.9013   -1.6090    0.0449 S   0  0  0  0  0  0  0  0  0  0  0  0
   -3.0680   -0.2209    0.2753 C   0  0  0  0  0  0  0  0  0  0  0  0
   -4.4488   -0.6694   -0.0131 N   0  0  0  0  0  0  0  0  0  0  0  0
   -5.4735    0.2013    0.5922 C   0  0  0  0  0  0  0  0  0  0  0  0
   -6.8815   -0.3768    0.3689 C   0  0  0  0  0  0  0  0  0  0  0  0
   -7.1584   -0.5571   -1.0256 O   0  0  0  0  0  0  0  0  0  0  0  0
   -6.1814   -1.4249   -1.6155 C   0  0  0  0  0  0  0  0  0  0  0  0
   -4.7577   -0.8665   -1.4427 C   0  0  0  0  0  0  0  0  0  0  0  0
   -1.0821    2.3243   -0.7888 H   0  0  0  0  0  0  0  0  0  0  0  0
    1.1658    2.2756   -0.0327 H   0  0  0  0  0  0  0  0  0  0  0  0
    3.6439   -0.4347   -1.3543 H   0  0  0  0  0  0  0  0  0  0  0  0
    4.6933   -1.3984   -0.2821 H   0  0  0  0  0  0  0  0  0  0  0  0
    5.6654    0.7253   -2.2818 H   0  0  0  0  0  0  0  0  0  0  0  0
    5.7745   -1.0215   -2.5148 H   0  0  0  0  0  0  0  0  0  0  0  0
    7.9723    0.7798    0.4109 H   0  0  0  0  0  0  0  0  0  0  0  0
    6.9607   -0.5755    0.9182 H   0  0  0  0  0  0  0  0  0  0  0  0
    5.9170    2.1102   -0.1619 H   0  0  0  0  0  0  0  0  0  0  0  0
    5.8858    1.6035    1.5386 H   0  0  0  0  0  0  0  0  0  0  0  0
    2.8069   -1.4554    1.3450 H   0  0  0  0  0  0  0  0  0  0  0  0
    0.6197   -2.5481    1.0257 H   0  0  0  0  0  0  0  0  0  0  0  0
   -3.0098    0.0180    1.3454 H   0  0  0  0  0  0  0  0  0  0  0  0
   -5.3046    0.2908    1.6714 H   0  0  0  0  0  0  0  0  0  0  0  0
   -5.4390    1.2073    0.1605 H   0  0  0  0  0  0  0  0  0  0  0  0
   -7.0029   -1.3359    0.8871 H   0  0  0  0  0  0  0  0  0  0  0  0
   -7.6320    0.3127    0.7686 H   0  0  0  0  0  0  0  0  0  0  0  0
   -6.2722   -2.4245   -1.1731 H   0  0  0  0  0  0  0  0  0  0  0  0
   -6.4176   -1.5114   -2.6809 H   0  0  0  0  0  0  0  0  0  0  0  0
   -4.6943    0.0779   -1.9935 H   0  0  0  0  0  0  0  0  0  0  0  0
   -4.0589   -1.5717   -1.9041 H   0  0  0  0  0  0  0  0  0  0  0  0
  1  2  2  0
  2  3  1  0
  3  4  1  0
  4  5  2  0
  5  6  1  0
  6  7  1  0
  7  8  2  0
  7  9  1  0
  9 10  1  0
 10 11  1  0
 11 12  1  0
 12 13  1  0
 13 14  1  0
  6 15  2  0
 15 16  1  0
 16 17  2  0
 17 18  1  0
 18 19  1  0
 19 20  1  0
 20 21  1  0
 21 22  1  0
 22 23  1  0
 23 24  1  0
 24 25  1  0
 19  2  1  0
 25 20  1  0
 17  4  1  0
 14  9  1  0
  3 26  1  0
  5 27  1  0
 10 28  1  0
 10 29  1  0
 11 30  1  0
 11 31  1  0
 13 32  1  0
 13 33  1  0
 14 34  1  0
 14 35  1  0
 15 36  1  0
 16 37  1  0
 19 38  1  0
 21 39  1  0
 21 40  1  0
 22 41  1  0
 22 42  1  0
 24 43  1  0
 24 44  1  0
 25 45  1  0
 25 46  1  0
M  END
$$$$
