
     RDKit          3D

 45 47  0  0  0  0  0  0  0  0999 V2000
    7.1990    1.2316    0.4182 C   0  0  0  0  0  0  0  0  0  0  0  0
    5.7343    1.0263    0.6698 C   0  0  0  0  0  0  0  0  0  0  0  0
    5.2925   -0.0547    1.4350 C   0  0  0  0  0  0  0  0  0  0  0  0
    3.9275   -0.2552    1.6457 C   0  0  0  0  0  0  0  0  0  0  0  0
    2.9774    0.6162    1.0911 C   0  0  0  0  0  0  0  0  0  0  0  0
    1.5751    0.3545    1.3777 C   0  0  0  0  0  0  0  0  0  0  0  0
    0.7412    1.2574    2.0037 C   0  0  0  0  0  0  0  0  0  0  0  0
   -0.8229    0.5838    2.1738 S   0  0  0  0  0  0  0  0  0  0  0  0
   -0.2681   -0.8807    1.4493 C   0  0  0  0  0  0  0  0  0  0  0  0
   -1.1744   -2.0543    1.2110 C   0  0  0  0  0  0  0  0  0  0  0  0
   -1.9622   -2.4162    2.3929 C   0  0  0  0  0  0  0  0  0  0  0  0
   -2.5386   -2.7423    3.3480 N   0  0  0  0  0  0  0  0  0  0  0  0
   -1.9887   -1.7582   -0.0198 C   0  0  0  0  0  0  0  0  0  0  0  0
   -3.2842   -1.6810   -0.0224 N   0  0  0  0  0  0  0  0  0  0  0  0
   -3.8806   -1.4009   -1.2647 C   0  0  0  0  0  0  0  0  0  0  0  0
   -4.2443   -2.4748   -2.0874 C   0  0  0  0  0  0  0  0  0  0  0  0
   -4.8170   -2.2533   -3.3401 C   0  0  0  0  0  0  0  0  0  0  0  0
   -5.0357   -0.9517   -3.7815 C   0  0  0  0  0  0  0  0  0  0  0  0
   -4.6974    0.1282   -2.9642 C   0  0  0  0  0  0  0  0  0  0  0  0
   -4.1381   -0.0845   -1.6953 C   0  0  0  0  0  0  0  0  0  0  0  0
   -3.7549    1.3592   -0.7100 S   0  0  0  0  0  0  0  0  0  0  0  0
   -4.7937    1.0380    0.7253 C   0  0  0  0  0  0  0  0  0  0  0  0
   -5.1394    2.2146    1.3103 F   0  0  0  0  0  0  0  0  0  0  0  0
   -5.9497    0.4094    0.4086 F   0  0  0  0  0  0  0  0  0  0  0  0
   -4.1561    0.3123    1.6708 F   0  0  0  0  0  0  0  0  0  0  0  0
    0.9989   -0.8693    1.0803 N   0  0  0  0  0  0  0  0  0  0  0  0
    3.4072    1.6830    0.2770 C   0  0  0  0  0  0  0  0  0  0  0  0
    2.4490    2.6306   -0.3927 C   0  0  0  0  0  0  0  0  0  0  0  0
    4.7880    1.8797    0.0869 C   0  0  0  0  0  0  0  0  0  0  0  0
    7.4290    2.2957    0.2995 H   0  0  0  0  0  0  0  0  0  0  0  0
    7.5007    0.7002   -0.4896 H   0  0  0  0  0  0  0  0  0  0  0  0
    7.7957    0.8628    1.2591 H   0  0  0  0  0  0  0  0  0  0  0  0
    6.0057   -0.7472    1.8760 H   0  0  0  0  0  0  0  0  0  0  0  0
    3.6030   -1.0989    2.2520 H   0  0  0  0  0  0  0  0  0  0  0  0
    0.9651    2.2532    2.3593 H   0  0  0  0  0  0  0  0  0  0  0  0
   -0.5434   -2.9136    0.9469 H   0  0  0  0  0  0  0  0  0  0  0  0
   -1.4099   -1.6099   -0.9535 H   0  0  0  0  0  0  0  0  0  0  0  0
   -4.0815   -3.4938   -1.7448 H   0  0  0  0  0  0  0  0  0  0  0  0
   -5.0935   -3.0966   -3.9683 H   0  0  0  0  0  0  0  0  0  0  0  0
   -5.4799   -0.7755   -4.7585 H   0  0  0  0  0  0  0  0  0  0  0  0
   -4.8871    1.1377   -3.3236 H   0  0  0  0  0  0  0  0  0  0  0  0
    2.0795    3.3677    0.3265 H   0  0  0  0  0  0  0  0  0  0  0  0
    1.6051    2.0905   -0.8339 H   0  0  0  0  0  0  0  0  0  0  0  0
    2.9355    3.1722   -1.2115 H   0  0  0  0  0  0  0  0  0  0  0  0
    5.1321    2.7067   -0.5329 H   0  0  0  0  0  0  0  0  0  0  0  0
  1  2  1  0
  2  3  2  0
  3  4  1  0
  4  5  2  0
  5  6  1  0
  6  7  2  0
  7  8  1  0
  8  9  1  0
  9 10  1  0
 10 11  1  0
 11 12  3  0
 10 13  1  0
 13 14  2  3
 14 15  1  0
 15 16  2  0
 16 17  1  0
 17 18  2  0
 18 19  1  0
 19 20  2  0
 20 21  1  0
 21 22  1  0
 22 23  1  0
 22 24  1  0
 22 25  1  0
  9 26  2  0
  5 27  1  0
 27 28  1  0
 27 29  2  0
 29  2  1  0
 26  6  1  0
 20 15  1  0
  1 30  1  0
  1 31  1  0
  1 32  1  0
  3 33  1  0
  4 34  1  0
  7 35  1  0
 10 36  1  0
 13 37  1  0
 16 38  1  0
 17 39  1  0
 18 40  1  0
 19 41  1  0
 28 42  1  0
 28 43  1  0
 28 44  1  0
 29 45  1  0
M  END
$$$$
