
     RDKit          3D

 36 38  0  0  0  0  0  0  0  0999 V2000
   -2.7413    4.8620   -0.1864 C   0  0  0  0  0  0  0  0  0  0  0  0
   -2.7771    3.3653   -0.0990 C   0  0  0  0  0  0  0  0  0  0  0  0
   -3.9675    2.6967    0.1749 C   0  0  0  0  0  0  0  0  0  0  0  0
   -3.9781    1.3039    0.2978 C   0  0  0  0  0  0  0  0  0  0  0  0
   -2.8250    0.5435    0.1604 C   0  0  0  0  0  0  0  0  0  0  0  0
   -2.9171   -0.7817    0.3092 N   0  0  0  0  0  0  0  0  0  0  0  0
   -1.7921   -1.5220    0.2133 C   0  0  0  0  0  0  0  0  0  0  0  0
   -1.8790   -3.0486    0.3654 C   0  0  0  0  0  0  0  0  0  0  0  0
   -0.4303   -3.7029    1.2211 Cl  0  0  0  0  0  0  0  0  0  0  0  0
   -3.3191   -3.5606    1.3197 Cl  0  0  0  0  0  0  0  0  0  0  0  0
   -1.9796   -3.8109   -1.2584 Cl  0  0  0  0  0  0  0  0  0  0  0  0
   -0.5925   -0.9817   -0.0735 N   0  0  0  0  0  0  0  0  0  0  0  0
   -0.5054    0.3522   -0.2547 C   0  0  0  0  0  0  0  0  0  0  0  0
    0.7781    0.9329   -0.5429 N   0  0  0  0  0  0  0  0  0  0  0  0
    1.8347    0.0789   -0.7599 N   0  0  0  0  0  0  0  0  0  0  0  0
    2.2802   -0.5053    0.3099 C   0  0  0  0  0  0  0  0  0  0  0  0
    3.3817   -1.4826    0.2626 C   0  0  0  0  0  0  0  0  0  0  0  0
    4.0090   -1.7945   -0.9405 C   0  0  0  0  0  0  0  0  0  0  0  0
    5.0334   -2.7215   -0.9078 C   0  0  0  0  0  0  0  0  0  0  0  0
    5.4540   -3.3352    0.2205 N   0  0  0  0  0  0  0  0  0  0  0  0
    4.8184   -3.0140    1.3682 C   0  0  0  0  0  0  0  0  0  0  0  0
    3.7838   -2.0994    1.4440 C   0  0  0  0  0  0  0  0  0  0  0  0
   -1.6207    1.1964   -0.1170 C   0  0  0  0  0  0  0  0  0  0  0  0
   -1.6051    2.6135   -0.2296 C   0  0  0  0  0  0  0  0  0  0  0  0
   -2.5340    5.2896    0.7993 H   0  0  0  0  0  0  0  0  0  0  0  0
   -1.9673    5.1930   -0.8868 H   0  0  0  0  0  0  0  0  0  0  0  0
   -3.6967    5.2556   -0.5490 H   0  0  0  0  0  0  0  0  0  0  0  0
   -4.8970    3.2481    0.3016 H   0  0  0  0  0  0  0  0  0  0  0  0
   -4.9181    0.8000    0.5154 H   0  0  0  0  0  0  0  0  0  0  0  0
    0.6378    1.5465   -1.3477 H   0  0  0  0  0  0  0  0  0  0  0  0
    1.8431   -0.2951    1.3037 H   0  0  0  0  0  0  0  0  0  0  0  0
    3.7095   -1.3341   -1.8753 H   0  0  0  0  0  0  0  0  0  0  0  0
    5.5600   -3.0063   -1.8143 H   0  0  0  0  0  0  0  0  0  0  0  0
    5.1763   -3.5310    2.2543 H   0  0  0  0  0  0  0  0  0  0  0  0
    3.3098   -1.8862    2.3947 H   0  0  0  0  0  0  0  0  0  0  0  0
   -0.6667    3.1354   -0.4081 H   0  0  0  0  0  0  0  0  0  0  0  0
  1  2  1  0
  2  3  2  0
  3  4  1  0
  4  5  2  0
  5  6  1  0
  6  7  2  0
  7  8  1  0
  8  9  1  0
  8 10  1  0
  8 11  1  0
  7 12  1  0
 12 13  2  0
 13 14  1  0
 14 15  1  0
 15 16  2  3
 16 17  1  0
 17 18  2  0
 18 19  1  0
 19 20  2  0
 20 21  1  0
 21 22  2  0
 13 23  1  0
 23 24  2  0
 24  2  1  0
 23  5  1  0
 22 17  1  0
  1 25  1  0
  1 26  1  0
  1 27  1  0
  3 28  1  0
  4 29  1  0
 14 30  1  0
 16 31  1  0
 18 32  1  0
 19 33  1  0
 21 34  1  0
 22 35  1  0
 24 36  1  0
M  END
$$$$
