
     RDKit          3D

 68 72  0  0  0  0  0  0  0  0999 V2000
    8.2940    2.3432    0.5803 C   0  0  0  0  0  0  0  0  0  0  0  0
    7.6393    1.0812    0.5874 O   0  0  0  0  0  0  0  0  0  0  0  0
    6.3595    1.0487    0.1098 C   0  0  0  0  0  0  0  0  0  0  0  0
    5.7579   -0.2059    0.1234 C   0  0  0  0  0  0  0  0  0  0  0  0
    4.4460   -0.3768   -0.3399 C   0  0  0  0  0  0  0  0  0  0  0  0
    3.6858    0.6959   -0.8275 C   0  0  0  0  0  0  0  0  0  0  0  0
    2.3904    0.5306   -1.2850 N   0  0  0  0  0  0  0  0  0  0  0  0
    1.4371    1.6519   -1.3279 C   0  0  0  0  0  0  0  0  0  0  0  0
   -0.0124    1.1483   -1.1291 C   0  0  0  0  0  0  0  0  0  0  0  0
   -0.4482    0.1871   -2.1552 N   0  0  0  0  0  0  0  0  0  0  0  0
   -1.6587   -0.5604   -1.7904 C   0  0  0  0  0  0  0  0  0  0  0  0
   -1.5005   -1.5427   -0.6575 C   0  0  0  0  0  0  0  0  0  0  0  0
   -0.8661   -2.7057   -0.7404 N   0  0  0  0  0  0  0  0  0  0  0  0
   -0.9864   -3.2687    0.4887 C   0  0  0  0  0  0  0  0  0  0  0  0
   -1.7003   -2.4802    1.3415 C   0  0  0  0  0  0  0  0  0  0  0  0
   -1.9798   -2.8660    2.6815 C   0  0  0  0  0  0  0  0  0  0  0  0
   -2.6428   -2.2168    3.4823 O   0  0  0  0  0  0  0  0  0  0  0  0
   -1.4285   -4.0860    3.0039 N   0  0  0  0  0  0  0  0  0  0  0  0
   -0.7040   -4.9244    2.1764 C   0  0  0  0  0  0  0  0  0  0  0  0
   -0.3055   -5.9999    2.6236 O   0  0  0  0  0  0  0  0  0  0  0  0
   -0.4765   -4.4891    0.8757 N   0  0  0  0  0  0  0  0  0  0  0  0
    0.2706   -5.3061   -0.0600 C   0  0  0  0  0  0  0  0  0  0  0  0
   -2.0242   -1.3669    0.6142 N   0  0  0  0  0  0  0  0  0  0  0  0
   -2.7598   -0.2156    1.1073 C   0  0  0  0  0  0  0  0  0  0  0  0
   -4.2683   -0.3732    0.9191 C   0  0  0  0  0  0  0  0  0  0  0  0
   -5.0513    0.8388    1.4320 C   0  0  0  0  0  0  0  0  0  0  0  0
   -4.7299    2.1097    0.6842 C   0  0  0  0  0  0  0  0  0  0  0  0
   -5.1210    2.2688   -0.6526 C   0  0  0  0  0  0  0  0  0  0  0  0
   -4.7945    3.4313   -1.3521 C   0  0  0  0  0  0  0  0  0  0  0  0
   -4.0786    4.4470   -0.7222 C   0  0  0  0  0  0  0  0  0  0  0  0
   -3.6917    4.3032    0.6088 C   0  0  0  0  0  0  0  0  0  0  0  0
   -4.0162    3.1410    1.3101 C   0  0  0  0  0  0  0  0  0  0  0  0
    0.6614   -0.6700   -2.6191 C   0  0  0  0  0  0  0  0  0  0  0  0
    1.8586   -0.7969   -1.6464 C   0  0  0  0  0  0  0  0  0  0  0  0
    4.3180    1.9494   -0.8324 C   0  0  0  0  0  0  0  0  0  0  0  0
    5.6329    2.1303   -0.3733 C   0  0  0  0  0  0  0  0  0  0  0  0
    8.3988    2.7286   -0.4395 H   0  0  0  0  0  0  0  0  0  0  0  0
    7.7747    3.0613    1.2232 H   0  0  0  0  0  0  0  0  0  0  0  0
    9.2999    2.1999    0.9865 H   0  0  0  0  0  0  0  0  0  0  0  0
    6.3083   -1.0636    0.5009 H   0  0  0  0  0  0  0  0  0  0  0  0
    4.0235   -1.3758   -0.2863 H   0  0  0  0  0  0  0  0  0  0  0  0
    1.6427    2.3719   -0.5265 H   0  0  0  0  0  0  0  0  0  0  0  0
    1.5280    2.1750   -2.2874 H   0  0  0  0  0  0  0  0  0  0  0  0
   -0.6931    2.0075   -1.1360 H   0  0  0  0  0  0  0  0  0  0  0  0
   -0.0618    0.7026   -0.1282 H   0  0  0  0  0  0  0  0  0  0  0  0
   -2.4702    0.1475   -1.5896 H   0  0  0  0  0  0  0  0  0  0  0  0
   -1.9986   -1.1217   -2.6710 H   0  0  0  0  0  0  0  0  0  0  0  0
   -1.5910   -4.4245    3.9389 H   0  0  0  0  0  0  0  0  0  0  0  0
   -0.3815   -5.5783   -0.8957 H   0  0  0  0  0  0  0  0  0  0  0  0
    0.6399   -6.2215    0.4099 H   0  0  0  0  0  0  0  0  0  0  0  0
    1.1255   -4.7338   -0.4338 H   0  0  0  0  0  0  0  0  0  0  0  0
   -2.3779    0.6657    0.5857 H   0  0  0  0  0  0  0  0  0  0  0  0
   -2.5067   -0.0781    2.1637 H   0  0  0  0  0  0  0  0  0  0  0  0
   -4.6131   -1.2641    1.4589 H   0  0  0  0  0  0  0  0  0  0  0  0
   -4.4952   -0.5519   -0.1393 H   0  0  0  0  0  0  0  0  0  0  0  0
   -6.1269    0.6433    1.3373 H   0  0  0  0  0  0  0  0  0  0  0  0
   -4.8623    0.9711    2.5048 H   0  0  0  0  0  0  0  0  0  0  0  0
   -5.6851    1.4885   -1.1591 H   0  0  0  0  0  0  0  0  0  0  0  0
   -5.1020    3.5459   -2.3886 H   0  0  0  0  0  0  0  0  0  0  0  0
   -3.8278    5.3533   -1.2672 H   0  0  0  0  0  0  0  0  0  0  0  0
   -3.1393    5.0985    1.1029 H   0  0  0  0  0  0  0  0  0  0  0  0
   -3.7061    3.0478    2.3488 H   0  0  0  0  0  0  0  0  0  0  0  0
    0.3157   -1.6672   -2.9167 H   0  0  0  0  0  0  0  0  0  0  0  0
    1.0368   -0.2127   -3.5446 H   0  0  0  0  0  0  0  0  0  0  0  0
    2.6276   -1.3923   -2.1530 H   0  0  0  0  0  0  0  0  0  0  0  0
    1.5579   -1.3293   -0.7372 H   0  0  0  0  0  0  0  0  0  0  0  0
    3.8015    2.8214   -1.2241 H   0  0  0  0  0  0  0  0  0  0  0  0
    6.0512    3.1299   -0.4153 H   0  0  0  0  0  0  0  0  0  0  0  0
  1  2  1  0
  2  3  1  0
  3  4  2  0
  4  5  1  0
  5  6  2  0
  6  7  1  0
  7  8  1  0
  8  9  1  0
  9 10  1  0
 10 11  1  0
 11 12  1  0
 12 13  2  0
 13 14  1  0
 14 15  2  0
 15 16  1  0
 16 17  2  0
 16 18  1  0
 18 19  1  0
 19 20  2  0
 19 21  1  0
 21 22  1  0
 15 23  1  0
 23 24  1  0
 24 25  1  0
 25 26  1  0
 26 27  1  0
 27 28  2  0
 28 29  1  0
 29 30  2  0
 30 31  1  0
 31 32  2  0
 10 33  1  0
 33 34  1  0
  6 35  1  0
 35 36  2  0
 36  3  1  0
 34  7  1  0
 23 12  1  0
 32 27  1  0
 21 14  1  0
  1 37  1  0
  1 38  1  0
  1 39  1  0
  4 40  1  0
  5 41  1  0
  8 42  1  0
  8 43  1  0
  9 44  1  0
  9 45  1  0
 11 46  1  0
 11 47  1  0
 18 48  1  0
 22 49  1  0
 22 50  1  0
 22 51  1  0
 24 52  1  0
 24 53  1  0
 25 54  1  0
 25 55  1  0
 26 56  1  0
 26 57  1  0
 28 58  1  0
 29 59  1  0
 30 60  1  0
 31 61  1  0
 32 62  1  0
 33 63  1  0
 33 64  1  0
 34 65  1  0
 34 66  1  0
 35 67  1  0
 36 68  1  0
M  END
$$$$
