
     RDKit          3D

 63 67  0  0  0  0  0  0  0  0999 V2000
    9.7185    2.0340   -0.7053 C   0  0  0  0  0  0  0  0  0  0  0  0
    8.9499    1.4194    0.3182 O   0  0  0  0  0  0  0  0  0  0  0  0
    7.6028    1.2700    0.1001 C   0  0  0  0  0  0  0  0  0  0  0  0
    6.9528    1.6080   -1.0892 C   0  0  0  0  0  0  0  0  0  0  0  0
    5.5742    1.4149   -1.2213 C   0  0  0  0  0  0  0  0  0  0  0  0
    4.8142    0.8855   -0.1697 C   0  0  0  0  0  0  0  0  0  0  0  0
    3.3631    0.6918   -0.3110 C   0  0  0  0  0  0  0  0  0  0  0  0
    2.4620    1.3068    0.5760 C   0  0  0  0  0  0  0  0  0  0  0  0
    1.0795    1.1314    0.4422 C   0  0  0  0  0  0  0  0  0  0  0  0
    0.5709    0.3261   -0.5798 C   0  0  0  0  0  0  0  0  0  0  0  0
    1.4548   -0.2695   -1.4673 C   0  0  0  0  0  0  0  0  0  0  0  0
    2.8391   -0.1036   -1.3412 C   0  0  0  0  0  0  0  0  0  0  0  0
    0.8165   -1.2394   -2.7780 S   0  0  0  0  0  6  0  0  0  0  0  0
    0.6682   -0.3655   -3.9225 O   0  0  0  0  0  0  0  0  0  0  0  0
    1.6207   -2.4445   -2.8326 O   0  0  0  0  0  0  0  0  0  0  0  0
   -0.7997   -1.7450   -2.3147 C   0  0  0  0  0  0  0  0  0  0  0  0
   -1.3676   -2.8558   -2.9529 C   0  0  0  0  0  0  0  0  0  0  0  0
   -2.6340   -3.2948   -2.5736 C   0  0  0  0  0  0  0  0  0  0  0  0
   -3.3119   -2.6411   -1.5457 C   0  0  0  0  0  0  0  0  0  0  0  0
   -2.7278   -1.5318   -0.9116 C   0  0  0  0  0  0  0  0  0  0  0  0
   -3.4187   -0.9882    0.2717 C   0  0  0  0  0  0  0  0  0  0  0  0
   -2.9190   -1.1571    1.3756 O   0  0  0  0  0  0  0  0  0  0  0  0
   -4.6208   -0.3743    0.0145 N   0  0  0  0  0  0  0  0  0  0  0  0
   -5.4493    0.1680    1.0839 C   0  0  0  0  0  0  0  0  0  0  0  0
   -6.2963    1.3445    0.5721 C   0  0  0  0  0  0  0  0  0  0  0  0
   -7.6753    0.8912    0.1084 C   0  0  0  0  0  0  0  0  0  0  0  0
   -8.4721    0.2489    1.2455 C   0  0  0  0  0  0  0  0  0  0  0  0
   -7.5956   -0.4246    2.3017 C   0  0  0  0  0  0  0  0  0  0  0  0
   -6.2994   -0.9558    1.7036 C   0  0  0  0  0  0  0  0  0  0  0  0
   -1.4674   -1.0612   -1.3020 C   0  0  0  0  0  0  0  0  0  0  0  0
   -0.8915    0.1634   -0.7028 C   0  0  0  0  0  0  0  0  0  0  0  0
   -1.6240    1.0759   -0.3431 O   0  0  0  0  0  0  0  0  0  0  0  0
    5.4754    0.5466    1.0231 C   0  0  0  0  0  0  0  0  0  0  0  0
    6.8581    0.7280    1.1651 C   0  0  0  0  0  0  0  0  0  0  0  0
    7.5671    0.4202    2.3001 O   0  0  0  0  0  0  0  0  0  0  0  0
    6.8822   -0.2629    3.3411 C   0  0  0  0  0  0  0  0  0  0  0  0
    9.3690    3.0528   -0.9072 H   0  0  0  0  0  0  0  0  0  0  0  0
   10.7515    2.1013   -0.3511 H   0  0  0  0  0  0  0  0  0  0  0  0
    9.7187    1.4273   -1.6173 H   0  0  0  0  0  0  0  0  0  0  0  0
    7.4885    2.0247   -1.9356 H   0  0  0  0  0  0  0  0  0  0  0  0
    5.0945    1.6966   -2.1569 H   0  0  0  0  0  0  0  0  0  0  0  0
    2.8335    1.9458    1.3766 H   0  0  0  0  0  0  0  0  0  0  0  0
    0.4041    1.6262    1.1394 H   0  0  0  0  0  0  0  0  0  0  0  0
    3.5092   -0.5953   -2.0460 H   0  0  0  0  0  0  0  0  0  0  0  0
   -0.8251   -3.3802   -3.7386 H   0  0  0  0  0  0  0  0  0  0  0  0
   -3.0803   -4.1615   -3.0574 H   0  0  0  0  0  0  0  0  0  0  0  0
   -4.2772   -3.0183   -1.2124 H   0  0  0  0  0  0  0  0  0  0  0  0
   -4.9425   -0.2892   -0.9409 H   0  0  0  0  0  0  0  0  0  0  0  0
   -4.7703    0.5582    1.8526 H   0  0  0  0  0  0  0  0  0  0  0  0
   -6.4271    2.0710    1.3849 H   0  0  0  0  0  0  0  0  0  0  0  0
   -5.7816    1.8743   -0.2378 H   0  0  0  0  0  0  0  0  0  0  0  0
   -8.2365    1.7397   -0.2980 H   0  0  0  0  0  0  0  0  0  0  0  0
   -7.5630    0.1704   -0.7113 H   0  0  0  0  0  0  0  0  0  0  0  0
   -9.0934    1.0066    1.7377 H   0  0  0  0  0  0  0  0  0  0  0  0
   -9.1664   -0.4826    0.8164 H   0  0  0  0  0  0  0  0  0  0  0  0
   -7.3579    0.2968    3.0927 H   0  0  0  0  0  0  0  0  0  0  0  0
   -8.1545   -1.2361    2.7805 H   0  0  0  0  0  0  0  0  0  0  0  0
   -6.5442   -1.7130    0.9463 H   0  0  0  0  0  0  0  0  0  0  0  0
   -5.7153   -1.4743    2.4739 H   0  0  0  0  0  0  0  0  0  0  0  0
    4.8860    0.1321    1.8348 H   0  0  0  0  0  0  0  0  0  0  0  0
    6.4717   -1.2149    2.9886 H   0  0  0  0  0  0  0  0  0  0  0  0
    6.1016    0.3672    3.7793 H   0  0  0  0  0  0  0  0  0  0  0  0
    7.6072   -0.4852    4.1280 H   0  0  0  0  0  0  0  0  0  0  0  0
  1  2  1  0
  2  3  1  0
  3  4  2  0
  4  5  1  0
  5  6  2  0
  6  7  1  0
  7  8  2  0
  8  9  1  0
  9 10  2  0
 10 11  1  0
 11 12  2  0
 11 13  1  0
 13 14  2  0
 13 15  2  0
 13 16  1  0
 16 17  2  0
 17 18  1  0
 18 19  2  0
 19 20  1  0
 20 21  1  0
 21 22  2  0
 21 23  1  0
 23 24  1  0
 24 25  1  0
 25 26  1  0
 26 27  1  0
 27 28  1  0
 28 29  1  0
 20 30  2  0
 30 31  1  0
 31 32  2  0
  6 33  1  0
 33 34  2  0
 34 35  1  0
 35 36  1  0
 34  3  1  0
 12  7  1  0
 30 16  1  0
 31 10  1  0
 29 24  1  0
  1 37  1  0
  1 38  1  0
  1 39  1  0
  4 40  1  0
  5 41  1  0
  8 42  1  0
  9 43  1  0
 12 44  1  0
 17 45  1  0
 18 46  1  0
 19 47  1  0
 23 48  1  0
 24 49  1  0
 25 50  1  0
 25 51  1  0
 26 52  1  0
 26 53  1  0
 27 54  1  0
 27 55  1  0
 28 56  1  0
 28 57  1  0
 29 58  1  0
 29 59  1  0
 33 60  1  0
 36 61  1  0
 36 62  1  0
 36 63  1  0
M  END
$$$$
