
     RDKit          3D

 57 59  0  0  0  0  0  0  0  0999 V2000
   -7.0654   -2.9140    3.3636 C   0  0  0  0  0  0  0  0  0  0  0  0
   -6.5599   -2.0762    2.2254 C   0  0  0  0  0  0  0  0  0  0  0  0
   -6.6684   -0.6797    2.2730 C   0  0  0  0  0  0  0  0  0  0  0  0
   -6.1750    0.1047    1.2290 C   0  0  0  0  0  0  0  0  0  0  0  0
   -5.5449   -0.5089    0.1437 C   0  0  0  0  0  0  0  0  0  0  0  0
   -4.9390    0.4815   -1.2070 S   0  0  0  0  0  6  0  0  0  0  0  0
   -5.0218   -0.3268   -2.4055 O   0  0  0  0  0  0  0  0  0  0  0  0
   -5.5866    1.7747   -1.1312 O   0  0  0  0  0  0  0  0  0  0  0  0
   -3.2971    0.6986   -0.8238 N   0  0  0  0  0  0  0  0  0  0  0  0
   -2.4098   -0.4739   -0.9141 C   0  0  0  0  0  0  0  0  0  0  0  0
   -0.9781    0.0093   -1.1292 C   0  0  0  0  0  0  0  0  0  0  0  0
   -0.5484    1.0807   -0.1111 C   0  0  0  0  0  0  0  0  0  0  0  0
    0.7522    0.6798    0.5735 C   0  0  0  0  0  0  0  0  0  0  0  0
    0.8378    0.4245    1.7704 O   0  0  0  0  0  0  0  0  0  0  0  0
    1.8296    0.6208   -0.2754 N   0  0  0  0  0  0  0  0  0  0  0  0
    3.1740    0.3038    0.1905 C   0  0  0  0  0  0  0  0  0  0  0  0
    3.3617   -1.2032    0.3255 C   0  0  0  0  0  0  0  0  0  0  0  0
    4.1858    0.8925   -0.8164 C   0  0  0  0  0  0  0  0  0  0  0  0
    3.8077    1.3107   -1.9101 O   0  0  0  0  0  0  0  0  0  0  0  0
    5.4903    0.8749   -0.3486 N   0  0  0  0  0  0  0  0  0  0  0  0
    6.6502    1.3159   -1.0184 C   0  0  0  0  0  0  0  0  0  0  0  0
    7.8643    1.2182   -0.3211 C   0  0  0  0  0  0  0  0  0  0  0  0
    9.0604    1.6336   -0.9126 C   0  0  0  0  0  0  0  0  0  0  0  0
    9.0433    2.1461   -2.2023 C   0  0  0  0  0  0  0  0  0  0  0  0
   10.1885    2.5469   -2.7693 F   0  0  0  0  0  0  0  0  0  0  0  0
    7.8529    2.2506   -2.9084 C   0  0  0  0  0  0  0  0  0  0  0  0
    6.6554    1.8342   -2.3170 C   0  0  0  0  0  0  0  0  0  0  0  0
   -1.6445    1.3596    0.9217 C   0  0  0  0  0  0  0  0  0  0  0  0
   -2.9803    1.6645    0.2537 C   0  0  0  0  0  0  0  0  0  0  0  0
   -5.4407   -1.9009    0.0779 C   0  0  0  0  0  0  0  0  0  0  0  0
   -5.9358   -2.6797    1.1252 C   0  0  0  0  0  0  0  0  0  0  0  0
   -7.9323   -2.4436    3.8395 H   0  0  0  0  0  0  0  0  0  0  0  0
   -6.2771   -3.0432    4.1116 H   0  0  0  0  0  0  0  0  0  0  0  0
   -7.3845   -3.9004    3.0112 H   0  0  0  0  0  0  0  0  0  0  0  0
   -7.1485   -0.1954    3.1211 H   0  0  0  0  0  0  0  0  0  0  0  0
   -6.2885    1.1856    1.2693 H   0  0  0  0  0  0  0  0  0  0  0  0
   -2.4829   -1.0810   -0.0051 H   0  0  0  0  0  0  0  0  0  0  0  0
   -2.6861   -1.1094   -1.7615 H   0  0  0  0  0  0  0  0  0  0  0  0
   -0.8970    0.4407   -2.1359 H   0  0  0  0  0  0  0  0  0  0  0  0
   -0.3099   -0.8602   -1.1159 H   0  0  0  0  0  0  0  0  0  0  0  0
   -0.3464    2.0171   -0.6500 H   0  0  0  0  0  0  0  0  0  0  0  0
    1.7508    0.9536   -1.2338 H   0  0  0  0  0  0  0  0  0  0  0  0
    3.3247    0.7914    1.1610 H   0  0  0  0  0  0  0  0  0  0  0  0
    4.3603   -1.4503    0.6999 H   0  0  0  0  0  0  0  0  0  0  0  0
    2.6282   -1.6334    1.0153 H   0  0  0  0  0  0  0  0  0  0  0  0
    3.2390   -1.7018   -0.6429 H   0  0  0  0  0  0  0  0  0  0  0  0
    5.6315    0.5310    0.5940 H   0  0  0  0  0  0  0  0  0  0  0  0
    7.8992    0.8196    0.6895 H   0  0  0  0  0  0  0  0  0  0  0  0
   10.0012    1.5601   -0.3765 H   0  0  0  0  0  0  0  0  0  0  0  0
    7.8573    2.6566   -3.9147 H   0  0  0  0  0  0  0  0  0  0  0  0
    5.7457    1.9306   -2.9011 H   0  0  0  0  0  0  0  0  0  0  0  0
   -1.7625    0.4971    1.5915 H   0  0  0  0  0  0  0  0  0  0  0  0
   -1.3551    2.2006    1.5641 H   0  0  0  0  0  0  0  0  0  0  0  0
   -3.7582    1.6757    1.0221 H   0  0  0  0  0  0  0  0  0  0  0  0
   -2.9423    2.6635   -0.1960 H   0  0  0  0  0  0  0  0  0  0  0  0
   -4.9827   -2.3842   -0.7818 H   0  0  0  0  0  0  0  0  0  0  0  0
   -5.8423   -3.7627    1.0736 H   0  0  0  0  0  0  0  0  0  0  0  0
  1  2  1  0
  2  3  2  0
  3  4  1  0
  4  5  2  0
  5  6  1  0
  6  7  2  0
  6  8  2  0
  6  9  1  0
  9 10  1  0
 10 11  1  0
 11 12  1  0
 12 13  1  0
 13 14  2  0
 13 15  1  0
 15 16  1  0
 16 17  1  0
 16 18  1  0
 18 19  2  0
 18 20  1  0
 20 21  1  0
 21 22  2  0
 22 23  1  0
 23 24  2  0
 24 25  1  0
 24 26  1  0
 26 27  2  0
 12 28  1  0
 28 29  1  0
  5 30  1  0
 30 31  2  0
 31  2  1  0
 29  9  1  0
 27 21  1  0
  1 32  1  0
  1 33  1  0
  1 34  1  0
  3 35  1  0
  4 36  1  0
 10 37  1  0
 10 38  1  0
 11 39  1  0
 11 40  1  0
 12 41  1  0
 15 42  1  0
 16 43  1  0
 17 44  1  0
 17 45  1  0
 17 46  1  0
 20 47  1  0
 22 48  1  0
 23 49  1  0
 26 50  1  0
 27 51  1  0
 28 52  1  0
 28 53  1  0
 29 54  1  0
 29 55  1  0
 30 56  1  0
 31 57  1  0
M  END
$$$$
