
     RDKit          3D

 47 49  0  0  0  0  0  0  0  0999 V2000
    1.1933    1.2489   -1.3857 O   0  0  0  0  0  0  0  0  0  0  0  0
    0.6802    0.7861   -0.3724 C   0  0  0  0  0  0  0  0  0  0  0  0
    1.0054    1.3278    1.0120 C   0  0  0  0  0  0  0  0  0  0  0  0
    2.3898    1.9601    1.0787 C   0  0  0  0  0  0  0  0  0  0  0  0
    3.6812    0.6653    1.2005 S   0  0  0  0  0  0  0  0  0  0  0  0
    5.1246    1.7068    1.1474 C   0  0  0  0  0  0  0  0  0  0  0  0
    5.5136    2.3253   -0.0462 C   0  0  0  0  0  0  0  0  0  0  0  0
    6.6518    3.1308   -0.0810 C   0  0  0  0  0  0  0  0  0  0  0  0
    7.4071    3.3197    1.0777 C   0  0  0  0  0  0  0  0  0  0  0  0
    7.0280    2.6991    2.2695 C   0  0  0  0  0  0  0  0  0  0  0  0
    5.8915    1.8896    2.3037 C   0  0  0  0  0  0  0  0  0  0  0  0
   -0.2940   -0.1930   -0.3267 N   0  0  0  0  0  0  0  0  0  0  0  0
   -0.8000   -0.9779   -1.3935 C   0  0  0  0  0  0  0  0  0  0  0  0
   -0.2744   -0.9222   -2.6885 C   0  0  0  0  0  0  0  0  0  0  0  0
   -0.7504   -1.7746   -3.6925 C   0  0  0  0  0  0  0  0  0  0  0  0
   -1.7496   -2.7032   -3.4156 C   0  0  0  0  0  0  0  0  0  0  0  0
   -2.2976   -2.7641   -2.1371 C   0  0  0  0  0  0  0  0  0  0  0  0
   -1.8526   -1.8828   -1.1398 C   0  0  0  0  0  0  0  0  0  0  0  0
   -2.4755   -1.9434    0.2065 C   0  0  0  0  0  0  0  0  0  0  0  0
   -1.7300   -2.0309    1.1817 O   0  0  0  0  0  0  0  0  0  0  0  0
   -3.8516   -1.8325    0.3217 N   0  0  0  0  0  0  0  0  0  0  0  0
   -4.4790   -1.8391    1.6346 C   0  0  0  0  0  0  0  0  0  0  0  0
   -5.7806   -1.0739    1.4485 C   0  0  0  0  0  0  0  0  0  0  0  0
   -6.1345   -1.3485   -0.0055 C   0  0  0  0  0  0  0  0  0  0  0  0
   -4.7777   -1.3413   -0.6935 C   0  0  0  0  0  0  0  0  0  0  0  0
    0.8979    0.5411    1.7713 H   0  0  0  0  0  0  0  0  0  0  0  0
    0.2496    2.0962    1.2307 H   0  0  0  0  0  0  0  0  0  0  0  0
    2.4570    2.5835    1.9781 H   0  0  0  0  0  0  0  0  0  0  0  0
    2.5816    2.5999    0.2094 H   0  0  0  0  0  0  0  0  0  0  0  0
    4.9354    2.1803   -0.9575 H   0  0  0  0  0  0  0  0  0  0  0  0
    6.9500    3.6083   -1.0131 H   0  0  0  0  0  0  0  0  0  0  0  0
    8.2929    3.9460    1.0494 H   0  0  0  0  0  0  0  0  0  0  0  0
    7.6191    2.8421    3.1727 H   0  0  0  0  0  0  0  0  0  0  0  0
    5.6101    1.4061    3.2379 H   0  0  0  0  0  0  0  0  0  0  0  0
   -0.6391   -0.4623    0.5956 H   0  0  0  0  0  0  0  0  0  0  0  0
    0.5353   -0.2459   -2.9468 H   0  0  0  0  0  0  0  0  0  0  0  0
   -0.3144   -1.7247   -4.6881 H   0  0  0  0  0  0  0  0  0  0  0  0
   -2.0915   -3.3846   -4.1913 H   0  0  0  0  0  0  0  0  0  0  0  0
   -3.0609   -3.5064   -1.9157 H   0  0  0  0  0  0  0  0  0  0  0  0
   -4.6666   -2.8841    1.9025 H   0  0  0  0  0  0  0  0  0  0  0  0
   -3.8375   -1.3889    2.3966 H   0  0  0  0  0  0  0  0  0  0  0  0
   -5.6088   -0.0002    1.5898 H   0  0  0  0  0  0  0  0  0  0  0  0
   -6.5597   -1.3904    2.1469 H   0  0  0  0  0  0  0  0  0  0  0  0
   -6.8231   -0.6112   -0.4254 H   0  0  0  0  0  0  0  0  0  0  0  0
   -6.5961   -2.3386   -0.0923 H   0  0  0  0  0  0  0  0  0  0  0  0
   -4.7778   -1.9711   -1.5849 H   0  0  0  0  0  0  0  0  0  0  0  0
   -4.4724   -0.3272   -0.9706 H   0  0  0  0  0  0  0  0  0  0  0  0
  1  2  2  0
  2  3  1  0
  3  4  1  0
  4  5  1  0
  5  6  1  0
  6  7  2  0
  7  8  1  0
  8  9  2  0
  9 10  1  0
 10 11  2  0
  2 12  1  0
 12 13  1  0
 13 14  2  0
 14 15  1  0
 15 16  2  0
 16 17  1  0
 17 18  2  0
 18 19  1  0
 19 20  2  0
 19 21  1  0
 21 22  1  0
 22 23  1  0
 23 24  1  0
 24 25  1  0
 11  6  1  0
 18 13  1  0
 25 21  1  0
  3 26  1  0
  3 27  1  0
  4 28  1  0
  4 29  1  0
  7 30  1  0
  8 31  1  0
  9 32  1  0
 10 33  1  0
 11 34  1  0
 12 35  1  0
 14 36  1  0
 15 37  1  0
 16 38  1  0
 17 39  1  0
 22 40  1  0
 22 41  1  0
 23 42  1  0
 23 43  1  0
 24 44  1  0
 24 45  1  0
 25 46  1  0
 25 47  1  0
M  END
$$$$
