
     RDKit          3D

 44 46  0  0  0  0  0  0  0  0999 V2000
    4.0125    1.8609   -2.5137 C   0  0  0  0  0  0  0  0  0  0  0  0
    3.1079    1.4784   -1.4327 N   0  0  0  0  0  0  0  0  0  0  0  0
    1.8252    2.2121   -1.5044 C   0  0  0  0  0  0  0  0  0  0  0  0
    0.6338    1.4001   -2.0437 C   0  0  0  0  0  0  0  0  0  0  0  0
    0.4364    0.1539   -1.3043 N   0  0  0  0  0  0  0  0  0  0  0  0
   -0.8182   -0.4357   -1.3256 C   0  0  0  0  0  0  0  0  0  0  0  0
   -1.7501   -0.0345   -2.0175 O   0  0  0  0  0  0  0  0  0  0  0  0
   -1.0515   -1.6269   -0.4851 C   0  0  0  0  0  0  0  0  0  0  0  0
   -1.0953   -2.8645   -1.1445 C   0  0  0  0  0  0  0  0  0  0  0  0
   -1.3190   -4.0312   -0.4182 C   0  0  0  0  0  0  0  0  0  0  0  0
   -1.5114   -3.9611    0.9592 C   0  0  0  0  0  0  0  0  0  0  0  0
   -1.4882   -2.7238    1.6115 C   0  0  0  0  0  0  0  0  0  0  0  0
   -1.2666   -1.5257    0.9047 C   0  0  0  0  0  0  0  0  0  0  0  0
   -1.2606   -0.2437    1.6401 C   0  0  0  0  0  0  0  0  0  0  0  0
   -0.2063   -0.0146    2.5527 C   0  0  0  0  0  0  0  0  0  0  0  0
   -0.0879    1.1864    3.2555 C   0  0  0  0  0  0  0  0  0  0  0  0
   -1.0251    2.1932    3.0677 C   0  0  0  0  0  0  0  0  0  0  0  0
   -2.0868    1.9907    2.1883 C   0  0  0  0  0  0  0  0  0  0  0  0
   -2.2242    0.7783    1.4844 C   0  0  0  0  0  0  0  0  0  0  0  0
   -3.4243    0.6910    0.6127 C   0  0  0  0  0  0  0  0  0  0  0  0
   -4.0165    1.6439    0.1366 O   0  0  0  0  0  0  0  0  0  0  0  0
   -3.8843   -0.5597    0.4551 O   0  0  0  0  0  0  0  0  0  0  0  0
    1.6319   -0.4206   -0.6766 C   0  0  0  0  0  0  0  0  0  0  0  0
    2.9157    0.0138   -1.4079 C   0  0  0  0  0  0  0  0  0  0  0  0
    3.5882    1.6483   -3.5015 H   0  0  0  0  0  0  0  0  0  0  0  0
    4.2440    2.9305   -2.4603 H   0  0  0  0  0  0  0  0  0  0  0  0
    4.9664    1.3292   -2.4244 H   0  0  0  0  0  0  0  0  0  0  0  0
    1.9254    3.1430   -2.0759 H   0  0  0  0  0  0  0  0  0  0  0  0
    1.5839    2.5197   -0.4783 H   0  0  0  0  0  0  0  0  0  0  0  0
    0.7986    1.1340   -3.0947 H   0  0  0  0  0  0  0  0  0  0  0  0
   -0.2807    2.0020   -1.9945 H   0  0  0  0  0  0  0  0  0  0  0  0
   -0.9609   -2.9116   -2.2226 H   0  0  0  0  0  0  0  0  0  0  0  0
   -1.3550   -4.9915   -0.9263 H   0  0  0  0  0  0  0  0  0  0  0  0
   -1.6971   -4.8687    1.5287 H   0  0  0  0  0  0  0  0  0  0  0  0
   -1.6677   -2.6954    2.6853 H   0  0  0  0  0  0  0  0  0  0  0  0
    0.5533   -0.7802    2.7069 H   0  0  0  0  0  0  0  0  0  0  0  0
    0.7424    1.3356    3.9415 H   0  0  0  0  0  0  0  0  0  0  0  0
   -0.9352    3.1337    3.6054 H   0  0  0  0  0  0  0  0  0  0  0  0
   -2.8213    2.7840    2.0543 H   0  0  0  0  0  0  0  0  0  0  0  0
   -4.6070   -0.4567   -0.1981 H   0  0  0  0  0  0  0  0  0  0  0  0
    1.6608   -0.0737    0.3612 H   0  0  0  0  0  0  0  0  0  0  0  0
    1.5648   -1.5124   -0.6672 H   0  0  0  0  0  0  0  0  0  0  0  0
    2.8681   -0.3827   -2.4316 H   0  0  0  0  0  0  0  0  0  0  0  0
    3.7818   -0.4480   -0.9202 H   0  0  0  0  0  0  0  0  0  0  0  0
  1  2  1  0
  2  3  1  0
  3  4  1  0
  4  5  1  0
  5  6  1  0
  6  7  2  0
  6  8  1  0
  8  9  2  0
  9 10  1  0
 10 11  2  0
 11 12  1  0
 12 13  2  0
 13 14  1  0
 14 15  2  0
 15 16  1  0
 16 17  2  0
 17 18  1  0
 18 19  2  0
 19 20  1  0
 20 21  2  0
 20 22  1  0
  5 23  1  0
 23 24  1  0
 24  2  1  0
 13  8  1  0
 19 14  1  0
  1 25  1  0
  1 26  1  0
  1 27  1  0
  3 28  1  0
  3 29  1  0
  4 30  1  0
  4 31  1  0
  9 32  1  0
 10 33  1  0
 11 34  1  0
 12 35  1  0
 15 36  1  0
 16 37  1  0
 17 38  1  0
 18 39  1  0
 22 40  1  0
 23 41  1  0
 23 42  1  0
 24 43  1  0
 24 44  1  0
M  END
$$$$
