
     RDKit          3D

 52 55  0  0  0  0  0  0  0  0999 V2000
    4.7880    3.5639    0.7774 C   0  0  0  0  0  0  0  0  0  0  0  0
    4.1699    2.3032    0.5647 O   0  0  0  0  0  0  0  0  0  0  0  0
    4.9397    1.1776    0.7579 C   0  0  0  0  0  0  0  0  0  0  0  0
    6.1920    1.1988    1.3887 C   0  0  0  0  0  0  0  0  0  0  0  0
    6.9359    0.0276    1.5258 C   0  0  0  0  0  0  0  0  0  0  0  0
    6.4352   -1.1715    1.0357 C   0  0  0  0  0  0  0  0  0  0  0  0
    5.1842   -1.2051    0.4142 C   0  0  0  0  0  0  0  0  0  0  0  0
    4.4028   -0.0448    0.2686 C   0  0  0  0  0  0  0  0  0  0  0  0
    3.1344   -0.0758   -0.3474 N   0  0  0  0  0  0  0  0  0  0  0  0
    2.8597   -1.1273   -1.3375 C   0  0  0  0  0  0  0  0  0  0  0  0
    1.5354   -0.8188   -2.0776 C   0  0  0  0  0  0  0  0  0  0  0  0
    0.3460   -0.6280   -1.2064 N   0  0  0  0  0  0  0  0  0  0  0  0
   -0.0677   -1.9173   -0.5934 C   0  0  0  0  0  0  0  0  0  0  0  0
   -1.5028   -1.8392   -0.0449 C   0  0  0  0  0  0  0  0  0  0  0  0
   -1.8740   -2.5798    0.8608 O   0  0  0  0  0  0  0  0  0  0  0  0
   -2.2724   -0.9114   -0.7234 N   0  0  0  0  0  0  0  0  0  0  0  0
   -3.6242   -0.5872   -0.5341 C   0  0  0  0  0  0  0  0  0  0  0  0
   -4.4578   -1.2337    0.3791 C   0  0  0  0  0  0  0  0  0  0  0  0
   -5.8012   -0.8575    0.5147 C   0  0  0  0  0  0  0  0  0  0  0  0
   -6.3236    0.1766   -0.2708 C   0  0  0  0  0  0  0  0  0  0  0  0
   -7.6768    0.5728   -0.1508 N   0  0  0  0  0  0  0  0  0  0  0  0
   -8.6614    0.0865    0.6722 C   0  0  0  0  0  0  0  0  0  0  0  0
   -9.7768    0.7451    0.4550 N   0  0  0  0  0  0  0  0  0  0  0  0
   -9.4833    1.6594   -0.5213 N   0  0  0  0  0  0  0  0  0  0  0  0
   -8.2154    1.5659   -0.8965 N   0  0  0  0  0  0  0  0  0  0  0  0
   -5.4906    0.8271   -1.1906 C   0  0  0  0  0  0  0  0  0  0  0  0
   -4.1510    0.4442   -1.3181 C   0  0  0  0  0  0  0  0  0  0  0  0
    0.6993    0.3814   -0.1653 C   0  0  0  0  0  0  0  0  0  0  0  0
    2.0246    0.1419    0.6033 C   0  0  0  0  0  0  0  0  0  0  0  0
    4.9902    3.7258    1.8410 H   0  0  0  0  0  0  0  0  0  0  0  0
    5.6991    3.6702    0.1789 H   0  0  0  0  0  0  0  0  0  0  0  0
    4.0863    4.3385    0.4529 H   0  0  0  0  0  0  0  0  0  0  0  0
    6.6154    2.1148    1.7856 H   0  0  0  0  0  0  0  0  0  0  0  0
    7.9064    0.0536    2.0143 H   0  0  0  0  0  0  0  0  0  0  0  0
    7.0126   -2.0864    1.1407 H   0  0  0  0  0  0  0  0  0  0  0  0
    4.8245   -2.1672    0.0644 H   0  0  0  0  0  0  0  0  0  0  0  0
    2.7857   -2.1102   -0.8568 H   0  0  0  0  0  0  0  0  0  0  0  0
    3.6663   -1.1681   -2.0797 H   0  0  0  0  0  0  0  0  0  0  0  0
    1.6685    0.1021   -2.6612 H   0  0  0  0  0  0  0  0  0  0  0  0
    1.3343   -1.6067   -2.8138 H   0  0  0  0  0  0  0  0  0  0  0  0
   -0.0896   -2.7057   -1.3561 H   0  0  0  0  0  0  0  0  0  0  0  0
    0.6030   -2.2374    0.2099 H   0  0  0  0  0  0  0  0  0  0  0  0
   -1.7382   -0.3684   -1.4005 H   0  0  0  0  0  0  0  0  0  0  0  0
   -4.0907   -2.0426    1.0046 H   0  0  0  0  0  0  0  0  0  0  0  0
   -6.3989   -1.3986    1.2427 H   0  0  0  0  0  0  0  0  0  0  0  0
   -8.5264   -0.7128    1.3826 H   0  0  0  0  0  0  0  0  0  0  0  0
   -5.8616    1.6354   -1.8191 H   0  0  0  0  0  0  0  0  0  0  0  0
   -3.5269    0.9664   -2.0399 H   0  0  0  0  0  0  0  0  0  0  0  0
   -0.1199    0.4877    0.5554 H   0  0  0  0  0  0  0  0  0  0  0  0
    0.7701    1.3533   -0.6721 H   0  0  0  0  0  0  0  0  0  0  0  0
    2.1958    1.0110    1.2475 H   0  0  0  0  0  0  0  0  0  0  0  0
    1.9257   -0.7293    1.2629 H   0  0  0  0  0  0  0  0  0  0  0  0
  1  2  1  0
  2  3  1  0
  3  4  2  0
  4  5  1  0
  5  6  2  0
  6  7  1  0
  7  8  2  0
  8  9  1  0
  9 10  1  0
 10 11  1  0
 11 12  1  0
 12 13  1  0
 13 14  1  0
 14 15  2  0
 14 16  1  0
 16 17  1  0
 17 18  2  0
 18 19  1  0
 19 20  2  0
 20 21  1  0
 21 22  1  0
 22 23  2  0
 23 24  1  0
 24 25  2  0
 20 26  1  0
 26 27  2  0
 12 28  1  0
 28 29  1  0
  8  3  1  0
 29  9  1  0
 27 17  1  0
 25 21  1  0
  1 30  1  0
  1 31  1  0
  1 32  1  0
  4 33  1  0
  5 34  1  0
  6 35  1  0
  7 36  1  0
 10 37  1  0
 10 38  1  0
 11 39  1  0
 11 40  1  0
 13 41  1  0
 13 42  1  0
 16 43  1  0
 18 44  1  0
 19 45  1  0
 22 46  1  0
 26 47  1  0
 27 48  1  0
 28 49  1  0
 28 50  1  0
 29 51  1  0
 29 52  1  0
M  END
$$$$
