
     RDKit          3D

 51 55  0  0  0  0  0  0  0  0999 V2000
    3.2659   -2.3277    1.9861 C   0  0  0  0  0  0  0  0  0  0  0  0
    2.9565   -2.1186    0.5118 C   0  0  0  0  0  0  0  0  0  0  0  0
    2.5607   -0.7405    0.2491 N   0  0  0  0  0  0  0  0  0  0  0  0
    1.2566   -0.2320    0.2774 C   0  0  0  0  0  0  0  0  0  0  0  0
    0.1370   -0.9262    0.5642 C   0  0  0  0  0  0  0  0  0  0  0  0
   -1.2298   -0.3849    0.6134 C   0  0  0  0  0  0  0  0  0  0  0  0
   -1.6025    0.3323    1.7515 C   0  0  0  0  0  0  0  0  0  0  0  0
   -2.8756    0.8576    1.8557 C   0  0  0  0  0  0  0  0  0  0  0  0
   -3.7793    0.6652    0.8191 C   0  0  0  0  0  0  0  0  0  0  0  0
   -5.0714    1.2048    0.9213 C   0  0  0  0  0  0  0  0  0  0  0  0
   -6.0104    1.0283   -0.0981 C   0  0  0  0  0  0  0  0  0  0  0  0
   -7.3776    1.6412    0.0105 C   0  0  0  0  0  0  0  0  0  0  0  0
   -5.6371    0.3271   -1.2423 C   0  0  0  0  0  0  0  0  0  0  0  0
   -4.3519   -0.2169   -1.3566 C   0  0  0  0  0  0  0  0  0  0  0  0
   -3.3932   -0.0707   -0.3346 C   0  0  0  0  0  0  0  0  0  0  0  0
   -2.1201   -0.5949   -0.4042 N   0  0  0  0  0  4  0  0  0  0  0  0
   -1.7051   -1.4099   -1.5866 C   0  0  0  0  0  0  0  0  0  0  0  0
   -1.2337   -0.5130   -2.7151 C   0  0  0  0  0  0  0  0  0  0  0  0
    1.1448    1.4941   -0.1244 S   0  0  0  0  0  0  0  0  0  0  0  0
    2.9269    1.5402   -0.2803 C   0  0  0  0  0  0  0  0  0  0  0  0
    3.6236    2.6887   -0.5998 C   0  0  0  0  0  0  0  0  0  0  0  0
    5.0060    2.6227   -0.6858 C   0  0  0  0  0  0  0  0  0  0  0  0
    5.6597    1.3974   -0.4300 C   0  0  0  0  0  0  0  0  0  0  0  0
    7.3695    1.1694   -0.4866 S   0  0  0  0  0  0  0  0  0  0  0  0
    7.2385   -0.4617   -0.0459 C   0  0  0  0  0  0  0  0  0  0  0  0
    5.9286   -0.8392    0.1346 C   0  0  0  0  0  0  0  0  0  0  0  0
    4.9701    0.2168   -0.0964 C   0  0  0  0  0  0  0  0  0  0  0  0
    3.5419    0.2745   -0.0332 C   0  0  0  0  0  0  0  0  0  0  0  0
    3.5794   -3.3610    2.1641 H   0  0  0  0  0  0  0  0  0  0  0  0
    2.3826   -2.1315    2.6032 H   0  0  0  0  0  0  0  0  0  0  0  0
    4.0632   -1.6641    2.3339 H   0  0  0  0  0  0  0  0  0  0  0  0
    3.7866   -2.4273   -0.1276 H   0  0  0  0  0  0  0  0  0  0  0  0
    2.1488   -2.8039    0.2272 H   0  0  0  0  0  0  0  0  0  0  0  0
    0.1976   -1.9783    0.8243 H   0  0  0  0  0  0  0  0  0  0  0  0
   -0.8930    0.4931    2.5629 H   0  0  0  0  0  0  0  0  0  0  0  0
   -3.1490    1.4209    2.7475 H   0  0  0  0  0  0  0  0  0  0  0  0
   -5.3594    1.7744    1.8063 H   0  0  0  0  0  0  0  0  0  0  0  0
   -8.1139    1.0556   -0.5500 H   0  0  0  0  0  0  0  0  0  0  0  0
   -7.7106    1.6686    1.0533 H   0  0  0  0  0  0  0  0  0  0  0  0
   -7.3620    2.6616   -0.3843 H   0  0  0  0  0  0  0  0  0  0  0  0
   -6.3477    0.2001   -2.0593 H   0  0  0  0  0  0  0  0  0  0  0  0
   -4.1438   -0.7420   -2.2835 H   0  0  0  0  0  0  0  0  0  0  0  0
   -0.9202   -2.1130   -1.2960 H   0  0  0  0  0  0  0  0  0  0  0  0
   -2.5467   -2.0414   -1.8862 H   0  0  0  0  0  0  0  0  0  0  0  0
   -2.0007    0.2070   -3.0137 H   0  0  0  0  0  0  0  0  0  0  0  0
   -0.3460    0.0549   -2.4280 H   0  0  0  0  0  0  0  0  0  0  0  0
   -0.9759   -1.1161   -3.5912 H   0  0  0  0  0  0  0  0  0  0  0  0
    3.1113    3.6287   -0.7812 H   0  0  0  0  0  0  0  0  0  0  0  0
    5.5821    3.5104   -0.9375 H   0  0  0  0  0  0  0  0  0  0  0  0
    8.1250   -1.0717    0.0666 H   0  0  0  0  0  0  0  0  0  0  0  0
    5.6936   -1.8492    0.4332 H   0  0  0  0  0  0  0  0  0  0  0  0
  1  2  1  0
  2  3  1  0
  3  4  1  0
  4  5  2  3
  5  6  1  0
  6  7  2  0
  7  8  1  0
  8  9  2  0
  9 10  1  0
 10 11  2  0
 11 12  1  0
 11 13  1  0
 13 14  2  0
 14 15  1  0
 15 16  2  0
 16 17  1  0
 17 18  1  0
  4 19  1  0
 19 20  1  0
 20 21  2  0
 21 22  1  0
 22 23  2  0
 23 24  1  0
 24 25  1  0
 25 26  2  0
 26 27  1  0
 27 28  2  0
 28  3  1  0
 16  6  1  0
 28 20  1  0
 15  9  1  0
 27 23  1  0
  1 29  1  0
  1 30  1  0
  1 31  1  0
  2 32  1  0
  2 33  1  0
  5 34  1  0
  7 35  1  0
  8 36  1  0
 10 37  1  0
 12 38  1  0
 12 39  1  0
 12 40  1  0
 13 41  1  0
 14 42  1  0
 17 43  1  0
 17 44  1  0
 18 45  1  0
 18 46  1  0
 18 47  1  0
 21 48  1  0
 22 49  1  0
 25 50  1  0
 26 51  1  0
M  CHG  1  16   1
M  END
$$$$
