
     RDKit          3D

 47 49  0  0  0  0  0  0  0  0999 V2000
    2.2347    0.1341   -1.9797 O   0  0  0  0  0  0  0  0  0  0  0  0
    1.7606   -0.4346   -1.0006 C   0  0  0  0  0  0  0  0  0  0  0  0
    2.5830   -0.6077    0.2641 C   0  0  0  0  0  0  0  0  0  0  0  0
    1.9986    0.0831    1.4919 C   0  0  0  0  0  0  0  0  0  0  0  0
    1.7435    1.8836    1.3045 S   0  0  0  0  0  0  0  0  0  0  0  0
    3.4382    2.4205    1.1923 C   0  0  0  0  0  0  0  0  0  0  0  0
    4.2270    2.5314    2.3409 C   0  0  0  0  0  0  0  0  0  0  0  0
    5.5538    2.9560    2.2434 C   0  0  0  0  0  0  0  0  0  0  0  0
    6.0949    3.2742    0.9983 C   0  0  0  0  0  0  0  0  0  0  0  0
    5.3097    3.1721   -0.1491 C   0  0  0  0  0  0  0  0  0  0  0  0
    3.9823    2.7505   -0.0521 C   0  0  0  0  0  0  0  0  0  0  0  0
    0.5010   -0.9885   -0.9057 N   0  0  0  0  0  0  0  0  0  0  0  0
   -0.5105   -1.0580   -1.8952 C   0  0  0  0  0  0  0  0  0  0  0  0
   -0.3059   -0.6476   -3.2162 C   0  0  0  0  0  0  0  0  0  0  0  0
   -1.3130   -0.7969   -4.1765 C   0  0  0  0  0  0  0  0  0  0  0  0
   -2.5356   -1.3675   -3.8339 C   0  0  0  0  0  0  0  0  0  0  0  0
   -2.7661   -1.7673   -2.5200 C   0  0  0  0  0  0  0  0  0  0  0  0
   -1.7743   -1.5836   -1.5445 C   0  0  0  0  0  0  0  0  0  0  0  0
   -2.0541   -1.9710   -0.1353 C   0  0  0  0  0  0  0  0  0  0  0  0
   -1.1934   -2.6062    0.4754 O   0  0  0  0  0  0  0  0  0  0  0  0
   -3.2327   -1.5564    0.4609 N   0  0  0  0  0  0  0  0  0  0  0  0
   -3.5114   -1.9055    1.8438 C   0  0  0  0  0  0  0  0  0  0  0  0
   -4.8617   -1.2685    2.1305 C   0  0  0  0  0  0  0  0  0  0  0  0
   -4.8213   -0.0116    1.2714 C   0  0  0  0  0  0  0  0  0  0  0  0
   -4.1151   -0.4861    0.0069 C   0  0  0  0  0  0  0  0  0  0  0  0
    2.6680   -1.6840    0.4601 H   0  0  0  0  0  0  0  0  0  0  0  0
    3.6024   -0.2570    0.0667 H   0  0  0  0  0  0  0  0  0  0  0  0
    2.6454   -0.0951    2.3579 H   0  0  0  0  0  0  0  0  0  0  0  0
    1.0225   -0.3470    1.7396 H   0  0  0  0  0  0  0  0  0  0  0  0
    3.8146    2.2954    3.3184 H   0  0  0  0  0  0  0  0  0  0  0  0
    6.1635    3.0421    3.1389 H   0  0  0  0  0  0  0  0  0  0  0  0
    7.1274    3.6052    0.9218 H   0  0  0  0  0  0  0  0  0  0  0  0
    5.7280    3.4200   -1.1212 H   0  0  0  0  0  0  0  0  0  0  0  0
    3.3813    2.6702   -0.9562 H   0  0  0  0  0  0  0  0  0  0  0  0
    0.2664   -1.4693   -0.0364 H   0  0  0  0  0  0  0  0  0  0  0  0
    0.6402   -0.2252   -3.5414 H   0  0  0  0  0  0  0  0  0  0  0  0
   -1.1269   -0.4811   -5.2008 H   0  0  0  0  0  0  0  0  0  0  0  0
   -3.3039   -1.5034   -4.5909 H   0  0  0  0  0  0  0  0  0  0  0  0
   -3.7138   -2.2329   -2.2632 H   0  0  0  0  0  0  0  0  0  0  0  0
   -3.5114   -2.9918    1.9732 H   0  0  0  0  0  0  0  0  0  0  0  0
   -2.7255   -1.4719    2.4732 H   0  0  0  0  0  0  0  0  0  0  0  0
   -5.6705   -1.9261    1.7897 H   0  0  0  0  0  0  0  0  0  0  0  0
   -5.0121   -1.0574    3.1926 H   0  0  0  0  0  0  0  0  0  0  0  0
   -4.2205    0.7587    1.7697 H   0  0  0  0  0  0  0  0  0  0  0  0
   -5.8128    0.4031    1.0701 H   0  0  0  0  0  0  0  0  0  0  0  0
   -4.8384   -0.9162   -0.6930 H   0  0  0  0  0  0  0  0  0  0  0  0
   -3.5563    0.3152   -0.4846 H   0  0  0  0  0  0  0  0  0  0  0  0
  1  2  2  0
  2  3  1  0
  3  4  1  0
  4  5  1  0
  5  6  1  0
  6  7  2  0
  7  8  1  0
  8  9  2  0
  9 10  1  0
 10 11  2  0
  2 12  1  0
 12 13  1  0
 13 14  2  0
 14 15  1  0
 15 16  2  0
 16 17  1  0
 17 18  2  0
 18 19  1  0
 19 20  2  0
 19 21  1  0
 21 22  1  0
 22 23  1  0
 23 24  1  0
 24 25  1  0
 11  6  1  0
 18 13  1  0
 25 21  1  0
  3 26  1  0
  3 27  1  0
  4 28  1  0
  4 29  1  0
  7 30  1  0
  8 31  1  0
  9 32  1  0
 10 33  1  0
 11 34  1  0
 12 35  1  0
 14 36  1  0
 15 37  1  0
 16 38  1  0
 17 39  1  0
 22 40  1  0
 22 41  1  0
 23 42  1  0
 23 43  1  0
 24 44  1  0
 24 45  1  0
 25 46  1  0
 25 47  1  0
M  END
$$$$
