
     RDKit          3D

 41 44  0  0  0  0  0  0  0  0999 V2000
    2.9697   -3.7575    3.1354 C   0  0  0  0  0  0  0  0  0  0  0  0
    3.4313   -3.9410    1.8039 O   0  0  0  0  0  0  0  0  0  0  0  0
    2.9025   -3.1282    0.8377 C   0  0  0  0  0  0  0  0  0  0  0  0
    3.4215   -3.3401   -0.4370 C   0  0  0  0  0  0  0  0  0  0  0  0
    2.9773   -2.6021   -1.5350 C   0  0  0  0  0  0  0  0  0  0  0  0
    1.9945   -1.6342   -1.3069 C   0  0  0  0  0  0  0  0  0  0  0  0
    1.3770   -0.7959   -2.1950 N   0  0  0  0  0  0  0  0  0  0  0  0
    0.4346   -0.0021   -1.5749 C   0  0  0  0  0  0  0  0  0  0  0  0
   -0.4358    0.9484   -2.1430 C   0  0  0  0  0  0  0  0  0  0  0  0
   -0.4318    1.2333   -3.6259 C   0  0  0  0  0  0  0  0  0  0  0  0
   -1.3382    1.6037   -1.2624 C   0  0  0  0  0  0  0  0  0  0  0  0
   -2.2837    2.5270   -1.7445 C   0  0  0  0  0  0  0  0  0  0  0  0
   -3.1728    3.1561   -0.8873 C   0  0  0  0  0  0  0  0  0  0  0  0
   -3.1438    2.8889    0.4283 N   0  0  0  0  0  4  0  0  0  0  0  0
   -4.0994    3.5438    1.3382 C   0  0  0  0  0  0  0  0  0  0  0  0
   -2.2519    2.0094    0.9324 C   0  0  0  0  0  0  0  0  0  0  0  0
   -1.3095    1.3415    0.1286 C   0  0  0  0  0  0  0  0  0  0  0  0
   -0.3540    0.4244    0.6777 C   0  0  0  0  0  0  0  0  0  0  0  0
   -0.2618    0.2137    2.1722 C   0  0  0  0  0  0  0  0  0  0  0  0
    0.4863   -0.3025   -0.2141 C   0  0  0  0  0  0  0  0  0  0  0  0
    1.4548   -1.3687   -0.0523 C   0  0  0  0  0  0  0  0  0  0  0  0
    1.9178   -2.1509    1.0368 C   0  0  0  0  0  0  0  0  0  0  0  0
    1.9002   -3.9783    3.2152 H   0  0  0  0  0  0  0  0  0  0  0  0
    3.5044   -4.4655    3.7758 H   0  0  0  0  0  0  0  0  0  0  0  0
    3.1930   -2.7478    3.4956 H   0  0  0  0  0  0  0  0  0  0  0  0
    4.1850   -4.1022   -0.5824 H   0  0  0  0  0  0  0  0  0  0  0  0
    3.3840   -2.7855   -2.5246 H   0  0  0  0  0  0  0  0  0  0  0  0
    1.5772   -0.7902   -3.1842 H   0  0  0  0  0  0  0  0  0  0  0  0
   -0.2487    2.2975   -3.8073 H   0  0  0  0  0  0  0  0  0  0  0  0
    0.3501    0.6817   -4.1545 H   0  0  0  0  0  0  0  0  0  0  0  0
   -1.3907    0.9447   -4.0687 H   0  0  0  0  0  0  0  0  0  0  0  0
   -2.3491    2.7688   -2.8035 H   0  0  0  0  0  0  0  0  0  0  0  0
   -3.9101    3.8662   -1.2505 H   0  0  0  0  0  0  0  0  0  0  0  0
   -4.6208    4.3494    0.8158 H   0  0  0  0  0  0  0  0  0  0  0  0
   -4.8108    2.7841    1.6721 H   0  0  0  0  0  0  0  0  0  0  0  0
   -3.5395    3.9562    2.1819 H   0  0  0  0  0  0  0  0  0  0  0  0
   -2.3259    1.8464    2.0021 H   0  0  0  0  0  0  0  0  0  0  0  0
   -0.9646   -0.5626    2.4881 H   0  0  0  0  0  0  0  0  0  0  0  0
    0.7502   -0.0670    2.4704 H   0  0  0  0  0  0  0  0  0  0  0  0
   -0.4611    1.1347    2.7277 H   0  0  0  0  0  0  0  0  0  0  0  0
    1.4927   -1.9977    2.0182 H   0  0  0  0  0  0  0  0  0  0  0  0
  1  2  1  0
  2  3  1  0
  3  4  2  0
  4  5  1  0
  5  6  2  0
  6  7  1  0
  7  8  1  0
  8  9  2  0
  9 10  1  0
  9 11  1  0
 11 12  2  0
 12 13  1  0
 13 14  2  0
 14 15  1  0
 14 16  1  0
 16 17  2  0
 17 18  1  0
 18 19  1  0
 18 20  2  0
 20 21  1  0
 21 22  2  0
 22  3  1  0
 21  6  1  0
 20  8  1  0
 17 11  1  0
  1 23  1  0
  1 24  1  0
  1 25  1  0
  4 26  1  0
  5 27  1  0
  7 28  1  0
 10 29  1  0
 10 30  1  0
 10 31  1  0
 12 32  1  0
 13 33  1  0
 15 34  1  0
 15 35  1  0
 15 36  1  0
 16 37  1  0
 19 38  1  0
 19 39  1  0
 19 40  1  0
 22 41  1  0
M  CHG  1  14   1
M  END
$$$$
