
     RDKit          3D

 33 33  0  0  0  0  0  0  0  0999 V2000
    5.6915   -0.7928    1.6345 C   0  0  0  0  0  0  0  0  0  0  0  0
    4.4739   -0.2647    1.4509 C   0  0  0  0  0  0  0  0  0  0  0  0
    3.8306   -0.0592    0.1179 C   0  0  0  0  0  0  0  0  0  0  0  0
    2.6575   -0.9060    0.0573 N   0  0  0  0  0  0  0  0  0  0  0  0
    1.3842   -0.6469    0.4627 C   0  0  0  0  0  0  0  0  0  0  0  0
    0.2957   -1.9190    0.4942 S   0  0  0  0  0  0  0  0  0  0  0  0
    1.1056    0.6378    0.8597 N   0  0  0  0  0  0  0  0  0  0  0  0
   -0.2297    1.0211    1.1170 N   0  0  0  0  0  0  0  0  0  0  0  0
   -0.7191    2.0933    0.3914 C   0  0  0  0  0  0  0  0  0  0  0  0
    0.0038    2.8616   -0.2424 O   0  0  0  0  0  0  0  0  0  0  0  0
   -2.2335    2.2649    0.4826 C   0  0  0  0  0  0  0  0  0  0  0  0
   -2.9573    1.0473    0.5878 O   0  0  0  0  0  0  0  0  0  0  0  0
   -3.0802    0.2467   -0.5184 C   0  0  0  0  0  0  0  0  0  0  0  0
   -2.6092    0.5696   -1.7952 C   0  0  0  0  0  0  0  0  0  0  0  0
   -2.7712   -0.3302   -2.8549 C   0  0  0  0  0  0  0  0  0  0  0  0
   -3.4044   -1.5530   -2.6448 C   0  0  0  0  0  0  0  0  0  0  0  0
   -3.5972   -2.6500   -3.9555 Cl  0  0  0  0  0  0  0  0  0  0  0  0
   -3.8825   -1.8902   -1.3840 C   0  0  0  0  0  0  0  0  0  0  0  0
   -3.7204   -0.9920   -0.3271 C   0  0  0  0  0  0  0  0  0  0  0  0
   -4.3209   -1.4569    1.2279 Cl  0  0  0  0  0  0  0  0  0  0  0  0
    6.3067   -1.1211    0.8025 H   0  0  0  0  0  0  0  0  0  0  0  0
    6.0980   -0.9118    2.6346 H   0  0  0  0  0  0  0  0  0  0  0  0
    3.9022    0.0486    2.3225 H   0  0  0  0  0  0  0  0  0  0  0  0
    4.4896   -0.3602   -0.7030 H   0  0  0  0  0  0  0  0  0  0  0  0
    3.5693    0.9920   -0.0222 H   0  0  0  0  0  0  0  0  0  0  0  0
    2.8308   -1.8862   -0.1341 H   0  0  0  0  0  0  0  0  0  0  0  0
    1.6631    1.3940    0.4674 H   0  0  0  0  0  0  0  0  0  0  0  0
   -0.8707    0.2602    1.3513 H   0  0  0  0  0  0  0  0  0  0  0  0
   -2.6007    2.8758   -0.3496 H   0  0  0  0  0  0  0  0  0  0  0  0
   -2.4292    2.8352    1.3980 H   0  0  0  0  0  0  0  0  0  0  0  0
   -2.1068    1.5074   -2.0119 H   0  0  0  0  0  0  0  0  0  0  0  0
   -2.3967   -0.0696   -3.8423 H   0  0  0  0  0  0  0  0  0  0  0  0
   -4.3729   -2.8457   -1.2212 H   0  0  0  0  0  0  0  0  0  0  0  0
  1  2  2  0
  2  3  1  0
  3  4  1  0
  4  5  1  0
  5  6  2  0
  5  7  1  0
  7  8  1  0
  8  9  1  0
  9 10  2  0
  9 11  1  0
 11 12  1  0
 12 13  1  0
 13 14  2  0
 14 15  1  0
 15 16  2  0
 16 17  1  0
 16 18  1  0
 18 19  2  0
 19 20  1  0
 19 13  1  0
  1 21  1  0
  1 22  1  0
  2 23  1  0
  3 24  1  0
  3 25  1  0
  4 26  1  0
  7 27  1  0
  8 28  1  0
 11 29  1  0
 11 30  1  0
 14 31  1  0
 15 32  1  0
 18 33  1  0
M  END
$$$$
