
     RDKit          3D

 48 51  0  0  0  0  0  0  0  0999 V2000
   -7.3028   -2.9627   -0.5455 C   0  0  0  0  0  0  0  0  0  0  0  0
   -6.2945   -1.8538   -0.4505 C   0  0  0  0  0  0  0  0  0  0  0  0
   -6.7269   -0.5558   -0.2070 C   0  0  0  0  0  0  0  0  0  0  0  0
   -5.8004    0.4977   -0.1191 C   0  0  0  0  0  0  0  0  0  0  0  0
   -6.3114    1.8889    0.1326 C   0  0  0  0  0  0  0  0  0  0  0  0
   -4.4239    0.1660   -0.2676 C   0  0  0  0  0  0  0  0  0  0  0  0
   -3.1982    0.9281   -0.2258 C   0  0  0  0  0  0  0  0  0  0  0  0
   -3.1386    2.2625    0.0103 N   0  0  0  0  0  0  0  0  0  0  0  0
   -2.0636    0.1669   -0.4580 C   0  0  0  0  0  0  0  0  0  0  0  0
   -0.6745    0.6142   -0.4792 C   0  0  0  0  0  0  0  0  0  0  0  0
   -0.3361    1.7707   -0.2108 O   0  0  0  0  0  0  0  0  0  0  0  0
    0.2712   -0.3504   -0.8333 N   0  0  0  0  0  0  0  0  0  0  0  0
    1.6371   -0.1257   -0.5171 N   0  0  0  0  0  0  0  0  0  0  0  0
    2.3019    0.8585   -1.3642 C   0  0  0  0  0  0  0  0  0  0  0  0
    3.8179    0.6523   -1.2839 C   0  0  0  0  0  0  0  0  0  0  0  0
    4.5212    0.8779   -2.2667 O   0  0  0  0  0  0  0  0  0  0  0  0
    4.2713    0.2519   -0.0113 N   0  0  0  0  0  0  0  0  0  0  0  0
    5.6476   -0.0443    0.2733 C   0  0  0  0  0  0  0  0  0  0  0  0
    6.6956    0.5324   -0.4586 C   0  0  0  0  0  0  0  0  0  0  0  0
    8.0351    0.2411   -0.1658 C   0  0  0  0  0  0  0  0  0  0  0  0
    8.3564   -0.6422    0.8602 C   0  0  0  0  0  0  0  0  0  0  0  0
    7.3358   -1.2410    1.5892 C   0  0  0  0  0  0  0  0  0  0  0  0
    6.0042   -0.9458    1.2930 C   0  0  0  0  0  0  0  0  0  0  0  0
    5.0636   -1.6160    1.9766 F   0  0  0  0  0  0  0  0  0  0  0  0
    3.3395    0.4211    1.1186 C   0  0  0  0  0  0  0  0  0  0  0  0
    2.0014   -0.2434    0.8240 C   0  0  0  0  0  0  0  0  0  0  0  0
    1.2750   -0.7239    1.6903 O   0  0  0  0  0  0  0  0  0  0  0  0
   -2.4720   -1.4753   -0.7127 S   0  0  0  0  0  0  0  0  0  0  0  0
   -4.1321   -1.1721   -0.5168 C   0  0  0  0  0  0  0  0  0  0  0  0
   -5.0044   -2.1943   -0.6161 N   0  0  0  0  0  0  0  0  0  0  0  0
   -6.8111   -3.9226   -0.7337 H   0  0  0  0  0  0  0  0  0  0  0  0
   -7.8631   -3.0453    0.3911 H   0  0  0  0  0  0  0  0  0  0  0  0
   -7.9998   -2.7702   -1.3671 H   0  0  0  0  0  0  0  0  0  0  0  0
   -7.7901   -0.3597   -0.0903 H   0  0  0  0  0  0  0  0  0  0  0  0
   -6.0272    2.2160    1.1373 H   0  0  0  0  0  0  0  0  0  0  0  0
   -7.4029    1.9383    0.0581 H   0  0  0  0  0  0  0  0  0  0  0  0
   -5.9051    2.5837   -0.6087 H   0  0  0  0  0  0  0  0  0  0  0  0
   -2.2243    2.6948    0.1747 H   0  0  0  0  0  0  0  0  0  0  0  0
   -3.8780    2.7436    0.5103 H   0  0  0  0  0  0  0  0  0  0  0  0
   -0.0245   -1.3217   -0.7639 H   0  0  0  0  0  0  0  0  0  0  0  0
    1.9797    0.7120   -2.4002 H   0  0  0  0  0  0  0  0  0  0  0  0
    2.0723    1.8740   -1.0274 H   0  0  0  0  0  0  0  0  0  0  0  0
    6.5076    1.2493   -1.2533 H   0  0  0  0  0  0  0  0  0  0  0  0
    8.8260    0.7115   -0.7463 H   0  0  0  0  0  0  0  0  0  0  0  0
    9.3958   -0.8700    1.0816 H   0  0  0  0  0  0  0  0  0  0  0  0
    7.5623   -1.9517    2.3781 H   0  0  0  0  0  0  0  0  0  0  0  0
    3.1601    1.4960    1.2454 H   0  0  0  0  0  0  0  0  0  0  0  0
    3.7269    0.0387    2.0628 H   0  0  0  0  0  0  0  0  0  0  0  0
  1  2  1  0
  2  3  2  0
  3  4  1  0
  4  5  1  0
  4  6  2  0
  6  7  1  0
  7  8  1  0
  7  9  2  0
  9 10  1  0
 10 11  2  0
 10 12  1  0
 12 13  1  0
 13 14  1  0
 14 15  1  0
 15 16  2  0
 15 17  1  0
 17 18  1  0
 18 19  2  0
 19 20  1  0
 20 21  2  0
 21 22  1  0
 22 23  2  0
 23 24  1  0
 17 25  1  0
 25 26  1  0
 26 27  2  0
  9 28  1  0
 28 29  1  0
 29 30  2  0
 30  2  1  0
 29  6  1  0
 26 13  1  0
 23 18  1  0
  1 31  1  0
  1 32  1  0
  1 33  1  0
  3 34  1  0
  5 35  1  0
  5 36  1  0
  5 37  1  0
  8 38  1  0
  8 39  1  0
 12 40  1  0
 14 41  1  0
 14 42  1  0
 19 43  1  0
 20 44  1  0
 21 45  1  0
 22 46  1  0
 25 47  1  0
 25 48  1  0
M  END
$$$$
