
     RDKit          3D

 47 49  0  0  0  0  0  0  0  0999 V2000
    5.5150   -3.0414    1.8114 C   0  0  0  0  0  0  0  0  0  0  0  0
    5.1928   -1.7072    1.1459 C   0  0  0  0  0  0  0  0  0  0  0  0
    4.1190   -1.8120    0.1493 N   0  0  0  0  0  0  0  0  0  0  0  0
    2.8356   -2.2315    0.7553 C   0  0  0  0  0  0  0  0  0  0  0  0
    1.5821   -1.7621   -0.0182 C   0  0  0  0  0  0  0  0  0  0  0  0
    1.5063   -0.2807   -0.0712 N   0  0  0  0  0  0  0  0  0  0  0  0
    0.2893    0.4234   -0.0068 C   0  0  0  0  0  0  0  0  0  0  0  0
   -0.9037   -0.1357   -0.3044 C   0  0  0  0  0  0  0  0  0  0  0  0
   -2.1908    0.5309   -0.1745 C   0  0  0  0  0  0  0  0  0  0  0  0
   -3.3182   -0.0444   -0.6348 C   0  0  0  0  0  0  0  0  0  0  0  0
   -4.6511    0.5585   -0.5145 C   0  0  0  0  0  0  0  0  0  0  0  0
   -5.7560    0.0346   -1.1048 C   0  0  0  0  0  0  0  0  0  0  0  0
   -7.0410    0.6315   -0.9415 C   0  0  0  0  0  0  0  0  0  0  0  0
   -8.0809    1.1267   -0.7986 N   0  0  0  0  0  0  0  0  0  0  0  0
   -5.7059   -1.1422   -1.9095 C   0  0  0  0  0  0  0  0  0  0  0  0
   -5.6546   -2.1026   -2.5593 N   0  0  0  0  0  0  0  0  0  0  0  0
   -4.6968    1.8170    0.3440 C   0  0  0  0  0  0  0  0  0  0  0  0
   -3.4512    2.6825    0.1613 C   0  0  0  0  0  0  0  0  0  0  0  0
   -2.1863    1.8847    0.4992 C   0  0  0  0  0  0  0  0  0  0  0  0
   -0.9364    2.6730    0.1083 C   0  0  0  0  0  0  0  0  0  0  0  0
    0.3350    1.8840    0.4301 C   0  0  0  0  0  0  0  0  0  0  0  0
    2.8296    0.3855   -0.0911 C   0  0  0  0  0  0  0  0  0  0  0  0
    3.9482   -0.5508   -0.6031 C   0  0  0  0  0  0  0  0  0  0  0  0
    4.6857   -3.4002    2.4289 H   0  0  0  0  0  0  0  0  0  0  0  0
    5.7485   -3.8080    1.0650 H   0  0  0  0  0  0  0  0  0  0  0  0
    6.3880   -2.9316    2.4633 H   0  0  0  0  0  0  0  0  0  0  0  0
    4.9497   -0.9609    1.9125 H   0  0  0  0  0  0  0  0  0  0  0  0
    6.1108   -1.3689    0.6491 H   0  0  0  0  0  0  0  0  0  0  0  0
    2.7522   -1.8431    1.7798 H   0  0  0  0  0  0  0  0  0  0  0  0
    2.8184   -3.3256    0.8182 H   0  0  0  0  0  0  0  0  0  0  0  0
    0.7091   -2.1756    0.5003 H   0  0  0  0  0  0  0  0  0  0  0  0
    1.5856   -2.1626   -1.0390 H   0  0  0  0  0  0  0  0  0  0  0  0
   -0.9330   -1.1581   -0.6713 H   0  0  0  0  0  0  0  0  0  0  0  0
   -3.2375   -1.0132   -1.1272 H   0  0  0  0  0  0  0  0  0  0  0  0
   -4.7843    1.5203    1.3975 H   0  0  0  0  0  0  0  0  0  0  0  0
   -5.5686    2.4388    0.1146 H   0  0  0  0  0  0  0  0  0  0  0  0
   -3.4108    3.0508   -0.8728 H   0  0  0  0  0  0  0  0  0  0  0  0
   -3.5175    3.5648    0.8094 H   0  0  0  0  0  0  0  0  0  0  0  0
   -2.1649    1.7160    1.5857 H   0  0  0  0  0  0  0  0  0  0  0  0
   -0.9104    3.6342    0.6358 H   0  0  0  0  0  0  0  0  0  0  0  0
   -0.9549    2.9032   -0.9659 H   0  0  0  0  0  0  0  0  0  0  0  0
    1.1630    2.4157   -0.0484 H   0  0  0  0  0  0  0  0  0  0  0  0
    0.5181    1.9114    1.5119 H   0  0  0  0  0  0  0  0  0  0  0  0
    2.8015    1.2486   -0.7654 H   0  0  0  0  0  0  0  0  0  0  0  0
    3.0712    0.7443    0.9164 H   0  0  0  0  0  0  0  0  0  0  0  0
    4.8912    0.0065   -0.6654 H   0  0  0  0  0  0  0  0  0  0  0  0
    3.7087   -0.8285   -1.6384 H   0  0  0  0  0  0  0  0  0  0  0  0
  1  2  1  0
  2  3  1  0
  3  4  1  0
  4  5  1  0
  5  6  1  0
  6  7  1  0
  7  8  2  0
  8  9  1  0
  9 10  2  0
 10 11  1  0
 11 12  2  3
 12 13  1  0
 13 14  3  0
 12 15  1  0
 15 16  3  0
 11 17  1  0
 17 18  1  0
 18 19  1  0
 19 20  1  0
 20 21  1  0
  6 22  1  0
 22 23  1  0
 23  3  1  0
 21  7  1  0
 19  9  1  0
  1 24  1  0
  1 25  1  0
  1 26  1  0
  2 27  1  0
  2 28  1  0
  4 29  1  0
  4 30  1  0
  5 31  1  0
  5 32  1  0
  8 33  1  0
 10 34  1  0
 17 35  1  0
 17 36  1  0
 18 37  1  0
 18 38  1  0
 19 39  1  0
 20 40  1  0
 20 41  1  0
 21 42  1  0
 21 43  1  0
 22 44  1  0
 22 45  1  0
 23 46  1  0
 23 47  1  0
M  END
$$$$
