
     RDKit          3D

 43 46  0  0  0  0  0  0  0  0999 V2000
    8.1080    1.0254    0.6280 C   0  0  0  0  0  0  0  0  0  0  0  0
    6.6293    0.8268    0.4667 C   0  0  0  0  0  0  0  0  0  0  0  0
    5.7988    0.7413    1.5912 C   0  0  0  0  0  0  0  0  0  0  0  0
    4.4166    0.5903    1.4440 C   0  0  0  0  0  0  0  0  0  0  0  0
    3.8513    0.5251    0.1642 C   0  0  0  0  0  0  0  0  0  0  0  0
    2.3829    0.3641   -0.0439 C   0  0  0  0  0  0  0  0  0  0  0  0
    1.8758    0.8875   -1.0283 O   0  0  0  0  0  0  0  0  0  0  0  0
    1.7519   -0.4079    0.8983 N   0  0  0  0  0  0  0  0  0  0  0  0
    0.3969   -0.6899    0.9475 C   0  0  0  0  0  0  0  0  0  0  0  0
    0.0502   -1.5332    1.9345 N   0  0  0  0  0  0  0  0  0  0  0  0
   -1.2615   -1.8464    2.0314 C   0  0  0  0  0  0  0  0  0  0  0  0
   -2.2221   -1.3406    1.1868 C   0  0  0  0  0  0  0  0  0  0  0  0
   -1.7777   -0.4712    0.2147 C   0  0  0  0  0  0  0  0  0  0  0  0
   -0.4726   -0.1478    0.0853 N   0  0  0  0  0  0  0  0  0  0  0  0
   -2.7290    0.1294   -0.7835 C   0  0  0  0  0  0  0  0  0  0  0  0
   -4.1367    0.2503   -0.1898 C   0  0  0  0  0  0  0  0  0  0  0  0
   -5.1028    0.8105   -1.1799 C   0  0  0  0  0  0  0  0  0  0  0  0
   -5.4277    0.5082   -2.4871 C   0  0  0  0  0  0  0  0  0  0  0  0
   -6.4443    1.4178   -2.8663 C   0  0  0  0  0  0  0  0  0  0  0  0
   -6.6770    2.2120   -1.7689 C   0  0  0  0  0  0  0  0  0  0  0  0
   -5.8696    1.8486   -0.7405 O   0  0  0  0  0  0  0  0  0  0  0  0
   -4.6175   -1.1087    0.3244 C   0  0  0  0  0  0  0  0  0  0  0  0
   -3.6404   -1.7077    1.3105 C   0  0  0  0  0  0  0  0  0  0  0  0
   -3.9847   -2.5202    2.1631 O   0  0  0  0  0  0  0  0  0  0  0  0
    4.6751    0.6438   -0.9609 C   0  0  0  0  0  0  0  0  0  0  0  0
    6.0556    0.7935   -0.8099 C   0  0  0  0  0  0  0  0  0  0  0  0
    8.6553    0.5810   -0.2100 H   0  0  0  0  0  0  0  0  0  0  0  0
    8.3390    2.0940    0.6752 H   0  0  0  0  0  0  0  0  0  0  0  0
    8.4689    0.5439    1.5429 H   0  0  0  0  0  0  0  0  0  0  0  0
    6.2245    0.8023    2.5910 H   0  0  0  0  0  0  0  0  0  0  0  0
    3.7980    0.5590    2.3364 H   0  0  0  0  0  0  0  0  0  0  0  0
    2.2757   -0.8995    1.6035 H   0  0  0  0  0  0  0  0  0  0  0  0
   -1.5156   -2.5374    2.8314 H   0  0  0  0  0  0  0  0  0  0  0  0
   -2.3648    1.1186   -1.0889 H   0  0  0  0  0  0  0  0  0  0  0  0
   -2.7303   -0.5063   -1.6782 H   0  0  0  0  0  0  0  0  0  0  0  0
   -4.0830    0.9379    0.6676 H   0  0  0  0  0  0  0  0  0  0  0  0
   -4.9873   -0.2697   -3.0955 H   0  0  0  0  0  0  0  0  0  0  0  0
   -6.9463    1.4873   -3.8210 H   0  0  0  0  0  0  0  0  0  0  0  0
   -7.3479    3.0356   -1.5680 H   0  0  0  0  0  0  0  0  0  0  0  0
   -4.7533   -1.8261   -0.4941 H   0  0  0  0  0  0  0  0  0  0  0  0
   -5.5825   -0.9895    0.8323 H   0  0  0  0  0  0  0  0  0  0  0  0
    4.2421    0.6215   -1.9594 H   0  0  0  0  0  0  0  0  0  0  0  0
    6.6788    0.8881   -1.6968 H   0  0  0  0  0  0  0  0  0  0  0  0
  1  2  1  0
  2  3  2  0
  3  4  1  0
  4  5  2  0
  5  6  1  0
  6  7  2  0
  6  8  1  0
  8  9  1  0
  9 10  2  0
 10 11  1  0
 11 12  2  0
 12 13  1  0
 13 14  2  0
 13 15  1  0
 15 16  1  0
 16 17  1  0
 17 18  2  0
 18 19  1  0
 19 20  2  0
 20 21  1  0
 16 22  1  0
 22 23  1  0
 23 24  2  0
  5 25  1  0
 25 26  2  0
 26  2  1  0
 14  9  1  0
 21 17  1  0
 23 12  1  0
  1 27  1  0
  1 28  1  0
  1 29  1  0
  3 30  1  0
  4 31  1  0
  8 32  1  0
 11 33  1  0
 15 34  1  0
 15 35  1  0
 16 36  1  0
 18 37  1  0
 19 38  1  0
 20 39  1  0
 22 40  1  0
 22 41  1  0
 25 42  1  0
 26 43  1  0
M  END
$$$$
