
     RDKit          3D

 46 48  0  0  0  0  0  0  0  0999 V2000
   -5.2393   -2.5271    2.3281 C   0  0  0  0  0  0  0  0  0  0  0  0
   -5.3028   -1.3067    1.4211 C   0  0  0  0  0  0  0  0  0  0  0  0
   -5.0198   -1.6896   -0.0307 C   0  0  0  0  0  0  0  0  0  0  0  0
   -5.1159   -0.2420   -1.1383 S   0  0  0  0  0  0  0  0  0  0  0  0
   -3.4992    0.5017   -0.9322 C   0  0  0  0  0  0  0  0  0  0  0  0
   -2.6641   -0.0911   -0.0455 N   0  0  0  0  0  0  0  0  0  0  0  0
   -1.4201    0.4266    0.1572 C   0  0  0  0  0  0  0  0  0  0  0  0
   -0.5904   -0.3084    1.1724 C   0  0  0  0  0  0  0  0  0  0  0  0
   -0.9584    1.5572   -0.5240 C   0  0  0  0  0  0  0  0  0  0  0  0
    0.3764    2.1065   -0.3243 C   0  0  0  0  0  0  0  0  0  0  0  0
    0.6528    3.4559   -0.2643 C   0  0  0  0  0  0  0  0  0  0  0  0
    2.3311    3.7008   -0.0485 S   0  0  0  0  0  0  0  0  0  0  0  0
    2.5961    1.9791   -0.0121 C   0  0  0  0  0  0  0  0  0  0  0  0
    3.9179    1.4448    0.1820 C   0  0  0  0  0  0  0  0  0  0  0  0
    4.8944    2.2128    0.8951 C   0  0  0  0  0  0  0  0  0  0  0  0
    5.6938    2.8236    1.4752 N   0  0  0  0  0  0  0  0  0  0  0  0
    4.2432    0.2104   -0.2740 C   0  0  0  0  0  0  0  0  0  0  0  0
    5.5976   -0.4429   -0.0798 C   0  0  0  0  0  0  0  0  0  0  0  0
    5.3732   -1.8903   -0.4958 C   0  0  0  0  0  0  0  0  0  0  0  0
    4.3202   -1.7899   -1.5855 C   0  0  0  0  0  0  0  0  0  0  0  0
    3.3557   -0.7347   -1.0575 C   0  0  0  0  0  0  0  0  0  0  0  0
    1.4793    1.2874   -0.1792 N   0  0  0  0  0  0  0  0  0  0  0  0
   -1.8347    2.1550   -1.4401 C   0  0  0  0  0  0  0  0  0  0  0  0
   -3.1176    1.6312   -1.6499 C   0  0  0  0  0  0  0  0  0  0  0  0
   -3.9770    2.2746   -2.5965 C   0  0  0  0  0  0  0  0  0  0  0  0
   -4.6311    2.8351   -3.3759 N   0  0  0  0  0  0  0  0  0  0  0  0
   -4.2486   -2.9920    2.2910 H   0  0  0  0  0  0  0  0  0  0  0  0
   -5.9823   -3.2763    2.0329 H   0  0  0  0  0  0  0  0  0  0  0  0
   -5.4409   -2.2390    3.3645 H   0  0  0  0  0  0  0  0  0  0  0  0
   -6.2987   -0.8568    1.5084 H   0  0  0  0  0  0  0  0  0  0  0  0
   -4.5798   -0.5670    1.7825 H   0  0  0  0  0  0  0  0  0  0  0  0
   -5.7842   -2.3978   -0.3712 H   0  0  0  0  0  0  0  0  0  0  0  0
   -4.0551   -2.1988   -0.1349 H   0  0  0  0  0  0  0  0  0  0  0  0
   -1.1998   -1.0492    1.7038 H   0  0  0  0  0  0  0  0  0  0  0  0
   -0.1888    0.3818    1.9223 H   0  0  0  0  0  0  0  0  0  0  0  0
    0.2267   -0.8451    0.6815 H   0  0  0  0  0  0  0  0  0  0  0  0
   -0.0226    4.2960   -0.3320 H   0  0  0  0  0  0  0  0  0  0  0  0
    6.3345    0.0266   -0.7412 H   0  0  0  0  0  0  0  0  0  0  0  0
    5.9531   -0.3921    0.9531 H   0  0  0  0  0  0  0  0  0  0  0  0
    6.2933   -2.3663   -0.8488 H   0  0  0  0  0  0  0  0  0  0  0  0
    4.9919   -2.4755    0.3510 H   0  0  0  0  0  0  0  0  0  0  0  0
    3.8238   -2.7468   -1.7718 H   0  0  0  0  0  0  0  0  0  0  0  0
    4.7767   -1.4539   -2.5263 H   0  0  0  0  0  0  0  0  0  0  0  0
    2.8312   -0.2497   -1.8868 H   0  0  0  0  0  0  0  0  0  0  0  0
    2.6275   -1.2046   -0.3847 H   0  0  0  0  0  0  0  0  0  0  0  0
   -1.5192    3.0263   -2.0142 H   0  0  0  0  0  0  0  0  0  0  0  0
  1  2  1  0
  2  3  1  0
  3  4  1  0
  4  5  1  0
  5  6  2  0
  6  7  1  0
  7  8  1  0
  7  9  2  0
  9 10  1  0
 10 11  2  0
 11 12  1  0
 12 13  1  0
 13 14  1  0
 14 15  1  0
 15 16  3  0
 14 17  2  3
 17 18  1  0
 18 19  1  0
 19 20  1  0
 20 21  1  0
 13 22  2  0
  9 23  1  0
 23 24  2  0
 24 25  1  0
 25 26  3  0
 24  5  1  0
 22 10  1  0
 21 17  1  0
  1 27  1  0
  1 28  1  0
  1 29  1  0
  2 30  1  0
  2 31  1  0
  3 32  1  0
  3 33  1  0
  8 34  1  0
  8 35  1  0
  8 36  1  0
 11 37  1  0
 18 38  1  0
 18 39  1  0
 19 40  1  0
 19 41  1  0
 20 42  1  0
 20 43  1  0
 21 44  1  0
 21 45  1  0
 23 46  1  0
M  END
$$$$
