
     RDKit          3D

 53 56  0  0  0  0  0  0  0  0999 V2000
    8.6493   -0.5181    1.9441 C   0  0  0  0  0  0  0  0  0  0  0  0
    7.4904   -0.3131    0.9851 C   0  0  0  0  0  0  0  0  0  0  0  0
    6.2781   -0.4688    1.7208 O   0  0  0  0  0  0  0  0  0  0  0  0
    5.1087   -0.3382    1.0256 C   0  0  0  0  0  0  0  0  0  0  0  0
    3.9536   -0.5249    1.7835 C   0  0  0  0  0  0  0  0  0  0  0  0
    2.6857   -0.4228    1.1974 C   0  0  0  0  0  0  0  0  0  0  0  0
    2.5359   -0.1323   -0.1692 C   0  0  0  0  0  0  0  0  0  0  0  0
    1.2104   -0.0253   -0.8162 C   0  0  0  0  0  0  0  0  0  0  0  0
    0.1010   -0.7345   -0.3909 C   0  0  0  0  0  0  0  0  0  0  0  0
   -1.1023   -0.5512   -1.0713 C   0  0  0  0  0  0  0  0  0  0  0  0
   -2.2627   -1.3122   -0.5736 C   0  0  0  0  0  0  0  0  0  0  0  0
   -2.2835   -2.5217   -0.7818 O   0  0  0  0  0  0  0  0  0  0  0  0
   -3.2511   -0.6284    0.1197 N   0  0  0  0  0  0  0  0  0  0  0  0
   -3.1838    0.7852    0.5172 C   0  0  0  0  0  0  0  0  0  0  0  0
   -4.0365    1.0673    1.7679 C   0  0  0  0  0  0  0  0  0  0  0  0
   -5.4626    0.7278    1.5924 N   0  0  0  0  0  0  0  0  0  0  0  0
   -6.1211    0.5785    2.8877 C   0  0  0  0  0  0  0  0  0  0  0  0
   -5.6603   -0.4592    0.7345 C   0  0  0  0  0  0  0  0  0  0  0  0
   -4.4289   -1.3684    0.5739 C   0  0  0  0  0  0  0  0  0  0  0  0
   -1.1939    0.2928   -2.1946 C   0  0  0  0  0  0  0  0  0  0  0  0
   -2.3645    0.4855   -2.9706 C   0  0  0  0  0  0  0  0  0  0  0  0
   -2.3642    1.3485   -4.0639 C   0  0  0  0  0  0  0  0  0  0  0  0
   -1.1990    2.0233   -4.3988 C   0  0  0  0  0  0  0  0  0  0  0  0
   -0.0416    1.8246   -3.6418 C   0  0  0  0  0  0  0  0  0  0  0  0
   -0.0146    0.9681   -2.5490 C   0  0  0  0  0  0  0  0  0  0  0  0
    1.1412    0.8192   -1.8775 N   0  0  0  0  0  0  0  0  0  0  0  0
    3.7150    0.0627   -0.9123 C   0  0  0  0  0  0  0  0  0  0  0  0
    4.9853   -0.0402   -0.3279 C   0  0  0  0  0  0  0  0  0  0  0  0
    9.6069   -0.4128    1.4266 H   0  0  0  0  0  0  0  0  0  0  0  0
    8.6011   -1.5123    2.4004 H   0  0  0  0  0  0  0  0  0  0  0  0
    8.6067    0.2096    2.7612 H   0  0  0  0  0  0  0  0  0  0  0  0
    7.5506   -1.0617    0.1868 H   0  0  0  0  0  0  0  0  0  0  0  0
    7.5511    0.6960    0.5614 H   0  0  0  0  0  0  0  0  0  0  0  0
    4.0388   -0.7499    2.8440 H   0  0  0  0  0  0  0  0  0  0  0  0
    1.8182   -0.5608    1.8377 H   0  0  0  0  0  0  0  0  0  0  0  0
    0.1522   -1.4327    0.4376 H   0  0  0  0  0  0  0  0  0  0  0  0
   -2.1449    1.0694    0.7101 H   0  0  0  0  0  0  0  0  0  0  0  0
   -3.5466    1.3819   -0.3274 H   0  0  0  0  0  0  0  0  0  0  0  0
   -3.9533    2.1292    2.0269 H   0  0  0  0  0  0  0  0  0  0  0  0
   -3.6084    0.4939    2.6018 H   0  0  0  0  0  0  0  0  0  0  0  0
   -7.1996    0.4388    2.7561 H   0  0  0  0  0  0  0  0  0  0  0  0
   -5.7284   -0.2748    3.4527 H   0  0  0  0  0  0  0  0  0  0  0  0
   -5.9936    1.4835    3.4914 H   0  0  0  0  0  0  0  0  0  0  0  0
   -5.9294   -0.0822   -0.2608 H   0  0  0  0  0  0  0  0  0  0  0  0
   -6.5173   -1.0587    1.0655 H   0  0  0  0  0  0  0  0  0  0  0  0
   -4.1712   -1.8321    1.5337 H   0  0  0  0  0  0  0  0  0  0  0  0
   -4.6525   -2.1755   -0.1325 H   0  0  0  0  0  0  0  0  0  0  0  0
   -3.2839   -0.0446   -2.7278 H   0  0  0  0  0  0  0  0  0  0  0  0
   -3.2681    1.4879   -4.6516 H   0  0  0  0  0  0  0  0  0  0  0  0
   -1.1811    2.6988   -5.2502 H   0  0  0  0  0  0  0  0  0  0  0  0
    0.8699    2.3514   -3.9163 H   0  0  0  0  0  0  0  0  0  0  0  0
    3.6490    0.2960   -1.9748 H   0  0  0  0  0  0  0  0  0  0  0  0
    5.8495    0.1200   -0.9631 H   0  0  0  0  0  0  0  0  0  0  0  0
  1  2  1  0
  2  3  1  0
  3  4  1  0
  4  5  2  0
  5  6  1  0
  6  7  2  0
  7  8  1  0
  8  9  2  0
  9 10  1  0
 10 11  1  0
 11 12  2  0
 11 13  1  0
 13 14  1  0
 14 15  1  0
 15 16  1  0
 16 17  1  0
 16 18  1  0
 18 19  1  0
 10 20  2  0
 20 21  1  0
 21 22  2  0
 22 23  1  0
 23 24  2  0
 24 25  1  0
 25 26  2  0
  7 27  1  0
 27 28  2  0
 28  4  1  0
 26  8  1  0
 19 13  1  0
 25 20  1  0
  1 29  1  0
  1 30  1  0
  1 31  1  0
  2 32  1  0
  2 33  1  0
  5 34  1  0
  6 35  1  0
  9 36  1  0
 14 37  1  0
 14 38  1  0
 15 39  1  0
 15 40  1  0
 17 41  1  0
 17 42  1  0
 17 43  1  0
 18 44  1  0
 18 45  1  0
 19 46  1  0
 19 47  1  0
 21 48  1  0
 22 49  1  0
 23 50  1  0
 24 51  1  0
 27 52  1  0
 28 53  1  0
M  END
$$$$
