
     RDKit          3D

 61 65  0  0  0  0  0  0  0  0999 V2000
    3.0705   -1.6437   -1.8973 C   0  0  0  0  0  0  0  0  0  0  0  0
    3.3780   -0.6657   -0.8237 C   0  0  0  0  0  0  0  0  0  0  0  0
    2.4978   -0.0528    0.0514 C   0  0  0  0  0  0  0  0  0  0  0  0
    1.0105   -0.2005    0.1940 C   0  0  0  0  0  0  0  0  0  0  0  0
    0.2447    0.7616   -0.7157 C   0  0  0  0  0  0  0  0  0  0  0  0
   -1.1708    0.6055   -0.5381 O   0  0  0  0  0  0  0  0  0  0  0  0
   -1.7003    1.2827    0.5237 C   0  0  0  0  0  0  0  0  0  0  0  0
   -1.0301    1.9426    1.3068 O   0  0  0  0  0  0  0  0  0  0  0  0
   -3.2105    1.0806    0.6119 C   0  0  0  0  0  0  0  0  0  0  0  0
   -3.5319   -0.4098    0.8606 C   0  0  0  0  0  0  0  0  0  0  0  0
   -5.0517   -0.6191    0.9626 C   0  0  0  0  0  0  0  0  0  0  0  0
   -5.6029    0.2157    2.1287 C   0  0  0  0  0  0  0  0  0  0  0  0
   -5.3078    1.7051    1.8940 C   0  0  0  0  0  0  0  0  0  0  0  0
   -5.9741    2.1568    0.5844 C   0  0  0  0  0  0  0  0  0  0  0  0
   -5.4309    1.3355   -0.6070 C   0  0  0  0  0  0  0  0  0  0  0  0
   -6.1004    1.7847   -1.9090 C   0  0  0  0  0  0  0  0  0  0  0  0
   -5.7163   -0.1624   -0.3475 C   0  0  0  0  0  0  0  0  0  0  0  0
   -3.8995    1.5393   -0.6940 C   0  0  0  0  0  0  0  0  0  0  0  0
   -3.7887    1.9088    1.7848 C   0  0  0  0  0  0  0  0  0  0  0  0
    3.3513    1.0165    1.0926 S   0  0  0  0  0  0  0  0  0  0  0  0
    4.8435    0.6324    0.3615 C   0  0  0  0  0  0  0  0  0  0  0  0
    4.6932   -0.2597   -0.6054 N   0  0  0  0  0  4  0  0  0  0  0  0
    5.8609   -0.7236   -1.3712 C   0  0  0  0  0  0  0  0  0  0  0  0
    6.8084   -1.4796   -0.4703 C   0  0  0  0  0  0  0  0  0  0  0  0
    8.1109   -1.0011   -0.2533 C   0  0  0  0  0  0  0  0  0  0  0  0
    8.9870   -1.6912    0.5855 C   0  0  0  0  0  0  0  0  0  0  0  0
    8.5757   -2.8652    1.2114 C   0  0  0  0  0  0  0  0  0  0  0  0
    7.2900   -3.3553    0.9975 C   0  0  0  0  0  0  0  0  0  0  0  0
    6.4094   -2.6698    0.1595 C   0  0  0  0  0  0  0  0  0  0  0  0
    3.5979   -2.5874   -1.7285 H   0  0  0  0  0  0  0  0  0  0  0  0
    2.0010   -1.8705   -1.9412 H   0  0  0  0  0  0  0  0  0  0  0  0
    3.3569   -1.2442   -2.8752 H   0  0  0  0  0  0  0  0  0  0  0  0
    0.7117   -0.0557    1.2396 H   0  0  0  0  0  0  0  0  0  0  0  0
    0.7123   -1.2306   -0.0378 H   0  0  0  0  0  0  0  0  0  0  0  0
    0.5426    1.8062   -0.5603 H   0  0  0  0  0  0  0  0  0  0  0  0
    0.4593    0.5343   -1.7664 H   0  0  0  0  0  0  0  0  0  0  0  0
   -3.1312   -1.0327    0.0504 H   0  0  0  0  0  0  0  0  0  0  0  0
   -3.0431   -0.7547    1.7813 H   0  0  0  0  0  0  0  0  0  0  0  0
   -5.2663   -1.6798    1.1346 H   0  0  0  0  0  0  0  0  0  0  0  0
   -6.6841    0.0582    2.2249 H   0  0  0  0  0  0  0  0  0  0  0  0
   -5.1486   -0.1121    3.0719 H   0  0  0  0  0  0  0  0  0  0  0  0
   -5.7002    2.2946    2.7302 H   0  0  0  0  0  0  0  0  0  0  0  0
   -7.0623    2.0367    0.6639 H   0  0  0  0  0  0  0  0  0  0  0  0
   -5.7867    3.2266    0.4249 H   0  0  0  0  0  0  0  0  0  0  0  0
   -5.7270    1.2106   -2.7641 H   0  0  0  0  0  0  0  0  0  0  0  0
   -5.9064    2.8445   -2.1076 H   0  0  0  0  0  0  0  0  0  0  0  0
   -7.1864    1.6466   -1.8632 H   0  0  0  0  0  0  0  0  0  0  0  0
   -5.3424   -0.7698   -1.1819 H   0  0  0  0  0  0  0  0  0  0  0  0
   -6.7985   -0.3375   -0.2912 H   0  0  0  0  0  0  0  0  0  0  0  0
   -3.5027    0.9801   -1.5520 H   0  0  0  0  0  0  0  0  0  0  0  0
   -3.6664    2.5952   -0.8876 H   0  0  0  0  0  0  0  0  0  0  0  0
   -3.5669    2.9750    1.6434 H   0  0  0  0  0  0  0  0  0  0  0  0
   -3.3097    1.6180    2.7292 H   0  0  0  0  0  0  0  0  0  0  0  0
    5.7875    1.0667    0.6695 H   0  0  0  0  0  0  0  0  0  0  0  0
    6.3466    0.1590   -1.8068 H   0  0  0  0  0  0  0  0  0  0  0  0
    5.5739   -1.3656   -2.2082 H   0  0  0  0  0  0  0  0  0  0  0  0
    8.4691   -0.0919   -0.7339 H   0  0  0  0  0  0  0  0  0  0  0  0
    9.9969   -1.3191    0.7492 H   0  0  0  0  0  0  0  0  0  0  0  0
    9.2623   -3.4037    1.8620 H   0  0  0  0  0  0  0  0  0  0  0  0
    6.9792   -4.2785    1.4836 H   0  0  0  0  0  0  0  0  0  0  0  0
    5.4157   -3.0864    0.0098 H   0  0  0  0  0  0  0  0  0  0  0  0
  1  2  1  0
  2  3  2  0
  3  4  1  0
  4  5  1  0
  5  6  1  0
  6  7  1  0
  7  8  2  0
  7  9  1  0
  9 10  1  0
 10 11  1  0
 11 12  1  0
 12 13  1  0
 13 14  1  0
 14 15  1  0
 15 16  1  0
 15 17  1  0
 15 18  1  0
 13 19  1  0
  3 20  1  0
 20 21  1  0
 21 22  2  0
 22 23  1  0
 23 24  1  0
 24 25  2  0
 25 26  1  0
 26 27  2  0
 27 28  1  0
 28 29  2  0
 22  2  1  0
 29 24  1  0
 18  9  1  0
 19  9  1  0
 17 11  1  0
  1 30  1  0
  1 31  1  0
  1 32  1  0
  4 33  1  0
  4 34  1  0
  5 35  1  0
  5 36  1  0
 10 37  1  0
 10 38  1  0
 11 39  1  0
 12 40  1  0
 12 41  1  0
 13 42  1  0
 14 43  1  0
 14 44  1  0
 16 45  1  0
 16 46  1  0
 16 47  1  0
 17 48  1  0
 17 49  1  0
 18 50  1  0
 18 51  1  0
 19 52  1  0
 19 53  1  0
 21 54  1  0
 23 55  1  0
 23 56  1  0
 25 57  1  0
 26 58  1  0
 27 59  1  0
 28 60  1  0
 29 61  1  0
M  CHG  1  22   1
M  END
$$$$
