
     RDKit          3D

 73 78  0  0  0  0  0  0  0  0999 V2000
   -8.0220    0.5239    2.9019 C   0  0  0  0  0  0  0  0  0  0  0  0
   -7.6313    1.0221    1.5413 C   0  0  0  0  0  0  0  0  0  0  0  0
   -8.3620    2.0366    0.9243 C   0  0  0  0  0  0  0  0  0  0  0  0
   -8.0276    2.4561   -0.3635 C   0  0  0  0  0  0  0  0  0  0  0  0
   -6.9693    1.8557   -1.0643 C   0  0  0  0  0  0  0  0  0  0  0  0
   -6.6713    2.3083   -2.4691 C   0  0  0  0  0  0  0  0  0  0  0  0
   -6.2193    0.8257   -0.4560 C   0  0  0  0  0  0  0  0  0  0  0  0
   -5.1350    0.2547   -1.1549 N   0  0  0  0  0  0  0  0  0  0  0  0
   -3.8705    0.9773   -0.8648 C   0  0  0  0  0  0  0  0  0  0  0  0
   -2.7440    0.4596   -1.7876 C   0  0  0  0  0  0  0  0  0  0  0  0
   -2.6168   -1.0025   -1.6869 N   0  0  0  0  0  0  0  0  0  0  0  0
   -1.5653   -1.7076   -1.1193 C   0  0  0  0  0  0  0  0  0  0  0  0
   -1.6304   -2.9278   -0.9556 O   0  0  0  0  0  0  0  0  0  0  0  0
   -0.3294   -0.9286   -0.6739 C   0  0  0  0  0  0  0  0  0  0  0  0
   -0.6072   -0.1453    0.6222 C   0  0  0  0  0  0  0  0  0  0  0  0
    0.4540   -0.3611    1.6980 C   0  0  0  0  0  0  0  0  0  0  0  0
    1.8731   -0.2780    1.1399 C   0  0  0  0  0  0  0  0  0  0  0  0
    2.0231   -1.1138   -0.0515 N   0  0  0  0  0  0  0  0  0  0  0  0
    3.3005   -1.5850   -0.3553 C   0  0  0  0  0  0  0  0  0  0  0  0
    3.4336   -2.7256   -1.0974 N   0  0  0  0  0  0  0  0  0  0  0  0
    4.6632   -3.1712   -1.4240 C   0  0  0  0  0  0  0  0  0  0  0  0
    5.8541   -2.6308   -1.1160 N   0  0  0  0  0  0  0  0  0  0  0  0
    5.6954   -1.5107   -0.3925 C   0  0  0  0  0  0  0  0  0  0  0  0
    4.5061   -0.9331    0.0160 C   0  0  0  0  0  0  0  0  0  0  0  0
    4.7658    0.2320    0.7185 N   0  0  0  0  0  0  0  0  0  0  0  0
    6.0790    0.3767    0.7180 C   0  0  0  0  0  0  0  0  0  0  0  0
    6.6856   -0.6856    0.0827 N   0  0  0  0  0  0  0  0  0  0  0  0
    8.0968   -0.9251   -0.1418 C   0  0  0  0  0  0  0  0  0  0  0  0
    9.0462   -0.2894    0.8691 C   0  0  0  0  0  0  0  0  0  0  0  0
    9.2422    1.2128    0.6735 C   0  0  0  0  0  0  0  0  0  0  0  0
    7.9639    2.0234    0.4578 C   0  0  0  0  0  0  0  0  0  0  0  0
    6.7930    1.5510    1.3095 C   0  0  0  0  0  0  0  0  0  0  0  0
    0.8679   -1.8813   -0.5196 C   0  0  0  0  0  0  0  0  0  0  0  0
   -3.8737   -1.7050   -1.9896 C   0  0  0  0  0  0  0  0  0  0  0  0
   -4.9947   -1.2209   -1.0469 C   0  0  0  0  0  0  0  0  0  0  0  0
   -6.5706    0.4242    0.8449 C   0  0  0  0  0  0  0  0  0  0  0  0
   -8.4535    1.3288    3.5077 H   0  0  0  0  0  0  0  0  0  0  0  0
   -7.1505    0.1403    3.4451 H   0  0  0  0  0  0  0  0  0  0  0  0
   -8.7583   -0.2821    2.7987 H   0  0  0  0  0  0  0  0  0  0  0  0
   -9.1982    2.5042    1.4381 H   0  0  0  0  0  0  0  0  0  0  0  0
   -8.6127    3.2498   -0.8252 H   0  0  0  0  0  0  0  0  0  0  0  0
   -5.7017    2.8115   -2.5143 H   0  0  0  0  0  0  0  0  0  0  0  0
   -6.6750    1.4567   -3.1547 H   0  0  0  0  0  0  0  0  0  0  0  0
   -7.4280    3.0133   -2.8300 H   0  0  0  0  0  0  0  0  0  0  0  0
   -3.5883    0.8246    0.1845 H   0  0  0  0  0  0  0  0  0  0  0  0
   -3.9880    2.0544   -1.0283 H   0  0  0  0  0  0  0  0  0  0  0  0
   -1.8088    0.9722   -1.5630 H   0  0  0  0  0  0  0  0  0  0  0  0
   -2.9884    0.6872   -2.8317 H   0  0  0  0  0  0  0  0  0  0  0  0
   -0.0663   -0.2255   -1.4739 H   0  0  0  0  0  0  0  0  0  0  0  0
   -0.6425    0.9259    0.3882 H   0  0  0  0  0  0  0  0  0  0  0  0
   -1.5885   -0.3997    1.0406 H   0  0  0  0  0  0  0  0  0  0  0  0
    0.2975   -1.3463    2.1555 H   0  0  0  0  0  0  0  0  0  0  0  0
    0.3284    0.3758    2.4982 H   0  0  0  0  0  0  0  0  0  0  0  0
    2.5527   -0.5889    1.9406 H   0  0  0  0  0  0  0  0  0  0  0  0
    2.0998    0.7601    0.8786 H   0  0  0  0  0  0  0  0  0  0  0  0
    4.6903   -4.0810   -2.0137 H   0  0  0  0  0  0  0  0  0  0  0  0
    8.2387   -2.0128   -0.0924 H   0  0  0  0  0  0  0  0  0  0  0  0
    8.3238   -0.6033   -1.1651 H   0  0  0  0  0  0  0  0  0  0  0  0
    8.7018   -0.4878    1.8902 H   0  0  0  0  0  0  0  0  0  0  0  0
   10.0280   -0.7692    0.7825 H   0  0  0  0  0  0  0  0  0  0  0  0
    9.9103    1.3897   -0.1786 H   0  0  0  0  0  0  0  0  0  0  0  0
    9.7667    1.6032    1.5551 H   0  0  0  0  0  0  0  0  0  0  0  0
    8.1866    3.0720    0.6957 H   0  0  0  0  0  0  0  0  0  0  0  0
    7.6923    2.0043   -0.6066 H   0  0  0  0  0  0  0  0  0  0  0  0
    6.0735    2.3772    1.3902 H   0  0  0  0  0  0  0  0  0  0  0  0
    7.1126    1.3212    2.3325 H   0  0  0  0  0  0  0  0  0  0  0  0
    0.6554   -2.6990    0.1808 H   0  0  0  0  0  0  0  0  0  0  0  0
    1.0573   -2.3367   -1.5005 H   0  0  0  0  0  0  0  0  0  0  0  0
   -3.7598   -2.7916   -1.9092 H   0  0  0  0  0  0  0  0  0  0  0  0
   -4.1316   -1.4718   -3.0302 H   0  0  0  0  0  0  0  0  0  0  0  0
   -4.7368   -1.5169   -0.0234 H   0  0  0  0  0  0  0  0  0  0  0  0
   -5.9343   -1.7098   -1.3276 H   0  0  0  0  0  0  0  0  0  0  0  0
   -6.0076   -0.3614    1.3405 H   0  0  0  0  0  0  0  0  0  0  0  0
  1  2  1  0
  2  3  2  0
  3  4  1  0
  4  5  2  0
  5  6  1  0
  5  7  1  0
  7  8  1  0
  8  9  1  0
  9 10  1  0
 10 11  1  0
 11 12  1  0
 12 13  2  0
 12 14  1  0
 14 15  1  0
 15 16  1  0
 16 17  1  0
 17 18  1  0
 18 19  1  0
 19 20  2  0
 20 21  1  0
 21 22  2  0
 22 23  1  0
 23 24  2  0
 24 25  1  0
 25 26  2  0
 26 27  1  0
 27 28  1  0
 28 29  1  0
 29 30  1  0
 30 31  1  0
 31 32  1  0
 18 33  1  0
 11 34  1  0
 34 35  1  0
  7 36  2  0
 36  2  1  0
 35  8  1  0
 33 14  1  0
 24 19  1  0
 32 26  1  0
 27 23  1  0
  1 37  1  0
  1 38  1  0
  1 39  1  0
  3 40  1  0
  4 41  1  0
  6 42  1  0
  6 43  1  0
  6 44  1  0
  9 45  1  0
  9 46  1  0
 10 47  1  0
 10 48  1  0
 14 49  1  0
 15 50  1  0
 15 51  1  0
 16 52  1  0
 16 53  1  0
 17 54  1  0
 17 55  1  0
 21 56  1  0
 28 57  1  0
 28 58  1  0
 29 59  1  0
 29 60  1  0
 30 61  1  0
 30 62  1  0
 31 63  1  0
 31 64  1  0
 32 65  1  0
 32 66  1  0
 33 67  1  0
 33 68  1  0
 34 69  1  0
 34 70  1  0
 35 71  1  0
 35 72  1  0
 36 73  1  0
M  END
$$$$
