
     RDKit          3D

 47 49  0  0  0  0  0  0  0  0999 V2000
    8.0815    1.6669   -0.5081 C   0  0  0  0  0  0  0  0  0  0  0  0
    6.8653    0.9127   -0.0009 C   0  0  0  0  0  0  0  0  0  0  0  0
    5.7718    1.2100   -0.8678 O   0  0  0  0  0  0  0  0  0  0  0  0
    4.5750    0.6150   -0.5824 C   0  0  0  0  0  0  0  0  0  0  0  0
    4.2957   -0.1845    0.5229 C   0  0  0  0  0  0  0  0  0  0  0  0
    3.0137   -0.7271    0.7014 C   0  0  0  0  0  0  0  0  0  0  0  0
    1.9864   -0.4755   -0.2188 C   0  0  0  0  0  0  0  0  0  0  0  0
    0.6683   -1.0225   -0.0332 N   0  0  0  0  0  0  0  0  0  0  0  0
    0.3165   -2.1334    0.7498 C   0  0  0  0  0  0  0  0  0  0  0  0
    1.2089   -2.8747    1.4063 O   0  0  0  0  0  0  0  0  0  0  0  0
   -1.0475   -2.3255    0.6616 C   0  0  0  0  0  0  0  0  0  0  0  0
   -1.5651   -1.3475   -0.2017 C   0  0  0  0  0  0  0  0  0  0  0  0
   -2.8644   -1.1806   -0.5709 N   0  0  0  0  0  0  0  0  0  0  0  0
   -3.2279   -0.9890   -1.9720 C   0  0  0  0  0  0  0  0  0  0  0  0
   -3.9632   -1.3906    0.3737 C   0  0  0  0  0  0  0  0  0  0  0  0
   -4.6974   -0.0902    0.6201 C   0  0  0  0  0  0  0  0  0  0  0  0
   -6.0084    0.1002    0.1558 C   0  0  0  0  0  0  0  0  0  0  0  0
   -6.6705    1.3081    0.3878 C   0  0  0  0  0  0  0  0  0  0  0  0
   -6.0320    2.3348    1.0838 C   0  0  0  0  0  0  0  0  0  0  0  0
   -4.7294    2.1579    1.5473 C   0  0  0  0  0  0  0  0  0  0  0  0
   -4.0642    0.9534    1.3150 C   0  0  0  0  0  0  0  0  0  0  0  0
   -0.5226   -0.5265   -0.5803 C   0  0  0  0  0  0  0  0  0  0  0  0
   -0.5943    0.6222   -1.2562 O   0  0  0  0  0  0  0  0  0  0  0  0
    2.2793    0.3280   -1.3286 C   0  0  0  0  0  0  0  0  0  0  0  0
    3.5602    0.8665   -1.5045 C   0  0  0  0  0  0  0  0  0  0  0  0
    8.9579    1.4604    0.1144 H   0  0  0  0  0  0  0  0  0  0  0  0
    7.8925    2.7465   -0.5014 H   0  0  0  0  0  0  0  0  0  0  0  0
    8.3039    1.3897   -1.5441 H   0  0  0  0  0  0  0  0  0  0  0  0
    7.0775   -0.1634   -0.0148 H   0  0  0  0  0  0  0  0  0  0  0  0
    6.6451    1.2413    1.0212 H   0  0  0  0  0  0  0  0  0  0  0  0
    5.0451   -0.4024    1.2768 H   0  0  0  0  0  0  0  0  0  0  0  0
    2.8459   -1.3138    1.5980 H   0  0  0  0  0  0  0  0  0  0  0  0
    0.7204   -3.5796    1.8646 H   0  0  0  0  0  0  0  0  0  0  0  0
   -1.5979   -3.1211    1.1427 H   0  0  0  0  0  0  0  0  0  0  0  0
   -2.4072   -1.2519   -2.6504 H   0  0  0  0  0  0  0  0  0  0  0  0
   -3.5053    0.0545   -2.1553 H   0  0  0  0  0  0  0  0  0  0  0  0
   -4.0810   -1.6216   -2.2430 H   0  0  0  0  0  0  0  0  0  0  0  0
   -3.6144   -1.7636    1.3443 H   0  0  0  0  0  0  0  0  0  0  0  0
   -4.6488   -2.1563   -0.0122 H   0  0  0  0  0  0  0  0  0  0  0  0
   -6.5205   -0.6883   -0.3919 H   0  0  0  0  0  0  0  0  0  0  0  0
   -7.6863    1.4478    0.0263 H   0  0  0  0  0  0  0  0  0  0  0  0
   -6.5489    3.2747    1.2648 H   0  0  0  0  0  0  0  0  0  0  0  0
   -4.2277    2.9576    2.0877 H   0  0  0  0  0  0  0  0  0  0  0  0
   -3.0427    0.8294    1.6710 H   0  0  0  0  0  0  0  0  0  0  0  0
   -1.5481    0.8291   -1.2852 H   0  0  0  0  0  0  0  0  0  0  0  0
    1.5406    0.5375   -2.0958 H   0  0  0  0  0  0  0  0  0  0  0  0
    3.7644    1.4858   -2.3749 H   0  0  0  0  0  0  0  0  0  0  0  0
  1  2  1  0
  2  3  1  0
  3  4  1  0
  4  5  2  0
  5  6  1  0
  6  7  2  0
  7  8  1  0
  8  9  1  0
  9 10  1  0
  9 11  2  0
 11 12  1  0
 12 13  1  0
 13 14  1  0
 13 15  1  0
 15 16  1  0
 16 17  2  0
 17 18  1  0
 18 19  2  0
 19 20  1  0
 20 21  2  0
 12 22  2  0
 22 23  1  0
  7 24  1  0
 24 25  2  0
 25  4  1  0
 22  8  1  0
 21 16  1  0
  1 26  1  0
  1 27  1  0
  1 28  1  0
  2 29  1  0
  2 30  1  0
  5 31  1  0
  6 32  1  0
 10 33  1  0
 11 34  1  0
 14 35  1  0
 14 36  1  0
 14 37  1  0
 15 38  1  0
 15 39  1  0
 17 40  1  0
 18 41  1  0
 19 42  1  0
 20 43  1  0
 21 44  1  0
 23 45  1  0
 24 46  1  0
 25 47  1  0
M  END
$$$$
