
     RDKit          3D

 69 73  0  0  0  0  0  0  0  0999 V2000
   -2.2456    4.5232    5.1418 C   0  0  0  0  0  0  0  0  0  0  0  0
   -1.9144    3.3088    4.3260 C   0  0  0  0  0  0  0  0  0  0  0  0
   -2.7883    2.2175    4.2940 C   0  0  0  0  0  0  0  0  0  0  0  0
   -2.5009    1.1017    3.5040 C   0  0  0  0  0  0  0  0  0  0  0  0
   -1.3370    1.0573    2.7239 C   0  0  0  0  0  0  0  0  0  0  0  0
   -1.0390   -0.1434    1.8465 C   0  0  0  0  0  0  0  0  0  0  0  0
   -1.6276   -0.0216    0.5128 N   0  0  0  0  0  0  0  0  0  0  0  0
   -2.9630   -0.4243    0.3701 C   0  0  0  0  0  0  0  0  0  0  0  0
   -3.5632   -1.0893    1.2196 O   0  0  0  0  0  0  0  0  0  0  0  0
   -3.6400   -0.0984   -0.9759 C   0  0  0  0  0  0  0  0  0  0  0  0
   -3.3705   -1.2259   -1.9915 C   0  0  0  0  0  0  0  0  0  0  0  0
   -4.5884   -1.5750   -2.8701 C   0  0  0  0  0  0  0  0  0  0  0  0
   -4.9648   -0.4385   -3.8231 C   0  0  0  0  0  0  0  0  0  0  0  0
   -4.2954   -2.8442   -3.6754 C   0  0  0  0  0  0  0  0  0  0  0  0
   -3.2107    1.2081   -1.4692 N   0  0  0  0  0  0  0  0  0  0  0  0
   -1.8303    1.4051   -1.4644 C   0  0  0  0  0  0  0  0  0  0  0  0
   -1.3791    2.2282   -2.4208 N   0  0  0  0  0  0  0  0  0  0  0  0
   -0.0633    2.4463   -2.4214 C   0  0  0  0  0  0  0  0  0  0  0  0
    0.8295    1.8799   -1.6036 N   0  0  0  0  0  0  0  0  0  0  0  0
    0.3634    1.0284   -0.6631 C   0  0  0  0  0  0  0  0  0  0  0  0
    1.3292    0.2878    0.0449 N   0  0  0  0  0  0  0  0  0  0  0  0
    2.6434    0.9594    0.1777 C   0  0  0  0  0  0  0  0  0  0  0  0
    3.6894    0.0112    0.8081 C   0  0  0  0  0  0  0  0  0  0  0  0
    3.8632   -1.2173    0.0002 N   0  0  0  0  0  0  0  0  0  0  0  0
    5.1318   -1.7714   -0.1130 C   0  0  0  0  0  0  0  0  0  0  0  0
    5.5959   -2.3592   -1.3011 C   0  0  0  0  0  0  0  0  0  0  0  0
    6.8777   -2.9155   -1.3996 C   0  0  0  0  0  0  0  0  0  0  0  0
    7.7314   -2.9020   -0.3021 C   0  0  0  0  0  0  0  0  0  0  0  0
    7.2966   -2.3404    0.8937 C   0  0  0  0  0  0  0  0  0  0  0  0
    6.0129   -1.7859    0.9819 C   0  0  0  0  0  0  0  0  0  0  0  0
    2.8170   -1.4800   -1.0038 C   0  0  0  0  0  0  0  0  0  0  0  0
    1.4186   -1.1179   -0.4470 C   0  0  0  0  0  0  0  0  0  0  0  0
   -1.0126    0.7944   -0.5049 C   0  0  0  0  0  0  0  0  0  0  0  0
   -0.4739    2.1606    2.7461 C   0  0  0  0  0  0  0  0  0  0  0  0
   -0.7613    3.2768    3.5356 C   0  0  0  0  0  0  0  0  0  0  0  0
   -2.9003    5.1889    4.5704 H   0  0  0  0  0  0  0  0  0  0  0  0
   -2.7497    4.2388    6.0708 H   0  0  0  0  0  0  0  0  0  0  0  0
   -1.3375    5.0728    5.4147 H   0  0  0  0  0  0  0  0  0  0  0  0
   -3.7043    2.2292    4.8802 H   0  0  0  0  0  0  0  0  0  0  0  0
   -3.2012    0.2679    3.4950 H   0  0  0  0  0  0  0  0  0  0  0  0
   -1.4445   -1.0381    2.3355 H   0  0  0  0  0  0  0  0  0  0  0  0
    0.0316   -0.3226    1.8249 H   0  0  0  0  0  0  0  0  0  0  0  0
   -4.7126   -0.0253   -0.7633 H   0  0  0  0  0  0  0  0  0  0  0  0
   -3.0690   -2.1319   -1.4538 H   0  0  0  0  0  0  0  0  0  0  0  0
   -2.5217   -0.9783   -2.6413 H   0  0  0  0  0  0  0  0  0  0  0  0
   -5.4496   -1.7802   -2.2216 H   0  0  0  0  0  0  0  0  0  0  0  0
   -4.1122   -0.1410   -4.4437 H   0  0  0  0  0  0  0  0  0  0  0  0
   -5.3133    0.4417   -3.2740 H   0  0  0  0  0  0  0  0  0  0  0  0
   -5.7775   -0.7437   -4.4917 H   0  0  0  0  0  0  0  0  0  0  0  0
   -4.0850   -3.6880   -3.0085 H   0  0  0  0  0  0  0  0  0  0  0  0
   -3.4287   -2.7081   -4.3315 H   0  0  0  0  0  0  0  0  0  0  0  0
   -5.1540   -3.1187   -4.2986 H   0  0  0  0  0  0  0  0  0  0  0  0
   -3.6001    1.5489   -2.3426 H   0  0  0  0  0  0  0  0  0  0  0  0
    0.3225    3.1358   -3.1661 H   0  0  0  0  0  0  0  0  0  0  0  0
    3.0296    1.2870   -0.7960 H   0  0  0  0  0  0  0  0  0  0  0  0
    2.5392    1.8475    0.8111 H   0  0  0  0  0  0  0  0  0  0  0  0
    3.3682   -0.2757    1.8169 H   0  0  0  0  0  0  0  0  0  0  0  0
    4.6305    0.5683    0.8933 H   0  0  0  0  0  0  0  0  0  0  0  0
    4.9787   -2.3699   -2.1935 H   0  0  0  0  0  0  0  0  0  0  0  0
    7.2083   -3.3466   -2.3425 H   0  0  0  0  0  0  0  0  0  0  0  0
    8.7320   -3.3225   -0.3831 H   0  0  0  0  0  0  0  0  0  0  0  0
    7.9496   -2.3319    1.7620 H   0  0  0  0  0  0  0  0  0  0  0  0
    5.7003   -1.3786    1.9405 H   0  0  0  0  0  0  0  0  0  0  0  0
    2.8047   -2.5446   -1.2731 H   0  0  0  0  0  0  0  0  0  0  0  0
    3.0170   -0.8973   -1.9116 H   0  0  0  0  0  0  0  0  0  0  0  0
    1.2051   -1.7770    0.4051 H   0  0  0  0  0  0  0  0  0  0  0  0
    0.6664   -1.3409   -1.2161 H   0  0  0  0  0  0  0  0  0  0  0  0
    0.4274    2.1643    2.1400 H   0  0  0  0  0  0  0  0  0  0  0  0
   -0.0807    4.1251    3.5230 H   0  0  0  0  0  0  0  0  0  0  0  0
  1  2  1  0
  2  3  2  0
  3  4  1  0
  4  5  2  0
  5  6  1  0
  6  7  1  0
  7  8  1  0
  8  9  2  0
  8 10  1  0
 10 11  1  0
 11 12  1  0
 12 13  1  0
 12 14  1  0
 10 15  1  0
 15 16  1  0
 16 17  2  0
 17 18  1  0
 18 19  2  0
 19 20  1  0
 20 21  1  0
 21 22  1  0
 22 23  1  0
 23 24  1  0
 24 25  1  0
 25 26  2  0
 26 27  1  0
 27 28  2  0
 28 29  1  0
 29 30  2  0
 24 31  1  0
 31 32  1  0
 20 33  2  0
  5 34  1  0
 34 35  2  0
 35  2  1  0
 33  7  1  0
 33 16  1  0
 32 21  1  0
 30 25  1  0
  1 36  1  0
  1 37  1  0
  1 38  1  0
  3 39  1  0
  4 40  1  0
  6 41  1  0
  6 42  1  0
 10 43  1  0
 11 44  1  0
 11 45  1  0
 12 46  1  0
 13 47  1  0
 13 48  1  0
 13 49  1  0
 14 50  1  0
 14 51  1  0
 14 52  1  0
 15 53  1  0
 18 54  1  0
 22 55  1  0
 22 56  1  0
 23 57  1  0
 23 58  1  0
 26 59  1  0
 27 60  1  0
 28 61  1  0
 29 62  1  0
 30 63  1  0
 31 64  1  0
 31 65  1  0
 32 66  1  0
 32 67  1  0
 34 68  1  0
 35 69  1  0
M  END
$$$$
