
     RDKit          3D

 38 39  0  0  0  0  0  0  0  0999 V2000
   -5.5423    1.2603    3.0934 C   0  0  0  0  0  0  0  0  0  0  0  0
   -4.7104    1.8178    2.0874 O   0  0  0  0  0  0  0  0  0  0  0  0
   -3.7638    0.9983    1.5238 C   0  0  0  0  0  0  0  0  0  0  0  0
   -3.3753   -0.2355    2.0571 C   0  0  0  0  0  0  0  0  0  0  0  0
   -2.3969   -1.0023    1.4205 C   0  0  0  0  0  0  0  0  0  0  0  0
   -1.8023   -0.5342    0.2477 C   0  0  0  0  0  0  0  0  0  0  0  0
   -0.7459   -1.3441   -0.4301 C   0  0  0  0  0  0  0  0  0  0  0  0
   -0.8910   -2.6277   -0.5553 N   0  0  0  0  0  0  0  0  0  0  0  0
    0.3581   -0.6713   -0.9158 N   0  0  0  0  0  0  0  0  0  0  0  0
    1.4457   -1.5293   -1.1674 O   0  0  0  0  0  0  0  0  0  0  0  0
    2.5997   -1.0792   -0.5691 C   0  0  0  0  0  0  0  0  0  0  0  0
    2.6525   -0.0502    0.0980 O   0  0  0  0  0  0  0  0  0  0  0  0
    3.7183   -2.0584   -0.8409 C   0  0  0  0  0  0  0  0  0  0  0  0
    5.0560   -1.3927   -0.7205 C   0  0  0  0  0  0  0  0  0  0  0  0
    5.7483   -0.6838   -1.6846 C   0  0  0  0  0  0  0  0  0  0  0  0
    6.9974   -0.1950   -1.2039 C   0  0  0  0  0  0  0  0  0  0  0  0
    7.2196   -0.5475    0.1083 C   0  0  0  0  0  0  0  0  0  0  0  0
    5.9344   -1.4757    0.7497 S   0  0  0  0  0  0  0  0  0  0  0  0
   -2.1743    0.7034   -0.2901 C   0  0  0  0  0  0  0  0  0  0  0  0
   -3.1526    1.4761    0.3437 C   0  0  0  0  0  0  0  0  0  0  0  0
   -3.5803    2.7029   -0.1037 O   0  0  0  0  0  0  0  0  0  0  0  0
   -3.0619    3.1759   -1.3381 C   0  0  0  0  0  0  0  0  0  0  0  0
   -6.0380    0.3489    2.7428 H   0  0  0  0  0  0  0  0  0  0  0  0
   -6.3205    1.9939    3.3271 H   0  0  0  0  0  0  0  0  0  0  0  0
   -4.9749    1.0736    4.0116 H   0  0  0  0  0  0  0  0  0  0  0  0
   -3.8046   -0.6192    2.9783 H   0  0  0  0  0  0  0  0  0  0  0  0
   -2.0869   -1.9474    1.8628 H   0  0  0  0  0  0  0  0  0  0  0  0
   -1.7938   -2.9408   -0.1862 H   0  0  0  0  0  0  0  0  0  0  0  0
    0.6386    0.1601   -0.3878 H   0  0  0  0  0  0  0  0  0  0  0  0
    3.6108   -2.4471   -1.8605 H   0  0  0  0  0  0  0  0  0  0  0  0
    3.6205   -2.8988   -0.1443 H   0  0  0  0  0  0  0  0  0  0  0  0
    5.3757   -0.5180   -2.6889 H   0  0  0  0  0  0  0  0  0  0  0  0
    7.6947    0.3886   -1.7896 H   0  0  0  0  0  0  0  0  0  0  0  0
    8.0765   -0.3100    0.7265 H   0  0  0  0  0  0  0  0  0  0  0  0
   -1.7018    1.0365   -1.2084 H   0  0  0  0  0  0  0  0  0  0  0  0
   -3.5285    4.1441   -1.5516 H   0  0  0  0  0  0  0  0  0  0  0  0
   -1.9804    3.3344   -1.2766 H   0  0  0  0  0  0  0  0  0  0  0  0
   -3.3204    2.4934   -2.1571 H   0  0  0  0  0  0  0  0  0  0  0  0
  1  2  1  0
  2  3  1  0
  3  4  2  0
  4  5  1  0
  5  6  2  0
  6  7  1  0
  7  8  2  3
  7  9  1  0
  9 10  1  0
 10 11  1  0
 11 12  2  0
 11 13  1  0
 13 14  1  0
 14 15  2  0
 15 16  1  0
 16 17  2  0
 17 18  1  0
  6 19  1  0
 19 20  2  0
 20 21  1  0
 21 22  1  0
 20  3  1  0
 18 14  1  0
  1 23  1  0
  1 24  1  0
  1 25  1  0
  4 26  1  0
  5 27  1  0
  8 28  1  0
  9 29  1  0
 13 30  1  0
 13 31  1  0
 15 32  1  0
 16 33  1  0
 17 34  1  0
 19 35  1  0
 22 36  1  0
 22 37  1  0
 22 38  1  0
M  END
$$$$
