
     RDKit          3D

 47 50  0  0  0  0  0  0  0  0999 V2000
   -3.2400    2.1507   -0.0869 O   0  0  0  0  0  0  0  0  0  0  0  0
   -3.4542    1.0279    0.3851 C   0  0  0  0  0  0  0  0  0  0  0  0
   -4.6822    0.7548    1.3026 C   0  0  0  0  0  0  0  0  0  0  0  0
   -5.9620    0.1805    0.6309 C   0  0  0  0  0  0  0  0  0  0  0  0
   -6.7860    1.0365    1.6095 C   0  0  0  0  0  0  0  0  0  0  0  0
   -5.5676    1.9721    1.7047 C   0  0  0  0  0  0  0  0  0  0  0  0
   -2.6274   -0.0661    0.1436 N   0  0  0  0  0  0  0  0  0  0  0  0
   -2.8191   -1.4181    0.6924 C   0  0  0  0  0  0  0  0  0  0  0  0
   -1.7067   -2.3131    0.1329 C   0  0  0  0  0  0  0  0  0  0  0  0
   -0.8972   -1.3445   -0.6666 C   0  0  0  0  0  0  0  0  0  0  0  0
    0.2635   -1.6130   -1.3783 C   0  0  0  0  0  0  0  0  0  0  0  0
    0.8597   -0.5579   -2.0756 C   0  0  0  0  0  0  0  0  0  0  0  0
    2.3451   -0.8413   -3.0088 S   0  0  0  0  0  6  0  0  0  0  0  0
    2.2446   -0.0836   -4.2353 O   0  0  0  0  0  0  0  0  0  0  0  0
    2.6114   -2.2633   -3.0087 O   0  0  0  0  0  0  0  0  0  0  0  0
    3.5173   -0.1061   -2.0751 N   0  0  0  0  0  0  0  0  0  0  0  0
    3.7296   -0.5873   -0.7078 C   0  0  0  0  0  0  0  0  0  0  0  0
    5.0215   -0.0493   -0.1316 C   0  0  0  0  0  0  0  0  0  0  0  0
    6.2337   -0.6688   -0.4298 C   0  0  0  0  0  0  0  0  0  0  0  0
    7.4085   -0.1258    0.0819 C   0  0  0  0  0  0  0  0  0  0  0  0
    7.3445    1.0205    0.8646 C   0  0  0  0  0  0  0  0  0  0  0  0
    6.1019    1.5833    1.1006 C   0  0  0  0  0  0  0  0  0  0  0  0
    4.9440    1.0807    0.6175 N   0  0  0  0  0  0  0  0  0  0  0  0
    0.2900    0.7266   -2.0766 C   0  0  0  0  0  0  0  0  0  0  0  0
   -0.8808    0.9755   -1.3522 C   0  0  0  0  0  0  0  0  0  0  0  0
   -1.4636   -0.0671   -0.6482 C   0  0  0  0  0  0  0  0  0  0  0  0
   -4.4003    0.1902    2.2032 H   0  0  0  0  0  0  0  0  0  0  0  0
   -6.0844    0.4663   -0.4204 H   0  0  0  0  0  0  0  0  0  0  0  0
   -6.1062   -0.8990    0.7236 H   0  0  0  0  0  0  0  0  0  0  0  0
   -7.0243    0.5256    2.5494 H   0  0  0  0  0  0  0  0  0  0  0  0
   -7.6977    1.4806    1.2028 H   0  0  0  0  0  0  0  0  0  0  0  0
   -5.5873    2.7888    0.9737 H   0  0  0  0  0  0  0  0  0  0  0  0
   -5.3741    2.3904    2.6961 H   0  0  0  0  0  0  0  0  0  0  0  0
   -2.7684   -1.3664    1.7858 H   0  0  0  0  0  0  0  0  0  0  0  0
   -3.8096   -1.7906    0.4119 H   0  0  0  0  0  0  0  0  0  0  0  0
   -2.1198   -3.1001   -0.5059 H   0  0  0  0  0  0  0  0  0  0  0  0
   -1.1177   -2.7632    0.9377 H   0  0  0  0  0  0  0  0  0  0  0  0
    0.6872   -2.6132   -1.3946 H   0  0  0  0  0  0  0  0  0  0  0  0
    3.6038    0.9003   -2.2133 H   0  0  0  0  0  0  0  0  0  0  0  0
    2.9051   -0.2477   -0.0711 H   0  0  0  0  0  0  0  0  0  0  0  0
    3.7516   -1.6818   -0.6723 H   0  0  0  0  0  0  0  0  0  0  0  0
    6.2651   -1.5533   -1.0590 H   0  0  0  0  0  0  0  0  0  0  0  0
    8.3664   -0.5900   -0.1353 H   0  0  0  0  0  0  0  0  0  0  0  0
    8.2422    1.4687    1.2755 H   0  0  0  0  0  0  0  0  0  0  0  0
    6.0013    2.4830    1.7011 H   0  0  0  0  0  0  0  0  0  0  0  0
    0.7479    1.5350   -2.6433 H   0  0  0  0  0  0  0  0  0  0  0  0
   -1.3094    1.9724   -1.3607 H   0  0  0  0  0  0  0  0  0  0  0  0
  1  2  2  0
  2  3  1  0
  3  4  1  0
  4  5  1  0
  5  6  1  0
  2  7  1  0
  7  8  1  0
  8  9  1  0
  9 10  1  0
 10 11  2  0
 11 12  1  0
 12 13  1  0
 13 14  2  0
 13 15  2  0
 13 16  1  0
 16 17  1  0
 17 18  1  0
 18 19  2  0
 19 20  1  0
 20 21  2  0
 21 22  1  0
 22 23  2  0
 12 24  2  0
 24 25  1  0
 25 26  2  0
  6  3  1  0
 26  7  1  0
 26 10  1  0
 23 18  1  0
  3 27  1  0
  4 28  1  0
  4 29  1  0
  5 30  1  0
  5 31  1  0
  6 32  1  0
  6 33  1  0
  8 34  1  0
  8 35  1  0
  9 36  1  0
  9 37  1  0
 11 38  1  0
 16 39  1  0
 17 40  1  0
 17 41  1  0
 19 42  1  0
 20 43  1  0
 21 44  1  0
 22 45  1  0
 24 46  1  0
 25 47  1  0
M  END
$$$$
