
     RDKit          3D

 45 47  0  0  0  0  0  0  0  0999 V2000
    0.5930   -0.6107    2.0875 O   0  0  0  0  0  0  0  0  0  0  0  0
    0.8008    0.0045    1.0501 C   0  0  0  0  0  0  0  0  0  0  0  0
    2.1488    0.1187    0.4385 C   0  0  0  0  0  0  0  0  0  0  0  0
    3.1962   -0.4826    1.0236 C   0  0  0  0  0  0  0  0  0  0  0  0
    4.5669   -0.4456    0.4955 C   0  0  0  0  0  0  0  0  0  0  0  0
    5.3822   -1.5886    0.6589 C   0  0  0  0  0  0  0  0  0  0  0  0
    6.7042   -1.6079    0.1993 C   0  0  0  0  0  0  0  0  0  0  0  0
    7.1863   -0.4703   -0.4074 C   0  0  0  0  0  0  0  0  0  0  0  0
    6.4075    0.6518   -0.5583 C   0  0  0  0  0  0  0  0  0  0  0  0
    5.1014    0.6995   -0.1149 C   0  0  0  0  0  0  0  0  0  0  0  0
    7.0737    1.6665   -1.1727 O   0  0  0  0  0  0  0  0  0  0  0  0
    8.3622    1.0534   -1.3882 C   0  0  0  0  0  0  0  0  0  0  0  0
    8.4387   -0.3053   -0.9093 O   0  0  0  0  0  0  0  0  0  0  0  0
   -0.1698    0.6507    0.3245 N   0  0  0  0  0  0  0  0  0  0  0  0
   -1.5613    0.6403    0.7362 C   0  0  0  0  0  0  0  0  0  0  0  0
   -2.2616   -0.6517    0.3196 C   0  0  0  0  0  0  0  0  0  0  0  0
   -3.7176   -0.7073    0.7975 C   0  0  0  0  0  0  0  0  0  0  0  0
   -4.5652    0.3672    0.2573 N   0  0  0  0  0  0  0  0  0  0  0  0
   -4.7080    0.2738   -1.2144 C   0  0  0  0  0  0  0  0  0  0  0  0
   -5.9967    0.9444   -1.7143 C   0  0  0  0  0  0  0  0  0  0  0  0
   -7.1794    0.3028   -1.2184 O   0  0  0  0  0  0  0  0  0  0  0  0
   -6.9942   -0.2962    0.0715 C   0  0  0  0  0  0  0  0  0  0  0  0
   -5.8979    0.3870    0.9039 C   0  0  0  0  0  0  0  0  0  0  0  0
    2.2472    0.6805   -0.4804 H   0  0  0  0  0  0  0  0  0  0  0  0
    3.0529   -1.0611    1.9355 H   0  0  0  0  0  0  0  0  0  0  0  0
    4.9836   -2.4785    1.1435 H   0  0  0  0  0  0  0  0  0  0  0  0
    7.3283   -2.4861    0.3191 H   0  0  0  0  0  0  0  0  0  0  0  0
    4.5269    1.6113   -0.2318 H   0  0  0  0  0  0  0  0  0  0  0  0
    9.1247    1.6500   -0.8741 H   0  0  0  0  0  0  0  0  0  0  0  0
    8.5773    1.0588   -2.4630 H   0  0  0  0  0  0  0  0  0  0  0  0
    0.0620    1.1021   -0.5488 H   0  0  0  0  0  0  0  0  0  0  0  0
   -1.6055    0.7655    1.8240 H   0  0  0  0  0  0  0  0  0  0  0  0
   -2.0331    1.5123    0.2721 H   0  0  0  0  0  0  0  0  0  0  0  0
   -2.2021   -0.7763   -0.7684 H   0  0  0  0  0  0  0  0  0  0  0  0
   -1.7288   -1.5106    0.7468 H   0  0  0  0  0  0  0  0  0  0  0  0
   -3.7023   -0.6380    1.8930 H   0  0  0  0  0  0  0  0  0  0  0  0
   -4.1405   -1.6902    0.5526 H   0  0  0  0  0  0  0  0  0  0  0  0
   -3.8454    0.7521   -1.6905 H   0  0  0  0  0  0  0  0  0  0  0  0
   -4.7314   -0.7777   -1.5299 H   0  0  0  0  0  0  0  0  0  0  0  0
   -6.0284    2.0010   -1.4231 H   0  0  0  0  0  0  0  0  0  0  0  0
   -6.0397    0.9081   -2.8077 H   0  0  0  0  0  0  0  0  0  0  0  0
   -7.9532   -0.2416    0.5967 H   0  0  0  0  0  0  0  0  0  0  0  0
   -6.7644   -1.3579   -0.0757 H   0  0  0  0  0  0  0  0  0  0  0  0
   -5.8671   -0.0435    1.9117 H   0  0  0  0  0  0  0  0  0  0  0  0
   -6.1714    1.4420    1.0325 H   0  0  0  0  0  0  0  0  0  0  0  0
  1  2  2  0
  2  3  1  0
  3  4  2  3
  4  5  1  0
  5  6  2  0
  6  7  1  0
  7  8  2  0
  8  9  1  0
  9 10  2  0
  9 11  1  0
 11 12  1  0
 12 13  1  0
  2 14  1  0
 14 15  1  0
 15 16  1  0
 16 17  1  0
 17 18  1  0
 18 19  1  0
 19 20  1  0
 20 21  1  0
 21 22  1  0
 22 23  1  0
 10  5  1  0
 23 18  1  0
 13  8  1  0
  3 24  1  0
  4 25  1  0
  6 26  1  0
  7 27  1  0
 10 28  1  0
 12 29  1  0
 12 30  1  0
 14 31  1  0
 15 32  1  0
 15 33  1  0
 16 34  1  0
 16 35  1  0
 17 36  1  0
 17 37  1  0
 19 38  1  0
 19 39  1  0
 20 40  1  0
 20 41  1  0
 22 42  1  0
 22 43  1  0
 23 44  1  0
 23 45  1  0
M  END
$$$$
