
     RDKit          3D

 52 55  0  0  0  0  0  0  0  0999 V2000
    6.0251    1.5353    5.9842 N   0  0  0  0  0  0  0  0  0  0  0  0
    6.8904    1.1714    4.5849 S   0  0  0  0  0  6  0  0  0  0  0  0
    7.6452    2.3441    4.2127 O   0  0  0  0  0  0  0  0  0  0  0  0
    7.5125   -0.1086    4.8336 O   0  0  0  0  0  0  0  0  0  0  0  0
    5.5812    0.9455    3.4113 C   0  0  0  0  0  0  0  0  0  0  0  0
    5.1142    2.0437    2.6847 C   0  0  0  0  0  0  0  0  0  0  0  0
    4.0886    1.8673    1.7548 C   0  0  0  0  0  0  0  0  0  0  0  0
    3.5355    0.5963    1.5419 C   0  0  0  0  0  0  0  0  0  0  0  0
    2.4181    0.4024    0.5462 C   0  0  0  0  0  0  0  0  0  0  0  0
    1.0427    0.5392    1.2033 C   0  0  0  0  0  0  0  0  0  0  0  0
   -0.0386    0.3365    0.2573 N   0  0  0  0  0  0  0  0  0  0  0  0
   -0.4068   -0.9330   -0.1397 C   0  0  0  0  0  0  0  0  0  0  0  0
    0.0920   -1.9596    0.3005 O   0  0  0  0  0  0  0  0  0  0  0  0
   -1.4655   -0.9807   -1.1750 C   0  0  0  0  0  0  0  0  0  0  0  0
   -2.6573   -0.3020   -0.9072 C   0  0  0  0  0  0  0  0  0  0  0  0
   -3.6636   -0.3279   -1.8575 C   0  0  0  0  0  0  0  0  0  0  0  0
   -4.9656    0.3503   -1.6758 C   0  0  0  0  0  0  0  0  0  0  0  0
   -5.1021    1.5258   -0.9132 C   0  0  0  0  0  0  0  0  0  0  0  0
   -6.3447    2.1487   -0.7497 C   0  0  0  0  0  0  0  0  0  0  0  0
   -7.4799    1.6116   -1.3490 C   0  0  0  0  0  0  0  0  0  0  0  0
   -7.3734    0.4561   -2.1157 C   0  0  0  0  0  0  0  0  0  0  0  0
   -6.1305   -0.1633   -2.2775 C   0  0  0  0  0  0  0  0  0  0  0  0
   -3.5085   -1.0001   -3.0245 N   0  0  0  0  0  0  0  0  0  0  0  0
   -2.3660   -1.6615   -3.2778 C   0  0  0  0  0  0  0  0  0  0  0  0
   -2.2516   -2.3353   -4.4867 C   0  0  0  0  0  0  0  0  0  0  0  0
   -1.0984   -3.0419   -4.8350 C   0  0  0  0  0  0  0  0  0  0  0  0
   -0.0260   -3.0800   -3.9565 C   0  0  0  0  0  0  0  0  0  0  0  0
   -0.1156   -2.4111   -2.7373 C   0  0  0  0  0  0  0  0  0  0  0  0
   -1.2862   -1.6945   -2.3784 C   0  0  0  0  0  0  0  0  0  0  0  0
    4.0189   -0.4971    2.2766 C   0  0  0  0  0  0  0  0  0  0  0  0
    5.0457   -0.3276    3.2062 C   0  0  0  0  0  0  0  0  0  0  0  0
    6.1850    0.7948    6.6696 H   0  0  0  0  0  0  0  0  0  0  0  0
    5.0320    1.6868    5.8128 H   0  0  0  0  0  0  0  0  0  0  0  0
    5.5465    3.0319    2.8314 H   0  0  0  0  0  0  0  0  0  0  0  0
    3.7311    2.7259    1.1896 H   0  0  0  0  0  0  0  0  0  0  0  0
    2.5231   -0.5808    0.0701 H   0  0  0  0  0  0  0  0  0  0  0  0
    2.5177    1.1315   -0.2685 H   0  0  0  0  0  0  0  0  0  0  0  0
    0.9314   -0.1856    2.0184 H   0  0  0  0  0  0  0  0  0  0  0  0
    0.9133    1.5407    1.6283 H   0  0  0  0  0  0  0  0  0  0  0  0
   -0.3791    1.1352   -0.2635 H   0  0  0  0  0  0  0  0  0  0  0  0
   -2.7980    0.1994    0.0442 H   0  0  0  0  0  0  0  0  0  0  0  0
   -4.2370    1.9896   -0.4463 H   0  0  0  0  0  0  0  0  0  0  0  0
   -6.4231    3.0575   -0.1583 H   0  0  0  0  0  0  0  0  0  0  0  0
   -8.4449    2.0955   -1.2241 H   0  0  0  0  0  0  0  0  0  0  0  0
   -8.2541    0.0332   -2.5921 H   0  0  0  0  0  0  0  0  0  0  0  0
   -6.0723   -1.0667   -2.8841 H   0  0  0  0  0  0  0  0  0  0  0  0
   -3.0886   -2.3096   -5.1815 H   0  0  0  0  0  0  0  0  0  0  0  0
   -1.0456   -3.5598   -5.7890 H   0  0  0  0  0  0  0  0  0  0  0  0
    0.8758   -3.6301   -4.2129 H   0  0  0  0  0  0  0  0  0  0  0  0
    0.7356   -2.4607   -2.0604 H   0  0  0  0  0  0  0  0  0  0  0  0
    3.6003   -1.4907    2.1190 H   0  0  0  0  0  0  0  0  0  0  0  0
    5.4212   -1.1884    3.7555 H   0  0  0  0  0  0  0  0  0  0  0  0
  1  2  1  0
  2  3  2  0
  2  4  2  0
  2  5  1  0
  5  6  2  0
  6  7  1  0
  7  8  2  0
  8  9  1  0
  9 10  1  0
 10 11  1  0
 11 12  1  0
 12 13  2  0
 12 14  1  0
 14 15  2  0
 15 16  1  0
 16 17  1  0
 17 18  2  0
 18 19  1  0
 19 20  2  0
 20 21  1  0
 21 22  2  0
 16 23  2  0
 23 24  1  0
 24 25  2  0
 25 26  1  0
 26 27  2  0
 27 28  1  0
 28 29  2  0
  8 30  1  0
 30 31  2  0
 31  5  1  0
 29 14  1  0
 22 17  1  0
 29 24  1  0
  1 32  1  0
  1 33  1  0
  6 34  1  0
  7 35  1  0
  9 36  1  0
  9 37  1  0
 10 38  1  0
 10 39  1  0
 11 40  1  0
 15 41  1  0
 18 42  1  0
 19 43  1  0
 20 44  1  0
 21 45  1  0
 22 46  1  0
 25 47  1  0
 26 48  1  0
 27 49  1  0
 28 50  1  0
 30 51  1  0
 31 52  1  0
M  END
$$$$
