
     RDKit          3D

 51 55  0  0  0  0  0  0  0  0999 V2000
   -1.3785    1.9224    0.8312 C   0  0  0  0  0  0  0  0  0  0  0  0
   -0.0007    2.1722    0.8507 C   0  0  0  0  0  0  0  0  0  0  0  0
    0.8576    1.2204    0.2795 C   0  0  0  0  0  0  0  0  0  0  0  0
    0.3631    0.0446   -0.2978 C   0  0  0  0  0  0  0  0  0  0  0  0
   -1.0294   -0.1836   -0.2997 C   0  0  0  0  0  0  0  0  0  0  0  0
   -1.9081    0.7560    0.2684 C   0  0  0  0  0  0  0  0  0  0  0  0
   -3.4106    0.5322    0.2690 C   0  0  0  0  0  0  0  0  0  0  0  0
   -3.8142   -0.7989    0.9200 C   0  0  0  0  0  0  0  0  0  0  0  0
   -5.3347   -0.9184    1.0630 C   0  0  0  0  0  0  0  0  0  0  0  0
   -6.1127   -0.1807   -0.0283 C   0  0  0  0  0  0  0  0  0  0  0  0
   -5.3248   -0.0926   -1.3279 C   0  0  0  0  0  0  0  0  0  0  0  0
   -4.0033    0.6612   -1.1494 C   0  0  0  0  0  0  0  0  0  0  0  0
    1.4801   -0.6959   -0.7718 C   0  0  0  0  0  0  0  0  0  0  0  0
    2.6117    0.0505   -0.5133 C   0  0  0  0  0  0  0  0  0  0  0  0
    2.2336    1.1803    0.1620 N   0  0  0  0  0  0  0  0  0  0  0  0
    3.1815    2.1233    0.7291 C   0  0  0  0  0  0  0  0  0  0  0  0
    4.1140    1.4658    1.7456 C   0  0  0  0  0  0  0  0  0  0  0  0
    5.1988    0.5832    1.1176 C   0  0  0  0  0  0  0  0  0  0  0  0
    4.7333   -0.6167    0.4254 N   0  0  0  0  0  0  0  0  0  0  0  0
    4.0225   -0.3298   -0.8209 C   0  0  0  0  0  0  0  0  0  0  0  0
    4.0238   -1.5858   -1.7322 C   0  0  0  0  0  0  0  0  0  0  0  0
    2.9503   -2.6242   -1.3547 C   0  0  0  0  0  0  0  0  0  0  0  0
    1.5331   -2.0279   -1.4389 C   0  0  0  0  0  0  0  0  0  0  0  0
   -2.0421    2.6647    1.2709 H   0  0  0  0  0  0  0  0  0  0  0  0
    0.3759    3.0859    1.2976 H   0  0  0  0  0  0  0  0  0  0  0  0
   -1.4120   -1.0934   -0.7528 H   0  0  0  0  0  0  0  0  0  0  0  0
   -3.8639    1.3248    0.8824 H   0  0  0  0  0  0  0  0  0  0  0  0
   -3.4522   -1.6403    0.3151 H   0  0  0  0  0  0  0  0  0  0  0  0
   -3.3483   -0.9096    1.9071 H   0  0  0  0  0  0  0  0  0  0  0  0
   -5.6470   -0.5303    2.0401 H   0  0  0  0  0  0  0  0  0  0  0  0
   -5.6047   -1.9815    1.0572 H   0  0  0  0  0  0  0  0  0  0  0  0
   -7.0719   -0.6828   -0.1985 H   0  0  0  0  0  0  0  0  0  0  0  0
   -6.3498    0.8336    0.3169 H   0  0  0  0  0  0  0  0  0  0  0  0
   -5.9246    0.3980   -2.1028 H   0  0  0  0  0  0  0  0  0  0  0  0
   -5.1166   -1.1073   -1.6903 H   0  0  0  0  0  0  0  0  0  0  0  0
   -4.1605    1.7269   -1.3629 H   0  0  0  0  0  0  0  0  0  0  0  0
   -3.3041    0.3083   -1.9177 H   0  0  0  0  0  0  0  0  0  0  0  0
    3.7363    2.5730   -0.1021 H   0  0  0  0  0  0  0  0  0  0  0  0
    2.6215    2.9240    1.2202 H   0  0  0  0  0  0  0  0  0  0  0  0
    4.6178    2.2601    2.3104 H   0  0  0  0  0  0  0  0  0  0  0  0
    3.5352    0.8821    2.4729 H   0  0  0  0  0  0  0  0  0  0  0  0
    5.8299    1.1819    0.4489 H   0  0  0  0  0  0  0  0  0  0  0  0
    5.8619    0.2494    1.9249 H   0  0  0  0  0  0  0  0  0  0  0  0
    4.1232   -1.1640    1.0330 H   0  0  0  0  0  0  0  0  0  0  0  0
    4.5299    0.4705   -1.3741 H   0  0  0  0  0  0  0  0  0  0  0  0
    3.8413   -1.2668   -2.7678 H   0  0  0  0  0  0  0  0  0  0  0  0
    5.0148   -2.0569   -1.7301 H   0  0  0  0  0  0  0  0  0  0  0  0
    3.1383   -2.9898   -0.3374 H   0  0  0  0  0  0  0  0  0  0  0  0
    3.0197   -3.4900   -2.0230 H   0  0  0  0  0  0  0  0  0  0  0  0
    0.8183   -2.7192   -0.9789 H   0  0  0  0  0  0  0  0  0  0  0  0
    1.2477   -1.9089   -2.4911 H   0  0  0  0  0  0  0  0  0  0  0  0
  1  2  2  0
  2  3  1  0
  3  4  2  0
  4  5  1  0
  5  6  2  0
  6  7  1  0
  7  8  1  0
  8  9  1  0
  9 10  1  0
 10 11  1  0
 11 12  1  0
  4 13  1  0
 13 14  2  0
 14 15  1  0
 15 16  1  0
 16 17  1  0
 17 18  1  0
 18 19  1  0
 19 20  1  0
 20 21  1  0
 21 22  1  0
 22 23  1  0
  6  1  1  0
 12  7  1  0
 23 13  1  0
 15  3  1  0
 20 14  1  0
  1 24  1  0
  2 25  1  0
  5 26  1  0
  7 27  1  0
  8 28  1  0
  8 29  1  0
  9 30  1  0
  9 31  1  0
 10 32  1  0
 10 33  1  0
 11 34  1  0
 11 35  1  0
 12 36  1  0
 12 37  1  0
 16 38  1  0
 16 39  1  0
 17 40  1  0
 17 41  1  0
 18 42  1  0
 18 43  1  0
 19 44  1  0
 20 45  1  0
 21 46  1  0
 21 47  1  0
 22 48  1  0
 22 49  1  0
 23 50  1  0
 23 51  1  0
M  END
$$$$
