
     RDKit          3D

 31 32  0  0  0  0  0  0  0  0999 V2000
    3.2911    0.8034   -5.6460 N   0  0  0  0  0  0  0  0  0  0  0  0
    3.4263    0.8644   -4.3062 C   0  0  0  0  0  0  0  0  0  0  0  0
    2.8027    1.7256   -3.5282 N   0  0  0  0  0  0  0  0  0  0  0  0
    3.1272    1.5641   -2.1947 N   0  0  0  0  0  0  0  0  0  0  0  0
    3.9827    0.5819   -2.0199 C   0  0  0  0  0  0  0  0  0  0  0  0
    4.5792    0.1337   -0.4378 S   0  0  0  0  0  0  0  0  0  0  0  0
    3.2239    0.7489    0.6044 C   0  0  0  0  0  0  0  0  0  0  0  0
    1.9044    0.0546    0.3058 C   0  0  0  0  0  0  0  0  0  0  0  0
    1.7971   -1.0791   -0.1635 O   0  0  0  0  0  0  0  0  0  0  0  0
    0.7976    0.8230    0.6423 N   0  0  0  0  0  0  0  0  0  0  0  0
   -0.4484    0.1835    0.6225 N   0  0  0  0  0  0  0  0  0  0  0  0
   -1.3104    0.4222    1.6720 C   0  0  0  0  0  0  0  0  0  0  0  0
   -1.0739    1.2688    2.5319 O   0  0  0  0  0  0  0  0  0  0  0  0
   -2.5732   -0.3700    1.7098 C   0  0  0  0  0  0  0  0  0  0  0  0
   -3.6521    0.1450    2.4497 C   0  0  0  0  0  0  0  0  0  0  0  0
   -4.8667   -0.5455    2.5103 C   0  0  0  0  0  0  0  0  0  0  0  0
   -5.0036   -1.7571    1.8381 C   0  0  0  0  0  0  0  0  0  0  0  0
   -6.4959   -2.6084    1.9064 Cl  0  0  0  0  0  0  0  0  0  0  0  0
   -3.9339   -2.2880    1.1141 C   0  0  0  0  0  0  0  0  0  0  0  0
   -2.7165   -1.5985    1.0513 C   0  0  0  0  0  0  0  0  0  0  0  0
    4.4834   -0.1956   -3.4628 S   0  0  0  0  0  0  0  0  0  0  0  0
    2.8976    1.6284   -6.0891 H   0  0  0  0  0  0  0  0  0  0  0  0
    4.0421    0.3755   -6.1754 H   0  0  0  0  0  0  0  0  0  0  0  0
    3.4732    0.5599    1.6529 H   0  0  0  0  0  0  0  0  0  0  0  0
    3.1214    1.8333    0.4738 H   0  0  0  0  0  0  0  0  0  0  0  0
    0.8689    1.6049    1.2949 H   0  0  0  0  0  0  0  0  0  0  0  0
   -0.5661   -0.5406   -0.0821 H   0  0  0  0  0  0  0  0  0  0  0  0
   -3.5516    1.0913    2.9787 H   0  0  0  0  0  0  0  0  0  0  0  0
   -5.6952   -0.1327    3.0804 H   0  0  0  0  0  0  0  0  0  0  0  0
   -4.0375   -3.2415    0.6006 H   0  0  0  0  0  0  0  0  0  0  0  0
   -1.8935   -2.0552    0.5034 H   0  0  0  0  0  0  0  0  0  0  0  0
  1  2  1  0
  2  3  2  0
  3  4  1  0
  4  5  2  0
  5  6  1  0
  6  7  1  0
  7  8  1  0
  8  9  2  0
  8 10  1  0
 10 11  1  0
 11 12  1  0
 12 13  2  0
 12 14  1  0
 14 15  2  0
 15 16  1  0
 16 17  2  0
 17 18  1  0
 17 19  1  0
 19 20  2  0
  5 21  1  0
 21  2  1  0
 20 14  1  0
  1 22  1  0
  1 23  1  0
  7 24  1  0
  7 25  1  0
 10 26  1  0
 11 27  1  0
 15 28  1  0
 16 29  1  0
 19 30  1  0
 20 31  1  0
M  END
$$$$
