
     RDKit          3D

 60 62  0  0  0  0  0  0  0  0999 V2000
   -4.8427   -5.0916    1.0470 C   0  0  0  0  0  0  0  0  0  0  0  0
   -4.2365   -3.7567    1.0582 N   0  0  0  0  0  0  0  0  0  0  0  0
   -5.0011   -2.8729    1.9424 C   0  0  0  0  0  0  0  0  0  0  0  0
   -2.8243   -3.8409    1.4564 C   0  0  0  0  0  0  0  0  0  0  0  0
   -2.0332   -2.5436    1.2484 C   0  0  0  0  0  0  0  0  0  0  0  0
   -2.1634   -2.0063   -0.1811 C   0  0  0  0  0  0  0  0  0  0  0  0
   -1.1296   -1.0041   -0.4958 N   0  0  0  0  0  0  0  0  0  0  0  0
   -1.4369    0.3196   -0.1369 C   0  0  0  0  0  0  0  0  0  0  0  0
   -2.5008    0.5828    0.4404 O   0  0  0  0  0  0  0  0  0  0  0  0
   -0.4531    1.4625   -0.4590 C   0  0  0  0  0  0  0  0  0  0  0  0
   -0.8960    2.7629   -0.0758 O   0  0  0  0  0  0  0  0  0  0  0  0
   -1.6400    3.4740   -0.9775 C   0  0  0  0  0  0  0  0  0  0  0  0
   -2.2903    2.9545   -2.0986 C   0  0  0  0  0  0  0  0  0  0  0  0
   -3.0118    3.8013   -2.9471 C   0  0  0  0  0  0  0  0  0  0  0  0
   -3.0905    5.1682   -2.6760 C   0  0  0  0  0  0  0  0  0  0  0  0
   -2.4613    5.6879   -1.5470 C   0  0  0  0  0  0  0  0  0  0  0  0
   -1.7439    4.8428   -0.7002 C   0  0  0  0  0  0  0  0  0  0  0  0
    0.1147   -1.3328   -1.0447 C   0  0  0  0  0  0  0  0  0  0  0  0
    1.0817   -0.5031   -1.3634 N   0  0  0  0  0  0  0  0  0  0  0  0
    2.1653   -1.1784   -1.9048 C   0  0  0  0  0  0  0  0  0  0  0  0
    3.3494   -0.3949   -2.3494 C   0  0  0  0  0  0  0  0  0  0  0  0
    4.3797   -0.3141   -1.2403 C   0  0  0  0  0  0  0  0  0  0  0  0
    5.3095   -1.1156   -1.1875 O   0  0  0  0  0  0  0  0  0  0  0  0
    4.1252    0.7208   -0.3536 N   0  0  0  0  0  0  0  0  0  0  0  0
    4.8896    1.1000    0.7670 C   0  0  0  0  0  0  0  0  0  0  0  0
    4.4182    2.1779    1.5261 C   0  0  0  0  0  0  0  0  0  0  0  0
    5.1239    2.6261    2.6476 C   0  0  0  0  0  0  0  0  0  0  0  0
    6.3060    1.9936    3.0169 C   0  0  0  0  0  0  0  0  0  0  0  0
    7.1740    2.5436    4.3988 Cl  0  0  0  0  0  0  0  0  0  0  0  0
    6.7838    0.9193    2.2739 C   0  0  0  0  0  0  0  0  0  0  0  0
    6.0762    0.4757    1.1511 C   0  0  0  0  0  0  0  0  0  0  0  0
    2.0129   -2.5459   -1.9699 C   0  0  0  0  0  0  0  0  0  0  0  0
    0.4848   -2.9881   -1.3510 S   0  0  0  0  0  0  0  0  0  0  0  0
   -5.8803   -5.0379    0.6965 H   0  0  0  0  0  0  0  0  0  0  0  0
   -4.8320   -5.5603    2.0399 H   0  0  0  0  0  0  0  0  0  0  0  0
   -4.3115   -5.7509    0.3483 H   0  0  0  0  0  0  0  0  0  0  0  0
   -4.6492   -1.8365    1.8704 H   0  0  0  0  0  0  0  0  0  0  0  0
   -6.0573   -2.8539    1.6456 H   0  0  0  0  0  0  0  0  0  0  0  0
   -4.9466   -3.1906    2.9913 H   0  0  0  0  0  0  0  0  0  0  0  0
   -2.7309   -4.1606    2.5001 H   0  0  0  0  0  0  0  0  0  0  0  0
   -2.3310   -4.6110    0.8520 H   0  0  0  0  0  0  0  0  0  0  0  0
   -2.3500   -1.7763    1.9652 H   0  0  0  0  0  0  0  0  0  0  0  0
   -0.9798   -2.7488    1.4786 H   0  0  0  0  0  0  0  0  0  0  0  0
   -3.1514   -1.5453   -0.3086 H   0  0  0  0  0  0  0  0  0  0  0  0
   -2.1389   -2.8158   -0.9191 H   0  0  0  0  0  0  0  0  0  0  0  0
   -0.1747    1.4634   -1.5163 H   0  0  0  0  0  0  0  0  0  0  0  0
    0.4467    1.2871    0.1404 H   0  0  0  0  0  0  0  0  0  0  0  0
   -2.2689    1.8971   -2.3347 H   0  0  0  0  0  0  0  0  0  0  0  0
   -3.5172    3.3903   -3.8183 H   0  0  0  0  0  0  0  0  0  0  0  0
   -3.6506    5.8207   -3.3366 H   0  0  0  0  0  0  0  0  0  0  0  0
   -2.5320    6.7471   -1.3216 H   0  0  0  0  0  0  0  0  0  0  0  0
   -1.2574    5.2510    0.1822 H   0  0  0  0  0  0  0  0  0  0  0  0
    3.0513    0.6129   -2.6530 H   0  0  0  0  0  0  0  0  0  0  0  0
    3.8161   -0.8594   -3.2243 H   0  0  0  0  0  0  0  0  0  0  0  0
    3.2649    1.2250   -0.4962 H   0  0  0  0  0  0  0  0  0  0  0  0
    3.4977    2.6888    1.2565 H   0  0  0  0  0  0  0  0  0  0  0  0
    4.7457    3.4665    3.2263 H   0  0  0  0  0  0  0  0  0  0  0  0
    7.7046    0.4191    2.5587 H   0  0  0  0  0  0  0  0  0  0  0  0
    6.4814   -0.3632    0.6000 H   0  0  0  0  0  0  0  0  0  0  0  0
    2.7118   -3.2829   -2.3375 H   0  0  0  0  0  0  0  0  0  0  0  0
  1  2  1  0
  2  3  1  0
  2  4  1  0
  4  5  1  0
  5  6  1  0
  6  7  1  0
  7  8  1  0
  8  9  2  0
  8 10  1  0
 10 11  1  0
 11 12  1  0
 12 13  2  0
 13 14  1  0
 14 15  2  0
 15 16  1  0
 16 17  2  0
  7 18  1  0
 18 19  2  0
 19 20  1  0
 20 21  1  0
 21 22  1  0
 22 23  2  0
 22 24  1  0
 24 25  1  0
 25 26  2  0
 26 27  1  0
 27 28  2  0
 28 29  1  0
 28 30  1  0
 30 31  2  0
 20 32  2  0
 32 33  1  0
 17 12  1  0
 33 18  1  0
 31 25  1  0
  1 34  1  0
  1 35  1  0
  1 36  1  0
  3 37  1  0
  3 38  1  0
  3 39  1  0
  4 40  1  0
  4 41  1  0
  5 42  1  0
  5 43  1  0
  6 44  1  0
  6 45  1  0
 10 46  1  0
 10 47  1  0
 13 48  1  0
 14 49  1  0
 15 50  1  0
 16 51  1  0
 17 52  1  0
 21 53  1  0
 21 54  1  0
 24 55  1  0
 26 56  1  0
 27 57  1  0
 30 58  1  0
 31 59  1  0
 32 60  1  0
M  END
$$$$
