
     RDKit          3D

 50 53  0  0  0  0  0  0  0  0999 V2000
   -2.1488   -1.7398    0.7119 O   0  0  0  0  0  0  0  0  0  0  0  0
   -2.4704   -0.5696    0.5062 C   0  0  0  0  0  0  0  0  0  0  0  0
   -3.9308   -0.1194    0.6447 C   0  0  0  0  0  0  0  0  0  0  0  0
   -4.6059   -0.0005   -0.7307 C   0  0  0  0  0  0  0  0  0  0  0  0
   -4.9974   -1.3515   -1.3256 C   0  0  0  0  0  0  0  0  0  0  0  0
   -5.8733   -2.1502   -0.3699 C   0  0  0  0  0  0  0  0  0  0  0  0
   -5.1825   -2.3533    0.9713 C   0  0  0  0  0  0  0  0  0  0  0  0
   -4.7341   -1.0307    1.5912 C   0  0  0  0  0  0  0  0  0  0  0  0
   -1.5196    0.3677    0.1092 N   0  0  0  0  0  0  0  0  0  0  0  0
   -1.7578    1.7962   -0.1109 C   0  0  0  0  0  0  0  0  0  0  0  0
   -0.9429    2.3078   -1.2938 C   0  0  0  0  0  0  0  0  0  0  0  0
    0.5612    2.0704   -1.1295 C   0  0  0  0  0  0  0  0  0  0  0  0
    0.8934    1.0286   -0.0520 C   0  0  0  0  0  0  0  0  0  0  0  0
    2.2815    0.5173   -0.2052 C   0  0  0  0  0  0  0  0  0  0  0  0
    3.3566    0.8206    0.4843 N   0  0  0  0  0  0  0  0  0  0  0  0
    4.3280    0.0445   -0.1148 C   0  0  0  0  0  0  0  0  0  0  0  0
    5.7163    0.0488    0.3364 C   0  0  0  0  0  0  0  0  0  0  0  0
    6.6723   -0.7983   -0.2504 C   0  0  0  0  0  0  0  0  0  0  0  0
    7.9984   -0.7862    0.1912 C   0  0  0  0  0  0  0  0  0  0  0  0
    8.3727    0.0740    1.2148 C   0  0  0  0  0  0  0  0  0  0  0  0
    9.6430    0.0843    1.6376 F   0  0  0  0  0  0  0  0  0  0  0  0
    7.4462    0.9203    1.8104 C   0  0  0  0  0  0  0  0  0  0  0  0
    6.1190    0.9078    1.3729 C   0  0  0  0  0  0  0  0  0  0  0  0
    3.8712   -0.6992   -1.1369 N   0  0  0  0  0  0  0  0  0  0  0  0
    2.5181   -0.3809   -1.2028 O   0  0  0  0  0  0  0  0  0  0  0  0
   -0.1357   -0.1053   -0.0355 C   0  0  0  0  0  0  0  0  0  0  0  0
   -3.9139    0.8659    1.1257 H   0  0  0  0  0  0  0  0  0  0  0  0
   -3.9611    0.5150   -1.4501 H   0  0  0  0  0  0  0  0  0  0  0  0
   -5.5104    0.6118   -0.6243 H   0  0  0  0  0  0  0  0  0  0  0  0
   -5.5344   -1.1931   -2.2682 H   0  0  0  0  0  0  0  0  0  0  0  0
   -4.0944   -1.9255   -1.5671 H   0  0  0  0  0  0  0  0  0  0  0  0
   -6.8250   -1.6267   -0.2177 H   0  0  0  0  0  0  0  0  0  0  0  0
   -6.1116   -3.1235   -0.8127 H   0  0  0  0  0  0  0  0  0  0  0  0
   -5.8646   -2.8648    1.6606 H   0  0  0  0  0  0  0  0  0  0  0  0
   -4.3225   -3.0185    0.8389 H   0  0  0  0  0  0  0  0  0  0  0  0
   -5.6310   -0.4851    1.9107 H   0  0  0  0  0  0  0  0  0  0  0  0
   -4.1569   -1.2364    2.5004 H   0  0  0  0  0  0  0  0  0  0  0  0
   -2.8131    2.0091   -0.2842 H   0  0  0  0  0  0  0  0  0  0  0  0
   -1.4741    2.3191    0.8101 H   0  0  0  0  0  0  0  0  0  0  0  0
   -1.1334    3.3756   -1.4505 H   0  0  0  0  0  0  0  0  0  0  0  0
   -1.2811    1.7938   -2.2032 H   0  0  0  0  0  0  0  0  0  0  0  0
    0.9742    1.7781   -2.1041 H   0  0  0  0  0  0  0  0  0  0  0  0
    1.0566    3.0181   -0.8745 H   0  0  0  0  0  0  0  0  0  0  0  0
    0.8408    1.5333    0.9230 H   0  0  0  0  0  0  0  0  0  0  0  0
    6.3919   -1.4761   -1.0548 H   0  0  0  0  0  0  0  0  0  0  0  0
    8.7380   -1.4411   -0.2582 H   0  0  0  0  0  0  0  0  0  0  0  0
    7.7582    1.5829    2.6108 H   0  0  0  0  0  0  0  0  0  0  0  0
    5.3981    1.5713    1.8485 H   0  0  0  0  0  0  0  0  0  0  0  0
   -0.1004   -0.6858   -0.9663 H   0  0  0  0  0  0  0  0  0  0  0  0
    0.0913   -0.8006    0.7830 H   0  0  0  0  0  0  0  0  0  0  0  0
  1  2  2  0
  2  3  1  0
  3  4  1  0
  4  5  1  0
  5  6  1  0
  6  7  1  0
  7  8  1  0
  2  9  1  0
  9 10  1  0
 10 11  1  0
 11 12  1  0
 12 13  1  0
 13 14  1  0
 14 15  2  0
 15 16  1  0
 16 17  1  0
 17 18  2  0
 18 19  1  0
 19 20  2  0
 20 21  1  0
 20 22  1  0
 22 23  2  0
 16 24  2  0
 24 25  1  0
 13 26  1  0
  8  3  1  0
 26  9  1  0
 25 14  1  0
 23 17  1  0
  3 27  1  0
  4 28  1  0
  4 29  1  0
  5 30  1  0
  5 31  1  0
  6 32  1  0
  6 33  1  0
  7 34  1  0
  7 35  1  0
  8 36  1  0
  8 37  1  0
 10 38  1  0
 10 39  1  0
 11 40  1  0
 11 41  1  0
 12 42  1  0
 12 43  1  0
 13 44  1  0
 18 45  1  0
 19 46  1  0
 22 47  1  0
 23 48  1  0
 26 49  1  0
 26 50  1  0
M  END
$$$$
