
     RDKit          3D

 45 47  0  0  0  0  0  0  0  0999 V2000
   -0.6252   -2.6446    2.1738 C   0  0  0  0  0  0  0  0  0  0  0  0
    0.0240   -1.8702    1.0867 C   0  0  0  0  0  0  0  0  0  0  0  0
    1.3102   -1.5789    1.0526 N   0  0  0  0  0  0  0  0  0  0  0  0
    1.4079   -0.6235    0.0611 C   0  0  0  0  0  0  0  0  0  0  0  0
    2.6991    0.0118   -0.2889 C   0  0  0  0  0  0  0  0  0  0  0  0
    2.8032    0.8837   -1.1455 O   0  0  0  0  0  0  0  0  0  0  0  0
    3.7341   -0.5058    0.4715 N   0  0  0  0  0  0  0  0  0  0  0  0
    5.1050   -0.1751    0.4470 C   0  0  0  0  0  0  0  0  0  0  0  0
    5.6448    0.7838   -0.4150 C   0  0  0  0  0  0  0  0  0  0  0  0
    7.0157    1.0672   -0.3929 C   0  0  0  0  0  0  0  0  0  0  0  0
    7.8551    0.3929    0.4901 C   0  0  0  0  0  0  0  0  0  0  0  0
    9.5381    0.7471    0.5091 Cl  0  0  0  0  0  0  0  0  0  0  0  0
    7.3404   -0.5639    1.3578 C   0  0  0  0  0  0  0  0  0  0  0  0
    5.9725   -0.8446    1.3335 C   0  0  0  0  0  0  0  0  0  0  0  0
    5.3727   -2.0437    2.4308 Cl  0  0  0  0  0  0  0  0  0  0  0  0
    0.2324   -0.3131   -0.5016 N   0  0  0  0  0  0  0  0  0  0  0  0
   -0.6235   -1.2064    0.0530 N   0  0  0  0  0  0  0  0  0  0  0  0
   -1.9710   -1.2456   -0.3890 C   0  0  0  0  0  0  0  0  0  0  0  0
   -2.5526   -0.0257   -0.7906 C   0  0  0  0  0  0  0  0  0  0  0  0
   -3.8930    0.0301   -1.1831 C   0  0  0  0  0  0  0  0  0  0  0  0
   -4.4604    1.2053   -1.5960 O   0  0  0  0  0  0  0  0  0  0  0  0
   -4.4200    2.2609   -0.6227 C   0  0  0  0  0  0  0  0  0  0  0  0
   -3.6961    3.4505   -1.2419 C   0  0  0  0  0  0  0  0  0  0  0  0
   -5.8605    2.6272   -0.2802 C   0  0  0  0  0  0  0  0  0  0  0  0
   -4.6433   -1.1455   -1.2425 C   0  0  0  0  0  0  0  0  0  0  0  0
   -6.2935   -1.1365   -1.7480 Cl  0  0  0  0  0  0  0  0  0  0  0  0
   -4.0601   -2.3659   -0.8991 C   0  0  0  0  0  0  0  0  0  0  0  0
   -2.7226   -2.4242   -0.4854 C   0  0  0  0  0  0  0  0  0  0  0  0
   -2.0583   -4.0104   -0.3152 Cl  0  0  0  0  0  0  0  0  0  0  0  0
   -0.4458   -3.7156    2.0477 H   0  0  0  0  0  0  0  0  0  0  0  0
   -0.1897   -2.3547    3.1366 H   0  0  0  0  0  0  0  0  0  0  0  0
   -1.6999   -2.4581    2.2437 H   0  0  0  0  0  0  0  0  0  0  0  0
    3.4515   -1.2228    1.1405 H   0  0  0  0  0  0  0  0  0  0  0  0
    5.0286    1.3335   -1.1206 H   0  0  0  0  0  0  0  0  0  0  0  0
    7.4175    1.8153   -1.0730 H   0  0  0  0  0  0  0  0  0  0  0  0
    7.9974   -1.0880    2.0462 H   0  0  0  0  0  0  0  0  0  0  0  0
   -1.9621    0.8898   -0.7899 H   0  0  0  0  0  0  0  0  0  0  0  0
   -3.9106    1.9641    0.3029 H   0  0  0  0  0  0  0  0  0  0  0  0
   -2.6687    3.1807   -1.5080 H   0  0  0  0  0  0  0  0  0  0  0  0
   -4.1855    3.7701   -2.1686 H   0  0  0  0  0  0  0  0  0  0  0  0
   -3.6643    4.2990   -0.5513 H   0  0  0  0  0  0  0  0  0  0  0  0
   -5.9018    3.4582    0.4305 H   0  0  0  0  0  0  0  0  0  0  0  0
   -6.4213    2.9046   -1.1794 H   0  0  0  0  0  0  0  0  0  0  0  0
   -6.3771    1.7672    0.1600 H   0  0  0  0  0  0  0  0  0  0  0  0
   -4.6431   -3.2804   -0.9907 H   0  0  0  0  0  0  0  0  0  0  0  0
  1  2  1  0
  2  3  2  0
  3  4  1  0
  4  5  1  0
  5  6  2  0
  5  7  1  0
  7  8  1  0
  8  9  2  0
  9 10  1  0
 10 11  2  0
 11 12  1  0
 11 13  1  0
 13 14  2  0
 14 15  1  0
  4 16  2  0
 16 17  1  0
 17 18  1  0
 18 19  2  0
 19 20  1  0
 20 21  1  0
 21 22  1  0
 22 23  1  0
 22 24  1  0
 20 25  2  0
 25 26  1  0
 25 27  1  0
 27 28  2  0
 28 29  1  0
 17  2  1  0
 28 18  1  0
 14  8  1  0
  1 30  1  0
  1 31  1  0
  1 32  1  0
  7 33  1  0
  9 34  1  0
 10 35  1  0
 13 36  1  0
 19 37  1  0
 22 38  1  0
 23 39  1  0
 23 40  1  0
 23 41  1  0
 24 42  1  0
 24 43  1  0
 24 44  1  0
 27 45  1  0
M  END
$$$$
