
     RDKit          3D

 39 40  0  0  0  0  0  0  0  0999 V2000
    0.8505   -0.6912    4.4144 C   0  0  0  0  0  0  0  0  0  0  0  0
    0.1981   -0.7551    3.0389 C   0  0  0  0  0  0  0  0  0  0  0  0
    1.0757   -1.4328    1.9752 C   0  0  0  0  0  0  0  0  0  0  0  0
    2.6533   -0.5837    1.5873 S   0  0  0  0  0  0  0  0  0  0  0  0
    2.1224    0.7665    0.6586 C   0  0  0  0  0  0  0  0  0  0  0  0
    1.1327    1.5773    0.9522 N   0  0  0  0  0  0  0  0  0  0  0  0
    1.0322    2.4981   -0.0667 N   0  0  0  0  0  0  0  0  0  0  0  0
    1.9600    2.2125   -0.9522 C   0  0  0  0  0  0  0  0  0  0  0  0
    2.6731    1.1288   -0.5349 N   0  0  0  0  0  0  0  0  0  0  0  0
    3.7517    0.4999   -1.2473 C   0  0  0  0  0  0  0  0  0  0  0  0
    0.3444   -1.8023    0.6731 C   0  0  0  0  0  0  0  0  0  0  0  0
    0.6105   -2.8622    0.1045 O   0  0  0  0  0  0  0  0  0  0  0  0
   -0.5484   -0.8581    0.2128 N   0  0  0  0  0  0  0  0  0  0  0  0
   -1.3719   -0.9099   -0.9345 C   0  0  0  0  0  0  0  0  0  0  0  0
   -1.4454   -2.0060   -1.7950 C   0  0  0  0  0  0  0  0  0  0  0  0
   -2.2768   -1.9639   -2.9178 C   0  0  0  0  0  0  0  0  0  0  0  0
   -3.0444   -0.8315   -3.1826 C   0  0  0  0  0  0  0  0  0  0  0  0
   -2.9871    0.2673   -2.3250 C   0  0  0  0  0  0  0  0  0  0  0  0
   -2.1500    0.2342   -1.2068 C   0  0  0  0  0  0  0  0  0  0  0  0
   -2.0669    1.2496   -0.2836 O   0  0  0  0  0  0  0  0  0  0  0  0
   -2.2660    2.5632   -0.7926 C   0  0  0  0  0  0  0  0  0  0  0  0
    0.1442   -0.2827    5.1444 H   0  0  0  0  0  0  0  0  0  0  0  0
    1.7335   -0.0457    4.4126 H   0  0  0  0  0  0  0  0  0  0  0  0
    1.1484   -1.6876    4.7561 H   0  0  0  0  0  0  0  0  0  0  0  0
   -0.7374   -1.3212    3.1323 H   0  0  0  0  0  0  0  0  0  0  0  0
   -0.0951    0.2573    2.7451 H   0  0  0  0  0  0  0  0  0  0  0  0
    1.3777   -2.3985    2.4039 H   0  0  0  0  0  0  0  0  0  0  0  0
    2.1440    2.7417   -1.8766 H   0  0  0  0  0  0  0  0  0  0  0  0
    3.4774   -0.5365   -1.4603 H   0  0  0  0  0  0  0  0  0  0  0  0
    3.9268    1.0298   -2.1875 H   0  0  0  0  0  0  0  0  0  0  0  0
    4.6530    0.5447   -0.6310 H   0  0  0  0  0  0  0  0  0  0  0  0
   -0.5723    0.0534    0.6734 H   0  0  0  0  0  0  0  0  0  0  0  0
   -0.8699   -2.9088   -1.6197 H   0  0  0  0  0  0  0  0  0  0  0  0
   -2.3277   -2.8236   -3.5814 H   0  0  0  0  0  0  0  0  0  0  0  0
   -3.6979   -0.8100   -4.0511 H   0  0  0  0  0  0  0  0  0  0  0  0
   -3.6185    1.1238   -2.5354 H   0  0  0  0  0  0  0  0  0  0  0  0
   -3.3305    2.7566   -0.9560 H   0  0  0  0  0  0  0  0  0  0  0  0
   -1.6915    2.7344   -1.7093 H   0  0  0  0  0  0  0  0  0  0  0  0
   -1.9122    3.2718   -0.0374 H   0  0  0  0  0  0  0  0  0  0  0  0
  1  2  1  0
  2  3  1  0
  3  4  1  0
  4  5  1  0
  5  6  2  0
  6  7  1  0
  7  8  2  0
  8  9  1  0
  9 10  1  0
  3 11  1  0
 11 12  2  0
 11 13  1  0
 13 14  1  0
 14 15  2  0
 15 16  1  0
 16 17  2  0
 17 18  1  0
 18 19  2  0
 19 20  1  0
 20 21  1  0
  9  5  1  0
 19 14  1  0
  1 22  1  0
  1 23  1  0
  1 24  1  0
  2 25  1  0
  2 26  1  0
  3 27  1  0
  8 28  1  0
 10 29  1  0
 10 30  1  0
 10 31  1  0
 13 32  1  0
 15 33  1  0
 16 34  1  0
 17 35  1  0
 18 36  1  0
 21 37  1  0
 21 38  1  0
 21 39  1  0
M  END
$$$$
