
     RDKit          3D

 59 62  0  0  0  0  0  0  0  0999 V2000
    2.7063    0.3612   -2.6056 O   0  0  0  0  0  0  0  0  0  0  0  0
    1.7095    0.2689   -1.8927 C   0  0  0  0  0  0  0  0  0  0  0  0
    0.5040    0.1048   -2.5071 N   0  0  0  0  0  0  0  0  0  0  0  0
   -0.5843   -0.4687   -1.9249 C   0  0  0  0  0  0  0  0  0  0  0  0
   -1.4144   -1.0666   -2.6031 O   0  0  0  0  0  0  0  0  0  0  0  0
   -0.7064   -0.2478   -0.4361 C   0  0  0  0  0  0  0  0  0  0  0  0
   -1.2362    1.2010   -0.2014 C   0  0  0  0  0  0  0  0  0  0  0  0
   -2.6717    1.4623   -0.6805 C   0  0  0  0  0  0  0  0  0  0  0  0
   -3.0324    2.9204   -0.5439 C   0  0  0  0  0  0  0  0  0  0  0  0
   -3.4671    3.4374    0.6793 C   0  0  0  0  0  0  0  0  0  0  0  0
   -3.7662    4.7888    0.7610 C   0  0  0  0  0  0  0  0  0  0  0  0
   -3.6590    5.6463   -0.2758 N   0  0  0  0  0  0  0  0  0  0  0  0
   -3.2378    5.1274   -1.4483 C   0  0  0  0  0  0  0  0  0  0  0  0
   -2.9143    3.7912   -1.6300 C   0  0  0  0  0  0  0  0  0  0  0  0
   -1.6577   -1.2938    0.2018 C   0  0  0  0  0  0  0  0  0  0  0  0
   -1.1674   -2.7493    0.0980 C   0  0  0  0  0  0  0  0  0  0  0  0
   -2.1508   -3.6992    0.7333 C   0  0  0  0  0  0  0  0  0  0  0  0
   -3.1904   -4.2570   -0.0145 C   0  0  0  0  0  0  0  0  0  0  0  0
   -4.0813   -5.1087    0.6205 C   0  0  0  0  0  0  0  0  0  0  0  0
   -4.0099   -5.4328    1.9293 N   0  0  0  0  0  0  0  0  0  0  0  0
   -3.0006   -4.8785    2.6342 C   0  0  0  0  0  0  0  0  0  0  0  0
   -2.0609   -4.0162    2.0907 C   0  0  0  0  0  0  0  0  0  0  0  0
    0.6658   -0.2863    0.2282 C   0  0  0  0  0  0  0  0  0  0  0  0
    0.7959   -0.6988    1.3826 O   0  0  0  0  0  0  0  0  0  0  0  0
    1.7271    0.2375   -0.5092 N   0  0  0  0  0  0  0  0  0  0  0  0
    3.0169    0.3855    0.1985 C   0  0  0  0  0  0  0  0  0  0  0  0
    3.7521    1.6982   -0.1312 C   0  0  0  0  0  0  0  0  0  0  0  0
    5.0422    1.8267    0.6779 C   0  0  0  0  0  0  0  0  0  0  0  0
    5.9491    0.6146    0.4821 C   0  0  0  0  0  0  0  0  0  0  0  0
    5.2277   -0.6900    0.8093 C   0  0  0  0  0  0  0  0  0  0  0  0
    3.9322   -0.8374    0.0131 C   0  0  0  0  0  0  0  0  0  0  0  0
    0.5793   -0.0338   -3.5068 H   0  0  0  0  0  0  0  0  0  0  0  0
   -0.5659    1.9238   -0.6886 H   0  0  0  0  0  0  0  0  0  0  0  0
   -1.1762    1.4333    0.8718 H   0  0  0  0  0  0  0  0  0  0  0  0
   -2.7958    1.1585   -1.7262 H   0  0  0  0  0  0  0  0  0  0  0  0
   -3.3897    0.8716   -0.0999 H   0  0  0  0  0  0  0  0  0  0  0  0
   -3.5745    2.8061    1.5552 H   0  0  0  0  0  0  0  0  0  0  0  0
   -4.1096    5.2301    1.6924 H   0  0  0  0  0  0  0  0  0  0  0  0
   -3.1635    5.8371   -2.2674 H   0  0  0  0  0  0  0  0  0  0  0  0
   -2.5809    3.4443   -2.6022 H   0  0  0  0  0  0  0  0  0  0  0  0
   -2.6452   -1.2385   -0.2743 H   0  0  0  0  0  0  0  0  0  0  0  0
   -1.8175   -1.0439    1.2598 H   0  0  0  0  0  0  0  0  0  0  0  0
   -1.0196   -3.0397   -0.9485 H   0  0  0  0  0  0  0  0  0  0  0  0
   -0.1926   -2.8780    0.5810 H   0  0  0  0  0  0  0  0  0  0  0  0
   -3.3096   -4.0350   -1.0701 H   0  0  0  0  0  0  0  0  0  0  0  0
   -4.9023   -5.5653    0.0752 H   0  0  0  0  0  0  0  0  0  0  0  0
   -2.9651   -5.1527    3.6846 H   0  0  0  0  0  0  0  0  0  0  0  0
   -1.2772   -3.6017    2.7167 H   0  0  0  0  0  0  0  0  0  0  0  0
    2.7900    0.4464    1.2719 H   0  0  0  0  0  0  0  0  0  0  0  0
    4.0068    1.7611   -1.1938 H   0  0  0  0  0  0  0  0  0  0  0  0
    3.0984    2.5523    0.0833 H   0  0  0  0  0  0  0  0  0  0  0  0
    4.7983    1.9336    1.7420 H   0  0  0  0  0  0  0  0  0  0  0  0
    5.5743    2.7372    0.3798 H   0  0  0  0  0  0  0  0  0  0  0  0
    6.3007    0.5861   -0.5566 H   0  0  0  0  0  0  0  0  0  0  0  0
    6.8367    0.7131    1.1171 H   0  0  0  0  0  0  0  0  0  0  0  0
    5.8876   -1.5391    0.5983 H   0  0  0  0  0  0  0  0  0  0  0  0
    5.0011   -0.7217    1.8822 H   0  0  0  0  0  0  0  0  0  0  0  0
    4.1809   -0.9783   -1.0449 H   0  0  0  0  0  0  0  0  0  0  0  0
    3.4110   -1.7479    0.3326 H   0  0  0  0  0  0  0  0  0  0  0  0
  1  2  2  0
  2  3  1  0
  3  4  1  0
  4  5  2  0
  4  6  1  0
  6  7  1  0
  7  8  1  0
  8  9  1  0
  9 10  2  0
 10 11  1  0
 11 12  2  0
 12 13  1  0
 13 14  2  0
  6 15  1  0
 15 16  1  0
 16 17  1  0
 17 18  2  0
 18 19  1  0
 19 20  2  0
 20 21  1  0
 21 22  2  0
  6 23  1  0
 23 24  2  0
 23 25  1  0
 25 26  1  0
 26 27  1  0
 27 28  1  0
 28 29  1  0
 29 30  1  0
 30 31  1  0
 25  2  1  0
 31 26  1  0
 14  9  1  0
 22 17  1  0
  3 32  1  0
  7 33  1  0
  7 34  1  0
  8 35  1  0
  8 36  1  0
 10 37  1  0
 11 38  1  0
 13 39  1  0
 14 40  1  0
 15 41  1  0
 15 42  1  0
 16 43  1  0
 16 44  1  0
 18 45  1  0
 19 46  1  0
 21 47  1  0
 22 48  1  0
 26 49  1  0
 27 50  1  0
 27 51  1  0
 28 52  1  0
 28 53  1  0
 29 54  1  0
 29 55  1  0
 30 56  1  0
 30 57  1  0
 31 58  1  0
 31 59  1  0
M  END
$$$$
