
     RDKit          3D

 46 49  0  0  0  0  0  0  0  0999 V2000
   -0.1202   -0.4330    2.5788 O   0  0  0  0  0  0  0  0  0  0  0  0
    0.4531   -0.2189    1.5149 C   0  0  0  0  0  0  0  0  0  0  0  0
    1.9573   -0.3732    1.3692 C   0  0  0  0  0  0  0  0  0  0  0  0
    2.3481   -1.4802   -0.0232 S   0  0  0  0  0  0  0  0  0  0  0  0
    3.9345   -0.7968   -0.4476 C   0  0  0  0  0  0  0  0  0  0  0  0
    3.8447    0.4050   -1.0816 N   0  0  0  0  0  0  0  0  0  0  0  0
    4.9880    0.9779   -1.5171 C   0  0  0  0  0  0  0  0  0  0  0  0
    6.2384    0.4112   -1.3568 C   0  0  0  0  0  0  0  0  0  0  0  0
    6.3223   -0.8137   -0.7028 C   0  0  0  0  0  0  0  0  0  0  0  0
    5.1553   -1.4353   -0.2366 C   0  0  0  0  0  0  0  0  0  0  0  0
    5.2619   -2.7054    0.5025 C   0  0  0  0  0  0  0  0  0  0  0  0
    4.6330   -3.0391    1.4865 O   0  0  0  0  0  0  0  0  0  0  0  0
    6.2005   -3.5065   -0.0363 O   0  0  0  0  0  0  0  0  0  0  0  0
   -0.1736    0.2498    0.3744 N   0  0  0  0  0  0  0  0  0  0  0  0
   -1.6215    0.4128    0.2197 C   0  0  0  0  0  0  0  0  0  0  0  0
   -2.3624   -0.9401    0.3513 C   0  0  0  0  0  0  0  0  0  0  0  0
   -3.8733   -0.7532    0.1261 C   0  0  0  0  0  0  0  0  0  0  0  0
   -4.1110   -0.1915   -1.2847 C   0  0  0  0  0  0  0  0  0  0  0  0
   -3.4042    1.1647   -1.4363 C   0  0  0  0  0  0  0  0  0  0  0  0
   -3.9583    2.1473   -0.3939 C   0  0  0  0  0  0  0  0  0  0  0  0
   -3.7191    1.5995    1.0214 C   0  0  0  0  0  0  0  0  0  0  0  0
   -4.4224    0.2389    1.1652 C   0  0  0  0  0  0  0  0  0  0  0  0
   -2.2081    1.4134    1.2476 C   0  0  0  0  0  0  0  0  0  0  0  0
   -1.8974    0.9774   -1.2001 C   0  0  0  0  0  0  0  0  0  0  0  0
    2.3840    0.6258    1.2320 H   0  0  0  0  0  0  0  0  0  0  0  0
    2.3670   -0.8029    2.2878 H   0  0  0  0  0  0  0  0  0  0  0  0
    4.8656    1.9357   -2.0163 H   0  0  0  0  0  0  0  0  0  0  0  0
    7.1271    0.9118   -1.7261 H   0  0  0  0  0  0  0  0  0  0  0  0
    7.2944   -1.2782   -0.5526 H   0  0  0  0  0  0  0  0  0  0  0  0
    6.1697   -4.3133    0.5219 H   0  0  0  0  0  0  0  0  0  0  0  0
    0.3745    0.1612   -0.4759 H   0  0  0  0  0  0  0  0  0  0  0  0
   -2.1981   -1.3788    1.3428 H   0  0  0  0  0  0  0  0  0  0  0  0
   -1.9632   -1.6618   -0.3731 H   0  0  0  0  0  0  0  0  0  0  0  0
   -4.3836   -1.7172    0.2305 H   0  0  0  0  0  0  0  0  0  0  0  0
   -3.7360   -0.8959   -2.0368 H   0  0  0  0  0  0  0  0  0  0  0  0
   -5.1866   -0.0753   -1.4657 H   0  0  0  0  0  0  0  0  0  0  0  0
   -3.5743    1.5597   -2.4440 H   0  0  0  0  0  0  0  0  0  0  0  0
   -5.0311    2.3039   -0.5597 H   0  0  0  0  0  0  0  0  0  0  0  0
   -3.4731    3.1249   -0.5039 H   0  0  0  0  0  0  0  0  0  0  0  0
   -4.1188    2.3022    1.7612 H   0  0  0  0  0  0  0  0  0  0  0  0
   -5.5040    0.3611    1.0296 H   0  0  0  0  0  0  0  0  0  0  0  0
   -4.2712   -0.1560    2.1771 H   0  0  0  0  0  0  0  0  0  0  0  0
   -2.0468    1.0639    2.2740 H   0  0  0  0  0  0  0  0  0  0  0  0
   -1.6955    2.3814    1.1690 H   0  0  0  0  0  0  0  0  0  0  0  0
   -1.4871    0.3006   -1.9622 H   0  0  0  0  0  0  0  0  0  0  0  0
   -1.3782    1.9367   -1.3320 H   0  0  0  0  0  0  0  0  0  0  0  0
  1  2  2  0
  2  3  1  0
  3  4  1  0
  4  5  1  0
  5  6  2  0
  6  7  1  0
  7  8  2  0
  8  9  1  0
  9 10  2  0
 10 11  1  0
 11 12  2  0
 11 13  1  0
  2 14  1  0
 14 15  1  0
 15 16  1  0
 16 17  1  0
 17 18  1  0
 18 19  1  0
 19 20  1  0
 20 21  1  0
 21 22  1  0
 21 23  1  0
 19 24  1  0
 10  5  1  0
 23 15  1  0
 24 15  1  0
 22 17  1  0
  3 25  1  0
  3 26  1  0
  7 27  1  0
  8 28  1  0
  9 29  1  0
 13 30  1  0
 14 31  1  0
 16 32  1  0
 16 33  1  0
 17 34  1  0
 18 35  1  0
 18 36  1  0
 19 37  1  0
 20 38  1  0
 20 39  1  0
 21 40  1  0
 22 41  1  0
 22 42  1  0
 23 43  1  0
 23 44  1  0
 24 45  1  0
 24 46  1  0
M  END
$$$$
