
     RDKit          3D

 56 59  0  0  0  0  0  0  0  0999 V2000
   -1.5837    0.7000    2.0740 O   0  0  0  0  0  0  0  0  0  0  0  0
   -1.8750    0.3081    0.9417 C   0  0  0  0  0  0  0  0  0  0  0  0
   -0.8242    0.1210   -0.1713 C   0  0  0  0  0  0  0  0  0  0  0  0
   -0.3372    1.4317   -0.6664 N   0  0  0  0  0  0  0  0  0  0  0  0
    0.6438    2.0420    0.2594 C   0  0  0  0  0  0  0  0  0  0  0  0
    2.0921    1.4714    0.2127 C   0  0  0  0  0  0  0  0  0  0  0  0
    2.2418    0.2748   -0.6321 N   0  0  0  0  0  0  0  0  0  0  0  0
    3.6257   -0.2121   -0.7185 C   0  0  0  0  0  0  0  0  0  0  0  0
    4.1706   -0.7695    0.6096 C   0  0  0  0  0  0  0  0  0  0  0  0
    5.4075   -1.4664    0.4195 O   0  0  0  0  0  0  0  0  0  0  0  0
    6.5389   -0.5891    0.3731 C   0  0  0  0  0  0  0  0  0  0  0  0
    7.7908   -1.4413    0.1920 C   0  0  0  0  0  0  0  0  0  0  0  0
    7.7075   -2.1601   -1.0388 O   0  0  0  0  0  0  0  0  0  0  0  0
    1.6778    0.5138   -1.9728 C   0  0  0  0  0  0  0  0  0  0  0  0
    0.3240    1.2751   -1.9785 C   0  0  0  0  0  0  0  0  0  0  0  0
   -3.1868    0.0252    0.5329 N   0  0  0  0  0  0  0  0  0  0  0  0
   -3.5715   -1.3463    0.3101 C   0  0  0  0  0  0  0  0  0  0  0  0
   -2.6707   -2.3830    0.6525 C   0  0  0  0  0  0  0  0  0  0  0  0
   -2.9738   -3.7327    0.4494 C   0  0  0  0  0  0  0  0  0  0  0  0
   -4.1987   -4.0887   -0.0902 C   0  0  0  0  0  0  0  0  0  0  0  0
   -5.1138   -3.0918   -0.4137 C   0  0  0  0  0  0  0  0  0  0  0  0
   -4.8148   -1.7293   -0.2108 C   0  0  0  0  0  0  0  0  0  0  0  0
   -6.0869   -0.5921   -0.6667 S   0  0  0  0  0  0  0  0  0  0  0  0
   -5.4672    0.9195    0.0097 C   0  0  0  0  0  0  0  0  0  0  0  0
   -6.3688    2.0024   -0.0115 C   0  0  0  0  0  0  0  0  0  0  0  0
   -5.9860    3.2662    0.4263 C   0  0  0  0  0  0  0  0  0  0  0  0
   -4.6906    3.4562    0.8762 C   0  0  0  0  0  0  0  0  0  0  0  0
   -4.1920    5.0168    1.4022 Cl  0  0  0  0  0  0  0  0  0  0  0  0
   -3.7885    2.3908    0.9000 C   0  0  0  0  0  0  0  0  0  0  0  0
   -4.1580    1.0897    0.4882 C   0  0  0  0  0  0  0  0  0  0  0  0
   -0.0357   -0.5286    0.2208 H   0  0  0  0  0  0  0  0  0  0  0  0
   -1.2965   -0.4173   -1.0017 H   0  0  0  0  0  0  0  0  0  0  0  0
    0.7013    3.1097    0.0076 H   0  0  0  0  0  0  0  0  0  0  0  0
    0.2789    2.0231    1.2908 H   0  0  0  0  0  0  0  0  0  0  0  0
    2.7651    2.2626   -0.1412 H   0  0  0  0  0  0  0  0  0  0  0  0
    2.3820    1.2355    1.2421 H   0  0  0  0  0  0  0  0  0  0  0  0
    3.6786   -1.0266   -1.4535 H   0  0  0  0  0  0  0  0  0  0  0  0
    4.2899    0.5735   -1.0988 H   0  0  0  0  0  0  0  0  0  0  0  0
    4.2944    0.0116    1.3671 H   0  0  0  0  0  0  0  0  0  0  0  0
    3.4607   -1.5044    1.0095 H   0  0  0  0  0  0  0  0  0  0  0  0
    6.6069   -0.0190    1.3053 H   0  0  0  0  0  0  0  0  0  0  0  0
    6.4316    0.0943   -0.4748 H   0  0  0  0  0  0  0  0  0  0  0  0
    8.6867   -0.8142    0.1671 H   0  0  0  0  0  0  0  0  0  0  0  0
    7.8872   -2.1754    0.9980 H   0  0  0  0  0  0  0  0  0  0  0  0
    6.8338   -2.5969   -1.0196 H   0  0  0  0  0  0  0  0  0  0  0  0
    2.3872    1.0741   -2.5967 H   0  0  0  0  0  0  0  0  0  0  0  0
    1.5231   -0.4610   -2.4524 H   0  0  0  0  0  0  0  0  0  0  0  0
   -0.3617    0.8055   -2.6947 H   0  0  0  0  0  0  0  0  0  0  0  0
    0.5032    2.2834   -2.3771 H   0  0  0  0  0  0  0  0  0  0  0  0
   -1.7095   -2.1721    1.1159 H   0  0  0  0  0  0  0  0  0  0  0  0
   -2.2544   -4.5003    0.7254 H   0  0  0  0  0  0  0  0  0  0  0  0
   -4.4471   -5.1344   -0.2506 H   0  0  0  0  0  0  0  0  0  0  0  0
   -6.0765   -3.3869   -0.8289 H   0  0  0  0  0  0  0  0  0  0  0  0
   -7.3835    1.8668   -0.3844 H   0  0  0  0  0  0  0  0  0  0  0  0
   -6.6936    4.0893    0.3999 H   0  0  0  0  0  0  0  0  0  0  0  0
   -2.7845    2.6053    1.2581 H   0  0  0  0  0  0  0  0  0  0  0  0
  1  2  2  0
  2  3  1  0
  3  4  1  0
  4  5  1  0
  5  6  1  0
  6  7  1  0
  7  8  1  0
  8  9  1  0
  9 10  1  0
 10 11  1  0
 11 12  1  0
 12 13  1  0
  7 14  1  0
 14 15  1  0
  2 16  1  0
 16 17  1  0
 17 18  2  0
 18 19  1  0
 19 20  2  0
 20 21  1  0
 21 22  2  0
 22 23  1  0
 23 24  1  0
 24 25  2  0
 25 26  1  0
 26 27  2  0
 27 28  1  0
 27 29  1  0
 29 30  2  0
 15  4  1  0
 30 16  1  0
 22 17  1  0
 30 24  1  0
  3 31  1  0
  3 32  1  0
  5 33  1  0
  5 34  1  0
  6 35  1  0
  6 36  1  0
  8 37  1  0
  8 38  1  0
  9 39  1  0
  9 40  1  0
 11 41  1  0
 11 42  1  0
 12 43  1  0
 12 44  1  0
 13 45  1  0
 14 46  1  0
 14 47  1  0
 15 48  1  0
 15 49  1  0
 18 50  1  0
 19 51  1  0
 20 52  1  0
 21 53  1  0
 25 54  1  0
 26 55  1  0
 29 56  1  0
M  END
$$$$
