
     RDKit          3D

 43 44  0  0  0  0  0  0  0  0999 V2000
    7.6076   -0.7313    0.9208 C   0  0  0  0  0  0  0  0  0  0  0  0
    6.5193   -0.2491    0.1314 O   0  0  0  0  0  0  0  0  0  0  0  0
    5.3232   -0.2719    0.7716 C   0  0  0  0  0  0  0  0  0  0  0  0
    5.1335   -0.6627    1.9125 O   0  0  0  0  0  0  0  0  0  0  0  0
    4.2446    0.2468   -0.1125 C   0  0  0  0  0  0  0  0  0  0  0  0
    4.4891    0.6778   -1.4229 C   0  0  0  0  0  0  0  0  0  0  0  0
    3.4422    1.1665   -2.2108 C   0  0  0  0  0  0  0  0  0  0  0  0
    2.1345    1.1979   -1.7180 C   0  0  0  0  0  0  0  0  0  0  0  0
    1.1270    1.8197   -2.4774 N   0  0  0  0  0  0  0  0  0  0  0  0
    1.8930    0.7889   -0.3858 C   0  0  0  0  0  0  0  0  0  0  0  0
    0.5989    0.8609    0.1650 N   0  0  0  0  0  0  0  0  0  0  0  0
   -0.1828   -0.1307   -0.1218 C   0  0  0  0  0  0  0  0  0  0  0  0
   -1.6203   -0.1067    0.3143 C   0  0  0  0  0  0  0  0  0  0  0  0
   -2.0656   -1.4298    0.8826 C   0  0  0  0  0  0  0  0  0  0  0  0
   -1.2837   -2.1936    1.4491 O   0  0  0  0  0  0  0  0  0  0  0  0
   -3.5207   -1.8210    0.7067 C   0  0  0  0  0  0  0  0  0  0  0  0
   -4.4671   -0.6120    0.5837 C   0  0  0  0  0  0  0  0  0  0  0  0
   -4.5511    0.1537    1.9196 C   0  0  0  0  0  0  0  0  0  0  0  0
   -5.8843   -1.1345    0.2669 C   0  0  0  0  0  0  0  0  0  0  0  0
   -4.0175    0.3248   -0.5598 C   0  0  0  0  0  0  0  0  0  0  0  0
   -2.5221    0.3158   -0.8179 C   0  0  0  0  0  0  0  0  0  0  0  0
   -2.0794    0.6857   -1.9076 O   0  0  0  0  0  0  0  0  0  0  0  0
    2.9446    0.3126    0.4025 C   0  0  0  0  0  0  0  0  0  0  0  0
    7.7408   -0.1090    1.8113 H   0  0  0  0  0  0  0  0  0  0  0  0
    7.4460   -1.7777    1.1984 H   0  0  0  0  0  0  0  0  0  0  0  0
    8.5170   -0.6702    0.3168 H   0  0  0  0  0  0  0  0  0  0  0  0
    5.4927    0.6589   -1.8406 H   0  0  0  0  0  0  0  0  0  0  0  0
    3.6571    1.5370   -3.2098 H   0  0  0  0  0  0  0  0  0  0  0  0
    0.1879    1.6277   -2.1267 H   0  0  0  0  0  0  0  0  0  0  0  0
    1.2078    1.6983   -3.4795 H   0  0  0  0  0  0  0  0  0  0  0  0
    0.1450   -0.9868   -0.7419 H   0  0  0  0  0  0  0  0  0  0  0  0
   -1.7130    0.6511    1.1001 H   0  0  0  0  0  0  0  0  0  0  0  0
   -3.8112   -2.4461    1.5597 H   0  0  0  0  0  0  0  0  0  0  0  0
   -3.5750   -2.4415   -0.1965 H   0  0  0  0  0  0  0  0  0  0  0  0
   -4.8784   -0.5073    2.7305 H   0  0  0  0  0  0  0  0  0  0  0  0
   -3.5935    0.5863    2.2187 H   0  0  0  0  0  0  0  0  0  0  0  0
   -5.2728    0.9763    1.8553 H   0  0  0  0  0  0  0  0  0  0  0  0
   -6.5942   -0.3072    0.1540 H   0  0  0  0  0  0  0  0  0  0  0  0
   -5.8966   -1.7134   -0.6637 H   0  0  0  0  0  0  0  0  0  0  0  0
   -6.2543   -1.7868    1.0662 H   0  0  0  0  0  0  0  0  0  0  0  0
   -4.4855    0.0118   -1.5021 H   0  0  0  0  0  0  0  0  0  0  0  0
   -4.3244    1.3589   -0.3672 H   0  0  0  0  0  0  0  0  0  0  0  0
    2.7414    0.0024    1.4252 H   0  0  0  0  0  0  0  0  0  0  0  0
  1  2  1  0
  2  3  1  0
  3  4  2  0
  3  5  1  0
  5  6  2  0
  6  7  1  0
  7  8  2  0
  8  9  1  0
  8 10  1  0
 10 11  1  0
 11 12  2  3
 12 13  1  0
 13 14  1  0
 14 15  2  0
 14 16  1  0
 16 17  1  0
 17 18  1  0
 17 19  1  0
 17 20  1  0
 20 21  1  0
 21 22  2  0
 10 23  2  0
 23  5  1  0
 21 13  1  0
  1 24  1  0
  1 25  1  0
  1 26  1  0
  6 27  1  0
  7 28  1  0
  9 29  1  0
  9 30  1  0
 12 31  1  0
 13 32  1  0
 16 33  1  0
 16 34  1  0
 18 35  1  0
 18 36  1  0
 18 37  1  0
 19 38  1  0
 19 39  1  0
 19 40  1  0
 20 41  1  0
 20 42  1  0
 23 43  1  0
M  END
$$$$
