
     RDKit          3D

 46 49  0  0  0  0  0  0  0  0999 V2000
    0.1351   -4.9655   -0.5680 C   0  0  0  0  0  0  0  0  0  0  0  0
   -0.6168   -3.7670   -0.7514 O   0  0  0  0  0  0  0  0  0  0  0  0
   -0.0865   -2.6699   -0.1293 C   0  0  0  0  0  0  0  0  0  0  0  0
    0.9380   -2.6995    0.5444 O   0  0  0  0  0  0  0  0  0  0  0  0
   -0.8908   -1.4664   -0.3239 C   0  0  0  0  0  0  0  0  0  0  0  0
   -2.1806   -1.4889   -0.7190 N   0  0  0  0  0  0  0  0  0  0  0  0
   -2.5258   -0.1760   -0.7070 N   0  0  0  0  0  0  0  0  0  0  0  0
   -3.8314    0.2614   -1.0512 C   0  0  0  0  0  0  0  0  0  0  0  0
   -4.1475    1.6277   -1.0179 C   0  0  0  0  0  0  0  0  0  0  0  0
   -5.4340    2.0531   -1.3552 C   0  0  0  0  0  0  0  0  0  0  0  0
   -6.4046    1.1224   -1.7252 C   0  0  0  0  0  0  0  0  0  0  0  0
   -6.0940   -0.2369   -1.7602 C   0  0  0  0  0  0  0  0  0  0  0  0
   -4.8101   -0.6714   -1.4246 C   0  0  0  0  0  0  0  0  0  0  0  0
   -1.5536    0.6932   -0.3313 N   0  0  0  0  0  0  0  0  0  0  0  0
   -0.5198   -0.1248   -0.1033 C   0  0  0  0  0  0  0  0  0  0  0  0
    0.8077    0.3532    0.2612 C   0  0  0  0  0  0  0  0  0  0  0  0
    1.9010    0.0627   -0.4521 N   0  0  0  0  0  0  0  0  0  0  0  0
    2.8597    0.7707    0.1974 N   0  0  0  0  0  0  0  0  0  0  0  0
    4.2182    0.7498   -0.2138 C   0  0  0  0  0  0  0  0  0  0  0  0
    4.6099   -0.0312   -1.3111 C   0  0  0  0  0  0  0  0  0  0  0  0
    5.9475   -0.0483   -1.7117 C   0  0  0  0  0  0  0  0  0  0  0  0
    6.8943    0.7096   -1.0228 C   0  0  0  0  0  0  0  0  0  0  0  0
    6.5090    1.4871    0.0691 C   0  0  0  0  0  0  0  0  0  0  0  0
    5.1736    1.5099    0.4767 C   0  0  0  0  0  0  0  0  0  0  0  0
    2.4410    1.5090    1.2561 N   0  0  0  0  0  0  0  0  0  0  0  0
    1.1220    1.2339    1.3175 C   0  0  0  0  0  0  0  0  0  0  0  0
    0.2567    1.7948    2.3533 C   0  0  0  0  0  0  0  0  0  0  0  0
    0.5132    2.8187    2.9790 O   0  0  0  0  0  0  0  0  0  0  0  0
   -0.8526    1.0289    2.5863 O   0  0  0  0  0  0  0  0  0  0  0  0
   -1.7243    1.5517    3.5887 C   0  0  0  0  0  0  0  0  0  0  0  0
   -0.3702   -5.7691   -1.1108 H   0  0  0  0  0  0  0  0  0  0  0  0
    1.1438   -4.8528   -0.9777 H   0  0  0  0  0  0  0  0  0  0  0  0
    0.1740   -5.2354    0.4919 H   0  0  0  0  0  0  0  0  0  0  0  0
   -3.4055    2.3716   -0.7344 H   0  0  0  0  0  0  0  0  0  0  0  0
   -5.6789    3.1123   -1.3309 H   0  0  0  0  0  0  0  0  0  0  0  0
   -7.4051    1.4572   -1.9883 H   0  0  0  0  0  0  0  0  0  0  0  0
   -6.8525   -0.9599   -2.0504 H   0  0  0  0  0  0  0  0  0  0  0  0
   -4.5890   -1.7366   -1.4599 H   0  0  0  0  0  0  0  0  0  0  0  0
    3.8878   -0.6313   -1.8611 H   0  0  0  0  0  0  0  0  0  0  0  0
    6.2512   -0.6540   -2.5620 H   0  0  0  0  0  0  0  0  0  0  0  0
    7.9350    0.6941   -1.3372 H   0  0  0  0  0  0  0  0  0  0  0  0
    7.2488    2.0771    0.6045 H   0  0  0  0  0  0  0  0  0  0  0  0
    4.8940    2.1240    1.3310 H   0  0  0  0  0  0  0  0  0  0  0  0
   -2.5832    0.8802    3.6729 H   0  0  0  0  0  0  0  0  0  0  0  0
   -2.0885    2.5434    3.3028 H   0  0  0  0  0  0  0  0  0  0  0  0
   -1.2162    1.5872    4.5574 H   0  0  0  0  0  0  0  0  0  0  0  0
  1  2  1  0
  2  3  1  0
  3  4  2  0
  3  5  1  0
  5  6  2  0
  6  7  1  0
  7  8  1  0
  8  9  2  0
  9 10  1  0
 10 11  2  0
 11 12  1  0
 12 13  2  0
  7 14  1  0
 14 15  2  0
 15 16  1  0
 16 17  2  0
 17 18  1  0
 18 19  1  0
 19 20  2  0
 20 21  1  0
 21 22  2  0
 22 23  1  0
 23 24  2  0
 18 25  1  0
 25 26  2  0
 26 27  1  0
 27 28  2  0
 27 29  1  0
 29 30  1  0
 15  5  1  0
 26 16  1  0
 13  8  1  0
 24 19  1  0
  1 31  1  0
  1 32  1  0
  1 33  1  0
  9 34  1  0
 10 35  1  0
 11 36  1  0
 12 37  1  0
 13 38  1  0
 20 39  1  0
 21 40  1  0
 22 41  1  0
 23 42  1  0
 24 43  1  0
 30 44  1  0
 30 45  1  0
 30 46  1  0
M  END
$$$$
