
     RDKit          3D

 36 37  0  0  0  0  0  0  0  0999 V2000
   -3.0611    0.0790    1.9582 C   0  0  0  0  0  0  0  0  0  0  0  0
   -2.1453   -0.4520    0.8573 C   0  0  0  0  0  0  0  0  0  0  0  0
   -2.9545   -0.9256   -0.3545 C   0  0  0  0  0  0  0  0  0  0  0  0
   -2.0456   -1.5329   -1.4413 C   0  0  0  0  0  0  0  0  0  0  0  0
   -2.5901   -1.2063   -2.8337 C   0  0  0  0  0  0  0  0  0  0  0  0
   -0.5786   -1.0947   -1.2954 C   0  0  0  0  0  0  0  0  0  0  0  0
   -0.5307    0.3207   -0.8915 N   0  0  0  0  0  0  0  0  0  0  0  0
    0.8205    1.2404   -1.3371 S   0  0  0  0  0  6  0  0  0  0  0  0
    1.2110    0.8942   -2.6856 O   0  0  0  0  0  0  0  0  0  0  0  0
    0.5644    2.6135   -0.9541 O   0  0  0  0  0  0  0  0  0  0  0  0
    2.1929    0.7669   -0.2990 C   0  0  0  0  0  0  0  0  0  0  0  0
    2.8324    1.4250    0.7356 C   0  0  0  0  0  0  0  0  0  0  0  0
    3.9135    0.6684    1.3166 C   0  0  0  0  0  0  0  0  0  0  0  0
    4.7575    1.1077    2.4136 C   0  0  0  0  0  0  0  0  0  0  0  0
    5.6796    0.4903    2.9227 O   0  0  0  0  0  0  0  0  0  0  0  0
    4.4395    2.3347    2.8857 O   0  0  0  0  0  0  0  0  0  0  0  0
    4.0240   -0.5412    0.6663 C   0  0  0  0  0  0  0  0  0  0  0  0
    5.1357   -1.8255    0.9571 Cl  0  0  0  0  0  0  0  0  0  0  0  0
    2.8946   -0.7625   -0.5806 S   0  0  0  0  0  0  0  0  0  0  0  0
   -1.1275    0.6205    0.4324 C   0  0  0  0  0  0  0  0  0  0  0  0
   -2.4762    0.4046    2.8249 H   0  0  0  0  0  0  0  0  0  0  0  0
   -3.7546   -0.6991    2.2942 H   0  0  0  0  0  0  0  0  0  0  0  0
   -3.6537    0.9312    1.6087 H   0  0  0  0  0  0  0  0  0  0  0  0
   -1.6007   -1.3132    1.2674 H   0  0  0  0  0  0  0  0  0  0  0  0
   -3.5222   -0.0771   -0.7594 H   0  0  0  0  0  0  0  0  0  0  0  0
   -3.6974   -1.6729   -0.0493 H   0  0  0  0  0  0  0  0  0  0  0  0
   -2.0675   -2.6259   -1.3374 H   0  0  0  0  0  0  0  0  0  0  0  0
   -2.5675   -0.1288   -3.0290 H   0  0  0  0  0  0  0  0  0  0  0  0
   -1.9969   -1.7024   -3.6091 H   0  0  0  0  0  0  0  0  0  0  0  0
   -3.6252   -1.5494   -2.9350 H   0  0  0  0  0  0  0  0  0  0  0  0
   -0.0472   -1.2660   -2.2368 H   0  0  0  0  0  0  0  0  0  0  0  0
   -0.0851   -1.7058   -0.5304 H   0  0  0  0  0  0  0  0  0  0  0  0
    2.5378    2.4182    1.0605 H   0  0  0  0  0  0  0  0  0  0  0  0
    5.0968    2.4765    3.5988 H   0  0  0  0  0  0  0  0  0  0  0  0
   -1.6252    1.5951    0.3595 H   0  0  0  0  0  0  0  0  0  0  0  0
   -0.3478    0.6942    1.1984 H   0  0  0  0  0  0  0  0  0  0  0  0
  1  2  1  0
  2  3  1  0
  3  4  1  0
  4  5  1  0
  4  6  1  0
  6  7  1  0
  7  8  1  0
  8  9  2  0
  8 10  2  0
  8 11  1  0
 11 12  2  0
 12 13  1  0
 13 14  1  0
 14 15  2  0
 14 16  1  0
 13 17  2  0
 17 18  1  0
 17 19  1  0
  7 20  1  0
 20  2  1  0
 19 11  1  0
  1 21  1  0
  1 22  1  0
  1 23  1  0
  2 24  1  0
  3 25  1  0
  3 26  1  0
  4 27  1  0
  5 28  1  0
  5 29  1  0
  5 30  1  0
  6 31  1  0
  6 32  1  0
 12 33  1  0
 16 34  1  0
 20 35  1  0
 20 36  1  0
M  END
$$$$
