
     RDKit          3D

 43 45  0  0  0  0  0  0  0  0999 V2000
   -7.2208    1.6713    2.8506 C   0  0  0  0  0  0  0  0  0  0  0  0
   -6.2785    1.0596    1.8271 C   0  0  0  0  0  0  0  0  0  0  0  0
   -4.8495    0.9841    2.3577 C   0  0  0  0  0  0  0  0  0  0  0  0
   -3.9475    0.3558    1.3393 C   0  0  0  0  0  0  0  0  0  0  0  0
   -3.7913   -0.9242    1.2133 N   0  0  0  0  0  0  0  0  0  0  0  0
   -2.9143   -1.1622    0.1795 N   0  0  0  0  0  0  0  0  0  0  0  0
   -2.5541   -2.4372   -0.1942 C   0  0  0  0  0  0  0  0  0  0  0  0
   -2.9344   -3.4907    0.3059 O   0  0  0  0  0  0  0  0  0  0  0  0
   -1.6022   -2.4745   -1.3287 C   0  0  0  0  0  0  0  0  0  0  0  0
   -1.1750   -1.3263   -1.8826 C   0  0  0  0  0  0  0  0  0  0  0  0
   -0.2131   -1.3497   -3.0522 C   0  0  0  0  0  0  0  0  0  0  0  0
    1.3788   -0.5538   -2.6545 S   0  0  0  0  0  0  0  0  0  0  0  0
    1.9856   -1.7108   -1.3784 C   0  0  0  0  0  0  0  0  0  0  0  0
    3.4055   -1.3999   -0.9092 C   0  0  0  0  0  0  0  0  0  0  0  0
    4.0836   -2.2899   -0.3994 O   0  0  0  0  0  0  0  0  0  0  0  0
    3.7785   -0.0775   -1.0508 N   0  0  0  0  0  0  0  0  0  0  0  0
    4.9852    0.5364   -0.6693 C   0  0  0  0  0  0  0  0  0  0  0  0
    6.0199   -0.1235    0.0001 C   0  0  0  0  0  0  0  0  0  0  0  0
    7.1885    0.5626    0.3465 C   0  0  0  0  0  0  0  0  0  0  0  0
    7.3196    1.9066    0.0239 C   0  0  0  0  0  0  0  0  0  0  0  0
    8.4393    2.5616    0.3566 F   0  0  0  0  0  0  0  0  0  0  0  0
    6.3032    2.5803   -0.6392 C   0  0  0  0  0  0  0  0  0  0  0  0
    5.1359    1.8951   -0.9849 C   0  0  0  0  0  0  0  0  0  0  0  0
   -1.5930   -0.0789   -1.4616 N   0  0  0  0  0  0  0  0  0  0  0  0
   -2.4203   -0.0646   -0.4720 C   0  0  0  0  0  0  0  0  0  0  0  0
   -3.0714    1.3811    0.2279 S   0  0  0  0  0  0  0  0  0  0  0  0
   -6.9132    2.6902    3.1069 H   0  0  0  0  0  0  0  0  0  0  0  0
   -8.2387    1.7142    2.4508 H   0  0  0  0  0  0  0  0  0  0  0  0
   -7.2415    1.0768    3.7697 H   0  0  0  0  0  0  0  0  0  0  0  0
   -6.6333    0.0563    1.5618 H   0  0  0  0  0  0  0  0  0  0  0  0
   -6.3076    1.6556    0.9072 H   0  0  0  0  0  0  0  0  0  0  0  0
   -4.4823    1.9828    2.6191 H   0  0  0  0  0  0  0  0  0  0  0  0
   -4.8180    0.3731    3.2674 H   0  0  0  0  0  0  0  0  0  0  0  0
   -1.2903   -3.4566   -1.6610 H   0  0  0  0  0  0  0  0  0  0  0  0
   -0.6593   -0.8078   -3.8935 H   0  0  0  0  0  0  0  0  0  0  0  0
   -0.0158   -2.3689   -3.4021 H   0  0  0  0  0  0  0  0  0  0  0  0
    1.3350   -1.6718   -0.5000 H   0  0  0  0  0  0  0  0  0  0  0  0
    1.9838   -2.7220   -1.7969 H   0  0  0  0  0  0  0  0  0  0  0  0
    3.1068    0.5012   -1.5494 H   0  0  0  0  0  0  0  0  0  0  0  0
    5.9494   -1.1728    0.2691 H   0  0  0  0  0  0  0  0  0  0  0  0
    7.9933    0.0517    0.8654 H   0  0  0  0  0  0  0  0  0  0  0  0
    6.4241    3.6307   -0.8830 H   0  0  0  0  0  0  0  0  0  0  0  0
    4.3490    2.4363   -1.5047 H   0  0  0  0  0  0  0  0  0  0  0  0
  1  2  1  0
  2  3  1  0
  3  4  1  0
  4  5  2  0
  5  6  1  0
  6  7  1  0
  7  8  2  0
  7  9  1  0
  9 10  2  0
 10 11  1  0
 11 12  1  0
 12 13  1  0
 13 14  1  0
 14 15  2  0
 14 16  1  0
 16 17  1  0
 17 18  2  0
 18 19  1  0
 19 20  2  0
 20 21  1  0
 20 22  1  0
 22 23  2  0
 10 24  1  0
 24 25  2  0
 25 26  1  0
 26  4  1  0
 25  6  1  0
 23 17  1  0
  1 27  1  0
  1 28  1  0
  1 29  1  0
  2 30  1  0
  2 31  1  0
  3 32  1  0
  3 33  1  0
  9 34  1  0
 11 35  1  0
 11 36  1  0
 13 37  1  0
 13 38  1  0
 16 39  1  0
 18 40  1  0
 19 41  1  0
 22 42  1  0
 23 43  1  0
M  END
$$$$
