
     RDKit          3D

 53 54  0  0  0  0  0  0  0  0999 V2000
    0.7212   -0.7460   -2.2736 C   0  0  0  0  0  0  0  0  0  0  0  0
    0.1037    0.6640   -2.1947 C   0  0  0  0  0  0  0  0  0  0  0  0
    0.9425    1.6180   -3.0724 C   0  0  0  0  0  0  0  0  0  0  0  0
    0.0852    1.1825   -0.7346 C   0  0  0  0  0  0  0  0  0  0  0  0
    1.4145    1.2840   -0.1497 N   0  0  0  0  0  0  0  0  0  0  0  0
    1.7507    2.3071    0.7024 C   0  0  0  0  0  0  0  0  0  0  0  0
    1.0288    3.2512    0.9978 O   0  0  0  0  0  0  0  0  0  0  0  0
    3.0819    2.1686    1.3421 C   0  0  0  0  0  0  0  0  0  0  0  0
    4.1589    1.6982    0.6939 C   0  0  0  0  0  0  0  0  0  0  0  0
    5.4982    1.5873    1.2908 C   0  0  0  0  0  0  0  0  0  0  0  0
    6.3463    0.5566    0.8535 C   0  0  0  0  0  0  0  0  0  0  0  0
    7.6349    0.4264    1.3770 C   0  0  0  0  0  0  0  0  0  0  0  0
    8.0824    1.3336    2.3295 C   0  0  0  0  0  0  0  0  0  0  0  0
    9.3173    1.2076    2.8318 F   0  0  0  0  0  0  0  0  0  0  0  0
    7.2685    2.3714    2.7633 C   0  0  0  0  0  0  0  0  0  0  0  0
    5.9790    2.5024    2.2405 C   0  0  0  0  0  0  0  0  0  0  0  0
   -1.3373    0.6470   -2.7702 C   0  0  0  0  0  0  0  0  0  0  0  0
   -2.2106   -0.3419   -2.1634 N   0  0  0  0  0  0  0  0  0  0  0  0
   -3.1054   -0.0166   -1.1733 C   0  0  0  0  0  0  0  0  0  0  0  0
   -3.2253    1.1027   -0.6941 O   0  0  0  0  0  0  0  0  0  0  0  0
   -3.9185   -1.1749   -0.7264 C   0  0  0  0  0  0  0  0  0  0  0  0
   -4.7784   -1.0241    0.2931 C   0  0  0  0  0  0  0  0  0  0  0  0
   -5.6201   -2.1043    0.8221 C   0  0  0  0  0  0  0  0  0  0  0  0
   -5.8406   -2.1702    2.2054 C   0  0  0  0  0  0  0  0  0  0  0  0
   -6.6549   -3.1673    2.7476 C   0  0  0  0  0  0  0  0  0  0  0  0
   -7.2587   -4.0909    1.9050 C   0  0  0  0  0  0  0  0  0  0  0  0
   -8.0400   -5.0465    2.4243 F   0  0  0  0  0  0  0  0  0  0  0  0
   -7.0681   -4.0339    0.5305 C   0  0  0  0  0  0  0  0  0  0  0  0
   -6.2536   -3.0370   -0.0125 C   0  0  0  0  0  0  0  0  0  0  0  0
    0.6284   -1.1592   -3.2847 H   0  0  0  0  0  0  0  0  0  0  0  0
    0.2296   -1.4386   -1.5815 H   0  0  0  0  0  0  0  0  0  0  0  0
    1.7882   -0.7346   -2.0258 H   0  0  0  0  0  0  0  0  0  0  0  0
    0.5529    2.6418   -3.0261 H   0  0  0  0  0  0  0  0  0  0  0  0
    0.9285    1.3027   -4.1224 H   0  0  0  0  0  0  0  0  0  0  0  0
    1.9909    1.6440   -2.7550 H   0  0  0  0  0  0  0  0  0  0  0  0
   -0.4070    2.1611   -0.6879 H   0  0  0  0  0  0  0  0  0  0  0  0
   -0.4770    0.5024   -0.0850 H   0  0  0  0  0  0  0  0  0  0  0  0
    1.9691    0.4401   -0.0994 H   0  0  0  0  0  0  0  0  0  0  0  0
    3.1224    2.5445    2.3578 H   0  0  0  0  0  0  0  0  0  0  0  0
    4.0806    1.3764   -0.3417 H   0  0  0  0  0  0  0  0  0  0  0  0
    6.0093   -0.1608    0.1073 H   0  0  0  0  0  0  0  0  0  0  0  0
    8.2896   -0.3755    1.0487 H   0  0  0  0  0  0  0  0  0  0  0  0
    7.6406    3.0745    3.5018 H   0  0  0  0  0  0  0  0  0  0  0  0
    5.3638    3.3327    2.5792 H   0  0  0  0  0  0  0  0  0  0  0  0
   -1.3106    0.4016   -3.8391 H   0  0  0  0  0  0  0  0  0  0  0  0
   -1.7954    1.6397   -2.6812 H   0  0  0  0  0  0  0  0  0  0  0  0
   -2.1613   -1.2914   -2.5055 H   0  0  0  0  0  0  0  0  0  0  0  0
   -3.7876   -2.1215   -1.2331 H   0  0  0  0  0  0  0  0  0  0  0  0
   -4.8655   -0.0622    0.7980 H   0  0  0  0  0  0  0  0  0  0  0  0
   -5.3741   -1.4487    2.8730 H   0  0  0  0  0  0  0  0  0  0  0  0
   -6.8233   -3.2248    3.8176 H   0  0  0  0  0  0  0  0  0  0  0  0
   -7.5611   -4.7576   -0.1096 H   0  0  0  0  0  0  0  0  0  0  0  0
   -6.1335   -2.9900   -1.0915 H   0  0  0  0  0  0  0  0  0  0  0  0
  1  2  1  0
  2  3  1  0
  2  4  1  0
  4  5  1  0
  5  6  1  0
  6  7  2  0
  6  8  1  0
  8  9  2  3
  9 10  1  0
 10 11  2  0
 11 12  1  0
 12 13  2  0
 13 14  1  0
 13 15  1  0
 15 16  2  0
  2 17  1  0
 17 18  1  0
 18 19  1  0
 19 20  2  0
 19 21  1  0
 21 22  2  3
 22 23  1  0
 23 24  2  0
 24 25  1  0
 25 26  2  0
 26 27  1  0
 26 28  1  0
 28 29  2  0
 16 10  1  0
 29 23  1  0
  1 30  1  0
  1 31  1  0
  1 32  1  0
  3 33  1  0
  3 34  1  0
  3 35  1  0
  4 36  1  0
  4 37  1  0
  5 38  1  0
  8 39  1  0
  9 40  1  0
 11 41  1  0
 12 42  1  0
 15 43  1  0
 16 44  1  0
 17 45  1  0
 17 46  1  0
 18 47  1  0
 21 48  1  0
 22 49  1  0
 24 50  1  0
 25 51  1  0
 28 52  1  0
 29 53  1  0
M  END
$$$$
