
     RDKit          3D

 70 73  0  0  0  0  0  0  0  0999 V2000
   -1.7674    1.9237   -3.1233 C   0  0  0  0  0  0  0  0  0  0  0  0
   -0.7775    2.2219   -2.1348 O   0  0  0  0  0  0  0  0  0  0  0  0
   -1.3534    2.4668   -0.9127 C   0  0  0  0  0  0  0  0  0  0  0  0
   -2.1376    3.6211   -0.7545 C   0  0  0  0  0  0  0  0  0  0  0  0
   -2.7223    3.9265    0.4770 C   0  0  0  0  0  0  0  0  0  0  0  0
   -3.4975    5.0328    0.7146 O   0  0  0  0  0  0  0  0  0  0  0  0
   -3.5973    5.9999   -0.3229 C   0  0  0  0  0  0  0  0  0  0  0  0
   -2.5162    3.0610    1.5631 C   0  0  0  0  0  0  0  0  0  0  0  0
   -3.1055    3.3046    2.8796 C   0  0  0  0  0  0  0  0  0  0  0  0
   -2.8632    2.4769    3.8992 C   0  0  0  0  0  0  0  0  0  0  0  0
   -2.0041    1.2927    3.7569 C   0  0  0  0  0  0  0  0  0  0  0  0
   -1.7849    0.5527    4.7099 O   0  0  0  0  0  0  0  0  0  0  0  0
   -1.4726    1.0677    2.4979 O   0  0  0  0  0  0  0  0  0  0  0  0
   -1.7025    1.9308    1.3928 C   0  0  0  0  0  0  0  0  0  0  0  0
   -1.0871    1.6097    0.1657 C   0  0  0  0  0  0  0  0  0  0  0  0
   -0.1682    0.3888    0.0506 C   0  0  0  0  0  0  0  0  0  0  0  0
    1.2920    0.8215   -0.2618 C   0  0  0  0  0  0  0  0  0  0  0  0
    2.3246   -0.2883    0.0057 C   0  0  0  0  0  0  0  0  0  0  0  0
    2.4402   -0.5537    1.4462 N   0  0  0  0  0  0  0  0  0  0  0  0
    2.5469   -1.9841    1.7592 C   0  0  0  0  0  0  0  0  0  0  0  0
    3.9153   -2.5779    1.4256 C   0  0  0  0  0  0  0  0  0  0  0  0
    5.0267   -1.8057    2.1314 C   0  0  0  0  0  0  0  0  0  0  0  0
    4.9332   -0.3067    1.8129 C   0  0  0  0  0  0  0  0  0  0  0  0
    5.9696    0.4800    2.6173 C   0  0  0  0  0  0  0  0  0  0  0  0
    3.5109    0.2211    2.0935 C   0  0  0  0  0  0  0  0  0  0  0  0
   -0.7537   -0.7132   -0.8359 C   0  0  0  0  0  0  0  0  0  0  0  0
   -1.7927   -1.5079   -0.3432 C   0  0  0  0  0  0  0  0  0  0  0  0
   -2.3368   -2.5533   -1.1077 C   0  0  0  0  0  0  0  0  0  0  0  0
   -1.8670   -2.8697   -2.3924 C   0  0  0  0  0  0  0  0  0  0  0  0
   -2.4039   -3.9216   -3.1522 N   0  0  0  0  0  0  0  0  0  0  0  0
   -1.6294   -4.4168   -4.2890 C   0  0  0  0  0  0  0  0  0  0  0  0
   -3.2060   -4.9323   -2.4604 C   0  0  0  0  0  0  0  0  0  0  0  0
   -0.8528   -2.0330   -2.8858 C   0  0  0  0  0  0  0  0  0  0  0  0
   -0.3049   -0.9835   -2.1298 C   0  0  0  0  0  0  0  0  0  0  0  0
   -2.2548    2.8358   -3.4779 H   0  0  0  0  0  0  0  0  0  0  0  0
   -2.5178    1.2158   -2.7511 H   0  0  0  0  0  0  0  0  0  0  0  0
   -1.2608    1.4649   -3.9781 H   0  0  0  0  0  0  0  0  0  0  0  0
   -2.2619    4.2723   -1.6121 H   0  0  0  0  0  0  0  0  0  0  0  0
   -4.1205    5.5902   -1.1916 H   0  0  0  0  0  0  0  0  0  0  0  0
   -4.1901    6.8362    0.0579 H   0  0  0  0  0  0  0  0  0  0  0  0
   -2.6135    6.3912   -0.6008 H   0  0  0  0  0  0  0  0  0  0  0  0
   -3.7423    4.1738    3.0140 H   0  0  0  0  0  0  0  0  0  0  0  0
   -3.2871    2.6430    4.8821 H   0  0  0  0  0  0  0  0  0  0  0  0
   -0.1112   -0.0759    1.0427 H   0  0  0  0  0  0  0  0  0  0  0  0
    1.3959    1.1473   -1.3023 H   0  0  0  0  0  0  0  0  0  0  0  0
    1.5508    1.7009    0.3436 H   0  0  0  0  0  0  0  0  0  0  0  0
    3.2874    0.0046   -0.4288 H   0  0  0  0  0  0  0  0  0  0  0  0
    2.0218   -1.1902   -0.5402 H   0  0  0  0  0  0  0  0  0  0  0  0
    2.3513   -2.1150    2.8332 H   0  0  0  0  0  0  0  0  0  0  0  0
    1.7542   -2.5493    1.2499 H   0  0  0  0  0  0  0  0  0  0  0  0
    3.9477   -3.6296    1.7312 H   0  0  0  0  0  0  0  0  0  0  0  0
    4.0828   -2.5543    0.3420 H   0  0  0  0  0  0  0  0  0  0  0  0
    6.0022   -2.2046    1.8210 H   0  0  0  0  0  0  0  0  0  0  0  0
    4.9466   -1.9645    3.2159 H   0  0  0  0  0  0  0  0  0  0  0  0
    5.1664   -0.1665    0.7502 H   0  0  0  0  0  0  0  0  0  0  0  0
    5.7838    0.3949    3.6907 H   0  0  0  0  0  0  0  0  0  0  0  0
    6.9770    0.0965    2.4180 H   0  0  0  0  0  0  0  0  0  0  0  0
    5.9499    1.5416    2.3481 H   0  0  0  0  0  0  0  0  0  0  0  0
    3.4446    1.2769    1.8023 H   0  0  0  0  0  0  0  0  0  0  0  0
    3.3284    0.2080    3.1782 H   0  0  0  0  0  0  0  0  0  0  0  0
   -2.1899   -1.3259    0.6532 H   0  0  0  0  0  0  0  0  0  0  0  0
   -3.1466   -3.1146   -0.6515 H   0  0  0  0  0  0  0  0  0  0  0  0
   -0.6426   -4.7682   -3.9688 H   0  0  0  0  0  0  0  0  0  0  0  0
   -2.1364   -5.2563   -4.7793 H   0  0  0  0  0  0  0  0  0  0  0  0
   -1.5135   -3.6470   -5.0591 H   0  0  0  0  0  0  0  0  0  0  0  0
   -4.1193   -4.4949   -2.0444 H   0  0  0  0  0  0  0  0  0  0  0  0
   -3.5365   -5.7147   -3.1512 H   0  0  0  0  0  0  0  0  0  0  0  0
   -2.6317   -5.4178   -1.6633 H   0  0  0  0  0  0  0  0  0  0  0  0
   -0.4485   -2.1739   -3.8828 H   0  0  0  0  0  0  0  0  0  0  0  0
    0.4793   -0.3837   -2.5837 H   0  0  0  0  0  0  0  0  0  0  0  0
  1  2  1  0
  2  3  1  0
  3  4  2  0
  4  5  1  0
  5  6  1  0
  6  7  1  0
  5  8  2  0
  8  9  1  0
  9 10  2  0
 10 11  1  0
 11 12  2  0
 11 13  1  0
 13 14  1  0
 14 15  2  0
 15 16  1  0
 16 17  1  0
 17 18  1  0
 18 19  1  0
 19 20  1  0
 20 21  1  0
 21 22  1  0
 22 23  1  0
 23 24  1  0
 23 25  1  0
 16 26  1  0
 26 27  2  0
 27 28  1  0
 28 29  2  0
 29 30  1  0
 30 31  1  0
 30 32  1  0
 29 33  1  0
 33 34  2  0
 15  3  1  0
 25 19  1  0
 34 26  1  0
 14  8  1  0
  1 35  1  0
  1 36  1  0
  1 37  1  0
  4 38  1  0
  7 39  1  0
  7 40  1  0
  7 41  1  0
  9 42  1  0
 10 43  1  0
 16 44  1  0
 17 45  1  0
 17 46  1  0
 18 47  1  0
 18 48  1  0
 20 49  1  0
 20 50  1  0
 21 51  1  0
 21 52  1  0
 22 53  1  0
 22 54  1  0
 23 55  1  0
 24 56  1  0
 24 57  1  0
 24 58  1  0
 25 59  1  0
 25 60  1  0
 27 61  1  0
 28 62  1  0
 31 63  1  0
 31 64  1  0
 31 65  1  0
 32 66  1  0
 32 67  1  0
 32 68  1  0
 33 69  1  0
 34 70  1  0
M  END
$$$$
