
     RDKit          3D

 52 54  0  0  0  0  0  0  0  0999 V2000
    6.1183   -0.2030   -3.4175 C   0  0  0  0  0  0  0  0  0  0  0  0
    5.8670    1.1144   -2.7074 C   0  0  0  0  0  0  0  0  0  0  0  0
    5.6200    0.8875   -1.3111 O   0  0  0  0  0  0  0  0  0  0  0  0
    4.3434    0.5811   -0.9729 C   0  0  0  0  0  0  0  0  0  0  0  0
    3.4057    0.4821   -1.7540 O   0  0  0  0  0  0  0  0  0  0  0  0
    4.2075    0.3632    0.5012 C   0  0  0  0  0  0  0  0  0  0  0  0
    5.3273    0.5196    1.3401 C   0  0  0  0  0  0  0  0  0  0  0  0
    5.2176    0.3184    2.7147 C   0  0  0  0  0  0  0  0  0  0  0  0
    3.9921   -0.0401    3.2627 C   0  0  0  0  0  0  0  0  0  0  0  0
    2.8713   -0.1983    2.4422 C   0  0  0  0  0  0  0  0  0  0  0  0
    2.9560   -0.0029    1.0578 C   0  0  0  0  0  0  0  0  0  0  0  0
    1.8311   -0.1546    0.2065 N   0  0  0  0  0  0  0  0  0  0  0  0
    0.5372   -0.5239    0.5314 C   0  0  0  0  0  0  0  0  0  0  0  0
    0.1393   -0.8418    1.6462 O   0  0  0  0  0  0  0  0  0  0  0  0
   -0.3763   -0.5462   -0.6925 C   0  0  0  0  0  0  0  0  0  0  0  0
   -0.5624    0.8492   -1.2902 C   0  0  0  0  0  0  0  0  0  0  0  0
   -1.8933    1.3048   -0.7489 C   0  0  0  0  0  0  0  0  0  0  0  0
   -2.3216    2.4446   -0.8328 O   0  0  0  0  0  0  0  0  0  0  0  0
   -2.5382    0.2115   -0.1971 N   0  0  0  0  0  0  0  0  0  0  0  0
   -3.8959    0.2605    0.3450 C   0  0  0  0  0  0  0  0  0  0  0  0
   -3.9250   -0.1048    1.8356 C   0  0  0  0  0  0  0  0  0  0  0  0
   -5.3429   -0.0254    2.3976 C   0  0  0  0  0  0  0  0  0  0  0  0
   -6.3145   -0.8879    1.5961 C   0  0  0  0  0  0  0  0  0  0  0  0
   -6.2855   -0.5380    0.1107 C   0  0  0  0  0  0  0  0  0  0  0  0
   -4.8700   -0.6114   -0.4591 C   0  0  0  0  0  0  0  0  0  0  0  0
   -1.7878   -1.0109   -0.3700 C   0  0  0  0  0  0  0  0  0  0  0  0
    6.3744   -0.0354   -4.4678 H   0  0  0  0  0  0  0  0  0  0  0  0
    5.2351   -0.8485   -3.3727 H   0  0  0  0  0  0  0  0  0  0  0  0
    6.9368   -0.7490   -2.9369 H   0  0  0  0  0  0  0  0  0  0  0  0
    6.7612    1.7433   -2.7751 H   0  0  0  0  0  0  0  0  0  0  0  0
    5.0434    1.6707   -3.1696 H   0  0  0  0  0  0  0  0  0  0  0  0
    6.2974    0.8017    0.9370 H   0  0  0  0  0  0  0  0  0  0  0  0
    6.0869    0.4416    3.3567 H   0  0  0  0  0  0  0  0  0  0  0  0
    3.8991   -0.1967    4.3351 H   0  0  0  0  0  0  0  0  0  0  0  0
    1.9388   -0.4747    2.9247 H   0  0  0  0  0  0  0  0  0  0  0  0
    2.0215    0.0288   -0.7815 H   0  0  0  0  0  0  0  0  0  0  0  0
    0.0903   -1.2289   -1.4142 H   0  0  0  0  0  0  0  0  0  0  0  0
    0.2134    1.5638   -1.0035 H   0  0  0  0  0  0  0  0  0  0  0  0
   -0.6373    0.7999   -2.3814 H   0  0  0  0  0  0  0  0  0  0  0  0
   -4.2389    1.3005    0.2604 H   0  0  0  0  0  0  0  0  0  0  0  0
   -3.2683    0.5695    2.3989 H   0  0  0  0  0  0  0  0  0  0  0  0
   -3.5374   -1.1191    1.9897 H   0  0  0  0  0  0  0  0  0  0  0  0
   -5.3443   -0.3442    3.4455 H   0  0  0  0  0  0  0  0  0  0  0  0
   -5.6819    1.0173    2.3805 H   0  0  0  0  0  0  0  0  0  0  0  0
   -6.0555   -1.9461    1.7258 H   0  0  0  0  0  0  0  0  0  0  0  0
   -7.3304   -0.7565    1.9848 H   0  0  0  0  0  0  0  0  0  0  0  0
   -6.6850    0.4736   -0.0327 H   0  0  0  0  0  0  0  0  0  0  0  0
   -6.9407   -1.2208   -0.4421 H   0  0  0  0  0  0  0  0  0  0  0  0
   -4.5384   -1.6572   -0.4509 H   0  0  0  0  0  0  0  0  0  0  0  0
   -4.8795   -0.2930   -1.5085 H   0  0  0  0  0  0  0  0  0  0  0  0
   -2.2176   -1.5462   -1.2239 H   0  0  0  0  0  0  0  0  0  0  0  0
   -1.8632   -1.6424    0.5178 H   0  0  0  0  0  0  0  0  0  0  0  0
  1  2  1  0
  2  3  1  0
  3  4  1  0
  4  5  2  0
  4  6  1  0
  6  7  2  0
  7  8  1  0
  8  9  2  0
  9 10  1  0
 10 11  2  0
 11 12  1  0
 12 13  1  0
 13 14  2  0
 13 15  1  0
 15 16  1  0
 16 17  1  0
 17 18  2  0
 17 19  1  0
 19 20  1  0
 20 21  1  0
 21 22  1  0
 22 23  1  0
 23 24  1  0
 24 25  1  0
 19 26  1  0
 11  6  1  0
 26 15  1  0
 25 20  1  0
  1 27  1  0
  1 28  1  0
  1 29  1  0
  2 30  1  0
  2 31  1  0
  7 32  1  0
  8 33  1  0
  9 34  1  0
 10 35  1  0
 12 36  1  0
 15 37  1  0
 16 38  1  0
 16 39  1  0
 20 40  1  0
 21 41  1  0
 21 42  1  0
 22 43  1  0
 22 44  1  0
 23 45  1  0
 23 46  1  0
 24 47  1  0
 24 48  1  0
 25 49  1  0
 25 50  1  0
 26 51  1  0
 26 52  1  0
M  END
$$$$
