
     RDKit          3D

 41 44  0  0  0  0  0  0  0  0999 V2000
    0.3421   -1.1702   -4.8084 O   0  0  0  0  0  0  0  0  0  0  0  0
    0.1183   -0.2530   -4.0320 C   0  0  0  0  0  0  0  0  0  0  0  0
   -0.1447    0.9891   -4.5042 O   0  0  0  0  0  0  0  0  0  0  0  0
    0.1750   -0.3305   -2.5143 C   0  0  0  0  0  0  0  0  0  0  0  0
    1.6410   -0.4412   -2.0775 C   0  0  0  0  0  0  0  0  0  0  0  0
    1.7805   -1.0884   -0.7290 C   0  0  0  0  0  0  0  0  0  0  0  0
    1.8708   -2.4477   -0.4875 C   0  0  0  0  0  0  0  0  0  0  0  0
    1.9778   -2.6406    0.8637 N   0  0  0  0  0  0  0  0  0  0  0  0
    1.9467   -1.4317    1.5197 C   0  0  0  0  0  0  0  0  0  0  0  0
    2.0179   -1.1499    2.8898 C   0  0  0  0  0  0  0  0  0  0  0  0
    1.9639    0.1916    3.2798 C   0  0  0  0  0  0  0  0  0  0  0  0
    1.8478    1.2086    2.3346 C   0  0  0  0  0  0  0  0  0  0  0  0
    1.7754    0.9095    0.9683 C   0  0  0  0  0  0  0  0  0  0  0  0
    1.8275   -0.4361    0.5472 C   0  0  0  0  0  0  0  0  0  0  0  0
   -0.4460    0.8865   -1.9124 N   0  0  0  0  0  0  0  0  0  0  0  0
   -2.1067    0.8408   -1.6523 S   0  0  0  0  0  6  0  0  0  0  0  0
   -2.6293    2.1475   -1.9867 O   0  0  0  0  0  0  0  0  0  0  0  0
   -2.6304   -0.3496   -2.2903 O   0  0  0  0  0  0  0  0  0  0  0  0
   -2.1961    0.6200    0.0857 C   0  0  0  0  0  0  0  0  0  0  0  0
   -2.6165   -0.6133    0.6337 C   0  0  0  0  0  0  0  0  0  0  0  0
   -2.7061   -0.8474    2.0253 C   0  0  0  0  0  0  0  0  0  0  0  0
   -2.3912    0.1301    2.9843 C   0  0  0  0  0  0  0  0  0  0  0  0
   -1.9720    1.3896    2.4870 C   0  0  0  0  0  0  0  0  0  0  0  0
   -1.6430    2.4540    3.2373 N   0  0  0  0  0  0  0  0  0  0  0  0
   -1.2432    3.6711    2.1799 S   0  0  0  0  0  0  0  0  0  0  0  0
   -1.4338    2.8940    0.7287 N   0  0  0  0  0  0  0  0  0  0  0  0
   -1.8640    1.6471    0.9993 C   0  0  0  0  0  0  0  0  0  0  0  0
   -0.1661    0.8793   -5.4798 H   0  0  0  0  0  0  0  0  0  0  0  0
   -0.3706   -1.2305   -2.2077 H   0  0  0  0  0  0  0  0  0  0  0  0
    2.2104   -1.0421   -2.7986 H   0  0  0  0  0  0  0  0  0  0  0  0
    2.1173    0.5472   -2.0681 H   0  0  0  0  0  0  0  0  0  0  0  0
    1.8707   -3.2952   -1.1629 H   0  0  0  0  0  0  0  0  0  0  0  0
    2.0668   -3.5388    1.3205 H   0  0  0  0  0  0  0  0  0  0  0  0
    2.1105   -1.9400    3.6292 H   0  0  0  0  0  0  0  0  0  0  0  0
    2.0128    0.4460    4.3369 H   0  0  0  0  0  0  0  0  0  0  0  0
    1.8053    2.2468    2.6614 H   0  0  0  0  0  0  0  0  0  0  0  0
    1.6668    1.7155    0.2453 H   0  0  0  0  0  0  0  0  0  0  0  0
   -0.2067    1.7541   -2.4000 H   0  0  0  0  0  0  0  0  0  0  0  0
   -2.8825   -1.4313   -0.0378 H   0  0  0  0  0  0  0  0  0  0  0  0
   -3.0333   -1.8309    2.3688 H   0  0  0  0  0  0  0  0  0  0  0  0
   -2.4633   -0.0598    4.0493 H   0  0  0  0  0  0  0  0  0  0  0  0
  1  2  2  0
  2  3  1  0
  2  4  1  0
  4  5  1  0
  5  6  1  0
  6  7  2  0
  7  8  1  0
  8  9  1  0
  9 10  2  0
 10 11  1  0
 11 12  2  0
 12 13  1  0
 13 14  2  0
  4 15  1  0
 15 16  1  0
 16 17  2  0
 16 18  2  0
 16 19  1  0
 19 20  2  0
 20 21  1  0
 21 22  2  0
 22 23  1  0
 23 24  2  0
 24 25  1  0
 25 26  1  0
 26 27  2  0
 14  6  1  0
 27 19  1  0
 14  9  1  0
 27 23  1  0
  3 28  1  0
  4 29  1  0
  5 30  1  0
  5 31  1  0
  7 32  1  0
  8 33  1  0
 10 34  1  0
 11 35  1  0
 12 36  1  0
 13 37  1  0
 15 38  1  0
 20 39  1  0
 21 40  1  0
 22 41  1  0
M  END
$$$$
