
     RDKit          3D

 35 37  0  0  0  0  0  0  0  0999 V2000
   -5.6863    0.4548   -0.2570 C   0  0  0  0  0  0  0  0  0  0  0  0
   -4.2573    0.0197   -0.0865 C   0  0  0  0  0  0  0  0  0  0  0  0
   -3.2355    0.9810   -0.1668 C   0  0  0  0  0  0  0  0  0  0  0  0
   -1.8943    0.6402   -0.0555 C   0  0  0  0  0  0  0  0  0  0  0  0
   -0.9535    1.5981   -0.1388 N   0  0  0  0  0  0  0  0  0  0  0  0
    0.3320    1.2116   -0.0410 C   0  0  0  0  0  0  0  0  0  0  0  0
    1.3410    2.1541   -0.1154 C   0  0  0  0  0  0  0  0  0  0  0  0
    2.6893    1.7863   -0.0205 C   0  0  0  0  0  0  0  0  0  0  0  0
    3.0816    0.4513    0.1434 C   0  0  0  0  0  0  0  0  0  0  0  0
    4.4259    0.0804    0.2559 N   0  0  0  0  0  0  0  0  0  0  0  0
    5.4597    1.0147   -0.1891 C   0  0  0  0  0  0  0  0  0  0  0  0
    4.7837   -1.3362    0.1842 C   0  0  0  0  0  0  0  0  0  0  0  0
    2.0328   -0.4822    0.2321 C   0  0  0  0  0  0  0  0  0  0  0  0
    0.6841   -0.1373    0.1394 C   0  0  0  0  0  0  0  0  0  0  0  0
   -0.2603   -1.0946    0.2239 N   0  0  0  0  0  0  0  0  0  0  0  0
   -1.5480   -0.7114    0.1295 C   0  0  0  0  0  0  0  0  0  0  0  0
   -2.5593   -1.6610    0.2127 C   0  0  0  0  0  0  0  0  0  0  0  0
   -3.9157   -1.3158    0.1614 C   0  0  0  0  0  0  0  0  0  0  0  0
   -4.8769   -2.3360    0.1409 N   0  0  0  0  0  0  0  0  0  0  0  0
   -6.1574   -0.0954   -1.0780 H   0  0  0  0  0  0  0  0  0  0  0  0
   -5.7575    1.5215   -0.4952 H   0  0  0  0  0  0  0  0  0  0  0  0
   -6.2467    0.2829    0.6675 H   0  0  0  0  0  0  0  0  0  0  0  0
   -3.4835    2.0273   -0.3339 H   0  0  0  0  0  0  0  0  0  0  0  0
    1.0786    3.2008   -0.2460 H   0  0  0  0  0  0  0  0  0  0  0  0
    3.4208    2.5869   -0.0739 H   0  0  0  0  0  0  0  0  0  0  0  0
    5.3325    1.2671   -1.2477 H   0  0  0  0  0  0  0  0  0  0  0  0
    5.4513    1.9303    0.4116 H   0  0  0  0  0  0  0  0  0  0  0  0
    6.4615    0.5870   -0.0701 H   0  0  0  0  0  0  0  0  0  0  0  0
    5.8635   -1.4794    0.3045 H   0  0  0  0  0  0  0  0  0  0  0  0
    4.4982   -1.7655   -0.7825 H   0  0  0  0  0  0  0  0  0  0  0  0
    4.3146   -1.9052    0.9941 H   0  0  0  0  0  0  0  0  0  0  0  0
    2.2409   -1.5377    0.3797 H   0  0  0  0  0  0  0  0  0  0  0  0
   -2.2699   -2.7027    0.3275 H   0  0  0  0  0  0  0  0  0  0  0  0
   -4.5846   -3.1901    0.6068 H   0  0  0  0  0  0  0  0  0  0  0  0
   -5.8051   -2.0454    0.4300 H   0  0  0  0  0  0  0  0  0  0  0  0
  1  2  1  0
  2  3  2  0
  3  4  1  0
  4  5  2  0
  5  6  1  0
  6  7  2  0
  7  8  1  0
  8  9  2  0
  9 10  1  0
 10 11  1  0
 10 12  1  0
  9 13  1  0
 13 14  2  0
 14 15  1  0
 15 16  2  0
 16 17  1  0
 17 18  2  0
 18 19  1  0
 18  2  1  0
 16  4  1  0
 14  6  1  0
  1 20  1  0
  1 21  1  0
  1 22  1  0
  3 23  1  0
  7 24  1  0
  8 25  1  0
 11 26  1  0
 11 27  1  0
 11 28  1  0
 12 29  1  0
 12 30  1  0
 12 31  1  0
 13 32  1  0
 17 33  1  0
 19 34  1  0
 19 35  1  0
M  END
$$$$
