
     RDKit          3D

 46 47  0  0  0  0  0  0  0  0999 V2000
    6.3749   -3.8712    0.8707 O   0  0  0  0  0  0  0  0  0  0  0  0
    6.1356   -2.7153    1.1816 C   0  0  0  0  0  0  0  0  0  0  0  0
    5.2989   -2.4520    2.2018 O   0  0  0  0  0  0  0  0  0  0  0  0
    6.7810   -1.4974    0.5757 C   0  0  0  0  0  0  0  0  0  0  0  0
    6.0042   -0.2054    0.8047 C   0  0  0  0  0  0  0  0  0  0  0  0
    4.6587   -0.2081    0.0961 C   0  0  0  0  0  0  0  0  0  0  0  0
    4.3505   -1.0845   -0.7024 O   0  0  0  0  0  0  0  0  0  0  0  0
    3.8909    0.8871    0.4576 N   0  0  0  0  0  0  0  0  0  0  0  0
    2.6051    1.2272   -0.0110 C   0  0  0  0  0  0  0  0  0  0  0  0
    1.9142    0.5069   -0.9896 C   0  0  0  0  0  0  0  0  0  0  0  0
    0.6395    0.9096   -1.4017 C   0  0  0  0  0  0  0  0  0  0  0  0
    0.0498    2.0358   -0.8259 C   0  0  0  0  0  0  0  0  0  0  0  0
   -1.5712    2.5287   -1.3499 S   0  0  0  0  0  6  0  0  0  0  0  0
   -1.5783    2.5260   -2.7953 O   0  0  0  0  0  0  0  0  0  0  0  0
   -1.9803    3.6843   -0.5823 O   0  0  0  0  0  0  0  0  0  0  0  0
   -2.5030    1.2234   -0.8593 N   0  0  0  0  0  0  0  0  0  0  0  0
   -2.9855    1.1857    0.5281 C   0  0  0  0  0  0  0  0  0  0  0  0
   -3.3754   -0.2445    0.9173 C   0  0  0  0  0  0  0  0  0  0  0  0
   -4.5389   -0.7864    0.1190 C   0  0  0  0  0  0  0  0  0  0  0  0
   -4.3263   -1.7395   -0.8864 C   0  0  0  0  0  0  0  0  0  0  0  0
   -5.3969   -2.2259   -1.6378 C   0  0  0  0  0  0  0  0  0  0  0  0
   -6.6885   -1.7650   -1.3921 C   0  0  0  0  0  0  0  0  0  0  0  0
   -6.9115   -0.8190   -0.3936 C   0  0  0  0  0  0  0  0  0  0  0  0
   -5.8425   -0.3316    0.3598 C   0  0  0  0  0  0  0  0  0  0  0  0
    0.7274    2.7714    0.1457 C   0  0  0  0  0  0  0  0  0  0  0  0
    2.0027    2.3644    0.5485 C   0  0  0  0  0  0  0  0  0  0  0  0
    4.9746   -3.3413    2.4610 H   0  0  0  0  0  0  0  0  0  0  0  0
    7.7783   -1.4029    1.0187 H   0  0  0  0  0  0  0  0  0  0  0  0
    6.8970   -1.6787   -0.4988 H   0  0  0  0  0  0  0  0  0  0  0  0
    5.8499   -0.0277    1.8753 H   0  0  0  0  0  0  0  0  0  0  0  0
    6.5847    0.6352    0.4063 H   0  0  0  0  0  0  0  0  0  0  0  0
    4.2837    1.5037    1.1580 H   0  0  0  0  0  0  0  0  0  0  0  0
    2.3416   -0.3732   -1.4605 H   0  0  0  0  0  0  0  0  0  0  0  0
    0.1173    0.3425   -2.1693 H   0  0  0  0  0  0  0  0  0  0  0  0
   -3.1422    0.8999   -1.5876 H   0  0  0  0  0  0  0  0  0  0  0  0
   -3.8430    1.8601    0.6271 H   0  0  0  0  0  0  0  0  0  0  0  0
   -2.1971    1.5249    1.2086 H   0  0  0  0  0  0  0  0  0  0  0  0
   -3.6414   -0.2722    1.9816 H   0  0  0  0  0  0  0  0  0  0  0  0
   -2.5078   -0.9073    0.8040 H   0  0  0  0  0  0  0  0  0  0  0  0
   -3.3238   -2.1089   -1.0928 H   0  0  0  0  0  0  0  0  0  0  0  0
   -5.2228   -2.9659   -2.4148 H   0  0  0  0  0  0  0  0  0  0  0  0
   -7.5218   -2.1443   -1.9778 H   0  0  0  0  0  0  0  0  0  0  0  0
   -7.9196   -0.4608   -0.2012 H   0  0  0  0  0  0  0  0  0  0  0  0
   -6.0360    0.4061    1.1357 H   0  0  0  0  0  0  0  0  0  0  0  0
    0.2769    3.6559    0.5906 H   0  0  0  0  0  0  0  0  0  0  0  0
    2.5162    2.9501    1.3072 H   0  0  0  0  0  0  0  0  0  0  0  0
  1  2  2  0
  2  3  1  0
  2  4  1  0
  4  5  1  0
  5  6  1  0
  6  7  2  0
  6  8  1  0
  8  9  1  0
  9 10  2  0
 10 11  1  0
 11 12  2  0
 12 13  1  0
 13 14  2  0
 13 15  2  0
 13 16  1  0
 16 17  1  0
 17 18  1  0
 18 19  1  0
 19 20  2  0
 20 21  1  0
 21 22  2  0
 22 23  1  0
 23 24  2  0
 12 25  1  0
 25 26  2  0
 26  9  1  0
 24 19  1  0
  3 27  1  0
  4 28  1  0
  4 29  1  0
  5 30  1  0
  5 31  1  0
  8 32  1  0
 10 33  1  0
 11 34  1  0
 16 35  1  0
 17 36  1  0
 17 37  1  0
 18 38  1  0
 18 39  1  0
 20 40  1  0
 21 41  1  0
 22 42  1  0
 23 43  1  0
 24 44  1  0
 25 45  1  0
 26 46  1  0
M  END
$$$$
