
     RDKit          3D

 47 48  0  0  0  0  0  0  0  0999 V2000
    7.0295    3.1595    0.7573 C   0  0  0  0  0  0  0  0  0  0  0  0
    6.2859    1.8849    0.4947 C   0  0  0  0  0  0  0  0  0  0  0  0
    5.7041    1.6565   -0.7572 C   0  0  0  0  0  0  0  0  0  0  0  0
    4.9888    0.4803   -1.0024 C   0  0  0  0  0  0  0  0  0  0  0  0
    4.8366   -0.4887    0.0010 C   0  0  0  0  0  0  0  0  0  0  0  0
    4.0877   -1.7675   -0.2708 C   0  0  0  0  0  0  0  0  0  0  0  0
    2.3862   -1.7431    0.3436 S   0  0  0  0  0  0  0  0  0  0  0  0
    1.5183   -1.2337   -1.0699 C   0  0  0  0  0  0  0  0  0  0  0  0
    2.0390   -0.6042   -2.1075 N   0  0  0  0  0  0  0  0  0  0  0  0
    1.0163   -0.3854   -3.0036 N   0  0  0  0  0  0  0  0  0  0  0  0
   -0.0641   -0.9018   -2.4545 C   0  0  0  0  0  0  0  0  0  0  0  0
   -1.4461   -0.9648   -2.9835 C   0  0  0  0  0  0  0  0  0  0  0  0
   -2.3562    0.0718   -2.3244 C   0  0  0  0  0  0  0  0  0  0  0  0
   -2.7583   -0.3166   -0.9888 N   0  0  0  0  0  0  0  0  0  0  0  0
   -4.0186   -0.1214   -0.5116 C   0  0  0  0  0  0  0  0  0  0  0  0
   -4.9644    0.2785   -1.1717 O   0  0  0  0  0  0  0  0  0  0  0  0
   -4.0363   -0.4448    0.8014 O   0  0  0  0  0  0  0  0  0  0  0  0
   -5.2649   -0.3564    1.5695 C   0  0  0  0  0  0  0  0  0  0  0  0
   -4.8750   -0.8046    2.9869 C   0  0  0  0  0  0  0  0  0  0  0  0
   -5.7783    1.0867    1.6371 C   0  0  0  0  0  0  0  0  0  0  0  0
   -6.3308   -1.3184    1.0258 C   0  0  0  0  0  0  0  0  0  0  0  0
    0.1692   -1.4559   -1.2228 O   0  0  0  0  0  0  0  0  0  0  0  0
    5.3995   -0.2448    1.2629 C   0  0  0  0  0  0  0  0  0  0  0  0
    6.1175    0.9293    1.5067 C   0  0  0  0  0  0  0  0  0  0  0  0
    7.6865    3.0596    1.6245 H   0  0  0  0  0  0  0  0  0  0  0  0
    6.3232    3.9727    0.9457 H   0  0  0  0  0  0  0  0  0  0  0  0
    7.6570    3.4228   -0.0992 H   0  0  0  0  0  0  0  0  0  0  0  0
    5.8042    2.3923   -1.5540 H   0  0  0  0  0  0  0  0  0  0  0  0
    4.5513    0.3275   -1.9873 H   0  0  0  0  0  0  0  0  0  0  0  0
    4.6071   -2.5876    0.2418 H   0  0  0  0  0  0  0  0  0  0  0  0
    4.1212   -2.0259   -1.3323 H   0  0  0  0  0  0  0  0  0  0  0  0
   -1.8545   -1.9770   -2.8519 H   0  0  0  0  0  0  0  0  0  0  0  0
   -1.4074   -0.7711   -4.0634 H   0  0  0  0  0  0  0  0  0  0  0  0
   -3.2552    0.2063   -2.9411 H   0  0  0  0  0  0  0  0  0  0  0  0
   -1.8625    1.0501   -2.2434 H   0  0  0  0  0  0  0  0  0  0  0  0
   -2.0619   -0.5099   -0.2812 H   0  0  0  0  0  0  0  0  0  0  0  0
   -4.0968   -0.1520    3.3980 H   0  0  0  0  0  0  0  0  0  0  0  0
   -4.4570   -1.8181    2.9764 H   0  0  0  0  0  0  0  0  0  0  0  0
   -5.7321   -0.7909    3.6689 H   0  0  0  0  0  0  0  0  0  0  0  0
   -6.1576    1.4296    0.6692 H   0  0  0  0  0  0  0  0  0  0  0  0
   -6.5962    1.1860    2.3623 H   0  0  0  0  0  0  0  0  0  0  0  0
   -4.9726    1.7753    1.9218 H   0  0  0  0  0  0  0  0  0  0  0  0
   -5.9138   -2.3225    0.8754 H   0  0  0  0  0  0  0  0  0  0  0  0
   -7.1868   -1.3942    1.7078 H   0  0  0  0  0  0  0  0  0  0  0  0
   -6.7142   -0.9880    0.0537 H   0  0  0  0  0  0  0  0  0  0  0  0
    5.2871   -0.9745    2.0670 H   0  0  0  0  0  0  0  0  0  0  0  0
    6.5453    1.0939    2.4937 H   0  0  0  0  0  0  0  0  0  0  0  0
  1  2  1  0
  2  3  2  0
  3  4  1  0
  4  5  2  0
  5  6  1  0
  6  7  1  0
  7  8  1  0
  8  9  2  0
  9 10  1  0
 10 11  2  0
 11 12  1  0
 12 13  1  0
 13 14  1  0
 14 15  1  0
 15 16  2  0
 15 17  1  0
 17 18  1  0
 18 19  1  0
 18 20  1  0
 18 21  1  0
 11 22  1  0
  5 23  1  0
 23 24  2  0
 24  2  1  0
 22  8  1  0
  1 25  1  0
  1 26  1  0
  1 27  1  0
  3 28  1  0
  4 29  1  0
  6 30  1  0
  6 31  1  0
 12 32  1  0
 12 33  1  0
 13 34  1  0
 13 35  1  0
 14 36  1  0
 19 37  1  0
 19 38  1  0
 19 39  1  0
 20 40  1  0
 20 41  1  0
 20 42  1  0
 21 43  1  0
 21 44  1  0
 21 45  1  0
 23 46  1  0
 24 47  1  0
M  END
$$$$
