
     RDKit          3D

 57 60  0  0  0  0  0  0  0  0999 V2000
   -2.0233   -0.5957    3.4627 O   0  0  0  0  0  0  0  0  0  0  0  0
   -1.2969    0.3459    3.1631 C   0  0  0  0  0  0  0  0  0  0  0  0
    0.1221    0.5013    3.6797 C   0  0  0  0  0  0  0  0  0  0  0  0
    0.7802   -0.8353    4.0264 C   0  0  0  0  0  0  0  0  0  0  0  0
    0.9948   -1.7675    2.8270 C   0  0  0  0  0  0  0  0  0  0  0  0
    1.9768   -1.2137    1.7933 C   0  0  0  0  0  0  0  0  0  0  0  0
    2.1475   -2.1812    0.6173 C   0  0  0  0  0  0  0  0  0  0  0  0
    3.0940   -1.6671   -0.3673 N   0  0  0  0  0  0  0  0  0  0  0  0
    2.6188   -0.7783   -1.3196 C   0  0  0  0  0  0  0  0  0  0  0  0
    1.4540   -0.3856   -1.3799 O   0  0  0  0  0  0  0  0  0  0  0  0
    3.5234   -0.3109   -2.2302 N   0  0  0  0  0  0  0  0  0  0  0  0
    4.8737   -0.6477   -2.2267 C   0  0  0  0  0  0  0  0  0  0  0  0
    5.7258   -0.1285   -3.2017 C   0  0  0  0  0  0  0  0  0  0  0  0
    7.0817   -0.4654   -3.1838 C   0  0  0  0  0  0  0  0  0  0  0  0
    7.5823   -1.3149   -2.1948 C   0  0  0  0  0  0  0  0  0  0  0  0
    6.7271   -1.8310   -1.2200 C   0  0  0  0  0  0  0  0  0  0  0  0
    5.3696   -1.4939   -1.2414 C   0  0  0  0  0  0  0  0  0  0  0  0
    4.4360   -2.0183   -0.2260 C   0  0  0  0  0  0  0  0  0  0  0  0
    4.8738   -2.7177    0.6852 O   0  0  0  0  0  0  0  0  0  0  0  0
   -1.7020    1.3900    2.3593 N   0  0  0  0  0  0  0  0  0  0  0  0
   -3.0055    1.3914    1.7178 C   0  0  0  0  0  0  0  0  0  0  0  0
   -3.0536    0.4801    0.4877 C   0  0  0  0  0  0  0  0  0  0  0  0
   -4.3703    0.5599   -0.2186 C   0  0  0  0  0  0  0  0  0  0  0  0
   -5.4566   -0.2691   -0.0148 C   0  0  0  0  0  0  0  0  0  0  0  0
   -6.4668    0.1326   -0.8456 N   0  0  0  0  0  0  0  0  0  0  0  0
   -6.0668    1.2161   -1.5929 C   0  0  0  0  0  0  0  0  0  0  0  0
   -6.7636    1.9528   -2.5590 C   0  0  0  0  0  0  0  0  0  0  0  0
   -6.0952    3.0194   -3.1683 C   0  0  0  0  0  0  0  0  0  0  0  0
   -4.7826    3.3335   -2.8242 C   0  0  0  0  0  0  0  0  0  0  0  0
   -4.1008    2.5861   -1.8561 C   0  0  0  0  0  0  0  0  0  0  0  0
   -4.7524    1.5057   -1.2248 C   0  0  0  0  0  0  0  0  0  0  0  0
    0.0635    1.1149    4.5871 H   0  0  0  0  0  0  0  0  0  0  0  0
    0.7304    1.0559    2.9581 H   0  0  0  0  0  0  0  0  0  0  0  0
    1.7473   -0.6390    4.5054 H   0  0  0  0  0  0  0  0  0  0  0  0
    0.1666   -1.3618    4.7681 H   0  0  0  0  0  0  0  0  0  0  0  0
    0.0351   -1.9865    2.3448 H   0  0  0  0  0  0  0  0  0  0  0  0
    1.3786   -2.7245    3.2027 H   0  0  0  0  0  0  0  0  0  0  0  0
    1.6243   -0.2492    1.4120 H   0  0  0  0  0  0  0  0  0  0  0  0
    2.9481   -1.0294    2.2688 H   0  0  0  0  0  0  0  0  0  0  0  0
    2.4923   -3.1561    0.9819 H   0  0  0  0  0  0  0  0  0  0  0  0
    1.1794   -2.3448    0.1282 H   0  0  0  0  0  0  0  0  0  0  0  0
    3.1507    0.3221   -2.9261 H   0  0  0  0  0  0  0  0  0  0  0  0
    5.3522    0.5350   -3.9771 H   0  0  0  0  0  0  0  0  0  0  0  0
    7.7510   -0.0646   -3.9421 H   0  0  0  0  0  0  0  0  0  0  0  0
    8.6386   -1.5750   -2.1828 H   0  0  0  0  0  0  0  0  0  0  0  0
    7.1178   -2.4923   -0.4491 H   0  0  0  0  0  0  0  0  0  0  0  0
   -1.0160    2.0622    2.0413 H   0  0  0  0  0  0  0  0  0  0  0  0
   -3.2207    2.4300    1.4412 H   0  0  0  0  0  0  0  0  0  0  0  0
   -3.7576    1.0801    2.4530 H   0  0  0  0  0  0  0  0  0  0  0  0
   -2.8576   -0.5587    0.7825 H   0  0  0  0  0  0  0  0  0  0  0  0
   -2.2474    0.7517   -0.2059 H   0  0  0  0  0  0  0  0  0  0  0  0
   -5.5922   -1.1104    0.6534 H   0  0  0  0  0  0  0  0  0  0  0  0
   -7.3781   -0.2998   -0.9049 H   0  0  0  0  0  0  0  0  0  0  0  0
   -7.7855    1.7092   -2.8303 H   0  0  0  0  0  0  0  0  0  0  0  0
   -6.6086    3.6107   -3.9233 H   0  0  0  0  0  0  0  0  0  0  0  0
   -4.2804    4.1655   -3.3121 H   0  0  0  0  0  0  0  0  0  0  0  0
   -3.0765    2.8377   -1.5987 H   0  0  0  0  0  0  0  0  0  0  0  0
  1  2  2  0
  2  3  1  0
  3  4  1  0
  4  5  1  0
  5  6  1  0
  6  7  1  0
  7  8  1  0
  8  9  1  0
  9 10  2  0
  9 11  1  0
 11 12  1  0
 12 13  2  0
 13 14  1  0
 14 15  2  0
 15 16  1  0
 16 17  2  0
 17 18  1  0
 18 19  2  0
  2 20  1  0
 20 21  1  0
 21 22  1  0
 22 23  1  0
 23 24  2  0
 24 25  1  0
 25 26  1  0
 26 27  2  0
 27 28  1  0
 28 29  2  0
 29 30  1  0
 30 31  2  0
 18  8  1  0
 31 23  1  0
 17 12  1  0
 31 26  1  0
  3 32  1  0
  3 33  1  0
  4 34  1  0
  4 35  1  0
  5 36  1  0
  5 37  1  0
  6 38  1  0
  6 39  1  0
  7 40  1  0
  7 41  1  0
 11 42  1  0
 13 43  1  0
 14 44  1  0
 15 45  1  0
 16 46  1  0
 20 47  1  0
 21 48  1  0
 21 49  1  0
 22 50  1  0
 22 51  1  0
 24 52  1  0
 25 53  1  0
 27 54  1  0
 28 55  1  0
 29 56  1  0
 30 57  1  0
M  END
$$$$
