
     RDKit          3D

 47 50  0  0  0  0  0  0  0  0999 V2000
    7.4535   -1.3916    0.5391 C   0  0  0  0  0  0  0  0  0  0  0  0
    6.5805   -0.3884    0.7012 C   0  0  0  0  0  0  0  0  0  0  0  0
    6.0227    0.4453   -0.4200 C   0  0  0  0  0  0  0  0  0  0  0  0
    4.6352    0.0664   -0.6446 N   0  0  0  0  0  0  0  0  0  0  0  0
    4.3817   -0.8920   -1.6051 C   0  0  0  0  0  0  0  0  0  0  0  0
    5.2423   -1.4073   -2.3173 O   0  0  0  0  0  0  0  0  0  0  0  0
    3.0828   -1.2670   -1.7715 N   0  0  0  0  0  0  0  0  0  0  0  0
    1.9765   -0.7487   -1.1665 C   0  0  0  0  0  0  0  0  0  0  0  0
    0.8625   -1.1303   -1.5012 O   0  0  0  0  0  0  0  0  0  0  0  0
    2.2559    0.2738   -0.1352 C   0  0  0  0  0  0  0  0  0  0  0  0
    1.3038    0.8797    0.6039 C   0  0  0  0  0  0  0  0  0  0  0  0
   -0.1423    0.6540    0.5522 C   0  0  0  0  0  0  0  0  0  0  0  0
   -0.7190   -0.4284    1.2164 C   0  0  0  0  0  0  0  0  0  0  0  0
   -2.1116   -0.6160    1.2012 C   0  0  0  0  0  0  0  0  0  0  0  0
   -2.9489    0.2700    0.4929 C   0  0  0  0  0  0  0  0  0  0  0  0
   -2.3518    1.3515   -0.1855 C   0  0  0  0  0  0  0  0  0  0  0  0
   -0.9612    1.5469   -0.1388 C   0  0  0  0  0  0  0  0  0  0  0  0
   -3.2039    2.3332   -0.9488 C   0  0  0  0  0  0  0  0  0  0  0  0
   -4.5179    1.6960   -1.3769 C   0  0  0  0  0  0  0  0  0  0  0  0
   -5.1951    1.0637   -0.1711 C   0  0  0  0  0  0  0  0  0  0  0  0
   -4.3251    0.0851    0.4686 N   0  0  0  0  0  0  0  0  0  0  0  0
   -4.9142   -1.1240    1.0301 C   0  0  0  0  0  0  0  0  0  0  0  0
   -4.1590   -1.5673    2.2733 C   0  0  0  0  0  0  0  0  0  0  0  0
   -2.6963   -1.8026    1.9247 C   0  0  0  0  0  0  0  0  0  0  0  0
    3.6638    0.6886    0.1248 C   0  0  0  0  0  0  0  0  0  0  0  0
    3.9302    1.5370    0.9773 O   0  0  0  0  0  0  0  0  0  0  0  0
    7.8058   -1.6864   -0.4460 H   0  0  0  0  0  0  0  0  0  0  0  0
    7.8282   -1.9478    1.3934 H   0  0  0  0  0  0  0  0  0  0  0  0
    6.2568   -0.1256    1.7071 H   0  0  0  0  0  0  0  0  0  0  0  0
    6.6079    0.3134   -1.3373 H   0  0  0  0  0  0  0  0  0  0  0  0
    6.0900    1.5055   -0.1495 H   0  0  0  0  0  0  0  0  0  0  0  0
    2.9104   -1.9537   -2.4920 H   0  0  0  0  0  0  0  0  0  0  0  0
    1.5782    1.6363    1.3397 H   0  0  0  0  0  0  0  0  0  0  0  0
   -0.0904   -1.1322    1.7563 H   0  0  0  0  0  0  0  0  0  0  0  0
   -0.5230    2.3971   -0.6559 H   0  0  0  0  0  0  0  0  0  0  0  0
   -3.3952    3.2032   -0.3088 H   0  0  0  0  0  0  0  0  0  0  0  0
   -2.6729    2.6836   -1.8418 H   0  0  0  0  0  0  0  0  0  0  0  0
   -5.1720    2.4507   -1.8278 H   0  0  0  0  0  0  0  0  0  0  0  0
   -4.3298    0.9292   -2.1401 H   0  0  0  0  0  0  0  0  0  0  0  0
   -6.1271    0.5885   -0.4998 H   0  0  0  0  0  0  0  0  0  0  0  0
   -5.4681    1.8341    0.5607 H   0  0  0  0  0  0  0  0  0  0  0  0
   -4.9061   -1.9176    0.2723 H   0  0  0  0  0  0  0  0  0  0  0  0
   -5.9622   -0.9460    1.2999 H   0  0  0  0  0  0  0  0  0  0  0  0
   -4.2376   -0.7934    3.0488 H   0  0  0  0  0  0  0  0  0  0  0  0
   -4.6005   -2.4835    2.6815 H   0  0  0  0  0  0  0  0  0  0  0  0
   -2.5990   -2.6867    1.2825 H   0  0  0  0  0  0  0  0  0  0  0  0
   -2.1389   -1.9963    2.8487 H   0  0  0  0  0  0  0  0  0  0  0  0
  1  2  2  0
  2  3  1  0
  3  4  1  0
  4  5  1  0
  5  6  2  0
  5  7  1  0
  7  8  1  0
  8  9  2  0
  8 10  1  0
 10 11  2  3
 11 12  1  0
 12 13  2  0
 13 14  1  0
 14 15  2  0
 15 16  1  0
 16 17  2  0
 16 18  1  0
 18 19  1  0
 19 20  1  0
 20 21  1  0
 21 22  1  0
 22 23  1  0
 23 24  1  0
 10 25  1  0
 25 26  2  0
 25  4  1  0
 17 12  1  0
 24 14  1  0
 21 15  1  0
  1 27  1  0
  1 28  1  0
  2 29  1  0
  3 30  1  0
  3 31  1  0
  7 32  1  0
 11 33  1  0
 13 34  1  0
 17 35  1  0
 18 36  1  0
 18 37  1  0
 19 38  1  0
 19 39  1  0
 20 40  1  0
 20 41  1  0
 22 42  1  0
 22 43  1  0
 23 44  1  0
 23 45  1  0
 24 46  1  0
 24 47  1  0
M  END
$$$$
