
     RDKit          3D

 60 64  0  0  0  0  0  0  0  0999 V2000
    3.1818    1.3841   -1.5086 O   0  0  0  0  0  0  0  0  0  0  0  0
    2.9051    0.5717   -0.6356 C   0  0  0  0  0  0  0  0  0  0  0  0
    3.7825   -0.1335    0.1649 N   0  0  0  0  0  0  0  0  0  0  0  0
    5.1877   -0.0120    0.2020 C   0  0  0  0  0  0  0  0  0  0  0  0
    5.9075    0.9475   -0.5133 C   0  0  0  0  0  0  0  0  0  0  0  0
    7.3046    1.0065   -0.4208 C   0  0  0  0  0  0  0  0  0  0  0  0
    7.9954    0.1013    0.3886 C   0  0  0  0  0  0  0  0  0  0  0  0
    9.4767    0.1424    0.4905 C   0  0  0  0  0  0  0  0  0  0  0  0
   10.1177   -0.5552    1.3967 N   0  0  0  0  0  0  0  0  0  0  0  0
   11.5540   -0.2382    1.1705 C   0  0  0  0  0  0  0  0  0  0  0  0
   11.6307    0.4642   -0.1850 C   0  0  0  0  0  0  0  0  0  0  0  0
   10.2591    0.8838   -0.3665 N   0  0  0  0  0  0  0  0  0  0  0  0
    7.2792   -0.8515    1.1172 C   0  0  0  0  0  0  0  0  0  0  0  0
    5.8849   -0.9067    1.0238 C   0  0  0  0  0  0  0  0  0  0  0  0
    1.4656    0.2594   -0.4205 C   0  0  0  0  0  0  0  0  0  0  0  0
    0.9472    0.0118    0.8570 C   0  0  0  0  0  0  0  0  0  0  0  0
   -0.4152   -0.2708    1.0186 C   0  0  0  0  0  0  0  0  0  0  0  0
   -1.2860   -0.2888   -0.0849 C   0  0  0  0  0  0  0  0  0  0  0  0
   -2.6971   -0.6666    0.1939 C   0  0  0  0  0  0  0  0  0  0  0  0
   -2.8634   -1.6114    0.9564 O   0  0  0  0  0  0  0  0  0  0  0  0
   -3.6750    0.1111   -0.3904 N   0  0  0  0  0  0  0  0  0  0  0  0
   -5.0740   -0.0371   -0.2605 C   0  0  0  0  0  0  0  0  0  0  0  0
   -5.8773    0.8448   -0.9970 C   0  0  0  0  0  0  0  0  0  0  0  0
   -7.2736    0.7744   -0.9262 C   0  0  0  0  0  0  0  0  0  0  0  0
   -7.8836   -0.1806   -0.1098 C   0  0  0  0  0  0  0  0  0  0  0  0
   -9.3633   -0.2673   -0.0128 C   0  0  0  0  0  0  0  0  0  0  0  0
   -9.9534   -1.2913    0.5547 N   0  0  0  0  0  0  0  0  0  0  0  0
  -11.4080   -1.0024    0.4346 C   0  0  0  0  0  0  0  0  0  0  0  0
  -11.5203    0.4698    0.0400 C   0  0  0  0  0  0  0  0  0  0  0  0
  -10.1958    0.7258   -0.4815 N   0  0  0  0  0  0  0  0  0  0  0  0
   -7.0878   -1.0691    0.6179 C   0  0  0  0  0  0  0  0  0  0  0  0
   -5.6909   -0.9962    0.5438 C   0  0  0  0  0  0  0  0  0  0  0  0
   -0.7475   -0.0309   -1.3480 C   0  0  0  0  0  0  0  0  0  0  0  0
   -1.5746   -0.0559   -2.5284 N   0  0  0  0  0  4  0  0  0  0  0  0
   -2.3711    0.8842   -2.6606 O   0  0  0  0  0  0  0  0  0  0  0  0
   -1.4029   -0.9879   -3.3200 O   0  0  0  0  0  1  0  0  0  0  0  0
    0.6142    0.2492   -1.5306 C   0  0  0  0  0  0  0  0  0  0  0  0
    3.3977   -0.8693    0.7435 H   0  0  0  0  0  0  0  0  0  0  0  0
    5.4119    1.6765   -1.1472 H   0  0  0  0  0  0  0  0  0  0  0  0
    7.8316    1.7792   -0.9726 H   0  0  0  0  0  0  0  0  0  0  0  0
   12.1551   -1.1527    1.1782 H   0  0  0  0  0  0  0  0  0  0  0  0
   11.9052    0.4155    1.9771 H   0  0  0  0  0  0  0  0  0  0  0  0
   11.9177   -0.2391   -0.9742 H   0  0  0  0  0  0  0  0  0  0  0  0
   12.3259    1.3079   -0.1804 H   0  0  0  0  0  0  0  0  0  0  0  0
    9.9391    0.9534   -1.3254 H   0  0  0  0  0  0  0  0  0  0  0  0
    7.8040   -1.5558    1.7594 H   0  0  0  0  0  0  0  0  0  0  0  0
    5.3607   -1.6626    1.6026 H   0  0  0  0  0  0  0  0  0  0  0  0
    1.5816    0.0544    1.7402 H   0  0  0  0  0  0  0  0  0  0  0  0
   -0.8011   -0.4802    2.0174 H   0  0  0  0  0  0  0  0  0  0  0  0
   -3.3883    0.8683   -1.0067 H   0  0  0  0  0  0  0  0  0  0  0  0
   -5.4290    1.5912   -1.6491 H   0  0  0  0  0  0  0  0  0  0  0  0
   -7.8671    1.4537   -1.5305 H   0  0  0  0  0  0  0  0  0  0  0  0
  -11.8361   -1.6527   -0.3363 H   0  0  0  0  0  0  0  0  0  0  0  0
  -11.9196   -1.2008    1.3813 H   0  0  0  0  0  0  0  0  0  0  0  0
  -11.7066    1.0960    0.9189 H   0  0  0  0  0  0  0  0  0  0  0  0
  -12.3015    0.6471   -0.7037 H   0  0  0  0  0  0  0  0  0  0  0  0
   -9.8596    1.6770   -0.3891 H   0  0  0  0  0  0  0  0  0  0  0  0
   -7.5490   -1.8260    1.2493 H   0  0  0  0  0  0  0  0  0  0  0  0
   -5.1199   -1.7087    1.1304 H   0  0  0  0  0  0  0  0  0  0  0  0
    1.0143    0.4497   -2.5245 H   0  0  0  0  0  0  0  0  0  0  0  0
  1  2  2  0
  2  3  1  0
  3  4  1  0
  4  5  2  0
  5  6  1  0
  6  7  2  0
  7  8  1  0
  8  9  2  0
  9 10  1  0
 10 11  1  0
 11 12  1  0
  7 13  1  0
 13 14  2  0
  2 15  1  0
 15 16  2  0
 16 17  1  0
 17 18  2  0
 18 19  1  0
 19 20  2  0
 19 21  1  0
 21 22  1  0
 22 23  2  0
 23 24  1  0
 24 25  2  0
 25 26  1  0
 26 27  2  0
 27 28  1  0
 28 29  1  0
 29 30  1  0
 25 31  1  0
 31 32  2  0
 18 33  1  0
 33 34  1  0
 34 35  2  0
 34 36  1  0
 33 37  2  0
 14  4  1  0
 37 15  1  0
 12  8  1  0
 32 22  1  0
 30 26  1  0
  3 38  1  0
  5 39  1  0
  6 40  1  0
 10 41  1  0
 10 42  1  0
 11 43  1  0
 11 44  1  0
 12 45  1  0
 13 46  1  0
 14 47  1  0
 16 48  1  0
 17 49  1  0
 21 50  1  0
 23 51  1  0
 24 52  1  0
 28 53  1  0
 28 54  1  0
 29 55  1  0
 29 56  1  0
 30 57  1  0
 31 58  1  0
 32 59  1  0
 37 60  1  0
M  CHG  2  34   1  36  -1
M  END
$$$$
