
     RDKit          3D

 31 33  0  0  0  0  0  0  0  0999 V2000
    4.3594   -1.1646   -0.2926 O   0  0  0  0  0  0  0  0  0  0  0  0
    4.0027   -0.5032    0.6711 C   0  0  0  0  0  0  0  0  0  0  0  0
    4.4585   -0.7899    1.9065 O   0  0  0  0  0  0  0  0  0  0  0  0
    3.0783    0.6947    0.6473 C   0  0  0  0  0  0  0  0  0  0  0  0
    2.4163    0.7728   -0.6601 N   0  0  0  0  0  0  0  0  0  0  0  0
    1.2897    1.9724   -0.9214 S   0  0  0  0  0  6  0  0  0  0  0  0
    1.0798    2.0536   -2.3483 O   0  0  0  0  0  0  0  0  0  0  0  0
    1.6994    3.1237   -0.1476 O   0  0  0  0  0  0  0  0  0  0  0  0
   -0.1778    1.2896   -0.1917 C   0  0  0  0  0  0  0  0  0  0  0  0
   -0.7511    1.9619    0.9233 C   0  0  0  0  0  0  0  0  0  0  0  0
   -1.9051    1.4702    1.5542 C   0  0  0  0  0  0  0  0  0  0  0  0
   -2.4540    0.3159    1.0478 C   0  0  0  0  0  0  0  0  0  0  0  0
   -1.8958   -0.3204   -0.0303 C   0  0  0  0  0  0  0  0  0  0  0  0
   -2.6333   -1.4374   -0.3326 C   0  0  0  0  0  0  0  0  0  0  0  0
   -2.2841   -2.2581   -1.3832 C   0  0  0  0  0  0  0  0  0  0  0  0
   -1.1499   -1.9015   -2.1256 C   0  0  0  0  0  0  0  0  0  0  0  0
   -0.3957   -0.7461   -1.8047 C   0  0  0  0  0  0  0  0  0  0  0  0
   -0.7586    0.0983   -0.7157 C   0  0  0  0  0  0  0  0  0  0  0  0
   -3.7443   -1.5017    0.6420 C   0  0  0  0  0  0  0  0  0  0  0  0
   -4.6081   -2.3521    0.6978 O   0  0  0  0  0  0  0  0  0  0  0  0
   -3.5758   -0.3955    1.4610 N   0  0  0  0  0  0  0  0  0  0  0  0
    5.0436   -1.5668    1.7759 H   0  0  0  0  0  0  0  0  0  0  0  0
    2.3308    0.5808    1.4373 H   0  0  0  0  0  0  0  0  0  0  0  0
    3.6901    1.5860    0.8134 H   0  0  0  0  0  0  0  0  0  0  0  0
    2.9547    0.4919   -1.4824 H   0  0  0  0  0  0  0  0  0  0  0  0
   -0.2980    2.8777    1.3023 H   0  0  0  0  0  0  0  0  0  0  0  0
   -2.3400    1.9860    2.4031 H   0  0  0  0  0  0  0  0  0  0  0  0
   -2.8686   -3.1398   -1.6231 H   0  0  0  0  0  0  0  0  0  0  0  0
   -0.8431   -2.5201   -2.9675 H   0  0  0  0  0  0  0  0  0  0  0  0
    0.4707   -0.5122   -2.4207 H   0  0  0  0  0  0  0  0  0  0  0  0
   -4.1906   -0.1663    2.2270 H   0  0  0  0  0  0  0  0  0  0  0  0
  1  2  2  0
  2  3  1  0
  2  4  1  0
  4  5  1  0
  5  6  1  0
  6  7  2  0
  6  8  2  0
  6  9  1  0
  9 10  2  0
 10 11  1  0
 11 12  2  0
 12 13  1  0
 13 14  2  0
 14 15  1  0
 15 16  2  0
 16 17  1  0
 17 18  2  0
 14 19  1  0
 19 20  2  0
 19 21  1  0
 18  9  1  0
 21 12  1  0
 18 13  1  0
  3 22  1  0
  4 23  1  0
  4 24  1  0
  5 25  1  0
 10 26  1  0
 11 27  1  0
 15 28  1  0
 16 29  1  0
 17 30  1  0
 21 31  1  0
M  END
$$$$
