
     RDKit          3D

 52 55  0  0  0  0  0  0  0  0999 V2000
    7.2857    1.6796   -0.6018 C   0  0  0  0  0  0  0  0  0  0  0  0
    6.2860    2.5338   -1.3654 C   0  0  0  0  0  0  0  0  0  0  0  0
    4.8886    1.9733   -1.2818 C   0  0  0  0  0  0  0  0  0  0  0  0
    4.4372    1.0466   -2.2304 C   0  0  0  0  0  0  0  0  0  0  0  0
    3.1454    0.5159   -2.1503 C   0  0  0  0  0  0  0  0  0  0  0  0
    2.2914    0.9039   -1.1130 C   0  0  0  0  0  0  0  0  0  0  0  0
    0.9139    0.3679   -1.0020 C   0  0  0  0  0  0  0  0  0  0  0  0
    0.0690    0.7615   -0.0981 N   0  0  0  0  0  0  0  0  0  0  0  0
   -1.0852    0.0547   -0.2827 N   0  0  0  0  0  0  0  0  0  0  0  0
   -2.2560    0.4182    0.3829 C   0  0  0  0  0  0  0  0  0  0  0  0
   -2.2502    1.4617    1.3273 C   0  0  0  0  0  0  0  0  0  0  0  0
   -3.4047    1.8479    2.0177 C   0  0  0  0  0  0  0  0  0  0  0  0
   -4.6006    1.1784    1.7748 C   0  0  0  0  0  0  0  0  0  0  0  0
   -6.0634    1.6722    2.6328 S   0  0  0  0  0  6  0  0  0  0  0  0
   -5.7260    1.2128    4.2145 N   0  0  0  0  0  0  0  0  0  0  0  0
   -6.1416    3.1146    2.6379 O   0  0  0  0  0  0  0  0  0  0  0  0
   -7.1687    0.8374    2.2198 O   0  0  0  0  0  0  0  0  0  0  0  0
   -4.6486    0.1430    0.8441 C   0  0  0  0  0  0  0  0  0  0  0  0
   -3.4836   -0.2286    0.1599 C   0  0  0  0  0  0  0  0  0  0  0  0
   -0.9795   -0.9525   -1.3408 C   0  0  0  0  0  0  0  0  0  0  0  0
   -1.0448   -2.3825   -0.8210 C   0  0  0  0  0  0  0  0  0  0  0  0
   -1.6012   -3.3882   -1.6319 C   0  0  0  0  0  0  0  0  0  0  0  0
   -1.6605   -4.7101   -1.1854 C   0  0  0  0  0  0  0  0  0  0  0  0
   -1.1600   -5.0326    0.0702 C   0  0  0  0  0  0  0  0  0  0  0  0
   -1.2207   -6.3009    0.4965 F   0  0  0  0  0  0  0  0  0  0  0  0
   -0.5947   -4.0613    0.8853 C   0  0  0  0  0  0  0  0  0  0  0  0
   -0.5324   -2.7396    0.4395 C   0  0  0  0  0  0  0  0  0  0  0  0
    0.3857   -0.6587   -1.9655 C   0  0  0  0  0  0  0  0  0  0  0  0
    2.7417    1.8232   -0.1590 C   0  0  0  0  0  0  0  0  0  0  0  0
    4.0327    2.3514   -0.2418 C   0  0  0  0  0  0  0  0  0  0  0  0
    8.2903    2.1044   -0.6906 H   0  0  0  0  0  0  0  0  0  0  0  0
    7.3136    0.6561   -0.9889 H   0  0  0  0  0  0  0  0  0  0  0  0
    7.0315    1.6285    0.4622 H   0  0  0  0  0  0  0  0  0  0  0  0
    6.5899    2.6100   -2.4164 H   0  0  0  0  0  0  0  0  0  0  0  0
    6.2965    3.5577   -0.9732 H   0  0  0  0  0  0  0  0  0  0  0  0
    5.0915    0.7321   -3.0411 H   0  0  0  0  0  0  0  0  0  0  0  0
    2.8323   -0.1951   -2.9088 H   0  0  0  0  0  0  0  0  0  0  0  0
   -1.3217    1.9919    1.5330 H   0  0  0  0  0  0  0  0  0  0  0  0
   -3.3568    2.6616    2.7356 H   0  0  0  0  0  0  0  0  0  0  0  0
   -6.3807    0.4858    4.5065 H   0  0  0  0  0  0  0  0  0  0  0  0
   -5.7250    2.0362    4.8187 H   0  0  0  0  0  0  0  0  0  0  0  0
   -5.5784   -0.3845    0.6426 H   0  0  0  0  0  0  0  0  0  0  0  0
   -3.5610   -1.0454   -0.5502 H   0  0  0  0  0  0  0  0  0  0  0  0
   -1.7615   -0.7935   -2.0942 H   0  0  0  0  0  0  0  0  0  0  0  0
   -1.9967   -3.1490   -2.6170 H   0  0  0  0  0  0  0  0  0  0  0  0
   -2.0946   -5.4887   -1.8056 H   0  0  0  0  0  0  0  0  0  0  0  0
   -0.2087   -4.3347    1.8621 H   0  0  0  0  0  0  0  0  0  0  0  0
   -0.0918   -1.9825    1.0881 H   0  0  0  0  0  0  0  0  0  0  0  0
    0.2756   -0.1980   -2.9528 H   0  0  0  0  0  0  0  0  0  0  0  0
    1.0446   -1.5285   -2.0315 H   0  0  0  0  0  0  0  0  0  0  0  0
    2.0918    2.1332    0.6563 H   0  0  0  0  0  0  0  0  0  0  0  0
    4.3645    3.0595    0.5138 H   0  0  0  0  0  0  0  0  0  0  0  0
  1  2  1  0
  2  3  1  0
  3  4  2  0
  4  5  1  0
  5  6  2  0
  6  7  1  0
  7  8  2  0
  8  9  1  0
  9 10  1  0
 10 11  2  0
 11 12  1  0
 12 13  2  0
 13 14  1  0
 14 15  1  0
 14 16  2  0
 14 17  2  0
 13 18  1  0
 18 19  2  0
  9 20  1  0
 20 21  1  0
 21 22  2  0
 22 23  1  0
 23 24  2  0
 24 25  1  0
 24 26  1  0
 26 27  2  0
 20 28  1  0
  6 29  1  0
 29 30  2  0
 30  3  1  0
 28  7  1  0
 19 10  1  0
 27 21  1  0
  1 31  1  0
  1 32  1  0
  1 33  1  0
  2 34  1  0
  2 35  1  0
  4 36  1  0
  5 37  1  0
 11 38  1  0
 12 39  1  0
 15 40  1  0
 15 41  1  0
 18 42  1  0
 19 43  1  0
 20 44  1  0
 22 45  1  0
 23 46  1  0
 26 47  1  0
 27 48  1  0
 28 49  1  0
 28 50  1  0
 29 51  1  0
 30 52  1  0
M  END
$$$$
