
     RDKit          3D

 40 42  0  0  0  0  0  0  0  0999 V2000
    2.2652   -3.5345    0.2910 C   0  0  0  0  0  0  0  0  0  0  0  0
    2.9422   -2.2583   -0.1045 C   0  0  0  0  0  0  0  0  0  0  0  0
    4.0953   -1.9675    0.1770 O   0  0  0  0  0  0  0  0  0  0  0  0
    2.0877   -1.4830   -0.8242 O   0  0  0  0  0  0  0  0  0  0  0  0
    2.6237   -0.2077   -1.2126 C   0  0  0  0  0  0  0  0  0  0  0  0
    1.5131    0.6537   -1.8239 C   0  0  0  0  0  0  0  0  0  0  0  0
    0.5936    1.1653   -0.7917 N   0  0  0  0  0  0  0  0  0  0  0  0
    0.9269    2.3205   -0.0907 C   0  0  0  0  0  0  0  0  0  0  0  0
    2.0127    2.9975   -0.3152 N   0  0  0  0  0  0  0  0  0  0  0  0
    2.3133    4.1384    0.3757 C   0  0  0  0  0  0  0  0  0  0  0  0
    3.1572    4.9339   -0.0235 O   0  0  0  0  0  0  0  0  0  0  0  0
    1.6477    4.4257    1.5313 N   0  0  0  0  0  0  0  0  0  0  0  0
    0.3486    4.0661    1.7131 C   0  0  0  0  0  0  0  0  0  0  0  0
   -0.4556    4.7169    2.3584 O   0  0  0  0  0  0  0  0  0  0  0  0
   -0.0204    2.8079    0.9773 C   0  0  0  0  0  0  0  0  0  0  0  0
   -1.1073    2.1702    1.2853 N   0  0  0  0  0  0  0  0  0  0  0  0
   -1.4036    0.9833    0.5899 C   0  0  0  0  0  0  0  0  0  0  0  0
   -2.5761    0.3165    0.9667 C   0  0  0  0  0  0  0  0  0  0  0  0
   -2.9707   -0.8787    0.3550 C   0  0  0  0  0  0  0  0  0  0  0  0
   -4.2384   -1.5530    0.8008 C   0  0  0  0  0  0  0  0  0  0  0  0
   -2.1626   -1.4171   -0.6575 C   0  0  0  0  0  0  0  0  0  0  0  0
   -2.5304   -2.7025   -1.3496 C   0  0  0  0  0  0  0  0  0  0  0  0
   -0.9856   -0.7410   -1.0379 C   0  0  0  0  0  0  0  0  0  0  0  0
   -0.5779    0.4615   -0.4341 C   0  0  0  0  0  0  0  0  0  0  0  0
    1.3792   -3.3132    0.8916 H   0  0  0  0  0  0  0  0  0  0  0  0
    2.9512   -4.1374    0.8928 H   0  0  0  0  0  0  0  0  0  0  0  0
    1.9924   -4.1014   -0.6025 H   0  0  0  0  0  0  0  0  0  0  0  0
    3.0700    0.2940   -0.3460 H   0  0  0  0  0  0  0  0  0  0  0  0
    3.3988   -0.3799   -1.9681 H   0  0  0  0  0  0  0  0  0  0  0  0
    1.9784    1.5025   -2.3412 H   0  0  0  0  0  0  0  0  0  0  0  0
    0.9831    0.1090   -2.6113 H   0  0  0  0  0  0  0  0  0  0  0  0
    1.8865    5.3306    1.9105 H   0  0  0  0  0  0  0  0  0  0  0  0
   -3.1841    0.7524    1.7578 H   0  0  0  0  0  0  0  0  0  0  0  0
   -4.0172   -2.5420    1.2143 H   0  0  0  0  0  0  0  0  0  0  0  0
   -4.9320   -1.6547   -0.0398 H   0  0  0  0  0  0  0  0  0  0  0  0
   -4.7490   -0.9760    1.5792 H   0  0  0  0  0  0  0  0  0  0  0  0
   -2.6020   -3.5185   -0.6235 H   0  0  0  0  0  0  0  0  0  0  0  0
   -1.7791   -2.9906   -2.0925 H   0  0  0  0  0  0  0  0  0  0  0  0
   -3.4858   -2.5922   -1.8720 H   0  0  0  0  0  0  0  0  0  0  0  0
   -0.3889   -1.1967   -1.8217 H   0  0  0  0  0  0  0  0  0  0  0  0
  1  2  1  0
  2  3  2  0
  2  4  1  0
  4  5  1  0
  5  6  1  0
  6  7  1  0
  7  8  1  0
  8  9  2  0
  9 10  1  0
 10 11  2  0
 10 12  1  0
 12 13  1  0
 13 14  2  0
 13 15  1  0
 15 16  2  0
 16 17  1  0
 17 18  2  0
 18 19  1  0
 19 20  1  0
 19 21  2  0
 21 22  1  0
 21 23  1  0
 23 24  2  0
 24  7  1  0
 15  8  1  0
 24 17  1  0
  1 25  1  0
  1 26  1  0
  1 27  1  0
  5 28  1  0
  5 29  1  0
  6 30  1  0
  6 31  1  0
 12 32  1  0
 18 33  1  0
 20 34  1  0
 20 35  1  0
 20 36  1  0
 22 37  1  0
 22 38  1  0
 22 39  1  0
 23 40  1  0
M  END
$$$$
