
     RDKit          3D

 58 61  0  0  0  0  0  0  0  0999 V2000
    1.8718    2.4637    0.5014 O   0  0  0  0  0  0  0  0  0  0  0  0
    1.9371    1.3178    0.9402 C   0  0  0  0  0  0  0  0  0  0  0  0
    3.1695    0.4365    0.8701 C   0  0  0  0  0  0  0  0  0  0  0  0
    4.3485    1.1523    0.2065 C   0  0  0  0  0  0  0  0  0  0  0  0
    5.6112    0.2946    0.0005 C   0  0  0  0  0  0  0  0  0  0  0  0
    5.4359   -0.7468   -1.1230 C   0  0  0  0  0  0  0  0  0  0  0  0
    6.3992   -1.9325   -1.0136 C   0  0  0  0  0  0  0  0  0  0  0  0
    7.7058   -1.5461   -0.3358 C   0  0  0  0  0  0  0  0  0  0  0  0
    7.4792   -1.0309    1.0867 C   0  0  0  0  0  0  0  0  0  0  0  0
    6.1142   -0.3658    1.2882 C   0  0  0  0  0  0  0  0  0  0  0  0
    0.8669    0.6975    1.5626 N   0  0  0  0  0  0  0  0  0  0  0  0
   -0.3955    1.3247    1.4016 N   0  0  0  0  0  0  0  0  0  0  0  0
   -1.3979    0.5153    0.8963 C   0  0  0  0  0  0  0  0  0  0  0  0
   -1.2648   -0.6966    0.7687 O   0  0  0  0  0  0  0  0  0  0  0  0
   -2.5198    1.2412    0.5833 N   0  0  0  0  0  0  0  0  0  0  0  0
   -3.7770    0.6484    0.1130 C   0  0  0  0  0  0  0  0  0  0  0  0
   -4.4057   -0.2753    1.1854 C   0  0  0  0  0  0  0  0  0  0  0  0
   -5.7518   -0.8364    0.6938 C   0  0  0  0  0  0  0  0  0  0  0  0
   -5.5263   -1.6314   -0.6037 C   0  0  0  0  0  0  0  0  0  0  0  0
   -4.9356   -0.7160   -1.6902 C   0  0  0  0  0  0  0  0  0  0  0  0
   -5.9053    0.4458   -1.9569 C   0  0  0  0  0  0  0  0  0  0  0  0
   -6.1267    1.2496   -0.6663 C   0  0  0  0  0  0  0  0  0  0  0  0
   -6.7155    0.3278    0.4136 C   0  0  0  0  0  0  0  0  0  0  0  0
   -4.7774    1.8001   -0.1780 C   0  0  0  0  0  0  0  0  0  0  0  0
   -3.5887   -0.1535   -1.2009 C   0  0  0  0  0  0  0  0  0  0  0  0
    2.9006   -0.4669    0.3130 H   0  0  0  0  0  0  0  0  0  0  0  0
    3.4293    0.1458    1.8940 H   0  0  0  0  0  0  0  0  0  0  0  0
    4.0350    1.5568   -0.7653 H   0  0  0  0  0  0  0  0  0  0  0  0
    4.6159    2.0227    0.8213 H   0  0  0  0  0  0  0  0  0  0  0  0
    6.3956    0.9911   -0.3314 H   0  0  0  0  0  0  0  0  0  0  0  0
    5.5940   -0.2421   -2.0855 H   0  0  0  0  0  0  0  0  0  0  0  0
    4.4139   -1.1393   -1.1578 H   0  0  0  0  0  0  0  0  0  0  0  0
    5.9208   -2.7351   -0.4376 H   0  0  0  0  0  0  0  0  0  0  0  0
    6.5938   -2.3401   -2.0122 H   0  0  0  0  0  0  0  0  0  0  0  0
    8.2023   -0.7679   -0.9297 H   0  0  0  0  0  0  0  0  0  0  0  0
    8.3893   -2.4024   -0.3116 H   0  0  0  0  0  0  0  0  0  0  0  0
    7.5752   -1.8582    1.8008 H   0  0  0  0  0  0  0  0  0  0  0  0
    8.2776   -0.3206    1.3341 H   0  0  0  0  0  0  0  0  0  0  0  0
    6.1863    0.3672    2.1000 H   0  0  0  0  0  0  0  0  0  0  0  0
    5.3990   -1.1299    1.6177 H   0  0  0  0  0  0  0  0  0  0  0  0
    0.8197   -0.3228    1.5654 H   0  0  0  0  0  0  0  0  0  0  0  0
   -0.3235    2.2506    0.9797 H   0  0  0  0  0  0  0  0  0  0  0  0
   -2.6066    2.0907    1.1245 H   0  0  0  0  0  0  0  0  0  0  0  0
   -4.5522    0.2790    2.1218 H   0  0  0  0  0  0  0  0  0  0  0  0
   -3.7342   -1.1086    1.4248 H   0  0  0  0  0  0  0  0  0  0  0  0
   -6.1797   -1.4928    1.4601 H   0  0  0  0  0  0  0  0  0  0  0  0
   -6.4760   -2.0575   -0.9507 H   0  0  0  0  0  0  0  0  0  0  0  0
   -4.8498   -2.4739   -0.4141 H   0  0  0  0  0  0  0  0  0  0  0  0
   -4.7829   -1.2882   -2.6123 H   0  0  0  0  0  0  0  0  0  0  0  0
   -6.8632    0.0591   -2.3258 H   0  0  0  0  0  0  0  0  0  0  0  0
   -5.5019    1.0983   -2.7414 H   0  0  0  0  0  0  0  0  0  0  0  0
   -6.8158    2.0790   -0.8616 H   0  0  0  0  0  0  0  0  0  0  0  0
   -6.8949    0.8955    1.3348 H   0  0  0  0  0  0  0  0  0  0  0  0
   -7.6871   -0.0610    0.0851 H   0  0  0  0  0  0  0  0  0  0  0  0
   -4.9335    2.4034    0.7269 H   0  0  0  0  0  0  0  0  0  0  0  0
   -4.3598    2.4814   -0.9314 H   0  0  0  0  0  0  0  0  0  0  0  0
   -3.1483    0.4887   -1.9751 H   0  0  0  0  0  0  0  0  0  0  0  0
   -2.8901   -0.9860   -1.0595 H   0  0  0  0  0  0  0  0  0  0  0  0
  1  2  2  0
  2  3  1  0
  3  4  1  0
  4  5  1  0
  5  6  1  0
  6  7  1  0
  7  8  1  0
  8  9  1  0
  9 10  1  0
  2 11  1  0
 11 12  1  0
 12 13  1  0
 13 14  2  0
 13 15  1  0
 15 16  1  0
 16 17  1  0
 17 18  1  0
 18 19  1  0
 19 20  1  0
 20 21  1  0
 21 22  1  0
 22 23  1  0
 22 24  1  0
 20 25  1  0
 10  5  1  0
 24 16  1  0
 25 16  1  0
 23 18  1  0
  3 26  1  0
  3 27  1  0
  4 28  1  0
  4 29  1  0
  5 30  1  0
  6 31  1  0
  6 32  1  0
  7 33  1  0
  7 34  1  0
  8 35  1  0
  8 36  1  0
  9 37  1  0
  9 38  1  0
 10 39  1  0
 10 40  1  0
 11 41  1  0
 12 42  1  0
 15 43  1  0
 17 44  1  0
 17 45  1  0
 18 46  1  0
 19 47  1  0
 19 48  1  0
 20 49  1  0
 21 50  1  0
 21 51  1  0
 22 52  1  0
 23 53  1  0
 23 54  1  0
 24 55  1  0
 24 56  1  0
 25 57  1  0
 25 58  1  0
M  END
$$$$
