
     RDKit          3D

 40 44  0  0  0  0  0  0  0  0999 V2000
    6.4276   -2.1376   -2.8570 O   0  0  0  0  0  0  0  0  0  0  0  0
    6.7929   -1.1304   -2.2795 C   0  0  0  0  0  0  0  0  0  0  0  0
    8.0319   -0.6374   -2.4512 O   0  0  0  0  0  0  0  0  0  0  0  0
    5.9752   -0.3243   -1.3414 C   0  0  0  0  0  0  0  0  0  0  0  0
    6.4782    0.8203   -0.7153 C   0  0  0  0  0  0  0  0  0  0  0  0
    5.6693    1.5435    0.1590 C   0  0  0  0  0  0  0  0  0  0  0  0
    4.3594    1.1247    0.4086 C   0  0  0  0  0  0  0  0  0  0  0  0
    3.8334   -0.0213   -0.2086 C   0  0  0  0  0  0  0  0  0  0  0  0
    2.4640   -0.4619    0.0497 C   0  0  0  0  0  0  0  0  0  0  0  0
    1.6820   -1.5007   -0.4016 C   0  0  0  0  0  0  0  0  0  0  0  0
    0.4302   -1.3728    0.2486 C   0  0  0  0  0  0  0  0  0  0  0  0
    0.4775   -0.2462    1.0583 C   0  0  0  0  0  0  0  0  0  0  0  0
   -0.4681    0.3318    1.9461 C   0  0  0  0  0  0  0  0  0  0  0  0
   -1.7903    0.4405    1.7515 C   0  0  0  0  0  0  0  0  0  0  0  0
   -2.8048    1.1954    2.9864 S   0  0  0  0  0  0  0  0  0  0  0  0
   -4.1916    0.9594    2.0025 C   0  0  0  0  0  0  0  0  0  0  0  0
   -5.4534    1.2398    2.1700 N   0  0  0  0  0  0  0  0  0  0  0  0
   -6.0364    0.7933    1.0004 C   0  0  0  0  0  0  0  0  0  0  0  0
   -7.3828    0.8302    0.6087 C   0  0  0  0  0  0  0  0  0  0  0  0
   -7.7362    0.3095   -0.6428 C   0  0  0  0  0  0  0  0  0  0  0  0
   -6.7707   -0.2383   -1.4910 C   0  0  0  0  0  0  0  0  0  0  0  0
   -5.4216   -0.2872   -1.1234 C   0  0  0  0  0  0  0  0  0  0  0  0
   -5.0901    0.2376    0.1300 C   0  0  0  0  0  0  0  0  0  0  0  0
   -3.9109    0.3641    0.8200 N   0  0  0  0  0  0  0  0  0  0  0  0
   -2.5991    0.0286    0.5597 C   0  0  0  0  0  0  0  0  0  0  0  0
   -2.2726   -0.4974   -0.4860 O   0  0  0  0  0  0  0  0  0  0  0  0
    1.7451    0.2811    0.9389 O   0  0  0  0  0  0  0  0  0  0  0  0
    4.6590   -0.7394   -1.0868 C   0  0  0  0  0  0  0  0  0  0  0  0
    8.4472   -1.2599   -3.0844 H   0  0  0  0  0  0  0  0  0  0  0  0
    7.4954    1.1563   -0.9013 H   0  0  0  0  0  0  0  0  0  0  0  0
    6.0557    2.4347    0.6478 H   0  0  0  0  0  0  0  0  0  0  0  0
    3.7480    1.7081    1.0949 H   0  0  0  0  0  0  0  0  0  0  0  0
    1.9698   -2.2667   -1.1076 H   0  0  0  0  0  0  0  0  0  0  0  0
   -0.4131   -2.0401    0.1341 H   0  0  0  0  0  0  0  0  0  0  0  0
   -0.0327    0.7526    2.8506 H   0  0  0  0  0  0  0  0  0  0  0  0
   -8.1308    1.2566    1.2686 H   0  0  0  0  0  0  0  0  0  0  0  0
   -8.7776    0.3337   -0.9566 H   0  0  0  0  0  0  0  0  0  0  0  0
   -7.0729   -0.6353   -2.4587 H   0  0  0  0  0  0  0  0  0  0  0  0
   -4.6715   -0.7124   -1.7841 H   0  0  0  0  0  0  0  0  0  0  0  0
    4.2855   -1.6326   -1.5838 H   0  0  0  0  0  0  0  0  0  0  0  0
  1  2  2  0
  2  3  1  0
  2  4  1  0
  4  5  2  0
  5  6  1  0
  6  7  2  0
  7  8  1  0
  8  9  1  0
  9 10  2  0
 10 11  1  0
 11 12  2  0
 12 13  1  0
 13 14  2  3
 14 15  1  0
 15 16  1  0
 16 17  2  0
 17 18  1  0
 18 19  2  0
 19 20  1  0
 20 21  2  0
 21 22  1  0
 22 23  2  0
 23 24  1  0
 24 25  1  0
 25 26  2  0
 12 27  1  0
  8 28  2  0
 28  4  1  0
 27  9  1  0
 25 14  1  0
 24 16  1  0
 23 18  1  0
  3 29  1  0
  5 30  1  0
  6 31  1  0
  7 32  1  0
 10 33  1  0
 11 34  1  0
 13 35  1  0
 19 36  1  0
 20 37  1  0
 21 38  1  0
 22 39  1  0
 28 40  1  0
M  END
$$$$
