
     RDKit          3D

 50 52  0  0  0  0  0  0  0  0999 V2000
    3.2314   -0.0958    1.1070 O   0  0  0  0  0  0  0  0  0  0  0  0
    3.4498    1.0882    0.8894 C   0  0  0  0  0  0  0  0  0  0  0  0
    4.7323    1.6841    0.3514 C   0  0  0  0  0  0  0  0  0  0  0  0
    5.7353    0.6577   -0.1221 C   0  0  0  0  0  0  0  0  0  0  0  0
    6.8048    0.2711    0.7008 C   0  0  0  0  0  0  0  0  0  0  0  0
    7.7216   -0.6848    0.2605 C   0  0  0  0  0  0  0  0  0  0  0  0
    7.5671   -1.2567   -0.9965 C   0  0  0  0  0  0  0  0  0  0  0  0
    8.4486   -2.1739   -1.4165 F   0  0  0  0  0  0  0  0  0  0  0  0
    6.5112   -0.8931   -1.8229 C   0  0  0  0  0  0  0  0  0  0  0  0
    5.5929    0.0625   -1.3863 C   0  0  0  0  0  0  0  0  0  0  0  0
    2.5518    2.0920    1.1273 O   0  0  0  0  0  0  0  0  0  0  0  0
    1.2495    1.6211    1.4785 C   0  0  0  0  0  0  0  0  0  0  0  0
    0.4998    1.0228    0.2780 C   0  0  0  0  0  0  0  0  0  0  0  0
    0.8910    1.2171   -0.8757 O   0  0  0  0  0  0  0  0  0  0  0  0
   -0.6378    0.2739    0.5461 N   0  0  0  0  0  0  0  0  0  0  0  0
   -1.3086   -0.4131   -0.5614 C   0  0  0  0  0  0  0  0  0  0  0  0
   -1.9628   -1.7292   -0.1230 C   0  0  0  0  0  0  0  0  0  0  0  0
   -2.9166   -1.5330    1.0058 N   0  0  0  0  0  0  0  0  0  0  0  0
   -4.5217   -2.0245    0.7920 S   0  0  0  0  0  6  0  0  0  0  0  0
   -4.5166   -3.3043    0.1171 O   0  0  0  0  0  0  0  0  0  0  0  0
   -5.2154   -1.8375    2.0486 O   0  0  0  0  0  0  0  0  0  0  0  0
   -5.1695   -0.8208   -0.3549 C   0  0  0  0  0  0  0  0  0  0  0  0
   -5.1043   -1.0682   -1.7307 C   0  0  0  0  0  0  0  0  0  0  0  0
   -5.6343   -0.1354   -2.6248 C   0  0  0  0  0  0  0  0  0  0  0  0
   -6.2405    1.0244   -2.1405 C   0  0  0  0  0  0  0  0  0  0  0  0
   -6.8919    2.1713   -3.2444 Cl  0  0  0  0  0  0  0  0  0  0  0  0
   -6.3314    1.2574   -0.7676 C   0  0  0  0  0  0  0  0  0  0  0  0
   -5.8028    0.3285    0.1315 C   0  0  0  0  0  0  0  0  0  0  0  0
   -2.6778   -0.3310    1.8467 C   0  0  0  0  0  0  0  0  0  0  0  0
   -1.1885    0.0409    1.8855 C   0  0  0  0  0  0  0  0  0  0  0  0
    5.1781    2.3029    1.1390 H   0  0  0  0  0  0  0  0  0  0  0  0
    4.4863    2.3453   -0.4886 H   0  0  0  0  0  0  0  0  0  0  0  0
    6.9290    0.7073    1.6894 H   0  0  0  0  0  0  0  0  0  0  0  0
    8.5511   -0.9899    0.8901 H   0  0  0  0  0  0  0  0  0  0  0  0
    6.4063   -1.3585   -2.7975 H   0  0  0  0  0  0  0  0  0  0  0  0
    4.7613    0.3347   -2.0338 H   0  0  0  0  0  0  0  0  0  0  0  0
    0.6786    2.4875    1.8282 H   0  0  0  0  0  0  0  0  0  0  0  0
    1.3203    0.9045    2.3038 H   0  0  0  0  0  0  0  0  0  0  0  0
   -0.5988   -0.6081   -1.3723 H   0  0  0  0  0  0  0  0  0  0  0  0
   -2.0687    0.2776   -0.9456 H   0  0  0  0  0  0  0  0  0  0  0  0
   -2.4478   -2.1947   -0.9854 H   0  0  0  0  0  0  0  0  0  0  0  0
   -1.1924   -2.4297    0.2219 H   0  0  0  0  0  0  0  0  0  0  0  0
   -4.6564   -1.9831   -2.1131 H   0  0  0  0  0  0  0  0  0  0  0  0
   -5.5822   -0.3224   -3.6949 H   0  0  0  0  0  0  0  0  0  0  0  0
   -6.8210    2.1535   -0.3937 H   0  0  0  0  0  0  0  0  0  0  0  0
   -5.8956    0.5035    1.2014 H   0  0  0  0  0  0  0  0  0  0  0  0
   -3.0176   -0.5312    2.8682 H   0  0  0  0  0  0  0  0  0  0  0  0
   -3.2431    0.5182    1.4496 H   0  0  0  0  0  0  0  0  0  0  0  0
   -0.6051   -0.7726    2.3329 H   0  0  0  0  0  0  0  0  0  0  0  0
   -1.0488    0.9346    2.5012 H   0  0  0  0  0  0  0  0  0  0  0  0
  1  2  2  0
  2  3  1  0
  3  4  1  0
  4  5  2  0
  5  6  1  0
  6  7  2  0
  7  8  1  0
  7  9  1  0
  9 10  2  0
  2 11  1  0
 11 12  1  0
 12 13  1  0
 13 14  2  0
 13 15  1  0
 15 16  1  0
 16 17  1  0
 17 18  1  0
 18 19  1  0
 19 20  2  0
 19 21  2  0
 19 22  1  0
 22 23  2  0
 23 24  1  0
 24 25  2  0
 25 26  1  0
 25 27  1  0
 27 28  2  0
 18 29  1  0
 29 30  1  0
 10  4  1  0
 30 15  1  0
 28 22  1  0
  3 31  1  0
  3 32  1  0
  5 33  1  0
  6 34  1  0
  9 35  1  0
 10 36  1  0
 12 37  1  0
 12 38  1  0
 16 39  1  0
 16 40  1  0
 17 41  1  0
 17 42  1  0
 23 43  1  0
 24 44  1  0
 27 45  1  0
 28 46  1  0
 29 47  1  0
 29 48  1  0
 30 49  1  0
 30 50  1  0
M  END
$$$$
