
     RDKit          3D

 45 47  0  0  0  0  0  0  0  0999 V2000
    2.6477    1.4133    1.5436 O   0  0  0  0  0  0  0  0  0  0  0  0
    2.3824    0.7207    0.5635 C   0  0  0  0  0  0  0  0  0  0  0  0
    3.2898    0.5065   -0.4572 N   0  0  0  0  0  0  0  0  0  0  0  0
    4.6114    0.9446   -0.2251 N   0  0  0  0  0  0  0  0  0  0  0  0
    5.6419    0.1125   -0.6435 C   0  0  0  0  0  0  0  0  0  0  0  0
    5.3918   -0.8535   -1.3691 O   0  0  0  0  0  0  0  0  0  0  0  0
    6.9663    0.4691   -0.1525 C   0  0  0  0  0  0  0  0  0  0  0  0
    7.3952    1.5923    0.5357 C   0  0  0  0  0  0  0  0  0  0  0  0
    8.7892    1.5531    0.8381 C   0  0  0  0  0  0  0  0  0  0  0  0
    9.3857    0.4061    0.3689 C   0  0  0  0  0  0  0  0  0  0  0  0
    8.2732   -0.6115   -0.4329 S   0  0  0  0  0  0  0  0  0  0  0  0
    1.0626    0.0421    0.4403 C   0  0  0  0  0  0  0  0  0  0  0  0
    0.3157   -0.1694    1.6097 C   0  0  0  0  0  0  0  0  0  0  0  0
   -0.9310   -0.7965    1.5495 C   0  0  0  0  0  0  0  0  0  0  0  0
   -1.4353   -1.1975    0.3105 C   0  0  0  0  0  0  0  0  0  0  0  0
   -3.0176   -2.0007    0.2058 S   0  0  0  0  0  6  0  0  0  0  0  0
   -2.8564   -3.1323   -0.6822 O   0  0  0  0  0  0  0  0  0  0  0  0
   -3.5386   -2.1652    1.5464 O   0  0  0  0  0  0  0  0  0  0  0  0
   -3.9827   -0.8289   -0.5818 N   0  0  0  0  0  0  0  0  0  0  0  0
   -4.1161    0.4739    0.1310 C   0  0  0  0  0  0  0  0  0  0  0  0
   -5.1757    1.3404   -0.5385 C   0  0  0  0  0  0  0  0  0  0  0  0
   -6.5553    0.6906   -0.4619 C   0  0  0  0  0  0  0  0  0  0  0  0
   -6.4735   -0.8322   -0.3874 C   0  0  0  0  0  0  0  0  0  0  0  0
   -5.2614   -1.3663   -1.1379 C   0  0  0  0  0  0  0  0  0  0  0  0
   -0.7033   -0.9899   -0.8632 C   0  0  0  0  0  0  0  0  0  0  0  0
    0.5446   -0.3638   -0.7987 C   0  0  0  0  0  0  0  0  0  0  0  0
    3.2150   -0.3063   -1.0701 H   0  0  0  0  0  0  0  0  0  0  0  0
    4.7223    1.5450    0.5897 H   0  0  0  0  0  0  0  0  0  0  0  0
    6.7542    2.4205    0.8121 H   0  0  0  0  0  0  0  0  0  0  0  0
    9.3265    2.3294    1.3699 H   0  0  0  0  0  0  0  0  0  0  0  0
   10.4241    0.1155    0.4540 H   0  0  0  0  0  0  0  0  0  0  0  0
    0.7083    0.1491    2.5745 H   0  0  0  0  0  0  0  0  0  0  0  0
   -1.4944   -0.9654    2.4649 H   0  0  0  0  0  0  0  0  0  0  0  0
   -4.3744    0.3169    1.1842 H   0  0  0  0  0  0  0  0  0  0  0  0
   -3.1588    1.0030    0.0861 H   0  0  0  0  0  0  0  0  0  0  0  0
   -5.2085    2.3321   -0.0735 H   0  0  0  0  0  0  0  0  0  0  0  0
   -4.9070    1.4949   -1.5915 H   0  0  0  0  0  0  0  0  0  0  0  0
   -7.0978    1.0606    0.4163 H   0  0  0  0  0  0  0  0  0  0  0  0
   -7.1413    0.9946   -1.3375 H   0  0  0  0  0  0  0  0  0  0  0  0
   -7.3939   -1.2696   -0.7903 H   0  0  0  0  0  0  0  0  0  0  0  0
   -6.4141   -1.1406    0.6642 H   0  0  0  0  0  0  0  0  0  0  0  0
   -5.3105   -1.0827   -2.1961 H   0  0  0  0  0  0  0  0  0  0  0  0
   -5.2794   -2.4608   -1.1117 H   0  0  0  0  0  0  0  0  0  0  0  0
   -1.1048   -1.3083   -1.8239 H   0  0  0  0  0  0  0  0  0  0  0  0
    1.0836   -0.1853   -1.7255 H   0  0  0  0  0  0  0  0  0  0  0  0
  1  2  2  0
  2  3  1  0
  3  4  1  0
  4  5  1  0
  5  6  2  0
  5  7  1  0
  7  8  2  0
  8  9  1  0
  9 10  2  0
 10 11  1  0
  2 12  1  0
 12 13  2  0
 13 14  1  0
 14 15  2  0
 15 16  1  0
 16 17  2  0
 16 18  2  0
 16 19  1  0
 19 20  1  0
 20 21  1  0
 21 22  1  0
 22 23  1  0
 23 24  1  0
 15 25  1  0
 25 26  2  0
 11  7  1  0
 26 12  1  0
 24 19  1  0
  3 27  1  0
  4 28  1  0
  8 29  1  0
  9 30  1  0
 10 31  1  0
 13 32  1  0
 14 33  1  0
 20 34  1  0
 20 35  1  0
 21 36  1  0
 21 37  1  0
 22 38  1  0
 22 39  1  0
 23 40  1  0
 23 41  1  0
 24 42  1  0
 24 43  1  0
 25 44  1  0
 26 45  1  0
M  END
$$$$
