
     RDKit          3D

 43 46  0  0  0  0  0  0  0  0999 V2000
   -0.3488    5.6851   -2.2795 N   0  0  0  0  0  0  0  0  0  0  0  0
   -0.6646    4.9533   -3.1208 C   0  0  0  0  0  0  0  0  0  0  0  0
   -1.0768    4.0420   -4.1950 C   0  0  0  0  0  0  0  0  0  0  0  0
   -1.9798    2.9355   -3.6669 C   0  0  0  0  0  0  0  0  0  0  0  0
   -1.2914    2.0160   -2.7793 N   0  0  0  0  0  0  0  0  0  0  0  0
   -1.5896    1.7652   -1.4730 C   0  0  0  0  0  0  0  0  0  0  0  0
   -0.6874    0.8151   -1.0485 C   0  0  0  0  0  0  0  0  0  0  0  0
   -0.6010    0.2041    0.2453 C   0  0  0  0  0  0  0  0  0  0  0  0
   -1.5099    0.1631    1.2466 C   0  0  0  0  0  0  0  0  0  0  0  0
   -2.8279    0.7099    1.1726 C   0  0  0  0  0  0  0  0  0  0  0  0
   -3.9024    1.1561    1.1197 N   0  0  0  0  0  0  0  0  0  0  0  0
   -1.1424   -0.5395    2.4334 C   0  0  0  0  0  0  0  0  0  0  0  0
   -1.0479   -1.8508    2.5607 N   0  0  0  0  0  0  0  0  0  0  0  0
   -0.6467   -2.1894    3.8422 C   0  0  0  0  0  0  0  0  0  0  0  0
   -0.4650   -3.5009    4.3305 C   0  0  0  0  0  0  0  0  0  0  0  0
   -0.0157   -3.6954    5.6408 C   0  0  0  0  0  0  0  0  0  0  0  0
    0.2603   -2.6037    6.4630 C   0  0  0  0  0  0  0  0  0  0  0  0
    0.0659   -1.2949    6.0091 C   0  0  0  0  0  0  0  0  0  0  0  0
   -0.3945   -1.1108    4.6940 C   0  0  0  0  0  0  0  0  0  0  0  0
   -0.7409    0.3545    3.8607 S   0  0  0  0  0  0  0  0  0  0  0  0
    0.1626    0.5916   -2.1821 C   0  0  0  0  0  0  0  0  0  0  0  0
    1.3364   -0.2694   -2.2978 C   0  0  0  0  0  0  0  0  0  0  0  0
    2.4530   -0.0634   -1.4734 C   0  0  0  0  0  0  0  0  0  0  0  0
    3.5756   -0.8845   -1.5951 C   0  0  0  0  0  0  0  0  0  0  0  0
    3.5833   -1.9004   -2.5449 C   0  0  0  0  0  0  0  0  0  0  0  0
    4.6662   -2.6823   -2.6651 F   0  0  0  0  0  0  0  0  0  0  0  0
    2.4901   -2.1117   -3.3776 C   0  0  0  0  0  0  0  0  0  0  0  0
    1.3652   -1.2926   -3.2573 C   0  0  0  0  0  0  0  0  0  0  0  0
   -0.2524    1.3060   -3.2412 N   0  0  0  0  0  0  0  0  0  0  0  0
   -1.6271    4.6131   -4.9523 H   0  0  0  0  0  0  0  0  0  0  0  0
   -0.1897    3.6291   -4.6904 H   0  0  0  0  0  0  0  0  0  0  0  0
   -2.3734    2.3327   -4.4922 H   0  0  0  0  0  0  0  0  0  0  0  0
   -2.8388    3.3526   -3.1240 H   0  0  0  0  0  0  0  0  0  0  0  0
   -2.4032    2.2858   -0.9850 H   0  0  0  0  0  0  0  0  0  0  0  0
    0.3460   -0.3140    0.4344 H   0  0  0  0  0  0  0  0  0  0  0  0
   -0.6644   -4.3495    3.6807 H   0  0  0  0  0  0  0  0  0  0  0  0
    0.1346   -4.7078    6.0097 H   0  0  0  0  0  0  0  0  0  0  0  0
    0.6229   -2.7678    7.4767 H   0  0  0  0  0  0  0  0  0  0  0  0
    0.2755   -0.4435    6.6551 H   0  0  0  0  0  0  0  0  0  0  0  0
    2.4629    0.7469   -0.7481 H   0  0  0  0  0  0  0  0  0  0  0  0
    4.4463   -0.7327   -0.9657 H   0  0  0  0  0  0  0  0  0  0  0  0
    2.5224   -2.9054   -4.1170 H   0  0  0  0  0  0  0  0  0  0  0  0
    0.5128   -1.4474   -3.9156 H   0  0  0  0  0  0  0  0  0  0  0  0
  1  2  3  0
  2  3  1  0
  3  4  1  0
  4  5  1  0
  5  6  1  0
  6  7  2  0
  7  8  1  0
  8  9  2  3
  9 10  1  0
 10 11  3  0
  9 12  1  0
 12 13  2  0
 13 14  1  0
 14 15  2  0
 15 16  1  0
 16 17  2  0
 17 18  1  0
 18 19  2  0
 19 20  1  0
  7 21  1  0
 21 22  1  0
 22 23  2  0
 23 24  1  0
 24 25  2  0
 25 26  1  0
 25 27  1  0
 27 28  2  0
 21 29  2  0
 29  5  1  0
 20 12  1  0
 28 22  1  0
 19 14  1  0
  3 30  1  0
  3 31  1  0
  4 32  1  0
  4 33  1  0
  6 34  1  0
  8 35  1  0
 15 36  1  0
 16 37  1  0
 17 38  1  0
 18 39  1  0
 23 40  1  0
 24 41  1  0
 27 42  1  0
 28 43  1  0
M  END
$$$$
