
     RDKit          3D

 36 38  0  0  0  0  0  0  0  0999 V2000
    4.9497    1.6118   -0.0882 C   0  0  0  0  0  0  0  0  0  0  0  0
    4.3911    0.6131    0.8006 N   0  0  0  0  0  0  0  0  0  0  0  0
    4.6066    0.5982    2.1568 C   0  0  0  0  0  0  0  0  0  0  0  0
    3.9026   -0.4551    2.6909 C   0  0  0  0  0  0  0  0  0  0  0  0
    3.2438   -1.1020    1.6204 C   0  0  0  0  0  0  0  0  0  0  0  0
    3.5516   -0.4281    0.4514 C   0  0  0  0  0  0  0  0  0  0  0  0
    3.2164   -0.6463   -0.9084 C   0  0  0  0  0  0  0  0  0  0  0  0
    1.9787   -0.8649   -1.3772 C   0  0  0  0  0  0  0  0  0  0  0  0
    1.7126   -1.1461   -3.0780 S   0  0  0  0  0  0  0  0  0  0  0  0
   -0.0301   -1.2973   -2.9014 C   0  0  0  0  0  0  0  0  0  0  0  0
   -1.0518   -1.6612   -4.1689 S   0  0  0  0  0  0  0  0  0  0  0  0
   -0.3490   -1.1071   -1.5755 N   0  0  0  0  0  0  0  0  0  0  0  0
   -1.6827   -1.0670   -1.1159 N   0  0  0  0  0  0  0  0  0  0  0  0
   -2.2850    0.1817   -1.1309 C   0  0  0  0  0  0  0  0  0  0  0  0
   -1.8092    1.1589   -1.7006 O   0  0  0  0  0  0  0  0  0  0  0  0
   -3.5570    0.3008   -0.3668 C   0  0  0  0  0  0  0  0  0  0  0  0
   -4.4027   -0.7996   -0.1588 C   0  0  0  0  0  0  0  0  0  0  0  0
   -5.5889   -0.6381    0.5621 C   0  0  0  0  0  0  0  0  0  0  0  0
   -5.9265    0.6152    1.0629 C   0  0  0  0  0  0  0  0  0  0  0  0
   -7.0649    0.7635    1.7521 F   0  0  0  0  0  0  0  0  0  0  0  0
   -5.1045    1.7162    0.8523 C   0  0  0  0  0  0  0  0  0  0  0  0
   -3.9188    1.5612    0.1317 C   0  0  0  0  0  0  0  0  0  0  0  0
    0.6678   -0.8914   -0.6572 C   0  0  0  0  0  0  0  0  0  0  0  0
    0.4905   -0.7804    0.5479 O   0  0  0  0  0  0  0  0  0  0  0  0
    4.1361    2.0698   -0.6564 H   0  0  0  0  0  0  0  0  0  0  0  0
    5.6639    1.1195   -0.7530 H   0  0  0  0  0  0  0  0  0  0  0  0
    5.4605    2.3795    0.4989 H   0  0  0  0  0  0  0  0  0  0  0  0
    5.2352    1.3383    2.6348 H   0  0  0  0  0  0  0  0  0  0  0  0
    3.8656   -0.7283    3.7372 H   0  0  0  0  0  0  0  0  0  0  0  0
    2.6077   -1.9744    1.6987 H   0  0  0  0  0  0  0  0  0  0  0  0
    4.0446   -0.6331   -1.6156 H   0  0  0  0  0  0  0  0  0  0  0  0
   -1.8570   -1.6619   -0.3108 H   0  0  0  0  0  0  0  0  0  0  0  0
   -4.1718   -1.7779   -0.5717 H   0  0  0  0  0  0  0  0  0  0  0  0
   -6.2575   -1.4775    0.7286 H   0  0  0  0  0  0  0  0  0  0  0  0
   -5.3914    2.6865    1.2459 H   0  0  0  0  0  0  0  0  0  0  0  0
   -3.2761    2.4235   -0.0381 H   0  0  0  0  0  0  0  0  0  0  0  0
  1  2  1  0
  2  3  1  0
  3  4  2  0
  4  5  1  0
  5  6  2  0
  6  7  1  0
  7  8  2  3
  8  9  1  0
  9 10  1  0
 10 11  2  0
 10 12  1  0
 12 13  1  0
 13 14  1  0
 14 15  2  0
 14 16  1  0
 16 17  2  0
 17 18  1  0
 18 19  2  0
 19 20  1  0
 19 21  1  0
 21 22  2  0
 12 23  1  0
 23 24  2  0
  6  2  1  0
 23  8  1  0
 22 16  1  0
  1 25  1  0
  1 26  1  0
  1 27  1  0
  3 28  1  0
  4 29  1  0
  5 30  1  0
  7 31  1  0
 13 32  1  0
 17 33  1  0
 18 34  1  0
 21 35  1  0
 22 36  1  0
M  END
$$$$
