
     RDKit          3D

 37 39  0  0  0  0  0  0  0  0999 V2000
   -1.4235    1.9494   -0.4153 O   0  0  0  0  0  0  0  0  0  0  0  0
   -1.0085    0.8538   -0.7687 C   0  0  0  0  0  0  0  0  0  0  0  0
    0.4381    0.5241   -0.8458 C   0  0  0  0  0  0  0  0  0  0  0  0
    1.3835    1.4003   -0.4788 C   0  0  0  0  0  0  0  0  0  0  0  0
    2.8312    1.1574   -0.5282 C   0  0  0  0  0  0  0  0  0  0  0  0
    3.4164    0.3180    0.4314 C   0  0  0  0  0  0  0  0  0  0  0  0
    4.7986    0.0762    0.4006 C   0  0  0  0  0  0  0  0  0  0  0  0
    5.4032   -0.8063    1.4065 N   0  0  0  0  0  4  0  0  0  0  0  0
    4.6582   -1.2873    2.2720 O   0  0  0  0  0  0  0  0  0  0  0  0
    6.6221   -1.0156    1.3324 O   0  0  0  0  0  1  0  0  0  0  0  0
    5.6069    0.6693   -0.5767 C   0  0  0  0  0  0  0  0  0  0  0  0
    5.0253    1.5091   -1.5265 C   0  0  0  0  0  0  0  0  0  0  0  0
    3.6512    1.7496   -1.5006 C   0  0  0  0  0  0  0  0  0  0  0  0
    3.1733    2.5841   -2.4724 O   0  0  0  0  0  0  0  0  0  0  0  0
    0.6507   -1.0614   -1.4622 S   0  0  0  0  0  0  0  0  0  0  0  0
   -1.0832   -1.3396   -1.6052 C   0  0  0  0  0  0  0  0  0  0  0  0
   -1.6900   -2.7699   -2.2116 S   0  0  0  0  0  0  0  0  0  0  0  0
   -1.7727   -0.2262   -1.1712 N   0  0  0  0  0  0  0  0  0  0  0  0
   -3.2292   -0.1096   -1.1276 C   0  0  0  0  0  0  0  0  0  0  0  0
   -3.8010   -0.5630    0.2003 C   0  0  0  0  0  0  0  0  0  0  0  0
   -3.7457    0.2776    1.3238 C   0  0  0  0  0  0  0  0  0  0  0  0
   -4.2571   -0.1427    2.5542 C   0  0  0  0  0  0  0  0  0  0  0  0
   -4.8288   -1.4067    2.6710 C   0  0  0  0  0  0  0  0  0  0  0  0
   -5.4583   -1.9248    4.1855 Cl  0  0  0  0  0  0  0  0  0  0  0  0
   -4.8954   -2.2524    1.5669 C   0  0  0  0  0  0  0  0  0  0  0  0
   -4.3845   -1.8319    0.3359 C   0  0  0  0  0  0  0  0  0  0  0  0
    1.1002    2.3848   -0.1078 H   0  0  0  0  0  0  0  0  0  0  0  0
    2.7938   -0.1437    1.1965 H   0  0  0  0  0  0  0  0  0  0  0  0
    6.6798    0.4913   -0.6125 H   0  0  0  0  0  0  0  0  0  0  0  0
    5.6419    1.9771   -2.2908 H   0  0  0  0  0  0  0  0  0  0  0  0
    2.2090    2.6616   -2.3921 H   0  0  0  0  0  0  0  0  0  0  0  0
   -3.5194    0.9348   -1.2984 H   0  0  0  0  0  0  0  0  0  0  0  0
   -3.6775   -0.6827   -1.9464 H   0  0  0  0  0  0  0  0  0  0  0  0
   -3.3077    1.2720    1.2504 H   0  0  0  0  0  0  0  0  0  0  0  0
   -4.2069    0.5206    3.4138 H   0  0  0  0  0  0  0  0  0  0  0  0
   -5.3427   -3.2391    1.6560 H   0  0  0  0  0  0  0  0  0  0  0  0
   -4.4514   -2.5080   -0.5145 H   0  0  0  0  0  0  0  0  0  0  0  0
  1  2  2  0
  2  3  1  0
  3  4  2  3
  4  5  1  0
  5  6  2  0
  6  7  1  0
  7  8  1  0
  8  9  2  0
  8 10  1  0
  7 11  2  0
 11 12  1  0
 12 13  2  0
 13 14  1  0
  3 15  1  0
 15 16  1  0
 16 17  2  0
 16 18  1  0
 18 19  1  0
 19 20  1  0
 20 21  2  0
 21 22  1  0
 22 23  2  0
 23 24  1  0
 23 25  1  0
 25 26  2  0
 18  2  1  0
 26 20  1  0
 13  5  1  0
  4 27  1  0
  6 28  1  0
 11 29  1  0
 12 30  1  0
 14 31  1  0
 19 32  1  0
 19 33  1  0
 21 34  1  0
 22 35  1  0
 25 36  1  0
 26 37  1  0
M  CHG  2   8   1  10  -1
M  END
$$$$
