
     RDKit          3D

 51 54  0  0  0  0  0  0  0  0999 V2000
    0.8232   -1.5601    0.6969 O   0  0  0  0  0  0  0  0  0  0  0  0
    1.3385   -0.4909    0.3676 C   0  0  0  0  0  0  0  0  0  0  0  0
    0.5304    0.7954    0.1147 C   0  0  0  0  0  0  0  0  0  0  0  0
   -0.9003    0.5412   -0.1440 N   0  0  0  0  0  0  0  0  0  0  0  0
   -1.1260   -0.1629   -1.4251 C   0  0  0  0  0  0  0  0  0  0  0  0
   -2.5545    0.0231   -2.0077 C   0  0  0  0  0  0  0  0  0  0  0  0
   -3.6043    0.2954   -1.0071 N   0  0  0  0  0  0  0  0  0  0  0  0
   -3.8052   -0.8875   -0.1478 C   0  0  0  0  0  0  0  0  0  0  0  0
   -5.1202   -0.8617    0.6086 C   0  0  0  0  0  0  0  0  0  0  0  0
   -5.0981   -0.6744    2.0044 C   0  0  0  0  0  0  0  0  0  0  0  0
   -6.2804   -0.6503    2.7468 C   0  0  0  0  0  0  0  0  0  0  0  0
   -7.5062   -0.8144    2.1076 C   0  0  0  0  0  0  0  0  0  0  0  0
   -7.5476   -1.0099    0.7268 C   0  0  0  0  0  0  0  0  0  0  0  0
   -6.3641   -1.0355   -0.0206 C   0  0  0  0  0  0  0  0  0  0  0  0
   -6.5080   -1.3133   -1.7230 Cl  0  0  0  0  0  0  0  0  0  0  0  0
   -3.2255    1.4962   -0.2296 C   0  0  0  0  0  0  0  0  0  0  0  0
   -1.7008    1.7708   -0.0894 C   0  0  0  0  0  0  0  0  0  0  0  0
    2.6957   -0.2743    0.1987 N   0  0  0  0  0  0  0  0  0  0  0  0
    3.3709   -1.1167    0.8236 N   0  0  0  0  0  0  0  0  0  0  0  0
    4.7552   -0.9896    0.6471 C   0  0  0  0  0  0  0  0  0  0  0  0
    5.6004   -2.0761    0.6781 C   0  0  0  0  0  0  0  0  0  0  0  0
    5.3878   -3.3759    0.8424 O   0  0  0  0  0  0  0  0  0  0  0  0
    6.8714   -1.6082    0.4953 N   0  0  0  0  0  0  0  0  0  0  0  0
    6.8660   -0.2352    0.3617 C   0  0  0  0  0  0  0  0  0  0  0  0
    7.9322    0.6521    0.1671 C   0  0  0  0  0  0  0  0  0  0  0  0
    7.6366    2.0141    0.0794 C   0  0  0  0  0  0  0  0  0  0  0  0
    6.3259    2.4725    0.1878 C   0  0  0  0  0  0  0  0  0  0  0  0
    5.2700    1.5730    0.3820 C   0  0  0  0  0  0  0  0  0  0  0  0
    5.5366    0.1881    0.4649 C   0  0  0  0  0  0  0  0  0  0  0  0
    0.6401    1.3951    1.0265 H   0  0  0  0  0  0  0  0  0  0  0  0
    0.9825    1.3531   -0.7150 H   0  0  0  0  0  0  0  0  0  0  0  0
   -0.4112    0.1685   -2.1899 H   0  0  0  0  0  0  0  0  0  0  0  0
   -0.9576   -1.2342   -1.2629 H   0  0  0  0  0  0  0  0  0  0  0  0
   -2.5359    0.8735   -2.7053 H   0  0  0  0  0  0  0  0  0  0  0  0
   -2.8223   -0.8456   -2.6225 H   0  0  0  0  0  0  0  0  0  0  0  0
   -3.8052   -1.8048   -0.7502 H   0  0  0  0  0  0  0  0  0  0  0  0
   -2.9772   -1.0159    0.5591 H   0  0  0  0  0  0  0  0  0  0  0  0
   -4.1489   -0.5436    2.5217 H   0  0  0  0  0  0  0  0  0  0  0  0
   -6.2423   -0.5056    3.8235 H   0  0  0  0  0  0  0  0  0  0  0  0
   -8.4284   -0.7975    2.6827 H   0  0  0  0  0  0  0  0  0  0  0  0
   -8.5084   -1.1465    0.2346 H   0  0  0  0  0  0  0  0  0  0  0  0
   -3.6725    2.3662   -0.7279 H   0  0  0  0  0  0  0  0  0  0  0  0
   -3.6765    1.4760    0.7685 H   0  0  0  0  0  0  0  0  0  0  0  0
   -1.3829    2.4568   -0.8868 H   0  0  0  0  0  0  0  0  0  0  0  0
   -1.5382    2.2878    0.8640 H   0  0  0  0  0  0  0  0  0  0  0  0
    4.4187   -3.4875    0.9269 H   0  0  0  0  0  0  0  0  0  0  0  0
    7.6927   -2.1954    0.4749 H   0  0  0  0  0  0  0  0  0  0  0  0
    8.9562    0.2994    0.0877 H   0  0  0  0  0  0  0  0  0  0  0  0
    8.4437    2.7283   -0.0717 H   0  0  0  0  0  0  0  0  0  0  0  0
    6.1196    3.5391    0.1195 H   0  0  0  0  0  0  0  0  0  0  0  0
    4.2545    1.9476    0.4669 H   0  0  0  0  0  0  0  0  0  0  0  0
  1  2  2  0
  2  3  1  0
  3  4  1  0
  4  5  1  0
  5  6  1  0
  6  7  1  0
  7  8  1  0
  8  9  1  0
  9 10  2  0
 10 11  1  0
 11 12  2  0
 12 13  1  0
 13 14  2  0
 14 15  1  0
  7 16  1  0
 16 17  1  0
  2 18  1  0
 18 19  2  3
 19 20  1  0
 20 21  2  0
 21 22  1  0
 21 23  1  0
 23 24  1  0
 24 25  2  0
 25 26  1  0
 26 27  2  0
 27 28  1  0
 28 29  2  0
 17  4  1  0
 29 20  1  0
 14  9  1  0
 29 24  1  0
  3 30  1  0
  3 31  1  0
  5 32  1  0
  5 33  1  0
  6 34  1  0
  6 35  1  0
  8 36  1  0
  8 37  1  0
 10 38  1  0
 11 39  1  0
 12 40  1  0
 13 41  1  0
 16 42  1  0
 16 43  1  0
 17 44  1  0
 17 45  1  0
 22 46  1  0
 23 47  1  0
 25 48  1  0
 26 49  1  0
 27 50  1  0
 28 51  1  0
M  END
$$$$
