
     RDKit          3D

 57 61  0  0  0  0  0  0  0  0999 V2000
    6.1553    0.7666   -1.0279 C   0  0  0  0  0  0  0  0  0  0  0  0
    4.7160    1.1822   -0.7183 C   0  0  0  0  0  0  0  0  0  0  0  0
    4.6731    2.6591   -0.3290 C   0  0  0  0  0  0  0  0  0  0  0  0
    4.1414    0.3327    0.4192 C   0  0  0  0  0  0  0  0  0  0  0  0
    4.8879   -0.1655    1.2641 O   0  0  0  0  0  0  0  0  0  0  0  0
    2.7573    0.1900    0.4874 N   0  0  0  0  0  0  0  0  0  0  0  0
    1.8335    0.6132   -0.5620 C   0  0  0  0  0  0  0  0  0  0  0  0
    0.3782    0.5368   -0.1083 C   0  0  0  0  0  0  0  0  0  0  0  0
   -0.0228   -0.9099    0.2935 C   0  0  0  0  0  0  0  0  0  0  0  0
    1.1640   -1.5931    1.0451 C   0  0  0  0  0  0  0  0  0  0  0  0
    2.1835   -0.5938    1.5805 C   0  0  0  0  0  0  0  0  0  0  0  0
   -0.2264   -1.5904   -0.9753 O   0  0  0  0  0  0  0  0  0  0  0  0
   -0.8046   -2.8263   -0.9052 C   0  0  0  0  0  0  0  0  0  0  0  0
   -0.6362   -3.6476   -2.0196 C   0  0  0  0  0  0  0  0  0  0  0  0
   -1.1786   -4.9348   -2.0273 C   0  0  0  0  0  0  0  0  0  0  0  0
   -1.8938   -5.3945   -0.9213 C   0  0  0  0  0  0  0  0  0  0  0  0
   -2.5593   -6.9799   -0.9366 Cl  0  0  0  0  0  0  0  0  0  0  0  0
   -2.0801   -4.5755    0.1893 C   0  0  0  0  0  0  0  0  0  0  0  0
   -1.5391   -3.2855    0.1864 C   0  0  0  0  0  0  0  0  0  0  0  0
   -1.7648   -2.3795    1.3279 C   0  0  0  0  0  0  0  0  0  0  0  0
   -2.3125   -2.8057    2.3394 O   0  0  0  0  0  0  0  0  0  0  0  0
   -1.3411   -0.9288    1.1188 C   0  0  0  0  0  0  0  0  0  0  0  0
   -2.5261   -0.1930    0.5034 C   0  0  0  0  0  0  0  0  0  0  0  0
   -2.5482    1.0101    1.3794 C   0  0  0  0  0  0  0  0  0  0  0  0
   -3.3995    2.1854    1.0799 C   0  0  0  0  0  0  0  0  0  0  0  0
   -3.2945    3.3229    1.8923 C   0  0  0  0  0  0  0  0  0  0  0  0
   -4.0793    4.4500    1.6335 C   0  0  0  0  0  0  0  0  0  0  0  0
   -4.9711    4.4403    0.5639 C   0  0  0  0  0  0  0  0  0  0  0  0
   -5.9369    5.8261    0.2413 Cl  0  0  0  0  0  0  0  0  0  0  0  0
   -5.0863    3.3122   -0.2475 C   0  0  0  0  0  0  0  0  0  0  0  0
   -4.3018    2.1826    0.0093 C   0  0  0  0  0  0  0  0  0  0  0  0
   -1.7706    0.9469    2.4113 N   0  0  0  0  0  0  0  0  0  0  0  0
   -1.1323   -0.3133    2.3945 O   0  0  0  0  0  0  0  0  0  0  0  0
    6.5472    1.3318   -1.8800 H   0  0  0  0  0  0  0  0  0  0  0  0
    6.2053   -0.2991   -1.2767 H   0  0  0  0  0  0  0  0  0  0  0  0
    6.8196    0.9393   -0.1739 H   0  0  0  0  0  0  0  0  0  0  0  0
    4.1327    1.0208   -1.6301 H   0  0  0  0  0  0  0  0  0  0  0  0
    3.6600    2.9871   -0.0789 H   0  0  0  0  0  0  0  0  0  0  0  0
    5.2980    2.8522    0.5505 H   0  0  0  0  0  0  0  0  0  0  0  0
    5.0381    3.2870   -1.1485 H   0  0  0  0  0  0  0  0  0  0  0  0
    2.0024   -0.0318   -1.4322 H   0  0  0  0  0  0  0  0  0  0  0  0
    2.0644    1.6382   -0.8625 H   0  0  0  0  0  0  0  0  0  0  0  0
    0.2526    1.2294    0.7309 H   0  0  0  0  0  0  0  0  0  0  0  0
   -0.2537    0.8972   -0.9287 H   0  0  0  0  0  0  0  0  0  0  0  0
    1.6838   -2.2856    0.3692 H   0  0  0  0  0  0  0  0  0  0  0  0
    0.8059   -2.2018    1.8830 H   0  0  0  0  0  0  0  0  0  0  0  0
    1.7165    0.1067    2.2824 H   0  0  0  0  0  0  0  0  0  0  0  0
    2.9616   -1.1293    2.1335 H   0  0  0  0  0  0  0  0  0  0  0  0
   -0.0710   -3.2941   -2.8790 H   0  0  0  0  0  0  0  0  0  0  0  0
   -1.0365   -5.5747   -2.8952 H   0  0  0  0  0  0  0  0  0  0  0  0
   -2.6473   -4.9325    1.0465 H   0  0  0  0  0  0  0  0  0  0  0  0
   -3.4753   -0.7279    0.6197 H   0  0  0  0  0  0  0  0  0  0  0  0
   -2.3861    0.0598   -0.5499 H   0  0  0  0  0  0  0  0  0  0  0  0
   -2.6034    3.3399    2.7337 H   0  0  0  0  0  0  0  0  0  0  0  0
   -3.9900    5.3261    2.2710 H   0  0  0  0  0  0  0  0  0  0  0  0
   -5.7876    3.3053   -1.0785 H   0  0  0  0  0  0  0  0  0  0  0  0
   -4.4213    1.3160   -0.6341 H   0  0  0  0  0  0  0  0  0  0  0  0
  1  2  1  0
  2  3  1  0
  2  4  1  0
  4  5  2  0
  4  6  1  0
  6  7  1  0
  7  8  1  0
  8  9  1  0
  9 10  1  0
 10 11  1  0
  9 12  1  0
 12 13  1  0
 13 14  2  0
 14 15  1  0
 15 16  2  0
 16 17  1  0
 16 18  1  0
 18 19  2  0
 19 20  1  0
 20 21  2  0
 20 22  1  0
 22 23  1  0
 23 24  1  0
 24 25  1  0
 25 26  2  0
 26 27  1  0
 27 28  2  0
 28 29  1  0
 28 30  1  0
 30 31  2  0
 24 32  2  0
 32 33  1  0
 11  6  1  0
 19 13  1  0
 33 22  1  0
 22  9  1  0
 31 25  1  0
  1 34  1  0
  1 35  1  0
  1 36  1  0
  2 37  1  0
  3 38  1  0
  3 39  1  0
  3 40  1  0
  7 41  1  0
  7 42  1  0
  8 43  1  0
  8 44  1  0
 10 45  1  0
 10 46  1  0
 11 47  1  0
 11 48  1  0
 14 49  1  0
 15 50  1  0
 18 51  1  0
 23 52  1  0
 23 53  1  0
 26 54  1  0
 27 55  1  0
 30 56  1  0
 31 57  1  0
M  END
$$$$
