
     RDKit          3D

 43 44  0  0  0  0  0  0  0  0999 V2000
   -3.2656    2.9652    2.5630 C   0  0  0  0  0  0  0  0  0  0  0  0
   -2.6699    2.9652    1.1677 C   0  0  0  0  0  0  0  0  0  0  0  0
   -2.8038    1.6665    0.5734 O   0  0  0  0  0  0  0  0  0  0  0  0
   -1.8105    0.7743    0.8493 C   0  0  0  0  0  0  0  0  0  0  0  0
   -0.8461    1.0286    1.5646 O   0  0  0  0  0  0  0  0  0  0  0  0
   -1.9993   -0.5335    0.2064 C   0  0  0  0  0  0  0  0  0  0  0  0
   -0.9924   -1.4926    0.2114 C   0  0  0  0  0  0  0  0  0  0  0  0
    0.2740   -1.3539    0.7654 N   0  0  0  0  0  0  0  0  0  0  0  0
    1.3025   -2.2808    0.7721 C   0  0  0  0  0  0  0  0  0  0  0  0
    1.3095   -3.3978    0.2618 O   0  0  0  0  0  0  0  0  0  0  0  0
    2.5456   -1.7718    1.5094 C   0  0  0  0  0  0  0  0  0  0  0  0
    3.5154   -1.2136    0.6224 O   0  0  0  0  0  0  0  0  0  0  0  0
    3.2332    0.0392    0.1940 C   0  0  0  0  0  0  0  0  0  0  0  0
    2.2637    0.7005    0.5305 O   0  0  0  0  0  0  0  0  0  0  0  0
    4.2729    0.5231   -0.7481 C   0  0  0  0  0  0  0  0  0  0  0  0
    5.3145   -0.2916   -1.1944 C   0  0  0  0  0  0  0  0  0  0  0  0
    6.2319    0.2541   -2.0739 C   0  0  0  0  0  0  0  0  0  0  0  0
    6.1757    1.5265   -2.5221 N   0  0  0  0  0  0  0  0  0  0  0  0
    5.1559    2.2912   -2.0782 C   0  0  0  0  0  0  0  0  0  0  0  0
    4.1880    1.8411   -1.2001 C   0  0  0  0  0  0  0  0  0  0  0  0
   -1.4595   -2.9260   -0.5547 S   0  0  0  0  0  0  0  0  0  0  0  0
   -2.9993   -2.3201   -0.9503 C   0  0  0  0  0  0  0  0  0  0  0  0
   -3.9526   -3.1882   -1.7071 C   0  0  0  0  0  0  0  0  0  0  0  0
   -3.1876   -1.0268   -0.4845 C   0  0  0  0  0  0  0  0  0  0  0  0
   -4.4597   -0.2545   -0.6672 C   0  0  0  0  0  0  0  0  0  0  0  0
   -3.2269    3.9665    3.0012 H   0  0  0  0  0  0  0  0  0  0  0  0
   -4.3079    2.6309    2.5358 H   0  0  0  0  0  0  0  0  0  0  0  0
   -2.7271    2.2753    3.2203 H   0  0  0  0  0  0  0  0  0  0  0  0
   -3.2229    3.6650    0.5325 H   0  0  0  0  0  0  0  0  0  0  0  0
   -1.6251    3.2961    1.1755 H   0  0  0  0  0  0  0  0  0  0  0  0
    0.4805   -0.4249    1.1448 H   0  0  0  0  0  0  0  0  0  0  0  0
    2.2788   -1.0642    2.3042 H   0  0  0  0  0  0  0  0  0  0  0  0
    3.0090   -2.6294    2.0102 H   0  0  0  0  0  0  0  0  0  0  0  0
    5.4179   -1.3239   -0.8789 H   0  0  0  0  0  0  0  0  0  0  0  0
    7.0619   -0.3346   -2.4553 H   0  0  0  0  0  0  0  0  0  0  0  0
    5.1380    3.3080   -2.4607 H   0  0  0  0  0  0  0  0  0  0  0  0
    3.3897    2.5019   -0.8780 H   0  0  0  0  0  0  0  0  0  0  0  0
   -4.2747   -2.6853   -2.6250 H   0  0  0  0  0  0  0  0  0  0  0  0
   -4.8382   -3.3962   -1.0976 H   0  0  0  0  0  0  0  0  0  0  0  0
   -3.5107   -4.1484   -1.9931 H   0  0  0  0  0  0  0  0  0  0  0  0
   -4.8462    0.0828    0.2999 H   0  0  0  0  0  0  0  0  0  0  0  0
   -5.2438   -0.8583   -1.1340 H   0  0  0  0  0  0  0  0  0  0  0  0
   -4.2887    0.6145   -1.3106 H   0  0  0  0  0  0  0  0  0  0  0  0
  1  2  1  0
  2  3  1  0
  3  4  1  0
  4  5  2  0
  4  6  1  0
  6  7  2  0
  7  8  1  0
  8  9  1  0
  9 10  2  0
  9 11  1  0
 11 12  1  0
 12 13  1  0
 13 14  2  0
 13 15  1  0
 15 16  2  0
 16 17  1  0
 17 18  2  0
 18 19  1  0
 19 20  2  0
  7 21  1  0
 21 22  1  0
 22 23  1  0
 22 24  2  0
 24 25  1  0
 24  6  1  0
 20 15  1  0
  1 26  1  0
  1 27  1  0
  1 28  1  0
  2 29  1  0
  2 30  1  0
  8 31  1  0
 11 32  1  0
 11 33  1  0
 16 34  1  0
 17 35  1  0
 19 36  1  0
 20 37  1  0
 23 38  1  0
 23 39  1  0
 23 40  1  0
 25 41  1  0
 25 42  1  0
 25 43  1  0
M  END
$$$$
