
     RDKit          3D

 68 73  0  0  0  0  0  0  0  0999 V2000
   -4.6453    4.9882   -1.6855 C   0  0  0  0  0  0  0  0  0  0  0  0
   -3.6881    3.9517   -1.5082 O   0  0  0  0  0  0  0  0  0  0  0  0
   -3.4934    3.4929   -0.2338 C   0  0  0  0  0  0  0  0  0  0  0  0
   -4.1803    3.9383    0.9121 C   0  0  0  0  0  0  0  0  0  0  0  0
   -3.9008    3.4002    2.1747 C   0  0  0  0  0  0  0  0  0  0  0  0
   -2.9362    2.4196    2.2504 C   0  0  0  0  0  0  0  0  0  0  0  0
   -2.2499    1.9568    1.1260 C   0  0  0  0  0  0  0  0  0  0  0  0
   -2.5175    2.4944   -0.1236 C   0  0  0  0  0  0  0  0  0  0  0  0
   -1.2823    0.8970    1.5558 C   0  0  1  0  0  0  0  0  0  0  0  0
   -1.4930    0.8372    3.0953 C   0  0  0  0  0  0  0  0  0  0  0  0
   -0.9140    0.1506    3.9234 O   0  0  0  0  0  0  0  0  0  0  0  0
   -2.4997    1.7619    3.3926 N   0  0  0  0  0  0  0  0  0  0  0  0
   -1.6101   -0.3826    0.8679 C   0  0  0  0  0  0  0  0  0  0  0  0
   -0.4190   -1.0421    0.5224 C   0  0  0  0  0  0  0  0  0  0  0  0
   -0.7197   -2.1854   -0.1580 C   0  0  0  0  0  0  0  0  0  0  0  0
    0.1205   -3.0162   -0.7729 O   0  0  0  0  0  0  0  0  0  0  0  0
   -2.1260   -2.3107   -0.1500 N   0  0  0  0  0  0  0  0  0  0  0  0
   -2.8658   -3.4400   -0.6262 C   0  0  0  0  0  0  0  0  0  0  0  0
   -4.1358   -3.2780   -1.1933 C   0  0  0  0  0  0  0  0  0  0  0  0
   -4.8438   -4.3879   -1.6629 C   0  0  0  0  0  0  0  0  0  0  0  0
   -4.2959   -5.6649   -1.5605 C   0  0  0  0  0  0  0  0  0  0  0  0
   -3.0409   -5.8373   -0.9811 C   0  0  0  0  0  0  0  0  0  0  0  0
   -2.3275   -4.7314   -0.5124 C   0  0  0  0  0  0  0  0  0  0  0  0
   -2.6659   -1.1391    0.4238 C   0  0  0  0  0  0  0  0  0  0  0  0
   -3.9760   -0.9260    0.5250 O   0  0  0  0  0  0  0  0  0  0  0  0
    0.7501   -0.2643    0.9756 C   0  0  1  0  0  0  0  0  0  0  0  0
    1.9703   -0.1531    0.0679 C   0  0  0  0  0  0  0  0  0  0  0  0
    2.9097    0.8672    0.5857 N   0  0  0  0  0  0  0  0  0  0  0  0
    4.2473    0.8692    0.2264 C   0  0  0  0  0  0  0  0  0  0  0  0
    5.0014    1.8102    0.4386 O   0  0  0  0  0  0  0  0  0  0  0  0
    4.6163   -0.2877   -0.3798 O   0  0  0  0  0  0  0  0  0  0  0  0
    5.9778   -0.4990   -0.8315 C   0  0  0  0  0  0  0  0  0  0  0  0
    6.9642   -0.4858    0.3414 C   0  0  0  0  0  0  0  0  0  0  0  0
    6.3661    0.5074   -1.9201 C   0  0  0  0  0  0  0  0  0  0  0  0
    5.9677   -1.9071   -1.4465 C   0  0  0  0  0  0  0  0  0  0  0  0
    2.3224    2.1384    1.0396 C   0  0  0  0  0  0  0  0  0  0  0  0
    1.0050    1.9827    1.8408 C   0  0  0  0  0  0  0  0  0  0  0  0
    0.1172    1.0878    1.1188 N   0  0  0  0  0  0  0  0  0  0  0  0
   -4.6683    5.2441   -2.7492 H   0  0  0  0  0  0  0  0  0  0  0  0
   -5.6481    4.6511   -1.4026 H   0  0  0  0  0  0  0  0  0  0  0  0
   -4.3591    5.8889   -1.1323 H   0  0  0  0  0  0  0  0  0  0  0  0
   -4.9397    4.7117    0.8491 H   0  0  0  0  0  0  0  0  0  0  0  0
   -4.4278    3.7523    3.0545 H   0  0  0  0  0  0  0  0  0  0  0  0
   -1.9798    2.1474   -1.0021 H   0  0  0  0  0  0  0  0  0  0  0  0
   -2.8242    1.9260    4.3341 H   0  0  0  0  0  0  0  0  0  0  0  0
   -0.3740   -3.5100   -1.4522 H   0  0  0  0  0  0  0  0  0  0  0  0
   -4.5846   -2.2955   -1.3117 H   0  0  0  0  0  0  0  0  0  0  0  0
   -5.8252   -4.2519   -2.1105 H   0  0  0  0  0  0  0  0  0  0  0  0
   -4.8524   -6.5259   -1.9218 H   0  0  0  0  0  0  0  0  0  0  0  0
   -2.6237   -6.8362   -0.8781 H   0  0  0  0  0  0  0  0  0  0  0  0
   -1.3776   -4.9084   -0.0115 H   0  0  0  0  0  0  0  0  0  0  0  0
   -4.1091   -0.0393    0.9038 H   0  0  0  0  0  0  0  0  0  0  0  0
    1.0587   -0.6397    1.9621 H   0  0  0  0  0  0  0  0  0  0  0  0
    1.6923    0.1488   -0.9499 H   0  0  0  0  0  0  0  0  0  0  0  0
    2.4685   -1.1254   -0.0067 H   0  0  0  0  0  0  0  0  0  0  0  0
    6.6200   -1.1454    1.1464 H   0  0  0  0  0  0  0  0  0  0  0  0
    7.9617   -0.8115    0.0265 H   0  0  0  0  0  0  0  0  0  0  0  0
    7.0693    0.5126    0.7770 H   0  0  0  0  0  0  0  0  0  0  0  0
    6.4641    1.5219   -1.5229 H   0  0  0  0  0  0  0  0  0  0  0  0
    5.6001    0.5487   -2.7025 H   0  0  0  0  0  0  0  0  0  0  0  0
    7.3235    0.2444   -2.3830 H   0  0  0  0  0  0  0  0  0  0  0  0
    6.9534   -2.1907   -1.8304 H   0  0  0  0  0  0  0  0  0  0  0  0
    5.2452   -1.9681   -2.2687 H   0  0  0  0  0  0  0  0  0  0  0  0
    5.6565   -2.6534   -0.7060 H   0  0  0  0  0  0  0  0  0  0  0  0
    2.1354    2.7351    0.1372 H   0  0  0  0  0  0  0  0  0  0  0  0
    3.0527    2.6865    1.6456 H   0  0  0  0  0  0  0  0  0  0  0  0
    0.5506    2.9723    1.9606 H   0  0  0  0  0  0  0  0  0  0  0  0
    1.2321    1.5966    2.8416 H   0  0  0  0  0  0  0  0  0  0  0  0
  1  2  1  0
  2  3  1  0
  3  4  2  0
  4  5  1  0
  5  6  2  0
  6  7  1  0
  7  8  2  0
  7  9  1  0
  9 10  1  0
 10 11  2  0
 10 12  1  0
  9 13  1  0
 13 14  1  0
 14 15  2  0
 15 16  1  0
 15 17  1  0
 17 18  1  0
 18 19  2  0
 19 20  1  0
 20 21  2  0
 21 22  1  0
 22 23  2  0
 17 24  1  0
 24 25  1  0
 14 26  1  0
 26 27  1  0
 27 28  1  0
 28 29  1  0
 29 30  2  0
 29 31  1  0
 31 32  1  0
 32 33  1  0
 32 34  1  0
 32 35  1  0
 28 36  1  0
 36 37  1  0
 37 38  1  0
  8  3  1  0
  9 38  1  1
 12  6  1  0
 24 13  2  0
 38 26  1  0
 23 18  1  0
  1 39  1  0
  1 40  1  0
  1 41  1  0
  4 42  1  0
  5 43  1  0
  8 44  1  0
 12 45  1  0
 16 46  1  0
 19 47  1  0
 20 48  1  0
 21 49  1  0
 22 50  1  0
 23 51  1  0
 25 52  1  0
 26 53  1  1
 27 54  1  0
 27 55  1  0
 33 56  1  0
 33 57  1  0
 33 58  1  0
 34 59  1  0
 34 60  1  0
 34 61  1  0
 35 62  1  0
 35 63  1  0
 35 64  1  0
 36 65  1  0
 36 66  1  0
 37 67  1  0
 37 68  1  0
M  END
$$$$
