
     RDKit          3D

 42 45  0  0  0  0  0  0  0  0999 V2000
    5.6786    0.8564   -1.8961 C   0  0  0  0  0  0  0  0  0  0  0  0
    5.6816    0.1327   -0.6346 N   0  0  0  0  0  0  0  0  0  0  0  0
    6.6279    0.6074    0.3640 C   0  0  0  0  0  0  0  0  0  0  0  0
    5.0149   -1.0955   -0.5784 C   0  0  0  0  0  0  0  0  0  0  0  0
    4.4439   -1.5552   -1.5703 O   0  0  0  0  0  0  0  0  0  0  0  0
    5.0588   -1.8384    0.7566 C   0  0  0  0  0  0  0  0  0  0  0  0
    3.9105   -3.2445    0.8233 S   0  0  0  0  0  0  0  0  0  0  0  0
    2.3831   -2.3920    0.7285 C   0  0  0  0  0  0  0  0  0  0  0  0
    2.2589   -1.1573    1.1580 N   0  0  0  0  0  0  0  0  0  0  0  0
    0.9582   -0.7303    0.9604 C   0  0  0  0  0  0  0  0  0  0  0  0
    0.4463    0.5377    1.2749 C   0  0  0  0  0  0  0  0  0  0  0  0
   -0.9039    0.8314    1.0185 C   0  0  0  0  0  0  0  0  0  0  0  0
   -1.7819   -0.1059    0.4536 C   0  0  0  0  0  0  0  0  0  0  0  0
   -3.1559    0.2173    0.2005 N   0  0  0  0  0  0  0  0  0  0  0  0
   -4.1096   -0.6724   -0.2593 C   0  0  0  0  0  0  0  0  0  0  0  0
   -4.0580   -1.8588   -0.5310 O   0  0  0  0  0  0  0  0  0  0  0  0
   -5.3643    0.0603   -0.3855 C   0  0  0  0  0  0  0  0  0  0  0  0
   -6.6115   -0.3656   -0.8039 C   0  0  0  0  0  0  0  0  0  0  0  0
   -7.6414    0.5798   -0.8191 C   0  0  0  0  0  0  0  0  0  0  0  0
   -7.4033    1.9101   -0.4196 C   0  0  0  0  0  0  0  0  0  0  0  0
   -6.1320    2.3129    0.0004 C   0  0  0  0  0  0  0  0  0  0  0  0
   -5.1321    1.3580    0.0054 C   0  0  0  0  0  0  0  0  0  0  0  0
   -3.7262    1.4645    0.3797 C   0  0  0  0  0  0  0  0  0  0  0  0
   -3.2668    2.5285    0.7558 O   0  0  0  0  0  0  0  0  0  0  0  0
   -1.2620   -1.3771    0.1421 C   0  0  0  0  0  0  0  0  0  0  0  0
    0.0949   -1.6667    0.3982 C   0  0  0  0  0  0  0  0  0  0  0  0
    0.9671   -3.1244    0.1103 S   0  0  0  0  0  0  0  0  0  0  0  0
    6.6111    0.6399   -2.4258 H   0  0  0  0  0  0  0  0  0  0  0  0
    4.8343    0.5690   -2.5286 H   0  0  0  0  0  0  0  0  0  0  0  0
    5.6115    1.9292   -1.6945 H   0  0  0  0  0  0  0  0  0  0  0  0
    6.4600    1.6753    0.5331 H   0  0  0  0  0  0  0  0  0  0  0  0
    6.5395    0.0862    1.3170 H   0  0  0  0  0  0  0  0  0  0  0  0
    7.6413    0.4552   -0.0213 H   0  0  0  0  0  0  0  0  0  0  0  0
    6.0720   -2.2283    0.8967 H   0  0  0  0  0  0  0  0  0  0  0  0
    4.8234   -1.1589    1.5805 H   0  0  0  0  0  0  0  0  0  0  0  0
    1.0976    1.2880    1.7134 H   0  0  0  0  0  0  0  0  0  0  0  0
   -1.2295    1.8309    1.2931 H   0  0  0  0  0  0  0  0  0  0  0  0
   -6.7800   -1.3938   -1.1094 H   0  0  0  0  0  0  0  0  0  0  0  0
   -8.6386    0.2869   -1.1432 H   0  0  0  0  0  0  0  0  0  0  0  0
   -8.2190    2.6308   -0.4402 H   0  0  0  0  0  0  0  0  0  0  0  0
   -5.9339    3.3345    0.3092 H   0  0  0  0  0  0  0  0  0  0  0  0
   -1.8657   -2.1576   -0.3067 H   0  0  0  0  0  0  0  0  0  0  0  0
  1  2  1  0
  2  3  1  0
  2  4  1  0
  4  5  2  0
  4  6  1  0
  6  7  1  0
  7  8  1  0
  8  9  2  0
  9 10  1  0
 10 11  2  0
 11 12  1  0
 12 13  2  0
 13 14  1  0
 14 15  1  0
 15 16  2  0
 15 17  1  0
 17 18  2  0
 18 19  1  0
 19 20  2  0
 20 21  1  0
 21 22  2  0
 22 23  1  0
 23 24  2  0
 13 25  1  0
 25 26  2  0
 26 27  1  0
 27  8  1  0
 26 10  1  0
 23 14  1  0
 22 17  1  0
  1 28  1  0
  1 29  1  0
  1 30  1  0
  3 31  1  0
  3 32  1  0
  3 33  1  0
  6 34  1  0
  6 35  1  0
 11 36  1  0
 12 37  1  0
 18 38  1  0
 19 39  1  0
 20 40  1  0
 21 41  1  0
 25 42  1  0
M  END
$$$$
