
     RDKit          3D

 52 54  0  0  0  0  0  0  0  0999 V2000
    6.7953   -1.5540   -2.0914 C   0  0  0  0  0  0  0  0  0  0  0  0
    6.4135   -0.6226   -1.0398 N   0  0  0  0  0  0  0  0  0  0  0  0
    7.0855    0.6817   -1.0250 C   0  0  0  0  0  0  0  0  0  0  0  0
    6.3943    1.7153   -1.9153 C   0  0  0  0  0  0  0  0  0  0  0  0
    7.1529    2.9700   -1.9212 C   0  0  0  0  0  0  0  0  0  0  0  0
    7.7713    3.9517   -1.9354 N   0  0  0  0  0  0  0  0  0  0  0  0
    5.2430   -0.7472   -0.2905 C   0  0  0  0  0  0  0  0  0  0  0  0
    4.8735    0.1479    0.4748 O   0  0  0  0  0  0  0  0  0  0  0  0
    4.4296   -2.0419   -0.4419 C   0  0  0  0  0  0  0  0  0  0  0  0
    3.1179   -1.9239    0.1153 O   0  0  0  0  0  0  0  0  0  0  0  0
    2.2812   -1.1574   -0.6279 C   0  0  0  0  0  0  0  0  0  0  0  0
    2.5288   -0.6971   -1.7315 O   0  0  0  0  0  0  0  0  0  0  0  0
    0.9830   -0.9611    0.0722 C   0  0  0  0  0  0  0  0  0  0  0  0
    0.7836   -1.3727    1.4146 C   0  0  0  0  0  0  0  0  0  0  0  0
   -0.4462   -1.1734    2.0555 C   0  0  0  0  0  0  0  0  0  0  0  0
   -1.4458   -0.5574    1.3288 C   0  0  0  0  0  0  0  0  0  0  0  0
   -1.2554   -0.1517    0.0226 C   0  0  0  0  0  0  0  0  0  0  0  0
   -0.0556   -0.3370   -0.6377 C   0  0  0  0  0  0  0  0  0  0  0  0
   -2.5075    0.4418   -0.4388 C   0  0  0  0  0  0  0  0  0  0  0  0
   -2.6852    0.8415   -1.5734 O   0  0  0  0  0  0  0  0  0  0  0  0
   -3.3750    0.4143    0.6230 N   0  0  0  0  0  0  0  0  0  0  0  0
   -4.7697    0.8453    0.5214 C   0  0  0  0  0  0  0  0  0  0  0  0
   -5.7065   -0.3630    0.3545 C   0  0  0  0  0  0  0  0  0  0  0  0
   -7.1634    0.0503    0.5177 C   0  0  0  0  0  0  0  0  0  0  0  0
   -7.4492    0.6437    1.8979 C   0  0  0  0  0  0  0  0  0  0  0  0
   -6.2028    1.1500    2.6228 C   0  0  0  0  0  0  0  0  0  0  0  0
   -5.1960    1.7845    1.6681 C   0  0  0  0  0  0  0  0  0  0  0  0
   -2.8186   -0.2225    1.7009 C   0  0  0  0  0  0  0  0  0  0  0  0
   -3.3075   -0.5130    2.7753 O   0  0  0  0  0  0  0  0  0  0  0  0
    7.8770   -1.5120   -2.2473 H   0  0  0  0  0  0  0  0  0  0  0  0
    6.2759   -1.2759   -3.0126 H   0  0  0  0  0  0  0  0  0  0  0  0
    6.5310   -2.5789   -1.8216 H   0  0  0  0  0  0  0  0  0  0  0  0
    8.1308    0.5362   -1.3242 H   0  0  0  0  0  0  0  0  0  0  0  0
    7.1104    1.0471    0.0099 H   0  0  0  0  0  0  0  0  0  0  0  0
    5.3718    1.8996   -1.5674 H   0  0  0  0  0  0  0  0  0  0  0  0
    6.3127    1.3312   -2.9388 H   0  0  0  0  0  0  0  0  0  0  0  0
    4.9496   -2.8298    0.1127 H   0  0  0  0  0  0  0  0  0  0  0  0
    4.3541   -2.3519   -1.4892 H   0  0  0  0  0  0  0  0  0  0  0  0
    1.5909   -1.8453    1.9724 H   0  0  0  0  0  0  0  0  0  0  0  0
   -0.6096   -1.4857    3.0825 H   0  0  0  0  0  0  0  0  0  0  0  0
    0.0686   -0.0079   -1.6660 H   0  0  0  0  0  0  0  0  0  0  0  0
   -4.8409    1.4363   -0.4021 H   0  0  0  0  0  0  0  0  0  0  0  0
   -5.5541   -0.8107   -0.6352 H   0  0  0  0  0  0  0  0  0  0  0  0
   -5.4688   -1.1478    1.0836 H   0  0  0  0  0  0  0  0  0  0  0  0
   -7.4127    0.7922   -0.2515 H   0  0  0  0  0  0  0  0  0  0  0  0
   -7.8219   -0.8081    0.3426 H   0  0  0  0  0  0  0  0  0  0  0  0
   -8.1706    1.4625    1.7862 H   0  0  0  0  0  0  0  0  0  0  0  0
   -7.9401   -0.1077    2.5284 H   0  0  0  0  0  0  0  0  0  0  0  0
   -5.7316    0.3146    3.1528 H   0  0  0  0  0  0  0  0  0  0  0  0
   -6.4967    1.8737    3.3918 H   0  0  0  0  0  0  0  0  0  0  0  0
   -4.3283    2.1522    2.2282 H   0  0  0  0  0  0  0  0  0  0  0  0
   -5.6667    2.6740    1.2278 H   0  0  0  0  0  0  0  0  0  0  0  0
  1  2  1  0
  2  3  1  0
  3  4  1  0
  4  5  1  0
  5  6  3  0
  2  7  1  0
  7  8  2  0
  7  9  1  0
  9 10  1  0
 10 11  1  0
 11 12  2  0
 11 13  1  0
 13 14  2  0
 14 15  1  0
 15 16  2  0
 16 17  1  0
 17 18  2  0
 17 19  1  0
 19 20  2  0
 19 21  1  0
 21 22  1  0
 22 23  1  0
 23 24  1  0
 24 25  1  0
 25 26  1  0
 26 27  1  0
 21 28  1  0
 28 29  2  0
 18 13  1  0
 27 22  1  0
 28 16  1  0
  1 30  1  0
  1 31  1  0
  1 32  1  0
  3 33  1  0
  3 34  1  0
  4 35  1  0
  4 36  1  0
  9 37  1  0
  9 38  1  0
 14 39  1  0
 15 40  1  0
 18 41  1  0
 22 42  1  0
 23 43  1  0
 23 44  1  0
 24 45  1  0
 24 46  1  0
 25 47  1  0
 25 48  1  0
 26 49  1  0
 26 50  1  0
 27 51  1  0
 27 52  1  0
M  END
$$$$
