
     RDKit          3D

 49 52  0  0  0  0  0  0  0  0999 V2000
   -3.5636    3.4149    1.7783 C   0  0  0  0  0  0  0  0  0  0  0  0
   -3.3479    1.9134    1.7787 C   0  0  0  0  0  0  0  0  0  0  0  0
   -2.4903    1.5383    0.6917 O   0  0  0  0  0  0  0  0  0  0  0  0
   -3.1046    1.2833   -0.4948 C   0  0  0  0  0  0  0  0  0  0  0  0
   -4.3045    1.4157   -0.7077 O   0  0  0  0  0  0  0  0  0  0  0  0
   -2.1150    0.8901   -1.5701 C   0  0  0  0  0  0  0  0  0  0  0  0
   -0.9576    0.0296   -1.0989 C   0  0  0  0  0  0  0  0  0  0  0  0
    0.2824    0.7041   -1.0336 C   0  0  0  0  0  0  0  0  0  0  0  0
    1.4117    0.0511   -0.5804 C   0  0  0  0  0  0  0  0  0  0  0  0
    2.7406    0.6892   -0.4828 C   0  0  0  0  0  0  0  0  0  0  0  0
    3.6522    0.3001    0.5159 C   0  0  0  0  0  0  0  0  0  0  0  0
    4.9174    0.8923    0.6352 C   0  0  0  0  0  0  0  0  0  0  0  0
    5.3068    1.8917   -0.2516 C   0  0  0  0  0  0  0  0  0  0  0  0
    6.5042    2.5512   -0.2501 O   0  0  0  0  0  0  0  0  0  0  0  0
    7.4456    2.1677    0.7445 C   0  0  0  0  0  0  0  0  0  0  0  0
    4.4225    2.2862   -1.2551 C   0  0  0  0  0  0  0  0  0  0  0  0
    3.1593    1.6931   -1.3721 C   0  0  0  0  0  0  0  0  0  0  0  0
    1.3402   -1.2290   -0.1762 N   0  0  0  0  0  0  0  0  0  0  0  0
    0.1751   -1.8877   -0.2326 C   0  0  0  0  0  0  0  0  0  0  0  0
    0.2557   -3.1854    0.2202 C   0  0  0  0  0  0  0  0  0  0  0  0
   -0.8439   -4.0286    0.2459 C   0  0  0  0  0  0  0  0  0  0  0  0
   -2.0785   -3.5860   -0.2067 C   0  0  0  0  0  0  0  0  0  0  0  0
   -3.1520   -4.4934   -0.1630 C   0  0  0  0  0  0  0  0  0  0  0  0
   -4.4154   -4.1347   -0.6092 C   0  0  0  0  0  0  0  0  0  0  0  0
   -4.6088   -2.8630   -1.1106 C   0  0  0  0  0  0  0  0  0  0  0  0
   -3.5403   -1.9561   -1.1559 C   0  0  0  0  0  0  0  0  0  0  0  0
   -2.2280   -2.2583   -0.6982 C   0  0  0  0  0  0  0  0  0  0  0  0
   -1.0575   -1.3538   -0.6982 C   0  0  0  0  0  0  0  0  0  0  0  0
   -2.6041    3.9410    1.8182 H   0  0  0  0  0  0  0  0  0  0  0  0
   -4.1695    3.7200    2.6361 H   0  0  0  0  0  0  0  0  0  0  0  0
   -4.0665    3.7393    0.8619 H   0  0  0  0  0  0  0  0  0  0  0  0
   -4.2996    1.3709    1.7416 H   0  0  0  0  0  0  0  0  0  0  0  0
   -2.8428    1.6139    2.7028 H   0  0  0  0  0  0  0  0  0  0  0  0
   -1.7452    1.8340   -1.9929 H   0  0  0  0  0  0  0  0  0  0  0  0
   -2.6187    0.4001   -2.4076 H   0  0  0  0  0  0  0  0  0  0  0  0
    0.3476    1.7524   -1.3114 H   0  0  0  0  0  0  0  0  0  0  0  0
    3.3734   -0.4815    1.2221 H   0  0  0  0  0  0  0  0  0  0  0  0
    5.5670    0.5438    1.4307 H   0  0  0  0  0  0  0  0  0  0  0  0
    7.0596    2.3645    1.7501 H   0  0  0  0  0  0  0  0  0  0  0  0
    7.7359    1.1180    0.6300 H   0  0  0  0  0  0  0  0  0  0  0  0
    8.3435    2.7779    0.6076 H   0  0  0  0  0  0  0  0  0  0  0  0
    4.7206    3.0589   -1.9597 H   0  0  0  0  0  0  0  0  0  0  0  0
    2.5167    2.0190   -2.1864 H   0  0  0  0  0  0  0  0  0  0  0  0
    1.2141   -3.5625    0.5731 H   0  0  0  0  0  0  0  0  0  0  0  0
   -0.7112   -5.0413    0.6210 H   0  0  0  0  0  0  0  0  0  0  0  0
   -3.0089   -5.5016    0.2225 H   0  0  0  0  0  0  0  0  0  0  0  0
   -5.2365   -4.8444   -0.5701 H   0  0  0  0  0  0  0  0  0  0  0  0
   -5.5886   -2.5610   -1.4733 H   0  0  0  0  0  0  0  0  0  0  0  0
   -3.7927   -0.9974   -1.5820 H   0  0  0  0  0  0  0  0  0  0  0  0
  1  2  1  0
  2  3  1  0
  3  4  1  0
  4  5  2  0
  4  6  1  0
  6  7  1  0
  7  8  2  0
  8  9  1  0
  9 10  1  0
 10 11  2  0
 11 12  1  0
 12 13  2  0
 13 14  1  0
 14 15  1  0
 13 16  1  0
 16 17  2  0
  9 18  2  0
 18 19  1  0
 19 20  2  0
 20 21  1  0
 21 22  2  0
 22 23  1  0
 23 24  2  0
 24 25  1  0
 25 26  2  0
 26 27  1  0
 27 28  2  0
 28  7  1  0
 17 10  1  0
 28 19  1  0
 27 22  1  0
  1 29  1  0
  1 30  1  0
  1 31  1  0
  2 32  1  0
  2 33  1  0
  6 34  1  0
  6 35  1  0
  8 36  1  0
 11 37  1  0
 12 38  1  0
 15 39  1  0
 15 40  1  0
 15 41  1  0
 16 42  1  0
 17 43  1  0
 20 44  1  0
 21 45  1  0
 23 46  1  0
 24 47  1  0
 25 48  1  0
 26 49  1  0
M  END
$$$$
