
     RDKit          3D

 24 26  0  0  0  0  0  0  0  0999 V2000
   -3.3155    2.2534    0.6771 N   0  0  0  0  0  0  0  0  0  0  0  0
   -2.6302    1.0896    0.4030 C   0  0  0  0  0  0  0  0  0  0  0  0
   -3.3389   -0.0343    0.3033 N   0  0  0  0  0  0  0  0  0  0  0  0
   -2.6450   -1.1566    0.0477 C   0  0  0  0  0  0  0  0  0  0  0  0
   -1.2734   -1.1984   -0.0846 C   0  0  0  0  0  0  0  0  0  0  0  0
   -0.6269    0.0184    0.0457 C   0  0  0  0  0  0  0  0  0  0  0  0
   -1.3030    1.1640    0.2964 N   0  0  0  0  0  0  0  0  0  0  0  0
    0.8417    0.1437   -0.0670 C   0  0  0  0  0  0  0  0  0  0  0  0
    1.4443    1.3995   -0.2894 C   0  0  0  0  0  0  0  0  0  0  0  0
    2.8304    1.5317   -0.3734 C   0  0  0  0  0  0  0  0  0  0  0  0
    3.5281    3.0803   -0.6471 Cl  0  0  0  0  0  0  0  0  0  0  0  0
    3.6532    0.4205   -0.2339 C   0  0  0  0  0  0  0  0  0  0  0  0
    3.0837   -0.8325   -0.0123 C   0  0  0  0  0  0  0  0  0  0  0  0
    1.6898   -0.9775    0.0622 C   0  0  0  0  0  0  0  0  0  0  0  0
    1.0518   -2.6218    0.3707 S   0  0  0  0  0  0  0  0  0  0  0  0
   -0.5596   -2.4570   -0.4425 C   0  0  0  0  0  0  0  0  0  0  0  0
   -2.7041    2.9106    1.1402 H   0  0  0  0  0  0  0  0  0  0  0  0
   -4.1908    2.0341    1.1313 H   0  0  0  0  0  0  0  0  0  0  0  0
   -3.2547   -2.0506   -0.0546 H   0  0  0  0  0  0  0  0  0  0  0  0
    0.8213    2.2865   -0.3962 H   0  0  0  0  0  0  0  0  0  0  0  0
    4.7336    0.5210   -0.2929 H   0  0  0  0  0  0  0  0  0  0  0  0
    3.7358   -1.6963    0.1017 H   0  0  0  0  0  0  0  0  0  0  0  0
   -1.1544   -3.3313   -0.1570 H   0  0  0  0  0  0  0  0  0  0  0  0
   -0.4171   -2.4969   -1.5284 H   0  0  0  0  0  0  0  0  0  0  0  0
  1  2  1  0
  2  3  2  0
  3  4  1  0
  4  5  2  0
  5  6  1  0
  6  7  2  0
  6  8  1  0
  8  9  2  0
  9 10  1  0
 10 11  1  0
 10 12  2  0
 12 13  1  0
 13 14  2  0
 14 15  1  0
 15 16  1  0
  7  2  1  0
 14  8  1  0
 16  5  1  0
  1 17  1  0
  1 18  1  0
  4 19  1  0
  9 20  1  0
 12 21  1  0
 13 22  1  0
 16 23  1  0
 16 24  1  0
M  END
$$$$
