
     RDKit          3D

 37 39  0  0  0  0  0  0  0  0999 V2000
    6.1966    0.2893    0.3530 C   0  0  0  0  0  0  0  0  0  0  0  0
    4.8447   -0.2165    0.7628 C   0  0  0  0  0  0  0  0  0  0  0  0
    4.6368   -0.7306    2.0485 C   0  0  0  0  0  0  0  0  0  0  0  0
    3.3754   -1.1903    2.4365 C   0  0  0  0  0  0  0  0  0  0  0  0
    2.3057   -1.1189    1.5447 C   0  0  0  0  0  0  0  0  0  0  0  0
    1.0835   -1.6020    1.9172 O   0  0  0  0  0  0  0  0  0  0  0  0
    2.4873   -0.5701    0.2716 C   0  0  0  0  0  0  0  0  0  0  0  0
    1.3913   -0.4645   -0.7190 C   0  0  0  0  0  0  0  0  0  0  0  0
    1.6126   -0.7958   -1.8827 O   0  0  0  0  0  0  0  0  0  0  0  0
    0.0539    0.0659   -0.3677 C   0  0  0  0  0  0  0  0  0  0  0  0
   -0.1536    0.9453    0.6871 C   0  0  0  0  0  0  0  0  0  0  0  0
   -1.3638    1.4649    1.0149 N   0  0  0  0  0  0  0  0  0  0  0  0
   -2.4065    1.1039    0.2404 C   0  0  0  0  0  0  0  0  0  0  0  0
   -2.3064    0.2457   -0.8398 C   0  0  0  0  0  0  0  0  0  0  0  0
   -1.0502   -0.2828   -1.1486 C   0  0  0  0  0  0  0  0  0  0  0  0
   -3.5445   -0.1472   -1.5694 C   0  0  0  0  0  0  0  0  0  0  0  0
   -4.6588    0.7582   -1.3489 N   0  0  0  0  0  0  0  0  0  0  0  0
   -5.8473    0.5416   -2.1519 C   0  0  0  0  0  0  0  0  0  0  0  0
   -4.7683    1.5005   -0.1899 C   0  0  0  0  0  0  0  0  0  0  0  0
   -5.8058    2.0565    0.1654 O   0  0  0  0  0  0  0  0  0  0  0  0
   -3.6417    1.6321    0.5595 N   0  0  0  0  0  0  0  0  0  0  0  0
    3.7606   -0.1336   -0.1205 C   0  0  0  0  0  0  0  0  0  0  0  0
    6.3543    0.1546   -0.7222 H   0  0  0  0  0  0  0  0  0  0  0  0
    6.9918   -0.2592    0.8688 H   0  0  0  0  0  0  0  0  0  0  0  0
    6.2866    1.3529    0.5941 H   0  0  0  0  0  0  0  0  0  0  0  0
    5.4637   -0.7875    2.7543 H   0  0  0  0  0  0  0  0  0  0  0  0
    3.2514   -1.6021    3.4339 H   0  0  0  0  0  0  0  0  0  0  0  0
    1.1531   -2.0161    2.7946 H   0  0  0  0  0  0  0  0  0  0  0  0
    0.6594    1.2850    1.3215 H   0  0  0  0  0  0  0  0  0  0  0  0
   -0.9284   -0.9672   -1.9856 H   0  0  0  0  0  0  0  0  0  0  0  0
   -3.3438   -0.1712   -2.6467 H   0  0  0  0  0  0  0  0  0  0  0  0
   -3.8567   -1.1465   -1.2438 H   0  0  0  0  0  0  0  0  0  0  0  0
   -6.5676    1.3546   -2.0246 H   0  0  0  0  0  0  0  0  0  0  0  0
   -6.3141   -0.3983   -1.8427 H   0  0  0  0  0  0  0  0  0  0  0  0
   -5.5651    0.4843   -3.2071 H   0  0  0  0  0  0  0  0  0  0  0  0
   -3.6894    2.2374    1.3646 H   0  0  0  0  0  0  0  0  0  0  0  0
    3.9033    0.2696   -1.1224 H   0  0  0  0  0  0  0  0  0  0  0  0
  1  2  1  0
  2  3  2  0
  3  4  1  0
  4  5  2  0
  5  6  1  0
  5  7  1  0
  7  8  1  0
  8  9  2  0
  8 10  1  0
 10 11  2  0
 11 12  1  0
 12 13  2  0
 13 14  1  0
 14 15  2  0
 14 16  1  0
 16 17  1  0
 17 18  1  0
 17 19  1  0
 19 20  2  0
 19 21  1  0
  7 22  2  0
 22  2  1  0
 15 10  1  0
 21 13  1  0
  1 23  1  0
  1 24  1  0
  1 25  1  0
  3 26  1  0
  4 27  1  0
  6 28  1  0
 11 29  1  0
 15 30  1  0
 16 31  1  0
 16 32  1  0
 18 33  1  0
 18 34  1  0
 18 35  1  0
 21 36  1  0
 22 37  1  0
M  END
$$$$
