
     RDKit          3D

 66 68  0  0  0  0  0  0  0  0999 V2000
   -5.9412    6.0066    2.6534 C   0  0  0  0  0  0  0  0  0  0  0  0
   -4.9752    6.0430    1.6109 O   0  0  0  0  0  0  0  0  0  0  0  0
   -4.4597    4.7403    1.3284 C   0  0  0  0  0  0  0  0  0  0  0  0
   -3.3777    4.8575    0.2526 C   0  0  0  0  0  0  0  0  0  0  0  0
   -2.9565    3.5633   -0.2881 N   0  0  0  0  0  0  0  0  0  0  0  0
   -2.0347    2.6840    0.2539 C   0  0  0  0  0  0  0  0  0  0  0  0
   -1.2346    3.0104    1.6976 S   0  0  0  0  0  0  0  0  0  0  0  0
   -1.8294    1.5254   -0.5300 N   0  0  0  0  0  0  0  0  0  0  0  0
   -2.4183    1.3826   -1.8776 C   0  0  0  0  0  0  0  0  0  0  0  0
   -1.8614    0.2462   -2.7334 C   0  0  0  0  0  0  0  0  0  0  0  0
   -1.8843   -1.0295   -1.9445 C   0  0  0  0  0  0  0  0  0  0  0  0
   -2.2437   -2.2532   -2.5211 C   0  0  0  0  0  0  0  0  0  0  0  0
   -2.2438   -3.4235   -1.7534 C   0  0  0  0  0  0  0  0  0  0  0  0
   -2.5900   -4.6640   -2.2308 O   0  0  0  0  0  0  0  0  0  0  0  0
   -2.9562   -4.7678   -3.5983 C   0  0  0  0  0  0  0  0  0  0  0  0
   -1.8649   -3.3674   -0.3968 C   0  0  0  0  0  0  0  0  0  0  0  0
   -1.8868   -4.5594    0.2857 O   0  0  0  0  0  0  0  0  0  0  0  0
   -1.3910   -4.5633    1.6167 C   0  0  0  0  0  0  0  0  0  0  0  0
   -1.4966   -2.1413    0.1692 C   0  0  0  0  0  0  0  0  0  0  0  0
   -1.5039   -0.9668   -0.5980 C   0  0  0  0  0  0  0  0  0  0  0  0
   -1.0427    0.3626   -0.0034 C   0  0  0  0  0  0  0  0  0  0  0  0
    0.4841    0.5382   -0.2265 C   0  0  0  0  0  0  0  0  0  0  0  0
    1.1909   -0.3469    0.6530 O   0  0  0  0  0  0  0  0  0  0  0  0
    2.5532   -0.3748    0.5482 C   0  0  0  0  0  0  0  0  0  0  0  0
    3.1797   -1.3353    1.3430 C   0  0  0  0  0  0  0  0  0  0  0  0
    4.5703   -1.4725    1.3363 C   0  0  0  0  0  0  0  0  0  0  0  0
    5.3641   -0.6451    0.5315 C   0  0  0  0  0  0  0  0  0  0  0  0
    6.8769   -0.7683    0.5051 C   0  0  0  0  0  0  0  0  0  0  0  0
    7.4892   -0.4623    1.8742 C   0  0  0  0  0  0  0  0  0  0  0  0
    7.3216   -2.1447    0.0042 C   0  0  0  0  0  0  0  0  0  0  0  0
    4.7275    0.3203   -0.2614 C   0  0  0  0  0  0  0  0  0  0  0  0
    3.3337    0.4558   -0.2531 C   0  0  0  0  0  0  0  0  0  0  0  0
   -6.3106    7.0225    2.8158 H   0  0  0  0  0  0  0  0  0  0  0  0
   -6.7844    5.3685    2.3724 H   0  0  0  0  0  0  0  0  0  0  0  0
   -5.4885    5.6468    3.5823 H   0  0  0  0  0  0  0  0  0  0  0  0
   -5.2764    4.1028    0.9689 H   0  0  0  0  0  0  0  0  0  0  0  0
   -4.0527    4.2960    2.2427 H   0  0  0  0  0  0  0  0  0  0  0  0
   -3.7639    5.4373   -0.5940 H   0  0  0  0  0  0  0  0  0  0  0  0
   -2.5132    5.4113    0.6340 H   0  0  0  0  0  0  0  0  0  0  0  0
   -3.6010    3.1859   -0.9635 H   0  0  0  0  0  0  0  0  0  0  0  0
   -2.2942    2.3266   -2.4208 H   0  0  0  0  0  0  0  0  0  0  0  0
   -3.4943    1.2216   -1.7287 H   0  0  0  0  0  0  0  0  0  0  0  0
   -2.4641    0.1545   -3.6442 H   0  0  0  0  0  0  0  0  0  0  0  0
   -0.8315    0.4608   -3.0402 H   0  0  0  0  0  0  0  0  0  0  0  0
   -2.5224   -2.2691   -3.5692 H   0  0  0  0  0  0  0  0  0  0  0  0
   -3.1908   -5.8168   -3.8032 H   0  0  0  0  0  0  0  0  0  0  0  0
   -3.8543   -4.1793   -3.8126 H   0  0  0  0  0  0  0  0  0  0  0  0
   -2.1273   -4.4792   -4.2529 H   0  0  0  0  0  0  0  0  0  0  0  0
   -2.0208   -3.9540    2.2731 H   0  0  0  0  0  0  0  0  0  0  0  0
   -1.4287   -5.5933    1.9841 H   0  0  0  0  0  0  0  0  0  0  0  0
   -0.3464   -4.2362    1.6529 H   0  0  0  0  0  0  0  0  0  0  0  0
   -1.1857   -2.0731    1.2072 H   0  0  0  0  0  0  0  0  0  0  0  0
   -1.2368    0.2987    1.0741 H   0  0  0  0  0  0  0  0  0  0  0  0
    0.7458    0.3180   -1.2688 H   0  0  0  0  0  0  0  0  0  0  0  0
    0.7815    1.5686   -0.0053 H   0  0  0  0  0  0  0  0  0  0  0  0
    2.5800   -1.9856    1.9746 H   0  0  0  0  0  0  0  0  0  0  0  0
    5.0240   -2.2319    1.9683 H   0  0  0  0  0  0  0  0  0  0  0  0
    7.2754   -0.0260   -0.1994 H   0  0  0  0  0  0  0  0  0  0  0  0
    8.5831   -0.4751    1.8179 H   0  0  0  0  0  0  0  0  0  0  0  0
    7.1835    0.5289    2.2270 H   0  0  0  0  0  0  0  0  0  0  0  0
    7.1868   -1.1938    2.6314 H   0  0  0  0  0  0  0  0  0  0  0  0
    6.8921   -2.3606   -0.9804 H   0  0  0  0  0  0  0  0  0  0  0  0
    7.0162   -2.9469    0.6847 H   0  0  0  0  0  0  0  0  0  0  0  0
    8.4122   -2.1861   -0.0896 H   0  0  0  0  0  0  0  0  0  0  0  0
    5.3134    0.9830   -0.8948 H   0  0  0  0  0  0  0  0  0  0  0  0
    2.8953    1.2248   -0.8795 H   0  0  0  0  0  0  0  0  0  0  0  0
  1  2  1  0
  2  3  1  0
  3  4  1  0
  4  5  1  0
  5  6  1  0
  6  7  2  0
  6  8  1  0
  8  9  1  0
  9 10  1  0
 10 11  1  0
 11 12  2  0
 12 13  1  0
 13 14  1  0
 14 15  1  0
 13 16  2  0
 16 17  1  0
 17 18  1  0
 16 19  1  0
 19 20  2  0
 20 21  1  0
 21 22  1  0
 22 23  1  0
 23 24  1  0
 24 25  2  0
 25 26  1  0
 26 27  2  0
 27 28  1  0
 28 29  1  0
 28 30  1  0
 27 31  1  0
 31 32  2  0
 21  8  1  0
 32 24  1  0
 20 11  1  0
  1 33  1  0
  1 34  1  0
  1 35  1  0
  3 36  1  0
  3 37  1  0
  4 38  1  0
  4 39  1  0
  5 40  1  0
  9 41  1  0
  9 42  1  0
 10 43  1  0
 10 44  1  0
 12 45  1  0
 15 46  1  0
 15 47  1  0
 15 48  1  0
 18 49  1  0
 18 50  1  0
 18 51  1  0
 19 52  1  0
 21 53  1  0
 22 54  1  0
 22 55  1  0
 25 56  1  0
 26 57  1  0
 28 58  1  0
 29 59  1  0
 29 60  1  0
 29 61  1  0
 30 62  1  0
 30 63  1  0
 30 64  1  0
 31 65  1  0
 32 66  1  0
M  END
$$$$
