
     RDKit          3D

 34 36  0  0  0  0  0  0  0  0999 V2000
   -2.2481    1.9999    3.1818 C   0  0  0  0  0  0  0  0  0  0  0  0
   -2.6696    1.0787    2.1749 O   0  0  0  0  0  0  0  0  0  0  0  0
   -1.8543    1.0360    1.0908 C   0  0  0  0  0  0  0  0  0  0  0  0
   -0.8550    1.7226    0.9263 O   0  0  0  0  0  0  0  0  0  0  0  0
   -2.3206    0.0134    0.1077 C   0  0  0  0  0  0  0  0  0  0  0  0
   -3.6006   -0.5566    0.2286 C   0  0  0  0  0  0  0  0  0  0  0  0
   -4.0408   -1.5157   -0.6849 C   0  0  0  0  0  0  0  0  0  0  0  0
   -3.2106   -1.9142   -1.7276 C   0  0  0  0  0  0  0  0  0  0  0  0
   -1.9385   -1.3560   -1.8594 C   0  0  0  0  0  0  0  0  0  0  0  0
   -1.4750   -0.3854   -0.9553 C   0  0  0  0  0  0  0  0  0  0  0  0
   -0.1547    0.1130   -1.1202 N   0  0  0  0  0  0  0  0  0  0  0  0
    0.8644   -0.8413   -0.7059 C   0  0  0  0  0  0  0  0  0  0  0  0
    0.7831   -1.1057    0.7065 O   0  0  0  0  0  0  0  0  0  0  0  0
    1.9403   -0.7847    1.3525 C   0  0  0  0  0  0  0  0  0  0  0  0
    2.1757   -0.9373    2.5344 O   0  0  0  0  0  0  0  0  0  0  0  0
    2.8469   -0.2372    0.3549 C   0  0  0  0  0  0  0  0  0  0  0  0
    4.1332    0.2438    0.5267 C   0  0  0  0  0  0  0  0  0  0  0  0
    4.7965    0.7266   -0.6023 C   0  0  0  0  0  0  0  0  0  0  0  0
    4.1637    0.7175   -1.8576 C   0  0  0  0  0  0  0  0  0  0  0  0
    2.8626    0.2232   -1.9988 C   0  0  0  0  0  0  0  0  0  0  0  0
    2.2157   -0.2549   -0.8702 C   0  0  0  0  0  0  0  0  0  0  0  0
   -2.2512    3.0222    2.7907 H   0  0  0  0  0  0  0  0  0  0  0  0
   -1.2559    1.7305    3.5575 H   0  0  0  0  0  0  0  0  0  0  0  0
   -2.9590    1.9441    4.0108 H   0  0  0  0  0  0  0  0  0  0  0  0
   -4.2696   -0.2606    1.0332 H   0  0  0  0  0  0  0  0  0  0  0  0
   -5.0326   -1.9495   -0.5819 H   0  0  0  0  0  0  0  0  0  0  0  0
   -3.5531   -2.6582   -2.4427 H   0  0  0  0  0  0  0  0  0  0  0  0
   -1.3082   -1.6692   -2.6886 H   0  0  0  0  0  0  0  0  0  0  0  0
   -0.0534    0.9532   -0.5343 H   0  0  0  0  0  0  0  0  0  0  0  0
    0.7975   -1.7925   -1.2477 H   0  0  0  0  0  0  0  0  0  0  0  0
    4.6028    0.2476    1.5053 H   0  0  0  0  0  0  0  0  0  0  0  0
    5.8075    1.1178   -0.5110 H   0  0  0  0  0  0  0  0  0  0  0  0
    4.6913    1.1040   -2.7275 H   0  0  0  0  0  0  0  0  0  0  0  0
    2.3695    0.2247   -2.9667 H   0  0  0  0  0  0  0  0  0  0  0  0
  1  2  1  0
  2  3  1  0
  3  4  2  0
  3  5  1  0
  5  6  2  0
  6  7  1  0
  7  8  2  0
  8  9  1  0
  9 10  2  0
 10 11  1  0
 11 12  1  0
 12 13  1  0
 13 14  1  0
 14 15  2  0
 14 16  1  0
 16 17  2  0
 17 18  1  0
 18 19  2  0
 19 20  1  0
 20 21  2  0
 10  5  1  0
 21 12  1  0
 21 16  1  0
  1 22  1  0
  1 23  1  0
  1 24  1  0
  6 25  1  0
  7 26  1  0
  8 27  1  0
  9 28  1  0
 11 29  1  0
 12 30  1  0
 17 31  1  0
 18 32  1  0
 19 33  1  0
 20 34  1  0
M  END
$$$$
