
     RDKit          3D

 40 43  0  0  0  0  0  0  0  0999 V2000
    7.7509    1.2593   -0.6646 C   0  0  0  0  0  0  0  0  0  0  0  0
    6.3253    0.8425   -0.5740 C   0  0  0  0  0  0  0  0  0  0  0  0
    5.4614    0.9381   -1.5601 N   0  0  0  0  0  0  0  0  0  0  0  0
    4.2258    0.4669   -1.1500 C   0  0  0  0  0  0  0  0  0  0  0  0
    3.0605    0.4141   -1.9361 C   0  0  0  0  0  0  0  0  0  0  0  0
    1.8747   -0.0907   -1.3868 C   0  0  0  0  0  0  0  0  0  0  0  0
    1.8243   -0.5449   -0.0652 C   0  0  0  0  0  0  0  0  0  0  0  0
    0.5820   -1.0355    0.3888 N   0  0  0  0  0  0  0  0  0  0  0  0
    0.2590   -1.4856    1.6588 C   0  0  0  0  0  0  0  0  0  0  0  0
    1.0193   -1.5488    2.6211 O   0  0  0  0  0  0  0  0  0  0  0  0
   -1.1760   -1.9844    1.7788 C   0  0  0  0  0  0  0  0  0  0  0  0
   -2.2154   -1.0105    1.2735 C   0  0  0  0  0  0  0  0  0  0  0  0
   -2.3675    0.2445    1.8827 C   0  0  0  0  0  0  0  0  0  0  0  0
   -3.3236    1.1483    1.4143 C   0  0  0  0  0  0  0  0  0  0  0  0
   -4.1387    0.8032    0.3396 C   0  0  0  0  0  0  0  0  0  0  0  0
   -3.9809   -0.4355   -0.2877 C   0  0  0  0  0  0  0  0  0  0  0  0
   -3.0369   -1.3460    0.1870 C   0  0  0  0  0  0  0  0  0  0  0  0
   -4.7223   -0.8299   -1.3721 O   0  0  0  0  0  0  0  0  0  0  0  0
   -5.4095    0.2777   -1.9670 C   0  0  0  0  0  0  0  0  0  0  0  0
   -6.0619    1.1432   -0.9016 C   0  0  0  0  0  0  0  0  0  0  0  0
   -5.0693    1.7308   -0.0528 O   0  0  0  0  0  0  0  0  0  0  0  0
    2.9766   -0.4992    0.7275 C   0  0  0  0  0  0  0  0  0  0  0  0
    4.1638    0.0100    0.1659 C   0  0  0  0  0  0  0  0  0  0  0  0
    5.7169    0.1874    0.8904 S   0  0  0  0  0  0  0  0  0  0  0  0
    7.9714    1.6531   -1.6620 H   0  0  0  0  0  0  0  0  0  0  0  0
    8.4173    0.4100   -0.4832 H   0  0  0  0  0  0  0  0  0  0  0  0
    7.9741    2.0448    0.0643 H   0  0  0  0  0  0  0  0  0  0  0  0
    3.0917    0.7663   -2.9622 H   0  0  0  0  0  0  0  0  0  0  0  0
    0.9901   -0.1167   -2.0190 H   0  0  0  0  0  0  0  0  0  0  0  0
   -0.1771   -1.0043   -0.2821 H   0  0  0  0  0  0  0  0  0  0  0  0
   -1.2404   -2.9394    1.2435 H   0  0  0  0  0  0  0  0  0  0  0  0
   -1.3857   -2.1987    2.8340 H   0  0  0  0  0  0  0  0  0  0  0  0
   -1.7436    0.5264    2.7300 H   0  0  0  0  0  0  0  0  0  0  0  0
   -3.4402    2.1156    1.8957 H   0  0  0  0  0  0  0  0  0  0  0  0
   -2.9460   -2.3132   -0.3021 H   0  0  0  0  0  0  0  0  0  0  0  0
   -4.6909    0.8515   -2.5653 H   0  0  0  0  0  0  0  0  0  0  0  0
   -6.1691   -0.1279   -2.6426 H   0  0  0  0  0  0  0  0  0  0  0  0
   -6.7542    0.5623   -0.2797 H   0  0  0  0  0  0  0  0  0  0  0  0
   -6.6240    1.9583   -1.3680 H   0  0  0  0  0  0  0  0  0  0  0  0
    2.9881   -0.8428    1.7552 H   0  0  0  0  0  0  0  0  0  0  0  0
  1  2  1  0
  2  3  2  0
  3  4  1  0
  4  5  2  0
  5  6  1  0
  6  7  2  0
  7  8  1  0
  8  9  1  0
  9 10  2  0
  9 11  1  0
 11 12  1  0
 12 13  2  0
 13 14  1  0
 14 15  2  0
 15 16  1  0
 16 17  2  0
 16 18  1  0
 18 19  1  0
 19 20  1  0
 20 21  1  0
  7 22  1  0
 22 23  2  0
 23 24  1  0
 24  2  1  0
 23  4  1  0
 17 12  1  0
 21 15  1  0
  1 25  1  0
  1 26  1  0
  1 27  1  0
  5 28  1  0
  6 29  1  0
  8 30  1  0
 11 31  1  0
 11 32  1  0
 13 33  1  0
 14 34  1  0
 17 35  1  0
 19 36  1  0
 19 37  1  0
 20 38  1  0
 20 39  1  0
 22 40  1  0
M  END
$$$$
