
     RDKit          3D

 48 50  0  0  0  0  0  0  0  0999 V2000
   -1.5877   -0.0346    1.4524 O   0  0  0  0  0  0  0  0  0  0  0  0
   -1.8552    0.0475    0.2484 C   0  0  0  0  0  0  0  0  0  0  0  0
   -1.2461    1.1790   -0.5647 C   0  0  0  0  0  0  0  0  0  0  0  0
    0.2194    1.1325   -0.7567 N   0  0  0  0  0  0  0  0  0  0  0  0
    1.0453    2.0101    0.0151 C   0  0  0  0  0  0  0  0  0  0  0  0
    1.0250    1.9979    1.4081 C   0  0  0  0  0  0  0  0  0  0  0  0
    1.8711    2.8459    2.1252 C   0  0  0  0  0  0  0  0  0  0  0  0
    2.7449    3.7076    1.4545 C   0  0  0  0  0  0  0  0  0  0  0  0
    3.7583    4.7199    2.4167 Cl  0  0  0  0  0  0  0  0  0  0  0  0
    2.7837    3.7292    0.0558 C   0  0  0  0  0  0  0  0  0  0  0  0
    3.7157    4.6421   -0.6933 C   0  0  0  0  0  0  0  0  0  0  0  0
    3.5971    4.5347   -2.0485 F   0  0  0  0  0  0  0  0  0  0  0  0
    3.5000    5.9587   -0.4204 F   0  0  0  0  0  0  0  0  0  0  0  0
    5.0279    4.4017   -0.4247 F   0  0  0  0  0  0  0  0  0  0  0  0
    1.9249    2.8667   -0.6530 C   0  0  0  0  0  0  0  0  0  0  0  0
    0.9278   -0.2661   -1.4101 S   0  0  0  0  0  6  0  0  0  0  0  0
   -0.0742   -0.9303   -2.2214 O   0  0  0  0  0  0  0  0  0  0  0  0
    2.2057    0.0928   -1.9935 O   0  0  0  0  0  0  0  0  0  0  0  0
    1.2847   -1.3126   -0.0151 C   0  0  0  0  0  0  0  0  0  0  0  0
    2.4452   -1.0852    0.7335 C   0  0  0  0  0  0  0  0  0  0  0  0
    2.7568   -1.9296    1.7989 C   0  0  0  0  0  0  0  0  0  0  0  0
    1.9259   -3.0095    2.0988 C   0  0  0  0  0  0  0  0  0  0  0  0
    0.7900   -3.2573    1.3272 C   0  0  0  0  0  0  0  0  0  0  0  0
    0.4735   -2.4167    0.2597 C   0  0  0  0  0  0  0  0  0  0  0  0
   -2.6910   -0.8795   -0.3592 N   0  0  0  0  0  0  0  0  0  0  0  0
   -3.2390   -0.7742   -1.7202 C   0  0  0  0  0  0  0  0  0  0  0  0
   -3.5469   -2.1513   -2.3177 C   0  0  0  0  0  0  0  0  0  0  0  0
   -4.3904   -2.9147   -1.4450 O   0  0  0  0  0  0  0  0  0  0  0  0
   -3.7311   -3.1353   -0.1916 C   0  0  0  0  0  0  0  0  0  0  0  0
   -3.4239   -1.8102    0.5092 C   0  0  0  0  0  0  0  0  0  0  0  0
   -1.5211    2.1046   -0.0392 H   0  0  0  0  0  0  0  0  0  0  0  0
   -1.7096    1.2981   -1.5439 H   0  0  0  0  0  0  0  0  0  0  0  0
    0.3706    1.3257    1.9567 H   0  0  0  0  0  0  0  0  0  0  0  0
    1.8460    2.8239    3.2131 H   0  0  0  0  0  0  0  0  0  0  0  0
    1.9465    2.8587   -1.7435 H   0  0  0  0  0  0  0  0  0  0  0  0
    3.1123   -0.2616    0.4901 H   0  0  0  0  0  0  0  0  0  0  0  0
    3.6521   -1.7523    2.3901 H   0  0  0  0  0  0  0  0  0  0  0  0
    2.1714   -3.6681    2.9287 H   0  0  0  0  0  0  0  0  0  0  0  0
    0.1558   -4.1101    1.5554 H   0  0  0  0  0  0  0  0  0  0  0  0
   -0.3997   -2.6326   -0.3488 H   0  0  0  0  0  0  0  0  0  0  0  0
   -2.5652   -0.2440   -2.3917 H   0  0  0  0  0  0  0  0  0  0  0  0
   -4.1618   -0.1890   -1.6331 H   0  0  0  0  0  0  0  0  0  0  0  0
   -2.6247   -2.7135   -2.5069 H   0  0  0  0  0  0  0  0  0  0  0  0
   -4.0695   -2.0355   -3.2720 H   0  0  0  0  0  0  0  0  0  0  0  0
   -2.8145   -3.7109   -0.3660 H   0  0  0  0  0  0  0  0  0  0  0  0
   -4.3928   -3.7437    0.4329 H   0  0  0  0  0  0  0  0  0  0  0  0
   -4.3611   -1.3060    0.7750 H   0  0  0  0  0  0  0  0  0  0  0  0
   -2.8720   -2.0033    1.4346 H   0  0  0  0  0  0  0  0  0  0  0  0
  1  2  2  0
  2  3  1  0
  3  4  1  0
  4  5  1  0
  5  6  2  0
  6  7  1  0
  7  8  2  0
  8  9  1  0
  8 10  1  0
 10 11  1  0
 11 12  1  0
 11 13  1  0
 11 14  1  0
 10 15  2  0
  4 16  1  0
 16 17  2  0
 16 18  2  0
 16 19  1  0
 19 20  2  0
 20 21  1  0
 21 22  2  0
 22 23  1  0
 23 24  2  0
  2 25  1  0
 25 26  1  0
 26 27  1  0
 27 28  1  0
 28 29  1  0
 29 30  1  0
 15  5  1  0
 24 19  1  0
 30 25  1  0
  3 31  1  0
  3 32  1  0
  6 33  1  0
  7 34  1  0
 15 35  1  0
 20 36  1  0
 21 37  1  0
 22 38  1  0
 23 39  1  0
 24 40  1  0
 26 41  1  0
 26 42  1  0
 27 43  1  0
 27 44  1  0
 29 45  1  0
 29 46  1  0
 30 47  1  0
 30 48  1  0
M  END
$$$$
