
     RDKit          3D

 67 72  0  0  0  0  0  0  0  0999 V2000
   -1.7124    5.7516    2.5725 C   0  0  0  0  0  0  0  0  0  0  0  0
   -1.5450    4.4453    3.1129 O   0  0  0  0  0  0  0  0  0  0  0  0
   -1.3823    3.4215    2.2218 C   0  0  0  0  0  0  0  0  0  0  0  0
   -1.2521    2.1585    2.8002 C   0  0  0  0  0  0  0  0  0  0  0  0
   -1.0728    1.0197    2.0077 C   0  0  0  0  0  0  0  0  0  0  0  0
   -1.0232    1.1234    0.6127 C   0  0  0  0  0  0  0  0  0  0  0  0
   -0.7916   -0.0674   -0.3010 C   0  0  0  0  0  0  0  0  0  0  0  0
   -1.4999   -1.3953    0.0663 C   0  0  0  0  0  0  0  0  0  0  0  0
   -2.8225   -1.5311   -0.7027 C   0  0  0  0  0  0  0  0  0  0  0  0
   -2.8404   -1.4631   -1.9392 O   0  0  0  0  0  0  0  0  0  0  0  0
   -4.1177   -1.7587    0.1009 C   0  0  0  0  0  0  0  0  0  0  0  0
   -4.0361   -3.0780    0.8789 C   0  0  0  0  0  0  0  0  0  0  0  0
   -4.3513   -0.5883    1.0649 C   0  0  0  0  0  0  0  0  0  0  0  0
   -5.3130   -1.8340   -0.8686 C   0  0  0  0  0  0  0  0  0  0  0  0
   -0.5874   -2.4500   -0.3995 N   0  0  0  0  0  0  0  0  0  0  0  0
   -0.5598   -3.6030    0.3390 N   0  0  0  0  0  0  0  0  0  0  0  0
    0.5227   -4.3190    0.3164 C   0  0  0  0  0  0  0  0  0  0  0  0
    1.7515   -3.9660   -0.4007 C   0  0  0  0  0  0  0  0  0  0  0  0
    2.8537   -4.8221   -0.3699 C   0  0  0  0  0  0  0  0  0  0  0  0
    4.0094   -4.4722   -1.0671 C   0  0  0  0  0  0  0  0  0  0  0  0
    4.0530   -3.2821   -1.7943 C   0  0  0  0  0  0  0  0  0  0  0  0
    2.9446   -2.4318   -1.8151 C   0  0  0  0  0  0  0  0  0  0  0  0
    1.7841   -2.7618   -1.1008 C   0  0  0  0  0  0  0  0  0  0  0  0
    0.5665   -1.8828   -1.1016 C   0  0  0  0  0  0  0  0  0  0  0  0
    0.6879   -0.4801   -0.4896 C   0  0  0  0  0  0  0  0  0  0  0  0
    1.3829    0.4911   -1.3875 N   0  0  0  0  0  0  0  0  0  0  0  0
    2.3261    0.9594   -0.6309 C   0  0  0  0  0  0  0  0  0  0  0  0
    3.2950    2.0063   -0.9953 C   0  0  0  0  0  0  0  0  0  0  0  0
    4.2863    2.4257   -0.0997 C   0  0  0  0  0  0  0  0  0  0  0  0
    5.1820    3.4294   -0.4709 C   0  0  0  0  0  0  0  0  0  0  0  0
    5.0917    4.0167   -1.7324 C   0  0  0  0  0  0  0  0  0  0  0  0
    4.1075    3.6022   -2.6281 C   0  0  0  0  0  0  0  0  0  0  0  0
    3.2091    2.5985   -2.2611 C   0  0  0  0  0  0  0  0  0  0  0  0
    2.4780    0.4667    0.6107 O   0  0  0  0  0  0  0  0  0  0  0  0
    1.5053   -0.4666    0.7859 C   0  0  0  0  0  0  0  0  0  0  0  0
    1.3562   -1.1188    1.8041 O   0  0  0  0  0  0  0  0  0  0  0  0
   -1.1485    2.4008    0.0415 C   0  0  0  0  0  0  0  0  0  0  0  0
   -1.3300    3.5389    0.8361 C   0  0  0  0  0  0  0  0  0  0  0  0
   -0.8314    6.0555    1.9999 H   0  0  0  0  0  0  0  0  0  0  0  0
   -1.8194    6.4493    3.4094 H   0  0  0  0  0  0  0  0  0  0  0  0
   -2.6223    5.8130    1.9641 H   0  0  0  0  0  0  0  0  0  0  0  0
   -1.2852    2.0590    3.8835 H   0  0  0  0  0  0  0  0  0  0  0  0
   -0.9535    0.0647    2.5175 H   0  0  0  0  0  0  0  0  0  0  0  0
   -1.1618    0.2399   -1.2923 H   0  0  0  0  0  0  0  0  0  0  0  0
   -1.6416   -1.5185    1.1402 H   0  0  0  0  0  0  0  0  0  0  0  0
   -3.2496   -3.0598    1.6386 H   0  0  0  0  0  0  0  0  0  0  0  0
   -3.8236   -3.9261    0.2139 H   0  0  0  0  0  0  0  0  0  0  0  0
   -4.9818   -3.2889    1.3934 H   0  0  0  0  0  0  0  0  0  0  0  0
   -5.3495   -0.6387    1.5175 H   0  0  0  0  0  0  0  0  0  0  0  0
   -3.6261   -0.5833    1.8853 H   0  0  0  0  0  0  0  0  0  0  0  0
   -4.2711    0.3731    0.5458 H   0  0  0  0  0  0  0  0  0  0  0  0
   -5.4010   -0.9164   -1.4635 H   0  0  0  0  0  0  0  0  0  0  0  0
   -5.2030   -2.6687   -1.5706 H   0  0  0  0  0  0  0  0  0  0  0  0
   -6.2588   -1.9751   -0.3310 H   0  0  0  0  0  0  0  0  0  0  0  0
    0.5268   -5.2586    0.8905 H   0  0  0  0  0  0  0  0  0  0  0  0
    2.8179   -5.7539    0.1864 H   0  0  0  0  0  0  0  0  0  0  0  0
    4.8744   -5.1313   -1.0526 H   0  0  0  0  0  0  0  0  0  0  0  0
    4.9462   -3.0201   -2.3564 H   0  0  0  0  0  0  0  0  0  0  0  0
    2.9876   -1.5203   -2.4090 H   0  0  0  0  0  0  0  0  0  0  0  0
    0.2400   -1.7907   -2.1484 H   0  0  0  0  0  0  0  0  0  0  0  0
    4.3733    1.9863    0.8914 H   0  0  0  0  0  0  0  0  0  0  0  0
    5.9495    3.7545    0.2263 H   0  0  0  0  0  0  0  0  0  0  0  0
    5.7900    4.8002   -2.0175 H   0  0  0  0  0  0  0  0  0  0  0  0
    4.0382    4.0623   -3.6104 H   0  0  0  0  0  0  0  0  0  0  0  0
    2.4433    2.2861   -2.9666 H   0  0  0  0  0  0  0  0  0  0  0  0
   -1.0977    2.5243   -1.0386 H   0  0  0  0  0  0  0  0  0  0  0  0
   -1.4177    4.4986    0.3370 H   0  0  0  0  0  0  0  0  0  0  0  0
  1  2  1  0
  2  3  1  0
  3  4  2  0
  4  5  1  0
  5  6  2  0
  6  7  1  0
  7  8  1  0
  8  9  1  0
  9 10  2  0
  9 11  1  0
 11 12  1  0
 11 13  1  0
 11 14  1  0
  8 15  1  0
 15 16  1  0
 16 17  2  0
 17 18  1  0
 18 19  2  0
 19 20  1  0
 20 21  2  0
 21 22  1  0
 22 23  2  0
 23 24  1  0
 24 25  1  0
 25 26  1  0
 26 27  2  0
 27 28  1  0
 28 29  2  0
 29 30  1  0
 30 31  2  0
 31 32  1  0
 32 33  2  0
 27 34  1  0
 34 35  1  0
 35 36  2  0
  6 37  1  0
 37 38  2  0
 38  3  1  0
 25  7  1  0
 33 28  1  0
 24 15  1  0
 35 25  1  0
 23 18  1  0
  1 39  1  0
  1 40  1  0
  1 41  1  0
  4 42  1  0
  5 43  1  0
  7 44  1  0
  8 45  1  0
 12 46  1  0
 12 47  1  0
 12 48  1  0
 13 49  1  0
 13 50  1  0
 13 51  1  0
 14 52  1  0
 14 53  1  0
 14 54  1  0
 17 55  1  0
 19 56  1  0
 20 57  1  0
 21 58  1  0
 22 59  1  0
 24 60  1  0
 29 61  1  0
 30 62  1  0
 31 63  1  0
 32 64  1  0
 33 65  1  0
 37 66  1  0
 38 67  1  0
M  END
$$$$
