
     RDKit          3D

 53 56  0  0  0  0  0  0  0  0999 V2000
    7.5140    2.4544   -0.0241 C   0  0  0  0  0  0  0  0  0  0  0  0
    6.8247    1.8439   -1.1072 O   0  0  0  0  0  0  0  0  0  0  0  0
    5.7532    1.0556   -0.7919 C   0  0  0  0  0  0  0  0  0  0  0  0
    5.3023    0.7598    0.4942 C   0  0  0  0  0  0  0  0  0  0  0  0
    4.1832   -0.0601    0.6764 C   0  0  0  0  0  0  0  0  0  0  0  0
    3.5052   -0.6008   -0.4247 C   0  0  0  0  0  0  0  0  0  0  0  0
    2.2755   -1.4481   -0.2329 C   0  0  0  0  0  0  0  0  0  0  0  0
    1.0857   -0.6361   -0.3404 N   0  0  0  0  0  0  0  0  0  0  0  0
    0.2663   -0.6497   -1.4496 C   0  0  0  0  0  0  0  0  0  0  0  0
    0.4348   -1.4416   -2.3774 O   0  0  0  0  0  0  0  0  0  0  0  0
   -0.8542    0.3797   -1.4785 C   0  0  0  0  0  0  0  0  0  0  0  0
   -0.3169    1.6887   -1.8755 C   0  0  0  0  0  0  0  0  0  0  0  0
    0.0824    2.7244   -2.2196 N   0  0  0  0  0  0  0  0  0  0  0  0
   -1.5984    0.4347   -0.1614 C   0  0  0  0  0  0  0  0  0  0  0  0
   -0.9539    1.0120    0.8999 N   0  0  0  0  0  0  0  0  0  0  0  0
   -1.6233    1.0704    2.0646 C   0  0  0  0  0  0  0  0  0  0  0  0
   -1.0258    1.6603    3.1718 C   0  0  0  0  0  0  0  0  0  0  0  0
   -1.6909    1.7417    4.3962 C   0  0  0  0  0  0  0  0  0  0  0  0
   -2.9740    1.2220    4.5143 C   0  0  0  0  0  0  0  0  0  0  0  0
   -3.5796    0.6264    3.4076 C   0  0  0  0  0  0  0  0  0  0  0  0
   -2.9258    0.5389    2.1839 C   0  0  0  0  0  0  0  0  0  0  0  0
   -3.5388   -0.0560    1.1427 N   0  0  0  0  0  0  0  0  0  0  0  0
   -2.8830   -0.1165   -0.0379 C   0  0  0  0  0  0  0  0  0  0  0  0
   -3.4796   -0.7836   -1.1229 N   0  0  0  0  0  0  0  0  0  0  0  0
   -3.1682   -2.2315   -1.0713 C   0  0  0  0  0  0  0  0  0  0  0  0
   -4.4544   -2.9222   -1.5090 C   0  0  0  0  0  0  0  0  0  0  0  0
   -5.5205   -2.0160   -0.9249 C   0  0  0  0  0  0  0  0  0  0  0  0
   -4.9492   -0.6290   -1.1917 C   0  0  0  0  0  0  0  0  0  0  0  0
    3.9600   -0.2957   -1.7127 C   0  0  0  0  0  0  0  0  0  0  0  0
    5.0781    0.5213   -1.8910 C   0  0  0  0  0  0  0  0  0  0  0  0
    6.8534    3.1238    0.5387 H   0  0  0  0  0  0  0  0  0  0  0  0
    7.9664    1.7014    0.6300 H   0  0  0  0  0  0  0  0  0  0  0  0
    8.3235    3.0601   -0.4444 H   0  0  0  0  0  0  0  0  0  0  0  0
    5.7926    1.1551    1.3758 H   0  0  0  0  0  0  0  0  0  0  0  0
    3.8403   -0.2695    1.6877 H   0  0  0  0  0  0  0  0  0  0  0  0
    2.2588   -2.2693   -0.9591 H   0  0  0  0  0  0  0  0  0  0  0  0
    2.2737   -1.8983    0.7652 H   0  0  0  0  0  0  0  0  0  0  0  0
    0.9351    0.0795    0.3689 H   0  0  0  0  0  0  0  0  0  0  0  0
   -1.5313    0.0703   -2.2828 H   0  0  0  0  0  0  0  0  0  0  0  0
   -0.0249    2.0698    3.0761 H   0  0  0  0  0  0  0  0  0  0  0  0
   -1.2111    2.2164    5.2484 H   0  0  0  0  0  0  0  0  0  0  0  0
   -3.5070    1.2841    5.4601 H   0  0  0  0  0  0  0  0  0  0  0  0
   -4.5846    0.2235    3.4979 H   0  0  0  0  0  0  0  0  0  0  0  0
   -2.3445   -2.4721   -1.7486 H   0  0  0  0  0  0  0  0  0  0  0  0
   -2.8974   -2.5665   -0.0628 H   0  0  0  0  0  0  0  0  0  0  0  0
   -4.5179   -3.9512   -1.1461 H   0  0  0  0  0  0  0  0  0  0  0  0
   -4.5244   -2.9354   -2.6050 H   0  0  0  0  0  0  0  0  0  0  0  0
   -6.5003   -2.1589   -1.3899 H   0  0  0  0  0  0  0  0  0  0  0  0
   -5.6176   -2.1879    0.1535 H   0  0  0  0  0  0  0  0  0  0  0  0
   -5.1969   -0.3210   -2.2163 H   0  0  0  0  0  0  0  0  0  0  0  0
   -5.3732    0.1296   -0.5253 H   0  0  0  0  0  0  0  0  0  0  0  0
    3.4392   -0.6850   -2.5857 H   0  0  0  0  0  0  0  0  0  0  0  0
    5.4194    0.7542   -2.8971 H   0  0  0  0  0  0  0  0  0  0  0  0
  1  2  1  0
  2  3  1  0
  3  4  2  0
  4  5  1  0
  5  6  2  0
  6  7  1  0
  7  8  1  0
  8  9  1  0
  9 10  2  0
  9 11  1  0
 11 12  1  0
 12 13  3  0
 11 14  1  0
 14 15  2  0
 15 16  1  0
 16 17  2  0
 17 18  1  0
 18 19  2  0
 19 20  1  0
 20 21  2  0
 21 22  1  0
 22 23  2  0
 23 24  1  0
 24 25  1  0
 25 26  1  0
 26 27  1  0
 27 28  1  0
  6 29  1  0
 29 30  2  0
 30  3  1  0
 23 14  1  0
 28 24  1  0
 21 16  1  0
  1 31  1  0
  1 32  1  0
  1 33  1  0
  4 34  1  0
  5 35  1  0
  7 36  1  0
  7 37  1  0
  8 38  1  0
 11 39  1  0
 17 40  1  0
 18 41  1  0
 19 42  1  0
 20 43  1  0
 25 44  1  0
 25 45  1  0
 26 46  1  0
 26 47  1  0
 27 48  1  0
 27 49  1  0
 28 50  1  0
 28 51  1  0
 29 52  1  0
 30 53  1  0
M  END
$$$$
