
     RDKit          3D

 57 61  0  0  0  0  0  0  0  0999 V2000
    5.1001    0.8572   -1.7906 C   0  0  0  0  0  0  0  0  0  0  0  0
    4.5706    1.7481   -0.6685 C   0  0  0  0  0  0  0  0  0  0  0  0
    5.6582    2.7282   -0.2271 C   0  0  0  0  0  0  0  0  0  0  0  0
    4.1162    0.8830    0.5086 C   0  0  0  0  0  0  0  0  0  0  0  0
    4.8787    0.6640    1.4526 O   0  0  0  0  0  0  0  0  0  0  0  0
    2.8431    0.3196    0.4613 N   0  0  0  0  0  0  0  0  0  0  0  0
    2.4317   -0.5119    1.5935 C   0  0  0  0  0  0  0  0  0  0  0  0
    0.9164   -0.5365    1.7648 C   0  0  0  0  0  0  0  0  0  0  0  0
    0.2181   -1.1139    0.5065 C   0  0  0  0  0  0  0  0  0  0  0  0
    0.9443   -0.6556   -0.7891 C   0  0  0  0  0  0  0  0  0  0  0  0
    1.8487    0.5555   -0.5819 C   0  0  0  0  0  0  0  0  0  0  0  0
    0.4403   -2.5471    0.6441 O   0  0  0  0  0  0  0  0  0  0  0  0
   -0.3738   -3.3919   -0.0474 C   0  0  0  0  0  0  0  0  0  0  0  0
    0.0350   -4.7247   -0.1068 C   0  0  0  0  0  0  0  0  0  0  0  0
   -0.7228   -5.6611   -0.8146 C   0  0  0  0  0  0  0  0  0  0  0  0
   -1.8927   -5.2613   -1.4596 C   0  0  0  0  0  0  0  0  0  0  0  0
   -2.8184   -6.4140   -2.3383 Cl  0  0  0  0  0  0  0  0  0  0  0  0
   -2.3158   -3.9364   -1.3949 C   0  0  0  0  0  0  0  0  0  0  0  0
   -1.5530   -3.0103   -0.6753 C   0  0  0  0  0  0  0  0  0  0  0  0
   -1.9825   -1.6107   -0.5728 C   0  0  0  0  0  0  0  0  0  0  0  0
   -2.8341   -1.1778   -1.3455 O   0  0  0  0  0  0  0  0  0  0  0  0
   -1.2997   -0.7752    0.5062 C   0  0  0  0  0  0  0  0  0  0  0  0
   -1.6408    0.6998    0.3405 C   0  0  0  0  0  0  0  0  0  0  0  0
   -2.8088    0.7655    1.2665 C   0  0  0  0  0  0  0  0  0  0  0  0
   -3.7429    1.9162    1.2807 C   0  0  0  0  0  0  0  0  0  0  0  0
   -4.8573    1.8733    2.1299 C   0  0  0  0  0  0  0  0  0  0  0  0
   -5.7575    2.9421    2.1695 C   0  0  0  0  0  0  0  0  0  0  0  0
   -5.5441    4.0554    1.3604 C   0  0  0  0  0  0  0  0  0  0  0  0
   -6.6485    5.3732    1.4068 Cl  0  0  0  0  0  0  0  0  0  0  0  0
   -4.4381    4.1090    0.5135 C   0  0  0  0  0  0  0  0  0  0  0  0
   -3.5354    3.0405    0.4724 C   0  0  0  0  0  0  0  0  0  0  0  0
   -2.9169   -0.2422    2.0727 N   0  0  0  0  0  0  0  0  0  0  0  0
   -1.8772   -1.1472    1.7679 O   0  0  0  0  0  0  0  0  0  0  0  0
    4.3525    0.1345   -2.1278 H   0  0  0  0  0  0  0  0  0  0  0  0
    5.9710    0.2828   -1.4564 H   0  0  0  0  0  0  0  0  0  0  0  0
    5.4015    1.4585   -2.6542 H   0  0  0  0  0  0  0  0  0  0  0  0
    3.7285    2.3473   -1.0262 H   0  0  0  0  0  0  0  0  0  0  0  0
    5.9335    3.3964   -1.0497 H   0  0  0  0  0  0  0  0  0  0  0  0
    5.3084    3.3450    0.6084 H   0  0  0  0  0  0  0  0  0  0  0  0
    6.5637    2.2078    0.1021 H   0  0  0  0  0  0  0  0  0  0  0  0
    2.8237   -1.5201    1.4150 H   0  0  0  0  0  0  0  0  0  0  0  0
    2.8938   -0.1417    2.5151 H   0  0  0  0  0  0  0  0  0  0  0  0
    0.5807    0.4826    1.9817 H   0  0  0  0  0  0  0  0  0  0  0  0
    0.6776   -1.1464    2.6453 H   0  0  0  0  0  0  0  0  0  0  0  0
    0.2253   -0.4219   -1.5826 H   0  0  0  0  0  0  0  0  0  0  0  0
    1.5617   -1.4766   -1.1791 H   0  0  0  0  0  0  0  0  0  0  0  0
    2.3256    0.8042   -1.5311 H   0  0  0  0  0  0  0  0  0  0  0  0
    1.2658    1.4331   -0.2811 H   0  0  0  0  0  0  0  0  0  0  0  0
    0.9495   -5.0361    0.3931 H   0  0  0  0  0  0  0  0  0  0  0  0
   -0.3945   -6.6969   -0.8597 H   0  0  0  0  0  0  0  0  0  0  0  0
   -3.2338   -3.6267   -1.8892 H   0  0  0  0  0  0  0  0  0  0  0  0
   -1.8908    0.9883   -0.6828 H   0  0  0  0  0  0  0  0  0  0  0  0
   -0.8753    1.3774    0.7247 H   0  0  0  0  0  0  0  0  0  0  0  0
   -5.0344    1.0068    2.7652 H   0  0  0  0  0  0  0  0  0  0  0  0
   -6.6189    2.8963    2.8309 H   0  0  0  0  0  0  0  0  0  0  0  0
   -4.2734    4.9791   -0.1172 H   0  0  0  0  0  0  0  0  0  0  0  0
   -2.6831    3.1134   -0.1956 H   0  0  0  0  0  0  0  0  0  0  0  0
  1  2  1  0
  2  3  1  0
  2  4  1  0
  4  5  2  0
  4  6  1  0
  6  7  1  0
  7  8  1  0
  8  9  1  0
  9 10  1  0
 10 11  1  0
  9 12  1  0
 12 13  1  0
 13 14  2  0
 14 15  1  0
 15 16  2  0
 16 17  1  0
 16 18  1  0
 18 19  2  0
 19 20  1  0
 20 21  2  0
 20 22  1  0
 22 23  1  0
 23 24  1  0
 24 25  1  0
 25 26  2  0
 26 27  1  0
 27 28  2  0
 28 29  1  0
 28 30  1  0
 30 31  2  0
 24 32  2  0
 32 33  1  0
 11  6  1  0
 19 13  1  0
 33 22  1  0
 22  9  1  0
 31 25  1  0
  1 34  1  0
  1 35  1  0
  1 36  1  0
  2 37  1  0
  3 38  1  0
  3 39  1  0
  3 40  1  0
  7 41  1  0
  7 42  1  0
  8 43  1  0
  8 44  1  0
 10 45  1  0
 10 46  1  0
 11 47  1  0
 11 48  1  0
 14 49  1  0
 15 50  1  0
 18 51  1  0
 23 52  1  0
 23 53  1  0
 26 54  1  0
 27 55  1  0
 30 56  1  0
 31 57  1  0
M  END
$$$$
