
     RDKit          3D

 57 58  0  0  0  0  0  0  0  0999 V2000
    6.1050    0.1307    1.4541 C   0  0  0  0  0  0  0  0  0  0  0  0
    6.2268    0.3713   -0.0253 C   0  0  0  0  0  0  0  0  0  0  0  0
    7.3627    1.0202   -0.5339 C   0  0  0  0  0  0  0  0  0  0  0  0
    7.4955    1.2482   -1.9029 C   0  0  0  0  0  0  0  0  0  0  0  0
    6.4972    0.8253   -2.7752 C   0  0  0  0  0  0  0  0  0  0  0  0
    5.3614    0.1784   -2.2817 C   0  0  0  0  0  0  0  0  0  0  0  0
    5.2153   -0.0478   -0.9089 C   0  0  0  0  0  0  0  0  0  0  0  0
    4.1433   -0.6773   -0.3305 O   0  0  0  0  0  0  0  0  0  0  0  0
    2.9987   -0.9123   -1.1520 C   0  0  0  0  0  0  0  0  0  0  0  0
    1.9000   -1.4894   -0.2738 C   0  0  0  0  0  0  0  0  0  0  0  0
    1.3144   -0.4236    0.6141 C   0  0  0  0  0  0  0  0  0  0  0  0
    1.1019    0.7334    0.2802 O   0  0  0  0  0  0  0  0  0  0  0  0
    0.9643   -0.9541    1.8184 O   0  0  0  0  0  0  0  0  0  0  0  0
    0.4447   -0.0265    2.7713 C   0  0  0  0  0  0  0  0  0  0  0  0
   -0.8657    0.6894    2.4281 C   0  0  0  0  0  0  0  0  0  0  0  0
   -1.0934    1.8294    2.8428 O   0  0  0  0  0  0  0  0  0  0  0  0
   -1.8439   -0.0115    1.5442 C   0  0  0  0  0  0  0  0  0  0  0  0
   -2.4386    0.6503    0.5285 C   0  0  0  0  0  0  0  0  0  0  0  0
   -2.2625    2.0162    0.3272 N   0  0  0  0  0  0  0  0  0  0  0  0
   -3.2599   -0.0574   -0.3483 N   0  0  0  0  0  0  0  0  0  0  0  0
   -4.0259    0.6710   -1.3770 C   0  0  0  0  0  0  0  0  0  0  0  0
   -5.2826    1.3791   -0.8271 C   0  0  0  0  0  0  0  0  0  0  0  0
   -6.3239    0.3886   -0.3033 C   0  0  0  0  0  0  0  0  0  0  0  0
   -5.9025    2.2538   -1.9193 C   0  0  0  0  0  0  0  0  0  0  0  0
   -3.4556   -1.4369   -0.2756 C   0  0  0  0  0  0  0  0  0  0  0  0
   -4.1939   -2.0442   -1.0543 O   0  0  0  0  0  0  0  0  0  0  0  0
   -2.7785   -2.0975    0.7361 N   0  0  0  0  0  0  0  0  0  0  0  0
   -3.0038   -3.5253    0.8671 C   0  0  0  0  0  0  0  0  0  0  0  0
   -2.0992   -1.4493    1.7405 C   0  0  0  0  0  0  0  0  0  0  0  0
   -1.7126   -2.0010    2.7698 O   0  0  0  0  0  0  0  0  0  0  0  0
    6.9549    0.5536    2.0007 H   0  0  0  0  0  0  0  0  0  0  0  0
    6.0775   -0.9440    1.6619 H   0  0  0  0  0  0  0  0  0  0  0  0
    5.1947    0.6003    1.8424 H   0  0  0  0  0  0  0  0  0  0  0  0
    8.1522    1.3538    0.1363 H   0  0  0  0  0  0  0  0  0  0  0  0
    8.3784    1.7523   -2.2873 H   0  0  0  0  0  0  0  0  0  0  0  0
    6.6019    0.9981   -3.8436 H   0  0  0  0  0  0  0  0  0  0  0  0
    4.6125   -0.1421   -2.9981 H   0  0  0  0  0  0  0  0  0  0  0  0
    2.6684    0.0168   -1.6317 H   0  0  0  0  0  0  0  0  0  0  0  0
    3.2528   -1.6532   -1.9192 H   0  0  0  0  0  0  0  0  0  0  0  0
    2.3084   -2.2926    0.3499 H   0  0  0  0  0  0  0  0  0  0  0  0
    1.0863   -1.8929   -0.8840 H   0  0  0  0  0  0  0  0  0  0  0  0
    1.2109    0.7356    2.9599 H   0  0  0  0  0  0  0  0  0  0  0  0
    0.2944   -0.5641    3.7131 H   0  0  0  0  0  0  0  0  0  0  0  0
   -1.8063    2.2020   -0.5644 H   0  0  0  0  0  0  0  0  0  0  0  0
   -1.7075    2.4571    1.0714 H   0  0  0  0  0  0  0  0  0  0  0  0
   -4.3224   -0.0194   -2.1765 H   0  0  0  0  0  0  0  0  0  0  0  0
   -3.3586    1.3924   -1.8644 H   0  0  0  0  0  0  0  0  0  0  0  0
   -4.9994    2.0360    0.0037 H   0  0  0  0  0  0  0  0  0  0  0  0
   -6.6253   -0.3212   -1.0805 H   0  0  0  0  0  0  0  0  0  0  0  0
   -7.2221    0.9150    0.0379 H   0  0  0  0  0  0  0  0  0  0  0  0
   -5.9371   -0.1790    0.5482 H   0  0  0  0  0  0  0  0  0  0  0  0
   -6.7786    2.7898   -1.5390 H   0  0  0  0  0  0  0  0  0  0  0  0
   -5.1839    3.0005   -2.2736 H   0  0  0  0  0  0  0  0  0  0  0  0
   -6.2200    1.6529   -2.7780 H   0  0  0  0  0  0  0  0  0  0  0  0
   -3.9936   -3.6815    1.3080 H   0  0  0  0  0  0  0  0  0  0  0  0
   -2.2494   -3.9940    1.5053 H   0  0  0  0  0  0  0  0  0  0  0  0
   -2.9775   -4.0034   -0.1176 H   0  0  0  0  0  0  0  0  0  0  0  0
  1  2  1  0
  2  3  2  0
  3  4  1  0
  4  5  2  0
  5  6  1  0
  6  7  2  0
  7  8  1  0
  8  9  1  0
  9 10  1  0
 10 11  1  0
 11 12  2  0
 11 13  1  0
 13 14  1  0
 14 15  1  0
 15 16  2  0
 15 17  1  0
 17 18  2  0
 18 19  1  0
 18 20  1  0
 20 21  1  0
 21 22  1  0
 22 23  1  0
 22 24  1  0
 20 25  1  0
 25 26  2  0
 25 27  1  0
 27 28  1  0
 27 29  1  0
 29 30  2  0
  7  2  1  0
 29 17  1  0
  1 31  1  0
  1 32  1  0
  1 33  1  0
  3 34  1  0
  4 35  1  0
  5 36  1  0
  6 37  1  0
  9 38  1  0
  9 39  1  0
 10 40  1  0
 10 41  1  0
 14 42  1  0
 14 43  1  0
 19 44  1  0
 19 45  1  0
 21 46  1  0
 21 47  1  0
 22 48  1  0
 23 49  1  0
 23 50  1  0
 23 51  1  0
 24 52  1  0
 24 53  1  0
 24 54  1  0
 28 55  1  0
 28 56  1  0
 28 57  1  0
M  END
$$$$
