
     RDKit          3D

 38 40  0  0  0  0  0  0  0  0999 V2000
   -3.1140    0.0544    2.5542 C   0  0  0  0  0  0  0  0  0  0  0  0
   -3.6195    0.0603    1.1501 C   0  0  0  0  0  0  0  0  0  0  0  0
   -4.9428    0.0486    0.7525 C   0  0  0  0  0  0  0  0  0  0  0  0
   -4.9749    0.1826   -0.6443 C   0  0  0  0  0  0  0  0  0  0  0  0
   -3.6703    0.2509   -1.0946 C   0  0  0  0  0  0  0  0  0  0  0  0
   -3.2218    0.2946   -2.5165 C   0  0  0  0  0  0  0  0  0  0  0  0
   -2.8210    0.1764    0.0109 N   0  0  0  0  0  0  0  0  0  0  0  0
   -1.4008    0.2135   -0.0196 C   0  0  0  0  0  0  0  0  0  0  0  0
   -0.7132    1.1011   -0.8384 C   0  0  0  0  0  0  0  0  0  0  0  0
    0.6840    1.0978   -0.8256 C   0  0  0  0  0  0  0  0  0  0  0  0
    1.3825    0.2054   -0.0104 C   0  0  0  0  0  0  0  0  0  0  0  0
    2.7727    0.2116    0.0261 N   0  0  0  0  0  0  0  0  0  0  0  0
    3.3917   -0.6619    1.0374 C   0  0  0  0  0  0  0  0  0  0  0  0
    4.9193   -0.5089    0.9722 C   0  0  0  0  0  0  0  0  0  0  0  0
    5.4893   -0.8657   -0.2984 O   0  0  0  0  0  0  0  0  0  0  0  0
    4.5443   -0.8160   -1.3759 C   0  0  0  0  0  0  0  0  0  0  0  0
    3.5147    0.3195   -1.2426 C   0  0  0  0  0  0  0  0  0  0  0  0
    0.7103   -0.6454    0.7952 N   0  0  0  0  0  0  0  0  0  0  0  0
   -0.6462   -0.6340    0.7732 C   0  0  0  0  0  0  0  0  0  0  0  0
   -2.8138   -0.9538    2.8540 H   0  0  0  0  0  0  0  0  0  0  0  0
   -2.2723    0.7407    2.6869 H   0  0  0  0  0  0  0  0  0  0  0  0
   -3.9015    0.3791    3.2436 H   0  0  0  0  0  0  0  0  0  0  0  0
   -5.7974   -0.0231    1.4140 H   0  0  0  0  0  0  0  0  0  0  0  0
   -5.8583    0.2052   -1.2704 H   0  0  0  0  0  0  0  0  0  0  0  0
   -2.9828    1.3189   -2.8167 H   0  0  0  0  0  0  0  0  0  0  0  0
   -4.0193   -0.0616   -3.1784 H   0  0  0  0  0  0  0  0  0  0  0  0
   -2.3540   -0.3487   -2.6897 H   0  0  0  0  0  0  0  0  0  0  0  0
   -1.2295    1.8368   -1.4462 H   0  0  0  0  0  0  0  0  0  0  0  0
    1.2176    1.8239   -1.4298 H   0  0  0  0  0  0  0  0  0  0  0  0
    3.0513   -0.3846    2.0422 H   0  0  0  0  0  0  0  0  0  0  0  0
    3.1256   -1.7101    0.8498 H   0  0  0  0  0  0  0  0  0  0  0  0
    5.3953   -1.1361    1.7327 H   0  0  0  0  0  0  0  0  0  0  0  0
    5.2053    0.5294    1.1771 H   0  0  0  0  0  0  0  0  0  0  0  0
    5.1126   -0.6976   -2.3041 H   0  0  0  0  0  0  0  0  0  0  0  0
    4.0395   -1.7881   -1.4273 H   0  0  0  0  0  0  0  0  0  0  0  0
    4.0360    1.2838   -1.2429 H   0  0  0  0  0  0  0  0  0  0  0  0
    2.8590    0.2883   -2.1201 H   0  0  0  0  0  0  0  0  0  0  0  0
   -1.0977   -1.3871    1.4106 H   0  0  0  0  0  0  0  0  0  0  0  0
  1  2  1  0
  2  3  2  0
  3  4  1  0
  4  5  2  0
  5  6  1  0
  5  7  1  0
  7  8  1  0
  8  9  2  0
  9 10  1  0
 10 11  2  0
 11 12  1  0
 12 13  1  0
 13 14  1  0
 14 15  1  0
 15 16  1  0
 16 17  1  0
 11 18  1  0
 18 19  2  0
  7  2  1  0
 19  8  1  0
 17 12  1  0
  1 20  1  0
  1 21  1  0
  1 22  1  0
  3 23  1  0
  4 24  1  0
  6 25  1  0
  6 26  1  0
  6 27  1  0
  9 28  1  0
 10 29  1  0
 13 30  1  0
 13 31  1  0
 14 32  1  0
 14 33  1  0
 16 34  1  0
 16 35  1  0
 17 36  1  0
 17 37  1  0
 19 38  1  0
M  END
$$$$
