
     RDKit          3D

 52 56  0  0  0  0  0  0  0  0999 V2000
    0.3358    2.2643   -2.3270 O   0  0  0  0  0  0  0  0  0  0  0  0
    0.2297    1.5360   -1.3458 C   0  0  0  0  0  0  0  0  0  0  0  0
    1.4590    1.1981   -0.6107 C   0  0  0  0  0  0  0  0  0  0  0  0
    2.2324    0.1618   -1.1257 C   0  0  0  0  0  0  0  0  0  0  0  0
    3.3649   -0.2079   -0.4250 C   0  0  0  0  0  0  0  0  0  0  0  0
    4.2425   -1.3034   -0.8598 C   0  0  0  0  0  0  0  0  0  0  0  0
    5.6015   -1.0274   -1.1125 C   0  0  0  0  0  0  0  0  0  0  0  0
    6.4813   -2.0244   -1.5415 C   0  0  0  0  0  0  0  0  0  0  0  0
    6.0226   -3.3250   -1.7208 C   0  0  0  0  0  0  0  0  0  0  0  0
    4.6871   -3.6294   -1.4630 C   0  0  0  0  0  0  0  0  0  0  0  0
    3.8039   -2.6306   -1.0322 C   0  0  0  0  0  0  0  0  0  0  0  0
    2.1754   -3.1188   -0.6906 Cl  0  0  0  0  0  0  0  0  0  0  0  0
    3.7542    0.4364    0.7039 N   0  0  0  0  0  0  0  0  0  0  0  0
    3.0157    1.4543    1.1776 C   0  0  0  0  0  0  0  0  0  0  0  0
    3.4359    2.0965    2.3352 C   0  0  0  0  0  0  0  0  0  0  0  0
    2.7215    3.1612    2.8921 C   0  0  0  0  0  0  0  0  0  0  0  0
    1.5582    3.5982    2.2749 C   0  0  0  0  0  0  0  0  0  0  0  0
    0.5814    5.0362    3.0124 Br  0  0  0  0  0  0  0  0  0  0  0  0
    1.1106    2.9764    1.1131 C   0  0  0  0  0  0  0  0  0  0  0  0
    1.8337    1.8933    0.5549 C   0  0  0  0  0  0  0  0  0  0  0  0
   -0.9684    1.0081   -0.8897 N   0  0  0  0  0  0  0  0  0  0  0  0
   -1.1193    0.0843    0.2442 C   0  0  0  0  0  0  0  0  0  0  0  0
   -2.2813   -0.9133    0.0634 C   0  0  0  0  0  0  0  0  0  0  0  0
   -3.5442   -0.2512   -0.3047 N   0  0  0  0  0  0  0  0  0  0  0  0
   -4.7018   -0.6054    0.3841 C   0  0  0  0  0  0  0  0  0  0  0  0
   -4.9780   -1.9418    0.6818 C   0  0  0  0  0  0  0  0  0  0  0  0
   -6.1488   -2.2840    1.3585 C   0  0  0  0  0  0  0  0  0  0  0  0
   -7.0358   -1.2845    1.7217 C   0  0  0  0  0  0  0  0  0  0  0  0
   -6.7108    0.0137    1.3819 C   0  0  0  0  0  0  0  0  0  0  0  0
   -5.5807    0.3631    0.7263 N   0  0  0  0  0  0  0  0  0  0  0  0
   -3.4617    1.1565   -0.7286 C   0  0  0  0  0  0  0  0  0  0  0  0
   -2.2039    1.3911   -1.5802 C   0  0  0  0  0  0  0  0  0  0  0  0
    1.9432   -0.3405   -2.0433 H   0  0  0  0  0  0  0  0  0  0  0  0
    5.9800   -0.0151   -0.9713 H   0  0  0  0  0  0  0  0  0  0  0  0
    7.5243   -1.7817   -1.7310 H   0  0  0  0  0  0  0  0  0  0  0  0
    6.7055   -4.1035   -2.0519 H   0  0  0  0  0  0  0  0  0  0  0  0
    4.3398   -4.6518   -1.5915 H   0  0  0  0  0  0  0  0  0  0  0  0
    4.3494    1.7576    2.8202 H   0  0  0  0  0  0  0  0  0  0  0  0
    3.0864    3.6357    3.7992 H   0  0  0  0  0  0  0  0  0  0  0  0
    0.2024    3.3356    0.6323 H   0  0  0  0  0  0  0  0  0  0  0  0
   -1.3015    0.7061    1.1292 H   0  0  0  0  0  0  0  0  0  0  0  0
   -0.1934   -0.4707    0.4177 H   0  0  0  0  0  0  0  0  0  0  0  0
   -2.0265   -1.6180   -0.7373 H   0  0  0  0  0  0  0  0  0  0  0  0
   -2.3681   -1.4882    0.9933 H   0  0  0  0  0  0  0  0  0  0  0  0
   -4.3009   -2.7289    0.3683 H   0  0  0  0  0  0  0  0  0  0  0  0
   -6.3646   -3.3234    1.5870 H   0  0  0  0  0  0  0  0  0  0  0  0
   -7.9573   -1.5097    2.2452 H   0  0  0  0  0  0  0  0  0  0  0  0
   -7.3703    0.8395    1.6319 H   0  0  0  0  0  0  0  0  0  0  0  0
   -4.3385    1.4271   -1.3298 H   0  0  0  0  0  0  0  0  0  0  0  0
   -3.4282    1.8145    0.1499 H   0  0  0  0  0  0  0  0  0  0  0  0
   -2.1427    2.4437   -1.8782 H   0  0  0  0  0  0  0  0  0  0  0  0
   -2.2519    0.7892   -2.4960 H   0  0  0  0  0  0  0  0  0  0  0  0
  1  2  2  0
  2  3  1  0
  3  4  2  0
  4  5  1  0
  5  6  1  0
  6  7  2  0
  7  8  1  0
  8  9  2  0
  9 10  1  0
 10 11  2  0
 11 12  1  0
  5 13  2  0
 13 14  1  0
 14 15  2  0
 15 16  1  0
 16 17  2  0
 17 18  1  0
 17 19  1  0
 19 20  2  0
  2 21  1  0
 21 22  1  0
 22 23  1  0
 23 24  1  0
 24 25  1  0
 25 26  2  0
 26 27  1  0
 27 28  2  0
 28 29  1  0
 29 30  2  0
 24 31  1  0
 31 32  1  0
 20  3  1  0
 32 21  1  0
 11  6  1  0
 20 14  1  0
 30 25  1  0
  4 33  1  0
  7 34  1  0
  8 35  1  0
  9 36  1  0
 10 37  1  0
 15 38  1  0
 16 39  1  0
 19 40  1  0
 22 41  1  0
 22 42  1  0
 23 43  1  0
 23 44  1  0
 26 45  1  0
 27 46  1  0
 28 47  1  0
 29 48  1  0
 31 49  1  0
 31 50  1  0
 32 51  1  0
 32 52  1  0
M  END
$$$$
