
     RDKit          3D

 35 37  0  0  0  0  0  0  0  0999 V2000
    2.4543   -1.0057    1.2184 O   0  0  0  0  0  0  0  0  0  0  0  0
    1.9446   -0.4708    0.2405 C   0  0  0  0  0  0  0  0  0  0  0  0
    0.6097   -0.1458    0.1630 N   0  0  0  0  0  0  0  0  0  0  0  0
   -0.3166   -0.4452    1.2489 C   0  0  0  0  0  0  0  0  0  0  0  0
   -0.7392   -1.9226    1.2190 C   0  0  0  0  0  0  0  0  0  0  0  0
   -1.7226   -2.1875    0.0831 C   0  0  0  0  0  0  0  0  0  0  0  0
   -3.0008   -1.3774    0.2818 C   0  0  0  0  0  0  0  0  0  0  0  0
   -2.7491    0.0638    0.6521 C   0  0  0  0  0  0  0  0  0  0  0  0
   -3.8066    0.9816    0.5555 C   0  0  0  0  0  0  0  0  0  0  0  0
   -3.6305    2.3135    0.9297 C   0  0  0  0  0  0  0  0  0  0  0  0
   -2.3987    2.7431    1.4132 C   0  0  0  0  0  0  0  0  0  0  0  0
   -1.3423    1.8402    1.5233 C   0  0  0  0  0  0  0  0  0  0  0  0
   -1.5050    0.4937    1.1521 C   0  0  0  0  0  0  0  0  0  0  0  0
    2.7909   -0.1156   -0.9209 C   0  0  0  0  0  0  0  0  0  0  0  0
    2.2892   -0.0383   -2.2148 C   0  0  0  0  0  0  0  0  0  0  0  0
    3.0389    0.2824   -3.2989 N   0  0  0  0  0  0  0  0  0  0  0  0
    4.3551    0.5167   -3.0768 C   0  0  0  0  0  0  0  0  0  0  0  0
    4.9481    0.4420   -1.8249 C   0  0  0  0  0  0  0  0  0  0  0  0
    6.7910    0.7757   -1.6109 Br  0  0  0  0  0  0  0  0  0  0  0  0
    4.1558    0.1172   -0.7292 C   0  0  0  0  0  0  0  0  0  0  0  0
    0.2481    0.4096   -0.6003 H   0  0  0  0  0  0  0  0  0  0  0  0
    0.2033   -0.2659    2.1991 H   0  0  0  0  0  0  0  0  0  0  0  0
    0.1339   -2.5763    1.1100 H   0  0  0  0  0  0  0  0  0  0  0  0
   -1.2165   -2.1857    2.1721 H   0  0  0  0  0  0  0  0  0  0  0  0
   -1.2616   -1.9290   -0.8784 H   0  0  0  0  0  0  0  0  0  0  0  0
   -1.9689   -3.2544    0.0398 H   0  0  0  0  0  0  0  0  0  0  0  0
   -3.5945   -1.8329    1.0845 H   0  0  0  0  0  0  0  0  0  0  0  0
   -3.5958   -1.4278   -0.6380 H   0  0  0  0  0  0  0  0  0  0  0  0
   -4.7795    0.6590    0.1902 H   0  0  0  0  0  0  0  0  0  0  0  0
   -4.4574    3.0142    0.8488 H   0  0  0  0  0  0  0  0  0  0  0  0
   -2.2608    3.7803    1.7073 H   0  0  0  0  0  0  0  0  0  0  0  0
   -0.3830    2.1889    1.9021 H   0  0  0  0  0  0  0  0  0  0  0  0
    1.2501   -0.2542   -2.4444 H   0  0  0  0  0  0  0  0  0  0  0  0
    4.9302    0.7685   -3.9637 H   0  0  0  0  0  0  0  0  0  0  0  0
    4.5860    0.0446    0.2669 H   0  0  0  0  0  0  0  0  0  0  0  0
  1  2  2  0
  2  3  1  0
  3  4  1  0
  4  5  1  0
  5  6  1  0
  6  7  1  0
  7  8  1  0
  8  9  2  0
  9 10  1  0
 10 11  2  0
 11 12  1  0
 12 13  2  0
  2 14  1  0
 14 15  2  0
 15 16  1  0
 16 17  2  0
 17 18  1  0
 18 19  1  0
 18 20  2  0
 13  4  1  0
 20 14  1  0
 13  8  1  0
  3 21  1  0
  4 22  1  0
  5 23  1  0
  5 24  1  0
  6 25  1  0
  6 26  1  0
  7 27  1  0
  7 28  1  0
  9 29  1  0
 10 30  1  0
 11 31  1  0
 12 32  1  0
 15 33  1  0
 17 34  1  0
 20 35  1  0
M  END
$$$$
