
     RDKit          3D

 46 48  0  0  0  0  0  0  0  0999 V2000
   -1.3408   -1.5745   -0.5278 O   0  0  0  0  0  0  0  0  0  0  0  0
   -1.4998   -0.3878   -0.2687 C   0  0  0  0  0  0  0  0  0  0  0  0
   -2.7338    0.2111   -0.1534 N   0  0  0  0  0  0  0  0  0  0  0  0
   -3.9502   -0.5845   -0.1737 C   0  0  0  0  0  0  0  0  0  0  0  0
   -5.1809    0.3078   -0.3767 C   0  0  0  0  0  0  0  0  0  0  0  0
   -6.4877   -0.4684   -0.3230 C   0  0  0  0  0  0  0  0  0  0  0  0
   -6.8766   -0.3665    1.1308 C   0  0  0  0  0  0  0  0  0  0  0  0
   -6.4057    1.0261    1.4838 C   0  0  0  0  0  0  0  0  0  0  0  0
   -5.2309    1.2752    0.6985 O   0  0  0  0  0  0  0  0  0  0  0  0
   -0.3181    0.4856   -0.0330 C   0  0  0  0  0  0  0  0  0  0  0  0
   -0.3514    1.8579   -0.2966 C   0  0  0  0  0  0  0  0  0  0  0  0
    0.7888    2.6375   -0.0821 C   0  0  0  0  0  0  0  0  0  0  0  0
    1.9746    2.0590    0.3922 C   0  0  0  0  0  0  0  0  0  0  0  0
    3.4480    3.2378    0.6020 Br  0  0  0  0  0  0  0  0  0  0  0  0
    2.0099    0.6843    0.6484 C   0  0  0  0  0  0  0  0  0  0  0  0
    3.4624   -0.1261    1.2646 S   0  0  0  0  0  6  0  0  0  0  0  0
    3.9180    0.6025    2.4278 O   0  0  0  0  0  0  0  0  0  0  0  0
    3.1922   -1.5463    1.3585 O   0  0  0  0  0  0  0  0  0  0  0  0
    4.5942    0.0675    0.0047 N   0  0  0  0  0  0  0  0  0  0  0  0
    4.2053   -0.5399   -1.3111 C   0  0  0  0  0  0  0  0  0  0  0  0
    5.4354   -0.6946   -2.2111 C   0  0  0  0  0  0  0  0  0  0  0  0
    6.4183   -1.5873   -1.6697 O   0  0  0  0  0  0  0  0  0  0  0  0
    6.4271   -1.6168   -0.2346 C   0  0  0  0  0  0  0  0  0  0  0  0
    6.0011   -0.2874    0.3936 C   0  0  0  0  0  0  0  0  0  0  0  0
    0.8647   -0.1006    0.4326 C   0  0  0  0  0  0  0  0  0  0  0  0
   -2.8070    1.0876    0.3511 H   0  0  0  0  0  0  0  0  0  0  0  0
   -3.9936   -1.1040    0.7903 H   0  0  0  0  0  0  0  0  0  0  0  0
   -3.8767   -1.3360   -0.9672 H   0  0  0  0  0  0  0  0  0  0  0  0
   -5.0867    0.8556   -1.3212 H   0  0  0  0  0  0  0  0  0  0  0  0
   -6.4075   -1.4979   -0.6832 H   0  0  0  0  0  0  0  0  0  0  0  0
   -7.2416    0.0428   -0.9343 H   0  0  0  0  0  0  0  0  0  0  0  0
   -6.3255   -1.1101    1.7180 H   0  0  0  0  0  0  0  0  0  0  0  0
   -7.9449   -0.5132    1.3101 H   0  0  0  0  0  0  0  0  0  0  0  0
   -7.1544    1.7784    1.2132 H   0  0  0  0  0  0  0  0  0  0  0  0
   -6.1688    1.1347    2.5457 H   0  0  0  0  0  0  0  0  0  0  0  0
   -1.2458    2.3321   -0.6936 H   0  0  0  0  0  0  0  0  0  0  0  0
    0.7433    3.7039   -0.2987 H   0  0  0  0  0  0  0  0  0  0  0  0
    3.4789    0.1152   -1.8020 H   0  0  0  0  0  0  0  0  0  0  0  0
    3.7505   -1.5239   -1.1541 H   0  0  0  0  0  0  0  0  0  0  0  0
    5.9173    0.2757   -2.3784 H   0  0  0  0  0  0  0  0  0  0  0  0
    5.1409   -1.0867   -3.1897 H   0  0  0  0  0  0  0  0  0  0  0  0
    5.7686   -2.4305    0.0902 H   0  0  0  0  0  0  0  0  0  0  0  0
    7.4438   -1.8737    0.0790 H   0  0  0  0  0  0  0  0  0  0  0  0
    6.6466    0.5248    0.0384 H   0  0  0  0  0  0  0  0  0  0  0  0
    6.1168   -0.3371    1.4806 H   0  0  0  0  0  0  0  0  0  0  0  0
    0.8818   -1.1728    0.6298 H   0  0  0  0  0  0  0  0  0  0  0  0
  1  2  2  0
  2  3  1  0
  3  4  1  0
  4  5  1  0
  5  6  1  0
  6  7  1  0
  7  8  1  0
  8  9  1  0
  2 10  1  0
 10 11  2  0
 11 12  1  0
 12 13  2  0
 13 14  1  0
 13 15  1  0
 15 16  1  0
 16 17  2  0
 16 18  2  0
 16 19  1  0
 19 20  1  0
 20 21  1  0
 21 22  1  0
 22 23  1  0
 23 24  1  0
 15 25  2  0
  9  5  1  0
 25 10  1  0
 24 19  1  0
  3 26  1  0
  4 27  1  0
  4 28  1  0
  5 29  1  0
  6 30  1  0
  6 31  1  0
  7 32  1  0
  7 33  1  0
  8 34  1  0
  8 35  1  0
 11 36  1  0
 12 37  1  0
 20 38  1  0
 20 39  1  0
 21 40  1  0
 21 41  1  0
 23 42  1  0
 23 43  1  0
 24 44  1  0
 24 45  1  0
 25 46  1  0
M  END
$$$$
