
     RDKit          3D

 55 57  0  0  0  0  0  0  0  0999 V2000
    0.8467   -1.1270   -2.7417 N   0  0  0  0  0  0  0  0  0  0  0  0
    1.1208    0.0874   -2.2330 C   0  0  0  0  0  0  0  0  0  0  0  0
    0.8622    1.1980   -2.8569 N   0  0  0  0  0  0  0  0  0  0  0  0
    1.2734    2.2515   -1.8857 C   0  0  0  0  0  0  0  0  0  0  0  0
    2.0772    1.5491   -0.7673 C   0  0  0  0  0  0  0  0  0  0  0  0
    3.5851    1.8041   -0.9427 C   0  0  0  0  0  0  0  0  0  0  0  0
    4.4253    1.2778    0.1992 C   0  0  0  0  0  0  0  0  0  0  0  0
    4.4664    1.9552    1.4271 C   0  0  0  0  0  0  0  0  0  0  0  0
    5.2320    1.4597    2.4852 C   0  0  0  0  0  0  0  0  0  0  0  0
    5.9567    0.2849    2.3140 C   0  0  0  0  0  0  0  0  0  0  0  0
    6.7155   -0.2350    3.3204 O   0  0  0  0  0  0  0  0  0  0  0  0
    5.9289   -0.3989    1.1052 C   0  0  0  0  0  0  0  0  0  0  0  0
    5.1653    0.0967    0.0478 C   0  0  0  0  0  0  0  0  0  0  0  0
    1.7408    0.1506   -1.0269 N   0  0  0  0  0  0  0  0  0  0  0  0
    1.5289   -0.7657    0.0843 C   0  0  0  0  0  0  0  0  0  0  0  0
    0.2489   -0.4882    0.8811 C   0  0  0  0  0  0  0  0  0  0  0  0
   -1.0415   -0.7894    0.1136 C   0  0  0  0  0  0  0  0  0  0  0  0
   -2.2706   -0.6364    1.0165 C   0  0  0  0  0  0  0  0  0  0  0  0
   -3.5909   -1.0382    0.3311 C   0  0  0  0  0  0  0  0  0  0  0  0
   -4.7282   -1.0725    1.3740 C   0  0  0  0  0  0  0  0  0  0  0  0
   -6.1280   -0.9122    0.7762 C   0  0  0  0  0  0  0  0  0  0  0  0
   -6.1905   -1.3866   -0.6669 C   0  0  0  0  0  0  0  0  0  0  0  0
   -5.2332   -0.5976   -1.5592 C   0  0  0  0  0  0  0  0  0  0  0  0
   -3.9677   -0.1207   -0.8385 C   0  0  0  0  0  0  0  0  0  0  0  0
    1.6084   -1.7802   -2.6188 H   0  0  0  0  0  0  0  0  0  0  0  0
    0.5788   -1.0479   -3.7166 H   0  0  0  0  0  0  0  0  0  0  0  0
    1.8471    3.0312   -2.3967 H   0  0  0  0  0  0  0  0  0  0  0  0
    0.3670    2.7105   -1.4737 H   0  0  0  0  0  0  0  0  0  0  0  0
    1.7347    1.8987    0.2128 H   0  0  0  0  0  0  0  0  0  0  0  0
    3.9405    1.3743   -1.8888 H   0  0  0  0  0  0  0  0  0  0  0  0
    3.7701    2.8840   -1.0185 H   0  0  0  0  0  0  0  0  0  0  0  0
    3.9040    2.8758    1.5661 H   0  0  0  0  0  0  0  0  0  0  0  0
    5.2504    2.0001    3.4261 H   0  0  0  0  0  0  0  0  0  0  0  0
    6.6592    0.3571    4.0879 H   0  0  0  0  0  0  0  0  0  0  0  0
    6.5000   -1.3149    0.9853 H   0  0  0  0  0  0  0  0  0  0  0  0
    5.1439   -0.4483   -0.8935 H   0  0  0  0  0  0  0  0  0  0  0  0
    2.3768   -0.6887    0.7733 H   0  0  0  0  0  0  0  0  0  0  0  0
    1.5309   -1.8038   -0.2681 H   0  0  0  0  0  0  0  0  0  0  0  0
    0.2302    0.5502    1.2305 H   0  0  0  0  0  0  0  0  0  0  0  0
    0.2762   -1.1170    1.7803 H   0  0  0  0  0  0  0  0  0  0  0  0
   -1.1271   -0.1033   -0.7330 H   0  0  0  0  0  0  0  0  0  0  0  0
   -1.0040   -1.8098   -0.2850 H   0  0  0  0  0  0  0  0  0  0  0  0
   -2.3360    0.4010    1.3686 H   0  0  0  0  0  0  0  0  0  0  0  0
   -2.1326   -1.2638    1.9066 H   0  0  0  0  0  0  0  0  0  0  0  0
   -3.4673   -2.0562   -0.0643 H   0  0  0  0  0  0  0  0  0  0  0  0
   -4.6723   -2.0267    1.9135 H   0  0  0  0  0  0  0  0  0  0  0  0
   -4.5873   -0.2903    2.1308 H   0  0  0  0  0  0  0  0  0  0  0  0
   -6.4197    0.1450    0.8184 H   0  0  0  0  0  0  0  0  0  0  0  0
   -6.8541   -1.4590    1.3884 H   0  0  0  0  0  0  0  0  0  0  0  0
   -5.9338   -2.4526   -0.7080 H   0  0  0  0  0  0  0  0  0  0  0  0
   -7.2119   -1.2970   -1.0537 H   0  0  0  0  0  0  0  0  0  0  0  0
   -4.9571   -1.2245   -2.4159 H   0  0  0  0  0  0  0  0  0  0  0  0
   -5.7488    0.2764   -1.9757 H   0  0  0  0  0  0  0  0  0  0  0  0
   -3.1596   -0.0522   -1.5738 H   0  0  0  0  0  0  0  0  0  0  0  0
   -4.1300    0.8976   -0.4615 H   0  0  0  0  0  0  0  0  0  0  0  0
  1  2  1  0
  2  3  2  0
  3  4  1  0
  4  5  1  0
  5  6  1  0
  6  7  1  0
  7  8  2  0
  8  9  1  0
  9 10  2  0
 10 11  1  0
 10 12  1  0
 12 13  2  0
  5 14  1  0
 14 15  1  0
 15 16  1  0
 16 17  1  0
 17 18  1  0
 18 19  1  0
 19 20  1  0
 20 21  1  0
 21 22  1  0
 22 23  1  0
 23 24  1  0
 14  2  1  0
 24 19  1  0
 13  7  1  0
  1 25  1  0
  1 26  1  0
  4 27  1  0
  4 28  1  0
  5 29  1  0
  6 30  1  0
  6 31  1  0
  8 32  1  0
  9 33  1  0
 11 34  1  0
 12 35  1  0
 13 36  1  0
 15 37  1  0
 15 38  1  0
 16 39  1  0
 16 40  1  0
 17 41  1  0
 17 42  1  0
 18 43  1  0
 18 44  1  0
 19 45  1  0
 20 46  1  0
 20 47  1  0
 21 48  1  0
 21 49  1  0
 22 50  1  0
 22 51  1  0
 23 52  1  0
 23 53  1  0
 24 54  1  0
 24 55  1  0
M  END
$$$$
