
     RDKit          3D

 50 51  0  0  0  0  0  0  0  0999 V2000
    6.9393    0.8472   -0.7976 C   0  0  0  0  0  0  0  0  0  0  0  0
    5.6131    0.8947   -0.0975 C   0  0  0  0  0  0  0  0  0  0  0  0
    5.5186    0.5874    1.2649 C   0  0  0  0  0  0  0  0  0  0  0  0
    4.2890    0.6627    1.9241 C   0  0  0  0  0  0  0  0  0  0  0  0
    3.1381    1.0529    1.2297 C   0  0  0  0  0  0  0  0  0  0  0  0
    1.8530    1.1349    1.9225 C   0  0  0  0  0  0  0  0  0  0  0  0
    1.4806    2.2270    2.6027 C   0  0  0  0  0  0  0  0  0  0  0  0
   -0.0819    2.0358    3.3244 S   0  0  0  0  0  0  0  0  0  0  0  0
   -0.2424    0.3995    2.6595 C   0  0  0  0  0  0  0  0  0  0  0  0
   -1.5884   -0.5564    2.8878 S   0  0  0  0  0  0  0  0  0  0  0  0
    0.9218    0.1020    1.9454 N   0  0  0  0  0  0  0  0  0  0  0  0
    1.1204   -1.1592    1.2251 C   0  0  0  0  0  0  0  0  0  0  0  0
    0.4612   -1.1196   -0.1494 C   0  0  0  0  0  0  0  0  0  0  0  0
    0.4099   -0.1451   -0.8863 O   0  0  0  0  0  0  0  0  0  0  0  0
   -0.0493   -2.3482   -0.4534 O   0  0  0  0  0  0  0  0  0  0  0  0
   -0.5923   -2.4614   -1.7689 C   0  0  0  0  0  0  0  0  0  0  0  0
   -1.9844   -1.8620   -1.9964 C   0  0  0  0  0  0  0  0  0  0  0  0
   -2.4205   -1.6689   -3.1290 O   0  0  0  0  0  0  0  0  0  0  0  0
   -2.7156   -1.6317   -0.8504 N   0  0  0  0  0  0  0  0  0  0  0  0
   -4.0542   -1.0436   -0.8722 C   0  0  0  0  0  0  0  0  0  0  0  0
   -4.9386   -1.8448    0.0857 C   0  0  0  0  0  0  0  0  0  0  0  0
   -4.0079    0.4699   -0.5267 C   0  0  0  0  0  0  0  0  0  0  0  0
   -5.4064    1.0932   -0.4559 C   0  0  0  0  0  0  0  0  0  0  0  0
   -3.1680    1.2610   -1.5376 C   0  0  0  0  0  0  0  0  0  0  0  0
    3.2352    1.3829   -0.1259 C   0  0  0  0  0  0  0  0  0  0  0  0
    4.4648    1.3057   -0.7843 C   0  0  0  0  0  0  0  0  0  0  0  0
    6.8132    0.5952   -1.8558 H   0  0  0  0  0  0  0  0  0  0  0  0
    7.5865    0.0817   -0.3568 H   0  0  0  0  0  0  0  0  0  0  0  0
    7.4374    1.8186   -0.7215 H   0  0  0  0  0  0  0  0  0  0  0  0
    6.4039    0.2884    1.8224 H   0  0  0  0  0  0  0  0  0  0  0  0
    4.2374    0.4160    2.9824 H   0  0  0  0  0  0  0  0  0  0  0  0
    2.0607    3.1347    2.7051 H   0  0  0  0  0  0  0  0  0  0  0  0
    2.1827   -1.3889    1.1029 H   0  0  0  0  0  0  0  0  0  0  0  0
    0.6815   -1.9718    1.8134 H   0  0  0  0  0  0  0  0  0  0  0  0
   -0.6704   -3.5322   -1.9869 H   0  0  0  0  0  0  0  0  0  0  0  0
    0.1019   -2.0323   -2.5016 H   0  0  0  0  0  0  0  0  0  0  0  0
   -2.2589   -1.7389    0.0472 H   0  0  0  0  0  0  0  0  0  0  0  0
   -4.4660   -1.1609   -1.8823 H   0  0  0  0  0  0  0  0  0  0  0  0
   -4.6273   -1.7028    1.1262 H   0  0  0  0  0  0  0  0  0  0  0  0
   -5.9910   -1.5599   -0.0029 H   0  0  0  0  0  0  0  0  0  0  0  0
   -4.8734   -2.9168   -0.1334 H   0  0  0  0  0  0  0  0  0  0  0  0
   -3.5383    0.5949    0.4566 H   0  0  0  0  0  0  0  0  0  0  0  0
   -5.9874    0.6783    0.3732 H   0  0  0  0  0  0  0  0  0  0  0  0
   -5.9620    0.9259   -1.3848 H   0  0  0  0  0  0  0  0  0  0  0  0
   -5.3442    2.1743   -0.2896 H   0  0  0  0  0  0  0  0  0  0  0  0
   -3.1795    2.3306   -1.3010 H   0  0  0  0  0  0  0  0  0  0  0  0
   -2.1217    0.9433   -1.5238 H   0  0  0  0  0  0  0  0  0  0  0  0
   -3.5523    1.1367   -2.5556 H   0  0  0  0  0  0  0  0  0  0  0  0
    2.3538    1.7003   -0.6814 H   0  0  0  0  0  0  0  0  0  0  0  0
    4.5184    1.5698   -1.8385 H   0  0  0  0  0  0  0  0  0  0  0  0
  1  2  1  0
  2  3  2  0
  3  4  1  0
  4  5  2  0
  5  6  1  0
  6  7  2  0
  7  8  1  0
  8  9  1  0
  9 10  2  0
  9 11  1  0
 11 12  1  0
 12 13  1  0
 13 14  2  0
 13 15  1  0
 15 16  1  0
 16 17  1  0
 17 18  2  0
 17 19  1  0
 19 20  1  0
 20 21  1  0
 20 22  1  0
 22 23  1  0
 22 24  1  0
  5 25  1  0
 25 26  2  0
 26  2  1  0
 11  6  1  0
  1 27  1  0
  1 28  1  0
  1 29  1  0
  3 30  1  0
  4 31  1  0
  7 32  1  0
 12 33  1  0
 12 34  1  0
 16 35  1  0
 16 36  1  0
 19 37  1  0
 20 38  1  0
 21 39  1  0
 21 40  1  0
 21 41  1  0
 22 42  1  0
 23 43  1  0
 23 44  1  0
 23 45  1  0
 24 46  1  0
 24 47  1  0
 24 48  1  0
 25 49  1  0
 26 50  1  0
M  END
$$$$
