
     RDKit          3D

 56 59  0  0  0  0  0  0  0  0999 V2000
    5.7855    1.9857    1.0879 C   0  0  0  0  0  0  0  0  0  0  0  0
    5.0396    2.1585   -0.2296 C   0  0  0  0  0  0  0  0  0  0  0  0
    5.0221    0.9364   -0.9674 O   0  0  0  0  0  0  0  0  0  0  0  0
    3.9956    0.0450   -0.7765 C   0  0  0  0  0  0  0  0  0  0  0  0
    3.0146    0.1494    0.2146 C   0  0  0  0  0  0  0  0  0  0  0  0
    2.0159   -0.8285    0.3356 C   0  0  0  0  0  0  0  0  0  0  0  0
    1.0285   -0.7138    1.4114 C   0  0  0  0  0  0  0  0  0  0  0  0
   -0.2747   -0.4226    1.2783 C   0  0  0  0  0  0  0  0  0  0  0  0
   -1.3174   -0.3128    2.6382 S   0  0  0  0  0  0  0  0  0  0  0  0
   -2.6915    0.1877    1.6670 C   0  0  0  0  0  0  0  0  0  0  0  0
   -3.8401    0.5491    2.1421 N   0  0  0  0  0  0  0  0  0  0  0  0
   -4.0935    0.5329    3.5195 C   0  0  0  0  0  0  0  0  0  0  0  0
   -4.6089   -0.6151    4.1297 C   0  0  0  0  0  0  0  0  0  0  0  0
   -4.8812   -0.6270    5.4996 C   0  0  0  0  0  0  0  0  0  0  0  0
   -4.6617    0.5197    6.2623 C   0  0  0  0  0  0  0  0  0  0  0  0
   -4.1698    1.6767    5.6561 C   0  0  0  0  0  0  0  0  0  0  0  0
   -3.8959    1.6854    4.2864 C   0  0  0  0  0  0  0  0  0  0  0  0
   -2.3623    0.1880    0.3184 N   0  0  0  0  0  0  0  0  0  0  0  0
   -3.3073    0.4902   -0.7287 C   0  0  0  0  0  0  0  0  0  0  0  0
   -4.6833    0.2472   -0.5783 C   0  0  0  0  0  0  0  0  0  0  0  0
   -5.5968    0.5395   -1.5998 C   0  0  0  0  0  0  0  0  0  0  0  0
   -5.1551    1.0766   -2.8027 C   0  0  0  0  0  0  0  0  0  0  0  0
   -3.7989    1.3159   -2.9849 C   0  0  0  0  0  0  0  0  0  0  0  0
   -2.8881    1.0267   -1.9599 C   0  0  0  0  0  0  0  0  0  0  0  0
   -1.0387   -0.1454    0.0240 C   0  0  0  0  0  0  0  0  0  0  0  0
   -0.5255   -0.2598   -1.0823 O   0  0  0  0  0  0  0  0  0  0  0  0
    2.0101   -1.9269   -0.5298 C   0  0  0  0  0  0  0  0  0  0  0  0
    2.9854   -2.0437   -1.5203 C   0  0  0  0  0  0  0  0  0  0  0  0
    3.9664   -1.0546   -1.6563 C   0  0  0  0  0  0  0  0  0  0  0  0
    4.9755   -1.1436   -2.5832 O   0  0  0  0  0  0  0  0  0  0  0  0
    4.5708   -1.5246   -3.8978 C   0  0  0  0  0  0  0  0  0  0  0  0
    4.8871   -2.9772   -4.2257 C   0  0  0  0  0  0  0  0  0  0  0  0
    5.2579   -3.8558   -3.4607 O   0  0  0  0  0  0  0  0  0  0  0  0
    4.6988   -3.2573   -5.5369 O   0  0  0  0  0  0  0  0  0  0  0  0
    5.8407    2.9372    1.6284 H   0  0  0  0  0  0  0  0  0  0  0  0
    6.8044    1.6274    0.9074 H   0  0  0  0  0  0  0  0  0  0  0  0
    5.3013    1.2435    1.7327 H   0  0  0  0  0  0  0  0  0  0  0  0
    5.5875    2.8856   -0.8434 H   0  0  0  0  0  0  0  0  0  0  0  0
    4.0374    2.5811   -0.0935 H   0  0  0  0  0  0  0  0  0  0  0  0
    3.0138    0.9755    0.9188 H   0  0  0  0  0  0  0  0  0  0  0  0
    1.4503   -0.8750    2.4023 H   0  0  0  0  0  0  0  0  0  0  0  0
   -4.7917   -1.5069    3.5361 H   0  0  0  0  0  0  0  0  0  0  0  0
   -5.2709   -1.5279    5.9683 H   0  0  0  0  0  0  0  0  0  0  0  0
   -4.8759    0.5125    7.3287 H   0  0  0  0  0  0  0  0  0  0  0  0
   -4.0056    2.5741    6.2471 H   0  0  0  0  0  0  0  0  0  0  0  0
   -3.5301    2.5926    3.8132 H   0  0  0  0  0  0  0  0  0  0  0  0
   -5.0877   -0.2026    0.3234 H   0  0  0  0  0  0  0  0  0  0  0  0
   -6.6551    0.3418   -1.4477 H   0  0  0  0  0  0  0  0  0  0  0  0
   -5.8635    1.3023   -3.5957 H   0  0  0  0  0  0  0  0  0  0  0  0
   -3.4409    1.7308   -3.9227 H   0  0  0  0  0  0  0  0  0  0  0  0
   -1.8443    1.2634   -2.1513 H   0  0  0  0  0  0  0  0  0  0  0  0
    1.2531   -2.7033   -0.4381 H   0  0  0  0  0  0  0  0  0  0  0  0
    2.9787   -2.9278   -2.1540 H   0  0  0  0  0  0  0  0  0  0  0  0
    3.5077   -1.3245   -4.0868 H   0  0  0  0  0  0  0  0  0  0  0  0
    5.1539   -0.9062   -4.5904 H   0  0  0  0  0  0  0  0  0  0  0  0
    4.9737   -4.1961   -5.6181 H   0  0  0  0  0  0  0  0  0  0  0  0
  1  2  1  0
  2  3  1  0
  3  4  1  0
  4  5  2  0
  5  6  1  0
  6  7  1  0
  7  8  2  3
  8  9  1  0
  9 10  1  0
 10 11  2  3
 11 12  1  0
 12 13  2  0
 13 14  1  0
 14 15  2  0
 15 16  1  0
 16 17  2  0
 10 18  1  0
 18 19  1  0
 19 20  2  0
 20 21  1  0
 21 22  2  0
 22 23  1  0
 23 24  2  0
 18 25  1  0
 25 26  2  0
  6 27  2  0
 27 28  1  0
 28 29  2  0
 29 30  1  0
 30 31  1  0
 31 32  1  0
 32 33  2  0
 32 34  1  0
 29  4  1  0
 25  8  1  0
 17 12  1  0
 24 19  1  0
  1 35  1  0
  1 36  1  0
  1 37  1  0
  2 38  1  0
  2 39  1  0
  5 40  1  0
  7 41  1  0
 13 42  1  0
 14 43  1  0
 15 44  1  0
 16 45  1  0
 17 46  1  0
 20 47  1  0
 21 48  1  0
 22 49  1  0
 23 50  1  0
 24 51  1  0
 27 52  1  0
 28 53  1  0
 31 54  1  0
 31 55  1  0
 34 56  1  0
M  END
$$$$
