
     RDKit          3D

 50 52  0  0  0  0  0  0  0  0999 V2000
    7.8894   -0.2082   -0.3539 C   0  0  0  0  0  0  0  0  0  0  0  0
    6.4015   -0.3611   -0.4944 C   0  0  0  0  0  0  0  0  0  0  0  0
    5.8600   -1.5668   -0.9629 C   0  0  0  0  0  0  0  0  0  0  0  0
    4.4805   -1.7238   -1.1317 C   0  0  0  0  0  0  0  0  0  0  0  0
    3.8297   -3.2075   -1.6967 Cl  0  0  0  0  0  0  0  0  0  0  0  0
    3.6701   -0.6311   -0.8263 C   0  0  0  0  0  0  0  0  0  0  0  0
    2.3130   -0.5819   -0.9235 O   0  0  0  0  0  0  0  0  0  0  0  0
    1.9145    0.6695   -0.5341 C   0  0  0  0  0  0  0  0  0  0  0  0
    0.4969    0.9796   -0.5447 C   0  0  0  0  0  0  0  0  0  0  0  0
    0.0325    2.0620   -0.1977 O   0  0  0  0  0  0  0  0  0  0  0  0
   -0.2945   -0.0628   -0.9762 N   0  0  0  0  0  0  0  0  0  0  0  0
   -1.7428    0.0061   -1.0481 C   0  0  0  0  0  0  0  0  0  0  0  0
   -2.5074   -0.6029    0.1865 C   0  0  0  0  0  0  0  0  0  0  0  0
   -2.0076   -2.0600    0.3665 C   0  0  0  0  0  0  0  0  0  0  0  0
   -2.1645    0.2023    1.4588 C   0  0  0  0  0  0  0  0  0  0  0  0
   -3.9782   -0.6440   -0.0764 N   0  0  0  0  0  0  0  0  0  0  0  0
   -4.5586    0.5971   -0.6338 C   0  0  0  0  0  0  0  0  0  0  0  0
   -6.0962    0.5760   -0.6022 C   0  0  0  0  0  0  0  0  0  0  0  0
   -6.6297    0.5186    0.7254 O   0  0  0  0  0  0  0  0  0  0  0  0
   -5.7445   -0.1146    1.6554 C   0  0  0  0  0  0  0  0  0  0  0  0
   -4.8348   -1.1739    1.0080 C   0  0  0  0  0  0  0  0  0  0  0  0
    3.0218    1.4314   -0.1834 C   0  0  0  0  0  0  0  0  0  0  0  0
    3.0065    2.8389    0.2915 C   0  0  0  0  0  0  0  0  0  0  0  0
    4.1604    0.5874   -0.3721 C   0  0  0  0  0  0  0  0  0  0  0  0
    5.5539    0.7269   -0.2089 C   0  0  0  0  0  0  0  0  0  0  0  0
    8.1355    0.5008    0.4436 H   0  0  0  0  0  0  0  0  0  0  0  0
    8.3572   -1.1636   -0.0940 H   0  0  0  0  0  0  0  0  0  0  0  0
    8.3180    0.1527   -1.2938 H   0  0  0  0  0  0  0  0  0  0  0  0
    6.5205   -2.3991   -1.2001 H   0  0  0  0  0  0  0  0  0  0  0  0
    0.1773   -0.9224   -1.2368 H   0  0  0  0  0  0  0  0  0  0  0  0
   -2.0193    1.0567   -1.1910 H   0  0  0  0  0  0  0  0  0  0  0  0
   -2.0227   -0.5360   -1.9597 H   0  0  0  0  0  0  0  0  0  0  0  0
   -2.2310   -2.6645   -0.5206 H   0  0  0  0  0  0  0  0  0  0  0  0
   -0.9241   -2.0970    0.5270 H   0  0  0  0  0  0  0  0  0  0  0  0
   -2.4548   -2.5594    1.2311 H   0  0  0  0  0  0  0  0  0  0  0  0
   -2.4334    1.2584    1.3538 H   0  0  0  0  0  0  0  0  0  0  0  0
   -1.0930    0.1559    1.6815 H   0  0  0  0  0  0  0  0  0  0  0  0
   -2.6752   -0.1856    2.3459 H   0  0  0  0  0  0  0  0  0  0  0  0
   -4.2165    1.4705   -0.0666 H   0  0  0  0  0  0  0  0  0  0  0  0
   -4.2450    0.7162   -1.6761 H   0  0  0  0  0  0  0  0  0  0  0  0
   -6.4934    1.4798   -1.0756 H   0  0  0  0  0  0  0  0  0  0  0  0
   -6.4846   -0.2813   -1.1648 H   0  0  0  0  0  0  0  0  0  0  0  0
   -5.1478    0.6648    2.1431 H   0  0  0  0  0  0  0  0  0  0  0  0
   -6.3639   -0.5782    2.4301 H   0  0  0  0  0  0  0  0  0  0  0  0
   -4.2717   -1.6807    1.7958 H   0  0  0  0  0  0  0  0  0  0  0  0
   -5.4749   -1.9404    0.5529 H   0  0  0  0  0  0  0  0  0  0  0  0
    2.5567    3.4929   -0.4625 H   0  0  0  0  0  0  0  0  0  0  0  0
    4.0168    3.2073    0.4933 H   0  0  0  0  0  0  0  0  0  0  0  0
    2.4281    2.9246    1.2170 H   0  0  0  0  0  0  0  0  0  0  0  0
    5.9691    1.6703    0.1373 H   0  0  0  0  0  0  0  0  0  0  0  0
  1  2  1  0
  2  3  2  0
  3  4  1  0
  4  5  1  0
  4  6  2  0
  6  7  1  0
  7  8  1  0
  8  9  1  0
  9 10  2  0
  9 11  1  0
 11 12  1  0
 12 13  1  0
 13 14  1  0
 13 15  1  0
 13 16  1  0
 16 17  1  0
 17 18  1  0
 18 19  1  0
 19 20  1  0
 20 21  1  0
  8 22  2  0
 22 23  1  0
 22 24  1  0
 24 25  2  0
 25  2  1  0
 24  6  1  0
 21 16  1  0
  1 26  1  0
  1 27  1  0
  1 28  1  0
  3 29  1  0
 11 30  1  0
 12 31  1  0
 12 32  1  0
 14 33  1  0
 14 34  1  0
 14 35  1  0
 15 36  1  0
 15 37  1  0
 15 38  1  0
 17 39  1  0
 17 40  1  0
 18 41  1  0
 18 42  1  0
 20 43  1  0
 20 44  1  0
 21 45  1  0
 21 46  1  0
 23 47  1  0
 23 48  1  0
 23 49  1  0
 25 50  1  0
M  END
$$$$
