
     RDKit          3D

 56 59  0  0  0  0  0  0  0  0999 V2000
   -3.4679    3.3159    3.9700 C   0  0  0  0  0  0  0  0  0  0  0  0
   -2.9762    3.0770    2.5507 C   0  0  0  0  0  0  0  0  0  0  0  0
   -2.1447    1.8751    2.4630 N   0  0  0  0  0  0  0  0  0  0  0  0
   -2.8357    0.6136    2.1630 C   0  0  0  0  0  0  0  0  0  0  0  0
   -3.0077    0.4322    0.6458 C   0  0  0  0  0  0  0  0  0  0  0  0
   -4.0451    0.9790    0.0890 N   0  0  0  0  0  0  0  0  0  0  0  0
   -4.2181    0.8620   -1.2735 C   0  0  0  0  0  0  0  0  0  0  0  0
   -5.2115    1.2961   -1.8468 O   0  0  0  0  0  0  0  0  0  0  0  0
   -3.1716    0.1936   -2.0920 C   0  0  0  0  0  0  0  0  0  0  0  0
   -3.2648    0.1192   -3.4862 C   0  0  0  0  0  0  0  0  0  0  0  0
   -2.2587   -0.5244   -4.2086 C   0  0  0  0  0  0  0  0  0  0  0  0
   -1.1745   -1.0872   -3.5338 C   0  0  0  0  0  0  0  0  0  0  0  0
    0.0606   -1.8903   -4.4223 Cl  0  0  0  0  0  0  0  0  0  0  0  0
   -1.0829   -1.0134   -2.1422 C   0  0  0  0  0  0  0  0  0  0  0  0
   -2.0846   -0.3669   -1.4143 C   0  0  0  0  0  0  0  0  0  0  0  0
   -2.0459   -0.2867   -0.0231 N   0  0  0  0  0  0  0  0  0  0  0  0
   -0.7772    2.0211    2.6813 C   0  0  0  0  0  0  0  0  0  0  0  0
   -0.2273    3.0820    2.9607 O   0  0  0  0  0  0  0  0  0  0  0  0
    0.0903    0.8412    2.5461 C   0  0  0  0  0  0  0  0  0  0  0  0
    0.2316   -0.0545    3.6055 C   0  0  0  0  0  0  0  0  0  0  0  0
    1.0509   -1.1705    3.4447 C   0  0  0  0  0  0  0  0  0  0  0  0
    1.7248   -1.3837    2.2352 C   0  0  0  0  0  0  0  0  0  0  0  0
    1.5968   -0.4703    1.1862 C   0  0  0  0  0  0  0  0  0  0  0  0
    2.1688   -0.5772   -0.0487 O   0  0  0  0  0  0  0  0  0  0  0  0
    3.1872   -1.5650   -0.2203 C   0  0  0  0  0  0  0  0  0  0  0  0
    3.7908   -1.4458   -1.5723 C   0  0  0  0  0  0  0  0  0  0  0  0
    4.5641   -0.3685   -2.0867 C   0  0  0  0  0  0  0  0  0  0  0  0
    4.9370    0.8973   -1.4127 C   0  0  0  0  0  0  0  0  0  0  0  0
    4.9602   -0.6052   -3.3420 N   0  0  0  0  0  0  0  0  0  0  0  0
    4.4372   -1.8381   -3.6758 O   0  0  0  0  0  0  0  0  0  0  0  0
    3.7350   -2.3352   -2.6243 C   0  0  0  0  0  0  0  0  0  0  0  0
    3.1060   -3.6533   -2.8309 C   0  0  0  0  0  0  0  0  0  0  0  0
    0.7890    0.6553    1.3516 C   0  0  0  0  0  0  0  0  0  0  0  0
   -4.0717    2.4746    4.3251 H   0  0  0  0  0  0  0  0  0  0  0  0
   -2.6291    3.4399    4.6626 H   0  0  0  0  0  0  0  0  0  0  0  0
   -4.0828    4.2200    4.0118 H   0  0  0  0  0  0  0  0  0  0  0  0
   -3.8253    2.9848    1.8666 H   0  0  0  0  0  0  0  0  0  0  0  0
   -2.3942    3.9456    2.2221 H   0  0  0  0  0  0  0  0  0  0  0  0
   -3.8197    0.6223    2.6444 H   0  0  0  0  0  0  0  0  0  0  0  0
   -2.2826   -0.2397    2.5615 H   0  0  0  0  0  0  0  0  0  0  0  0
   -4.1141    0.5596   -4.0048 H   0  0  0  0  0  0  0  0  0  0  0  0
   -2.3261   -0.5832   -5.2923 H   0  0  0  0  0  0  0  0  0  0  0  0
   -0.2287   -1.4544   -1.6359 H   0  0  0  0  0  0  0  0  0  0  0  0
   -1.2300   -0.6398    0.4577 H   0  0  0  0  0  0  0  0  0  0  0  0
   -0.2853    0.1190    4.5462 H   0  0  0  0  0  0  0  0  0  0  0  0
    1.1702   -1.8768    4.2640 H   0  0  0  0  0  0  0  0  0  0  0  0
    2.3431   -2.2724    2.1513 H   0  0  0  0  0  0  0  0  0  0  0  0
    3.9753   -1.4284    0.5312 H   0  0  0  0  0  0  0  0  0  0  0  0
    2.7507   -2.5638   -0.0999 H   0  0  0  0  0  0  0  0  0  0  0  0
    5.6400    1.4829   -2.0143 H   0  0  0  0  0  0  0  0  0  0  0  0
    5.4104    0.6927   -0.4468 H   0  0  0  0  0  0  0  0  0  0  0  0
    4.0472    1.5111   -1.2378 H   0  0  0  0  0  0  0  0  0  0  0  0
    3.7331   -4.4439   -2.4061 H   0  0  0  0  0  0  0  0  0  0  0  0
    2.9646   -3.8630   -3.8960 H   0  0  0  0  0  0  0  0  0  0  0  0
    2.1246   -3.6952   -2.3477 H   0  0  0  0  0  0  0  0  0  0  0  0
    0.6945    1.3840    0.5484 H   0  0  0  0  0  0  0  0  0  0  0  0
  1  2  1  0
  2  3  1  0
  3  4  1  0
  4  5  1  0
  5  6  2  0
  6  7  1  0
  7  8  2  0
  7  9  1  0
  9 10  2  0
 10 11  1  0
 11 12  2  0
 12 13  1  0
 12 14  1  0
 14 15  2  0
 15 16  1  0
  3 17  1  0
 17 18  2  0
 17 19  1  0
 19 20  2  0
 20 21  1  0
 21 22  2  0
 22 23  1  0
 23 24  1  0
 24 25  1  0
 25 26  1  0
 26 27  1  0
 27 28  1  0
 27 29  2  0
 29 30  1  0
 30 31  1  0
 31 32  1  0
 23 33  2  0
 16  5  1  0
 33 19  1  0
 15  9  1  0
 31 26  2  0
  1 34  1  0
  1 35  1  0
  1 36  1  0
  2 37  1  0
  2 38  1  0
  4 39  1  0
  4 40  1  0
 10 41  1  0
 11 42  1  0
 14 43  1  0
 16 44  1  0
 20 45  1  0
 21 46  1  0
 22 47  1  0
 25 48  1  0
 25 49  1  0
 28 50  1  0
 28 51  1  0
 28 52  1  0
 32 53  1  0
 32 54  1  0
 32 55  1  0
 33 56  1  0
M  END
$$$$
