
     RDKit          3D

 52 54  0  0  0  0  0  0  0  0999 V2000
    2.2226    1.0578    1.8383 O   0  0  0  0  0  0  0  0  0  0  0  0
    2.5232    1.6306    0.7986 C   0  0  0  0  0  0  0  0  0  0  0  0
    3.6149    1.1331   -0.1295 C   0  0  0  0  0  0  0  0  0  0  0  0
    4.1391   -0.2363    0.2944 C   0  0  0  0  0  0  0  0  0  0  0  0
    5.1887   -0.7364   -0.6665 C   0  0  0  0  0  0  0  0  0  0  0  0
    4.8217   -1.4982   -1.7839 C   0  0  0  0  0  0  0  0  0  0  0  0
    5.7901   -1.9394   -2.6867 C   0  0  0  0  0  0  0  0  0  0  0  0
    7.1315   -1.6211   -2.4834 C   0  0  0  0  0  0  0  0  0  0  0  0
    7.5063   -0.8626   -1.3757 C   0  0  0  0  0  0  0  0  0  0  0  0
    6.5399   -0.4202   -0.4713 C   0  0  0  0  0  0  0  0  0  0  0  0
    1.9511    2.8111    0.3247 N   0  0  0  0  0  0  0  0  0  0  0  0
    1.0031    3.5620    0.9488 C   0  0  0  0  0  0  0  0  0  0  0  0
    1.1272    5.2283    0.8660 S   0  0  0  0  0  0  0  0  0  0  0  0
   -0.0162    3.0119    1.6496 N   0  0  0  0  0  0  0  0  0  0  0  0
   -0.7134    1.8016    1.4536 C   0  0  0  0  0  0  0  0  0  0  0  0
   -0.6052    1.0225    0.2972 C   0  0  0  0  0  0  0  0  0  0  0  0
   -1.3520   -0.1522    0.1604 C   0  0  0  0  0  0  0  0  0  0  0  0
   -2.2373   -0.5320    1.1717 C   0  0  0  0  0  0  0  0  0  0  0  0
   -3.1623   -2.0452    1.0126 S   0  0  0  0  0  6  0  0  0  0  0  0
   -2.4366   -2.9031    0.1000 O   0  0  0  0  0  0  0  0  0  0  0  0
   -3.5031   -2.4910    2.3472 O   0  0  0  0  0  0  0  0  0  0  0  0
   -4.5943   -1.5604    0.2458 N   0  0  0  0  0  0  0  0  0  0  0  0
   -4.4865   -1.1015   -1.1670 C   0  0  0  0  0  0  0  0  0  0  0  0
   -5.8883   -1.0259   -1.7843 C   0  0  0  0  0  0  0  0  0  0  0  0
   -6.7392   -0.1500   -1.0278 O   0  0  0  0  0  0  0  0  0  0  0  0
   -6.8794   -0.6335    0.3179 C   0  0  0  0  0  0  0  0  0  0  0  0
   -5.5206   -0.6932    1.0267 C   0  0  0  0  0  0  0  0  0  0  0  0
   -2.3568    0.2363    2.3308 C   0  0  0  0  0  0  0  0  0  0  0  0
   -1.6066    1.4088    2.4591 C   0  0  0  0  0  0  0  0  0  0  0  0
    3.2053    1.0835   -1.1459 H   0  0  0  0  0  0  0  0  0  0  0  0
    4.4282    1.8691   -0.1277 H   0  0  0  0  0  0  0  0  0  0  0  0
    3.3169   -0.9617    0.3478 H   0  0  0  0  0  0  0  0  0  0  0  0
    4.5605   -0.1905    1.3067 H   0  0  0  0  0  0  0  0  0  0  0  0
    3.7795   -1.7568   -1.9560 H   0  0  0  0  0  0  0  0  0  0  0  0
    5.4975   -2.5344   -3.5481 H   0  0  0  0  0  0  0  0  0  0  0  0
    7.8845   -1.9675   -3.1861 H   0  0  0  0  0  0  0  0  0  0  0  0
    8.5530   -0.6185   -1.2132 H   0  0  0  0  0  0  0  0  0  0  0  0
    6.8486    0.1691    0.3894 H   0  0  0  0  0  0  0  0  0  0  0  0
    2.5688    3.3710   -0.2494 H   0  0  0  0  0  0  0  0  0  0  0  0
   -0.4335    3.6448    2.3236 H   0  0  0  0  0  0  0  0  0  0  0  0
    0.0390    1.3152   -0.5244 H   0  0  0  0  0  0  0  0  0  0  0  0
   -1.2370   -0.7600   -0.7344 H   0  0  0  0  0  0  0  0  0  0  0  0
   -4.0263   -0.1077   -1.1891 H   0  0  0  0  0  0  0  0  0  0  0  0
   -3.8771   -1.7949   -1.7534 H   0  0  0  0  0  0  0  0  0  0  0  0
   -6.3529   -2.0177   -1.8389 H   0  0  0  0  0  0  0  0  0  0  0  0
   -5.8244   -0.6286   -2.8018 H   0  0  0  0  0  0  0  0  0  0  0  0
   -7.5459    0.0534    0.8485 H   0  0  0  0  0  0  0  0  0  0  0  0
   -7.3601   -1.6188    0.2964 H   0  0  0  0  0  0  0  0  0  0  0  0
   -5.1001    0.3162    1.0913 H   0  0  0  0  0  0  0  0  0  0  0  0
   -5.6642   -1.0898    2.0360 H   0  0  0  0  0  0  0  0  0  0  0  0
   -3.0172   -0.0712    3.1384 H   0  0  0  0  0  0  0  0  0  0  0  0
   -1.7048    1.9941    3.3704 H   0  0  0  0  0  0  0  0  0  0  0  0
  1  2  2  0
  2  3  1  0
  3  4  1  0
  4  5  1  0
  5  6  2  0
  6  7  1  0
  7  8  2  0
  8  9  1  0
  9 10  2  0
  2 11  1  0
 11 12  1  0
 12 13  2  0
 12 14  1  0
 14 15  1  0
 15 16  2  0
 16 17  1  0
 17 18  2  0
 18 19  1  0
 19 20  2  0
 19 21  2  0
 19 22  1  0
 22 23  1  0
 23 24  1  0
 24 25  1  0
 25 26  1  0
 26 27  1  0
 18 28  1  0
 28 29  2  0
 10  5  1  0
 29 15  1  0
 27 22  1  0
  3 30  1  0
  3 31  1  0
  4 32  1  0
  4 33  1  0
  6 34  1  0
  7 35  1  0
  8 36  1  0
  9 37  1  0
 10 38  1  0
 11 39  1  0
 14 40  1  0
 16 41  1  0
 17 42  1  0
 23 43  1  0
 23 44  1  0
 24 45  1  0
 24 46  1  0
 26 47  1  0
 26 48  1  0
 27 49  1  0
 27 50  1  0
 28 51  1  0
 29 52  1  0
M  END
$$$$
