
     RDKit          3D

 43 45  0  0  0  0  0  0  0  0999 V2000
   -6.1159    1.4937    2.4050 C   0  0  0  0  0  0  0  0  0  0  0  0
   -6.8175    0.9255    1.1799 C   0  0  0  0  0  0  0  0  0  0  0  0
   -6.0896    1.2483   -0.1236 C   0  0  0  0  0  0  0  0  0  0  0  0
   -4.7967    0.4968   -0.2456 C   0  0  0  0  0  0  0  0  0  0  0  0
   -4.7238   -0.7907   -0.3717 N   0  0  0  0  0  0  0  0  0  0  0  0
   -3.3981   -1.1523   -0.4539 N   0  0  0  0  0  0  0  0  0  0  0  0
   -3.0058   -2.4641   -0.5989 C   0  0  0  0  0  0  0  0  0  0  0  0
   -3.7336   -3.4490   -0.6748 O   0  0  0  0  0  0  0  0  0  0  0  0
   -1.5369   -2.6367   -0.6693 C   0  0  0  0  0  0  0  0  0  0  0  0
   -0.7315   -1.5634   -0.5836 C   0  0  0  0  0  0  0  0  0  0  0  0
    0.7710   -1.7202   -0.6703 C   0  0  0  0  0  0  0  0  0  0  0  0
    1.5199   -1.6914    0.9957 S   0  0  0  0  0  0  0  0  0  0  0  0
    1.6992    0.1150    1.2181 C   0  0  0  0  0  0  0  0  0  0  0  0
    2.7526    0.7047    0.2873 C   0  0  0  0  0  0  0  0  0  0  0  0
    2.5307    1.7368   -0.3388 O   0  0  0  0  0  0  0  0  0  0  0  0
    3.9399   -0.0104    0.2904 N   0  0  0  0  0  0  0  0  0  0  0  0
    5.1237    0.2695   -0.4173 C   0  0  0  0  0  0  0  0  0  0  0  0
    5.3048    1.3989   -1.2209 C   0  0  0  0  0  0  0  0  0  0  0  0
    6.5153    1.6031   -1.8914 C   0  0  0  0  0  0  0  0  0  0  0  0
    7.5422    0.6788   -1.7561 C   0  0  0  0  0  0  0  0  0  0  0  0
    8.7003    0.8760   -2.3988 F   0  0  0  0  0  0  0  0  0  0  0  0
    7.3832   -0.4481   -0.9613 C   0  0  0  0  0  0  0  0  0  0  0  0
    6.1741   -0.6522   -0.2916 C   0  0  0  0  0  0  0  0  0  0  0  0
   -1.1983   -0.2706   -0.4547 N   0  0  0  0  0  0  0  0  0  0  0  0
   -2.4802   -0.1389   -0.3937 C   0  0  0  0  0  0  0  0  0  0  0  0
   -3.2906    1.3831   -0.2203 S   0  0  0  0  0  0  0  0  0  0  0  0
   -5.1319    1.0375    2.5490 H   0  0  0  0  0  0  0  0  0  0  0  0
   -6.7095    1.2963    3.3034 H   0  0  0  0  0  0  0  0  0  0  0  0
   -5.9858    2.5769    2.3165 H   0  0  0  0  0  0  0  0  0  0  0  0
   -6.9277   -0.1587    1.2996 H   0  0  0  0  0  0  0  0  0  0  0  0
   -7.8286    1.3464    1.1303 H   0  0  0  0  0  0  0  0  0  0  0  0
   -5.9253    2.3273   -0.2147 H   0  0  0  0  0  0  0  0  0  0  0  0
   -6.7211    0.9448   -0.9673 H   0  0  0  0  0  0  0  0  0  0  0  0
   -1.1746   -3.6509   -0.7793 H   0  0  0  0  0  0  0  0  0  0  0  0
    1.2105   -0.9538   -1.3168 H   0  0  0  0  0  0  0  0  0  0  0  0
    1.0282   -2.6862   -1.1197 H   0  0  0  0  0  0  0  0  0  0  0  0
    2.0149    0.3071    2.2488 H   0  0  0  0  0  0  0  0  0  0  0  0
    0.7425    0.6190    1.0650 H   0  0  0  0  0  0  0  0  0  0  0  0
    3.9229   -0.8731    0.8261 H   0  0  0  0  0  0  0  0  0  0  0  0
    4.5249    2.1435   -1.3466 H   0  0  0  0  0  0  0  0  0  0  0  0
    6.6575    2.4795   -2.5158 H   0  0  0  0  0  0  0  0  0  0  0  0
    8.1980   -1.1585   -0.8673 H   0  0  0  0  0  0  0  0  0  0  0  0
    6.0666   -1.5395    0.3271 H   0  0  0  0  0  0  0  0  0  0  0  0
  1  2  1  0
  2  3  1  0
  3  4  1  0
  4  5  2  0
  5  6  1  0
  6  7  1  0
  7  8  2  0
  7  9  1  0
  9 10  2  0
 10 11  1  0
 11 12  1  0
 12 13  1  0
 13 14  1  0
 14 15  2  0
 14 16  1  0
 16 17  1  0
 17 18  2  0
 18 19  1  0
 19 20  2  0
 20 21  1  0
 20 22  1  0
 22 23  2  0
 10 24  1  0
 24 25  2  0
 25 26  1  0
 26  4  1  0
 25  6  1  0
 23 17  1  0
  1 27  1  0
  1 28  1  0
  1 29  1  0
  2 30  1  0
  2 31  1  0
  3 32  1  0
  3 33  1  0
  9 34  1  0
 11 35  1  0
 11 36  1  0
 13 37  1  0
 13 38  1  0
 16 39  1  0
 18 40  1  0
 19 41  1  0
 22 42  1  0
 23 43  1  0
M  END
$$$$
