
     RDKit          3D

 39 41  0  0  0  0  0  0  0  0999 V2000
    0.2854   -1.3814   -1.5114 O   0  0  0  0  0  0  0  0  0  0  0  0
    0.0674   -0.4258   -0.7720 C   0  0  0  0  0  0  0  0  0  0  0  0
    1.0697    0.3858   -0.2904 N   0  0  0  0  0  0  0  0  0  0  0  0
    2.4785    0.0886   -0.4849 C   0  0  0  0  0  0  0  0  0  0  0  0
    3.3137    1.3769   -0.4112 C   0  0  0  0  0  0  0  0  0  0  0  0
    4.7685    1.1425    0.0039 C   0  0  0  0  0  0  0  0  0  0  0  0
    5.2569   -0.2460   -0.3833 C   0  0  0  0  0  0  0  0  0  0  0  0
    4.4257   -1.3453    0.2798 C   0  0  0  0  0  0  0  0  0  0  0  0
    2.9694   -0.9464    0.5306 C   0  0  0  0  0  0  0  0  0  0  0  0
   -1.3350   -0.0990   -0.3556 C   0  0  0  0  0  0  0  0  0  0  0  0
   -2.3642   -0.8423   -0.9585 C   0  0  0  0  0  0  0  0  0  0  0  0
   -3.7142   -0.6180   -0.6425 C   0  0  0  0  0  0  0  0  0  0  0  0
   -4.7395   -1.3616   -1.2486 C   0  0  0  0  0  0  0  0  0  0  0  0
   -6.0768   -1.1279   -0.9257 C   0  0  0  0  0  0  0  0  0  0  0  0
   -6.4058   -0.1488    0.0065 C   0  0  0  0  0  0  0  0  0  0  0  0
   -5.3980    0.5987    0.6180 C   0  0  0  0  0  0  0  0  0  0  0  0
   -4.0470    0.3757    0.3038 C   0  0  0  0  0  0  0  0  0  0  0  0
   -3.0209    1.1177    0.9104 C   0  0  0  0  0  0  0  0  0  0  0  0
   -1.6799    0.8818    0.5851 C   0  0  0  0  0  0  0  0  0  0  0  0
   -0.7146    1.6277    1.2145 O   0  0  0  0  0  0  0  0  0  0  0  0
    0.8022    1.0585    0.4238 H   0  0  0  0  0  0  0  0  0  0  0  0
    2.5876   -0.3409   -1.4897 H   0  0  0  0  0  0  0  0  0  0  0  0
    3.2860    1.8647   -1.3942 H   0  0  0  0  0  0  0  0  0  0  0  0
    2.8683    2.0969    0.2875 H   0  0  0  0  0  0  0  0  0  0  0  0
    5.4075    1.9099   -0.4476 H   0  0  0  0  0  0  0  0  0  0  0  0
    4.8580    1.2629    1.0910 H   0  0  0  0  0  0  0  0  0  0  0  0
    5.2016   -0.3554   -1.4738 H   0  0  0  0  0  0  0  0  0  0  0  0
    6.3114   -0.3681   -0.1114 H   0  0  0  0  0  0  0  0  0  0  0  0
    4.4612   -2.2408   -0.3523 H   0  0  0  0  0  0  0  0  0  0  0  0
    4.8810   -1.6293    1.2364 H   0  0  0  0  0  0  0  0  0  0  0  0
    2.8758   -0.5325    1.5437 H   0  0  0  0  0  0  0  0  0  0  0  0
    2.3406   -1.8448    0.5153 H   0  0  0  0  0  0  0  0  0  0  0  0
   -2.1063   -1.6087   -1.6892 H   0  0  0  0  0  0  0  0  0  0  0  0
   -4.5016   -2.1317   -1.9799 H   0  0  0  0  0  0  0  0  0  0  0  0
   -6.8599   -1.7115   -1.4031 H   0  0  0  0  0  0  0  0  0  0  0  0
   -7.4473    0.0336    0.2584 H   0  0  0  0  0  0  0  0  0  0  0  0
   -5.6785    1.3587    1.3439 H   0  0  0  0  0  0  0  0  0  0  0  0
   -3.2814    1.8799    1.6401 H   0  0  0  0  0  0  0  0  0  0  0  0
   -1.1455    2.2456    1.8310 H   0  0  0  0  0  0  0  0  0  0  0  0
  1  2  2  0
  2  3  1  0
  3  4  1  0
  4  5  1  0
  5  6  1  0
  6  7  1  0
  7  8  1  0
  8  9  1  0
  2 10  1  0
 10 11  2  0
 11 12  1  0
 12 13  2  0
 13 14  1  0
 14 15  2  0
 15 16  1  0
 16 17  2  0
 17 18  1  0
 18 19  2  0
 19 20  1  0
  9  4  1  0
 19 10  1  0
 17 12  1  0
  3 21  1  0
  4 22  1  0
  5 23  1  0
  5 24  1  0
  6 25  1  0
  6 26  1  0
  7 27  1  0
  7 28  1  0
  8 29  1  0
  8 30  1  0
  9 31  1  0
  9 32  1  0
 11 33  1  0
 13 34  1  0
 14 35  1  0
 15 36  1  0
 16 37  1  0
 18 38  1  0
 20 39  1  0
M  END
$$$$
