
     RDKit          3D

 56 60  0  0  0  0  0  0  0  0999 V2000
   -0.9578   -2.3780   -1.1590 C   0  0  0  0  0  0  0  0  0  0  0  0
   -0.7881   -1.3734   -0.2828 C   0  0  0  0  0  0  0  0  0  0  0  0
    0.4877   -0.9877    0.3606 C   0  0  0  0  0  0  0  0  0  0  0  0
    1.6985   -1.5216    0.1351 C   0  0  0  0  0  0  0  0  0  0  0  0
    2.9485   -1.1340    0.7765 C   0  0  0  0  0  0  0  0  0  0  0  0
    3.2129   -1.3051    2.0837 C   0  0  0  0  0  0  0  0  0  0  0  0
    2.3646   -1.8561    3.0152 O   0  0  0  0  0  0  0  0  0  0  0  0
    4.3972   -0.9409    2.6129 N   0  0  0  0  0  0  0  0  0  0  0  0
    5.4099   -0.3140    1.9348 C   0  0  0  0  0  0  0  0  0  0  0  0
    6.3790    0.0545    2.5971 O   0  0  0  0  0  0  0  0  0  0  0  0
    5.2096   -0.1169    0.5648 N   0  0  0  0  0  0  0  0  0  0  0  0
    6.2332    0.5499   -0.2161 C   0  0  0  0  0  0  0  0  0  0  0  0
    5.8934    1.3757   -1.3076 C   0  0  0  0  0  0  0  0  0  0  0  0
    6.8726    2.0529   -2.0500 C   0  0  0  0  0  0  0  0  0  0  0  0
    8.2151    1.9002   -1.7287 C   0  0  0  0  0  0  0  0  0  0  0  0
    9.4178    2.7297   -2.6420 Cl  0  0  0  0  0  0  0  0  0  0  0  0
    8.5824    1.0832   -0.6626 C   0  0  0  0  0  0  0  0  0  0  0  0
    7.5997    0.4188    0.0892 C   0  0  0  0  0  0  0  0  0  0  0  0
    4.0524   -0.5758   -0.0817 C   0  0  0  0  0  0  0  0  0  0  0  0
    3.8827   -0.5950   -1.3059 O   0  0  0  0  0  0  0  0  0  0  0  0
    0.2030    0.1195    1.2665 C   0  0  0  0  0  0  0  0  0  0  0  0
   -1.1159    0.3839    1.1679 C   0  0  0  0  0  0  0  0  0  0  0  0
   -1.8087    1.5159    1.8677 C   0  0  0  0  0  0  0  0  0  0  0  0
   -1.7531   -0.4995    0.2550 N   0  0  0  0  0  0  0  0  0  0  0  0
   -3.0561   -0.3858   -0.1640 C   0  0  0  0  0  0  0  0  0  0  0  0
   -3.4425    0.1010   -1.7783 S   0  0  0  0  0  0  0  0  0  0  0  0
   -5.1115    0.0231   -1.4883 C   0  0  0  0  0  0  0  0  0  0  0  0
   -5.4110   -0.3740   -0.1976 C   0  0  0  0  0  0  0  0  0  0  0  0
   -4.2176   -0.5961    0.5671 C   0  0  0  0  0  0  0  0  0  0  0  0
   -4.2096   -1.0124    1.9380 C   0  0  0  0  0  0  0  0  0  0  0  0
   -4.2328   -1.3226    3.0517 N   0  0  0  0  0  0  0  0  0  0  0  0
   -6.8307   -0.5114    0.2806 C   0  0  0  0  0  0  0  0  0  0  0  0
   -7.8303   -0.5296   -0.8867 C   0  0  0  0  0  0  0  0  0  0  0  0
   -7.5039    0.5442   -1.9399 C   0  0  0  0  0  0  0  0  0  0  0  0
   -6.1150    0.3240   -2.5613 C   0  0  0  0  0  0  0  0  0  0  0  0
   -0.1446   -3.0040   -1.5007 H   0  0  0  0  0  0  0  0  0  0  0  0
   -1.9371   -2.6115   -1.5640 H   0  0  0  0  0  0  0  0  0  0  0  0
    1.8257   -2.2956   -0.6176 H   0  0  0  0  0  0  0  0  0  0  0  0
    1.5340   -2.1096    2.5727 H   0  0  0  0  0  0  0  0  0  0  0  0
    4.5321   -1.0671    3.6136 H   0  0  0  0  0  0  0  0  0  0  0  0
    4.8569    1.5387   -1.5967 H   0  0  0  0  0  0  0  0  0  0  0  0
    6.5729    2.6845   -2.8816 H   0  0  0  0  0  0  0  0  0  0  0  0
    9.6297    0.9573   -0.4015 H   0  0  0  0  0  0  0  0  0  0  0  0
    7.9428   -0.2318    0.8942 H   0  0  0  0  0  0  0  0  0  0  0  0
    0.9172    0.6633    1.8656 H   0  0  0  0  0  0  0  0  0  0  0  0
   -2.4212    1.1417    2.6973 H   0  0  0  0  0  0  0  0  0  0  0  0
   -1.0854    2.2197    2.2898 H   0  0  0  0  0  0  0  0  0  0  0  0
   -2.4470    2.0845    1.1801 H   0  0  0  0  0  0  0  0  0  0  0  0
   -6.9486   -1.4366    0.8602 H   0  0  0  0  0  0  0  0  0  0  0  0
   -7.0626    0.3304    0.9477 H   0  0  0  0  0  0  0  0  0  0  0  0
   -7.8104   -1.5201   -1.3676 H   0  0  0  0  0  0  0  0  0  0  0  0
   -8.8466   -0.3855   -0.5000 H   0  0  0  0  0  0  0  0  0  0  0  0
   -7.5460    1.5365   -1.4699 H   0  0  0  0  0  0  0  0  0  0  0  0
   -8.2596    0.5323   -2.7325 H   0  0  0  0  0  0  0  0  0  0  0  0
   -5.8252    1.2143   -3.1398 H   0  0  0  0  0  0  0  0  0  0  0  0
   -6.1528   -0.5259   -3.2610 H   0  0  0  0  0  0  0  0  0  0  0  0
  1  2  2  0
  2  3  1  0
  3  4  2  3
  4  5  1  0
  5  6  2  0
  6  7  1  0
  6  8  1  0
  8  9  1  0
  9 10  2  0
  9 11  1  0
 11 12  1  0
 12 13  2  0
 13 14  1  0
 14 15  2  0
 15 16  1  0
 15 17  1  0
 17 18  2  0
 11 19  1  0
 19 20  2  0
  3 21  1  0
 21 22  2  0
 22 23  1  0
 22 24  1  0
 24 25  1  0
 25 26  1  0
 26 27  1  0
 27 28  2  0
 28 29  1  0
 29 30  1  0
 30 31  3  0
 28 32  1  0
 32 33  1  0
 33 34  1  0
 34 35  1  0
 24  2  1  0
 29 25  2  0
 19  5  1  0
 35 27  1  0
 18 12  1  0
  1 36  1  0
  1 37  1  0
  4 38  1  0
  7 39  1  0
  8 40  1  0
 13 41  1  0
 14 42  1  0
 17 43  1  0
 18 44  1  0
 21 45  1  0
 23 46  1  0
 23 47  1  0
 23 48  1  0
 32 49  1  0
 32 50  1  0
 33 51  1  0
 33 52  1  0
 34 53  1  0
 34 54  1  0
 35 55  1  0
 35 56  1  0
M  END
$$$$
