
     RDKit          3D

 50 52  0  0  0  0  0  0  0  0999 V2000
    6.8036   -1.8443   -1.7911 C   0  0  0  0  0  0  0  0  0  0  0  0
    5.3601   -1.5211   -2.0390 C   0  0  0  0  0  0  0  0  0  0  0  0
    4.9615   -0.2061   -2.3054 C   0  0  0  0  0  0  0  0  0  0  0  0
    3.6197    0.0891   -2.5613 C   0  0  0  0  0  0  0  0  0  0  0  0
    2.6605   -0.9265   -2.5552 C   0  0  0  0  0  0  0  0  0  0  0  0
    0.9573   -0.5283   -2.8987 S   0  0  0  0  0  0  0  0  0  0  0  0
    0.2053   -0.8978   -1.2744 C   0  0  0  0  0  0  0  0  0  0  0  0
    0.7118    0.0637   -0.2045 C   0  0  0  0  0  0  0  0  0  0  0  0
    1.5841   -0.3245    0.5778 O   0  0  0  0  0  0  0  0  0  0  0  0
    0.1865    1.3572   -0.1409 N   0  0  0  0  0  0  0  0  0  0  0  0
   -0.9804    1.7927   -0.9221 C   0  0  0  0  0  0  0  0  0  0  0  0
   -2.2346    1.5265   -0.1712 C   0  0  0  0  0  0  0  0  0  0  0  0
   -2.7781    0.3830    0.1809 N   0  0  0  0  0  0  0  0  0  0  0  0
   -3.9080    0.7866    0.8641 C   0  0  0  0  0  0  0  0  0  0  0  0
   -4.8364   -0.1667    1.4633 C   0  0  0  0  0  0  0  0  0  0  0  0
   -6.0188    0.2648    2.0837 C   0  0  0  0  0  0  0  0  0  0  0  0
   -6.9006   -0.6569    2.6549 C   0  0  0  0  0  0  0  0  0  0  0  0
   -6.6102   -2.0188    2.6135 C   0  0  0  0  0  0  0  0  0  0  0  0
   -5.4382   -2.4617    2.0042 C   0  0  0  0  0  0  0  0  0  0  0  0
   -4.5563   -1.5410    1.4321 C   0  0  0  0  0  0  0  0  0  0  0  0
   -4.0595    2.1218    0.9163 N   0  0  0  0  0  0  0  0  0  0  0  0
   -2.9500    2.6119    0.2340 O   0  0  0  0  0  0  0  0  0  0  0  0
    0.6690    2.2963    0.8944 C   0  0  0  0  0  0  0  0  0  0  0  0
    0.3647    1.8290    2.3197 C   0  0  0  0  0  0  0  0  0  0  0  0
    2.1494    2.6417    0.7166 C   0  0  0  0  0  0  0  0  0  0  0  0
    3.0588   -2.2442   -2.3165 C   0  0  0  0  0  0  0  0  0  0  0  0
    4.4007   -2.5400   -2.0617 C   0  0  0  0  0  0  0  0  0  0  0  0
    7.2963   -2.1041   -2.7342 H   0  0  0  0  0  0  0  0  0  0  0  0
    7.3249   -0.9908   -1.3427 H   0  0  0  0  0  0  0  0  0  0  0  0
    6.9004   -2.6859   -1.0955 H   0  0  0  0  0  0  0  0  0  0  0  0
    5.6924    0.5995   -2.3113 H   0  0  0  0  0  0  0  0  0  0  0  0
    3.3329    1.1189   -2.7587 H   0  0  0  0  0  0  0  0  0  0  0  0
    0.4491   -1.9223   -0.9726 H   0  0  0  0  0  0  0  0  0  0  0  0
   -0.8830   -0.8589   -1.3539 H   0  0  0  0  0  0  0  0  0  0  0  0
   -0.8701    2.8574   -1.1558 H   0  0  0  0  0  0  0  0  0  0  0  0
   -1.0291    1.2744   -1.8805 H   0  0  0  0  0  0  0  0  0  0  0  0
   -6.2647    1.3243    2.1297 H   0  0  0  0  0  0  0  0  0  0  0  0
   -7.8132   -0.3097    3.1325 H   0  0  0  0  0  0  0  0  0  0  0  0
   -7.2958   -2.7350    3.0595 H   0  0  0  0  0  0  0  0  0  0  0  0
   -5.2070   -3.5231    1.9764 H   0  0  0  0  0  0  0  0  0  0  0  0
   -3.6436   -1.9055    0.9654 H   0  0  0  0  0  0  0  0  0  0  0  0
    0.1218    3.2373    0.7522 H   0  0  0  0  0  0  0  0  0  0  0  0
    0.9319    0.9364    2.5965 H   0  0  0  0  0  0  0  0  0  0  0  0
    0.6170    2.6139    3.0409 H   0  0  0  0  0  0  0  0  0  0  0  0
   -0.6983    1.5960    2.4371 H   0  0  0  0  0  0  0  0  0  0  0  0
    2.3482    2.9712   -0.3089 H   0  0  0  0  0  0  0  0  0  0  0  0
    2.4369    3.4531    1.3936 H   0  0  0  0  0  0  0  0  0  0  0  0
    2.8057    1.7923    0.9257 H   0  0  0  0  0  0  0  0  0  0  0  0
    2.3341   -3.0539   -2.3306 H   0  0  0  0  0  0  0  0  0  0  0  0
    4.6912   -3.5722   -1.8783 H   0  0  0  0  0  0  0  0  0  0  0  0
  1  2  1  0
  2  3  2  0
  3  4  1  0
  4  5  2  0
  5  6  1  0
  6  7  1  0
  7  8  1  0
  8  9  2  0
  8 10  1  0
 10 11  1  0
 11 12  1  0
 12 13  2  0
 13 14  1  0
 14 15  1  0
 15 16  2  0
 16 17  1  0
 17 18  2  0
 18 19  1  0
 19 20  2  0
 14 21  2  0
 21 22  1  0
 10 23  1  0
 23 24  1  0
 23 25  1  0
  5 26  1  0
 26 27  2  0
 27  2  1  0
 22 12  1  0
 20 15  1  0
  1 28  1  0
  1 29  1  0
  1 30  1  0
  3 31  1  0
  4 32  1  0
  7 33  1  0
  7 34  1  0
 11 35  1  0
 11 36  1  0
 16 37  1  0
 17 38  1  0
 18 39  1  0
 19 40  1  0
 20 41  1  0
 23 42  1  0
 24 43  1  0
 24 44  1  0
 24 45  1  0
 25 46  1  0
 25 47  1  0
 25 48  1  0
 26 49  1  0
 27 50  1  0
M  END
$$$$
