
     RDKit          3D

 44 47  0  0  0  0  0  0  0  0999 V2000
    1.4887   -1.0794    0.8404 O   0  0  0  0  0  0  0  0  0  0  0  0
    0.6672   -1.0607   -0.0843 C   0  0  0  0  0  0  0  0  0  0  0  0
    1.1430   -1.2803   -1.5136 C   0  0  0  0  0  0  0  0  0  0  0  0
    1.8648    0.2543   -2.1559 S   0  0  0  0  0  0  0  0  0  0  0  0
    3.4950    0.1469   -1.5954 C   0  0  0  0  0  0  0  0  0  0  0  0
    4.5643    0.3122   -2.3347 N   0  0  0  0  0  0  0  0  0  0  0  0
    5.6205    0.1625   -1.4684 C   0  0  0  0  0  0  0  0  0  0  0  0
    6.9975    0.2308   -1.7192 C   0  0  0  0  0  0  0  0  0  0  0  0
    7.8716    0.0343   -0.6461 C   0  0  0  0  0  0  0  0  0  0  0  0
    9.5717    0.1102   -0.9208 Cl  0  0  0  0  0  0  0  0  0  0  0  0
    7.3990   -0.2236    0.6440 C   0  0  0  0  0  0  0  0  0  0  0  0
    6.0267   -0.2941    0.9106 C   0  0  0  0  0  0  0  0  0  0  0  0
    5.1726   -0.0937   -0.1749 C   0  0  0  0  0  0  0  0  0  0  0  0
    3.8049   -0.0880   -0.2858 N   0  0  0  0  0  0  0  0  0  0  0  0
   -0.6783   -0.8256    0.1456 N   0  0  0  0  0  0  0  0  0  0  0  0
   -1.6844   -0.6017   -0.9004 C   0  0  0  0  0  0  0  0  0  0  0  0
   -2.8776    0.2492   -0.4326 C   0  0  0  0  0  0  0  0  0  0  0  0
   -3.4779   -0.2287    0.8169 N   0  0  0  0  0  0  0  0  0  0  0  0
   -4.8123   -0.0341    1.1933 C   0  0  0  0  0  0  0  0  0  0  0  0
   -5.2814   -0.6840    2.1312 O   0  0  0  0  0  0  0  0  0  0  0  0
   -5.6337    0.9326    0.4787 C   0  0  0  0  0  0  0  0  0  0  0  0
   -7.0091    1.0973    0.4855 C   0  0  0  0  0  0  0  0  0  0  0  0
   -7.2995    2.2097   -0.3388 C   0  0  0  0  0  0  0  0  0  0  0  0
   -6.0877    2.6741   -0.7882 C   0  0  0  0  0  0  0  0  0  0  0  0
   -5.0752    1.9167   -0.2952 O   0  0  0  0  0  0  0  0  0  0  0  0
   -2.6312   -1.0533    1.6807 C   0  0  0  0  0  0  0  0  0  0  0  0
   -1.1437   -0.7190    1.5323 C   0  0  0  0  0  0  0  0  0  0  0  0
    1.8782   -2.0928   -1.5176 H   0  0  0  0  0  0  0  0  0  0  0  0
    0.3287   -1.6068   -2.1640 H   0  0  0  0  0  0  0  0  0  0  0  0
    7.3582    0.4304   -2.7212 H   0  0  0  0  0  0  0  0  0  0  0  0
    8.1040   -0.3725    1.4593 H   0  0  0  0  0  0  0  0  0  0  0  0
    5.6527   -0.4932    1.9092 H   0  0  0  0  0  0  0  0  0  0  0  0
    3.1372   -0.2571    0.4583 H   0  0  0  0  0  0  0  0  0  0  0  0
   -1.2265   -0.1241   -1.7706 H   0  0  0  0  0  0  0  0  0  0  0  0
   -2.0363   -1.5943   -1.2062 H   0  0  0  0  0  0  0  0  0  0  0  0
   -2.5421    1.2765   -0.2488 H   0  0  0  0  0  0  0  0  0  0  0  0
   -3.6286    0.2596   -1.2281 H   0  0  0  0  0  0  0  0  0  0  0  0
   -7.7078    0.4787    1.0331 H   0  0  0  0  0  0  0  0  0  0  0  0
   -8.2700    2.6281   -0.5667 H   0  0  0  0  0  0  0  0  0  0  0  0
   -5.7908    3.4951   -1.4264 H   0  0  0  0  0  0  0  0  0  0  0  0
   -2.8127   -2.0977    1.3993 H   0  0  0  0  0  0  0  0  0  0  0  0
   -2.9345   -0.9320    2.7264 H   0  0  0  0  0  0  0  0  0  0  0  0
   -0.9565    0.3143    1.8487 H   0  0  0  0  0  0  0  0  0  0  0  0
   -0.5485   -1.3767    2.1750 H   0  0  0  0  0  0  0  0  0  0  0  0
  1  2  2  0
  2  3  1  0
  3  4  1  0
  4  5  1  0
  5  6  2  0
  6  7  1  0
  7  8  2  0
  8  9  1  0
  9 10  1  0
  9 11  2  0
 11 12  1  0
 12 13  2  0
 13 14  1  0
  2 15  1  0
 15 16  1  0
 16 17  1  0
 17 18  1  0
 18 19  1  0
 19 20  2  0
 19 21  1  0
 21 22  2  0
 22 23  1  0
 23 24  2  0
 24 25  1  0
 18 26  1  0
 26 27  1  0
 14  5  1  0
 27 15  1  0
 13  7  1  0
 25 21  1  0
  3 28  1  0
  3 29  1  0
  8 30  1  0
 11 31  1  0
 12 32  1  0
 14 33  1  0
 16 34  1  0
 16 35  1  0
 17 36  1  0
 17 37  1  0
 22 38  1  0
 23 39  1  0
 24 40  1  0
 26 41  1  0
 26 42  1  0
 27 43  1  0
 27 44  1  0
M  END
$$$$
