
     RDKit          3D

 48 50  0  0  0  0  0  0  0  0999 V2000
    5.3086    0.4080    4.3609 C   0  0  0  0  0  0  0  0  0  0  0  0
    3.9757    0.0307    3.7679 C   0  0  0  0  0  0  0  0  0  0  0  0
    3.2794   -1.0581    4.3066 C   0  0  0  0  0  0  0  0  0  0  0  0
    2.0420   -1.4565    3.7985 C   0  0  0  0  0  0  0  0  0  0  0  0
    1.5084   -0.7340    2.7242 C   0  0  0  0  0  0  0  0  0  0  0  0
    0.0210   -0.9784    1.8963 S   0  0  0  0  0  0  0  0  0  0  0  0
    0.3743    0.3271    0.8471 C   0  0  0  0  0  0  0  0  0  0  0  0
   -0.5516    0.6907   -0.1336 N   0  0  0  0  0  0  0  0  0  0  0  0
   -1.8011   -0.0232   -0.4196 C   0  0  0  0  0  0  0  0  0  0  0  0
   -1.5791   -1.2476   -1.3169 C   0  0  0  0  0  0  0  0  0  0  0  0
   -2.9110   -1.9462   -1.6183 C   0  0  0  0  0  0  0  0  0  0  0  0
   -2.7442   -3.2125   -2.3487 N   0  0  0  0  0  0  0  0  0  0  0  0
   -2.2375   -3.0098   -3.7082 C   0  0  0  0  0  0  0  0  0  0  0  0
   -4.0189   -3.9346   -2.4018 C   0  0  0  0  0  0  0  0  0  0  0  0
   -0.0649    1.6048   -1.0835 C   0  0  0  0  0  0  0  0  0  0  0  0
    1.0403    1.4821   -1.6137 O   0  0  0  0  0  0  0  0  0  0  0  0
   -0.9655    2.6810   -1.4960 C   0  0  0  0  0  0  0  0  0  0  0  0
   -0.9983    3.3062   -2.7318 C   0  0  0  0  0  0  0  0  0  0  0  0
   -1.9669    4.3520   -2.7925 C   0  0  0  0  0  0  0  0  0  0  0  0
   -2.6050    4.5016   -1.5884 C   0  0  0  0  0  0  0  0  0  0  0  0
   -3.9660    5.8053   -1.2716 Br  0  0  0  0  0  0  0  0  0  0  0  0
   -2.0576    3.4282   -0.3992 S   0  0  0  0  0  0  0  0  0  0  0  0
    1.4937    0.9578    1.1088 N   0  0  0  0  0  0  0  0  0  0  0  0
    2.1698    0.3552    2.1600 C   0  0  0  0  0  0  0  0  0  0  0  0
    3.4287    0.7594    2.6793 C   0  0  0  0  0  0  0  0  0  0  0  0
    4.1727    1.9296    2.0909 C   0  0  0  0  0  0  0  0  0  0  0  0
    6.0977    0.3232    3.6071 H   0  0  0  0  0  0  0  0  0  0  0  0
    5.5786   -0.2486    5.1949 H   0  0  0  0  0  0  0  0  0  0  0  0
    5.2775    1.4317    4.7468 H   0  0  0  0  0  0  0  0  0  0  0  0
    3.7008   -1.6172    5.1409 H   0  0  0  0  0  0  0  0  0  0  0  0
    1.5125   -2.3028    4.2248 H   0  0  0  0  0  0  0  0  0  0  0  0
   -2.2965   -0.2928    0.5194 H   0  0  0  0  0  0  0  0  0  0  0  0
   -2.4937    0.6417   -0.9446 H   0  0  0  0  0  0  0  0  0  0  0  0
   -0.8917   -1.9529   -0.8363 H   0  0  0  0  0  0  0  0  0  0  0  0
   -1.0980   -0.9211   -2.2461 H   0  0  0  0  0  0  0  0  0  0  0  0
   -3.3964   -2.1576   -0.6563 H   0  0  0  0  0  0  0  0  0  0  0  0
   -3.5749   -1.2650   -2.1667 H   0  0  0  0  0  0  0  0  0  0  0  0
   -1.2259   -2.5929   -3.6974 H   0  0  0  0  0  0  0  0  0  0  0  0
   -2.1609   -3.9671   -4.2369 H   0  0  0  0  0  0  0  0  0  0  0  0
   -2.8832   -2.3461   -4.2945 H   0  0  0  0  0  0  0  0  0  0  0  0
   -3.8939   -4.9026   -2.9000 H   0  0  0  0  0  0  0  0  0  0  0  0
   -4.3825   -4.1508   -1.3910 H   0  0  0  0  0  0  0  0  0  0  0  0
   -4.7920   -3.3685   -2.9341 H   0  0  0  0  0  0  0  0  0  0  0  0
   -0.3509    3.0177   -3.5531 H   0  0  0  0  0  0  0  0  0  0  0  0
   -2.1632    4.9588   -3.6680 H   0  0  0  0  0  0  0  0  0  0  0  0
    4.3234    2.7040    2.8497 H   0  0  0  0  0  0  0  0  0  0  0  0
    5.1439    1.6060    1.7036 H   0  0  0  0  0  0  0  0  0  0  0  0
    3.6224    2.3844    1.2613 H   0  0  0  0  0  0  0  0  0  0  0  0
  1  2  1  0
  2  3  2  0
  3  4  1  0
  4  5  2  0
  5  6  1  0
  6  7  1  0
  7  8  1  0
  8  9  1  0
  9 10  1  0
 10 11  1  0
 11 12  1  0
 12 13  1  0
 12 14  1  0
  8 15  1  0
 15 16  2  0
 15 17  1  0
 17 18  2  0
 18 19  1  0
 19 20  2  0
 20 21  1  0
 20 22  1  0
  7 23  2  0
 23 24  1  0
 24 25  2  0
 25 26  1  0
 25  2  1  0
 24  5  1  0
 22 17  1  0
  1 27  1  0
  1 28  1  0
  1 29  1  0
  3 30  1  0
  4 31  1  0
  9 32  1  0
  9 33  1  0
 10 34  1  0
 10 35  1  0
 11 36  1  0
 11 37  1  0
 13 38  1  0
 13 39  1  0
 13 40  1  0
 14 41  1  0
 14 42  1  0
 14 43  1  0
 18 44  1  0
 19 45  1  0
 26 46  1  0
 26 47  1  0
 26 48  1  0
M  END
$$$$
