
     RDKit          3D

 38 39  0  0  0  0  0  0  0  0999 V2000
   -4.4286   -1.5863    2.3844 O   0  0  0  0  0  0  0  0  0  0  0  0
   -3.4510   -1.1445    1.7873 C   0  0  0  0  0  0  0  0  0  0  0  0
   -2.0385   -1.6198    2.1345 C   0  0  0  0  0  0  0  0  0  0  0  0
   -1.0422   -0.9338    1.3691 O   0  0  0  0  0  0  0  0  0  0  0  0
    0.2208   -1.3435    1.6446 C   0  0  0  0  0  0  0  0  0  0  0  0
    0.5433   -2.2026    2.4463 O   0  0  0  0  0  0  0  0  0  0  0  0
    1.1488   -0.5651    0.8008 C   0  0  0  0  0  0  0  0  0  0  0  0
    2.4689   -0.7921    0.8772 C   0  0  0  0  0  0  0  0  0  0  0  0
    3.4694   -0.0835    0.0681 C   0  0  0  0  0  0  0  0  0  0  0  0
    3.3614    1.2799   -0.2321 C   0  0  0  0  0  0  0  0  0  0  0  0
    4.3485    1.9235   -0.9811 C   0  0  0  0  0  0  0  0  0  0  0  0
    5.4598    1.2125   -1.4312 C   0  0  0  0  0  0  0  0  0  0  0  0
    5.5958   -0.1515   -1.1369 C   0  0  0  0  0  0  0  0  0  0  0  0
    6.8139   -0.9130   -1.5978 C   0  0  0  0  0  0  0  0  0  0  0  0
    7.2563   -0.5152   -2.8234 F   0  0  0  0  0  0  0  0  0  0  0  0
    6.6039   -2.2554   -1.6977 F   0  0  0  0  0  0  0  0  0  0  0  0
    7.8695   -0.7609   -0.7517 F   0  0  0  0  0  0  0  0  0  0  0  0
    4.5994   -0.7854   -0.3742 C   0  0  0  0  0  0  0  0  0  0  0  0
   -3.4746   -0.2176    0.7731 N   0  0  0  0  0  0  0  0  0  0  0  0
   -4.5662    0.4221    0.1949 C   0  0  0  0  0  0  0  0  0  0  0  0
   -5.8864    0.2123    0.5741 C   0  0  0  0  0  0  0  0  0  0  0  0
   -6.9000    0.9138   -0.0838 C   0  0  0  0  0  0  0  0  0  0  0  0
   -6.5648    1.7995   -1.0966 C   0  0  0  0  0  0  0  0  0  0  0  0
   -7.7758    2.6812   -1.9311 Cl  0  0  0  0  0  0  0  0  0  0  0  0
   -5.2254    1.9508   -1.4113 C   0  0  0  0  0  0  0  0  0  0  0  0
   -4.2216    1.2828   -0.7887 N   0  0  0  0  0  0  0  0  0  0  0  0
   -1.9922   -2.6940    1.9231 H   0  0  0  0  0  0  0  0  0  0  0  0
   -1.8784   -1.4263    3.2011 H   0  0  0  0  0  0  0  0  0  0  0  0
    0.7162    0.1639    0.1276 H   0  0  0  0  0  0  0  0  0  0  0  0
    2.8554   -1.5567    1.5501 H   0  0  0  0  0  0  0  0  0  0  0  0
    2.5163    1.8645    0.1243 H   0  0  0  0  0  0  0  0  0  0  0  0
    4.2531    2.9831   -1.2076 H   0  0  0  0  0  0  0  0  0  0  0  0
    6.2249    1.7272   -2.0113 H   0  0  0  0  0  0  0  0  0  0  0  0
    4.7074   -1.8434   -0.1337 H   0  0  0  0  0  0  0  0  0  0  0  0
   -2.5877    0.0611    0.3707 H   0  0  0  0  0  0  0  0  0  0  0  0
   -6.1574   -0.4784    1.3638 H   0  0  0  0  0  0  0  0  0  0  0  0
   -7.9368    0.7594    0.2015 H   0  0  0  0  0  0  0  0  0  0  0  0
   -4.9052    2.6314   -2.1950 H   0  0  0  0  0  0  0  0  0  0  0  0
  1  2  2  0
  2  3  1  0
  3  4  1  0
  4  5  1  0
  5  6  2  0
  5  7  1  0
  7  8  2  3
  8  9  1  0
  9 10  2  0
 10 11  1  0
 11 12  2  0
 12 13  1  0
 13 14  1  0
 14 15  1  0
 14 16  1  0
 14 17  1  0
 13 18  2  0
  2 19  1  0
 19 20  1  0
 20 21  2  0
 21 22  1  0
 22 23  2  0
 23 24  1  0
 23 25  1  0
 25 26  2  0
 18  9  1  0
 26 20  1  0
  3 27  1  0
  3 28  1  0
  7 29  1  0
  8 30  1  0
 10 31  1  0
 11 32  1  0
 12 33  1  0
 18 34  1  0
 19 35  1  0
 21 36  1  0
 22 37  1  0
 25 38  1  0
M  END
$$$$
