
     RDKit          3D

 48 48  0  0  0  0  0  0  0  0999 V2000
    3.0982   -1.8029   -0.3466 C   0  0  0  0  0  0  0  0  0  0  0  0
    3.2845   -0.2897   -0.4881 C   0  0  0  0  0  0  0  0  0  0  0  0
    2.6241    0.4659    0.6777 C   0  0  0  0  0  0  0  0  0  0  0  0
    1.1789    0.3249    0.6957 N   0  0  0  0  0  0  0  0  0  0  0  0
    0.3702    1.0617   -0.1448 C   0  0  0  0  0  0  0  0  0  0  0  0
    0.7951    1.8885   -0.9438 O   0  0  0  0  0  0  0  0  0  0  0  0
   -1.0882    0.7772   -0.0659 C   0  0  0  0  0  0  0  0  0  0  0  0
   -1.8685    0.9606   -1.2078 C   0  0  0  0  0  0  0  0  0  0  0  0
   -3.2440    0.7100   -1.1676 C   0  0  0  0  0  0  0  0  0  0  0  0
   -3.8815    0.2850    0.0152 C   0  0  0  0  0  0  0  0  0  0  0  0
   -5.3998    0.0292    0.0239 C   0  0  0  0  0  0  0  0  0  0  0  0
   -5.7335   -1.1160   -0.9560 C   0  0  0  0  0  0  0  0  0  0  0  0
   -6.1496    1.3068   -0.4141 C   0  0  0  0  0  0  0  0  0  0  0  0
   -5.9576   -0.3726    1.4085 C   0  0  0  0  0  0  0  0  0  0  0  0
   -3.0781    0.1190    1.1564 C   0  0  0  0  0  0  0  0  0  0  0  0
   -1.6989    0.3643    1.1205 C   0  0  0  0  0  0  0  0  0  0  0  0
    4.7692    0.1138   -0.6284 C   0  0  0  0  0  0  0  0  0  0  0  0
    5.5646   -0.1998    0.5730 N   0  0  0  0  0  0  0  0  0  0  0  0
    6.3489    0.9609    1.0010 C   0  0  0  0  0  0  0  0  0  0  0  0
    6.4589   -1.3367    0.3403 C   0  0  0  0  0  0  0  0  0  0  0  0
    3.4787   -2.1706    0.6117 H   0  0  0  0  0  0  0  0  0  0  0  0
    3.6173   -2.3344   -1.1508 H   0  0  0  0  0  0  0  0  0  0  0  0
    2.0387   -2.0727   -0.4078 H   0  0  0  0  0  0  0  0  0  0  0  0
    2.7893    0.0067   -1.4225 H   0  0  0  0  0  0  0  0  0  0  0  0
    2.9885    0.1023    1.6444 H   0  0  0  0  0  0  0  0  0  0  0  0
    2.8543    1.5357    0.6123 H   0  0  0  0  0  0  0  0  0  0  0  0
    0.7944   -0.4787    1.1717 H   0  0  0  0  0  0  0  0  0  0  0  0
   -1.4089    1.2986   -2.1345 H   0  0  0  0  0  0  0  0  0  0  0  0
   -3.8145    0.8587   -2.0822 H   0  0  0  0  0  0  0  0  0  0  0  0
   -5.4622   -0.8695   -1.9885 H   0  0  0  0  0  0  0  0  0  0  0  0
   -5.1986   -2.0345   -0.6860 H   0  0  0  0  0  0  0  0  0  0  0  0
   -6.8064   -1.3413   -0.9503 H   0  0  0  0  0  0  0  0  0  0  0  0
   -5.9132    1.5935   -1.4450 H   0  0  0  0  0  0  0  0  0  0  0  0
   -5.8937    2.1562    0.2307 H   0  0  0  0  0  0  0  0  0  0  0  0
   -7.2357    1.1649   -0.3646 H   0  0  0  0  0  0  0  0  0  0  0  0
   -5.5095   -1.3057    1.7695 H   0  0  0  0  0  0  0  0  0  0  0  0
   -5.7753    0.4074    2.1573 H   0  0  0  0  0  0  0  0  0  0  0  0
   -7.0420   -0.5328    1.3668 H   0  0  0  0  0  0  0  0  0  0  0  0
   -3.5030   -0.1947    2.1062 H   0  0  0  0  0  0  0  0  0  0  0  0
   -1.1255    0.2575    2.0370 H   0  0  0  0  0  0  0  0  0  0  0  0
    4.7940    1.1922   -0.8388 H   0  0  0  0  0  0  0  0  0  0  0  0
    5.1944   -0.3586   -1.5242 H   0  0  0  0  0  0  0  0  0  0  0  0
    7.0607    1.2857    0.2332 H   0  0  0  0  0  0  0  0  0  0  0  0
    6.9051    0.7333    1.9166 H   0  0  0  0  0  0  0  0  0  0  0  0
    5.6896    1.8027    1.2408 H   0  0  0  0  0  0  0  0  0  0  0  0
    6.9942   -1.5962    1.2606 H   0  0  0  0  0  0  0  0  0  0  0  0
    5.8968   -2.2287    0.0470 H   0  0  0  0  0  0  0  0  0  0  0  0
    7.1996   -1.1269   -0.4400 H   0  0  0  0  0  0  0  0  0  0  0  0
  1  2  1  0
  2  3  1  0
  3  4  1  0
  4  5  1  0
  5  6  2  0
  5  7  1  0
  7  8  2  0
  8  9  1  0
  9 10  2  0
 10 11  1  0
 11 12  1  0
 11 13  1  0
 11 14  1  0
 10 15  1  0
 15 16  2  0
  2 17  1  0
 17 18  1  0
 18 19  1  0
 18 20  1  0
 16  7  1  0
  1 21  1  0
  1 22  1  0
  1 23  1  0
  2 24  1  0
  3 25  1  0
  3 26  1  0
  4 27  1  0
  8 28  1  0
  9 29  1  0
 12 30  1  0
 12 31  1  0
 12 32  1  0
 13 33  1  0
 13 34  1  0
 13 35  1  0
 14 36  1  0
 14 37  1  0
 14 38  1  0
 15 39  1  0
 16 40  1  0
 17 41  1  0
 17 42  1  0
 19 43  1  0
 19 44  1  0
 19 45  1  0
 20 46  1  0
 20 47  1  0
 20 48  1  0
M  END
$$$$
