
     RDKit          3D

 55 58  0  0  0  0  0  0  0  0999 V2000
   -9.3174    0.6717   -2.0210 C   0  0  0  0  0  0  0  0  0  0  0  0
   -8.6128    0.0498   -0.8252 C   0  0  0  0  0  0  0  0  0  0  0  0
   -7.2138    0.6164   -0.5792 C   0  0  0  0  0  0  0  0  0  0  0  0
   -6.2299    0.3080   -1.7067 C   0  0  0  0  0  0  0  0  0  0  0  0
   -4.8990    0.7927   -1.3976 N   0  0  0  0  0  0  0  0  0  0  0  0
   -4.0292    0.0554   -0.6190 C   0  0  0  0  0  0  0  0  0  0  0  0
   -4.2918   -1.0585   -0.1803 O   0  0  0  0  0  0  0  0  0  0  0  0
   -2.7293    0.7023   -0.2875 C   0  0  0  0  0  0  0  0  0  0  0  0
   -2.1284    1.6418   -1.1318 C   0  0  0  0  0  0  0  0  0  0  0  0
   -0.9044    2.2207   -0.7791 C   0  0  0  0  0  0  0  0  0  0  0  0
   -0.2540    1.8609    0.4113 C   0  0  0  0  0  0  0  0  0  0  0  0
    1.0785    2.4859    0.7855 C   0  0  0  0  0  0  0  0  0  0  0  0
    2.2001    1.5420    0.7033 N   0  0  0  0  0  0  0  0  0  0  0  0
    2.8939    1.3216   -0.5046 C   0  0  0  0  0  0  0  0  0  0  0  0
    2.6287    2.0848   -1.9786 S   0  0  0  0  0  0  0  0  0  0  0  0
    3.9120    0.3912   -0.4931 N   0  0  0  0  0  0  0  0  0  0  0  0
    4.2657   -0.2898    0.6398 C   0  0  0  0  0  0  0  0  0  0  0  0
    3.5980   -0.0387    1.7997 C   0  0  0  0  0  0  0  0  0  0  0  0
    4.1362   -0.8313    2.7743 N   0  0  0  0  0  0  0  0  0  0  0  0
    5.1543   -1.5961    2.2399 C   0  0  0  0  0  0  0  0  0  0  0  0
    5.9837   -2.5415    2.8483 C   0  0  0  0  0  0  0  0  0  0  0  0
    6.9414   -3.1676    2.0433 C   0  0  0  0  0  0  0  0  0  0  0  0
    7.0720   -2.8682    0.6854 C   0  0  0  0  0  0  0  0  0  0  0  0
    8.0575   -3.5714    0.0445 O   0  0  0  0  0  0  0  0  0  0  0  0
    8.2305   -3.3201   -1.3442 C   0  0  0  0  0  0  0  0  0  0  0  0
    6.2318   -1.9172    0.0939 C   0  0  0  0  0  0  0  0  0  0  0  0
    5.2561   -1.2698    0.8825 C   0  0  0  0  0  0  0  0  0  0  0  0
    2.5300    0.9015    1.9167 C   0  0  0  0  0  0  0  0  0  0  0  0
    1.9779    1.1163    2.9923 O   0  0  0  0  0  0  0  0  0  0  0  0
   -0.8634    0.9139    1.2479 C   0  0  0  0  0  0  0  0  0  0  0  0
   -2.0862    0.3341    0.8984 C   0  0  0  0  0  0  0  0  0  0  0  0
   -9.3605    1.7614   -1.9287 H   0  0  0  0  0  0  0  0  0  0  0  0
   -8.8120    0.4227   -2.9586 H   0  0  0  0  0  0  0  0  0  0  0  0
  -10.3436    0.2967   -2.0885 H   0  0  0  0  0  0  0  0  0  0  0  0
   -8.5567   -1.0368   -0.9593 H   0  0  0  0  0  0  0  0  0  0  0  0
   -9.2219    0.2276    0.0692 H   0  0  0  0  0  0  0  0  0  0  0  0
   -6.8337    0.1982    0.3614 H   0  0  0  0  0  0  0  0  0  0  0  0
   -7.2736    1.7016   -0.4286 H   0  0  0  0  0  0  0  0  0  0  0  0
   -6.1828   -0.7710   -1.8900 H   0  0  0  0  0  0  0  0  0  0  0  0
   -6.5316    0.8013   -2.6354 H   0  0  0  0  0  0  0  0  0  0  0  0
   -4.7120    1.7743   -1.5465 H   0  0  0  0  0  0  0  0  0  0  0  0
   -2.5803    1.9142   -2.0810 H   0  0  0  0  0  0  0  0  0  0  0  0
   -0.4577    2.9489   -1.4540 H   0  0  0  0  0  0  0  0  0  0  0  0
    1.2792    3.3565    0.1515 H   0  0  0  0  0  0  0  0  0  0  0  0
    0.9920    2.8920    1.8011 H   0  0  0  0  0  0  0  0  0  0  0  0
    4.4134    0.2138   -1.3551 H   0  0  0  0  0  0  0  0  0  0  0  0
    3.8295   -0.8505    3.7386 H   0  0  0  0  0  0  0  0  0  0  0  0
    5.8961   -2.7877    3.9015 H   0  0  0  0  0  0  0  0  0  0  0  0
    7.6018   -3.9094    2.4887 H   0  0  0  0  0  0  0  0  0  0  0  0
    8.5230   -2.2801   -1.5234 H   0  0  0  0  0  0  0  0  0  0  0  0
    9.0430   -3.9603   -1.7010 H   0  0  0  0  0  0  0  0  0  0  0  0
    7.3290   -3.5809   -1.9084 H   0  0  0  0  0  0  0  0  0  0  0  0
    6.3053   -1.6607   -0.9552 H   0  0  0  0  0  0  0  0  0  0  0  0
   -0.3962    0.6172    2.1850 H   0  0  0  0  0  0  0  0  0  0  0  0
   -2.5385   -0.4048    1.5576 H   0  0  0  0  0  0  0  0  0  0  0  0
  1  2  1  0
  2  3  1  0
  3  4  1  0
  4  5  1  0
  5  6  1  0
  6  7  2  0
  6  8  1  0
  8  9  2  0
  9 10  1  0
 10 11  2  0
 11 12  1  0
 12 13  1  0
 13 14  1  0
 14 15  2  0
 14 16  1  0
 16 17  1  0
 17 18  2  0
 18 19  1  0
 19 20  1  0
 20 21  2  0
 21 22  1  0
 22 23  2  0
 23 24  1  0
 24 25  1  0
 23 26  1  0
 26 27  2  0
 18 28  1  0
 28 29  2  0
 11 30  1  0
 30 31  2  0
 31  8  1  0
 28 13  1  0
 27 17  1  0
 27 20  1  0
  1 32  1  0
  1 33  1  0
  1 34  1  0
  2 35  1  0
  2 36  1  0
  3 37  1  0
  3 38  1  0
  4 39  1  0
  4 40  1  0
  5 41  1  0
  9 42  1  0
 10 43  1  0
 12 44  1  0
 12 45  1  0
 16 46  1  0
 19 47  1  0
 21 48  1  0
 22 49  1  0
 25 50  1  0
 25 51  1  0
 25 52  1  0
 26 53  1  0
 30 54  1  0
 31 55  1  0
M  END
$$$$
