
     RDKit          3D

 35 36  0  0  0  0  0  0  0  0999 V2000
    1.9587   -2.2742   -0.1489 O   0  0  0  0  0  0  0  0  0  0  0  0
    2.2706   -1.0886   -0.1668 C   0  0  0  0  0  0  0  0  0  0  0  0
    1.3496   -0.0646   -0.2601 N   0  0  0  0  0  0  0  0  0  0  0  0
   -0.0765   -0.3344   -0.2712 C   0  0  0  0  0  0  0  0  0  0  0  0
   -0.6243   -0.4986    1.1432 C   0  0  0  0  0  0  0  0  0  0  0  0
   -2.1029   -0.8833    1.1519 C   0  0  0  0  0  0  0  0  0  0  0  0
   -2.9745    0.0590    0.4668 N   0  0  0  0  0  0  0  0  0  0  0  0
   -4.1625   -0.3983   -0.2108 C   0  0  0  0  0  0  0  0  0  0  0  0
   -4.7353    0.8736   -0.7989 C   0  0  0  0  0  0  0  0  0  0  0  0
   -4.3840    1.9292    0.2398 C   0  0  0  0  0  0  0  0  0  0  0  0
   -3.1316    1.3812    0.8826 C   0  0  0  0  0  0  0  0  0  0  0  0
   -2.4218    1.9945    1.6623 O   0  0  0  0  0  0  0  0  0  0  0  0
    3.6954   -0.6960   -0.0533 C   0  0  0  0  0  0  0  0  0  0  0  0
    4.1965    0.5320   -0.4927 C   0  0  0  0  0  0  0  0  0  0  0  0
    5.5555    0.8083   -0.3450 C   0  0  0  0  0  0  0  0  0  0  0  0
    6.3677   -0.1558    0.2317 C   0  0  0  0  0  0  0  0  0  0  0  0
    5.9194   -1.3565    0.6555 N   0  0  0  0  0  0  0  0  0  0  0  0
    4.5938   -1.6031    0.4964 C   0  0  0  0  0  0  0  0  0  0  0  0
    1.6319    0.8817   -0.0441 H   0  0  0  0  0  0  0  0  0  0  0  0
   -0.2622   -1.2379   -0.8627 H   0  0  0  0  0  0  0  0  0  0  0  0
   -0.5517    0.5105   -0.7798 H   0  0  0  0  0  0  0  0  0  0  0  0
   -0.0619   -1.2790    1.6711 H   0  0  0  0  0  0  0  0  0  0  0  0
   -0.4575    0.4251    1.7085 H   0  0  0  0  0  0  0  0  0  0  0  0
   -2.4554   -0.9702    2.1860 H   0  0  0  0  0  0  0  0  0  0  0  0
   -2.2198   -1.8625    0.6728 H   0  0  0  0  0  0  0  0  0  0  0  0
   -4.8409   -0.8401    0.5274 H   0  0  0  0  0  0  0  0  0  0  0  0
   -3.9089   -1.1362   -0.9768 H   0  0  0  0  0  0  0  0  0  0  0  0
   -5.8090    0.8076   -0.9953 H   0  0  0  0  0  0  0  0  0  0  0  0
   -4.2315    1.1087   -1.7449 H   0  0  0  0  0  0  0  0  0  0  0  0
   -5.1634    2.0132    1.0033 H   0  0  0  0  0  0  0  0  0  0  0  0
   -4.1953    2.9026   -0.2189 H   0  0  0  0  0  0  0  0  0  0  0  0
    3.5580    1.2675   -0.9710 H   0  0  0  0  0  0  0  0  0  0  0  0
    5.9741    1.7514   -0.6796 H   0  0  0  0  0  0  0  0  0  0  0  0
    7.4323    0.0149    0.3666 H   0  0  0  0  0  0  0  0  0  0  0  0
    4.2675   -2.5817    0.8410 H   0  0  0  0  0  0  0  0  0  0  0  0
  1  2  2  0
  2  3  1  0
  3  4  1  0
  4  5  1  0
  5  6  1  0
  6  7  1  0
  7  8  1  0
  8  9  1  0
  9 10  1  0
 10 11  1  0
 11 12  2  0
  2 13  1  0
 13 14  2  0
 14 15  1  0
 15 16  2  0
 16 17  1  0
 17 18  2  0
 11  7  1  0
 18 13  1  0
  3 19  1  0
  4 20  1  0
  4 21  1  0
  5 22  1  0
  5 23  1  0
  6 24  1  0
  6 25  1  0
  8 26  1  0
  8 27  1  0
  9 28  1  0
  9 29  1  0
 10 30  1  0
 10 31  1  0
 14 32  1  0
 15 33  1  0
 16 34  1  0
 18 35  1  0
M  END
$$$$
