
     RDKit          3D

 39 41  0  0  0  0  0  0  0  0999 V2000
   -2.6086    0.1184    1.9157 C   0  0  0  0  0  0  0  0  0  0  0  0
   -2.6878    0.3756    0.4528 C   0  0  0  0  0  0  0  0  0  0  0  0
   -3.8740    0.8011   -0.0995 N   0  0  0  0  0  0  0  0  0  0  0  0
   -3.7310    1.0493   -1.4406 C   0  0  0  0  0  0  0  0  0  0  0  0
   -4.6684    1.5020   -2.3772 C   0  0  0  0  0  0  0  0  0  0  0  0
   -4.2362    1.6776   -3.6944 C   0  0  0  0  0  0  0  0  0  0  0  0
   -2.9189    1.4116   -4.0561 C   0  0  0  0  0  0  0  0  0  0  0  0
   -1.9973    0.9592   -3.1050 C   0  0  0  0  0  0  0  0  0  0  0  0
   -2.4058    0.7729   -1.7661 C   0  0  0  0  0  0  0  0  0  0  0  0
   -1.7453    0.3191   -0.5704 C   0  0  0  0  0  0  0  0  0  0  0  0
   -0.3367   -0.0937   -0.4922 C   0  0  0  0  0  0  0  0  0  0  0  0
    0.5076    0.4060   -1.2422 O   0  0  0  0  0  0  0  0  0  0  0  0
    0.0754   -1.2150    0.4790 C   0  0  0  0  0  0  0  0  0  0  0  0
   -0.4263   -2.5542   -0.0476 C   0  0  0  0  0  0  0  0  0  0  0  0
    1.5079   -1.3150    0.5695 O   0  0  0  0  0  0  0  0  0  0  0  0
    2.0889   -0.3091    1.2893 C   0  0  0  0  0  0  0  0  0  0  0  0
    1.4616    0.5260    1.9291 O   0  0  0  0  0  0  0  0  0  0  0  0
    3.5268   -0.4109    1.1935 C   0  0  0  0  0  0  0  0  0  0  0  0
    4.3603   -1.2485    0.4646 C   0  0  0  0  0  0  0  0  0  0  0  0
    5.6960   -0.8792    0.7665 C   0  0  0  0  0  0  0  0  0  0  0  0
    5.5911    0.1572    1.6619 C   0  0  0  0  0  0  0  0  0  0  0  0
    6.5844    0.9397    2.3284 N   0  0  0  0  0  4  0  0  0  0  0  0
    6.2039    1.8138    3.1164 O   0  0  0  0  0  0  0  0  0  0  0  0
    7.7629    0.6670    2.0610 O   0  0  0  0  0  1  0  0  0  0  0  0
    4.2943    0.4555    1.9352 O   0  0  0  0  0  0  0  0  0  0  0  0
   -3.4740    0.5338    2.4433 H   0  0  0  0  0  0  0  0  0  0  0  0
   -1.7142    0.5829    2.3422 H   0  0  0  0  0  0  0  0  0  0  0  0
   -2.5826   -0.9574    2.1138 H   0  0  0  0  0  0  0  0  0  0  0  0
   -4.7347    0.9441    0.4113 H   0  0  0  0  0  0  0  0  0  0  0  0
   -5.6950    1.7147   -2.0975 H   0  0  0  0  0  0  0  0  0  0  0  0
   -4.9384    2.0311   -4.4460 H   0  0  0  0  0  0  0  0  0  0  0  0
   -2.5983    1.5590   -5.0844 H   0  0  0  0  0  0  0  0  0  0  0  0
   -0.9694    0.7617   -3.3989 H   0  0  0  0  0  0  0  0  0  0  0  0
   -0.3279   -1.0499    1.4793 H   0  0  0  0  0  0  0  0  0  0  0  0
   -0.0291   -2.7536   -1.0496 H   0  0  0  0  0  0  0  0  0  0  0  0
   -1.5187   -2.5855   -0.1024 H   0  0  0  0  0  0  0  0  0  0  0  0
   -0.0859   -3.3715    0.5972 H   0  0  0  0  0  0  0  0  0  0  0  0
    4.0321   -2.0274   -0.2120 H   0  0  0  0  0  0  0  0  0  0  0  0
    6.6112   -1.3087    0.3815 H   0  0  0  0  0  0  0  0  0  0  0  0
  1  2  1  0
  2  3  1  0
  3  4  1  0
  4  5  2  0
  5  6  1  0
  6  7  2  0
  7  8  1  0
  8  9  2  0
  9 10  1  0
 10 11  1  0
 11 12  2  0
 11 13  1  0
 13 14  1  0
 13 15  1  0
 15 16  1  0
 16 17  2  0
 16 18  1  0
 18 19  2  0
 19 20  1  0
 20 21  2  0
 21 22  1  0
 22 23  2  0
 22 24  1  0
 21 25  1  0
 10  2  2  0
 25 18  1  0
  9  4  1  0
  1 26  1  0
  1 27  1  0
  1 28  1  0
  3 29  1  0
  5 30  1  0
  6 31  1  0
  7 32  1  0
  8 33  1  0
 13 34  1  0
 14 35  1  0
 14 36  1  0
 14 37  1  0
 19 38  1  0
 20 39  1  0
M  CHG  2  22   1  24  -1
M  END
$$$$
