
     RDKit          3D

 44 46  0  0  0  0  0  0  0  0999 V2000
    4.6791    1.9999    0.6148 C   0  0  0  0  0  0  0  0  0  0  0  0
    4.5431    0.7928   -0.3267 C   0  0  0  0  0  0  0  0  0  0  0  0
    3.7465    1.1888   -1.5773 C   0  0  0  0  0  0  0  0  0  0  0  0
    5.9512    0.3598   -0.7850 C   0  0  0  0  0  0  0  0  0  0  0  0
    3.9228   -0.3822    0.4637 C   0  0  0  0  0  0  0  0  0  0  0  0
    4.6241   -1.0499    1.2370 O   0  0  0  0  0  0  0  0  0  0  0  0
    2.4513   -0.7224    0.3152 C   0  0  0  0  0  0  0  0  0  0  0  0
    1.4149    0.4893    1.1785 S   0  0  0  0  0  0  0  0  0  0  0  0
   -0.2121   -0.1233    0.7412 C   0  0  0  0  0  0  0  0  0  0  0  0
   -0.2792   -1.4630    0.5265 N   0  0  0  0  0  0  0  0  0  0  0  0
   -1.4881   -1.9609    0.2354 C   0  0  0  0  0  0  0  0  0  0  0  0
   -2.6460   -1.2095    0.1272 C   0  0  0  0  0  0  0  0  0  0  0  0
   -2.5860    0.1614    0.3468 C   0  0  0  0  0  0  0  0  0  0  0  0
   -3.8004    0.9733    0.2557 C   0  0  0  0  0  0  0  0  0  0  0  0
   -4.6774    1.3393    1.2583 C   0  0  0  0  0  0  0  0  0  0  0  0
   -5.7448    2.1498    0.7691 C   0  0  0  0  0  0  0  0  0  0  0  0
   -5.6429    2.3745   -0.5871 C   0  0  0  0  0  0  0  0  0  0  0  0
   -4.2732    1.6062   -1.2657 S   0  0  0  0  0  0  0  0  0  0  0  0
   -1.3334    0.7234    0.6698 C   0  0  0  0  0  0  0  0  0  0  0  0
   -1.2071    2.1317    0.9041 C   0  0  0  0  0  0  0  0  0  0  0  0
   -1.1116    3.2766    1.0785 N   0  0  0  0  0  0  0  0  0  0  0  0
   -3.8210   -2.0898   -0.1683 C   0  0  0  0  0  0  0  0  0  0  0  0
   -3.1289   -3.3728   -0.6542 C   0  0  0  0  0  0  0  0  0  0  0  0
   -1.7676   -3.4274    0.0474 C   0  0  0  0  0  0  0  0  0  0  0  0
    3.7066    2.4431    0.8498 H   0  0  0  0  0  0  0  0  0  0  0  0
    5.3001    2.7888    0.1689 H   0  0  0  0  0  0  0  0  0  0  0  0
    5.1435    1.7079    1.5653 H   0  0  0  0  0  0  0  0  0  0  0  0
    2.7456    1.5605   -1.3320 H   0  0  0  0  0  0  0  0  0  0  0  0
    3.6295    0.3329   -2.2547 H   0  0  0  0  0  0  0  0  0  0  0  0
    4.2549    1.9847   -2.1329 H   0  0  0  0  0  0  0  0  0  0  0  0
    5.9001   -0.5260   -1.4315 H   0  0  0  0  0  0  0  0  0  0  0  0
    6.5935    0.1073    0.0670 H   0  0  0  0  0  0  0  0  0  0  0  0
    6.4514    1.1614   -1.3417 H   0  0  0  0  0  0  0  0  0  0  0  0
    2.1905   -0.8033   -0.7434 H   0  0  0  0  0  0  0  0  0  0  0  0
    2.3006   -1.7108    0.7642 H   0  0  0  0  0  0  0  0  0  0  0  0
   -4.5615    1.0466    2.2965 H   0  0  0  0  0  0  0  0  0  0  0  0
   -6.5444    2.5546    1.3783 H   0  0  0  0  0  0  0  0  0  0  0  0
   -6.3068    2.9562   -1.2142 H   0  0  0  0  0  0  0  0  0  0  0  0
   -4.3919   -2.2724    0.7466 H   0  0  0  0  0  0  0  0  0  0  0  0
   -4.4763   -1.6869   -0.9490 H   0  0  0  0  0  0  0  0  0  0  0  0
   -2.9694   -3.3024   -1.7396 H   0  0  0  0  0  0  0  0  0  0  0  0
   -3.7302   -4.2701   -0.4766 H   0  0  0  0  0  0  0  0  0  0  0  0
   -1.0093   -3.9179   -0.5687 H   0  0  0  0  0  0  0  0  0  0  0  0
   -1.8398   -3.9198    1.0230 H   0  0  0  0  0  0  0  0  0  0  0  0
  1  2  1  0
  2  3  1  0
  2  4  1  0
  2  5  1  0
  5  6  2  0
  5  7  1  0
  7  8  1  0
  8  9  1  0
  9 10  2  0
 10 11  1  0
 11 12  2  0
 12 13  1  0
 13 14  1  0
 14 15  2  0
 15 16  1  0
 16 17  2  0
 17 18  1  0
 13 19  2  0
 19 20  1  0
 20 21  3  0
 12 22  1  0
 22 23  1  0
 23 24  1  0
 19  9  1  0
 24 11  1  0
 18 14  1  0
  1 25  1  0
  1 26  1  0
  1 27  1  0
  3 28  1  0
  3 29  1  0
  3 30  1  0
  4 31  1  0
  4 32  1  0
  4 33  1  0
  7 34  1  0
  7 35  1  0
 15 36  1  0
 16 37  1  0
 17 38  1  0
 22 39  1  0
 22 40  1  0
 23 41  1  0
 23 42  1  0
 24 43  1  0
 24 44  1  0
M  END
$$$$
