
     RDKit          3D

 57 60  0  0  0  0  0  0  0  0999 V2000
    6.8891    0.1144    0.9674 C   0  0  0  0  0  0  0  0  0  0  0  0
    6.8639    1.5915    0.5878 C   0  0  0  0  0  0  0  0  0  0  0  0
    5.6306    2.3648    1.0962 C   0  0  0  0  0  0  0  0  0  0  0  0
    5.5711    2.4234    2.6212 C   0  0  0  0  0  0  0  0  0  0  0  0
    4.3940    1.8032    0.5654 N   0  0  0  0  0  0  0  0  0  0  0  0
    4.0053    2.0022   -0.7442 C   0  0  0  0  0  0  0  0  0  0  0  0
    4.5735    2.7838   -1.5006 O   0  0  0  0  0  0  0  0  0  0  0  0
    2.8348    1.2127   -1.2252 C   0  0  0  0  0  0  0  0  0  0  0  0
    2.1139    1.6977   -2.3249 C   0  0  0  0  0  0  0  0  0  0  0  0
    1.0297    0.9779   -2.8353 C   0  0  0  0  0  0  0  0  0  0  0  0
    0.6559   -0.2455   -2.2608 C   0  0  0  0  0  0  0  0  0  0  0  0
   -0.5012   -1.0365   -2.8221 C   0  0  0  0  0  0  0  0  0  0  0  0
   -2.1131   -0.4537   -2.2233 S   0  0  0  0  0  0  0  0  0  0  0  0
   -2.4429   -1.5752   -0.9443 C   0  0  0  0  0  0  0  0  0  0  0  0
   -1.5395   -2.2933   -0.3192 N   0  0  0  0  0  0  0  0  0  0  0  0
   -2.2398   -3.0577    0.5782 C   0  0  0  0  0  0  0  0  0  0  0  0
   -1.7695   -3.9923    1.4993 C   0  0  0  0  0  0  0  0  0  0  0  0
   -2.7380   -4.6278    2.2582 C   0  0  0  0  0  0  0  0  0  0  0  0
   -4.0709   -4.4022    2.1613 N   0  0  0  0  0  0  0  0  0  0  0  0
   -4.5252   -3.4860    1.2767 C   0  0  0  0  0  0  0  0  0  0  0  0
   -3.6067   -2.8078    0.4874 C   0  0  0  0  0  0  0  0  0  0  0  0
   -3.7139   -1.8340   -0.4839 N   0  0  0  0  0  0  0  0  0  0  0  0
   -4.9661   -1.2841   -0.9837 C   0  0  0  0  0  0  0  0  0  0  0  0
   -5.2817    0.0759   -0.4040 C   0  0  0  0  0  0  0  0  0  0  0  0
   -5.5171    0.2454    0.9729 C   0  0  0  0  0  0  0  0  0  0  0  0
   -5.8489    1.5008    1.4869 C   0  0  0  0  0  0  0  0  0  0  0  0
   -5.9509    2.5898    0.6309 C   0  0  0  0  0  0  0  0  0  0  0  0
   -6.2849    3.7903    1.1253 F   0  0  0  0  0  0  0  0  0  0  0  0
   -5.7219    2.4480   -0.7325 C   0  0  0  0  0  0  0  0  0  0  0  0
   -5.3876    1.1934   -1.2508 C   0  0  0  0  0  0  0  0  0  0  0  0
    1.3793   -0.7262   -1.1598 C   0  0  0  0  0  0  0  0  0  0  0  0
    2.4670   -0.0095   -0.6497 C   0  0  0  0  0  0  0  0  0  0  0  0
    7.7636   -0.3724    0.5189 H   0  0  0  0  0  0  0  0  0  0  0  0
    5.9935   -0.4070    0.6051 H   0  0  0  0  0  0  0  0  0  0  0  0
    6.9557   -0.0226    2.0527 H   0  0  0  0  0  0  0  0  0  0  0  0
    7.7759    2.0704    0.9695 H   0  0  0  0  0  0  0  0  0  0  0  0
    6.9107    1.6636   -0.5067 H   0  0  0  0  0  0  0  0  0  0  0  0
    5.7091    3.3938    0.7222 H   0  0  0  0  0  0  0  0  0  0  0  0
    6.4973    2.8387    3.0347 H   0  0  0  0  0  0  0  0  0  0  0  0
    4.7397    3.0608    2.9476 H   0  0  0  0  0  0  0  0  0  0  0  0
    5.4100    1.4334    3.0604 H   0  0  0  0  0  0  0  0  0  0  0  0
    3.8572    1.1918    1.1615 H   0  0  0  0  0  0  0  0  0  0  0  0
    2.3991    2.6391   -2.7893 H   0  0  0  0  0  0  0  0  0  0  0  0
    0.4843    1.3756   -3.6890 H   0  0  0  0  0  0  0  0  0  0  0  0
   -0.3663   -2.1082   -2.6349 H   0  0  0  0  0  0  0  0  0  0  0  0
   -0.4985   -0.9352   -3.9137 H   0  0  0  0  0  0  0  0  0  0  0  0
   -0.7160   -4.2006    1.6127 H   0  0  0  0  0  0  0  0  0  0  0  0
   -2.4550   -5.3710    2.9992 H   0  0  0  0  0  0  0  0  0  0  0  0
   -5.5982   -3.3343    1.2375 H   0  0  0  0  0  0  0  0  0  0  0  0
   -4.9082   -1.2593   -2.0787 H   0  0  0  0  0  0  0  0  0  0  0  0
   -5.7791   -1.9776   -0.7422 H   0  0  0  0  0  0  0  0  0  0  0  0
   -5.4448   -0.5949    1.6606 H   0  0  0  0  0  0  0  0  0  0  0  0
   -6.0314    1.6354    2.5478 H   0  0  0  0  0  0  0  0  0  0  0  0
   -5.8056    3.3140   -1.3815 H   0  0  0  0  0  0  0  0  0  0  0  0
   -5.2106    1.0992   -2.3206 H   0  0  0  0  0  0  0  0  0  0  0  0
    1.1024   -1.6724   -0.6977 H   0  0  0  0  0  0  0  0  0  0  0  0
    3.0267   -0.4438    0.1728 H   0  0  0  0  0  0  0  0  0  0  0  0
  1  2  1  0
  2  3  1  0
  3  4  1  0
  3  5  1  0
  5  6  1  0
  6  7  2  0
  6  8  1  0
  8  9  2  0
  9 10  1  0
 10 11  2  0
 11 12  1  0
 12 13  1  0
 13 14  1  0
 14 15  2  0
 15 16  1  0
 16 17  2  0
 17 18  1  0
 18 19  2  0
 19 20  1  0
 20 21  2  0
 21 22  1  0
 22 23  1  0
 23 24  1  0
 24 25  2  0
 25 26  1  0
 26 27  2  0
 27 28  1  0
 27 29  1  0
 29 30  2  0
 11 31  1  0
 31 32  2  0
 32  8  1  0
 22 14  1  0
 30 24  1  0
 21 16  1  0
  1 33  1  0
  1 34  1  0
  1 35  1  0
  2 36  1  0
  2 37  1  0
  3 38  1  0
  4 39  1  0
  4 40  1  0
  4 41  1  0
  5 42  1  0
  9 43  1  0
 10 44  1  0
 12 45  1  0
 12 46  1  0
 17 47  1  0
 18 48  1  0
 20 49  1  0
 23 50  1  0
 23 51  1  0
 25 52  1  0
 26 53  1  0
 29 54  1  0
 30 55  1  0
 31 56  1  0
 32 57  1  0
M  END
$$$$
