
     RDKit          3D

 43 45  0  0  0  0  0  0  0  0999 V2000
   -3.5644    1.4504   -1.1341 C   0  0  0  0  0  0  0  0  0  0  0  0
   -4.3680    0.4888   -0.3078 C   0  0  0  0  0  0  0  0  0  0  0  0
   -5.7218    0.2807   -0.6025 C   0  0  0  0  0  0  0  0  0  0  0  0
   -6.4799   -0.6133    0.1522 C   0  0  0  0  0  0  0  0  0  0  0  0
   -5.8962   -1.3004    1.2179 C   0  0  0  0  0  0  0  0  0  0  0  0
   -4.5462   -1.1037    1.5438 C   0  0  0  0  0  0  0  0  0  0  0  0
   -3.9614   -1.8461    2.7120 C   0  0  0  0  0  0  0  0  0  0  0  0
   -3.7822   -0.2403    0.7435 C   0  0  0  0  0  0  0  0  0  0  0  0
   -2.4487   -0.0354    1.0130 O   0  0  0  0  0  0  0  0  0  0  0  0
   -1.6542   -1.0635    0.4095 C   0  0  0  0  0  0  0  0  0  0  0  0
   -0.2663   -0.5544    0.3863 C   0  0  0  0  0  0  0  0  0  0  0  0
    0.4417    0.2515   -0.4684 C   0  0  0  0  0  0  0  0  0  0  0  0
    1.7402    0.3410    0.1034 C   0  0  0  0  0  0  0  0  0  0  0  0
    2.8585    1.1397   -0.4242 C   0  0  0  0  0  0  0  0  0  0  0  0
    2.6450    1.9933   -1.2906 O   0  0  0  0  0  0  0  0  0  0  0  0
    4.1454    0.9527    0.0901 N   0  0  0  0  0  0  0  0  0  0  0  0
    5.1801    1.9222   -0.2577 C   0  0  0  0  0  0  0  0  0  0  0  0
    6.0682    1.3429   -1.3548 C   0  0  0  0  0  0  0  0  0  0  0  0
    6.6149    0.0597   -0.9564 N   0  0  0  0  0  0  0  0  0  0  0  0
    5.9074   -0.8455   -0.2044 C   0  0  0  0  0  0  0  0  0  0  0  0
    6.3357   -1.9905   -0.0796 O   0  0  0  0  0  0  0  0  0  0  0  0
    4.6565   -0.3459    0.5523 C   0  0  0  0  0  0  0  0  0  0  0  0
    1.7895   -0.3564    1.2519 N   0  0  0  0  0  0  0  0  0  0  0  0
    0.5408   -0.9243    1.4153 O   0  0  0  0  0  0  0  0  0  0  0  0
   -2.9615    2.1023   -0.4931 H   0  0  0  0  0  0  0  0  0  0  0  0
   -4.2128    2.0995   -1.7343 H   0  0  0  0  0  0  0  0  0  0  0  0
   -2.9051    0.9038   -1.8154 H   0  0  0  0  0  0  0  0  0  0  0  0
   -6.1975    0.8190   -1.4189 H   0  0  0  0  0  0  0  0  0  0  0  0
   -7.5299   -0.7680   -0.0833 H   0  0  0  0  0  0  0  0  0  0  0  0
   -6.5088   -1.9855    1.8050 H   0  0  0  0  0  0  0  0  0  0  0  0
   -3.1049   -1.3137    3.1388 H   0  0  0  0  0  0  0  0  0  0  0  0
   -4.6989   -1.9502    3.5134 H   0  0  0  0  0  0  0  0  0  0  0  0
   -3.6391   -2.8415    2.3975 H   0  0  0  0  0  0  0  0  0  0  0  0
   -1.7099   -1.9846    1.0023 H   0  0  0  0  0  0  0  0  0  0  0  0
   -1.9820   -1.2836   -0.6121 H   0  0  0  0  0  0  0  0  0  0  0  0
    0.0861    0.7277   -1.3695 H   0  0  0  0  0  0  0  0  0  0  0  0
    4.7423    2.8721   -0.5798 H   0  0  0  0  0  0  0  0  0  0  0  0
    5.7647    2.1155    0.6505 H   0  0  0  0  0  0  0  0  0  0  0  0
    6.9069    2.0129   -1.5767 H   0  0  0  0  0  0  0  0  0  0  0  0
    5.4950    1.1773   -2.2749 H   0  0  0  0  0  0  0  0  0  0  0  0
    7.3896   -0.3386   -1.4748 H   0  0  0  0  0  0  0  0  0  0  0  0
    3.9087   -1.1306    0.4308 H   0  0  0  0  0  0  0  0  0  0  0  0
    4.9225   -0.2369    1.6066 H   0  0  0  0  0  0  0  0  0  0  0  0
  1  2  1  0
  2  3  2  0
  3  4  1  0
  4  5  2  0
  5  6  1  0
  6  7  1  0
  6  8  2  0
  8  9  1  0
  9 10  1  0
 10 11  1  0
 11 12  2  0
 12 13  1  0
 13 14  1  0
 14 15  2  0
 14 16  1  0
 16 17  1  0
 17 18  1  0
 18 19  1  0
 19 20  1  0
 20 21  2  0
 20 22  1  0
 13 23  2  0
 23 24  1  0
  8  2  1  0
 24 11  1  0
 22 16  1  0
  1 25  1  0
  1 26  1  0
  1 27  1  0
  3 28  1  0
  4 29  1  0
  5 30  1  0
  7 31  1  0
  7 32  1  0
  7 33  1  0
 10 34  1  0
 10 35  1  0
 12 36  1  0
 17 37  1  0
 17 38  1  0
 18 39  1  0
 18 40  1  0
 19 41  1  0
 22 42  1  0
 22 43  1  0
M  END
$$$$
