
     RDKit          3D

 53 55  0  0  0  0  0  0  0  0999 V2000
    6.3871    2.9399   -0.7527 C   0  0  0  0  0  0  0  0  0  0  0  0
    5.8593    1.6617   -1.2771 C   0  0  0  0  0  0  0  0  0  0  0  0
    6.7148    0.9257   -2.0405 O   0  0  0  0  0  0  0  0  0  0  0  0
    6.0379   -0.1760   -2.4473 C   0  0  0  0  0  0  0  0  0  0  0  0
    4.7579   -0.1627   -1.9481 C   0  0  0  0  0  0  0  0  0  0  0  0
    4.6360    1.0207   -1.1585 C   0  0  0  0  0  0  0  0  0  0  0  0
    3.4907    1.5563   -0.4318 C   0  0  0  0  0  0  0  0  0  0  0  0
    3.2501    2.7621   -0.4696 O   0  0  0  0  0  0  0  0  0  0  0  0
    2.6817    0.6657    0.2815 N   0  0  0  0  0  0  0  0  0  0  0  0
    3.0540   -0.7041    0.6109 C   0  0  0  0  0  0  0  0  0  0  0  0
    1.3820    1.1339    0.7712 C   0  0  0  0  0  0  0  0  0  0  0  0
    0.1954    0.4655    0.0563 C   0  0  0  0  0  0  0  0  0  0  0  0
    0.1941    0.7579   -1.4543 C   0  0  0  0  0  0  0  0  0  0  0  0
   -1.2154    0.7764   -2.0450 C   0  0  0  0  0  0  0  0  0  0  0  0
   -2.1663   -0.1482   -1.2885 C   0  0  0  0  0  0  0  0  0  0  0  0
   -2.2676    0.1501    0.1468 N   0  0  0  0  0  0  0  0  0  0  0  0
   -3.5499    0.7533    0.5412 C   0  0  0  0  0  0  0  0  0  0  0  0
   -4.7681   -0.1859    0.4325 C   0  0  0  0  0  0  0  0  0  0  0  0
   -4.6550   -1.4300    1.2780 C   0  0  0  0  0  0  0  0  0  0  0  0
   -4.8497   -1.3770    2.6656 C   0  0  0  0  0  0  0  0  0  0  0  0
   -4.7276   -2.5326    3.4422 C   0  0  0  0  0  0  0  0  0  0  0  0
   -4.4086   -3.7511    2.8426 C   0  0  0  0  0  0  0  0  0  0  0  0
   -4.2113   -3.8142    1.4647 C   0  0  0  0  0  0  0  0  0  0  0  0
   -4.3339   -2.6599    0.6958 C   0  0  0  0  0  0  0  0  0  0  0  0
   -4.1460   -2.7486   -0.6295 F   0  0  0  0  0  0  0  0  0  0  0  0
   -1.1326    0.9147    0.6821 C   0  0  0  0  0  0  0  0  0  0  0  0
    7.4784    2.9785   -0.8278 H   0  0  0  0  0  0  0  0  0  0  0  0
    6.1183    3.0667    0.3007 H   0  0  0  0  0  0  0  0  0  0  0  0
    5.9763    3.7811   -1.3193 H   0  0  0  0  0  0  0  0  0  0  0  0
    6.5881   -0.8536   -3.0851 H   0  0  0  0  0  0  0  0  0  0  0  0
    3.9969   -0.9042   -2.1448 H   0  0  0  0  0  0  0  0  0  0  0  0
    2.5992   -1.3807   -0.1175 H   0  0  0  0  0  0  0  0  0  0  0  0
    4.1383   -0.8349    0.6150 H   0  0  0  0  0  0  0  0  0  0  0  0
    2.6862   -0.9509    1.6116 H   0  0  0  0  0  0  0  0  0  0  0  0
    1.3009    2.2219    0.6682 H   0  0  0  0  0  0  0  0  0  0  0  0
    1.3456    0.9232    1.8473 H   0  0  0  0  0  0  0  0  0  0  0  0
    0.2804   -0.6217    0.1930 H   0  0  0  0  0  0  0  0  0  0  0  0
    0.6717    1.7201   -1.6749 H   0  0  0  0  0  0  0  0  0  0  0  0
    0.7960   -0.0063   -1.9623 H   0  0  0  0  0  0  0  0  0  0  0  0
   -1.1731    0.4915   -3.1028 H   0  0  0  0  0  0  0  0  0  0  0  0
   -1.6091    1.8008   -2.0159 H   0  0  0  0  0  0  0  0  0  0  0  0
   -3.1411   -0.1298   -1.7872 H   0  0  0  0  0  0  0  0  0  0  0  0
   -1.8028   -1.1790   -1.3872 H   0  0  0  0  0  0  0  0  0  0  0  0
   -3.4839    1.0805    1.5878 H   0  0  0  0  0  0  0  0  0  0  0  0
   -3.7381    1.6571   -0.0529 H   0  0  0  0  0  0  0  0  0  0  0  0
   -5.6631    0.3651    0.7514 H   0  0  0  0  0  0  0  0  0  0  0  0
   -4.9614   -0.4567   -0.6119 H   0  0  0  0  0  0  0  0  0  0  0  0
   -5.0950   -0.4348    3.1499 H   0  0  0  0  0  0  0  0  0  0  0  0
   -4.8791   -2.4812    4.5175 H   0  0  0  0  0  0  0  0  0  0  0  0
   -4.3128   -4.6484    3.4480 H   0  0  0  0  0  0  0  0  0  0  0  0
   -3.9616   -4.7532    0.9821 H   0  0  0  0  0  0  0  0  0  0  0  0
   -1.0936    0.7645    1.7680 H   0  0  0  0  0  0  0  0  0  0  0  0
   -1.2706    1.9910    0.5096 H   0  0  0  0  0  0  0  0  0  0  0  0
  1  2  1  0
  2  3  1  0
  3  4  1  0
  4  5  2  0
  5  6  1  0
  6  7  1  0
  7  8  2  0
  7  9  1  0
  9 10  1  0
  9 11  1  0
 11 12  1  0
 12 13  1  0
 13 14  1  0
 14 15  1  0
 15 16  1  0
 16 17  1  0
 17 18  1  0
 18 19  1  0
 19 20  2  0
 20 21  1  0
 21 22  2  0
 22 23  1  0
 23 24  2  0
 24 25  1  0
 16 26  1  0
  6  2  2  0
 26 12  1  0
 24 19  1  0
  1 27  1  0
  1 28  1  0
  1 29  1  0
  4 30  1  0
  5 31  1  0
 10 32  1  0
 10 33  1  0
 10 34  1  0
 11 35  1  0
 11 36  1  0
 12 37  1  0
 13 38  1  0
 13 39  1  0
 14 40  1  0
 14 41  1  0
 15 42  1  0
 15 43  1  0
 17 44  1  0
 17 45  1  0
 18 46  1  0
 18 47  1  0
 20 48  1  0
 21 49  1  0
 22 50  1  0
 23 51  1  0
 26 52  1  0
 26 53  1  0
M  END
$$$$
