
     RDKit          3D

 52 54  0  0  0  0  0  0  0  0999 V2000
   -2.8958   -0.7743   -2.3703 C   0  0  0  0  0  0  0  0  0  0  0  0
   -3.2738    0.6452   -1.9037 C   0  0  0  0  0  0  0  0  0  0  0  0
   -4.2085    1.2533   -2.9707 C   0  0  0  0  0  0  0  0  0  0  0  0
   -2.0114    1.5489   -1.7915 C   0  0  0  0  0  0  0  0  0  0  0  0
   -1.2126    1.2317   -0.5589 C   0  0  0  0  0  0  0  0  0  0  0  0
   -1.8368    0.6318    0.5235 C   0  0  0  0  0  0  0  0  0  0  0  0
   -0.7295    0.2965    1.7744 S   0  0  0  0  0  0  0  0  0  0  0  0
    0.5777    0.9190    0.8979 C   0  0  0  0  0  0  0  0  0  0  0  0
    1.8700    0.8696    1.3973 N   0  0  0  0  0  0  0  0  0  0  0  0
    2.2819    0.4137    2.6348 C   0  0  0  0  0  0  0  0  0  0  0  0
    1.5828    0.0393    3.5730 O   0  0  0  0  0  0  0  0  0  0  0  0
    3.8070    0.4590    2.7842 C   0  0  0  0  0  0  0  0  0  0  0  0
    4.5273    0.0989    1.6140 O   0  0  0  0  0  0  0  0  0  0  0  0
    4.6398   -1.2295    1.2923 C   0  0  0  0  0  0  0  0  0  0  0  0
    3.9887   -2.2720    1.9636 C   0  0  0  0  0  0  0  0  0  0  0  0
    4.1619   -3.5992    1.5493 C   0  0  0  0  0  0  0  0  0  0  0  0
    4.9875   -3.8917    0.4640 C   0  0  0  0  0  0  0  0  0  0  0  0
    5.1978   -5.5275   -0.0362 Cl  0  0  0  0  0  0  0  0  0  0  0  0
    5.6410   -2.8708   -0.2167 C   0  0  0  0  0  0  0  0  0  0  0  0
    5.4658   -1.5465    0.1964 C   0  0  0  0  0  0  0  0  0  0  0  0
    6.3065   -0.3105   -0.6779 Cl  0  0  0  0  0  0  0  0  0  0  0  0
    0.1972    1.4550   -0.3275 C   0  0  0  0  0  0  0  0  0  0  0  0
    1.1680    2.1153   -1.2002 C   0  0  0  0  0  0  0  0  0  0  0  0
    0.6816    3.0758   -2.0403 N   0  0  0  0  0  0  0  0  0  0  0  0
    2.3768    1.9042   -1.1391 O   0  0  0  0  0  0  0  0  0  0  0  0
   -3.3158    0.2782    0.6086 C   0  0  0  0  0  0  0  0  0  0  0  0
   -3.9936    1.1280    1.7042 C   0  0  0  0  0  0  0  0  0  0  0  0
   -3.5379   -1.2116    0.9349 C   0  0  0  0  0  0  0  0  0  0  0  0
   -4.0390    0.6310   -0.6413 N   0  0  0  0  0  0  0  0  0  0  0  0
   -3.7730   -1.4343   -2.3885 H   0  0  0  0  0  0  0  0  0  0  0  0
   -2.4845   -0.7511   -3.3883 H   0  0  0  0  0  0  0  0  0  0  0  0
   -2.1374   -1.2400   -1.7344 H   0  0  0  0  0  0  0  0  0  0  0  0
   -3.7027    1.3357   -3.9409 H   0  0  0  0  0  0  0  0  0  0  0  0
   -5.1034    0.6365   -3.1170 H   0  0  0  0  0  0  0  0  0  0  0  0
   -4.5420    2.2604   -2.6901 H   0  0  0  0  0  0  0  0  0  0  0  0
   -1.3945    1.4331   -2.6918 H   0  0  0  0  0  0  0  0  0  0  0  0
   -2.3165    2.6032   -1.7315 H   0  0  0  0  0  0  0  0  0  0  0  0
    2.5997    1.1652    0.7445 H   0  0  0  0  0  0  0  0  0  0  0  0
    4.0669    1.4982    3.0197 H   0  0  0  0  0  0  0  0  0  0  0  0
    4.1271   -0.1416    3.6447 H   0  0  0  0  0  0  0  0  0  0  0  0
    3.3315   -2.0977    2.8115 H   0  0  0  0  0  0  0  0  0  0  0  0
    3.6449   -4.4024    2.0770 H   0  0  0  0  0  0  0  0  0  0  0  0
    6.2825   -3.1029   -1.0635 H   0  0  0  0  0  0  0  0  0  0  0  0
   -0.2068    3.5117   -1.8345 H   0  0  0  0  0  0  0  0  0  0  0  0
    1.3864    3.6554   -2.4732 H   0  0  0  0  0  0  0  0  0  0  0  0
   -3.5802    0.9158    2.6976 H   0  0  0  0  0  0  0  0  0  0  0  0
   -5.0725    0.9392    1.7525 H   0  0  0  0  0  0  0  0  0  0  0  0
   -3.8495    2.1994    1.5255 H   0  0  0  0  0  0  0  0  0  0  0  0
   -4.6043   -1.4710    0.9110 H   0  0  0  0  0  0  0  0  0  0  0  0
   -3.0184   -1.8763    0.2377 H   0  0  0  0  0  0  0  0  0  0  0  0
   -3.1791   -1.4602    1.9420 H   0  0  0  0  0  0  0  0  0  0  0  0
   -4.8788    0.0629   -0.7327 H   0  0  0  0  0  0  0  0  0  0  0  0
  1  2  1  0
  2  3  1  0
  2  4  1  0
  4  5  1  0
  5  6  2  0
  6  7  1  0
  7  8  1  0
  8  9  1  0
  9 10  1  0
 10 11  2  0
 10 12  1  0
 12 13  1  0
 13 14  1  0
 14 15  2  0
 15 16  1  0
 16 17  2  0
 17 18  1  0
 17 19  1  0
 19 20  2  0
 20 21  1  0
  8 22  2  0
 22 23  1  0
 23 24  1  0
 23 25  2  0
  6 26  1  0
 26 27  1  0
 26 28  1  0
 26 29  1  0
 29  2  1  0
 22  5  1  0
 20 14  1  0
  1 30  1  0
  1 31  1  0
  1 32  1  0
  3 33  1  0
  3 34  1  0
  3 35  1  0
  4 36  1  0
  4 37  1  0
  9 38  1  0
 12 39  1  0
 12 40  1  0
 15 41  1  0
 16 42  1  0
 19 43  1  0
 24 44  1  0
 24 45  1  0
 27 46  1  0
 27 47  1  0
 27 48  1  0
 28 49  1  0
 28 50  1  0
 28 51  1  0
 29 52  1  0
M  END
$$$$
