
     RDKit          3D

 45 47  0  0  0  0  0  0  0  0999 V2000
   -0.3657   -3.4596   -0.3535 C   0  0  0  0  0  0  0  0  0  0  0  0
    0.1124   -2.1652    0.1934 C   0  0  0  0  0  0  0  0  0  0  0  0
    1.3841   -1.8263    0.2865 N   0  0  0  0  0  0  0  0  0  0  0  0
    1.3481   -0.4727    0.5545 C   0  0  0  0  0  0  0  0  0  0  0  0
    2.5845    0.3282    0.7066 C   0  0  0  0  0  0  0  0  0  0  0  0
    2.5747    1.5367    0.9169 O   0  0  0  0  0  0  0  0  0  0  0  0
    3.7132   -0.4635    0.5777 N   0  0  0  0  0  0  0  0  0  0  0  0
    5.0716   -0.0924    0.6575 C   0  0  0  0  0  0  0  0  0  0  0  0
    5.4929    1.2181    0.9005 C   0  0  0  0  0  0  0  0  0  0  0  0
    6.8571    1.5245    0.9692 C   0  0  0  0  0  0  0  0  0  0  0  0
    7.8083    0.5226    0.7955 C   0  0  0  0  0  0  0  0  0  0  0  0
    9.4821    0.9086    0.8813 Cl  0  0  0  0  0  0  0  0  0  0  0  0
    7.4129   -0.7881    0.5528 C   0  0  0  0  0  0  0  0  0  0  0  0
    6.0512   -1.0908    0.4848 C   0  0  0  0  0  0  0  0  0  0  0  0
    5.6017   -2.7359    0.1794 Cl  0  0  0  0  0  0  0  0  0  0  0  0
    0.1072    0.0285    0.6166 N   0  0  0  0  0  0  0  0  0  0  0  0
   -0.6782   -1.0730    0.5264 N   0  0  0  0  0  0  0  0  0  0  0  0
   -2.0841   -0.9373    0.6594 C   0  0  0  0  0  0  0  0  0  0  0  0
   -2.6637    0.2563    0.1818 C   0  0  0  0  0  0  0  0  0  0  0  0
   -4.0484    0.4434    0.2213 C   0  0  0  0  0  0  0  0  0  0  0  0
   -4.6246    1.6050   -0.2169 O   0  0  0  0  0  0  0  0  0  0  0  0
   -4.3043    1.9679   -1.5686 C   0  0  0  0  0  0  0  0  0  0  0  0
   -5.6114    2.0102   -2.3538 C   0  0  0  0  0  0  0  0  0  0  0  0
   -3.6448    3.3419   -1.5498 C   0  0  0  0  0  0  0  0  0  0  0  0
   -4.8581   -0.5351    0.8018 C   0  0  0  0  0  0  0  0  0  0  0  0
   -6.5707   -0.3440    0.9018 Cl  0  0  0  0  0  0  0  0  0  0  0  0
   -4.2880   -1.6956    1.3269 C   0  0  0  0  0  0  0  0  0  0  0  0
   -2.9025   -1.8960    1.2712 C   0  0  0  0  0  0  0  0  0  0  0  0
   -2.3042   -3.2526    2.1588 Cl  0  0  0  0  0  0  0  0  0  0  0  0
   -1.3966   -3.4126   -0.7134 H   0  0  0  0  0  0  0  0  0  0  0  0
   -0.2725   -4.2537    0.3922 H   0  0  0  0  0  0  0  0  0  0  0  0
    0.2565   -3.7445   -1.2093 H   0  0  0  0  0  0  0  0  0  0  0  0
    3.5215   -1.4498    0.3993 H   0  0  0  0  0  0  0  0  0  0  0  0
    4.7868    2.0312    1.0430 H   0  0  0  0  0  0  0  0  0  0  0  0
    7.1649    2.5503    1.1595 H   0  0  0  0  0  0  0  0  0  0  0  0
    8.1571   -1.5679    0.4176 H   0  0  0  0  0  0  0  0  0  0  0  0
   -2.0331    1.0429   -0.2304 H   0  0  0  0  0  0  0  0  0  0  0  0
   -3.6355    1.2456   -2.0541 H   0  0  0  0  0  0  0  0  0  0  0  0
   -6.3245    2.7045   -1.8956 H   0  0  0  0  0  0  0  0  0  0  0  0
   -5.4423    2.3135   -3.3915 H   0  0  0  0  0  0  0  0  0  0  0  0
   -6.0879    1.0240   -2.3531 H   0  0  0  0  0  0  0  0  0  0  0  0
   -2.7172    3.3165   -0.9688 H   0  0  0  0  0  0  0  0  0  0  0  0
   -4.2942    4.0831   -1.0709 H   0  0  0  0  0  0  0  0  0  0  0  0
   -3.4103    3.6834   -2.5626 H   0  0  0  0  0  0  0  0  0  0  0  0
   -4.9261   -2.4301    1.8145 H   0  0  0  0  0  0  0  0  0  0  0  0
  1  2  1  0
  2  3  2  0
  3  4  1  0
  4  5  1  0
  5  6  2  0
  5  7  1  0
  7  8  1  0
  8  9  2  0
  9 10  1  0
 10 11  2  0
 11 12  1  0
 11 13  1  0
 13 14  2  0
 14 15  1  0
  4 16  2  0
 16 17  1  0
 17 18  1  0
 18 19  2  0
 19 20  1  0
 20 21  1  0
 21 22  1  0
 22 23  1  0
 22 24  1  0
 20 25  2  0
 25 26  1  0
 25 27  1  0
 27 28  2  0
 28 29  1  0
 17  2  1  0
 28 18  1  0
 14  8  1  0
  1 30  1  0
  1 31  1  0
  1 32  1  0
  7 33  1  0
  9 34  1  0
 10 35  1  0
 13 36  1  0
 19 37  1  0
 22 38  1  0
 23 39  1  0
 23 40  1  0
 23 41  1  0
 24 42  1  0
 24 43  1  0
 24 44  1  0
 27 45  1  0
M  END
$$$$
