
     RDKit          3D

 48 50  0  0  0  0  0  0  0  0999 V2000
    4.9592   -0.0320    0.8637 C   0  0  0  0  0  0  0  0  0  0  0  0
    4.3626   -0.3132   -0.4685 C   0  0  0  0  0  0  0  0  0  0  0  0
    4.9169   -0.0317   -1.7157 C   0  0  0  0  0  0  0  0  0  0  0  0
    6.1525    0.5781   -2.1404 C   0  0  0  0  0  0  0  0  0  0  0  0
    6.5450    0.7822   -3.2804 O   0  0  0  0  0  0  0  0  0  0  0  0
    6.9277    0.9495   -1.0954 O   0  0  0  0  0  0  0  0  0  0  0  0
    4.0599   -0.4463   -2.7011 O   0  0  0  0  0  0  0  0  0  0  0  0
    2.9699   -0.9887   -2.1051 C   0  0  0  0  0  0  0  0  0  0  0  0
    1.8748   -1.5299   -2.7770 C   0  0  0  0  0  0  0  0  0  0  0  0
    0.8442   -2.0414   -1.9833 C   0  0  0  0  0  0  0  0  0  0  0  0
    0.9321   -1.9913   -0.5867 C   0  0  0  0  0  0  0  0  0  0  0  0
   -0.4029   -2.6534    0.3815 S   0  0  0  0  0  6  0  0  0  0  0  0
   -0.8779   -3.8441   -0.2868 O   0  0  0  0  0  0  0  0  0  0  0  0
   -0.0109   -2.6629    1.7729 O   0  0  0  0  0  0  0  0  0  0  0  0
   -1.5840   -1.4906    0.1739 N   0  0  0  0  0  0  0  0  0  0  0  0
   -1.5302   -0.2132    0.8954 C   0  0  0  0  0  0  0  0  0  0  0  0
   -2.4927   -0.2805    2.0874 C   0  0  0  0  0  0  0  0  0  0  0  0
   -2.7491    1.0554    2.7868 C   0  0  0  0  0  0  0  0  0  0  0  0
   -4.0989    1.6954    2.4567 C   0  0  0  0  0  0  0  0  0  0  0  0
   -4.2750    2.2319    1.0348 C   0  0  0  0  0  0  0  0  0  0  0  0
   -4.3420    1.1542   -0.0474 C   0  0  0  0  0  0  0  0  0  0  0  0
   -3.0638    0.9780   -0.8653 C   0  0  0  0  0  0  0  0  0  0  0  0
   -1.7371    0.9282   -0.1076 C   0  0  0  0  0  0  0  0  0  0  0  0
    2.0534   -1.4507    0.0654 C   0  0  0  0  0  0  0  0  0  0  0  0
    3.0977   -0.9322   -0.7242 C   0  0  0  0  0  0  0  0  0  0  0  0
    4.3034   -0.3593    1.6763 H   0  0  0  0  0  0  0  0  0  0  0  0
    5.1307    1.0419    0.9891 H   0  0  0  0  0  0  0  0  0  0  0  0
    5.9131   -0.5570    0.9763 H   0  0  0  0  0  0  0  0  0  0  0  0
    7.7116    1.3343   -1.5395 H   0  0  0  0  0  0  0  0  0  0  0  0
    1.8345   -1.5530   -3.8597 H   0  0  0  0  0  0  0  0  0  0  0  0
   -0.0293   -2.4804   -2.4624 H   0  0  0  0  0  0  0  0  0  0  0  0
   -2.4669   -1.8314   -0.2021 H   0  0  0  0  0  0  0  0  0  0  0  0
   -0.5199   -0.0703    1.3005 H   0  0  0  0  0  0  0  0  0  0  0  0
   -2.0387   -0.9579    2.8247 H   0  0  0  0  0  0  0  0  0  0  0  0
   -3.4346   -0.7716    1.8201 H   0  0  0  0  0  0  0  0  0  0  0  0
   -1.9317    1.7648    2.6185 H   0  0  0  0  0  0  0  0  0  0  0  0
   -2.7524    0.8628    3.8682 H   0  0  0  0  0  0  0  0  0  0  0  0
   -4.2406    2.5382    3.1459 H   0  0  0  0  0  0  0  0  0  0  0  0
   -4.9051    0.9860    2.6823 H   0  0  0  0  0  0  0  0  0  0  0  0
   -5.2331    2.7688    1.0214 H   0  0  0  0  0  0  0  0  0  0  0  0
   -3.5130    2.9856    0.8083 H   0  0  0  0  0  0  0  0  0  0  0  0
   -4.6718    0.1961    0.3655 H   0  0  0  0  0  0  0  0  0  0  0  0
   -5.1310    1.4376   -0.7575 H   0  0  0  0  0  0  0  0  0  0  0  0
   -3.0007    1.8188   -1.5694 H   0  0  0  0  0  0  0  0  0  0  0  0
   -3.1685    0.0828   -1.4902 H   0  0  0  0  0  0  0  0  0  0  0  0
   -0.9433    0.8541   -0.8649 H   0  0  0  0  0  0  0  0  0  0  0  0
   -1.5595    1.8900    0.3857 H   0  0  0  0  0  0  0  0  0  0  0  0
    2.1152   -1.4316    1.1499 H   0  0  0  0  0  0  0  0  0  0  0  0
  1  2  1  0
  2  3  2  0
  3  4  1  0
  4  5  2  0
  4  6  1  0
  3  7  1  0
  7  8  1  0
  8  9  2  0
  9 10  1  0
 10 11  2  0
 11 12  1  0
 12 13  2  0
 12 14  2  0
 12 15  1  0
 15 16  1  0
 16 17  1  0
 17 18  1  0
 18 19  1  0
 19 20  1  0
 20 21  1  0
 21 22  1  0
 22 23  1  0
 11 24  1  0
 24 25  2  0
 25  2  1  0
 25  8  1  0
 23 16  1  0
  1 26  1  0
  1 27  1  0
  1 28  1  0
  6 29  1  0
  9 30  1  0
 10 31  1  0
 15 32  1  0
 16 33  1  0
 17 34  1  0
 17 35  1  0
 18 36  1  0
 18 37  1  0
 19 38  1  0
 19 39  1  0
 20 40  1  0
 20 41  1  0
 21 42  1  0
 21 43  1  0
 22 44  1  0
 22 45  1  0
 23 46  1  0
 23 47  1  0
 24 48  1  0
M  END
$$$$
