
     RDKit          3D

 34 36  0  0  0  0  0  0  0  0999 V2000
    0.7936   -0.8108   -1.1980 O   0  0  0  0  0  0  0  0  0  0  0  0
    0.7580   -1.4199   -0.1372 C   0  0  0  0  0  0  0  0  0  0  0  0
    1.8908   -1.5882    0.8184 C   0  0  0  0  0  0  0  0  0  0  0  0
    3.1299   -1.0857    0.7323 C   0  0  0  0  0  0  0  0  0  0  0  0
    3.6834   -0.2243   -0.3115 C   0  0  0  0  0  0  0  0  0  0  0  0
    3.1045    0.9837   -0.6843 C   0  0  0  0  0  0  0  0  0  0  0  0
    3.7433    1.7646   -1.6448 C   0  0  0  0  0  0  0  0  0  0  0  0
    4.9446    1.3279   -2.1882 C   0  0  0  0  0  0  0  0  0  0  0  0
    5.4631    0.1254   -1.7402 C   0  0  0  0  0  0  0  0  0  0  0  0
    4.8673   -0.6507   -0.8079 N   0  0  0  0  0  0  0  0  0  0  0  0
    1.4069   -2.6192    2.1328 S   0  0  0  0  0  0  0  0  0  0  0  0
   -0.2297   -2.8351    1.5133 C   0  0  0  0  0  0  0  0  0  0  0  0
   -1.3666   -3.8027    2.2580 S   0  0  0  0  0  0  0  0  0  0  0  0
   -0.3449   -2.1009    0.3524 N   0  0  0  0  0  0  0  0  0  0  0  0
   -1.5556   -2.0328   -0.3815 N   0  0  0  0  0  0  0  0  0  0  0  0
   -2.3403   -0.8967   -0.0173 C   0  0  0  0  0  0  0  0  0  0  0  0
   -2.0203   -0.1936    1.1014 N   0  0  0  0  0  0  0  0  0  0  0  0
   -2.8139    0.8452    1.4558 C   0  0  0  0  0  0  0  0  0  0  0  0
   -3.9400    1.2384    0.7500 C   0  0  0  0  0  0  0  0  0  0  0  0
   -4.7411    2.4176    1.2072 C   0  0  0  0  0  0  0  0  0  0  0  0
   -4.2251    3.5934    0.7582 F   0  0  0  0  0  0  0  0  0  0  0  0
   -4.8002    2.5265    2.5622 F   0  0  0  0  0  0  0  0  0  0  0  0
   -6.0319    2.3852    0.7776 F   0  0  0  0  0  0  0  0  0  0  0  0
   -4.2600    0.5187   -0.4043 C   0  0  0  0  0  0  0  0  0  0  0  0
   -3.4630   -0.5597   -0.7887 C   0  0  0  0  0  0  0  0  0  0  0  0
   -3.8799   -1.4288   -2.2204 Cl  0  0  0  0  0  0  0  0  0  0  0  0
    3.8716   -1.3538    1.4824 H   0  0  0  0  0  0  0  0  0  0  0  0
    2.1705    1.3207   -0.2477 H   0  0  0  0  0  0  0  0  0  0  0  0
    3.3042    2.7050   -1.9649 H   0  0  0  0  0  0  0  0  0  0  0  0
    5.4653    1.9107   -2.9395 H   0  0  0  0  0  0  0  0  0  0  0  0
    6.4022   -0.2581   -2.1288 H   0  0  0  0  0  0  0  0  0  0  0  0
   -1.3556   -1.9606   -1.3835 H   0  0  0  0  0  0  0  0  0  0  0  0
   -2.5018    1.3646    2.3608 H   0  0  0  0  0  0  0  0  0  0  0  0
   -5.1294    0.7943   -0.9985 H   0  0  0  0  0  0  0  0  0  0  0  0
  1  2  2  0
  2  3  1  0
  3  4  2  3
  4  5  1  0
  5  6  2  0
  6  7  1  0
  7  8  2  0
  8  9  1  0
  9 10  2  0
  3 11  1  0
 11 12  1  0
 12 13  2  0
 12 14  1  0
 14 15  1  0
 15 16  1  0
 16 17  2  0
 17 18  1  0
 18 19  2  0
 19 20  1  0
 20 21  1  0
 20 22  1  0
 20 23  1  0
 19 24  1  0
 24 25  2  0
 25 26  1  0
 14  2  1  0
 25 16  1  0
 10  5  1  0
  4 27  1  0
  6 28  1  0
  7 29  1  0
  8 30  1  0
  9 31  1  0
 15 32  1  0
 18 33  1  0
 24 34  1  0
M  END
$$$$
