
     RDKit          3D

 58 61  0  0  0  0  0  0  0  0999 V2000
    2.4917    0.1884    3.2817 S   0  0  0  0  0  0  0  0  0  0  0  0
    1.6372    0.3798    1.8535 C   0  0  0  0  0  0  0  0  0  0  0  0
    2.3375    0.7903    0.7526 N   0  0  0  0  0  0  0  0  0  0  0  0
    2.1016    0.3519   -0.6169 C   0  0  0  0  0  0  0  0  0  0  0  0
    3.1030   -0.7204   -1.0559 C   0  0  0  0  0  0  0  0  0  0  0  0
    4.5202   -0.1734   -1.2941 C   0  0  0  0  0  0  0  0  0  0  0  0
    5.1596    0.3708   -0.0862 N   0  0  0  0  0  0  0  0  0  0  0  0
    5.6464   -0.6861    0.8341 C   0  0  0  0  0  0  0  0  0  0  0  0
    7.1462   -0.9905    0.6873 C   0  0  0  0  0  0  0  0  0  0  0  0
    7.9835    0.1504    0.9202 O   0  0  0  0  0  0  0  0  0  0  0  0
    7.3205    1.3952    0.6609 C   0  0  0  0  0  0  0  0  0  0  0  0
    6.2759    1.2742   -0.4579 C   0  0  0  0  0  0  0  0  0  0  0  0
    0.2788    0.1583    1.6850 N   0  0  0  0  0  0  0  0  0  0  0  0
   -0.4959   -0.6163    2.6683 C   0  0  0  0  0  0  0  0  0  0  0  0
   -1.8117   -1.1642    2.0848 C   0  0  0  0  0  0  0  0  0  0  0  0
   -2.6013   -0.1026    1.4289 N   0  0  0  0  0  0  0  0  0  0  0  0
   -3.8956   -0.3771    1.0670 C   0  0  0  0  0  0  0  0  0  0  0  0
   -4.4551    0.0918   -0.0290 N   0  0  0  0  0  0  0  0  0  0  0  0
   -5.7792   -0.3051   -0.1467 C   0  0  0  0  0  0  0  0  0  0  0  0
   -6.5834    0.0961   -1.2999 C   0  0  0  0  0  0  0  0  0  0  0  0
   -5.9403    0.5758   -2.4516 C   0  0  0  0  0  0  0  0  0  0  0  0
   -6.6742    0.9676   -3.5741 C   0  0  0  0  0  0  0  0  0  0  0  0
   -8.0641    0.8889   -3.5587 C   0  0  0  0  0  0  0  0  0  0  0  0
   -8.7193    0.4223   -2.4217 C   0  0  0  0  0  0  0  0  0  0  0  0
   -7.9846    0.0296   -1.2981 C   0  0  0  0  0  0  0  0  0  0  0  0
   -6.2255   -1.0990    0.8880 C   0  0  0  0  0  0  0  0  0  0  0  0
   -4.9761   -1.3312    2.0314 S   0  0  0  0  0  0  0  0  0  0  0  0
   -1.8263    0.6835    0.4446 C   0  0  0  0  0  0  0  0  0  0  0  0
   -0.5274    1.2215    1.0610 C   0  0  0  0  0  0  0  0  0  0  0  0
    3.3260    0.9538    0.9479 H   0  0  0  0  0  0  0  0  0  0  0  0
    2.1747    1.2356   -1.2590 H   0  0  0  0  0  0  0  0  0  0  0  0
    1.0946   -0.0628   -0.7138 H   0  0  0  0  0  0  0  0  0  0  0  0
    2.7507   -1.1443   -2.0046 H   0  0  0  0  0  0  0  0  0  0  0  0
    3.1156   -1.5444   -0.3334 H   0  0  0  0  0  0  0  0  0  0  0  0
    5.1449   -0.9582   -1.7395 H   0  0  0  0  0  0  0  0  0  0  0  0
    4.4340    0.6192   -2.0495 H   0  0  0  0  0  0  0  0  0  0  0  0
    5.0687   -1.6110    0.7400 H   0  0  0  0  0  0  0  0  0  0  0  0
    5.4768   -0.3200    1.8533 H   0  0  0  0  0  0  0  0  0  0  0  0
    7.3664   -1.3744   -0.3157 H   0  0  0  0  0  0  0  0  0  0  0  0
    7.4436   -1.7632    1.4033 H   0  0  0  0  0  0  0  0  0  0  0  0
    8.0890    2.1231    0.3817 H   0  0  0  0  0  0  0  0  0  0  0  0
    6.8627    1.7464    1.5930 H   0  0  0  0  0  0  0  0  0  0  0  0
    5.8662    2.2636   -0.6888 H   0  0  0  0  0  0  0  0  0  0  0  0
    6.7851    0.9003   -1.3561 H   0  0  0  0  0  0  0  0  0  0  0  0
   -0.7086    0.0416    3.5202 H   0  0  0  0  0  0  0  0  0  0  0  0
    0.1046   -1.4577    3.0303 H   0  0  0  0  0  0  0  0  0  0  0  0
   -1.5842   -1.9472    1.3493 H   0  0  0  0  0  0  0  0  0  0  0  0
   -2.3611   -1.6298    2.9100 H   0  0  0  0  0  0  0  0  0  0  0  0
   -4.8545    0.6457   -2.4801 H   0  0  0  0  0  0  0  0  0  0  0  0
   -6.1580    1.3350   -4.4568 H   0  0  0  0  0  0  0  0  0  0  0  0
   -8.6363    1.1956   -4.4301 H   0  0  0  0  0  0  0  0  0  0  0  0
   -9.8049    0.3677   -2.4055 H   0  0  0  0  0  0  0  0  0  0  0  0
   -8.5309   -0.3131   -0.4243 H   0  0  0  0  0  0  0  0  0  0  0  0
   -7.1930   -1.5533    1.0378 H   0  0  0  0  0  0  0  0  0  0  0  0
   -2.4064    1.5439    0.0889 H   0  0  0  0  0  0  0  0  0  0  0  0
   -1.5882    0.0512   -0.4206 H   0  0  0  0  0  0  0  0  0  0  0  0
   -0.7634    1.9423    1.8550 H   0  0  0  0  0  0  0  0  0  0  0  0
    0.0439    1.7724    0.3090 H   0  0  0  0  0  0  0  0  0  0  0  0
  1  2  2  0
  2  3  1  0
  3  4  1  0
  4  5  1  0
  5  6  1  0
  6  7  1  0
  7  8  1  0
  8  9  1  0
  9 10  1  0
 10 11  1  0
 11 12  1  0
  2 13  1  0
 13 14  1  0
 14 15  1  0
 15 16  1  0
 16 17  1  0
 17 18  2  0
 18 19  1  0
 19 20  1  0
 20 21  2  0
 21 22  1  0
 22 23  2  0
 23 24  1  0
 24 25  2  0
 19 26  2  0
 26 27  1  0
 16 28  1  0
 28 29  1  0
 12  7  1  0
 29 13  1  0
 27 17  1  0
 25 20  1  0
  3 30  1  0
  4 31  1  0
  4 32  1  0
  5 33  1  0
  5 34  1  0
  6 35  1  0
  6 36  1  0
  8 37  1  0
  8 38  1  0
  9 39  1  0
  9 40  1  0
 11 41  1  0
 11 42  1  0
 12 43  1  0
 12 44  1  0
 14 45  1  0
 14 46  1  0
 15 47  1  0
 15 48  1  0
 21 49  1  0
 22 50  1  0
 23 51  1  0
 24 52  1  0
 25 53  1  0
 26 54  1  0
 28 55  1  0
 28 56  1  0
 29 57  1  0
 29 58  1  0
M  END
$$$$
