
     RDKit          3D

 33 34  0  0  0  0  0  0  0  0999 V2000
    6.8450    1.1039    0.5592 C   0  0  0  0  0  0  0  0  0  0  0  0
    5.7186    0.5041   -0.2700 C   0  0  0  0  0  0  0  0  0  0  0  0
    5.4870   -0.9604    0.0974 C   0  0  0  0  0  0  0  0  0  0  0  0
    4.1732   -1.7050   -0.9149 S   0  0  0  0  0  0  0  0  0  0  0  0
    2.7333   -1.0666   -0.1554 C   0  0  0  0  0  0  0  0  0  0  0  0
    2.7489   -0.4203    0.9908 N   0  0  0  0  0  0  0  0  0  0  0  0
    1.4828   -0.0249    1.3760 N   0  0  0  0  0  0  0  0  0  0  0  0
    0.5680   -0.3806    0.5001 C   0  0  0  0  0  0  0  0  0  0  0  0
   -0.7637   -0.1077    0.6947 N   0  0  0  0  0  0  0  0  0  0  0  0
   -1.7816   -0.2660   -0.2241 C   0  0  0  0  0  0  0  0  0  0  0  0
   -1.6315   -0.6156   -1.3864 O   0  0  0  0  0  0  0  0  0  0  0  0
   -3.0053    0.0311    0.3630 N   0  0  0  0  0  0  0  0  0  0  0  0
   -4.2716    0.0774   -0.2585 C   0  0  0  0  0  0  0  0  0  0  0  0
   -5.3844    0.2672    0.5727 C   0  0  0  0  0  0  0  0  0  0  0  0
   -6.6736    0.3329    0.0371 C   0  0  0  0  0  0  0  0  0  0  0  0
   -6.8629    0.2131   -1.3365 C   0  0  0  0  0  0  0  0  0  0  0  0
   -5.7634    0.0305   -2.1713 C   0  0  0  0  0  0  0  0  0  0  0  0
   -4.4729   -0.0352   -1.6352 C   0  0  0  0  0  0  0  0  0  0  0  0
    1.1721   -1.2477   -0.8352 S   0  0  0  0  0  0  0  0  0  0  0  0
    7.7833    0.5642    0.3956 H   0  0  0  0  0  0  0  0  0  0  0  0
    7.0029    2.1510    0.2825 H   0  0  0  0  0  0  0  0  0  0  0  0
    6.6080    1.0666    1.6273 H   0  0  0  0  0  0  0  0  0  0  0  0
    5.9785    0.5921   -1.3319 H   0  0  0  0  0  0  0  0  0  0  0  0
    4.8115    1.0967   -0.1057 H   0  0  0  0  0  0  0  0  0  0  0  0
    6.4022   -1.5317   -0.0934 H   0  0  0  0  0  0  0  0  0  0  0  0
    5.2593   -1.0745    1.1626 H   0  0  0  0  0  0  0  0  0  0  0  0
   -0.9421    0.4220    1.5324 H   0  0  0  0  0  0  0  0  0  0  0  0
   -3.0110    0.1105    1.3685 H   0  0  0  0  0  0  0  0  0  0  0  0
   -5.2676    0.3640    1.6487 H   0  0  0  0  0  0  0  0  0  0  0  0
   -7.5288    0.4771    0.6923 H   0  0  0  0  0  0  0  0  0  0  0  0
   -7.8637    0.2631   -1.7574 H   0  0  0  0  0  0  0  0  0  0  0  0
   -5.9044   -0.0610   -3.2455 H   0  0  0  0  0  0  0  0  0  0  0  0
   -3.6463   -0.1702   -2.3257 H   0  0  0  0  0  0  0  0  0  0  0  0
  1  2  1  0
  2  3  1  0
  3  4  1  0
  4  5  1  0
  5  6  2  0
  6  7  1  0
  7  8  2  0
  8  9  1  0
  9 10  1  0
 10 11  2  0
 10 12  1  0
 12 13  1  0
 13 14  2  0
 14 15  1  0
 15 16  2  0
 16 17  1  0
 17 18  2  0
  8 19  1  0
 19  5  1  0
 18 13  1  0
  1 20  1  0
  1 21  1  0
  1 22  1  0
  2 23  1  0
  2 24  1  0
  3 25  1  0
  3 26  1  0
  9 27  1  0
 12 28  1  0
 14 29  1  0
 15 30  1  0
 16 31  1  0
 17 32  1  0
 18 33  1  0
M  END
$$$$
