
     RDKit          3D

 62 65  0  0  0  0  0  0  0  0999 V2000
   -6.4875   -3.0930   -1.6162 C   0  0  0  0  0  0  0  0  0  0  0  0
   -5.1492   -2.6564   -1.4188 O   0  0  0  0  0  0  0  0  0  0  0  0
   -5.0043   -1.7400   -0.3356 C   0  0  0  0  0  0  0  0  0  0  0  0
   -5.4890   -0.3732   -0.7199 C   0  0  0  0  0  0  0  0  0  0  0  0
   -4.7487    0.7411   -0.8473 C   0  0  0  0  0  0  0  0  0  0  0  0
   -3.3050    0.8398   -0.7024 C   0  0  0  0  0  0  0  0  0  0  0  0
   -2.5232    0.2170   -1.6162 C   0  0  0  0  0  0  0  0  0  0  0  0
   -1.0681    0.3361   -1.5281 C   0  0  0  0  0  0  0  0  0  0  0  0
   -0.2920   -0.2688   -2.4383 C   0  0  0  0  0  0  0  0  0  0  0  0
    1.1827   -0.1285   -2.4282 C   0  0  0  0  0  0  0  0  0  0  0  0
    1.8316   -0.7691   -3.2614 O   0  0  0  0  0  0  0  0  0  0  0  0
    1.8388    0.8697   -1.4659 C   0  0  0  0  0  0  0  0  0  0  0  0
    2.0784    2.1557   -2.2742 C   0  0  0  0  0  0  0  0  0  0  0  0
    3.1426    0.4351   -1.0577 O   0  0  0  0  0  0  0  0  0  0  0  0
    3.1833   -0.7234   -0.3531 C   0  0  0  0  0  0  0  0  0  0  0  0
    2.2105   -1.3948   -0.0421 O   0  0  0  0  0  0  0  0  0  0  0  0
    4.5847   -1.0777   -0.0162 C   0  0  0  0  0  0  0  0  0  0  0  0
    4.8331   -2.2615    0.6552 C   0  0  0  0  0  0  0  0  0  0  0  0
    6.0870   -2.6541    0.9911 N   0  0  0  0  0  0  0  0  0  0  0  0
    7.0903   -1.8247    0.6346 C   0  0  0  0  0  0  0  0  0  0  0  0
    8.4036   -2.1599    0.9390 C   0  0  0  0  0  0  0  0  0  0  0  0
    9.4670   -1.3269    0.5861 C   0  0  0  0  0  0  0  0  0  0  0  0
    9.2138   -0.1358   -0.0808 C   0  0  0  0  0  0  0  0  0  0  0  0
    7.8996    0.2124   -0.3939 C   0  0  0  0  0  0  0  0  0  0  0  0
    6.8339   -0.6081   -0.0513 C   0  0  0  0  0  0  0  0  0  0  0  0
    5.5847   -0.2322   -0.3793 N   0  0  0  0  0  0  0  0  0  0  0  0
    0.9699    1.2636   -0.2718 C   0  0  0  0  0  0  0  0  0  0  0  0
    1.4450    1.7379    0.7623 O   0  0  0  0  0  0  0  0  0  0  0  0
   -0.4987    1.1134   -0.4366 C   0  0  0  0  0  0  0  0  0  0  0  0
   -1.3436    1.7027    0.4267 C   0  0  0  0  0  0  0  0  0  0  0  0
   -2.7437    1.6061    0.3496 N   0  0  0  0  0  0  0  0  0  0  0  0
   -3.5658    2.2275    1.4114 C   0  0  0  0  0  0  0  0  0  0  0  0
   -3.9762    1.2225    2.5059 C   0  0  0  0  0  0  0  0  0  0  0  0
   -4.9143    1.9051    3.5055 C   0  0  0  0  0  0  0  0  0  0  0  0
   -2.7765    0.6329    3.2497 C   0  0  0  0  0  0  0  0  0  0  0  0
   -6.4637   -3.9938   -2.2388 H   0  0  0  0  0  0  0  0  0  0  0  0
   -7.0600   -2.3260   -2.1482 H   0  0  0  0  0  0  0  0  0  0  0  0
   -6.9699   -3.3480   -0.6687 H   0  0  0  0  0  0  0  0  0  0  0  0
   -3.9433   -1.7299   -0.0642 H   0  0  0  0  0  0  0  0  0  0  0  0
   -5.5350   -2.1054    0.5508 H   0  0  0  0  0  0  0  0  0  0  0  0
   -6.5618   -0.2834   -0.8769 H   0  0  0  0  0  0  0  0  0  0  0  0
   -5.2458    1.6781   -1.0962 H   0  0  0  0  0  0  0  0  0  0  0  0
   -2.9583   -0.3619   -2.4263 H   0  0  0  0  0  0  0  0  0  0  0  0
   -0.6912   -0.8780   -3.2437 H   0  0  0  0  0  0  0  0  0  0  0  0
    2.5736    2.9192   -1.6624 H   0  0  0  0  0  0  0  0  0  0  0  0
    2.7371    1.9620   -3.1286 H   0  0  0  0  0  0  0  0  0  0  0  0
    1.1444    2.5816   -2.6578 H   0  0  0  0  0  0  0  0  0  0  0  0
    4.0353   -2.9370    0.9462 H   0  0  0  0  0  0  0  0  0  0  0  0
    8.6010   -3.0935    1.4611 H   0  0  0  0  0  0  0  0  0  0  0  0
   10.4861   -1.6120    0.8321 H   0  0  0  0  0  0  0  0  0  0  0  0
   10.0313    0.5219   -0.3616 H   0  0  0  0  0  0  0  0  0  0  0  0
    7.6984    1.1441   -0.9175 H   0  0  0  0  0  0  0  0  0  0  0  0
   -0.9785    2.2911    1.2656 H   0  0  0  0  0  0  0  0  0  0  0  0
   -4.4597    2.6835    0.9669 H   0  0  0  0  0  0  0  0  0  0  0  0
   -3.0199    3.0663    1.8663 H   0  0  0  0  0  0  0  0  0  0  0  0
   -4.5289    0.3925    2.0526 H   0  0  0  0  0  0  0  0  0  0  0  0
   -5.8080    2.2882    3.0004 H   0  0  0  0  0  0  0  0  0  0  0  0
   -4.4187    2.7399    4.0123 H   0  0  0  0  0  0  0  0  0  0  0  0
   -5.2479    1.1908    4.2688 H   0  0  0  0  0  0  0  0  0  0  0  0
   -2.1375    1.4160    3.6644 H   0  0  0  0  0  0  0  0  0  0  0  0
   -2.1690    0.0104    2.5886 H   0  0  0  0  0  0  0  0  0  0  0  0
   -3.1050   -0.0073    4.0760 H   0  0  0  0  0  0  0  0  0  0  0  0
  1  2  1  0
  2  3  1  0
  3  4  1  0
  4  5  2  3
  5  6  1  0
  6  7  2  0
  7  8  1  0
  8  9  2  0
  9 10  1  0
 10 11  2  0
 10 12  1  0
 12 13  1  0
 12 14  1  0
 14 15  1  0
 15 16  2  0
 15 17  1  0
 17 18  2  0
 18 19  1  0
 19 20  2  0
 20 21  1  0
 21 22  2  0
 22 23  1  0
 23 24  2  0
 24 25  1  0
 25 26  2  0
 12 27  1  0
 27 28  2  0
 27 29  1  0
 29 30  2  0
 30 31  1  0
 31 32  1  0
 32 33  1  0
 33 34  1  0
 33 35  1  0
 31  6  1  0
 29  8  1  0
 26 17  1  0
 25 20  1  0
  1 36  1  0
  1 37  1  0
  1 38  1  0
  3 39  1  0
  3 40  1  0
  4 41  1  0
  5 42  1  0
  7 43  1  0
  9 44  1  0
 13 45  1  0
 13 46  1  0
 13 47  1  0
 18 48  1  0
 21 49  1  0
 22 50  1  0
 23 51  1  0
 24 52  1  0
 30 53  1  0
 32 54  1  0
 32 55  1  0
 33 56  1  0
 34 57  1  0
 34 58  1  0
 34 59  1  0
 35 60  1  0
 35 61  1  0
 35 62  1  0
M  END
$$$$
