
     RDKit          3D

 43 44  0  0  0  0  0  0  0  0999 V2000
    6.4136    2.0634   -1.6133 C   0  0  0  0  0  0  0  0  0  0  0  0
    6.4798    0.5690   -1.3600 C   0  0  0  0  0  0  0  0  0  0  0  0
    5.1753   -0.0136   -1.4983 O   0  0  0  0  0  0  0  0  0  0  0  0
    4.3998   -0.0053   -0.3787 C   0  0  0  0  0  0  0  0  0  0  0  0
    4.7248    0.4538    0.7108 O   0  0  0  0  0  0  0  0  0  0  0  0
    3.0484   -0.6352   -0.6732 C   0  0  0  0  0  0  0  0  0  0  0  0
    2.2644   -0.7447    0.5475 N   0  0  0  0  0  0  0  0  0  0  0  0
    0.9820   -1.2350    0.5055 C   0  0  0  0  0  0  0  0  0  0  0  0
    0.4928   -1.7508   -0.4958 O   0  0  0  0  0  0  0  0  0  0  0  0
    0.2007   -1.1059    1.7987 C   0  0  0  0  0  0  0  0  0  0  0  0
   -0.0586    0.6324    2.2645 S   0  0  0  0  0  0  0  0  0  0  0  0
   -0.5859    1.3161    0.7575 C   0  0  0  0  0  0  0  0  0  0  0  0
    0.1611    2.1306    0.0466 N   0  0  0  0  0  0  0  0  0  0  0  0
   -0.4792    2.2775   -1.1509 N   0  0  0  0  0  0  0  0  0  0  0  0
   -1.5937    1.5637   -1.1878 N   0  0  0  0  0  0  0  0  0  0  0  0
   -1.7214    0.9785    0.0310 N   0  0  0  0  0  0  0  0  0  0  0  0
   -2.8861    0.2437    0.3882 C   0  0  0  0  0  0  0  0  0  0  0  0
   -3.3380    0.2905    1.7218 C   0  0  0  0  0  0  0  0  0  0  0  0
   -4.4975   -0.3884    2.1201 C   0  0  0  0  0  0  0  0  0  0  0  0
   -4.9510   -0.3435    3.5498 C   0  0  0  0  0  0  0  0  0  0  0  0
   -5.2022   -1.1350    1.1770 C   0  0  0  0  0  0  0  0  0  0  0  0
   -4.7727   -1.1800   -0.1497 C   0  0  0  0  0  0  0  0  0  0  0  0
   -3.6136   -0.5017   -0.5673 C   0  0  0  0  0  0  0  0  0  0  0  0
   -3.2080   -0.6488   -2.0116 C   0  0  0  0  0  0  0  0  0  0  0  0
    5.9922    2.2662   -2.6038 H   0  0  0  0  0  0  0  0  0  0  0  0
    5.7633    2.5576   -0.8839 H   0  0  0  0  0  0  0  0  0  0  0  0
    7.4097    2.5116   -1.5552 H   0  0  0  0  0  0  0  0  0  0  0  0
    6.9135    0.3473   -0.3780 H   0  0  0  0  0  0  0  0  0  0  0  0
    7.1226    0.0962   -2.1098 H   0  0  0  0  0  0  0  0  0  0  0  0
    2.5008   -0.0065   -1.3821 H   0  0  0  0  0  0  0  0  0  0  0  0
    3.1854   -1.6403   -1.0831 H   0  0  0  0  0  0  0  0  0  0  0  0
    2.5183   -0.1113    1.3024 H   0  0  0  0  0  0  0  0  0  0  0  0
   -0.7660   -1.6065    1.6842 H   0  0  0  0  0  0  0  0  0  0  0  0
    0.7471   -1.6171    2.5978 H   0  0  0  0  0  0  0  0  0  0  0  0
   -2.8354    0.9027    2.4674 H   0  0  0  0  0  0  0  0  0  0  0  0
   -6.0300   -0.5139    3.6259 H   0  0  0  0  0  0  0  0  0  0  0  0
   -4.7457    0.6370    3.9921 H   0  0  0  0  0  0  0  0  0  0  0  0
   -4.4315   -1.1116    4.1309 H   0  0  0  0  0  0  0  0  0  0  0  0
   -6.0986   -1.6811    1.4632 H   0  0  0  0  0  0  0  0  0  0  0  0
   -5.3512   -1.7654   -0.8631 H   0  0  0  0  0  0  0  0  0  0  0  0
   -2.1438   -0.8900   -2.0962 H   0  0  0  0  0  0  0  0  0  0  0  0
   -3.4373    0.2647   -2.5687 H   0  0  0  0  0  0  0  0  0  0  0  0
   -3.7482   -1.4710   -2.4944 H   0  0  0  0  0  0  0  0  0  0  0  0
  1  2  1  0
  2  3  1  0
  3  4  1  0
  4  5  2  0
  4  6  1  0
  6  7  1  0
  7  8  1  0
  8  9  2  0
  8 10  1  0
 10 11  1  0
 11 12  1  0
 12 13  2  0
 13 14  1  0
 14 15  2  0
 15 16  1  0
 16 17  1  0
 17 18  2  0
 18 19  1  0
 19 20  1  0
 19 21  2  0
 21 22  1  0
 22 23  2  0
 23 24  1  0
 16 12  1  0
 23 17  1  0
  1 25  1  0
  1 26  1  0
  1 27  1  0
  2 28  1  0
  2 29  1  0
  6 30  1  0
  6 31  1  0
  7 32  1  0
 10 33  1  0
 10 34  1  0
 18 35  1  0
 20 36  1  0
 20 37  1  0
 20 38  1  0
 21 39  1  0
 22 40  1  0
 24 41  1  0
 24 42  1  0
 24 43  1  0
M  END
$$$$
