
     RDKit          3D

 46 49  0  0  0  0  0  0  0  0999 V2000
   -3.5176   -1.2609   -1.8308 O   0  0  0  0  0  0  0  0  0  0  0  0
   -3.5280   -0.5275   -0.8479 C   0  0  0  0  0  0  0  0  0  0  0  0
   -2.4192   -0.1394   -0.1188 N   0  0  0  0  0  0  0  0  0  0  0  0
   -1.0720   -0.4957   -0.3422 C   0  0  0  0  0  0  0  0  0  0  0  0
   -0.6394   -1.3295   -1.3753 C   0  0  0  0  0  0  0  0  0  0  0  0
    0.7213   -1.6320   -1.5254 C   0  0  0  0  0  0  0  0  0  0  0  0
    1.6703   -1.1106   -0.6478 C   0  0  0  0  0  0  0  0  0  0  0  0
    3.0189   -1.4294   -0.8364 N   0  0  0  0  0  0  0  0  0  0  0  0
    3.8861   -0.9597    0.0016 C   0  0  0  0  0  0  0  0  0  0  0  0
    3.5595   -0.1567    1.0807 N   0  0  0  0  0  0  0  0  0  0  0  0
    2.2507    0.2598    1.2988 C   0  0  0  0  0  0  0  0  0  0  0  0
    1.9084    1.0401    2.1838 O   0  0  0  0  0  0  0  0  0  0  0  0
    1.2354   -0.2824    0.3802 C   0  0  0  0  0  0  0  0  0  0  0  0
   -0.1218    0.0298    0.5394 C   0  0  0  0  0  0  0  0  0  0  0  0
    4.6006    0.3663    1.9584 C   0  0  0  0  0  0  0  0  0  0  0  0
    5.4083    1.4847    1.3012 C   0  0  0  0  0  0  0  0  0  0  0  0
    5.7096    1.2898   -0.1855 C   0  0  0  0  0  0  0  0  0  0  0  0
    6.2304   -0.0927   -0.5779 C   0  0  0  0  0  0  0  0  0  0  0  0
    5.3521   -1.2938   -0.2162 C   0  0  0  0  0  0  0  0  0  0  0  0
   -4.8530   -0.0026   -0.3919 C   0  0  0  0  0  0  0  0  0  0  0  0
   -6.0030   -0.3857   -1.1060 C   0  0  0  0  0  0  0  0  0  0  0  0
   -7.2642    0.0857   -0.7117 C   0  0  0  0  0  0  0  0  0  0  0  0
   -8.4628   -0.3167   -1.4615 N   0  0  0  0  0  4  0  0  0  0  0  0
   -8.3147   -1.0990   -2.4095 O   0  0  0  0  0  0  0  0  0  0  0  0
   -9.5500    0.1530   -1.0970 O   0  0  0  0  0  1  0  0  0  0  0  0
   -7.3934    0.9388    0.3927 C   0  0  0  0  0  0  0  0  0  0  0  0
   -6.2534    1.3178    1.1014 C   0  0  0  0  0  0  0  0  0  0  0  0
   -4.9991    0.8493    0.7078 C   0  0  0  0  0  0  0  0  0  0  0  0
   -3.9339    1.2457    1.4208 F   0  0  0  0  0  0  0  0  0  0  0  0
   -2.5771    0.4769    0.6727 H   0  0  0  0  0  0  0  0  0  0  0  0
   -1.3322   -1.7651   -2.0889 H   0  0  0  0  0  0  0  0  0  0  0  0
    1.0408   -2.2809   -2.3373 H   0  0  0  0  0  0  0  0  0  0  0  0
   -0.4203    0.6834    1.3556 H   0  0  0  0  0  0  0  0  0  0  0  0
    4.1668    0.7381    2.8937 H   0  0  0  0  0  0  0  0  0  0  0  0
    5.2663   -0.4532    2.2484 H   0  0  0  0  0  0  0  0  0  0  0  0
    4.8593    2.4290    1.4086 H   0  0  0  0  0  0  0  0  0  0  0  0
    6.3464    1.6120    1.8550 H   0  0  0  0  0  0  0  0  0  0  0  0
    4.8066    1.5112   -0.7690 H   0  0  0  0  0  0  0  0  0  0  0  0
    6.4462    2.0433   -0.4916 H   0  0  0  0  0  0  0  0  0  0  0  0
    7.2278   -0.2441   -0.1461 H   0  0  0  0  0  0  0  0  0  0  0  0
    6.3767   -0.0929   -1.6660 H   0  0  0  0  0  0  0  0  0  0  0  0
    5.7372   -1.7853    0.6843 H   0  0  0  0  0  0  0  0  0  0  0  0
    5.4328   -2.0465   -1.0106 H   0  0  0  0  0  0  0  0  0  0  0  0
   -5.9048   -1.0501   -1.9652 H   0  0  0  0  0  0  0  0  0  0  0  0
   -8.3657    1.3123    0.7106 H   0  0  0  0  0  0  0  0  0  0  0  0
   -6.3330    1.9786    1.9610 H   0  0  0  0  0  0  0  0  0  0  0  0
  1  2  2  0
  2  3  1  0
  3  4  1  0
  4  5  2  0
  5  6  1  0
  6  7  2  0
  7  8  1  0
  8  9  2  0
  9 10  1  0
 10 11  1  0
 11 12  2  0
 11 13  1  0
 13 14  2  0
 10 15  1  0
 15 16  1  0
 16 17  1  0
 17 18  1  0
 18 19  1  0
  2 20  1  0
 20 21  2  0
 21 22  1  0
 22 23  1  0
 23 24  2  0
 23 25  1  0
 22 26  2  0
 26 27  1  0
 27 28  2  0
 28 29  1  0
 14  4  1  0
 28 20  1  0
 13  7  1  0
 19  9  1  0
  3 30  1  0
  5 31  1  0
  6 32  1  0
 14 33  1  0
 15 34  1  0
 15 35  1  0
 16 36  1  0
 16 37  1  0
 17 38  1  0
 17 39  1  0
 18 40  1  0
 18 41  1  0
 19 42  1  0
 19 43  1  0
 21 44  1  0
 26 45  1  0
 27 46  1  0
M  CHG  2  23   1  25  -1
M  END
$$$$
