
     RDKit          3D

 51 55  0  0  0  0  0  0  0  0999 V2000
   -1.4209    2.0845    1.2315 C   0  0  0  0  0  0  0  0  0  0  0  0
   -0.0241    2.1783    1.2811 C   0  0  0  0  0  0  0  0  0  0  0  0
    0.7308    1.1859    0.6394 C   0  0  0  0  0  0  0  0  0  0  0  0
    0.1173    0.1237   -0.0267 C   0  0  0  0  0  0  0  0  0  0  0  0
   -1.2935    0.0552   -0.0583 C   0  0  0  0  0  0  0  0  0  0  0  0
   -2.0767    1.0367    0.5687 C   0  0  0  0  0  0  0  0  0  0  0  0
   -3.6008    1.0072    0.5619 C   0  0  0  0  0  0  0  0  0  0  0  0
   -4.1969   -0.1810    1.3391 C   0  0  0  0  0  0  0  0  0  0  0  0
   -4.3767   -1.4584    0.5226 C   0  0  0  0  0  0  0  0  0  0  0  0
   -5.0976   -1.1968   -0.7935 C   0  0  0  0  0  0  0  0  0  0  0  0
   -4.3987   -0.1262   -1.6215 C   0  0  0  0  0  0  0  0  0  0  0  0
   -4.2158    1.1727   -0.8402 C   0  0  0  0  0  0  0  0  0  0  0  0
    1.1519   -0.7026   -0.5404 C   0  0  0  0  0  0  0  0  0  0  0  0
    2.3635   -0.1385   -0.1807 C   0  0  0  0  0  0  0  0  0  0  0  0
    2.1019    1.0149    0.5183 N   0  0  0  0  0  0  0  0  0  0  0  0
    3.0841    1.9170    1.1018 C   0  0  0  0  0  0  0  0  0  0  0  0
    4.4427    1.9300    0.4137 C   0  0  0  0  0  0  0  0  0  0  0  0
    5.2882    0.6916    0.7160 C   0  0  0  0  0  0  0  0  0  0  0  0
    4.6388   -0.6068    0.5861 N   0  0  0  0  0  0  0  0  0  0  0  0
    3.7097   -0.6968   -0.5339 C   0  0  0  0  0  0  0  0  0  0  0  0
    3.5502   -2.1906   -0.9160 C   0  0  0  0  0  0  0  0  0  0  0  0
    2.3920   -2.3964   -1.9080 C   0  0  0  0  0  0  0  0  0  0  0  0
    1.0417   -1.9847   -1.2978 C   0  0  0  0  0  0  0  0  0  0  0  0
   -1.9998    2.8599    1.7309 H   0  0  0  0  0  0  0  0  0  0  0  0
    0.4460    3.0023    1.8070 H   0  0  0  0  0  0  0  0  0  0  0  0
   -1.7479   -0.7784   -0.5781 H   0  0  0  0  0  0  0  0  0  0  0  0
   -3.9149    1.9021    1.1198 H   0  0  0  0  0  0  0  0  0  0  0  0
   -5.1914    0.1192    1.6972 H   0  0  0  0  0  0  0  0  0  0  0  0
   -3.6036   -0.3971    2.2360 H   0  0  0  0  0  0  0  0  0  0  0  0
   -4.9517   -2.1831    1.1113 H   0  0  0  0  0  0  0  0  0  0  0  0
   -3.4069   -1.9272    0.3293 H   0  0  0  0  0  0  0  0  0  0  0  0
   -6.1284   -0.8828   -0.5878 H   0  0  0  0  0  0  0  0  0  0  0  0
   -5.1589   -2.1265   -1.3705 H   0  0  0  0  0  0  0  0  0  0  0  0
   -4.9902    0.0768   -2.5223 H   0  0  0  0  0  0  0  0  0  0  0  0
   -3.4319   -0.4995   -1.9728 H   0  0  0  0  0  0  0  0  0  0  0  0
   -3.6345    1.8845   -1.4391 H   0  0  0  0  0  0  0  0  0  0  0  0
   -5.2114    1.6209   -0.7169 H   0  0  0  0  0  0  0  0  0  0  0  0
    3.1731    1.6505    2.1611 H   0  0  0  0  0  0  0  0  0  0  0  0
    2.6661    2.9278    1.0368 H   0  0  0  0  0  0  0  0  0  0  0  0
    5.0019    2.8094    0.7570 H   0  0  0  0  0  0  0  0  0  0  0  0
    4.3171    2.0519   -0.6695 H   0  0  0  0  0  0  0  0  0  0  0  0
    5.6825    0.7684    1.7366 H   0  0  0  0  0  0  0  0  0  0  0  0
    6.1663    0.7071    0.0590 H   0  0  0  0  0  0  0  0  0  0  0  0
    4.1374   -0.8513    1.4398 H   0  0  0  0  0  0  0  0  0  0  0  0
    4.1027   -0.1770   -1.4175 H   0  0  0  0  0  0  0  0  0  0  0  0
    4.4833   -2.5587   -1.3602 H   0  0  0  0  0  0  0  0  0  0  0  0
    3.3590   -2.8025   -0.0232 H   0  0  0  0  0  0  0  0  0  0  0  0
    2.3466   -3.4459   -2.2198 H   0  0  0  0  0  0  0  0  0  0  0  0
    2.5838   -1.8021   -2.8106 H   0  0  0  0  0  0  0  0  0  0  0  0
    0.7025   -2.7686   -0.6094 H   0  0  0  0  0  0  0  0  0  0  0  0
    0.2919   -1.8990   -2.0922 H   0  0  0  0  0  0  0  0  0  0  0  0
  1  2  2  0
  2  3  1  0
  3  4  2  0
  4  5  1  0
  5  6  2  0
  6  7  1  0
  7  8  1  0
  8  9  1  0
  9 10  1  0
 10 11  1  0
 11 12  1  0
  4 13  1  0
 13 14  2  0
 14 15  1  0
 15 16  1  0
 16 17  1  0
 17 18  1  0
 18 19  1  0
 19 20  1  0
 20 21  1  0
 21 22  1  0
 22 23  1  0
  6  1  1  0
 12  7  1  0
 23 13  1  0
 15  3  1  0
 20 14  1  0
  1 24  1  0
  2 25  1  0
  5 26  1  0
  7 27  1  0
  8 28  1  0
  8 29  1  0
  9 30  1  0
  9 31  1  0
 10 32  1  0
 10 33  1  0
 11 34  1  0
 11 35  1  0
 12 36  1  0
 12 37  1  0
 16 38  1  0
 16 39  1  0
 17 40  1  0
 17 41  1  0
 18 42  1  0
 18 43  1  0
 19 44  1  0
 20 45  1  0
 21 46  1  0
 21 47  1  0
 22 48  1  0
 22 49  1  0
 23 50  1  0
 23 51  1  0
M  END
$$$$
