
     RDKit          3D

 43 45  0  0  0  0  0  0  0  0999 V2000
    3.3355   -0.9025   -1.6033 O   0  0  0  0  0  0  0  0  0  0  0  0
    3.0659   -0.1326   -0.6770 C   0  0  0  0  0  0  0  0  0  0  0  0
    4.1682    0.4067    0.2701 C   0  0  0  0  0  0  0  0  0  0  0  0
    5.5345   -0.2132    0.0091 C   0  0  0  0  0  0  0  0  0  0  0  0
    6.1290    0.7290   -1.0077 C   0  0  0  0  0  0  0  0  0  0  0  0
    5.5937    2.0668   -0.5510 C   0  0  0  0  0  0  0  0  0  0  0  0
    4.3386    1.8234    0.1026 O   0  0  0  0  0  0  0  0  0  0  0  0
    1.7571    0.2670   -0.4250 N   0  0  0  0  0  0  0  0  0  0  0  0
    1.3624    1.1371    0.6871 C   0  0  0  0  0  0  0  0  0  0  0  0
   -0.1034    1.5921    0.6263 C   0  0  0  0  0  0  0  0  0  0  0  0
   -1.0498    0.4745    0.4224 N   0  0  0  0  0  0  0  0  0  0  0  0
   -2.4034    0.5488    0.8252 C   0  0  0  0  0  0  0  0  0  0  0  0
   -3.1023    1.9407    1.4605 S   0  0  0  0  0  0  0  0  0  0  0  0
   -3.0542   -0.6733    0.6916 N   0  0  0  0  0  0  0  0  0  0  0  0
   -4.4264   -0.9881    0.5889 C   0  0  0  0  0  0  0  0  0  0  0  0
   -5.3998   -0.0938    0.1324 C   0  0  0  0  0  0  0  0  0  0  0  0
   -6.7347   -0.4958    0.0160 C   0  0  0  0  0  0  0  0  0  0  0  0
   -7.0916   -1.7973    0.3422 C   0  0  0  0  0  0  0  0  0  0  0  0
   -8.3683   -2.1833    0.2205 F   0  0  0  0  0  0  0  0  0  0  0  0
   -6.1375   -2.7086    0.7762 C   0  0  0  0  0  0  0  0  0  0  0  0
   -4.8045   -2.3059    0.8899 C   0  0  0  0  0  0  0  0  0  0  0  0
   -0.5670   -0.5989   -0.4715 C   0  0  0  0  0  0  0  0  0  0  0  0
    0.6774   -0.2170   -1.2833 C   0  0  0  0  0  0  0  0  0  0  0  0
    3.8603    0.2014    1.3008 H   0  0  0  0  0  0  0  0  0  0  0  0
    5.5064   -1.2522   -0.3296 H   0  0  0  0  0  0  0  0  0  0  0  0
    6.1348   -0.1762    0.9275 H   0  0  0  0  0  0  0  0  0  0  0  0
    5.7470    0.4942   -2.0083 H   0  0  0  0  0  0  0  0  0  0  0  0
    7.2214    0.6989   -1.0476 H   0  0  0  0  0  0  0  0  0  0  0  0
    5.4474    2.7643   -1.3817 H   0  0  0  0  0  0  0  0  0  0  0  0
    6.2644    2.5312    0.1810 H   0  0  0  0  0  0  0  0  0  0  0  0
    1.5293    0.5661    1.6079 H   0  0  0  0  0  0  0  0  0  0  0  0
    2.0092    2.0172    0.7152 H   0  0  0  0  0  0  0  0  0  0  0  0
   -0.2469    2.2846   -0.2116 H   0  0  0  0  0  0  0  0  0  0  0  0
   -0.3347    2.1295    1.5503 H   0  0  0  0  0  0  0  0  0  0  0  0
   -2.4527   -1.4629    0.8868 H   0  0  0  0  0  0  0  0  0  0  0  0
   -5.1479    0.9157   -0.1762 H   0  0  0  0  0  0  0  0  0  0  0  0
   -7.4905    0.1988   -0.3379 H   0  0  0  0  0  0  0  0  0  0  0  0
   -6.4343   -3.7246    1.0187 H   0  0  0  0  0  0  0  0  0  0  0  0
   -4.0718   -3.0315    1.2280 H   0  0  0  0  0  0  0  0  0  0  0  0
   -0.3335   -1.4566    0.1702 H   0  0  0  0  0  0  0  0  0  0  0  0
   -1.3689   -0.8933   -1.1571 H   0  0  0  0  0  0  0  0  0  0  0  0
    0.4383    0.5953   -1.9805 H   0  0  0  0  0  0  0  0  0  0  0  0
    1.0035   -1.0756   -1.8787 H   0  0  0  0  0  0  0  0  0  0  0  0
  1  2  2  0
  2  3  1  0
  3  4  1  0
  4  5  1  0
  5  6  1  0
  6  7  1  0
  2  8  1  0
  8  9  1  0
  9 10  1  0
 10 11  1  0
 11 12  1  0
 12 13  2  0
 12 14  1  0
 14 15  1  0
 15 16  2  0
 16 17  1  0
 17 18  2  0
 18 19  1  0
 18 20  1  0
 20 21  2  0
 11 22  1  0
 22 23  1  0
  7  3  1  0
 23  8  1  0
 21 15  1  0
  3 24  1  0
  4 25  1  0
  4 26  1  0
  5 27  1  0
  5 28  1  0
  6 29  1  0
  6 30  1  0
  9 31  1  0
  9 32  1  0
 10 33  1  0
 10 34  1  0
 14 35  1  0
 16 36  1  0
 17 37  1  0
 20 38  1  0
 21 39  1  0
 22 40  1  0
 22 41  1  0
 23 42  1  0
 23 43  1  0
M  END
$$$$
