
     RDKit          3D

 57 60  0  0  0  0  0  0  0  0999 V2000
   -2.4471    6.3889   -0.3210 C   0  0  0  0  0  0  0  0  0  0  0  0
   -2.0692    4.9558    0.0476 C   0  0  0  0  0  0  0  0  0  0  0  0
   -0.6956    4.5802   -0.5459 C   0  0  0  0  0  0  0  0  0  0  0  0
   -0.2415    3.1791   -0.1028 C   0  0  0  0  0  0  0  0  0  0  0  0
   -1.3503    2.1699   -0.1841 C   0  0  0  0  0  0  0  0  0  0  0  0
   -2.6724    2.5578   -0.3092 C   0  0  0  0  0  0  0  0  0  0  0  0
   -3.7428    1.2391   -0.3393 S   0  0  0  0  0  0  0  0  0  0  0  0
   -2.4661    0.1260   -0.1522 C   0  0  0  0  0  0  0  0  0  0  0  0
   -2.7266   -1.1874   -0.0795 N   0  0  0  0  0  0  0  0  0  0  0  0
   -1.6338   -1.9435    0.0690 C   0  0  0  0  0  0  0  0  0  0  0  0
   -1.8363   -3.4529    0.2121 C   0  0  0  0  0  0  0  0  0  0  0  0
   -2.9923   -3.9357   -0.6854 C   0  0  0  0  0  0  0  0  0  0  0  0
   -0.5674   -4.2304   -0.1924 C   0  0  0  0  0  0  0  0  0  0  0  0
   -2.1673   -3.7609    1.6814 C   0  0  0  0  0  0  0  0  0  0  0  0
   -0.3751   -1.4726    0.1684 N   0  0  0  0  0  0  0  0  0  0  0  0
   -0.1305   -0.1433    0.0733 C   0  0  0  0  0  0  0  0  0  0  0  0
    1.2033    0.3141    0.1291 N   0  0  0  0  0  0  0  0  0  0  0  0
    1.8119    0.1544   -1.2179 C   0  0  0  0  0  0  0  0  0  0  0  0
    3.3440    0.0508   -1.1372 C   0  0  0  0  0  0  0  0  0  0  0  0
    3.7759   -1.0931   -0.3227 N   0  0  0  0  0  0  0  0  0  0  0  0
    4.9454   -1.7553   -0.6671 C   0  0  0  0  0  0  0  0  0  0  0  0
    5.6720   -1.3469   -1.5782 O   0  0  0  0  0  0  0  0  0  0  0  0
    5.3450   -2.9916    0.1167 C   0  0  0  0  0  0  0  0  0  0  0  0
    4.3307   -4.3657   -0.3585 Cl  0  0  0  0  0  0  0  0  0  0  0  0
    2.8437   -1.5063    0.7392 C   0  0  0  0  0  0  0  0  0  0  0  0
    1.9557   -0.3451    1.2233 C   0  0  0  0  0  0  0  0  0  0  0  0
   -1.2220    0.7326   -0.0891 C   0  0  0  0  0  0  0  0  0  0  0  0
   -3.1578    3.9700   -0.4287 C   0  0  0  0  0  0  0  0  0  0  0  0
   -3.4143    6.6591    0.1155 H   0  0  0  0  0  0  0  0  0  0  0  0
   -1.7000    7.0955    0.0556 H   0  0  0  0  0  0  0  0  0  0  0  0
   -2.5166    6.5167   -1.4067 H   0  0  0  0  0  0  0  0  0  0  0  0
   -1.9958    4.8950    1.1424 H   0  0  0  0  0  0  0  0  0  0  0  0
    0.0642    5.3125   -0.2479 H   0  0  0  0  0  0  0  0  0  0  0  0
   -0.7533    4.6115   -1.6424 H   0  0  0  0  0  0  0  0  0  0  0  0
    0.1115    3.2245    0.9348 H   0  0  0  0  0  0  0  0  0  0  0  0
    0.6049    2.8779   -0.7266 H   0  0  0  0  0  0  0  0  0  0  0  0
   -2.8085   -3.6857   -1.7371 H   0  0  0  0  0  0  0  0  0  0  0  0
   -3.9479   -3.4809   -0.3999 H   0  0  0  0  0  0  0  0  0  0  0  0
   -3.1187   -5.0224   -0.6171 H   0  0  0  0  0  0  0  0  0  0  0  0
   -0.7311   -5.3129   -0.1331 H   0  0  0  0  0  0  0  0  0  0  0  0
   -0.2670   -3.9939   -1.2202 H   0  0  0  0  0  0  0  0  0  0  0  0
    0.2795   -3.9958    0.4635 H   0  0  0  0  0  0  0  0  0  0  0  0
   -2.3190   -4.8353    1.8363 H   0  0  0  0  0  0  0  0  0  0  0  0
   -3.0807   -3.2465    2.0030 H   0  0  0  0  0  0  0  0  0  0  0  0
   -1.3590   -3.4384    2.3486 H   0  0  0  0  0  0  0  0  0  0  0  0
    1.5415    1.0157   -1.8394 H   0  0  0  0  0  0  0  0  0  0  0  0
    1.4379   -0.7474   -1.7238 H   0  0  0  0  0  0  0  0  0  0  0  0
    3.7614    0.9501   -0.6680 H   0  0  0  0  0  0  0  0  0  0  0  0
    3.7609   -0.0213   -2.1478 H   0  0  0  0  0  0  0  0  0  0  0  0
    6.3844   -3.2427   -0.1171 H   0  0  0  0  0  0  0  0  0  0  0  0
    5.2756   -2.8290    1.1940 H   0  0  0  0  0  0  0  0  0  0  0  0
    3.4027   -1.9084    1.5877 H   0  0  0  0  0  0  0  0  0  0  0  0
    2.2291   -2.3137    0.3285 H   0  0  0  0  0  0  0  0  0  0  0  0
    1.2986   -0.6802    2.0369 H   0  0  0  0  0  0  0  0  0  0  0  0
    2.6053    0.4222    1.6648 H   0  0  0  0  0  0  0  0  0  0  0  0
   -3.4099    4.1658   -1.4789 H   0  0  0  0  0  0  0  0  0  0  0  0
   -4.0693    4.1198    0.1625 H   0  0  0  0  0  0  0  0  0  0  0  0
  1  2  1  0
  2  3  1  0
  3  4  1  0
  4  5  1  0
  5  6  2  0
  6  7  1  0
  7  8  1  0
  8  9  2  0
  9 10  1  0
 10 11  1  0
 11 12  1  0
 11 13  1  0
 11 14  1  0
 10 15  2  0
 15 16  1  0
 16 17  1  0
 17 18  1  0
 18 19  1  0
 19 20  1  0
 20 21  1  0
 21 22  2  0
 21 23  1  0
 23 24  1  0
 20 25  1  0
 25 26  1  0
 16 27  2  0
  6 28  1  0
 28  2  1  0
 27  5  1  0
 27  8  1  0
 26 17  1  0
  1 29  1  0
  1 30  1  0
  1 31  1  0
  2 32  1  0
  3 33  1  0
  3 34  1  0
  4 35  1  0
  4 36  1  0
 12 37  1  0
 12 38  1  0
 12 39  1  0
 13 40  1  0
 13 41  1  0
 13 42  1  0
 14 43  1  0
 14 44  1  0
 14 45  1  0
 18 46  1  0
 18 47  1  0
 19 48  1  0
 19 49  1  0
 23 50  1  0
 23 51  1  0
 25 52  1  0
 25 53  1  0
 26 54  1  0
 26 55  1  0
 28 56  1  0
 28 57  1  0
M  END
$$$$
