
     RDKit          3D

 65 69  0  0  0  0  0  0  0  0999 V2000
   -4.8552    5.4830    2.3494 C   0  0  0  0  0  0  0  0  0  0  0  0
   -4.4628    4.3215    1.4534 C   0  0  0  0  0  0  0  0  0  0  0  0
   -3.2252    3.7972    1.9305 O   0  0  0  0  0  0  0  0  0  0  0  0
   -2.7322    2.6926    1.2939 C   0  0  0  0  0  0  0  0  0  0  0  0
   -3.2386    2.1218    0.1300 C   0  0  0  0  0  0  0  0  0  0  0  0
   -2.6298    0.9880   -0.4208 C   0  0  0  0  0  0  0  0  0  0  0  0
   -1.5026    0.4011    0.1791 C   0  0  0  0  0  0  0  0  0  0  0  0
   -0.8933   -0.8434   -0.4649 C   0  0  0  0  0  0  0  0  0  0  0  0
    0.6260   -0.7977   -0.7557 C   0  0  0  0  0  0  0  0  0  0  0  0
    1.0810    0.5337   -1.2829 C   0  0  0  0  0  0  0  0  0  0  0  0
    0.3788    1.1798   -2.0627 O   0  0  0  0  0  0  0  0  0  0  0  0
    2.4204    1.0800   -0.9703 C   0  0  0  0  0  0  0  0  0  0  0  0
    2.5111    2.4491   -0.6401 C   0  0  0  0  0  0  0  0  0  0  0  0
    3.7515    3.0303   -0.3664 C   0  0  0  0  0  0  0  0  0  0  0  0
    4.8708    2.2283   -0.4525 C   0  0  0  0  0  0  0  0  0  0  0  0
    4.7912    0.8866   -0.7944 C   0  0  0  0  0  0  0  0  0  0  0  0
    3.5718    0.2890   -1.0671 C   0  0  0  0  0  0  0  0  0  0  0  0
    6.1433    0.2864   -0.7368 C   0  0  0  0  0  0  0  0  0  0  0  0
    6.9832    1.5728   -0.6788 C   0  0  0  0  0  0  0  0  0  0  0  0
    8.1896    1.4406    0.2366 C   0  0  0  0  0  0  0  0  0  0  0  0
    6.1466    2.6598   -0.2022 O   0  0  0  0  0  0  0  0  0  0  0  0
    1.1491   -1.3648    0.5235 C   0  0  0  0  0  0  0  0  0  0  0  0
    2.2635   -1.2701    0.9949 O   0  0  0  0  0  0  0  0  0  0  0  0
    0.0550   -2.2223    1.1556 C   0  0  0  0  0  0  0  0  0  0  0  0
    0.2085   -2.9368    2.1217 O   0  0  0  0  0  0  0  0  0  0  0  0
   -1.0780   -2.0169    0.3932 N   0  0  0  0  0  0  0  0  0  0  0  0
   -2.4080   -2.4417    0.8160 C   0  0  0  0  0  0  0  0  0  0  0  0
   -2.5414   -3.9381    1.1176 C   0  0  0  0  0  0  0  0  0  0  0  0
   -2.0704   -4.8586   -0.0081 C   0  0  0  0  0  0  0  0  0  0  0  0
   -2.7436   -4.6315   -1.2686 N   0  0  0  0  0  0  0  0  0  0  0  0
   -4.0462   -4.9237   -1.5585 C   0  0  0  0  0  0  0  0  0  0  0  0
   -4.2184   -4.5136   -2.8602 C   0  0  0  0  0  0  0  0  0  0  0  0
   -3.0541   -3.9933   -3.3641 N   0  0  0  0  0  0  0  0  0  0  0  0
   -2.1789   -4.0965   -2.3905 C   0  0  0  0  0  0  0  0  0  0  0  0
   -1.0028    0.9850    1.3529 C   0  0  0  0  0  0  0  0  0  0  0  0
   -1.6112    2.1215    1.8959 C   0  0  0  0  0  0  0  0  0  0  0  0
   -5.8185    5.9017    2.0462 H   0  0  0  0  0  0  0  0  0  0  0  0
   -4.9225    5.1612    3.3937 H   0  0  0  0  0  0  0  0  0  0  0  0
   -4.0975    6.2719    2.3079 H   0  0  0  0  0  0  0  0  0  0  0  0
   -4.3535    4.6847    0.4255 H   0  0  0  0  0  0  0  0  0  0  0  0
   -5.2440    3.5544    1.5008 H   0  0  0  0  0  0  0  0  0  0  0  0
   -4.0984    2.5371   -0.3845 H   0  0  0  0  0  0  0  0  0  0  0  0
   -3.0441    0.5737   -1.3393 H   0  0  0  0  0  0  0  0  0  0  0  0
   -1.4163   -1.0524   -1.4077 H   0  0  0  0  0  0  0  0  0  0  0  0
    0.8635   -1.5446   -1.5264 H   0  0  0  0  0  0  0  0  0  0  0  0
    1.6112    3.0613   -0.5994 H   0  0  0  0  0  0  0  0  0  0  0  0
    3.8384    4.0810   -0.1075 H   0  0  0  0  0  0  0  0  0  0  0  0
    3.5268   -0.7613   -1.3328 H   0  0  0  0  0  0  0  0  0  0  0  0
    6.2471   -0.3203    0.1689 H   0  0  0  0  0  0  0  0  0  0  0  0
    6.3895   -0.3139   -1.6167 H   0  0  0  0  0  0  0  0  0  0  0  0
    7.3222    1.8467   -1.6876 H   0  0  0  0  0  0  0  0  0  0  0  0
    8.8601    0.6460   -0.1050 H   0  0  0  0  0  0  0  0  0  0  0  0
    8.7479    2.3821    0.2698 H   0  0  0  0  0  0  0  0  0  0  0  0
    7.8798    1.2224    1.2644 H   0  0  0  0  0  0  0  0  0  0  0  0
   -2.6724   -1.8698    1.7132 H   0  0  0  0  0  0  0  0  0  0  0  0
   -3.1169   -2.1707    0.0258 H   0  0  0  0  0  0  0  0  0  0  0  0
   -1.9824   -4.1897    2.0269 H   0  0  0  0  0  0  0  0  0  0  0  0
   -3.5947   -4.1466    1.3452 H   0  0  0  0  0  0  0  0  0  0  0  0
   -0.9928   -4.7522   -0.1758 H   0  0  0  0  0  0  0  0  0  0  0  0
   -2.2515   -5.9052    0.2636 H   0  0  0  0  0  0  0  0  0  0  0  0
   -4.7209   -5.3779   -0.8463 H   0  0  0  0  0  0  0  0  0  0  0  0
   -5.1172   -4.5678   -3.4610 H   0  0  0  0  0  0  0  0  0  0  0  0
   -1.1403   -3.7981   -2.4454 H   0  0  0  0  0  0  0  0  0  0  0  0
   -0.1426    0.5826    1.8803 H   0  0  0  0  0  0  0  0  0  0  0  0
   -1.2083    2.5641    2.8047 H   0  0  0  0  0  0  0  0  0  0  0  0
  1  2  1  0
  2  3  1  0
  3  4  1  0
  4  5  2  0
  5  6  1  0
  6  7  2  0
  7  8  1  0
  8  9  1  0
  9 10  1  0
 10 11  2  0
 10 12  1  0
 12 13  2  0
 13 14  1  0
 14 15  2  0
 15 16  1  0
 16 17  2  0
 16 18  1  0
 18 19  1  0
 19 20  1  0
 19 21  1  0
  9 22  1  0
 22 23  2  0
 22 24  1  0
 24 25  2  0
 24 26  1  0
 26 27  1  0
 27 28  1  0
 28 29  1  0
 29 30  1  0
 30 31  1  0
 31 32  2  0
 32 33  1  0
 33 34  2  0
  7 35  1  0
 35 36  2  0
 36  4  1  0
 26  8  1  0
 34 30  1  0
 17 12  1  0
 21 15  1  0
  1 37  1  0
  1 38  1  0
  1 39  1  0
  2 40  1  0
  2 41  1  0
  5 42  1  0
  6 43  1  0
  8 44  1  0
  9 45  1  0
 13 46  1  0
 14 47  1  0
 17 48  1  0
 18 49  1  0
 18 50  1  0
 19 51  1  0
 20 52  1  0
 20 53  1  0
 20 54  1  0
 27 55  1  0
 27 56  1  0
 28 57  1  0
 28 58  1  0
 29 59  1  0
 29 60  1  0
 31 61  1  0
 32 62  1  0
 34 63  1  0
 35 64  1  0
 36 65  1  0
M  END
$$$$
