
     RDKit          3D

 31 33  0  0  0  0  0  0  0  0999 V2000
    5.6255    1.0118   -0.6009 O   0  0  0  0  0  0  0  0  0  0  0  0
    4.7049    0.5842    0.0736 C   0  0  0  0  0  0  0  0  0  0  0  0
    4.6062    0.8947    1.3873 O   0  0  0  0  0  0  0  0  0  0  0  0
    3.6217   -0.3729   -0.3723 C   0  0  0  0  0  0  0  0  0  0  0  0
    2.3310   -0.1380    0.3451 N   0  0  0  0  0  0  0  0  0  0  0  0
    1.5374    1.2862   -0.1340 S   0  0  0  0  0  6  0  0  0  0  0  0
    1.6447    1.4243   -1.5674 O   0  0  0  0  0  0  0  0  0  0  0  0
    2.0038    2.3175    0.7658 O   0  0  0  0  0  0  0  0  0  0  0  0
   -0.1497    0.9086    0.2643 C   0  0  0  0  0  0  0  0  0  0  0  0
   -0.7890    1.6653    1.2851 C   0  0  0  0  0  0  0  0  0  0  0  0
   -2.1228    1.4163    1.6473 C   0  0  0  0  0  0  0  0  0  0  0  0
   -2.7802    0.4146    0.9730 C   0  0  0  0  0  0  0  0  0  0  0  0
   -2.1551   -0.3046   -0.0121 C   0  0  0  0  0  0  0  0  0  0  0  0
   -3.0268   -1.2337   -0.5218 C   0  0  0  0  0  0  0  0  0  0  0  0
   -2.6445   -2.0891   -1.5325 C   0  0  0  0  0  0  0  0  0  0  0  0
   -1.3336   -1.9675   -2.0140 C   0  0  0  0  0  0  0  0  0  0  0  0
   -0.4418   -1.0052   -1.4799 C   0  0  0  0  0  0  0  0  0  0  0  0
   -0.8409   -0.1234   -0.4342 C   0  0  0  0  0  0  0  0  0  0  0  0
   -4.3030   -1.0796    0.2103 C   0  0  0  0  0  0  0  0  0  0  0  0
   -5.3149   -1.7278    0.0421 O   0  0  0  0  0  0  0  0  0  0  0  0
   -4.0838   -0.0504    1.1134 N   0  0  0  0  0  0  0  0  0  0  0  0
    5.3202    1.5532    1.5312 H   0  0  0  0  0  0  0  0  0  0  0  0
    3.9584   -1.3873   -0.1338 H   0  0  0  0  0  0  0  0  0  0  0  0
    3.4815   -0.3124   -1.4547 H   0  0  0  0  0  0  0  0  0  0  0  0
    2.5516   -0.0330    1.3438 H   0  0  0  0  0  0  0  0  0  0  0  0
   -0.2466    2.4572    1.8010 H   0  0  0  0  0  0  0  0  0  0  0  0
   -2.6072    1.9956    2.4254 H   0  0  0  0  0  0  0  0  0  0  0  0
   -3.3348   -2.8218   -1.9366 H   0  0  0  0  0  0  0  0  0  0  0  0
   -0.9935   -2.6212   -2.8154 H   0  0  0  0  0  0  0  0  0  0  0  0
    0.5633   -0.9500   -1.8942 H   0  0  0  0  0  0  0  0  0  0  0  0
   -4.7820    0.2886    1.7575 H   0  0  0  0  0  0  0  0  0  0  0  0
  1  2  2  0
  2  3  1  0
  2  4  1  0
  4  5  1  0
  5  6  1  0
  6  7  2  0
  6  8  2  0
  6  9  1  0
  9 10  2  0
 10 11  1  0
 11 12  2  0
 12 13  1  0
 13 14  2  0
 14 15  1  0
 15 16  2  0
 16 17  1  0
 17 18  2  0
 14 19  1  0
 19 20  2  0
 19 21  1  0
 18  9  1  0
 21 12  1  0
 18 13  1  0
  3 22  1  0
  4 23  1  0
  4 24  1  0
  5 25  1  0
 10 26  1  0
 11 27  1  0
 15 28  1  0
 16 29  1  0
 17 30  1  0
 21 31  1  0
M  END
$$$$
