
     RDKit          3D

 52 54  0  0  0  0  0  0  0  0999 V2000
    3.3803    1.9156   -1.1293 C   0  0  0  0  0  0  0  0  0  0  0  0
    3.0506    0.9250   -0.0140 C   0  0  0  0  0  0  0  0  0  0  0  0
    3.7376   -0.4425   -0.2079 C   0  0  0  0  0  0  0  0  0  0  0  0
    5.1287   -0.5440    0.4321 C   0  0  0  0  0  0  0  0  0  0  0  0
    6.2096    0.2490   -0.2560 C   0  0  0  0  0  0  0  0  0  0  0  0
    6.8150    1.3344    0.3920 C   0  0  0  0  0  0  0  0  0  0  0  0
    7.8168    2.0695   -0.2440 C   0  0  0  0  0  0  0  0  0  0  0  0
    8.2264    1.7246   -1.5306 C   0  0  0  0  0  0  0  0  0  0  0  0
    7.6370    0.6426   -2.1813 C   0  0  0  0  0  0  0  0  0  0  0  0
    6.6351   -0.0937   -1.5470 C   0  0  0  0  0  0  0  0  0  0  0  0
    1.5985    0.7526    0.0365 N   0  0  0  0  0  0  0  0  0  0  0  0
    0.9640    0.3405    1.1918 C   0  0  0  0  0  0  0  0  0  0  0  0
    1.5471    0.1506    2.2535 O   0  0  0  0  0  0  0  0  0  0  0  0
   -0.4994    0.0832    1.0876 C   0  0  0  0  0  0  0  0  0  0  0  0
   -1.3055    0.7277    0.1441 C   0  0  0  0  0  0  0  0  0  0  0  0
   -2.6784    0.4529    0.0828 C   0  0  0  0  0  0  0  0  0  0  0  0
   -3.2635   -0.4555    0.9674 C   0  0  0  0  0  0  0  0  0  0  0  0
   -4.6346   -0.7877    0.9657 N   0  0  0  0  0  0  0  0  0  0  0  0
   -5.6262   -0.2511    0.1639 C   0  0  0  0  0  0  0  0  0  0  0  0
   -5.5031    0.6533   -0.6527 O   0  0  0  0  0  0  0  0  0  0  0  0
   -6.9828   -0.8327    0.3682 C   0  0  0  0  0  0  0  0  0  0  0  0
   -8.0948    0.0127    0.2553 C   0  0  0  0  0  0  0  0  0  0  0  0
   -9.3830   -0.4923    0.4385 C   0  0  0  0  0  0  0  0  0  0  0  0
   -9.5654   -1.8452    0.7249 C   0  0  0  0  0  0  0  0  0  0  0  0
   -8.4586   -2.6889    0.8170 C   0  0  0  0  0  0  0  0  0  0  0  0
   -8.7120   -4.5266    1.1841 Br  0  0  0  0  0  0  0  0  0  0  0  0
   -7.1666   -2.1949    0.6361 C   0  0  0  0  0  0  0  0  0  0  0  0
   -2.4542   -1.0874    1.9200 C   0  0  0  0  0  0  0  0  0  0  0  0
   -1.0832   -0.8172    1.9841 C   0  0  0  0  0  0  0  0  0  0  0  0
    4.4424    2.1642   -1.1589 H   0  0  0  0  0  0  0  0  0  0  0  0
    3.0945    1.5187   -2.1097 H   0  0  0  0  0  0  0  0  0  0  0  0
    2.8297    2.8523   -0.9853 H   0  0  0  0  0  0  0  0  0  0  0  0
    3.3567    1.3582    0.9460 H   0  0  0  0  0  0  0  0  0  0  0  0
    3.7732   -0.7030   -1.2730 H   0  0  0  0  0  0  0  0  0  0  0  0
    3.1255   -1.2223    0.2651 H   0  0  0  0  0  0  0  0  0  0  0  0
    5.0646   -0.2614    1.4906 H   0  0  0  0  0  0  0  0  0  0  0  0
    5.4406   -1.5971    0.4299 H   0  0  0  0  0  0  0  0  0  0  0  0
    6.5077    1.6171    1.3968 H   0  0  0  0  0  0  0  0  0  0  0  0
    8.2784    2.9110    0.2661 H   0  0  0  0  0  0  0  0  0  0  0  0
    9.0075    2.2967   -2.0240 H   0  0  0  0  0  0  0  0  0  0  0  0
    7.9600    0.3695   -3.1825 H   0  0  0  0  0  0  0  0  0  0  0  0
    6.1904   -0.9400   -2.0655 H   0  0  0  0  0  0  0  0  0  0  0  0
    1.1135    0.6413   -0.8437 H   0  0  0  0  0  0  0  0  0  0  0  0
   -0.8956    1.4683   -0.5367 H   0  0  0  0  0  0  0  0  0  0  0  0
   -3.2649    0.9757   -0.6668 H   0  0  0  0  0  0  0  0  0  0  0  0
   -4.9234   -1.4448    1.6788 H   0  0  0  0  0  0  0  0  0  0  0  0
   -7.9570    1.0680    0.0248 H   0  0  0  0  0  0  0  0  0  0  0  0
  -10.2426    0.1684    0.3534 H   0  0  0  0  0  0  0  0  0  0  0  0
  -10.5720   -2.2323    0.8639 H   0  0  0  0  0  0  0  0  0  0  0  0
   -6.3203   -2.8745    0.6739 H   0  0  0  0  0  0  0  0  0  0  0  0
   -2.8738   -1.7957    2.6297 H   0  0  0  0  0  0  0  0  0  0  0  0
   -0.4708   -1.3130    2.7350 H   0  0  0  0  0  0  0  0  0  0  0  0
  1  2  1  0
  2  3  1  0
  3  4  1  0
  4  5  1  0
  5  6  2  0
  6  7  1  0
  7  8  2  0
  8  9  1  0
  9 10  2  0
  2 11  1  0
 11 12  1  0
 12 13  2  0
 12 14  1  0
 14 15  2  0
 15 16  1  0
 16 17  2  0
 17 18  1  0
 18 19  1  0
 19 20  2  0
 19 21  1  0
 21 22  2  0
 22 23  1  0
 23 24  2  0
 24 25  1  0
 25 26  1  0
 25 27  2  0
 17 28  1  0
 28 29  2  0
 10  5  1  0
 29 14  1  0
 27 21  1  0
  1 30  1  0
  1 31  1  0
  1 32  1  0
  2 33  1  0
  3 34  1  0
  3 35  1  0
  4 36  1  0
  4 37  1  0
  6 38  1  0
  7 39  1  0
  8 40  1  0
  9 41  1  0
 10 42  1  0
 11 43  1  0
 15 44  1  0
 16 45  1  0
 18 46  1  0
 22 47  1  0
 23 48  1  0
 24 49  1  0
 27 50  1  0
 28 51  1  0
 29 52  1  0
M  END
$$$$
