
     RDKit          3D

 41 43  0  0  0  0  0  0  0  0999 V2000
   -2.3838   -3.5337    0.1617 C   0  0  0  0  0  0  0  0  0  0  0  0
   -3.1992   -2.4713    0.8835 C   0  0  0  0  0  0  0  0  0  0  0  0
   -2.5768   -1.0740    0.8087 C   0  0  0  0  0  0  0  0  0  0  0  0
   -2.6071   -0.4868   -0.6031 C   0  0  0  0  0  0  0  0  0  0  0  0
   -1.9259    1.1996   -0.6385 S   0  0  0  0  0  0  0  0  0  0  0  0
   -0.2220    0.8948   -0.4695 C   0  0  0  0  0  0  0  0  0  0  0  0
    0.2647   -0.2787   -0.7383 N   0  0  0  0  0  0  0  0  0  0  0  0
    1.5851   -0.1896   -0.3869 C   0  0  0  0  0  0  0  0  0  0  0  0
    2.5343   -1.1347   -0.4460 C   0  0  0  0  0  0  0  0  0  0  0  0
    2.4222   -2.4925   -0.8988 C   0  0  0  0  0  0  0  0  0  0  0  0
    3.4940   -3.4374   -0.8044 C   0  0  0  0  0  0  0  0  0  0  0  0
    3.1521   -4.6768   -1.3003 C   0  0  0  0  0  0  0  0  0  0  0  0
    1.5468   -4.7117   -1.8839 S   0  0  0  0  0  0  0  0  0  0  0  0
    1.3079   -3.0649   -1.4768 C   0  0  0  0  0  0  0  0  0  0  0  0
    1.8730    1.1777    0.1338 C   0  0  0  0  0  0  0  0  0  0  0  0
    2.9617    1.5620    0.5243 O   0  0  0  0  0  0  0  0  0  0  0  0
    0.6629    1.8241    0.0153 N   0  0  0  0  0  0  0  0  0  0  0  0
    0.4808    3.1976    0.3376 C   0  0  0  0  0  0  0  0  0  0  0  0
   -0.4160    4.0192   -0.3599 C   0  0  0  0  0  0  0  0  0  0  0  0
   -0.5722    5.3709   -0.0294 C   0  0  0  0  0  0  0  0  0  0  0  0
    0.1759    5.9313    0.9996 C   0  0  0  0  0  0  0  0  0  0  0  0
    1.0882    5.1430    1.6907 C   0  0  0  0  0  0  0  0  0  0  0  0
    1.2427    3.7929    1.3576 C   0  0  0  0  0  0  0  0  0  0  0  0
   -1.3554   -3.5600    0.5356 H   0  0  0  0  0  0  0  0  0  0  0  0
   -2.8274   -4.5214    0.3234 H   0  0  0  0  0  0  0  0  0  0  0  0
   -2.3557   -3.3564   -0.9171 H   0  0  0  0  0  0  0  0  0  0  0  0
   -4.2173   -2.4513    0.4780 H   0  0  0  0  0  0  0  0  0  0  0  0
   -3.2835   -2.7575    1.9388 H   0  0  0  0  0  0  0  0  0  0  0  0
   -1.5512   -1.1209    1.1934 H   0  0  0  0  0  0  0  0  0  0  0  0
   -3.1397   -0.4183    1.4856 H   0  0  0  0  0  0  0  0  0  0  0  0
   -3.6459   -0.4207   -0.9447 H   0  0  0  0  0  0  0  0  0  0  0  0
   -2.0783   -1.1163   -1.3242 H   0  0  0  0  0  0  0  0  0  0  0  0
    3.5263   -0.8458   -0.0974 H   0  0  0  0  0  0  0  0  0  0  0  0
    4.4725   -3.2250   -0.3901 H   0  0  0  0  0  0  0  0  0  0  0  0
    3.7679   -5.5642   -1.3481 H   0  0  0  0  0  0  0  0  0  0  0  0
    0.3496   -2.6133   -1.6907 H   0  0  0  0  0  0  0  0  0  0  0  0
   -0.9791    3.6545   -1.2132 H   0  0  0  0  0  0  0  0  0  0  0  0
   -1.2717    5.9870   -0.5896 H   0  0  0  0  0  0  0  0  0  0  0  0
    0.0565    6.9811    1.2545 H   0  0  0  0  0  0  0  0  0  0  0  0
    1.6843    5.5738    2.4915 H   0  0  0  0  0  0  0  0  0  0  0  0
    1.9583    3.2137    1.9374 H   0  0  0  0  0  0  0  0  0  0  0  0
  1  2  1  0
  2  3  1  0
  3  4  1  0
  4  5  1  0
  5  6  1  0
  6  7  2  0
  7  8  1  0
  8  9  2  3
  9 10  1  0
 10 11  1  0
 11 12  2  0
 12 13  1  0
 13 14  1  0
  8 15  1  0
 15 16  2  0
 15 17  1  0
 17 18  1  0
 18 19  2  0
 19 20  1  0
 20 21  2  0
 21 22  1  0
 22 23  2  0
 17  6  1  0
 23 18  1  0
 14 10  2  0
  1 24  1  0
  1 25  1  0
  1 26  1  0
  2 27  1  0
  2 28  1  0
  3 29  1  0
  3 30  1  0
  4 31  1  0
  4 32  1  0
  9 33  1  0
 11 34  1  0
 12 35  1  0
 14 36  1  0
 19 37  1  0
 20 38  1  0
 21 39  1  0
 22 40  1  0
 23 41  1  0
M  END
$$$$
