
     RDKit          3D

 37 39  0  0  0  0  0  0  0  0999 V2000
    4.6094   -1.0797    2.4854 C   0  0  0  0  0  0  0  0  0  0  0  0
    3.3587   -0.7694    1.7201 C   0  0  0  0  0  0  0  0  0  0  0  0
    2.1124   -1.1522    2.2091 C   0  0  0  0  0  0  0  0  0  0  0  0
    0.9478   -0.9007    1.4720 C   0  0  0  0  0  0  0  0  0  0  0  0
    0.9873   -0.2790    0.2153 C   0  0  0  0  0  0  0  0  0  0  0  0
    2.2503    0.1356   -0.2588 C   0  0  0  0  0  0  0  0  0  0  0  0
    3.4199   -0.1357    0.4786 C   0  0  0  0  0  0  0  0  0  0  0  0
    2.3967    0.8412   -1.5774 C   0  0  0  0  0  0  0  0  0  0  0  0
    1.1567    1.6663   -1.8358 C   0  0  0  0  0  0  0  0  0  0  0  0
   -0.0601    0.7612   -1.7927 C   0  0  0  0  0  0  0  0  0  0  0  0
   -0.2095   -0.0272   -0.5614 N   0  0  0  0  0  0  0  0  0  0  0  0
   -1.4130   -0.7402   -0.3295 C   0  0  0  0  0  0  0  0  0  0  0  0
   -1.5249   -1.6885    0.4522 O   0  0  0  0  0  0  0  0  0  0  0  0
   -2.6725   -0.2603   -1.1097 C   0  0  0  0  0  0  0  0  0  0  0  0
   -3.2204    1.0255   -0.5064 C   0  0  0  0  0  0  0  0  0  0  0  0
   -4.1698    0.5046    0.5451 C   0  0  0  0  0  0  0  0  0  0  0  0
   -4.7306   -0.7382   -0.1091 C   0  0  0  0  0  0  0  0  0  0  0  0
   -3.7583   -1.1991   -1.0553 O   0  0  0  0  0  0  0  0  0  0  0  0
    5.3778   -0.3213    2.3019 H   0  0  0  0  0  0  0  0  0  0  0  0
    4.9986   -2.0577    2.1859 H   0  0  0  0  0  0  0  0  0  0  0  0
    4.4162   -1.0910    3.5633 H   0  0  0  0  0  0  0  0  0  0  0  0
    2.0266   -1.6532    3.1710 H   0  0  0  0  0  0  0  0  0  0  0  0
    0.0120   -1.1995    1.9335 H   0  0  0  0  0  0  0  0  0  0  0  0
    4.3882    0.1600    0.0782 H   0  0  0  0  0  0  0  0  0  0  0  0
    3.2693    1.5048   -1.5676 H   0  0  0  0  0  0  0  0  0  0  0  0
    2.5477    0.0984   -2.3696 H   0  0  0  0  0  0  0  0  0  0  0  0
    1.0599    2.4555   -1.0788 H   0  0  0  0  0  0  0  0  0  0  0  0
    1.2255    2.1587   -2.8121 H   0  0  0  0  0  0  0  0  0  0  0  0
   -0.0406    0.0518   -2.6300 H   0  0  0  0  0  0  0  0  0  0  0  0
   -0.9386    1.3975   -1.9295 H   0  0  0  0  0  0  0  0  0  0  0  0
   -2.4202   -0.1502   -2.1673 H   0  0  0  0  0  0  0  0  0  0  0  0
   -2.4628    1.6941   -0.0884 H   0  0  0  0  0  0  0  0  0  0  0  0
   -3.7865    1.5781   -1.2659 H   0  0  0  0  0  0  0  0  0  0  0  0
   -4.9445    1.2214    0.8303 H   0  0  0  0  0  0  0  0  0  0  0  0
   -3.6139    0.2324    1.4501 H   0  0  0  0  0  0  0  0  0  0  0  0
   -4.9455   -1.5302    0.6140 H   0  0  0  0  0  0  0  0  0  0  0  0
   -5.6495   -0.5138   -0.6607 H   0  0  0  0  0  0  0  0  0  0  0  0
  1  2  1  0
  2  3  2  0
  3  4  1  0
  4  5  2  0
  5  6  1  0
  6  7  2  0
  6  8  1  0
  8  9  1  0
  9 10  1  0
 10 11  1  0
 11 12  1  0
 12 13  2  0
 12 14  1  0
 14 15  1  0
 15 16  1  0
 16 17  1  0
 17 18  1  0
  7  2  1  0
 18 14  1  0
 11  5  1  0
  1 19  1  0
  1 20  1  0
  1 21  1  0
  3 22  1  0
  4 23  1  0
  7 24  1  0
  8 25  1  0
  8 26  1  0
  9 27  1  0
  9 28  1  0
 10 29  1  0
 10 30  1  0
 14 31  1  0
 15 32  1  0
 15 33  1  0
 16 34  1  0
 16 35  1  0
 17 36  1  0
 17 37  1  0
M  END
$$$$
