
     RDKit          3D

 46 49  0  0  0  0  0  0  0  0999 V2000
   -2.1672    0.9412   -1.7527 O   0  0  0  0  0  0  0  0  0  0  0  0
   -1.6327    0.3004   -0.8515 C   0  0  0  0  0  0  0  0  0  0  0  0
   -0.1909    0.1472   -0.8070 C   0  0  0  0  0  0  0  0  0  0  0  0
    0.4964   -1.0427   -0.9534 C   0  0  0  0  0  0  0  0  0  0  0  0
    1.8346   -0.7562   -0.8433 N   0  0  0  0  0  0  0  0  0  0  0  0
    2.9331   -1.6580   -0.9306 C   0  0  0  0  0  0  0  0  0  0  0  0
    2.7367   -3.0253   -1.1713 C   0  0  0  0  0  0  0  0  0  0  0  0
    3.8354   -3.8869   -1.2502 C   0  0  0  0  0  0  0  0  0  0  0  0
    5.1292   -3.3934   -1.0913 C   0  0  0  0  0  0  0  0  0  0  0  0
    5.3318   -2.0359   -0.8538 C   0  0  0  0  0  0  0  0  0  0  0  0
    4.2399   -1.1690   -0.7737 C   0  0  0  0  0  0  0  0  0  0  0  0
    2.0363    0.5605   -0.6017 N   0  0  0  0  0  0  0  0  0  0  0  0
    0.8206    1.1285   -0.6264 C   0  0  0  0  0  0  0  0  0  0  0  0
    0.6819    2.5687   -0.4081 C   0  0  0  0  0  0  0  0  0  0  0  0
   -0.1593    3.3512   -1.2112 C   0  0  0  0  0  0  0  0  0  0  0  0
   -0.2798    4.7247   -0.9815 C   0  0  0  0  0  0  0  0  0  0  0  0
    0.4467    5.3165    0.0445 C   0  0  0  0  0  0  0  0  0  0  0  0
    0.3302    6.6328    0.2625 F   0  0  0  0  0  0  0  0  0  0  0  0
    1.2971    4.5630    0.8438 C   0  0  0  0  0  0  0  0  0  0  0  0
    1.4173    3.1904    0.6154 C   0  0  0  0  0  0  0  0  0  0  0  0
   -2.3696   -0.3419    0.1459 N   0  0  0  0  0  0  0  0  0  0  0  0
   -3.8270   -0.3056    0.0537 C   0  0  0  0  0  0  0  0  0  0  0  0
   -4.4648   -1.4863    0.7748 C   0  0  0  0  0  0  0  0  0  0  0  0
   -4.0741   -1.5397    2.2519 C   0  0  0  0  0  0  0  0  0  0  0  0
   -2.7428   -0.8488    2.5444 C   0  0  0  0  0  0  0  0  0  0  0  0
   -1.7847   -0.9196    1.3600 C   0  0  0  0  0  0  0  0  0  0  0  0
    0.1276   -2.0408   -1.1311 H   0  0  0  0  0  0  0  0  0  0  0  0
    1.7493   -3.4548   -1.3056 H   0  0  0  0  0  0  0  0  0  0  0  0
    3.6814   -4.9468   -1.4387 H   0  0  0  0  0  0  0  0  0  0  0  0
    5.9806   -4.0664   -1.1550 H   0  0  0  0  0  0  0  0  0  0  0  0
    6.3402   -1.6481   -0.7325 H   0  0  0  0  0  0  0  0  0  0  0  0
    4.4243   -0.1117   -0.5903 H   0  0  0  0  0  0  0  0  0  0  0  0
   -0.7162    2.9090   -2.0341 H   0  0  0  0  0  0  0  0  0  0  0  0
   -0.9309    5.3327   -1.6014 H   0  0  0  0  0  0  0  0  0  0  0  0
    1.8631    5.0454    1.6337 H   0  0  0  0  0  0  0  0  0  0  0  0
    2.0906    2.6031    1.2370 H   0  0  0  0  0  0  0  0  0  0  0  0
   -4.1316   -0.3060   -0.9987 H   0  0  0  0  0  0  0  0  0  0  0  0
   -4.1617    0.6424    0.4919 H   0  0  0  0  0  0  0  0  0  0  0  0
   -4.1391   -2.4159    0.2900 H   0  0  0  0  0  0  0  0  0  0  0  0
   -5.5557   -1.4487    0.6799 H   0  0  0  0  0  0  0  0  0  0  0  0
   -4.0272   -2.5889    2.5675 H   0  0  0  0  0  0  0  0  0  0  0  0
   -4.8563   -1.0720    2.8619 H   0  0  0  0  0  0  0  0  0  0  0  0
   -2.2822   -1.2909    3.4348 H   0  0  0  0  0  0  0  0  0  0  0  0
   -2.9360    0.2056    2.7816 H   0  0  0  0  0  0  0  0  0  0  0  0
   -1.5371   -1.9638    1.1367 H   0  0  0  0  0  0  0  0  0  0  0  0
   -0.8574   -0.3987    1.6175 H   0  0  0  0  0  0  0  0  0  0  0  0
  1  2  2  0
  2  3  1  0
  3  4  2  0
  4  5  1  0
  5  6  1  0
  6  7  2  0
  7  8  1  0
  8  9  2  0
  9 10  1  0
 10 11  2  0
  5 12  1  0
 12 13  2  0
 13 14  1  0
 14 15  2  0
 15 16  1  0
 16 17  2  0
 17 18  1  0
 17 19  1  0
 19 20  2  0
  2 21  1  0
 21 22  1  0
 22 23  1  0
 23 24  1  0
 24 25  1  0
 25 26  1  0
 13  3  1  0
 20 14  1  0
 26 21  1  0
 11  6  1  0
  4 27  1  0
  7 28  1  0
  8 29  1  0
  9 30  1  0
 10 31  1  0
 11 32  1  0
 15 33  1  0
 16 34  1  0
 19 35  1  0
 20 36  1  0
 22 37  1  0
 22 38  1  0
 23 39  1  0
 23 40  1  0
 24 41  1  0
 24 42  1  0
 25 43  1  0
 25 44  1  0
 26 45  1  0
 26 46  1  0
M  END
$$$$
