
     RDKit          3D

 43 45  0  0  0  0  0  0  0  0999 V2000
    4.4820   -2.2431    1.7690 C   0  0  0  0  0  0  0  0  0  0  0  0
    3.7498   -2.1561    0.5458 O   0  0  0  0  0  0  0  0  0  0  0  0
    3.2017   -0.9065    0.3969 C   0  0  0  0  0  0  0  0  0  0  0  0
    1.8220   -0.7990    0.6101 C   0  0  0  0  0  0  0  0  0  0  0  0
    1.1667    0.4282    0.4385 C   0  0  0  0  0  0  0  0  0  0  0  0
   -0.2940    0.4757    0.6578 C   0  0  0  0  0  0  0  0  0  0  0  0
   -0.7882    0.3624    1.9967 C   0  0  0  0  0  0  0  0  0  0  0  0
   -1.1506    0.2530    3.0936 N   0  0  0  0  0  0  0  0  0  0  0  0
   -1.1004    0.5864   -0.4161 C   0  0  0  0  0  0  0  0  0  0  0  0
   -2.5713    0.6429   -0.3560 C   0  0  0  0  0  0  0  0  0  0  0  0
   -3.1609    1.8430    0.0692 C   0  0  0  0  0  0  0  0  0  0  0  0
   -4.5447    1.9587    0.1428 C   0  0  0  0  0  0  0  0  0  0  0  0
   -5.3512    0.8796   -0.2114 C   0  0  0  0  0  0  0  0  0  0  0  0
   -4.7889   -0.3309   -0.6451 C   0  0  0  0  0  0  0  0  0  0  0  0
   -5.6172   -1.4090   -0.9985 C   0  0  0  0  0  0  0  0  0  0  0  0
   -5.0763   -2.6198   -1.4282 C   0  0  0  0  0  0  0  0  0  0  0  0
   -3.6983   -2.7696   -1.5106 C   0  0  0  0  0  0  0  0  0  0  0  0
   -2.8606   -1.7075   -1.1629 C   0  0  0  0  0  0  0  0  0  0  0  0
   -3.3801   -0.4663   -0.7237 C   0  0  0  0  0  0  0  0  0  0  0  0
    1.9470    1.5279    0.0389 C   0  0  0  0  0  0  0  0  0  0  0  0
    1.3425    2.8392   -0.1464 N   0  0  0  0  0  4  0  0  0  0  0  0
    0.6559    3.2890    0.7794 O   0  0  0  0  0  0  0  0  0  0  0  0
    1.5750    3.4164   -1.2168 O   0  0  0  0  0  1  0  0  0  0  0  0
    3.3283    1.4198   -0.2059 C   0  0  0  0  0  0  0  0  0  0  0  0
    3.9633    0.1899   -0.0392 C   0  0  0  0  0  0  0  0  0  0  0  0
    5.2922   -0.0414   -0.2680 O   0  0  0  0  0  0  0  0  0  0  0  0
    6.0438    0.9908   -0.8944 C   0  0  0  0  0  0  0  0  0  0  0  0
    5.3905   -1.6334    1.7403 H   0  0  0  0  0  0  0  0  0  0  0  0
    4.7822   -3.2867    1.9034 H   0  0  0  0  0  0  0  0  0  0  0  0
    3.8601   -1.9581    2.6253 H   0  0  0  0  0  0  0  0  0  0  0  0
    1.2700   -1.6901    0.9063 H   0  0  0  0  0  0  0  0  0  0  0  0
   -0.7005    0.6341   -1.4274 H   0  0  0  0  0  0  0  0  0  0  0  0
   -2.5459    2.6969    0.3490 H   0  0  0  0  0  0  0  0  0  0  0  0
   -4.9959    2.8886    0.4800 H   0  0  0  0  0  0  0  0  0  0  0  0
   -6.4316    0.9913   -0.1438 H   0  0  0  0  0  0  0  0  0  0  0  0
   -6.6995   -1.3129   -0.9383 H   0  0  0  0  0  0  0  0  0  0  0  0
   -5.7322   -3.4442   -1.6950 H   0  0  0  0  0  0  0  0  0  0  0  0
   -3.2718   -3.7126   -1.8421 H   0  0  0  0  0  0  0  0  0  0  0  0
   -1.7873   -1.8635   -1.2367 H   0  0  0  0  0  0  0  0  0  0  0  0
    3.8784    2.3016   -0.5215 H   0  0  0  0  0  0  0  0  0  0  0  0
    7.0498    0.6042   -1.0831 H   0  0  0  0  0  0  0  0  0  0  0  0
    5.6074    1.2704   -1.8592 H   0  0  0  0  0  0  0  0  0  0  0  0
    6.1386    1.8609   -0.2364 H   0  0  0  0  0  0  0  0  0  0  0  0
  1  2  1  0
  2  3  1  0
  3  4  2  0
  4  5  1  0
  5  6  1  0
  6  7  1  0
  7  8  3  0
  6  9  2  3
  9 10  1  0
 10 11  2  0
 11 12  1  0
 12 13  2  0
 13 14  1  0
 14 15  2  0
 15 16  1  0
 16 17  2  0
 17 18  1  0
 18 19  2  0
  5 20  2  0
 20 21  1  0
 21 22  2  0
 21 23  1  0
 20 24  1  0
 24 25  2  0
 25 26  1  0
 26 27  1  0
 25  3  1  0
 19 10  1  0
 19 14  1  0
  1 28  1  0
  1 29  1  0
  1 30  1  0
  4 31  1  0
  9 32  1  0
 11 33  1  0
 12 34  1  0
 13 35  1  0
 15 36  1  0
 16 37  1  0
 17 38  1  0
 18 39  1  0
 24 40  1  0
 27 41  1  0
 27 42  1  0
 27 43  1  0
M  CHG  2  21   1  23  -1
M  END
$$$$
