
     RDKit          3D

 40 43  0  0  0  0  0  0  0  0999 V2000
   -3.1445    1.5448    0.8435 C   0  0  0  0  0  0  0  0  0  0  0  0
   -3.5335    0.9220    2.1341 C   0  0  0  0  0  0  0  0  0  0  0  0
   -4.8673    1.0245    2.5204 N   0  0  0  0  0  0  0  0  0  0  0  0
   -5.0847    0.4784    3.7039 N   0  0  0  0  0  0  0  0  0  0  0  0
   -3.6999   -0.1581    4.3891 S   0  0  0  0  0  0  0  0  0  0  0  0
   -2.7252    0.2436    3.0361 C   0  0  0  0  0  0  0  0  0  0  0  0
   -1.3435   -0.0870    2.9812 C   0  0  0  0  0  0  0  0  0  0  0  0
   -0.4570    0.2423    3.9033 N   0  0  0  0  0  0  0  0  0  0  0  0
    0.7874   -0.1680    3.4689 N   0  0  0  0  0  0  0  0  0  0  0  0
    0.6235   -0.7647    2.3104 C   0  0  0  0  0  0  0  0  0  0  0  0
    1.8924   -1.3562    1.2973 S   0  0  0  0  0  0  0  0  0  0  0  0
    2.5680    0.2332    0.7356 C   0  0  0  0  0  0  0  0  0  0  0  0
    1.7147    0.7729   -0.3968 C   0  0  0  0  0  0  0  0  0  0  0  0
    0.5844    1.2252   -0.2061 O   0  0  0  0  0  0  0  0  0  0  0  0
    2.2480    0.7538   -1.7891 C   0  0  0  0  0  0  0  0  0  0  0  0
    3.1928   -0.1862   -2.2171 C   0  0  0  0  0  0  0  0  0  0  0  0
    3.6514   -0.1664   -3.5400 C   0  0  0  0  0  0  0  0  0  0  0  0
    3.1652    0.7852   -4.4436 C   0  0  0  0  0  0  0  0  0  0  0  0
    3.6371    0.8003   -5.7978 C   0  0  0  0  0  0  0  0  0  0  0  0
    4.0216    0.8098   -6.8925 N   0  0  0  0  0  0  0  0  0  0  0  0
    2.2121    1.7161   -4.0205 C   0  0  0  0  0  0  0  0  0  0  0  0
    1.7523    1.6973   -2.7001 C   0  0  0  0  0  0  0  0  0  0  0  0
   -0.7041   -0.7892    1.9915 N   0  0  0  0  0  0  0  0  0  0  0  0
   -1.3204   -1.4010    0.7912 C   0  0  0  0  0  0  0  0  0  0  0  0
   -1.2053   -2.8788    0.4905 C   0  0  0  0  0  0  0  0  0  0  0  0
   -2.5351   -2.2995    0.8597 C   0  0  0  0  0  0  0  0  0  0  0  0
   -3.7464    2.4393    0.6533 H   0  0  0  0  0  0  0  0  0  0  0  0
   -2.0932    1.8473    0.8438 H   0  0  0  0  0  0  0  0  0  0  0  0
   -3.3080    0.8437    0.0199 H   0  0  0  0  0  0  0  0  0  0  0  0
    3.6069    0.0970    0.4258 H   0  0  0  0  0  0  0  0  0  0  0  0
    2.5855    0.9725    1.5438 H   0  0  0  0  0  0  0  0  0  0  0  0
    3.5730   -0.9589   -1.5536 H   0  0  0  0  0  0  0  0  0  0  0  0
    4.3855   -0.9044   -3.8621 H   0  0  0  0  0  0  0  0  0  0  0  0
    1.8183    2.4591   -4.7127 H   0  0  0  0  0  0  0  0  0  0  0  0
    1.0055    2.4255   -2.3856 H   0  0  0  0  0  0  0  0  0  0  0  0
   -1.2592   -0.7359   -0.0669 H   0  0  0  0  0  0  0  0  0  0  0  0
   -1.0474   -3.1755   -0.5406 H   0  0  0  0  0  0  0  0  0  0  0  0
   -0.7220   -3.5274    1.2133 H   0  0  0  0  0  0  0  0  0  0  0  0
   -3.2831   -2.2014    0.0801 H   0  0  0  0  0  0  0  0  0  0  0  0
   -2.9455   -2.5751    1.8251 H   0  0  0  0  0  0  0  0  0  0  0  0
  1  2  1  0
  2  3  1  0
  3  4  2  0
  4  5  1  0
  5  6  1  0
  6  7  1  0
  7  8  2  0
  8  9  1  0
  9 10  2  0
 10 11  1  0
 11 12  1  0
 12 13  1  0
 13 14  2  0
 13 15  1  0
 15 16  2  0
 16 17  1  0
 17 18  2  0
 18 19  1  0
 19 20  3  0
 18 21  1  0
 21 22  2  0
 10 23  1  0
 23 24  1  0
 24 25  1  0
 25 26  1  0
  6  2  2  0
 23  7  1  0
 26 24  1  0
 22 15  1  0
  1 27  1  0
  1 28  1  0
  1 29  1  0
 12 30  1  0
 12 31  1  0
 16 32  1  0
 17 33  1  0
 21 34  1  0
 22 35  1  0
 24 36  1  0
 25 37  1  0
 25 38  1  0
 26 39  1  0
 26 40  1  0
M  END
$$$$
