
     RDKit          3D

 35 37  0  0  0  0  0  0  0  0999 V2000
    5.6543   -1.1034    0.9435 C   0  0  0  0  0  0  0  0  0  0  0  0
    4.1644   -0.9287    1.0610 C   0  0  0  0  0  0  0  0  0  0  0  0
    3.3272   -2.0421    0.8912 C   0  0  0  0  0  0  0  0  0  0  0  0
    1.9417   -1.9159    1.0015 C   0  0  0  0  0  0  0  0  0  0  0  0
    1.3683   -0.6756    1.2732 C   0  0  0  0  0  0  0  0  0  0  0  0
   -0.0229   -0.5451    1.3660 N   0  0  0  0  0  0  0  0  0  0  0  0
   -0.6901   -0.2449    0.3058 C   0  0  0  0  0  0  0  0  0  0  0  0
   -0.2059   -0.0308   -0.9450 N   0  0  0  0  0  0  0  0  0  0  0  0
   -1.1031    0.2757   -1.9252 C   0  0  0  0  0  0  0  0  0  0  0  0
   -0.8084    0.4925   -3.0900 O   0  0  0  0  0  0  0  0  0  0  0  0
   -2.4832    0.3024   -1.3630 C   0  0  0  0  0  0  0  0  0  0  0  0
   -3.5273    0.6130   -2.1428 C   0  0  0  0  0  0  0  0  0  0  0  0
   -4.8875    0.6859   -1.7222 C   0  0  0  0  0  0  0  0  0  0  0  0
   -5.6208   -0.0903   -0.8394 C   0  0  0  0  0  0  0  0  0  0  0  0
   -6.9780    0.3290   -0.7141 C   0  0  0  0  0  0  0  0  0  0  0  0
   -7.2580    1.4073   -1.5186 C   0  0  0  0  0  0  0  0  0  0  0  0
   -5.8975    1.9004   -2.4228 S   0  0  0  0  0  0  0  0  0  0  0  0
   -2.4240   -0.0597    0.3227 S   0  0  0  0  0  0  0  0  0  0  0  0
    2.1961    0.4327    1.4679 C   0  0  0  0  0  0  0  0  0  0  0  0
    3.5927    0.3240    1.3610 C   0  0  0  0  0  0  0  0  0  0  0  0
    4.4443    1.5450    1.5768 C   0  0  0  0  0  0  0  0  0  0  0  0
    6.1373   -0.8924    1.9028 H   0  0  0  0  0  0  0  0  0  0  0  0
    6.0576   -0.4355    0.1758 H   0  0  0  0  0  0  0  0  0  0  0  0
    5.9175   -2.1271    0.6568 H   0  0  0  0  0  0  0  0  0  0  0  0
    3.7502   -3.0219    0.6788 H   0  0  0  0  0  0  0  0  0  0  0  0
    1.3078   -2.7901    0.8800 H   0  0  0  0  0  0  0  0  0  0  0  0
    0.7769   -0.0901   -1.1593 H   0  0  0  0  0  0  0  0  0  0  0  0
   -3.3295    0.8643   -3.1853 H   0  0  0  0  0  0  0  0  0  0  0  0
   -5.2119   -0.9367   -0.3011 H   0  0  0  0  0  0  0  0  0  0  0  0
   -7.7099   -0.1426   -0.0699 H   0  0  0  0  0  0  0  0  0  0  0  0
   -8.2004    1.9266   -1.6263 H   0  0  0  0  0  0  0  0  0  0  0  0
    1.7394    1.3896    1.7116 H   0  0  0  0  0  0  0  0  0  0  0  0
    3.8352    2.4228    1.8178 H   0  0  0  0  0  0  0  0  0  0  0  0
    5.1348    1.3850    2.4109 H   0  0  0  0  0  0  0  0  0  0  0  0
    5.0124    1.7768    0.6705 H   0  0  0  0  0  0  0  0  0  0  0  0
  1  2  1  0
  2  3  2  0
  3  4  1  0
  4  5  2  0
  5  6  1  0
  6  7  2  3
  7  8  1  0
  8  9  1  0
  9 10  2  0
  9 11  1  0
 11 12  2  3
 12 13  1  0
 13 14  2  0
 14 15  1  0
 15 16  2  0
 16 17  1  0
 11 18  1  0
  5 19  1  0
 19 20  2  0
 20 21  1  0
 20  2  1  0
 18  7  1  0
 17 13  1  0
  1 22  1  0
  1 23  1  0
  1 24  1  0
  3 25  1  0
  4 26  1  0
  8 27  1  0
 12 28  1  0
 14 29  1  0
 15 30  1  0
 16 31  1  0
 19 32  1  0
 21 33  1  0
 21 34  1  0
 21 35  1  0
M  END
$$$$
