
     RDKit          3D

 66 68  0  0  0  0  0  0  0  0999 V2000
   -2.8469   -5.6025    0.0426 C   0  0  0  0  0  0  0  0  0  0  0  0
   -2.0095   -4.4994    0.6818 C   0  0  0  0  0  0  0  0  0  0  0  0
   -2.2899   -3.1524    0.1546 N   0  0  0  0  0  0  0  0  0  0  0  0
   -3.6850   -2.7213    0.3277 C   0  0  0  0  0  0  0  0  0  0  0  0
   -4.1670   -2.5444    1.7646 C   0  0  0  0  0  0  0  0  0  0  0  0
   -1.2901   -2.1965    0.6737 C   0  0  0  0  0  0  0  0  0  0  0  0
   -1.3649   -0.7987    0.0326 C   0  0  0  0  0  0  0  0  0  0  0  0
   -0.2171    0.1283    0.5157 C   0  0  0  0  0  0  0  0  0  0  0  0
    1.2016   -0.2546    0.0976 C   0  0  0  0  0  0  0  0  0  0  0  0
    1.4992   -0.9482   -1.0760 C   0  0  0  0  0  0  0  0  0  0  0  0
    2.8258   -1.2611   -1.4158 C   0  0  0  0  0  0  0  0  0  0  0  0
    3.9171   -0.9121   -0.6034 C   0  0  0  0  0  0  0  0  0  0  0  0
    5.2402   -1.2158   -0.9509 N   0  0  0  0  0  0  0  0  0  0  0  0
    5.4874   -2.1240   -2.0691 C   0  0  0  0  0  0  0  0  0  0  0  0
    6.2524   -1.2224    0.1032 C   0  0  0  0  0  0  0  0  0  0  0  0
    3.5989   -0.1943    0.5609 C   0  0  0  0  0  0  0  0  0  0  0  0
    2.2774    0.1269    0.9077 C   0  0  0  0  0  0  0  0  0  0  0  0
   -0.5234    1.6038    0.2152 C   0  0  0  0  0  0  0  0  0  0  0  0
   -0.6730    2.5362    1.2634 C   0  0  0  0  0  0  0  0  0  0  0  0
   -0.5457    2.0404    2.5367 O   0  0  0  0  0  0  0  0  0  0  0  0
   -0.7669    2.9219    3.6301 C   0  0  0  0  0  0  0  0  0  0  0  0
   -0.9314    3.8871    0.9781 C   0  0  0  0  0  0  0  0  0  0  0  0
   -1.0470    4.3410   -0.3416 C   0  0  0  0  0  0  0  0  0  0  0  0
   -1.2985    5.6444   -0.6934 O   0  0  0  0  0  0  0  0  0  0  0  0
   -1.3581    6.6148    0.3424 C   0  0  0  0  0  0  0  0  0  0  0  0
   -0.9080    3.4277   -1.3967 C   0  0  0  0  0  0  0  0  0  0  0  0
   -1.0135    3.8276   -2.7996 C   0  0  0  0  0  0  0  0  0  0  0  0
   -0.8659    2.9305   -3.7771 C   0  0  0  0  0  0  0  0  0  0  0  0
   -0.6008    1.5137   -3.5003 C   0  0  0  0  0  0  0  0  0  0  0  0
   -0.4766    0.7047   -4.4118 O   0  0  0  0  0  0  0  0  0  0  0  0
   -0.5132    1.1562   -2.1650 O   0  0  0  0  0  0  0  0  0  0  0  0
   -0.6515    2.0834   -1.1029 C   0  0  0  0  0  0  0  0  0  0  0  0
   -2.7926   -5.5572   -1.0501 H   0  0  0  0  0  0  0  0  0  0  0  0
   -3.8968   -5.5455    0.3440 H   0  0  0  0  0  0  0  0  0  0  0  0
   -2.4709   -6.5824    0.3553 H   0  0  0  0  0  0  0  0  0  0  0  0
   -2.1262   -4.5341    1.7715 H   0  0  0  0  0  0  0  0  0  0  0  0
   -0.9606   -4.7474    0.4738 H   0  0  0  0  0  0  0  0  0  0  0  0
   -4.3526   -3.4268   -0.1807 H   0  0  0  0  0  0  0  0  0  0  0  0
   -3.8475   -1.7828   -0.2149 H   0  0  0  0  0  0  0  0  0  0  0  0
   -4.1145   -3.4804    2.3284 H   0  0  0  0  0  0  0  0  0  0  0  0
   -5.2136   -2.2209    1.7644 H   0  0  0  0  0  0  0  0  0  0  0  0
   -3.5900   -1.7823    2.2966 H   0  0  0  0  0  0  0  0  0  0  0  0
   -1.3704   -2.1084    1.7644 H   0  0  0  0  0  0  0  0  0  0  0  0
   -0.2939   -2.6067    0.4709 H   0  0  0  0  0  0  0  0  0  0  0  0
   -2.3158   -0.3286    0.3132 H   0  0  0  0  0  0  0  0  0  0  0  0
   -1.3786   -0.8987   -1.0576 H   0  0  0  0  0  0  0  0  0  0  0  0
   -0.2242   -0.0061    1.6059 H   0  0  0  0  0  0  0  0  0  0  0  0
    0.7138   -1.2542   -1.7632 H   0  0  0  0  0  0  0  0  0  0  0  0
    2.9698   -1.7927   -2.3513 H   0  0  0  0  0  0  0  0  0  0  0  0
    5.0711   -1.7291   -3.0020 H   0  0  0  0  0  0  0  0  0  0  0  0
    6.5615   -2.2451   -2.2499 H   0  0  0  0  0  0  0  0  0  0  0  0
    5.0707   -3.1172   -1.8695 H   0  0  0  0  0  0  0  0  0  0  0  0
    5.9829   -1.9165    0.9065 H   0  0  0  0  0  0  0  0  0  0  0  0
    7.2288   -1.5330   -0.2855 H   0  0  0  0  0  0  0  0  0  0  0  0
    6.3999   -0.2199    0.5172 H   0  0  0  0  0  0  0  0  0  0  0  0
    4.3774    0.1518    1.2331 H   0  0  0  0  0  0  0  0  0  0  0  0
    2.0996    0.6896    1.8221 H   0  0  0  0  0  0  0  0  0  0  0  0
   -0.0145    3.7173    3.6521 H   0  0  0  0  0  0  0  0  0  0  0  0
   -0.6644    2.3420    4.5538 H   0  0  0  0  0  0  0  0  0  0  0  0
   -1.7820    3.3322    3.6070 H   0  0  0  0  0  0  0  0  0  0  0  0
   -1.0400    4.5914    1.7921 H   0  0  0  0  0  0  0  0  0  0  0  0
   -1.5238    7.5899   -0.1253 H   0  0  0  0  0  0  0  0  0  0  0  0
   -2.1997    6.4210    1.0151 H   0  0  0  0  0  0  0  0  0  0  0  0
   -0.4123    6.6653    0.8930 H   0  0  0  0  0  0  0  0  0  0  0  0
   -1.2100    4.8685   -3.0336 H   0  0  0  0  0  0  0  0  0  0  0  0
   -0.9365    3.2055   -4.8222 H   0  0  0  0  0  0  0  0  0  0  0  0
  1  2  1  0
  2  3  1  0
  3  4  1  0
  4  5  1  0
  3  6  1  0
  6  7  1  0
  7  8  1  0
  8  9  1  0
  9 10  2  0
 10 11  1  0
 11 12  2  0
 12 13  1  0
 13 14  1  0
 13 15  1  0
 12 16  1  0
 16 17  2  0
  8 18  1  0
 18 19  2  0
 19 20  1  0
 20 21  1  0
 19 22  1  0
 22 23  2  0
 23 24  1  0
 24 25  1  0
 23 26  1  0
 26 27  1  0
 27 28  2  0
 28 29  1  0
 29 30  2  0
 29 31  1  0
 31 32  1  0
 17  9  1  0
 32 18  1  0
 32 26  2  0
  1 33  1  0
  1 34  1  0
  1 35  1  0
  2 36  1  0
  2 37  1  0
  4 38  1  0
  4 39  1  0
  5 40  1  0
  5 41  1  0
  5 42  1  0
  6 43  1  0
  6 44  1  0
  7 45  1  0
  7 46  1  0
  8 47  1  0
 10 48  1  0
 11 49  1  0
 14 50  1  0
 14 51  1  0
 14 52  1  0
 15 53  1  0
 15 54  1  0
 15 55  1  0
 16 56  1  0
 17 57  1  0
 21 58  1  0
 21 59  1  0
 21 60  1  0
 22 61  1  0
 25 62  1  0
 25 63  1  0
 25 64  1  0
 27 65  1  0
 28 66  1  0
M  END
$$$$
