
     RDKit          3D

 52 55  0  0  0  0  0  0  0  0999 V2000
    8.8386   -0.3406    0.8678 C   0  0  0  0  0  0  0  0  0  0  0  0
    8.2352    1.0362    0.6511 C   0  0  0  0  0  0  0  0  0  0  0  0
    7.3239    1.0235   -0.4454 O   0  0  0  0  0  0  0  0  0  0  0  0
    6.0161    0.7028   -0.2186 C   0  0  0  0  0  0  0  0  0  0  0  0
    5.1977    0.7793   -1.3468 C   0  0  0  0  0  0  0  0  0  0  0  0
    3.8328    0.4793   -1.2706 C   0  0  0  0  0  0  0  0  0  0  0  0
    3.2651    0.0917   -0.0586 C   0  0  0  0  0  0  0  0  0  0  0  0
    1.8979   -0.2069    0.1096 N   0  0  0  0  0  0  0  0  0  0  0  0
    0.9562   -0.4052   -0.8774 C   0  0  0  0  0  0  0  0  0  0  0  0
    1.2046   -0.4973   -2.0763 O   0  0  0  0  0  0  0  0  0  0  0  0
   -0.3535   -0.5146   -0.3936 N   0  0  0  0  0  0  0  0  0  0  0  0
   -1.4066   -0.8134   -1.3594 C   0  0  0  0  0  0  0  0  0  0  0  0
   -2.5604   -1.5951   -0.7392 C   0  0  0  0  0  0  0  0  0  0  0  0
   -3.0469   -0.9976    0.5912 C   0  0  0  0  0  0  0  0  0  0  0  0
   -4.4813   -0.7924    0.6575 N   0  0  0  0  0  0  0  0  0  0  0  0
   -5.3027   -1.3207    1.6820 C   0  0  0  0  0  0  0  0  0  0  0  0
   -4.9710   -2.0400    2.6096 O   0  0  0  0  0  0  0  0  0  0  0  0
   -6.5986   -0.8462    1.4432 N   0  0  0  0  0  0  0  0  0  0  0  0
   -6.5807   -0.0211    0.3273 C   0  0  0  0  0  0  0  0  0  0  0  0
   -7.6225    0.6726   -0.2455 C   0  0  0  0  0  0  0  0  0  0  0  0
   -7.3203    1.4512   -1.3648 C   0  0  0  0  0  0  0  0  0  0  0  0
   -6.0048    1.5146   -1.8680 C   0  0  0  0  0  0  0  0  0  0  0  0
   -4.9631    0.7991   -1.2638 C   0  0  0  0  0  0  0  0  0  0  0  0
   -5.2744    0.0295   -0.1637 C   0  0  0  0  0  0  0  0  0  0  0  0
   -2.2658    0.2482    1.0153 C   0  0  0  0  0  0  0  0  0  0  0  0
   -0.7682   -0.0139    0.9182 C   0  0  0  0  0  0  0  0  0  0  0  0
    4.0845    0.0214    1.0740 C   0  0  0  0  0  0  0  0  0  0  0  0
    5.4523    0.3187    0.9949 C   0  0  0  0  0  0  0  0  0  0  0  0
    9.3121   -0.6976   -0.0530 H   0  0  0  0  0  0  0  0  0  0  0  0
    9.5898   -0.3136    1.6622 H   0  0  0  0  0  0  0  0  0  0  0  0
    8.0756   -1.0762    1.1367 H   0  0  0  0  0  0  0  0  0  0  0  0
    9.0414    1.7251    0.3748 H   0  0  0  0  0  0  0  0  0  0  0  0
    7.7910    1.4483    1.5636 H   0  0  0  0  0  0  0  0  0  0  0  0
    5.6242    1.0794   -2.3013 H   0  0  0  0  0  0  0  0  0  0  0  0
    3.2407    0.5702   -2.1765 H   0  0  0  0  0  0  0  0  0  0  0  0
    1.6193   -0.4903    1.0346 H   0  0  0  0  0  0  0  0  0  0  0  0
   -1.0001   -1.3868   -2.2000 H   0  0  0  0  0  0  0  0  0  0  0  0
   -1.7528    0.1428   -1.7668 H   0  0  0  0  0  0  0  0  0  0  0  0
   -2.2147   -2.6193   -0.5430 H   0  0  0  0  0  0  0  0  0  0  0  0
   -3.3711   -1.6961   -1.4696 H   0  0  0  0  0  0  0  0  0  0  0  0
   -2.8259   -1.7601    1.3514 H   0  0  0  0  0  0  0  0  0  0  0  0
   -7.3883   -1.0648    2.0279 H   0  0  0  0  0  0  0  0  0  0  0  0
   -8.6301    0.6240    0.1483 H   0  0  0  0  0  0  0  0  0  0  0  0
   -8.1082    2.0190   -1.8559 H   0  0  0  0  0  0  0  0  0  0  0  0
   -5.7978    2.1309   -2.7413 H   0  0  0  0  0  0  0  0  0  0  0  0
   -3.9603    0.8635   -1.6632 H   0  0  0  0  0  0  0  0  0  0  0  0
   -2.5274    0.5302    2.0423 H   0  0  0  0  0  0  0  0  0  0  0  0
   -2.5285    1.1053    0.3843 H   0  0  0  0  0  0  0  0  0  0  0  0
   -0.2207    0.9093    1.1402 H   0  0  0  0  0  0  0  0  0  0  0  0
   -0.4698   -0.7646    1.6606 H   0  0  0  0  0  0  0  0  0  0  0  0
    3.6751   -0.2738    2.0368 H   0  0  0  0  0  0  0  0  0  0  0  0
    6.0424    0.2320    1.9001 H   0  0  0  0  0  0  0  0  0  0  0  0
  1  2  1  0
  2  3  1  0
  3  4  1  0
  4  5  2  0
  5  6  1  0
  6  7  2  0
  7  8  1  0
  8  9  1  0
  9 10  2  0
  9 11  1  0
 11 12  1  0
 12 13  1  0
 13 14  1  0
 14 15  1  0
 15 16  1  0
 16 17  2  0
 16 18  1  0
 18 19  1  0
 19 20  2  0
 20 21  1  0
 21 22  2  0
 22 23  1  0
 23 24  2  0
 14 25  1  0
 25 26  1  0
  7 27  1  0
 27 28  2  0
 28  4  1  0
 26 11  1  0
 24 15  1  0
 24 19  1  0
  1 29  1  0
  1 30  1  0
  1 31  1  0
  2 32  1  0
  2 33  1  0
  5 34  1  0
  6 35  1  0
  8 36  1  0
 12 37  1  0
 12 38  1  0
 13 39  1  0
 13 40  1  0
 14 41  1  0
 18 42  1  0
 20 43  1  0
 21 44  1  0
 22 45  1  0
 23 46  1  0
 25 47  1  0
 25 48  1  0
 26 49  1  0
 26 50  1  0
 27 51  1  0
 28 52  1  0
M  END
$$$$
