
     RDKit          3D

 53 56  0  0  0  0  0  0  0  0999 V2000
    7.4301    2.8248   -0.5277 C   0  0  0  0  0  0  0  0  0  0  0  0
    7.3834    1.7312    0.5302 C   0  0  0  0  0  0  0  0  0  0  0  0
    6.2446    0.7411    0.2934 C   0  0  0  0  0  0  0  0  0  0  0  0
    5.0015    1.4321    0.4092 O   0  0  0  0  0  0  0  0  0  0  0  0
    3.8623    0.7012    0.2209 C   0  0  0  0  0  0  0  0  0  0  0  0
    2.6773    1.4272    0.3289 C   0  0  0  0  0  0  0  0  0  0  0  0
    1.4366    0.8011    0.1587 C   0  0  0  0  0  0  0  0  0  0  0  0
    1.3404   -0.5730   -0.1251 C   0  0  0  0  0  0  0  0  0  0  0  0
    0.0323   -1.2376   -0.3054 C   0  0  0  0  0  0  0  0  0  0  0  0
   -1.0693   -0.4714   -0.2517 N   0  0  0  0  0  0  0  0  0  0  0  0
   -2.2601   -1.0777   -0.4083 C   0  0  0  0  0  0  0  0  0  0  0  0
   -3.4387   -0.2903   -0.3028 N   0  0  0  0  0  0  0  0  0  0  0  0
   -3.2561    1.0898   -0.8181 C   0  0  0  0  0  0  0  0  0  0  0  0
   -3.0298    2.1212    0.3097 C   0  0  0  0  0  0  0  0  0  0  0  0
   -4.1074    2.1727    1.3259 N   0  0  0  0  0  0  0  0  0  0  0  0
   -5.0449    3.2626    1.0718 C   0  0  0  0  0  0  0  0  0  0  0  0
   -4.8229    0.8794    1.4132 C   0  0  0  0  0  0  0  0  0  0  0  0
   -3.9206   -0.3358    1.1042 C   0  0  0  0  0  0  0  0  0  0  0  0
   -2.3670   -2.4614   -0.6400 C   0  0  0  0  0  0  0  0  0  0  0  0
   -3.5822   -3.1612   -0.8526 C   0  0  0  0  0  0  0  0  0  0  0  0
   -3.5887   -4.5360   -1.0736 C   0  0  0  0  0  0  0  0  0  0  0  0
   -2.3848   -5.2257   -1.0908 C   0  0  0  0  0  0  0  0  0  0  0  0
   -1.1866   -4.5331   -0.8940 C   0  0  0  0  0  0  0  0  0  0  0  0
   -1.1561   -3.1608   -0.6737 C   0  0  0  0  0  0  0  0  0  0  0  0
    0.0280   -2.5664   -0.5062 N   0  0  0  0  0  0  0  0  0  0  0  0
    2.5505   -1.2854   -0.2278 C   0  0  0  0  0  0  0  0  0  0  0  0
    3.7952   -0.6608   -0.0581 C   0  0  0  0  0  0  0  0  0  0  0  0
    8.2741    3.4958   -0.3392 H   0  0  0  0  0  0  0  0  0  0  0  0
    6.5152    3.4254   -0.5211 H   0  0  0  0  0  0  0  0  0  0  0  0
    7.5536    2.3969   -1.5276 H   0  0  0  0  0  0  0  0  0  0  0  0
    8.3373    1.1925    0.5345 H   0  0  0  0  0  0  0  0  0  0  0  0
    7.2613    2.2030    1.5121 H   0  0  0  0  0  0  0  0  0  0  0  0
    6.3040   -0.0470    1.0537 H   0  0  0  0  0  0  0  0  0  0  0  0
    6.3454    0.3002   -0.7058 H   0  0  0  0  0  0  0  0  0  0  0  0
    2.7151    2.4914    0.5488 H   0  0  0  0  0  0  0  0  0  0  0  0
    0.5347    1.4033    0.2539 H   0  0  0  0  0  0  0  0  0  0  0  0
   -2.4527    1.1550   -1.5632 H   0  0  0  0  0  0  0  0  0  0  0  0
   -4.1732    1.3578   -1.3586 H   0  0  0  0  0  0  0  0  0  0  0  0
   -2.8563    3.1117   -0.1290 H   0  0  0  0  0  0  0  0  0  0  0  0
   -2.1025    1.8685    0.8386 H   0  0  0  0  0  0  0  0  0  0  0  0
   -5.8201    3.2915    1.8456 H   0  0  0  0  0  0  0  0  0  0  0  0
   -4.5291    4.2284    1.1086 H   0  0  0  0  0  0  0  0  0  0  0  0
   -5.5337    3.1701    0.0953 H   0  0  0  0  0  0  0  0  0  0  0  0
   -5.2333    0.7756    2.4242 H   0  0  0  0  0  0  0  0  0  0  0  0
   -5.6704    0.8574    0.7142 H   0  0  0  0  0  0  0  0  0  0  0  0
   -3.0861   -0.3473    1.8200 H   0  0  0  0  0  0  0  0  0  0  0  0
   -4.5009   -1.2528    1.2591 H   0  0  0  0  0  0  0  0  0  0  0  0
   -4.5253   -2.6187   -0.8562 H   0  0  0  0  0  0  0  0  0  0  0  0
   -4.5265   -5.0605   -1.2358 H   0  0  0  0  0  0  0  0  0  0  0  0
   -2.3695   -6.2988   -1.2631 H   0  0  0  0  0  0  0  0  0  0  0  0
   -0.2472   -5.0816   -0.9173 H   0  0  0  0  0  0  0  0  0  0  0  0
    2.5329   -2.3528   -0.4454 H   0  0  0  0  0  0  0  0  0  0  0  0
    4.6860   -1.2727   -0.1507 H   0  0  0  0  0  0  0  0  0  0  0  0
  1  2  1  0
  2  3  1  0
  3  4  1  0
  4  5  1  0
  5  6  2  0
  6  7  1  0
  7  8  2  0
  8  9  1  0
  9 10  2  0
 10 11  1  0
 11 12  1  0
 12 13  1  0
 13 14  1  0
 14 15  1  0
 15 16  1  0
 15 17  1  0
 17 18  1  0
 11 19  2  0
 19 20  1  0
 20 21  2  0
 21 22  1  0
 22 23  2  0
 23 24  1  0
 24 25  2  0
  8 26  1  0
 26 27  2  0
 27  5  1  0
 25  9  1  0
 18 12  1  0
 24 19  1  0
  1 28  1  0
  1 29  1  0
  1 30  1  0
  2 31  1  0
  2 32  1  0
  3 33  1  0
  3 34  1  0
  6 35  1  0
  7 36  1  0
 13 37  1  0
 13 38  1  0
 14 39  1  0
 14 40  1  0
 16 41  1  0
 16 42  1  0
 16 43  1  0
 17 44  1  0
 17 45  1  0
 18 46  1  0
 18 47  1  0
 20 48  1  0
 21 49  1  0
 22 50  1  0
 23 51  1  0
 26 52  1  0
 27 53  1  0
M  END
$$$$
