
     RDKit          3D

 46 46  0  0  0  0  0  0  0  0999 V2000
   -1.1664   -1.0455    0.7587 O   0  0  0  0  0  0  0  0  0  0  0  0
   -1.4504   -0.2537   -0.1329 C   0  0  0  0  0  0  0  0  0  0  0  0
   -0.5722   -0.0191   -1.3462 C   0  0  0  0  0  0  0  0  0  0  0  0
    0.7831   -0.6995   -1.1985 C   0  0  0  0  0  0  0  0  0  0  0  0
    1.6251   -0.0086   -0.1536 C   0  0  0  0  0  0  0  0  0  0  0  0
    1.5298    1.1729    0.1487 O   0  0  0  0  0  0  0  0  0  0  0  0
    2.5470   -0.8777    0.3479 O   0  0  0  0  0  0  0  0  0  0  0  0
    3.3979   -0.3560    1.3789 C   0  0  0  0  0  0  0  0  0  0  0  0
    4.6344    0.3093    0.7789 C   0  0  0  0  0  0  0  0  0  0  0  0
    5.4524   -0.6628   -0.0799 C   0  0  0  0  0  0  0  0  0  0  0  0
    6.7123   -0.0034   -0.6329 C   0  0  0  0  0  0  0  0  0  0  0  0
    7.4612    0.4548    0.4100 F   0  0  0  0  0  0  0  0  0  0  0  0
    6.3543    1.0951   -1.3556 F   0  0  0  0  0  0  0  0  0  0  0  0
    7.5310   -0.9661   -1.4958 C   0  0  0  0  0  0  0  0  0  0  0  0
    7.9196   -2.0585   -0.7917 F   0  0  0  0  0  0  0  0  0  0  0  0
    6.8143   -1.4185   -2.5550 F   0  0  0  0  0  0  0  0  0  0  0  0
    8.6511   -0.3873   -1.9879 F   0  0  0  0  0  0  0  0  0  0  0  0
   -2.6080    0.4948   -0.1541 N   0  0  0  0  0  0  0  0  0  0  0  0
   -3.6410    0.3450    0.8650 C   0  0  0  0  0  0  0  0  0  0  0  0
   -4.4235    1.6614    1.0089 C   0  0  0  0  0  0  0  0  0  0  0  0
   -5.8359    1.4262    1.5275 C   0  0  0  0  0  0  0  0  0  0  0  0
   -6.6489    0.5512    0.5717 C   0  0  0  0  0  0  0  0  0  0  0  0
   -5.7974   -0.4471   -0.2158 C   0  0  0  0  0  0  0  0  0  0  0  0
   -4.5496   -0.8602    0.5571 C   0  0  0  0  0  0  0  0  0  0  0  0
   -1.0923   -0.4373   -2.2159 H   0  0  0  0  0  0  0  0  0  0  0  0
   -0.4574    1.0593   -1.5045 H   0  0  0  0  0  0  0  0  0  0  0  0
    0.6536   -1.7528   -0.9247 H   0  0  0  0  0  0  0  0  0  0  0  0
    1.3300   -0.6541   -2.1462 H   0  0  0  0  0  0  0  0  0  0  0  0
    3.6953   -1.2027    2.0073 H   0  0  0  0  0  0  0  0  0  0  0  0
    2.8521    0.3402    2.0267 H   0  0  0  0  0  0  0  0  0  0  0  0
    5.2549    0.7029    1.5920 H   0  0  0  0  0  0  0  0  0  0  0  0
    4.3284    1.1592    0.1579 H   0  0  0  0  0  0  0  0  0  0  0  0
    4.8352   -1.0197   -0.9125 H   0  0  0  0  0  0  0  0  0  0  0  0
    5.7304   -1.5301    0.5305 H   0  0  0  0  0  0  0  0  0  0  0  0
   -2.8422    0.9917   -1.0040 H   0  0  0  0  0  0  0  0  0  0  0  0
   -3.1305    0.1358    1.8140 H   0  0  0  0  0  0  0  0  0  0  0  0
   -4.4855    2.1839    0.0449 H   0  0  0  0  0  0  0  0  0  0  0  0
   -3.8811    2.3348    1.6835 H   0  0  0  0  0  0  0  0  0  0  0  0
   -5.7830    0.9418    2.5107 H   0  0  0  0  0  0  0  0  0  0  0  0
   -6.3503    2.3820    1.6786 H   0  0  0  0  0  0  0  0  0  0  0  0
   -7.4113    0.0149    1.1497 H   0  0  0  0  0  0  0  0  0  0  0  0
   -7.1945    1.1840   -0.1389 H   0  0  0  0  0  0  0  0  0  0  0  0
   -6.4006   -1.3285   -0.4616 H   0  0  0  0  0  0  0  0  0  0  0  0
   -5.4983    0.0021   -1.1711 H   0  0  0  0  0  0  0  0  0  0  0  0
   -4.0076   -1.6353    0.0028 H   0  0  0  0  0  0  0  0  0  0  0  0
   -4.8655   -1.3187    1.5034 H   0  0  0  0  0  0  0  0  0  0  0  0
  1  2  2  0
  2  3  1  0
  3  4  1  0
  4  5  1  0
  5  6  2  0
  5  7  1  0
  7  8  1  0
  8  9  1  0
  9 10  1  0
 10 11  1  0
 11 12  1  0
 11 13  1  0
 11 14  1  0
 14 15  1  0
 14 16  1  0
 14 17  1  0
  2 18  1  0
 18 19  1  0
 19 20  1  0
 20 21  1  0
 21 22  1  0
 22 23  1  0
 23 24  1  0
 24 19  1  0
  3 25  1  0
  3 26  1  0
  4 27  1  0
  4 28  1  0
  8 29  1  0
  8 30  1  0
  9 31  1  0
  9 32  1  0
 10 33  1  0
 10 34  1  0
 18 35  1  0
 19 36  1  0
 20 37  1  0
 20 38  1  0
 21 39  1  0
 21 40  1  0
 22 41  1  0
 22 42  1  0
 23 43  1  0
 23 44  1  0
 24 45  1  0
 24 46  1  0
M  END
$$$$
