
     RDKit          3D

 26 27  0  0  0  0  0  0  0  0999 V2000
    6.1336    0.4208   -0.4424 C   0  0  0  0  0  0  0  0  0  0  0  0
    4.7597    0.1185   -0.0094 C   0  0  0  0  0  0  0  0  0  0  0  0
    4.3357   -0.5764    1.0231 N   0  0  0  0  0  0  0  0  0  0  0  0
    2.9580   -0.5487    0.9631 N   0  0  0  0  0  0  0  0  0  0  0  0
    2.6364    0.1601   -0.1005 C   0  0  0  0  0  0  0  0  0  0  0  0
    1.0171    0.4962   -0.6247 S   0  0  0  0  0  0  0  0  0  0  0  0
    0.0815   -0.3748    0.6640 C   0  0  0  0  0  0  0  0  0  0  0  0
   -1.4077   -0.2408    0.4435 C   0  0  0  0  0  0  0  0  0  0  0  0
   -2.0962   -1.1764   -0.3457 C   0  0  0  0  0  0  0  0  0  0  0  0
   -3.4698   -1.0472   -0.5662 C   0  0  0  0  0  0  0  0  0  0  0  0
   -4.1616    0.0292    0.0026 C   0  0  0  0  0  0  0  0  0  0  0  0
   -5.6047    0.1699   -0.2273 N   0  0  0  0  0  4  0  0  0  0  0  0
   -6.1805    1.1365    0.2929 O   0  0  0  0  0  0  0  0  0  0  0  0
   -6.1639   -0.6867   -0.9272 O   0  0  0  0  0  1  0  0  0  0  0  0
   -3.4882    0.9741    0.7865 C   0  0  0  0  0  0  0  0  0  0  0  0
   -2.1145    0.8368    1.0016 C   0  0  0  0  0  0  0  0  0  0  0  0
    3.7407    0.6188   -0.7709 O   0  0  0  0  0  0  0  0  0  0  0  0
    6.8618   -0.0287    0.2391 H   0  0  0  0  0  0  0  0  0  0  0  0
    6.3151    0.0257   -1.4463 H   0  0  0  0  0  0  0  0  0  0  0  0
    6.3017    1.5016   -0.4585 H   0  0  0  0  0  0  0  0  0  0  0  0
    0.3548   -1.4366    0.6691 H   0  0  0  0  0  0  0  0  0  0  0  0
    0.3414    0.0288    1.6497 H   0  0  0  0  0  0  0  0  0  0  0  0
   -1.5630   -2.0117   -0.7975 H   0  0  0  0  0  0  0  0  0  0  0  0
   -3.9795   -1.7862   -1.1812 H   0  0  0  0  0  0  0  0  0  0  0  0
   -4.0123    1.8179    1.2307 H   0  0  0  0  0  0  0  0  0  0  0  0
   -1.5957    1.5796    1.6058 H   0  0  0  0  0  0  0  0  0  0  0  0
  1  2  1  0
  2  3  2  0
  3  4  1  0
  4  5  2  0
  5  6  1  0
  6  7  1  0
  7  8  1  0
  8  9  2  0
  9 10  1  0
 10 11  2  0
 11 12  1  0
 12 13  2  0
 12 14  1  0
 11 15  1  0
 15 16  2  0
  5 17  1  0
 17  2  1  0
 16  8  1  0
  1 18  1  0
  1 19  1  0
  1 20  1  0
  7 21  1  0
  7 22  1  0
  9 23  1  0
 10 24  1  0
 15 25  1  0
 16 26  1  0
M  CHG  2  12   1  14  -1
M  END
$$$$
