
     RDKit          3D

 64 67  0  0  0  0  0  0  0  0999 V2000
    9.5978   -0.0792   -2.3256 C   0  0  0  0  0  0  0  0  0  0  0  0
    9.5094    0.1266   -0.8211 C   0  0  0  0  0  0  0  0  0  0  0  0
    8.1043   -0.0651   -0.3103 C   0  0  0  0  0  0  0  0  0  0  0  0
    7.6458   -1.3374    0.0463 C   0  0  0  0  0  0  0  0  0  0  0  0
    6.3361   -1.5171    0.5033 C   0  0  0  0  0  0  0  0  0  0  0  0
    5.4524   -0.4324    0.6112 C   0  0  0  0  0  0  0  0  0  0  0  0
    4.0777   -0.6368    1.0887 C   0  0  0  0  0  0  0  0  0  0  0  0
    3.0478    0.3349    1.2561 C   0  0  0  0  0  0  0  0  0  0  0  0
    1.9574   -0.3632    1.7162 C   0  0  0  0  0  0  0  0  0  0  0  0
    0.6223    0.0028    2.0705 C   0  0  0  0  0  0  0  0  0  0  0  0
    0.2009    1.1558    1.9952 O   0  0  0  0  0  0  0  0  0  0  0  0
   -0.1790   -1.0745    2.4899 N   0  0  0  0  0  0  0  0  0  0  0  0
   -1.5622   -0.8236    2.8848 C   0  0  0  0  0  0  0  0  0  0  0  0
   -2.4657   -0.7120    1.6580 C   0  0  0  0  0  0  0  0  0  0  0  0
   -3.2798   -1.5810    1.3543 O   0  0  0  0  0  0  0  0  0  0  0  0
   -2.3091    0.4524    0.9339 N   0  0  0  0  0  0  0  0  0  0  0  0
   -3.0489    0.7111   -0.2874 C   0  0  0  0  0  0  0  0  0  0  0  0
   -4.5168    1.1110   -0.0200 C   0  0  0  0  0  0  0  0  0  0  0  0
   -5.2492    1.5745   -1.2163 N   0  0  0  0  0  0  0  0  0  0  0  0
   -5.2049    0.5606   -2.2900 C   0  0  0  0  0  0  0  0  0  0  0  0
   -6.3214    0.7163   -3.3192 C   0  0  0  0  0  0  0  0  0  0  0  0
   -7.6902    0.5495   -2.6663 C   0  0  0  0  0  0  0  0  0  0  0  0
   -7.6985    1.0220   -1.2118 C   0  0  0  0  0  0  0  0  0  0  0  0
   -6.6180    2.0866   -0.9570 C   0  0  0  0  0  0  0  0  0  0  0  0
   -6.8433    2.7475    0.4096 C   0  0  0  0  0  0  0  0  0  0  0  0
    0.2608   -2.3997    2.5790 N   0  0  0  0  0  0  0  0  0  0  0  0
    1.4897   -2.6627    2.2387 C   0  0  0  0  0  0  0  0  0  0  0  0
    2.0726   -4.0384    2.2870 C   0  0  0  0  0  0  0  0  0  0  0  0
    2.3481   -1.6592    1.8052 N   0  0  0  0  0  0  0  0  0  0  0  0
    3.6286   -1.8583    1.4377 N   0  0  0  0  0  0  0  0  0  0  0  0
    5.9169    0.8394    0.2469 C   0  0  0  0  0  0  0  0  0  0  0  0
    7.2276    1.0206   -0.2114 C   0  0  0  0  0  0  0  0  0  0  0  0
    8.9604    0.6323   -2.8617 H   0  0  0  0  0  0  0  0  0  0  0  0
   10.6281    0.0641   -2.6673 H   0  0  0  0  0  0  0  0  0  0  0  0
    9.2844   -1.0899   -2.6082 H   0  0  0  0  0  0  0  0  0  0  0  0
    9.8626    1.1327   -0.5641 H   0  0  0  0  0  0  0  0  0  0  0  0
   10.1843   -0.5712   -0.3105 H   0  0  0  0  0  0  0  0  0  0  0  0
    8.3029   -2.2011   -0.0298 H   0  0  0  0  0  0  0  0  0  0  0  0
    6.0102   -2.5200    0.7735 H   0  0  0  0  0  0  0  0  0  0  0  0
    3.0868    1.3983    1.0649 H   0  0  0  0  0  0  0  0  0  0  0  0
   -1.6210    0.1071    3.4599 H   0  0  0  0  0  0  0  0  0  0  0  0
   -1.9173   -1.6406    3.5218 H   0  0  0  0  0  0  0  0  0  0  0  0
   -1.5758    1.1074    1.2063 H   0  0  0  0  0  0  0  0  0  0  0  0
   -2.9933   -0.1900   -0.9084 H   0  0  0  0  0  0  0  0  0  0  0  0
   -2.5248    1.5208   -0.8074 H   0  0  0  0  0  0  0  0  0  0  0  0
   -5.0495    0.2752    0.4510 H   0  0  0  0  0  0  0  0  0  0  0  0
   -4.4758    1.9194    0.7193 H   0  0  0  0  0  0  0  0  0  0  0  0
   -4.2419    0.6347   -2.8085 H   0  0  0  0  0  0  0  0  0  0  0  0
   -5.2740   -0.4523   -1.8704 H   0  0  0  0  0  0  0  0  0  0  0  0
   -6.2036   -0.0200   -4.1226 H   0  0  0  0  0  0  0  0  0  0  0  0
   -6.2521    1.7048   -3.7912 H   0  0  0  0  0  0  0  0  0  0  0  0
   -8.4327    1.1085   -3.2484 H   0  0  0  0  0  0  0  0  0  0  0  0
   -7.9999   -0.5023   -2.7004 H   0  0  0  0  0  0  0  0  0  0  0  0
   -8.6959    1.4094   -0.9705 H   0  0  0  0  0  0  0  0  0  0  0  0
   -7.5333    0.1633   -0.5474 H   0  0  0  0  0  0  0  0  0  0  0  0
   -6.7776    2.8900   -1.6904 H   0  0  0  0  0  0  0  0  0  0  0  0
   -7.8368    3.2090    0.4503 H   0  0  0  0  0  0  0  0  0  0  0  0
   -6.1125    3.5443    0.5879 H   0  0  0  0  0  0  0  0  0  0  0  0
   -6.7857    2.0238    1.2299 H   0  0  0  0  0  0  0  0  0  0  0  0
    2.9225   -4.0652    2.9753 H   0  0  0  0  0  0  0  0  0  0  0  0
    1.3194   -4.7497    2.6388 H   0  0  0  0  0  0  0  0  0  0  0  0
    2.4004   -4.3459    1.2896 H   0  0  0  0  0  0  0  0  0  0  0  0
    5.2742    1.7130    0.3081 H   0  0  0  0  0  0  0  0  0  0  0  0
    7.5581    2.0187   -0.4925 H   0  0  0  0  0  0  0  0  0  0  0  0
  1  2  1  0
  2  3  1  0
  3  4  2  0
  4  5  1  0
  5  6  2  0
  6  7  1  0
  7  8  1  0
  8  9  2  0
  9 10  1  0
 10 11  2  0
 10 12  1  0
 12 13  1  0
 13 14  1  0
 14 15  2  0
 14 16  1  0
 16 17  1  0
 17 18  1  0
 18 19  1  0
 19 20  1  0
 20 21  1  0
 21 22  1  0
 22 23  1  0
 23 24  1  0
 24 25  1  0
 12 26  1  0
 26 27  2  0
 27 28  1  0
 27 29  1  0
 29 30  1  0
  6 31  1  0
 31 32  2  0
 32  3  1  0
 30  7  2  0
 29  9  1  0
 24 19  1  0
  1 33  1  0
  1 34  1  0
  1 35  1  0
  2 36  1  0
  2 37  1  0
  4 38  1  0
  5 39  1  0
  8 40  1  0
 13 41  1  0
 13 42  1  0
 16 43  1  0
 17 44  1  0
 17 45  1  0
 18 46  1  0
 18 47  1  0
 20 48  1  0
 20 49  1  0
 21 50  1  0
 21 51  1  0
 22 52  1  0
 22 53  1  0
 23 54  1  0
 23 55  1  0
 24 56  1  0
 25 57  1  0
 25 58  1  0
 25 59  1  0
 28 60  1  0
 28 61  1  0
 28 62  1  0
 31 63  1  0
 32 64  1  0
M  END
$$$$
