
     RDKit          3D

 37 39  0  0  0  0  0  0  0  0999 V2000
   -0.6037   -2.3153    0.3881 O   0  0  0  0  0  0  0  0  0  0  0  0
   -0.4458   -1.1700    0.7897 C   0  0  0  0  0  0  0  0  0  0  0  0
    0.7553   -0.3519    0.4785 C   0  0  0  0  0  0  0  0  0  0  0  0
    1.7244   -0.8010   -0.3299 C   0  0  0  0  0  0  0  0  0  0  0  0
    2.9309   -0.0603   -0.7235 C   0  0  0  0  0  0  0  0  0  0  0  0
    3.9178    0.2407    0.2246 C   0  0  0  0  0  0  0  0  0  0  0  0
    5.0662    0.9430   -0.1671 C   0  0  0  0  0  0  0  0  0  0  0  0
    6.0969    1.2621    0.8290 N   0  0  0  0  0  4  0  0  0  0  0  0
    5.9218    0.8626    1.9887 O   0  0  0  0  0  0  0  0  0  0  0  0
    7.0829    1.9097    0.4493 O   0  0  0  0  0  1  0  0  0  0  0  0
    5.2434    1.3407   -1.4997 C   0  0  0  0  0  0  0  0  0  0  0  0
    4.2663    1.0305   -2.4475 C   0  0  0  0  0  0  0  0  0  0  0  0
    3.1223    0.3323   -2.0575 C   0  0  0  0  0  0  0  0  0  0  0  0
    2.1634    0.0233   -2.9832 O   0  0  0  0  0  0  0  0  0  0  0  0
    0.6541    1.1698    1.2638 S   0  0  0  0  0  0  0  0  0  0  0  0
   -0.9103    0.8004    1.9823 C   0  0  0  0  0  0  0  0  0  0  0  0
   -1.6864    1.8835    2.9865 S   0  0  0  0  0  0  0  0  0  0  0  0
   -1.3177   -0.4592    1.5960 N   0  0  0  0  0  0  0  0  0  0  0  0
   -2.5795   -1.0852    1.9854 C   0  0  0  0  0  0  0  0  0  0  0  0
   -3.7033   -0.7635    1.0209 C   0  0  0  0  0  0  0  0  0  0  0  0
   -3.7765   -1.4033   -0.2270 C   0  0  0  0  0  0  0  0  0  0  0  0
   -4.8027   -1.0990   -1.1249 C   0  0  0  0  0  0  0  0  0  0  0  0
   -5.7649   -0.1532   -0.7818 C   0  0  0  0  0  0  0  0  0  0  0  0
   -7.0278    0.2231   -1.8874 Cl  0  0  0  0  0  0  0  0  0  0  0  0
   -5.7109    0.4882    0.4529 C   0  0  0  0  0  0  0  0  0  0  0  0
   -4.6849    0.1833    1.3515 C   0  0  0  0  0  0  0  0  0  0  0  0
    1.6269   -1.7796   -0.7984 H   0  0  0  0  0  0  0  0  0  0  0  0
    3.7863   -0.0727    1.2588 H   0  0  0  0  0  0  0  0  0  0  0  0
    6.1319    1.8861   -1.8128 H   0  0  0  0  0  0  0  0  0  0  0  0
    4.4129    1.3385   -3.4791 H   0  0  0  0  0  0  0  0  0  0  0  0
    2.4227    0.3793   -3.8492 H   0  0  0  0  0  0  0  0  0  0  0  0
   -2.4543   -2.1745    2.0282 H   0  0  0  0  0  0  0  0  0  0  0  0
   -2.8522   -0.7750    3.0000 H   0  0  0  0  0  0  0  0  0  0  0  0
   -3.0359   -2.1501   -0.5103 H   0  0  0  0  0  0  0  0  0  0  0  0
   -4.8440   -1.6037   -2.0865 H   0  0  0  0  0  0  0  0  0  0  0  0
   -6.4620    1.2259    0.7231 H   0  0  0  0  0  0  0  0  0  0  0  0
   -4.6634    0.6943    2.3123 H   0  0  0  0  0  0  0  0  0  0  0  0
  1  2  2  0
  2  3  1  0
  3  4  2  3
  4  5  1  0
  5  6  2  0
  6  7  1  0
  7  8  1  0
  8  9  2  0
  8 10  1  0
  7 11  2  0
 11 12  1  0
 12 13  2  0
 13 14  1  0
  3 15  1  0
 15 16  1  0
 16 17  2  0
 16 18  1  0
 18 19  1  0
 19 20  1  0
 20 21  2  0
 21 22  1  0
 22 23  2  0
 23 24  1  0
 23 25  1  0
 25 26  2  0
 18  2  1  0
 26 20  1  0
 13  5  1  0
  4 27  1  0
  6 28  1  0
 11 29  1  0
 12 30  1  0
 14 31  1  0
 19 32  1  0
 19 33  1  0
 21 34  1  0
 22 35  1  0
 25 36  1  0
 26 37  1  0
M  CHG  2   8   1  10  -1
M  END
$$$$
