
     RDKit          3D

 67 71  0  0  0  0  0  0  0  0999 V2000
    7.4915    1.4016    0.7778 O   0  0  0  0  0  0  0  0  0  0  0  0
    6.5072    1.6068    1.4678 C   0  0  0  0  0  0  0  0  0  0  0  0
    6.5025    1.7423    2.9706 C   0  0  0  0  0  0  0  0  0  0  0  0
    5.1249    2.3266    3.2613 C   0  0  0  0  0  0  0  0  0  0  0  0
    4.2614    1.8081    2.1279 C   0  0  0  0  0  0  0  0  0  0  0  0
    5.1922    1.6902    1.0333 N   0  0  0  0  0  0  0  0  0  0  0  0
    4.7719    1.4874   -0.3421 C   0  0  0  0  0  0  0  0  0  0  0  0
    4.9447    0.0562   -0.8489 C   0  0  0  0  0  0  0  0  0  0  0  0
    4.1194   -0.9554   -0.0619 C   0  0  0  0  0  0  0  0  0  0  0  0
    4.1558   -2.2590   -0.7091 N   0  0  0  0  0  0  0  0  0  0  0  0
    3.3590   -2.5851   -1.7842 C   0  0  0  0  0  0  0  0  0  0  0  0
    3.6767   -3.8457   -2.5369 C   0  0  0  0  0  0  0  0  0  0  0  0
    2.9151   -4.1871   -3.5837 C   0  0  0  0  0  0  0  0  0  0  0  0
    1.8436   -3.3502   -3.9439 C   0  0  0  0  0  0  0  0  0  0  0  0
    0.9315   -3.4183   -4.8885 N   0  0  0  0  0  0  0  0  0  0  0  0
    0.1212   -2.3095   -4.7686 N   0  0  0  0  0  0  0  0  0  0  0  0
    0.5633   -1.5895   -3.7550 C   0  0  0  0  0  0  0  0  0  0  0  0
    0.0012   -0.3117   -3.2453 C   0  0  0  0  0  0  0  0  0  0  0  0
   -1.0883   -0.5745   -2.2095 C   0  0  0  0  0  0  0  0  0  0  0  0
   -1.6221    0.7161   -1.6162 C   0  0  0  0  0  0  0  0  0  0  0  0
   -1.1360    1.8069   -1.9165 O   0  0  0  0  0  0  0  0  0  0  0  0
   -2.6866    0.6030   -0.7268 N   0  0  0  0  0  0  0  0  0  0  0  0
   -3.0655   -0.6563   -0.0677 C   0  0  0  0  0  0  0  0  0  0  0  0
   -4.5369   -0.6747    0.3878 C   0  0  0  0  0  0  0  0  0  0  0  0
   -4.8420    0.5210    1.1987 N   0  0  0  0  0  0  0  0  0  0  0  0
   -6.0670    0.5479    1.8883 C   0  0  0  0  0  0  0  0  0  0  0  0
   -7.1411   -0.3077    1.6030 C   0  0  0  0  0  0  0  0  0  0  0  0
   -8.3390   -0.2418    2.3254 C   0  0  0  0  0  0  0  0  0  0  0  0
   -8.4847    0.6784    3.3585 C   0  0  0  0  0  0  0  0  0  0  0  0
   -7.4307    1.5286    3.6720 C   0  0  0  0  0  0  0  0  0  0  0  0
   -6.2381    1.4592    2.9451 C   0  0  0  0  0  0  0  0  0  0  0  0
   -4.5656    1.7785    0.4597 C   0  0  0  0  0  0  0  0  0  0  0  0
   -3.1011    1.8171   -0.0119 C   0  0  0  0  0  0  0  0  0  0  0  0
    1.6496   -2.2149   -3.1902 N   0  0  0  0  0  0  0  0  0  0  0  0
    2.3655   -1.7998   -2.1072 N   0  0  0  0  0  0  0  0  0  0  0  0
    6.6187    0.7491    3.4151 H   0  0  0  0  0  0  0  0  0  0  0  0
    7.3025    2.4058    3.3077 H   0  0  0  0  0  0  0  0  0  0  0  0
    4.7430    2.0501    4.2481 H   0  0  0  0  0  0  0  0  0  0  0  0
    5.1775    3.4219    3.2161 H   0  0  0  0  0  0  0  0  0  0  0  0
    3.4534    2.5014    1.8768 H   0  0  0  0  0  0  0  0  0  0  0  0
    3.8497    0.8193    2.3519 H   0  0  0  0  0  0  0  0  0  0  0  0
    5.3902    2.1466   -0.9636 H   0  0  0  0  0  0  0  0  0  0  0  0
    3.7320    1.8174   -0.4461 H   0  0  0  0  0  0  0  0  0  0  0  0
    4.6553    0.0340   -1.9069 H   0  0  0  0  0  0  0  0  0  0  0  0
    6.0015   -0.2352   -0.8154 H   0  0  0  0  0  0  0  0  0  0  0  0
    4.5340   -1.0702    0.9454 H   0  0  0  0  0  0  0  0  0  0  0  0
    3.0853   -0.6134    0.0602 H   0  0  0  0  0  0  0  0  0  0  0  0
    5.0479   -2.7353   -0.6283 H   0  0  0  0  0  0  0  0  0  0  0  0
    4.5113   -4.4508   -2.2092 H   0  0  0  0  0  0  0  0  0  0  0  0
    3.0981   -5.0869   -4.1586 H   0  0  0  0  0  0  0  0  0  0  0  0
   -0.4153    0.2567   -4.0862 H   0  0  0  0  0  0  0  0  0  0  0  0
    0.7978    0.3110   -2.8201 H   0  0  0  0  0  0  0  0  0  0  0  0
   -0.6852   -1.1877   -1.3948 H   0  0  0  0  0  0  0  0  0  0  0  0
   -1.9160   -1.1155   -2.6830 H   0  0  0  0  0  0  0  0  0  0  0  0
   -2.4016   -0.7698    0.7981 H   0  0  0  0  0  0  0  0  0  0  0  0
   -2.8918   -1.5092   -0.7282 H   0  0  0  0  0  0  0  0  0  0  0  0
   -4.7019   -1.5894    0.9700 H   0  0  0  0  0  0  0  0  0  0  0  0
   -5.1826   -0.7036   -0.4996 H   0  0  0  0  0  0  0  0  0  0  0  0
   -7.0815   -1.0354    0.8000 H   0  0  0  0  0  0  0  0  0  0  0  0
   -9.1573   -0.9120    2.0757 H   0  0  0  0  0  0  0  0  0  0  0  0
   -9.4135    0.7275    3.9202 H   0  0  0  0  0  0  0  0  0  0  0  0
   -7.5274    2.2426    4.4853 H   0  0  0  0  0  0  0  0  0  0  0  0
   -5.4187    2.1150    3.2292 H   0  0  0  0  0  0  0  0  0  0  0  0
   -4.7436    2.6662    1.0773 H   0  0  0  0  0  0  0  0  0  0  0  0
   -5.2315    1.8406   -0.4114 H   0  0  0  0  0  0  0  0  0  0  0  0
   -2.9498    2.6992   -0.6437 H   0  0  0  0  0  0  0  0  0  0  0  0
   -2.4343    1.9154    0.8540 H   0  0  0  0  0  0  0  0  0  0  0  0
  1  2  2  0
  2  3  1  0
  3  4  1  0
  4  5  1  0
  5  6  1  0
  6  7  1  0
  7  8  1  0
  8  9  1  0
  9 10  1  0
 10 11  1  0
 11 12  1  0
 12 13  2  0
 13 14  1  0
 14 15  2  0
 15 16  1  0
 16 17  2  0
 17 18  1  0
 18 19  1  0
 19 20  1  0
 20 21  2  0
 20 22  1  0
 22 23  1  0
 23 24  1  0
 24 25  1  0
 25 26  1  0
 26 27  2  0
 27 28  1  0
 28 29  2  0
 29 30  1  0
 30 31  2  0
 25 32  1  0
 32 33  1  0
 17 34  1  0
 34 35  1  0
  6  2  1  0
 35 11  2  0
 34 14  1  0
 33 22  1  0
 31 26  1  0
  3 36  1  0
  3 37  1  0
  4 38  1  0
  4 39  1  0
  5 40  1  0
  5 41  1  0
  7 42  1  0
  7 43  1  0
  8 44  1  0
  8 45  1  0
  9 46  1  0
  9 47  1  0
 10 48  1  0
 12 49  1  0
 13 50  1  0
 18 51  1  0
 18 52  1  0
 19 53  1  0
 19 54  1  0
 23 55  1  0
 23 56  1  0
 24 57  1  0
 24 58  1  0
 27 59  1  0
 28 60  1  0
 29 61  1  0
 30 62  1  0
 31 63  1  0
 32 64  1  0
 32 65  1  0
 33 66  1  0
 33 67  1  0
M  END
$$$$
