
     RDKit          3D

 45 47  0  0  0  0  0  0  0  0999 V2000
    2.6155    1.4174    1.5815 O   0  0  0  0  0  0  0  0  0  0  0  0
    2.3164    0.7046    0.6259 C   0  0  0  0  0  0  0  0  0  0  0  0
    3.1814    0.4828   -0.4294 N   0  0  0  0  0  0  0  0  0  0  0  0
    4.5063    0.9401   -0.2627 N   0  0  0  0  0  0  0  0  0  0  0  0
    5.5279    0.1134   -0.7123 C   0  0  0  0  0  0  0  0  0  0  0  0
    5.2586   -0.8678   -1.4102 O   0  0  0  0  0  0  0  0  0  0  0  0
    6.8680    0.4941   -0.2861 C   0  0  0  0  0  0  0  0  0  0  0  0
    7.3124    1.6342    0.3634 C   0  0  0  0  0  0  0  0  0  0  0  0
    8.7187    1.6168    0.6050 C   0  0  0  0  0  0  0  0  0  0  0  0
    9.3085    0.4690    0.1295 C   0  0  0  0  0  0  0  0  0  0  0  0
    8.1748   -0.5757   -0.6052 S   0  0  0  0  0  0  0  0  0  0  0  0
    1.0009    0.0092    0.5717 C   0  0  0  0  0  0  0  0  0  0  0  0
    0.3074   -0.1895    1.7759 C   0  0  0  0  0  0  0  0  0  0  0  0
   -0.9332   -0.8312    1.7806 C   0  0  0  0  0  0  0  0  0  0  0  0
   -1.4854   -1.2602    0.5719 C   0  0  0  0  0  0  0  0  0  0  0  0
   -3.0619   -2.0811    0.5491 S   0  0  0  0  0  6  0  0  0  0  0  0
   -2.9320   -3.2242   -0.3288 O   0  0  0  0  0  0  0  0  0  0  0  0
   -3.5230   -2.2315    1.9132 O   0  0  0  0  0  0  0  0  0  0  0  0
   -4.0664   -0.9250   -0.2123 N   0  0  0  0  0  0  0  0  0  0  0  0
   -4.1796    0.3864    0.4937 C   0  0  0  0  0  0  0  0  0  0  0  0
   -5.4759    1.1241    0.1555 C   0  0  0  0  0  0  0  0  0  0  0  0
   -5.8545    0.9470   -1.3075 C   0  0  0  0  0  0  0  0  0  0  0  0
   -5.9921   -0.5300   -1.6796 C   0  0  0  0  0  0  0  0  0  0  0  0
   -5.3748   -1.4712   -0.6462 C   0  0  0  0  0  0  0  0  0  0  0  0
   -0.8072   -1.0655   -0.6359 C   0  0  0  0  0  0  0  0  0  0  0  0
    0.4349   -0.4247   -0.6364 C   0  0  0  0  0  0  0  0  0  0  0  0
    3.0900   -0.3413   -1.0248 H   0  0  0  0  0  0  0  0  0  0  0  0
    4.6453    1.5558    0.5363 H   0  0  0  0  0  0  0  0  0  0  0  0
    6.6737    2.4595    0.6534 H   0  0  0  0  0  0  0  0  0  0  0  0
    9.2689    2.4086    1.0993 H   0  0  0  0  0  0  0  0  0  0  0  0
   10.3532    0.1922    0.1736 H   0  0  0  0  0  0  0  0  0  0  0  0
    0.7373    0.1508    2.7171 H   0  0  0  0  0  0  0  0  0  0  0  0
   -1.4548   -0.9897    2.7222 H   0  0  0  0  0  0  0  0  0  0  0  0
   -3.3305    1.0038    0.1781 H   0  0  0  0  0  0  0  0  0  0  0  0
   -4.1203    0.2638    1.5800 H   0  0  0  0  0  0  0  0  0  0  0  0
   -6.2899    0.7470    0.7877 H   0  0  0  0  0  0  0  0  0  0  0  0
   -5.3669    2.1881    0.3943 H   0  0  0  0  0  0  0  0  0  0  0  0
   -5.0826    1.4077   -1.9369 H   0  0  0  0  0  0  0  0  0  0  0  0
   -6.7893    1.4755   -1.5258 H   0  0  0  0  0  0  0  0  0  0  0  0
   -7.0507   -0.7867   -1.8051 H   0  0  0  0  0  0  0  0  0  0  0  0
   -5.5200   -0.6903   -2.6569 H   0  0  0  0  0  0  0  0  0  0  0  0
   -6.0370   -1.5880    0.2199 H   0  0  0  0  0  0  0  0  0  0  0  0
   -5.2570   -2.4566   -1.1087 H   0  0  0  0  0  0  0  0  0  0  0  0
   -1.2462   -1.4051   -1.5726 H   0  0  0  0  0  0  0  0  0  0  0  0
    0.9311   -0.2567   -1.5887 H   0  0  0  0  0  0  0  0  0  0  0  0
  1  2  2  0
  2  3  1  0
  3  4  1  0
  4  5  1  0
  5  6  2  0
  5  7  1  0
  7  8  2  0
  8  9  1  0
  9 10  2  0
 10 11  1  0
  2 12  1  0
 12 13  2  0
 13 14  1  0
 14 15  2  0
 15 16  1  0
 16 17  2  0
 16 18  2  0
 16 19  1  0
 19 20  1  0
 20 21  1  0
 21 22  1  0
 22 23  1  0
 23 24  1  0
 15 25  1  0
 25 26  2  0
 11  7  1  0
 26 12  1  0
 24 19  1  0
  3 27  1  0
  4 28  1  0
  8 29  1  0
  9 30  1  0
 10 31  1  0
 13 32  1  0
 14 33  1  0
 20 34  1  0
 20 35  1  0
 21 36  1  0
 21 37  1  0
 22 38  1  0
 22 39  1  0
 23 40  1  0
 23 41  1  0
 24 42  1  0
 24 43  1  0
 25 44  1  0
 26 45  1  0
M  END
$$$$
