
     RDKit          3D

 60 61  0  0  0  0  0  0  0  0999 V2000
   -0.8607   -3.6071   -1.0461 C   0  0  0  0  0  0  0  0  0  0  0  0
   -0.7593   -2.5116   -0.1448 O   0  0  0  0  0  0  0  0  0  0  0  0
    0.3185   -1.6724   -0.2743 C   0  0  0  0  0  0  0  0  0  0  0  0
    1.3892   -1.9138   -1.1408 C   0  0  0  0  0  0  0  0  0  0  0  0
    2.4506   -1.0131   -1.2195 C   0  0  0  0  0  0  0  0  0  0  0  0
    2.4529    0.1497   -0.4428 C   0  0  0  0  0  0  0  0  0  0  0  0
    3.6260    1.0519   -0.5982 C   0  0  0  0  0  0  0  0  0  0  0  0
    4.7381    0.5578   -0.7454 O   0  0  0  0  0  0  0  0  0  0  0  0
    3.3596    2.5179   -0.6785 C   0  0  0  0  0  0  0  0  0  0  0  0
    4.2481    3.5187   -0.5703 C   0  0  0  0  0  0  0  0  0  0  0  0
    5.6928    3.4430   -0.3355 C   0  0  0  0  0  0  0  0  0  0  0  0
    6.5596    2.8442   -1.2566 C   0  0  0  0  0  0  0  0  0  0  0  0
    7.9388    2.8269   -1.0276 C   0  0  0  0  0  0  0  0  0  0  0  0
    8.4491    3.4267    0.1192 C   0  0  0  0  0  0  0  0  0  0  0  0
    9.7878    3.4340    0.3802 O   0  0  0  0  0  0  0  0  0  0  0  0
    7.6056    4.0413    1.0362 C   0  0  0  0  0  0  0  0  0  0  0  0
    6.2277    4.0519    0.8079 C   0  0  0  0  0  0  0  0  0  0  0  0
    1.3960    0.3875    0.4508 C   0  0  0  0  0  0  0  0  0  0  0  0
    1.4589    1.5136    1.2308 O   0  0  0  0  0  0  0  0  0  0  0  0
    0.3151   -0.5195    0.5487 C   0  0  0  0  0  0  0  0  0  0  0  0
   -0.8558   -0.2756    1.4877 C   0  0  0  0  0  0  0  0  0  0  0  0
   -1.8228    0.7503    0.9511 C   0  0  0  0  0  0  0  0  0  0  0  0
   -3.1563    0.6260    0.7886 C   0  0  0  0  0  0  0  0  0  0  0  0
   -3.9646    1.7666    0.2223 C   0  0  0  0  0  0  0  0  0  0  0  0
   -3.9618   -0.6027    1.1608 C   0  0  0  0  0  0  0  0  0  0  0  0
   -4.3015   -1.4691   -0.0566 C   0  0  0  0  0  0  0  0  0  0  0  0
   -4.9804   -2.7489    0.3525 C   0  0  0  0  0  0  0  0  0  0  0  0
   -6.2917   -3.0481    0.2749 C   0  0  0  0  0  0  0  0  0  0  0  0
   -7.3648   -2.1138   -0.2125 C   0  0  0  0  0  0  0  0  0  0  0  0
   -6.7978   -4.3999    0.7068 C   0  0  0  0  0  0  0  0  0  0  0  0
   -0.0539   -4.3281   -0.8803 H   0  0  0  0  0  0  0  0  0  0  0  0
   -0.8816   -3.2644   -2.0857 H   0  0  0  0  0  0  0  0  0  0  0  0
   -1.8076   -4.1173   -0.8455 H   0  0  0  0  0  0  0  0  0  0  0  0
    1.4349   -2.7992   -1.7668 H   0  0  0  0  0  0  0  0  0  0  0  0
    3.2811   -1.2201   -1.8927 H   0  0  0  0  0  0  0  0  0  0  0  0
    2.3164    2.7863   -0.8214 H   0  0  0  0  0  0  0  0  0  0  0  0
    3.8713    4.5389   -0.6222 H   0  0  0  0  0  0  0  0  0  0  0  0
    6.1633    2.3691   -2.1514 H   0  0  0  0  0  0  0  0  0  0  0  0
    8.5876    2.3406   -1.7490 H   0  0  0  0  0  0  0  0  0  0  0  0
   10.2350    2.9229   -0.3138 H   0  0  0  0  0  0  0  0  0  0  0  0
    8.0176    4.5071    1.9262 H   0  0  0  0  0  0  0  0  0  0  0  0
    5.5752    4.5327    1.5320 H   0  0  0  0  0  0  0  0  0  0  0  0
    0.7749    1.4992    1.9182 H   0  0  0  0  0  0  0  0  0  0  0  0
   -1.3494   -1.2215    1.7261 H   0  0  0  0  0  0  0  0  0  0  0  0
   -0.4768    0.0664    2.4586 H   0  0  0  0  0  0  0  0  0  0  0  0
   -1.3647    1.6939    0.6547 H   0  0  0  0  0  0  0  0  0  0  0  0
   -4.4590    1.4650   -0.7062 H   0  0  0  0  0  0  0  0  0  0  0  0
   -3.3460    2.6416   -0.0039 H   0  0  0  0  0  0  0  0  0  0  0  0
   -4.7301    2.0809    0.9394 H   0  0  0  0  0  0  0  0  0  0  0  0
   -4.8878   -0.2826    1.6574 H   0  0  0  0  0  0  0  0  0  0  0  0
   -3.4365   -1.2030    1.9115 H   0  0  0  0  0  0  0  0  0  0  0  0
   -3.3848   -1.7333   -0.5971 H   0  0  0  0  0  0  0  0  0  0  0  0
   -4.9084   -0.9064   -0.7725 H   0  0  0  0  0  0  0  0  0  0  0  0
   -4.2971   -3.5036    0.7418 H   0  0  0  0  0  0  0  0  0  0  0  0
   -6.9989   -1.1085   -0.4328 H   0  0  0  0  0  0  0  0  0  0  0  0
   -8.1443   -2.0086    0.5497 H   0  0  0  0  0  0  0  0  0  0  0  0
   -7.8246   -2.5111   -1.1231 H   0  0  0  0  0  0  0  0  0  0  0  0
   -7.2928   -4.9034   -0.1305 H   0  0  0  0  0  0  0  0  0  0  0  0
   -5.9915   -5.0533    1.0578 H   0  0  0  0  0  0  0  0  0  0  0  0
   -7.5183   -4.2924    1.5244 H   0  0  0  0  0  0  0  0  0  0  0  0
  1  2  1  0
  2  3  1  0
  3  4  2  0
  4  5  1  0
  5  6  2  0
  6  7  1  0
  7  8  2  0
  7  9  1  0
  9 10  2  3
 10 11  1  0
 11 12  2  0
 12 13  1  0
 13 14  2  0
 14 15  1  0
 14 16  1  0
 16 17  2  0
  6 18  1  0
 18 19  1  0
 18 20  2  0
 20 21  1  0
 21 22  1  0
 22 23  2  3
 23 24  1  0
 23 25  1  0
 25 26  1  0
 26 27  1  0
 27 28  2  3
 28 29  1  0
 28 30  1  0
 20  3  1  0
 17 11  1  0
  1 31  1  0
  1 32  1  0
  1 33  1  0
  4 34  1  0
  5 35  1  0
  9 36  1  0
 10 37  1  0
 12 38  1  0
 13 39  1  0
 15 40  1  0
 16 41  1  0
 17 42  1  0
 19 43  1  0
 21 44  1  0
 21 45  1  0
 22 46  1  0
 24 47  1  0
 24 48  1  0
 24 49  1  0
 25 50  1  0
 25 51  1  0
 26 52  1  0
 26 53  1  0
 27 54  1  0
 29 55  1  0
 29 56  1  0
 29 57  1  0
 30 58  1  0
 30 59  1  0
 30 60  1  0
M  END
$$$$
