
     RDKit          3D

 39 41  0  0  0  0  0  0  0  0999 V2000
   -0.0382   -0.7226    3.1830 S   0  0  0  0  0  0  0  0  0  0  0  0
    0.0475    0.0155    1.6802 C   0  0  0  0  0  0  0  0  0  0  0  0
    0.8217    1.1404    1.6124 N   0  0  0  0  0  0  0  0  0  0  0  0
    1.6686    1.5282    0.4865 C   0  0  0  0  0  0  0  0  0  0  0  0
    2.7363    0.4912    0.1240 C   0  0  0  0  0  0  0  0  0  0  0  0
    3.7380    0.2164    1.2349 C   0  0  0  0  0  0  0  0  0  0  0  0
    4.9300   -0.2728    0.4515 C   0  0  0  0  0  0  0  0  0  0  0  0
    4.8890    0.6164   -0.7726 C   0  0  0  0  0  0  0  0  0  0  0  0
    3.5135    0.9615   -0.9966 O   0  0  0  0  0  0  0  0  0  0  0  0
   -0.5597   -0.4271    0.5245 N   0  0  0  0  0  0  0  0  0  0  0  0
   -0.9943   -1.8155    0.3361 C   0  0  0  0  0  0  0  0  0  0  0  0
   -2.4933   -1.9657    0.5871 C   0  0  0  0  0  0  0  0  0  0  0  0
   -3.2782   -0.9558   -0.2131 C   0  0  0  0  0  0  0  0  0  0  0  0
   -4.6382   -1.1753   -0.4717 C   0  0  0  0  0  0  0  0  0  0  0  0
   -5.3795   -0.2391   -1.1913 C   0  0  0  0  0  0  0  0  0  0  0  0
   -4.7716    0.9260   -1.6515 C   0  0  0  0  0  0  0  0  0  0  0  0
   -3.4220    1.1602   -1.3873 C   0  0  0  0  0  0  0  0  0  0  0  0
   -2.6639    0.2306   -0.6579 C   0  0  0  0  0  0  0  0  0  0  0  0
   -1.1964    0.5177   -0.4004 C   0  0  0  0  0  0  0  0  0  0  0  0
    1.2071    1.3725    2.5216 H   0  0  0  0  0  0  0  0  0  0  0  0
    1.0577    1.7468   -0.3919 H   0  0  0  0  0  0  0  0  0  0  0  0
    2.1430    2.4789    0.7580 H   0  0  0  0  0  0  0  0  0  0  0  0
    2.2635   -0.4472   -0.1908 H   0  0  0  0  0  0  0  0  0  0  0  0
    3.3771   -0.5109    1.9669 H   0  0  0  0  0  0  0  0  0  0  0  0
    3.9999    1.1399    1.7654 H   0  0  0  0  0  0  0  0  0  0  0  0
    5.8744   -0.2040    0.9975 H   0  0  0  0  0  0  0  0  0  0  0  0
    4.7788   -1.3188    0.1593 H   0  0  0  0  0  0  0  0  0  0  0  0
    5.4411    1.5471   -0.6047 H   0  0  0  0  0  0  0  0  0  0  0  0
    5.2951    0.1255   -1.6615 H   0  0  0  0  0  0  0  0  0  0  0  0
   -0.7520   -2.0875   -0.6997 H   0  0  0  0  0  0  0  0  0  0  0  0
   -0.4261   -2.4956    0.9783 H   0  0  0  0  0  0  0  0  0  0  0  0
   -2.7229   -1.8147    1.6480 H   0  0  0  0  0  0  0  0  0  0  0  0
   -2.7989   -2.9827    0.3156 H   0  0  0  0  0  0  0  0  0  0  0  0
   -5.1263   -2.0782   -0.1119 H   0  0  0  0  0  0  0  0  0  0  0  0
   -6.4329   -0.4180   -1.3904 H   0  0  0  0  0  0  0  0  0  0  0  0
   -5.3502    1.6552   -2.2126 H   0  0  0  0  0  0  0  0  0  0  0  0
   -2.9629    2.0774   -1.7501 H   0  0  0  0  0  0  0  0  0  0  0  0
   -1.1174    1.5376   -0.0095 H   0  0  0  0  0  0  0  0  0  0  0  0
   -0.6573    0.4466   -1.3521 H   0  0  0  0  0  0  0  0  0  0  0  0
  1  2  2  0
  2  3  1  0
  3  4  1  0
  4  5  1  0
  5  6  1  0
  6  7  1  0
  7  8  1  0
  8  9  1  0
  2 10  1  0
 10 11  1  0
 11 12  1  0
 12 13  1  0
 13 14  2  0
 14 15  1  0
 15 16  2  0
 16 17  1  0
 17 18  2  0
 18 19  1  0
  9  5  1  0
 19 10  1  0
 18 13  1  0
  3 20  1  0
  4 21  1  0
  4 22  1  0
  5 23  1  0
  6 24  1  0
  6 25  1  0
  7 26  1  0
  7 27  1  0
  8 28  1  0
  8 29  1  0
 11 30  1  0
 11 31  1  0
 12 32  1  0
 12 33  1  0
 14 34  1  0
 15 35  1  0
 16 36  1  0
 17 37  1  0
 19 38  1  0
 19 39  1  0
M  END
$$$$
