
     RDKit          3D

 56 60  0  0  0  0  0  0  0  0999 V2000
    7.6802   -3.1353    0.2439 C   0  0  0  0  0  0  0  0  0  0  0  0
    6.6126   -2.1094    0.3280 C   0  0  0  0  0  0  0  0  0  0  0  0
    6.0991   -1.5799   -0.7896 N   0  0  0  0  0  0  0  0  0  0  0  0
    5.1645   -0.7055   -0.3487 N   0  0  0  0  0  0  0  0  0  0  0  0
    4.4112    0.0699   -1.3306 C   0  0  0  0  0  0  0  0  0  0  0  0
    3.0272   -0.4898   -1.5545 C   0  0  0  0  0  0  0  0  0  0  0  0
    2.8520   -1.7610   -2.1219 C   0  0  0  0  0  0  0  0  0  0  0  0
    1.5723   -2.2697   -2.3493 C   0  0  0  0  0  0  0  0  0  0  0  0
    0.4478   -1.5179   -2.0066 C   0  0  0  0  0  0  0  0  0  0  0  0
    0.6035   -0.2539   -1.4255 C   0  0  0  0  0  0  0  0  0  0  0  0
   -0.5635    0.5888   -1.0393 C   0  0  0  0  0  0  0  0  0  0  0  0
   -0.4444    1.8077   -1.0208 O   0  0  0  0  0  0  0  0  0  0  0  0
   -1.7098   -0.0922   -0.6823 N   0  0  0  0  0  0  0  0  0  0  0  0
   -2.9354    0.5479   -0.1894 C   0  0  0  0  0  0  0  0  0  0  0  0
   -2.6933    1.2857    1.1503 C   0  0  0  0  0  0  0  0  0  0  0  0
   -4.0040    1.8987    1.6747 C   0  0  0  0  0  0  0  0  0  0  0  0
   -4.5542    2.8869    0.6321 C   0  0  0  0  0  0  0  0  0  0  0  0
   -4.8345    2.1578   -0.6931 C   0  0  0  0  0  0  0  0  0  0  0  0
   -5.8584    1.0384   -0.4494 C   0  0  0  0  0  0  0  0  0  0  0  0
   -5.3098    0.0429    0.5842 C   0  0  0  0  0  0  0  0  0  0  0  0
   -5.0323    0.7797    1.9041 C   0  0  0  0  0  0  0  0  0  0  0  0
   -3.9974   -0.5585    0.0570 C   0  0  0  0  0  0  0  0  0  0  0  0
   -3.5248    1.5446   -1.2200 C   0  0  0  0  0  0  0  0  0  0  0  0
    1.8910    0.2614   -1.2175 C   0  0  0  0  0  0  0  0  0  0  0  0
    5.0791   -0.6437    1.0241 C   0  0  0  0  0  0  0  0  0  0  0  0
    4.1364    0.2414    1.7510 C   0  0  0  0  0  0  0  0  0  0  0  0
    6.0064   -1.5556    1.4723 C   0  0  0  0  0  0  0  0  0  0  0  0
    6.4192   -2.0076    3.2428 Br  0  0  0  0  0  0  0  0  0  0  0  0
    7.9136   -3.3887   -0.7958 H   0  0  0  0  0  0  0  0  0  0  0  0
    8.5990   -2.7708    0.7148 H   0  0  0  0  0  0  0  0  0  0  0  0
    7.3704   -4.0548    0.7507 H   0  0  0  0  0  0  0  0  0  0  0  0
    4.3813    1.1059   -0.9758 H   0  0  0  0  0  0  0  0  0  0  0  0
    4.9733    0.0688   -2.2723 H   0  0  0  0  0  0  0  0  0  0  0  0
    3.7199   -2.3618   -2.3950 H   0  0  0  0  0  0  0  0  0  0  0  0
    1.4550   -3.2510   -2.8034 H   0  0  0  0  0  0  0  0  0  0  0  0
   -0.5373   -1.9194   -2.2255 H   0  0  0  0  0  0  0  0  0  0  0  0
   -1.6152   -1.0821   -0.4989 H   0  0  0  0  0  0  0  0  0  0  0  0
   -2.2817    0.5915    1.8946 H   0  0  0  0  0  0  0  0  0  0  0  0
   -1.9489    2.0815    1.0291 H   0  0  0  0  0  0  0  0  0  0  0  0
   -3.8138    2.4239    2.6174 H   0  0  0  0  0  0  0  0  0  0  0  0
   -3.8345    3.6985    0.4686 H   0  0  0  0  0  0  0  0  0  0  0  0
   -5.4758    3.3497    1.0061 H   0  0  0  0  0  0  0  0  0  0  0  0
   -5.2313    2.8669   -1.4281 H   0  0  0  0  0  0  0  0  0  0  0  0
   -6.0780    0.5195   -1.3905 H   0  0  0  0  0  0  0  0  0  0  0  0
   -6.8039    1.4658   -0.0934 H   0  0  0  0  0  0  0  0  0  0  0  0
   -6.0412   -0.7553    0.7532 H   0  0  0  0  0  0  0  0  0  0  0  0
   -5.9638    1.2023    2.3004 H   0  0  0  0  0  0  0  0  0  0  0  0
   -4.6576    0.0743    2.6560 H   0  0  0  0  0  0  0  0  0  0  0  0
   -4.1892   -1.1106   -0.8729 H   0  0  0  0  0  0  0  0  0  0  0  0
   -3.6153   -1.2952    0.7767 H   0  0  0  0  0  0  0  0  0  0  0  0
   -3.7077    1.0355   -2.1755 H   0  0  0  0  0  0  0  0  0  0  0  0
   -2.8182    2.3545   -1.4349 H   0  0  0  0  0  0  0  0  0  0  0  0
    1.9993    1.2557   -0.7854 H   0  0  0  0  0  0  0  0  0  0  0  0
    4.1878    1.2679    1.3751 H   0  0  0  0  0  0  0  0  0  0  0  0
    3.1096   -0.1208    1.6418 H   0  0  0  0  0  0  0  0  0  0  0  0
    4.3635    0.2770    2.8207 H   0  0  0  0  0  0  0  0  0  0  0  0
  1  2  1  0
  2  3  2  0
  3  4  1  0
  4  5  1  0
  5  6  1  0
  6  7  2  0
  7  8  1  0
  8  9  2  0
  9 10  1  0
 10 11  1  0
 11 12  2  0
 11 13  1  0
 13 14  1  0
 14 15  1  0
 15 16  1  0
 16 17  1  0
 17 18  1  0
 18 19  1  0
 19 20  1  0
 20 21  1  0
 20 22  1  0
 18 23  1  0
 10 24  2  0
  4 25  1  0
 25 26  1  0
 25 27  2  0
 27 28  1  0
 27  2  1  0
 24  6  1  0
 22 14  1  0
 23 14  1  0
 21 16  1  0
  1 29  1  0
  1 30  1  0
  1 31  1  0
  5 32  1  0
  5 33  1  0
  7 34  1  0
  8 35  1  0
  9 36  1  0
 13 37  1  0
 15 38  1  0
 15 39  1  0
 16 40  1  0
 17 41  1  0
 17 42  1  0
 18 43  1  0
 19 44  1  0
 19 45  1  0
 20 46  1  0
 21 47  1  0
 21 48  1  0
 22 49  1  0
 22 50  1  0
 23 51  1  0
 23 52  1  0
 24 53  1  0
 26 54  1  0
 26 55  1  0
 26 56  1  0
M  END
$$$$
