
     RDKit          3D

 38 40  0  0  0  0  0  0  0  0999 V2000
   -1.0105    2.6969   -2.9586 C   0  0  0  0  0  0  0  0  0  0  0  0
   -1.3780    1.2376   -2.9731 C   0  0  0  0  0  0  0  0  0  0  0  0
   -1.3955    0.5686   -4.0050 O   0  0  0  0  0  0  0  0  0  0  0  0
   -1.6922    0.5689   -1.7072 C   0  0  0  0  0  0  0  0  0  0  0  0
   -1.0898   -0.6190   -1.3139 C   0  0  0  0  0  0  0  0  0  0  0  0
    0.0381   -1.2570   -2.0964 C   0  0  0  0  0  0  0  0  0  0  0  0
    1.2098   -1.4308   -1.2751 O   0  0  0  0  0  0  0  0  0  0  0  0
    1.8476   -0.2791   -0.9514 C   0  0  0  0  0  0  0  0  0  0  0  0
    1.5007    0.8412   -1.2955 O   0  0  0  0  0  0  0  0  0  0  0  0
    3.0405   -0.5527   -0.1066 C   0  0  0  0  0  0  0  0  0  0  0  0
    3.3612   -1.8399    0.3459 C   0  0  0  0  0  0  0  0  0  0  0  0
    4.4928   -2.0419    1.1398 C   0  0  0  0  0  0  0  0  0  0  0  0
    5.3065   -0.9634    1.4857 C   0  0  0  0  0  0  0  0  0  0  0  0
    4.9923    0.3200    1.0408 C   0  0  0  0  0  0  0  0  0  0  0  0
    3.8621    0.5265    0.2473 C   0  0  0  0  0  0  0  0  0  0  0  0
   -1.4381   -1.2478   -0.1597 N   0  0  0  0  0  0  0  0  0  0  0  0
   -2.3758   -0.7068    0.6272 C   0  0  0  0  0  0  0  0  0  0  0  0
   -2.7249   -1.3468    1.8092 C   0  0  0  0  0  0  0  0  0  0  0  0
   -3.6972   -0.8260    2.6691 C   0  0  0  0  0  0  0  0  0  0  0  0
   -4.3420    0.3622    2.3482 C   0  0  0  0  0  0  0  0  0  0  0  0
   -4.0092    1.0219    1.1686 C   0  0  0  0  0  0  0  0  0  0  0  0
   -3.0244    0.4943    0.3011 C   0  0  0  0  0  0  0  0  0  0  0  0
   -2.6654    1.1340   -0.9044 N   0  0  0  0  0  4  0  0  0  0  0  0
   -3.2606    2.2201   -1.2430 O   0  0  0  0  0  1  0  0  0  0  0  0
   -1.8346    3.2878   -3.3654 H   0  0  0  0  0  0  0  0  0  0  0  0
   -0.1159    2.8407   -3.5717 H   0  0  0  0  0  0  0  0  0  0  0  0
   -0.7746    3.0384   -1.9469 H   0  0  0  0  0  0  0  0  0  0  0  0
    0.3306   -0.7217   -3.0029 H   0  0  0  0  0  0  0  0  0  0  0  0
   -0.2850   -2.2556   -2.4109 H   0  0  0  0  0  0  0  0  0  0  0  0
    2.7389   -2.6945    0.0919 H   0  0  0  0  0  0  0  0  0  0  0  0
    4.7393   -3.0417    1.4894 H   0  0  0  0  0  0  0  0  0  0  0  0
    6.1870   -1.1234    2.1036 H   0  0  0  0  0  0  0  0  0  0  0  0
    5.6269    1.1605    1.3114 H   0  0  0  0  0  0  0  0  0  0  0  0
    3.6266    1.5327   -0.0943 H   0  0  0  0  0  0  0  0  0  0  0  0
   -2.2272   -2.2785    2.0716 H   0  0  0  0  0  0  0  0  0  0  0  0
   -3.9473   -1.3526    3.5874 H   0  0  0  0  0  0  0  0  0  0  0  0
   -5.1002    0.7738    3.0103 H   0  0  0  0  0  0  0  0  0  0  0  0
   -4.5124    1.9531    0.9102 H   0  0  0  0  0  0  0  0  0  0  0  0
  1  2  1  0
  2  3  2  0
  2  4  1  0
  4  5  2  0
  5  6  1  0
  6  7  1  0
  7  8  1  0
  8  9  2  0
  8 10  1  0
 10 11  2  0
 11 12  1  0
 12 13  2  0
 13 14  1  0
 14 15  2  0
  5 16  1  0
 16 17  2  0
 17 18  1  0
 18 19  2  0
 19 20  1  0
 20 21  2  0
 21 22  1  0
 22 23  2  0
 23 24  1  0
 23  4  1  0
 15 10  1  0
 22 17  1  0
  1 25  1  0
  1 26  1  0
  1 27  1  0
  6 28  1  0
  6 29  1  0
 11 30  1  0
 12 31  1  0
 13 32  1  0
 14 33  1  0
 15 34  1  0
 18 35  1  0
 19 36  1  0
 20 37  1  0
 21 38  1  0
M  CHG  2  23   1  24  -1
M  END
$$$$
