
     RDKit          3D

 57 60  0  0  0  0  0  0  0  0999 V2000
    6.5057    1.0242   -2.3952 C   0  0  0  0  0  0  0  0  0  0  0  0
    5.2651    0.9313   -1.7073 O   0  0  0  0  0  0  0  0  0  0  0  0
    5.1112   -0.1005   -0.8171 C   0  0  0  0  0  0  0  0  0  0  0  0
    6.1321   -0.9751   -0.4328 C   0  0  0  0  0  0  0  0  0  0  0  0
    5.8757   -2.0061    0.4733 C   0  0  0  0  0  0  0  0  0  0  0  0
    4.5932   -2.1811    0.9911 C   0  0  0  0  0  0  0  0  0  0  0  0
    3.5507   -1.3229    0.6140 C   0  0  0  0  0  0  0  0  0  0  0  0
    2.2036   -1.5970    1.1946 C   0  0  0  0  0  0  0  0  0  0  0  0
    2.1001   -2.2326    2.2390 O   0  0  0  0  0  0  0  0  0  0  0  0
    1.1172   -1.1249    0.4972 N   0  0  0  0  0  0  0  0  0  0  0  0
   -0.2244   -1.2005    1.0322 C   0  0  0  0  0  0  0  0  0  0  0  0
   -0.4584   -0.0801    2.0738 C   0  0  0  0  0  0  0  0  0  0  0  0
   -1.9611    0.2120    2.3578 C   0  0  0  0  0  0  0  0  0  0  0  0
   -2.0580    1.3745    3.3642 C   0  0  0  0  0  0  0  0  0  0  0  0
   -2.6431   -1.0196    2.9879 C   0  0  0  0  0  0  0  0  0  0  0  0
   -2.6932    0.6269    1.0421 C   0  0  0  0  0  0  0  0  0  0  0  0
   -2.2947   -0.2461   -0.1022 C   0  0  0  0  0  0  0  0  0  0  0  0
   -1.1881   -1.0775   -0.0974 C   0  0  0  0  0  0  0  0  0  0  0  0
   -1.2732   -1.7882   -1.2987 C   0  0  0  0  0  0  0  0  0  0  0  0
   -2.3251   -1.4254   -2.0280 N   0  0  0  0  0  0  0  0  0  0  0  0
   -2.9339   -0.4273   -1.3225 N   0  0  0  0  0  0  0  0  0  0  0  0
   -4.0579    0.2371   -1.9047 C   0  0  0  0  0  0  0  0  0  0  0  0
   -4.6361   -0.3049   -3.0707 C   0  0  0  0  0  0  0  0  0  0  0  0
   -5.7361    0.3056   -3.6818 C   0  0  0  0  0  0  0  0  0  0  0  0
   -6.2674    1.4712   -3.1416 C   0  0  0  0  0  0  0  0  0  0  0  0
   -5.6887    2.0157   -2.0028 C   0  0  0  0  0  0  0  0  0  0  0  0
   -6.1882    3.1492   -1.4916 F   0  0  0  0  0  0  0  0  0  0  0  0
   -4.5927    1.4172   -1.3821 C   0  0  0  0  0  0  0  0  0  0  0  0
    3.8248   -0.2603   -0.2642 C   0  0  0  0  0  0  0  0  0  0  0  0
    2.8159    0.6044   -0.6314 O   0  0  0  0  0  0  0  0  0  0  0  0
    2.9166    1.8231    0.1117 C   0  0  0  0  0  0  0  0  0  0  0  0
    6.7166    0.1102   -2.9603 H   0  0  0  0  0  0  0  0  0  0  0  0
    6.4294    1.8479   -3.1116 H   0  0  0  0  0  0  0  0  0  0  0  0
    7.3208    1.2603   -1.7035 H   0  0  0  0  0  0  0  0  0  0  0  0
    7.1423   -0.8810   -0.8182 H   0  0  0  0  0  0  0  0  0  0  0  0
    6.6751   -2.6813    0.7702 H   0  0  0  0  0  0  0  0  0  0  0  0
    4.4043   -2.9984    1.6857 H   0  0  0  0  0  0  0  0  0  0  0  0
    1.2907   -0.5053   -0.2893 H   0  0  0  0  0  0  0  0  0  0  0  0
   -0.3563   -2.1772    1.5137 H   0  0  0  0  0  0  0  0  0  0  0  0
    0.0126    0.8476    1.7158 H   0  0  0  0  0  0  0  0  0  0  0  0
    0.0636   -0.3369    3.0050 H   0  0  0  0  0  0  0  0  0  0  0  0
   -3.1030    1.6253    3.5786 H   0  0  0  0  0  0  0  0  0  0  0  0
   -1.5718    2.2768    2.9769 H   0  0  0  0  0  0  0  0  0  0  0  0
   -1.5737    1.1176    4.3129 H   0  0  0  0  0  0  0  0  0  0  0  0
   -2.6634   -1.8786    2.3101 H   0  0  0  0  0  0  0  0  0  0  0  0
   -2.1227   -1.3307    3.9007 H   0  0  0  0  0  0  0  0  0  0  0  0
   -3.6813   -0.7963    3.2591 H   0  0  0  0  0  0  0  0  0  0  0  0
   -3.7756    0.5861    1.2074 H   0  0  0  0  0  0  0  0  0  0  0  0
   -2.4200    1.6599    0.7924 H   0  0  0  0  0  0  0  0  0  0  0  0
   -0.6188   -2.5674   -1.6694 H   0  0  0  0  0  0  0  0  0  0  0  0
   -4.2415   -1.2184   -3.5154 H   0  0  0  0  0  0  0  0  0  0  0  0
   -6.1711   -0.1319   -4.5770 H   0  0  0  0  0  0  0  0  0  0  0  0
   -7.1188    1.9614   -3.6022 H   0  0  0  0  0  0  0  0  0  0  0  0
   -4.1832    1.9317   -0.5257 H   0  0  0  0  0  0  0  0  0  0  0  0
    3.7853    2.4121   -0.1980 H   0  0  0  0  0  0  0  0  0  0  0  0
    2.9506    1.6315    1.1903 H   0  0  0  0  0  0  0  0  0  0  0  0
    2.0185    2.4125   -0.0966 H   0  0  0  0  0  0  0  0  0  0  0  0
  1  2  1  0
  2  3  1  0
  3  4  2  0
  4  5  1  0
  5  6  2  0
  6  7  1  0
  7  8  1  0
  8  9  2  0
  8 10  1  0
 10 11  1  0
 11 12  1  0
 12 13  1  0
 13 14  1  0
 13 15  1  0
 13 16  1  0
 16 17  1  0
 17 18  2  0
 18 19  1  0
 19 20  2  0
 20 21  1  0
 21 22  1  0
 22 23  2  0
 23 24  1  0
 24 25  2  0
 25 26  1  0
 26 27  1  0
 26 28  2  0
  7 29  2  0
 29 30  1  0
 30 31  1  0
 29  3  1  0
 18 11  1  0
 28 22  1  0
 21 17  1  0
  1 32  1  0
  1 33  1  0
  1 34  1  0
  4 35  1  0
  5 36  1  0
  6 37  1  0
 10 38  1  0
 11 39  1  0
 12 40  1  0
 12 41  1  0
 14 42  1  0
 14 43  1  0
 14 44  1  0
 15 45  1  0
 15 46  1  0
 15 47  1  0
 16 48  1  0
 16 49  1  0
 19 50  1  0
 23 51  1  0
 24 52  1  0
 25 53  1  0
 28 54  1  0
 31 55  1  0
 31 56  1  0
 31 57  1  0
M  END
$$$$
