
     RDKit          3D

 55 57  0  0  0  0  0  0  0  0999 V2000
   -0.1238    3.2164   -0.5704 O   0  0  0  0  0  0  0  0  0  0  0  0
    0.4491    2.1482   -0.7553 C   0  0  0  0  0  0  0  0  0  0  0  0
   -0.2173    0.9651   -0.9994 N   0  0  0  0  0  0  0  0  0  0  0  0
   -1.6654    0.8992   -1.0604 C   0  0  0  0  0  0  0  0  0  0  0  0
   -2.2736    0.7365    0.3314 C   0  0  0  0  0  0  0  0  0  0  0  0
   -3.8062    0.7628    0.3444 C   0  0  0  0  0  0  0  0  0  0  0  0
   -4.4733   -0.5869    0.0615 C   0  0  0  0  0  0  0  0  0  0  0  0
   -5.9888   -0.5268    0.2610 C   0  0  0  0  0  0  0  0  0  0  0  0
   -6.4763   -1.8037   -0.4033 C   0  0  0  0  0  0  0  0  0  0  0  0
   -5.5648   -1.9897   -1.6115 C   0  0  0  0  0  0  0  0  0  0  0  0
   -4.3456   -1.0962   -1.3744 C   0  0  0  0  0  0  0  0  0  0  0  0
    1.9616    2.0005   -0.7130 C   0  0  0  0  0  0  0  0  0  0  0  0
    2.6696    3.3493   -0.7492 C   0  0  0  0  0  0  0  0  0  0  0  0
    4.1715    3.1337   -0.7520 C   0  0  0  0  0  0  0  0  0  0  0  0
    4.6755    2.1982    0.3319 C   0  0  0  0  0  0  0  0  0  0  0  0
    5.8356    2.2959    0.7323 O   0  0  0  0  0  0  0  0  0  0  0  0
    3.8180    1.1812    0.7381 N   0  0  0  0  0  0  0  0  0  0  0  0
    4.2983    0.2505    1.7611 C   0  0  0  0  0  0  0  0  0  0  0  0
    4.0219   -1.1913    1.3966 C   0  0  0  0  0  0  0  0  0  0  0  0
    4.6293   -1.7588    0.2643 C   0  0  0  0  0  0  0  0  0  0  0  0
    4.3768   -3.0870   -0.0851 C   0  0  0  0  0  0  0  0  0  0  0  0
    3.5186   -3.8557    0.6979 C   0  0  0  0  0  0  0  0  0  0  0  0
    3.2015   -5.4908    0.2656 Cl  0  0  0  0  0  0  0  0  0  0  0  0
    2.9123   -3.3086    1.8281 C   0  0  0  0  0  0  0  0  0  0  0  0
    3.1643   -1.9796    2.1783 C   0  0  0  0  0  0  0  0  0  0  0  0
    2.3683    1.2938    0.5726 C   0  0  0  0  0  0  0  0  0  0  0  0
    0.3057    0.1178   -1.1805 H   0  0  0  0  0  0  0  0  0  0  0  0
   -2.0416    1.8111   -1.5378 H   0  0  0  0  0  0  0  0  0  0  0  0
   -1.9070    0.0526   -1.7058 H   0  0  0  0  0  0  0  0  0  0  0  0
   -1.9204    1.5651    0.9597 H   0  0  0  0  0  0  0  0  0  0  0  0
   -1.9014   -0.1803    0.8065 H   0  0  0  0  0  0  0  0  0  0  0  0
   -4.1766    1.5292   -0.3479 H   0  0  0  0  0  0  0  0  0  0  0  0
   -4.1192    1.0819    1.3479 H   0  0  0  0  0  0  0  0  0  0  0  0
   -4.0617   -1.3430    0.7443 H   0  0  0  0  0  0  0  0  0  0  0  0
   -6.4180    0.3488   -0.2407 H   0  0  0  0  0  0  0  0  0  0  0  0
   -6.2672   -0.4863    1.3183 H   0  0  0  0  0  0  0  0  0  0  0  0
   -7.5321   -1.7478   -0.6853 H   0  0  0  0  0  0  0  0  0  0  0  0
   -6.3584   -2.6511    0.2832 H   0  0  0  0  0  0  0  0  0  0  0  0
   -6.0746   -1.6927   -2.5352 H   0  0  0  0  0  0  0  0  0  0  0  0
   -5.2762   -3.0404   -1.7217 H   0  0  0  0  0  0  0  0  0  0  0  0
   -3.4167   -1.6559   -1.5241 H   0  0  0  0  0  0  0  0  0  0  0  0
   -4.3576   -0.2665   -2.0916 H   0  0  0  0  0  0  0  0  0  0  0  0
    2.2720    1.4102   -1.5855 H   0  0  0  0  0  0  0  0  0  0  0  0
    2.3742    3.9166   -1.6396 H   0  0  0  0  0  0  0  0  0  0  0  0
    2.3842    3.9555    0.1205 H   0  0  0  0  0  0  0  0  0  0  0  0
    4.6711    4.1012   -0.6287 H   0  0  0  0  0  0  0  0  0  0  0  0
    4.4894    2.7145   -1.7138 H   0  0  0  0  0  0  0  0  0  0  0  0
    3.8136    0.5215    2.7071 H   0  0  0  0  0  0  0  0  0  0  0  0
    5.3772    0.3543    1.9249 H   0  0  0  0  0  0  0  0  0  0  0  0
    5.3043   -1.1625   -0.3485 H   0  0  0  0  0  0  0  0  0  0  0  0
    4.8536   -3.5140   -0.9639 H   0  0  0  0  0  0  0  0  0  0  0  0
    2.2461   -3.9111    2.4413 H   0  0  0  0  0  0  0  0  0  0  0  0
    2.6853   -1.5653    3.0642 H   0  0  0  0  0  0  0  0  0  0  0  0
    1.9330    0.2894    0.5923 H   0  0  0  0  0  0  0  0  0  0  0  0
    1.9821    1.8300    1.4494 H   0  0  0  0  0  0  0  0  0  0  0  0
  1  2  2  0
  2  3  1  0
  3  4  1  0
  4  5  1  0
  5  6  1  0
  6  7  1  0
  7  8  1  0
  8  9  1  0
  9 10  1  0
 10 11  1  0
  2 12  1  0
 12 13  1  0
 13 14  1  0
 14 15  1  0
 15 16  2  0
 15 17  1  0
 17 18  1  0
 18 19  1  0
 19 20  2  0
 20 21  1  0
 21 22  2  0
 22 23  1  0
 22 24  1  0
 24 25  2  0
 17 26  1  0
 11  7  1  0
 26 12  1  0
 25 19  1  0
  3 27  1  0
  4 28  1  0
  4 29  1  0
  5 30  1  0
  5 31  1  0
  6 32  1  0
  6 33  1  0
  7 34  1  0
  8 35  1  0
  8 36  1  0
  9 37  1  0
  9 38  1  0
 10 39  1  0
 10 40  1  0
 11 41  1  0
 11 42  1  0
 12 43  1  0
 13 44  1  0
 13 45  1  0
 14 46  1  0
 14 47  1  0
 18 48  1  0
 18 49  1  0
 20 50  1  0
 21 51  1  0
 24 52  1  0
 25 53  1  0
 26 54  1  0
 26 55  1  0
M  END
$$$$
