
     RDKit          3D

 46 48  0  0  0  0  0  0  0  0999 V2000
   -0.7228   -1.2533    1.5242 O   0  0  0  0  0  0  0  0  0  0  0  0
   -0.5773   -0.4558    0.6053 C   0  0  0  0  0  0  0  0  0  0  0  0
    0.7947   -0.0073    0.1305 C   0  0  0  0  0  0  0  0  0  0  0  0
    1.9072   -0.5636    1.0239 C   0  0  0  0  0  0  0  0  0  0  0  0
    3.2422   -0.0924    0.5832 N   0  0  0  0  0  0  0  0  0  0  0  0
    3.7104   -0.8749   -0.5755 C   0  0  0  0  0  0  0  0  0  0  0  0
    4.5367   -0.0483   -1.5595 C   0  0  0  0  0  0  0  0  0  0  0  0
    5.6589    0.8081   -0.9801 C   0  0  0  0  0  0  0  0  0  0  0  0
    6.3114    0.2532    0.2805 C   0  0  0  0  0  0  0  0  0  0  0  0
    5.4986    0.5583    1.5364 C   0  0  0  0  0  0  0  0  0  0  0  0
    4.1971   -0.2305    1.7024 C   0  0  0  0  0  0  0  0  0  0  0  0
   -1.5860    0.1358   -0.1402 N   0  0  0  0  0  0  0  0  0  0  0  0
   -2.9784   -0.0423   -0.0024 C   0  0  0  0  0  0  0  0  0  0  0  0
   -3.5695   -0.8855    0.9422 C   0  0  0  0  0  0  0  0  0  0  0  0
   -4.9623   -1.0024    1.0193 C   0  0  0  0  0  0  0  0  0  0  0  0
   -5.7724   -0.2748    0.1540 C   0  0  0  0  0  0  0  0  0  0  0  0
   -5.1905    0.5489   -0.8111 C   0  0  0  0  0  0  0  0  0  0  0  0
   -3.8023    0.6762   -0.8792 C   0  0  0  0  0  0  0  0  0  0  0  0
   -5.9200    1.2711   -1.7219 O   0  0  0  0  0  0  0  0  0  0  0  0
   -7.2755    0.8111   -1.7853 C   0  0  0  0  0  0  0  0  0  0  0  0
   -7.8409    0.6099   -0.3889 C   0  0  0  0  0  0  0  0  0  0  0  0
   -7.1271   -0.4219    0.3013 O   0  0  0  0  0  0  0  0  0  0  0  0
    0.9107   -0.3400   -0.9066 H   0  0  0  0  0  0  0  0  0  0  0  0
    0.8245    1.0892    0.1438 H   0  0  0  0  0  0  0  0  0  0  0  0
    1.7032   -0.2043    2.0416 H   0  0  0  0  0  0  0  0  0  0  0  0
    1.8726   -1.6603    1.0708 H   0  0  0  0  0  0  0  0  0  0  0  0
    4.2706   -1.7659   -0.2618 H   0  0  0  0  0  0  0  0  0  0  0  0
    2.8665   -1.2735   -1.1521 H   0  0  0  0  0  0  0  0  0  0  0  0
    4.9731   -0.7437   -2.2885 H   0  0  0  0  0  0  0  0  0  0  0  0
    3.8693    0.6053   -2.1362 H   0  0  0  0  0  0  0  0  0  0  0  0
    5.2779    1.8182   -0.7828 H   0  0  0  0  0  0  0  0  0  0  0  0
    6.4262    0.9286   -1.7554 H   0  0  0  0  0  0  0  0  0  0  0  0
    6.5079   -0.8209    0.1880 H   0  0  0  0  0  0  0  0  0  0  0  0
    7.2886    0.7395    0.3945 H   0  0  0  0  0  0  0  0  0  0  0  0
    6.1289    0.3482    2.4100 H   0  0  0  0  0  0  0  0  0  0  0  0
    5.2774    1.6328    1.5761 H   0  0  0  0  0  0  0  0  0  0  0  0
    4.4211   -1.2869    1.9021 H   0  0  0  0  0  0  0  0  0  0  0  0
    3.7375    0.1570    2.6216 H   0  0  0  0  0  0  0  0  0  0  0  0
   -1.2928    0.7789   -0.8658 H   0  0  0  0  0  0  0  0  0  0  0  0
   -2.9760   -1.4668    1.6410 H   0  0  0  0  0  0  0  0  0  0  0  0
   -5.4091   -1.6550    1.7645 H   0  0  0  0  0  0  0  0  0  0  0  0
   -3.3788    1.3351   -1.6317 H   0  0  0  0  0  0  0  0  0  0  0  0
   -7.3007   -0.1189   -2.3667 H   0  0  0  0  0  0  0  0  0  0  0  0
   -7.8566    1.5661   -2.3238 H   0  0  0  0  0  0  0  0  0  0  0  0
   -7.7832    1.5310    0.2043 H   0  0  0  0  0  0  0  0  0  0  0  0
   -8.8908    0.3059   -0.4459 H   0  0  0  0  0  0  0  0  0  0  0  0
  1  2  2  0
  2  3  1  0
  3  4  1  0
  4  5  1  0
  5  6  1  0
  6  7  1  0
  7  8  1  0
  8  9  1  0
  9 10  1  0
 10 11  1  0
  2 12  1  0
 12 13  1  0
 13 14  2  0
 14 15  1  0
 15 16  2  0
 16 17  1  0
 17 18  2  0
 17 19  1  0
 19 20  1  0
 20 21  1  0
 21 22  1  0
 11  5  1  0
 18 13  1  0
 22 16  1  0
  3 23  1  0
  3 24  1  0
  4 25  1  0
  4 26  1  0
  6 27  1  0
  6 28  1  0
  7 29  1  0
  7 30  1  0
  8 31  1  0
  8 32  1  0
  9 33  1  0
  9 34  1  0
 10 35  1  0
 10 36  1  0
 11 37  1  0
 11 38  1  0
 12 39  1  0
 14 40  1  0
 15 41  1  0
 18 42  1  0
 20 43  1  0
 20 44  1  0
 21 45  1  0
 21 46  1  0
M  END
$$$$
