
     RDKit          3D

 31 32  0  0  0  0  0  0  0  0999 V2000
    4.3597   -0.8623   -4.7262 N   0  0  0  0  0  0  0  0  0  0  0  0
    4.0200   -0.1065   -3.6641 C   0  0  0  0  0  0  0  0  0  0  0  0
    4.0859   -0.5058   -2.4136 N   0  0  0  0  0  0  0  0  0  0  0  0
    3.6901    0.4763   -1.5245 N   0  0  0  0  0  0  0  0  0  0  0  0
    3.3315    1.5766   -2.1452 C   0  0  0  0  0  0  0  0  0  0  0  0
    2.7871    2.9821   -1.2599 S   0  0  0  0  0  0  0  0  0  0  0  0
    1.0047    2.8917   -1.5726 C   0  0  0  0  0  0  0  0  0  0  0  0
    0.4226    1.5632   -1.1392 C   0  0  0  0  0  0  0  0  0  0  0  0
   -0.0137    0.7393   -1.9437 O   0  0  0  0  0  0  0  0  0  0  0  0
    0.4000    1.3573    0.2263 N   0  0  0  0  0  0  0  0  0  0  0  0
   -0.3287    0.2527    0.6978 N   0  0  0  0  0  0  0  0  0  0  0  0
   -1.2141    0.4857    1.7335 C   0  0  0  0  0  0  0  0  0  0  0  0
   -1.2608    1.5578    2.3327 O   0  0  0  0  0  0  0  0  0  0  0  0
   -2.1486   -0.6228    2.0752 C   0  0  0  0  0  0  0  0  0  0  0  0
   -3.3315   -0.3062    2.7586 C   0  0  0  0  0  0  0  0  0  0  0  0
   -4.2386   -1.3120    3.1032 C   0  0  0  0  0  0  0  0  0  0  0  0
   -3.9604   -2.6366    2.7725 C   0  0  0  0  0  0  0  0  0  0  0  0
   -5.0749   -3.8760    3.1968 Cl  0  0  0  0  0  0  0  0  0  0  0  0
   -2.7806   -2.9649    2.1055 C   0  0  0  0  0  0  0  0  0  0  0  0
   -1.8708   -1.9602    1.7587 C   0  0  0  0  0  0  0  0  0  0  0  0
    3.4751    1.5134   -3.8485 S   0  0  0  0  0  0  0  0  0  0  0  0
    4.6339   -0.3844   -5.5761 H   0  0  0  0  0  0  0  0  0  0  0  0
    4.9258   -1.6778   -4.5155 H   0  0  0  0  0  0  0  0  0  0  0  0
    0.5020    3.6959   -1.0258 H   0  0  0  0  0  0  0  0  0  0  0  0
    0.8013    3.0427   -2.6377 H   0  0  0  0  0  0  0  0  0  0  0  0
    0.4932    2.1308    0.8851 H   0  0  0  0  0  0  0  0  0  0  0  0
   -0.5003   -0.4744    0.0038 H   0  0  0  0  0  0  0  0  0  0  0  0
   -3.5513    0.7268    3.0238 H   0  0  0  0  0  0  0  0  0  0  0  0
   -5.1541   -1.0547    3.6298 H   0  0  0  0  0  0  0  0  0  0  0  0
   -2.5593   -4.0009    1.8599 H   0  0  0  0  0  0  0  0  0  0  0  0
   -0.9451   -2.2468    1.2666 H   0  0  0  0  0  0  0  0  0  0  0  0
  1  2  1  0
  2  3  2  0
  3  4  1  0
  4  5  2  0
  5  6  1  0
  6  7  1  0
  7  8  1  0
  8  9  2  0
  8 10  1  0
 10 11  1  0
 11 12  1  0
 12 13  2  0
 12 14  1  0
 14 15  2  0
 15 16  1  0
 16 17  2  0
 17 18  1  0
 17 19  1  0
 19 20  2  0
  5 21  1  0
 21  2  1  0
 20 14  1  0
  1 22  1  0
  1 23  1  0
  7 24  1  0
  7 25  1  0
 10 26  1  0
 11 27  1  0
 15 28  1  0
 16 29  1  0
 19 30  1  0
 20 31  1  0
M  END
$$$$
