
     RDKit          3D

 49 51  0  0  0  0  0  0  0  0999 V2000
    9.1978   -2.1482    2.1684 N   0  0  0  0  0  0  0  0  0  0  0  0
    8.0686   -2.0119    1.9346 C   0  0  0  0  0  0  0  0  0  0  0  0
    6.6737   -1.8708    1.6382 C   0  0  0  0  0  0  0  0  0  0  0  0
    6.1377   -0.6431    1.8765 N   0  0  0  0  0  0  0  0  0  0  0  0
    4.8144   -0.5103    1.5938 C   0  0  0  0  0  0  0  0  0  0  0  0
    4.0262   -1.5437    1.0872 C   0  0  0  0  0  0  0  0  0  0  0  0
    2.5896   -1.4092    0.7728 C   0  0  0  0  0  0  0  0  0  0  0  0
    1.7415   -2.5339    0.7985 C   0  0  0  0  0  0  0  0  0  0  0  0
    0.3807   -2.4351    0.4877 C   0  0  0  0  0  0  0  0  0  0  0  0
   -0.1679   -1.2075    0.1298 C   0  0  0  0  0  0  0  0  0  0  0  0
    0.6379   -0.0684    0.1482 C   0  0  0  0  0  0  0  0  0  0  0  0
    2.0057   -0.1747    0.4327 C   0  0  0  0  0  0  0  0  0  0  0  0
    0.1708    1.1853   -0.1469 O   0  0  0  0  0  0  0  0  0  0  0  0
   -0.6033    1.7152    0.9447 C   0  0  0  0  0  0  0  0  0  0  0  0
   -0.8270    3.2152    0.7107 C   0  0  0  0  0  0  0  0  0  0  0  0
   -1.5845    3.4686   -0.4757 O   0  0  0  0  0  0  0  0  0  0  0  0
   -2.9946    3.3528   -0.2890 C   0  0  0  0  0  0  0  0  0  0  0  0
   -3.6395    3.0727   -1.6453 C   0  0  0  0  0  0  0  0  0  0  0  0
   -4.9359    2.4868   -1.4960 O   0  0  0  0  0  0  0  0  0  0  0  0
   -4.9769    1.1085   -1.8848 C   0  0  0  0  0  0  0  0  0  0  0  0
   -4.4779    0.1820   -0.7743 C   0  0  0  0  0  0  0  0  0  0  0  0
   -4.2175   -1.1492   -1.2060 O   0  0  0  0  0  0  0  0  0  0  0  0
   -3.0639   -1.3331   -2.0350 C   0  0  0  0  0  0  0  0  0  0  0  0
   -1.7483   -0.7345   -1.5147 C   0  0  0  0  0  0  0  0  0  0  0  0
   -1.4988   -1.2119   -0.1851 O   0  0  0  0  0  0  0  0  0  0  0  0
    4.5801   -2.7671    0.8652 N   0  0  0  0  0  0  0  0  0  0  0  0
    5.9082   -2.9125    1.1436 C   0  0  0  0  0  0  0  0  0  0  0  0
    6.4531   -4.2136    0.8920 C   0  0  0  0  0  0  0  0  0  0  0  0
    6.9127   -5.2619    0.6967 N   0  0  0  0  0  0  0  0  0  0  0  0
    4.4069    0.4729    1.8085 H   0  0  0  0  0  0  0  0  0  0  0  0
    2.1403   -3.5146    1.0577 H   0  0  0  0  0  0  0  0  0  0  0  0
   -0.2446   -3.3244    0.5066 H   0  0  0  0  0  0  0  0  0  0  0  0
    2.6025    0.7322    0.3719 H   0  0  0  0  0  0  0  0  0  0  0  0
   -0.0634    1.5844    1.8910 H   0  0  0  0  0  0  0  0  0  0  0  0
   -1.5610    1.1897    1.0005 H   0  0  0  0  0  0  0  0  0  0  0  0
    0.1437    3.7009    0.5645 H   0  0  0  0  0  0  0  0  0  0  0  0
   -1.3124    3.6824    1.5750 H   0  0  0  0  0  0  0  0  0  0  0  0
   -3.2401    2.5694    0.4324 H   0  0  0  0  0  0  0  0  0  0  0  0
   -3.3775    4.2936    0.1227 H   0  0  0  0  0  0  0  0  0  0  0  0
   -2.9831    2.4561   -2.2714 H   0  0  0  0  0  0  0  0  0  0  0  0
   -3.7659    4.0207   -2.1805 H   0  0  0  0  0  0  0  0  0  0  0  0
   -6.0236    0.8619   -2.0972 H   0  0  0  0  0  0  0  0  0  0  0  0
   -4.4443    0.9646   -2.8308 H   0  0  0  0  0  0  0  0  0  0  0  0
   -3.6070    0.5802   -0.2543 H   0  0  0  0  0  0  0  0  0  0  0  0
   -5.2576    0.1230   -0.0056 H   0  0  0  0  0  0  0  0  0  0  0  0
   -2.9396   -2.4178   -2.1268 H   0  0  0  0  0  0  0  0  0  0  0  0
   -3.2794   -0.9526   -3.0387 H   0  0  0  0  0  0  0  0  0  0  0  0
   -1.8154    0.3569   -1.5018 H   0  0  0  0  0  0  0  0  0  0  0  0
   -0.9414   -1.0255   -2.2002 H   0  0  0  0  0  0  0  0  0  0  0  0
  1  2  3  0
  2  3  1  0
  3  4  2  0
  4  5  1  0
  5  6  2  0
  6  7  1  0
  7  8  2  0
  8  9  1  0
  9 10  2  0
 10 11  1  0
 11 12  2  0
 11 13  1  0
 13 14  1  0
 14 15  1  0
 15 16  1  0
 16 17  1  0
 17 18  1  0
 18 19  1  0
 19 20  1  0
 20 21  1  0
 21 22  1  0
 22 23  1  0
 23 24  1  0
 24 25  1  0
  6 26  1  0
 26 27  2  0
 27 28  1  0
 28 29  3  0
 27  3  1  0
 12  7  1  0
 25 10  1  0
  5 30  1  0
  8 31  1  0
  9 32  1  0
 12 33  1  0
 14 34  1  0
 14 35  1  0
 15 36  1  0
 15 37  1  0
 17 38  1  0
 17 39  1  0
 18 40  1  0
 18 41  1  0
 20 42  1  0
 20 43  1  0
 21 44  1  0
 21 45  1  0
 23 46  1  0
 23 47  1  0
 24 48  1  0
 24 49  1  0
M  END
$$$$
