
     RDKit          3D

 41 43  0  0  0  0  0  0  0  0999 V2000
   -3.8748   -0.1899    3.4163 C   0  0  0  0  0  0  0  0  0  0  0  0
   -4.8020   -0.5743    2.4075 O   0  0  0  0  0  0  0  0  0  0  0  0
   -4.3504   -0.5623    1.1158 C   0  0  0  0  0  0  0  0  0  0  0  0
   -5.3043   -0.9301    0.1656 C   0  0  0  0  0  0  0  0  0  0  0  0
   -4.9854   -0.9656   -1.1938 C   0  0  0  0  0  0  0  0  0  0  0  0
   -3.6985   -0.6293   -1.6147 C   0  0  0  0  0  0  0  0  0  0  0  0
   -3.2709   -0.6288   -2.9228 O   0  0  0  0  0  0  0  0  0  0  0  0
   -4.2191   -1.0143   -3.9114 C   0  0  0  0  0  0  0  0  0  0  0  0
   -2.7288   -0.2533   -0.6602 C   0  0  0  0  0  0  0  0  0  0  0  0
   -1.4452    0.0698   -1.1542 N   0  0  0  0  0  0  0  0  0  0  0  0
   -0.3548    0.5385   -0.4661 C   0  0  0  0  0  0  0  0  0  0  0  0
   -0.2882    0.8236    0.7267 O   0  0  0  0  0  0  0  0  0  0  0  0
    0.7442    0.6985   -1.3016 N   0  0  0  0  0  0  0  0  0  0  0  0
    1.9713    0.9884   -0.6415 N   0  0  0  0  0  0  0  0  0  0  0  0
    3.0466    0.1720   -0.9563 C   0  0  0  0  0  0  0  0  0  0  0  0
    2.9918   -0.6109   -1.9044 O   0  0  0  0  0  0  0  0  0  0  0  0
    4.1977    0.2983   -0.0810 C   0  0  0  0  0  0  0  0  0  0  0  0
    5.2924   -0.5662   -0.0301 C   0  0  0  0  0  0  0  0  0  0  0  0
    6.1255   -0.0187    0.9542 C   0  0  0  0  0  0  0  0  0  0  0  0
    7.3184   -0.3008    1.5362 O   0  0  0  0  0  0  0  0  0  0  0  0
    7.5047    0.7085    2.4368 C   0  0  0  0  0  0  0  0  0  0  0  0
    6.4730    1.6216    2.4453 C   0  0  0  0  0  0  0  0  0  0  0  0
    5.5979    1.1087    1.4671 C   0  0  0  0  0  0  0  0  0  0  0  0
    4.4073    1.3280    0.8302 N   0  0  0  0  0  0  0  0  0  0  0  0
   -3.0609   -0.2259    0.6993 C   0  0  0  0  0  0  0  0  0  0  0  0
   -4.3898   -0.2434    4.3804 H   0  0  0  0  0  0  0  0  0  0  0  0
   -3.0251   -0.8796    3.4547 H   0  0  0  0  0  0  0  0  0  0  0  0
   -3.5420    0.8436    3.2741 H   0  0  0  0  0  0  0  0  0  0  0  0
   -6.3089   -1.1932    0.4897 H   0  0  0  0  0  0  0  0  0  0  0  0
   -5.7640   -1.2591   -1.8890 H   0  0  0  0  0  0  0  0  0  0  0  0
   -3.7229   -0.9662   -4.8855 H   0  0  0  0  0  0  0  0  0  0  0  0
   -5.0671   -0.3220   -3.9357 H   0  0  0  0  0  0  0  0  0  0  0  0
   -4.5517   -2.0462   -3.7583 H   0  0  0  0  0  0  0  0  0  0  0  0
   -1.3701    0.0199   -2.1636 H   0  0  0  0  0  0  0  0  0  0  0  0
    0.8517    0.0096   -2.0466 H   0  0  0  0  0  0  0  0  0  0  0  0
    1.8438    1.2797    0.3262 H   0  0  0  0  0  0  0  0  0  0  0  0
    5.4444   -1.4572   -0.6232 H   0  0  0  0  0  0  0  0  0  0  0  0
    8.4258    0.6383    3.0000 H   0  0  0  0  0  0  0  0  0  0  0  0
    6.3825    2.5044    3.0597 H   0  0  0  0  0  0  0  0  0  0  0  0
    3.8184    2.1327    1.0067 H   0  0  0  0  0  0  0  0  0  0  0  0
   -2.3125    0.0530    1.4292 H   0  0  0  0  0  0  0  0  0  0  0  0
  1  2  1  0
  2  3  1  0
  3  4  2  0
  4  5  1  0
  5  6  2  0
  6  7  1  0
  7  8  1  0
  6  9  1  0
  9 10  1  0
 10 11  1  0
 11 12  2  0
 11 13  1  0
 13 14  1  0
 14 15  1  0
 15 16  2  0
 15 17  1  0
 17 18  2  0
 18 19  1  0
 19 20  1  0
 20 21  1  0
 21 22  2  0
 22 23  1  0
 23 24  1  0
  9 25  2  0
 25  3  1  0
 24 17  1  0
 23 19  2  0
  1 26  1  0
  1 27  1  0
  1 28  1  0
  4 29  1  0
  5 30  1  0
  8 31  1  0
  8 32  1  0
  8 33  1  0
 10 34  1  0
 13 35  1  0
 14 36  1  0
 18 37  1  0
 21 38  1  0
 22 39  1  0
 24 40  1  0
 25 41  1  0
M  END
$$$$
