
     RDKit          3D

123129  0  0  0  0  0  0  0  0999 V2000
    6.2336   -1.4664   -4.1398 C   0  0  0  0  0  0  0  0  0  0  0  0
    5.6569   -1.3294   -2.7356 C   0  0  0  0  0  0  0  0  0  0  0  0
    4.5305   -0.4499   -2.8154 O   0  0  0  0  0  0  0  0  0  0  0  0
    3.8588   -0.2976   -1.5682 C   0  0  0  0  0  0  0  0  0  0  0  0
    2.7906    0.6272   -1.7942 O   0  0  0  0  0  0  0  0  0  0  0  0
    1.5198    0.2337   -1.2606 C   0  0  0  0  0  0  0  0  0  0  0  0
    0.8918    1.5182   -0.7068 C   0  0  0  0  0  0  0  0  0  0  0  0
   -0.5112    1.3047   -0.1365 C   0  0  0  0  0  0  0  0  0  0  0  0
   -1.5075    0.6362   -1.1218 C   0  0  0  0  0  0  0  0  0  0  0  0
   -1.8303    1.7387   -2.1883 C   0  0  0  0  0  0  0  0  0  0  0  0
   -0.8569   -0.6505   -1.7641 C   0  0  0  0  0  0  0  0  0  0  0  0
   -0.9212   -1.8553   -0.7786 C   0  0  0  0  0  0  0  0  0  0  0  0
   -2.2866   -2.1397   -0.1367 C   0  0  0  0  0  0  0  0  0  0  0  0
   -2.9179   -0.9236    0.6084 C   0  0  0  0  0  0  0  0  0  0  0  0
   -2.0395   -0.6898    1.8636 C   0  0  0  0  0  0  0  0  0  0  0  0
   -2.9020    0.2583   -0.4342 C   0  0  0  0  0  0  0  0  0  0  0  0
   -3.9118   -0.1355   -1.5204 C   0  0  0  0  0  0  0  0  0  0  0  0
   -5.1051   -0.6699   -1.2495 C   0  0  0  0  0  0  0  0  0  0  0  0
   -5.5638   -0.7481    0.1147 C   0  0  0  0  0  0  0  0  0  0  0  0
   -6.7975   -0.2759    0.4476 C   0  0  0  0  0  0  0  0  0  0  0  0
   -7.7954    0.2711   -0.5738 C   0  0  0  0  0  0  0  0  0  0  0  0
   -8.0341    1.7895   -0.4065 C   0  0  0  0  0  0  0  0  0  0  0  0
   -6.7845    2.5832   -0.8380 C   0  0  0  0  0  0  0  0  0  0  0  0
   -9.2030    2.2131   -1.3167 C   0  0  0  0  0  0  0  0  0  0  0  0
   -8.3959    2.1150    1.0579 C   0  0  0  0  0  0  0  0  0  0  0  0
   -7.4449    1.4797    2.0798 C   0  0  0  0  0  0  0  0  0  0  0  0
   -7.2610   -0.0598    1.9025 C   0  0  0  0  0  0  0  0  0  0  0  0
   -8.6035   -0.7899    2.2225 C   0  0  0  0  0  0  0  0  0  0  0  0
   -9.0887   -0.5003    3.5341 O   0  0  0  0  0  0  0  0  0  0  0  0
   -6.2167   -0.5959    2.9234 C   0  0  0  0  0  0  0  0  0  0  0  0
   -6.3820    0.0068    4.2139 O   0  0  0  0  0  0  0  0  0  0  0  0
   -4.7721   -0.4355    2.4512 C   0  0  0  0  0  0  0  0  0  0  0  0
   -4.4762   -1.1957    1.1202 C   0  0  0  0  0  0  0  0  0  0  0  0
   -4.6842   -2.7174    1.3590 C   0  0  0  0  0  0  0  0  0  0  0  0
    0.6206   -0.4514   -2.3405 C   0  0  0  0  0  0  0  0  0  0  0  0
    1.2246   -1.8345   -2.7195 C   0  0  0  0  0  0  0  0  0  0  0  0
    0.5973    0.3786   -3.6618 C   0  0  0  0  0  0  0  0  0  0  0  0
    1.8314    0.3520   -4.3739 O   0  0  0  0  0  0  0  0  0  0  0  0
    4.8018    0.3074   -0.5080 C   0  0  0  0  0  0  0  0  0  0  0  0
    5.1933    1.6447   -0.8793 O   0  0  0  0  0  0  0  0  0  0  0  0
    6.0529   -0.5677   -0.3726 C   0  0  0  0  0  0  0  0  0  0  0  0
    7.0418    0.0709    0.4512 O   0  0  0  0  0  0  0  0  0  0  0  0
    6.8222   -0.0862    1.8558 C   0  0  0  0  0  0  0  0  0  0  0  0
    7.7028   -1.0984    2.3393 O   0  0  0  0  0  0  0  0  0  0  0  0
    8.9053   -0.6107    2.9684 C   0  0  0  0  0  0  0  0  0  0  0  0
    9.9110   -1.7640    3.0349 C   0  0  0  0  0  0  0  0  0  0  0  0
   11.0022   -1.4177    3.8832 O   0  0  0  0  0  0  0  0  0  0  0  0
    9.5005    0.6339    2.2730 C   0  0  0  0  0  0  0  0  0  0  0  0
    9.9636    0.3000    0.9498 O   0  0  0  0  0  0  0  0  0  0  0  0
    8.4633    1.7773    2.1842 C   0  0  0  0  0  0  0  0  0  0  0  0
    8.5027    2.3626    0.8654 O   0  0  0  0  0  0  0  0  0  0  0  0
    7.0454    1.2834    2.5200 C   0  0  0  0  0  0  0  0  0  0  0  0
    6.0602    2.2337    2.0985 O   0  0  0  0  0  0  0  0  0  0  0  0
    6.7025   -0.7943   -1.7446 C   0  0  0  0  0  0  0  0  0  0  0  0
    7.7791   -1.7277   -1.5939 O   0  0  0  0  0  0  0  0  0  0  0  0
    7.0755   -2.1654   -4.1638 H   0  0  0  0  0  0  0  0  0  0  0  0
    6.5692   -0.4959   -4.5224 H   0  0  0  0  0  0  0  0  0  0  0  0
    5.4624   -1.8261   -4.8320 H   0  0  0  0  0  0  0  0  0  0  0  0
    5.3105   -2.3229   -2.4222 H   0  0  0  0  0  0  0  0  0  0  0  0
    3.4908   -1.2773   -1.2419 H   0  0  0  0  0  0  0  0  0  0  0  0
    1.6721   -0.4424   -0.4104 H   0  0  0  0  0  0  0  0  0  0  0  0
    0.9018    2.3088   -1.4640 H   0  0  0  0  0  0  0  0  0  0  0  0
    1.5397    1.9098    0.0891 H   0  0  0  0  0  0  0  0  0  0  0  0
   -0.3700    0.7184    0.7625 H   0  0  0  0  0  0  0  0  0  0  0  0
   -0.9112    2.2694    0.2014 H   0  0  0  0  0  0  0  0  0  0  0  0
   -2.6588    2.3757   -1.8543 H   0  0  0  0  0  0  0  0  0  0  0  0
   -2.1071    1.3117   -3.1566 H   0  0  0  0  0  0  0  0  0  0  0  0
   -1.0074    2.4323   -2.3668 H   0  0  0  0  0  0  0  0  0  0  0  0
   -1.4804   -0.9456   -2.6207 H   0  0  0  0  0  0  0  0  0  0  0  0
   -0.6583   -2.7738   -1.3158 H   0  0  0  0  0  0  0  0  0  0  0  0
   -0.1618   -1.7422   -0.0000 H   0  0  0  0  0  0  0  0  0  0  0  0
   -2.1506   -2.9768    0.5602 H   0  0  0  0  0  0  0  0  0  0  0  0
   -2.9531   -2.5131   -0.9245 H   0  0  0  0  0  0  0  0  0  0  0  0
   -2.2644   -1.4289    2.6410 H   0  0  0  0  0  0  0  0  0  0  0  0
   -0.9731   -0.8357    1.6949 H   0  0  0  0  0  0  0  0  0  0  0  0
   -2.1837    0.3121    2.2799 H   0  0  0  0  0  0  0  0  0  0  0  0
   -3.2743    1.1661    0.0636 H   0  0  0  0  0  0  0  0  0  0  0  0
   -3.6528   -0.0442   -2.5716 H   0  0  0  0  0  0  0  0  0  0  0  0
   -5.7636   -0.9582   -2.0620 H   0  0  0  0  0  0  0  0  0  0  0  0
   -8.7396   -0.2762   -0.4689 H   0  0  0  0  0  0  0  0  0  0  0  0
   -7.4993    0.0774   -1.6081 H   0  0  0  0  0  0  0  0  0  0  0  0
   -5.9092    2.3532   -0.2207 H   0  0  0  0  0  0  0  0  0  0  0  0
   -6.5180    2.3636   -1.8792 H   0  0  0  0  0  0  0  0  0  0  0  0
   -6.9593    3.6620   -0.7653 H   0  0  0  0  0  0  0  0  0  0  0  0
  -10.1128    1.6486   -1.0797 H   0  0  0  0  0  0  0  0  0  0  0  0
   -9.4321    3.2791   -1.2006 H   0  0  0  0  0  0  0  0  0  0  0  0
   -8.9699    2.0335   -2.3727 H   0  0  0  0  0  0  0  0  0  0  0  0
   -9.4186    1.7795    1.2709 H   0  0  0  0  0  0  0  0  0  0  0  0
   -8.4029    3.2015    1.2094 H   0  0  0  0  0  0  0  0  0  0  0  0
   -6.4718    1.9784    2.0111 H   0  0  0  0  0  0  0  0  0  0  0  0
   -7.8263    1.7164    3.0804 H   0  0  0  0  0  0  0  0  0  0  0  0
   -8.4830   -1.8763    2.1400 H   0  0  0  0  0  0  0  0  0  0  0  0
   -9.4049   -0.5111    1.5353 H   0  0  0  0  0  0  0  0  0  0  0  0
   -8.3212   -0.4846    4.1405 H   0  0  0  0  0  0  0  0  0  0  0  0
   -6.4020   -1.6587    3.1061 H   0  0  0  0  0  0  0  0  0  0  0  0
   -5.9262    0.8667    4.2065 H   0  0  0  0  0  0  0  0  0  0  0  0
   -4.5390    0.6323    2.3430 H   0  0  0  0  0  0  0  0  0  0  0  0
   -4.1399   -0.7964    3.2706 H   0  0  0  0  0  0  0  0  0  0  0  0
   -4.0077   -3.0908    2.1355 H   0  0  0  0  0  0  0  0  0  0  0  0
   -5.7052   -2.9649    1.6678 H   0  0  0  0  0  0  0  0  0  0  0  0
   -4.5196   -3.3045    0.4492 H   0  0  0  0  0  0  0  0  0  0  0  0
    1.4403   -2.4415   -1.8351 H   0  0  0  0  0  0  0  0  0  0  0  0
    0.5355   -2.3932   -3.3623 H   0  0  0  0  0  0  0  0  0  0  0  0
    2.1677   -1.7542   -3.2673 H   0  0  0  0  0  0  0  0  0  0  0  0
    0.3779    1.4314   -3.4969 H   0  0  0  0  0  0  0  0  0  0  0  0
   -0.1662   -0.0148   -4.3420 H   0  0  0  0  0  0  0  0  0  0  0  0
    2.5456    0.5165   -3.7241 H   0  0  0  0  0  0  0  0  0  0  0  0
    4.2777    0.4071    0.4477 H   0  0  0  0  0  0  0  0  0  0  0  0
    4.4175    2.0326   -1.3348 H   0  0  0  0  0  0  0  0  0  0  0  0
    5.8010   -1.5447    0.0617 H   0  0  0  0  0  0  0  0  0  0  0  0
    5.7955   -0.4144    2.0498 H   0  0  0  0  0  0  0  0  0  0  0  0
    8.6454   -0.3361    3.9990 H   0  0  0  0  0  0  0  0  0  0  0  0
    9.4312   -2.6621    3.4393 H   0  0  0  0  0  0  0  0  0  0  0  0
   10.2941   -2.0193    2.0410 H   0  0  0  0  0  0  0  0  0  0  0  0
   11.6547   -2.1365    3.8032 H   0  0  0  0  0  0  0  0  0  0  0  0
   10.3767    0.9874    2.8293 H   0  0  0  0  0  0  0  0  0  0  0  0
   10.1725    1.1568    0.5274 H   0  0  0  0  0  0  0  0  0  0  0  0
    8.7247    2.5799    2.8841 H   0  0  0  0  0  0  0  0  0  0  0  0
    8.1509    1.6708    0.2610 H   0  0  0  0  0  0  0  0  0  0  0  0
    6.9461    1.1744    3.6059 H   0  0  0  0  0  0  0  0  0  0  0  0
    6.2523    2.4304    1.1570 H   0  0  0  0  0  0  0  0  0  0  0  0
    7.1321    0.1458   -2.1115 H   0  0  0  0  0  0  0  0  0  0  0  0
    8.3710   -1.3424   -0.9154 H   0  0  0  0  0  0  0  0  0  0  0  0
  1  2  1  0
  2  3  1  0
  3  4  1  0
  4  5  1  0
  5  6  1  0
  6  7  1  0
  7  8  1  0
  8  9  1  0
  9 10  1  0
  9 11  1  0
 11 12  1  0
 12 13  1  0
 13 14  1  0
 14 15  1  0
 14 16  1  0
 16 17  1  0
 17 18  2  0
 18 19  1  0
 19 20  2  0
 20 21  1  0
 21 22  1  0
 22 23  1  0
 22 24  1  0
 22 25  1  0
 25 26  1  0
 26 27  1  0
 27 28  1  0
 28 29  1  0
 27 30  1  0
 30 31  1  0
 30 32  1  0
 32 33  1  0
 33 34  1  0
 11 35  1  0
 35 36  1  0
 35 37  1  0
 37 38  1  0
  4 39  1  0
 39 40  1  0
 39 41  1  0
 41 42  1  0
 42 43  1  0
 43 44  1  0
 44 45  1  0
 45 46  1  0
 46 47  1  0
 45 48  1  0
 48 49  1  0
 48 50  1  0
 50 51  1  0
 50 52  1  0
 52 53  1  0
 41 54  1  0
 54 55  1  0
 54  2  1  0
 35  6  1  0
 52 43  1  0
 16  9  1  0
 33 19  1  0
 33 14  1  0
 27 20  1  0
  1 56  1  0
  1 57  1  0
  1 58  1  0
  2 59  1  0
  4 60  1  0
  6 61  1  0
  7 62  1  0
  7 63  1  0
  8 64  1  0
  8 65  1  0
 10 66  1  0
 10 67  1  0
 10 68  1  0
 11 69  1  0
 12 70  1  0
 12 71  1  0
 13 72  1  0
 13 73  1  0
 15 74  1  0
 15 75  1  0
 15 76  1  0
 16 77  1  0
 17 78  1  0
 18 79  1  0
 21 80  1  0
 21 81  1  0
 23 82  1  0
 23 83  1  0
 23 84  1  0
 24 85  1  0
 24 86  1  0
 24 87  1  0
 25 88  1  0
 25 89  1  0
 26 90  1  0
 26 91  1  0
 28 92  1  0
 28 93  1  0
 29 94  1  0
 30 95  1  0
 31 96  1  0
 32 97  1  0
 32 98  1  0
 34 99  1  0
 34100  1  0
 34101  1  0
 36102  1  0
 36103  1  0
 36104  1  0
 37105  1  0
 37106  1  0
 38107  1  0
 39108  1  0
 40109  1  0
 41110  1  0
 43111  1  0
 45112  1  0
 46113  1  0
 46114  1  0
 47115  1  0
 48116  1  0
 49117  1  0
 50118  1  0
 51119  1  0
 52120  1  0
 53121  1  0
 54122  1  0
 55123  1  0
M  END
$$$$
