
     RDKit          3D

 58 61  0  0  0  0  0  0  0  0999 V2000
    1.9223   -2.7086    2.3908 S   0  0  0  0  0  0  0  0  0  0  0  0
    1.3449   -1.6986    1.1837 C   0  0  0  0  0  0  0  0  0  0  0  0
    2.2036   -1.4633    0.1527 N   0  0  0  0  0  0  0  0  0  0  0  0
    2.2662   -0.2957   -0.7149 C   0  0  0  0  0  0  0  0  0  0  0  0
    3.7068    0.0859   -1.0525 C   0  0  0  0  0  0  0  0  0  0  0  0
    4.4194    0.7199    0.1510 C   0  0  0  0  0  0  0  0  0  0  0  0
    5.7985    1.1215   -0.1674 N   0  0  0  0  0  0  0  0  0  0  0  0
    6.6687   -0.0522   -0.4208 C   0  0  0  0  0  0  0  0  0  0  0  0
    8.1500    0.2489   -0.1453 C   0  0  0  0  0  0  0  0  0  0  0  0
    8.4042    0.5845    1.2240 O   0  0  0  0  0  0  0  0  0  0  0  0
    7.2787    1.1919    1.8719 C   0  0  0  0  0  0  0  0  0  0  0  0
    6.3776    1.9662    0.9009 C   0  0  0  0  0  0  0  0  0  0  0  0
    0.1003   -1.1048    1.1653 N   0  0  0  0  0  0  0  0  0  0  0  0
   -0.7354   -1.0234    2.3792 C   0  0  0  0  0  0  0  0  0  0  0  0
   -1.9025   -0.0282    2.2484 C   0  0  0  0  0  0  0  0  0  0  0  0
   -2.7283   -0.3093    1.0730 N   0  0  0  0  0  0  0  0  0  0  0  0
   -3.9530    0.2547    0.8725 C   0  0  0  0  0  0  0  0  0  0  0  0
   -4.6942    0.0020   -0.1882 N   0  0  0  0  0  0  0  0  0  0  0  0
   -5.8976    0.6880   -0.1453 C   0  0  0  0  0  0  0  0  0  0  0  0
   -6.8729    0.5607   -1.2210 C   0  0  0  0  0  0  0  0  0  0  0  0
   -8.2490    0.7049   -0.9954 C   0  0  0  0  0  0  0  0  0  0  0  0
   -9.1580    0.5865   -2.0510 C   0  0  0  0  0  0  0  0  0  0  0  0
   -8.7015    0.3188   -3.3400 C   0  0  0  0  0  0  0  0  0  0  0  0
   -7.3386    0.1651   -3.5754 C   0  0  0  0  0  0  0  0  0  0  0  0
   -6.4291    0.2816   -2.5219 C   0  0  0  0  0  0  0  0  0  0  0  0
   -6.0515    1.5083    0.9504 C   0  0  0  0  0  0  0  0  0  0  0  0
   -4.6810    1.3854    1.9663 S   0  0  0  0  0  0  0  0  0  0  0  0
   -2.1526   -1.1661    0.0309 C   0  0  0  0  0  0  0  0  0  0  0  0
   -0.6380   -0.9171   -0.0985 C   0  0  0  0  0  0  0  0  0  0  0  0
    3.0567   -2.0025    0.2341 H   0  0  0  0  0  0  0  0  0  0  0  0
    1.7506    0.5447   -0.2426 H   0  0  0  0  0  0  0  0  0  0  0  0
    1.7428   -0.5595   -1.6403 H   0  0  0  0  0  0  0  0  0  0  0  0
    3.6930    0.8070   -1.8796 H   0  0  0  0  0  0  0  0  0  0  0  0
    4.2438   -0.8032   -1.4052 H   0  0  0  0  0  0  0  0  0  0  0  0
    4.4026    0.0454    1.0167 H   0  0  0  0  0  0  0  0  0  0  0  0
    3.8462    1.6123    0.4324 H   0  0  0  0  0  0  0  0  0  0  0  0
    6.5569   -0.3657   -1.4625 H   0  0  0  0  0  0  0  0  0  0  0  0
    6.3718   -0.8906    0.2233 H   0  0  0  0  0  0  0  0  0  0  0  0
    8.7595   -0.6288   -0.3851 H   0  0  0  0  0  0  0  0  0  0  0  0
    8.5058    1.0723   -0.7756 H   0  0  0  0  0  0  0  0  0  0  0  0
    6.7129    0.4060    2.3858 H   0  0  0  0  0  0  0  0  0  0  0  0
    7.6704    1.8668    2.6397 H   0  0  0  0  0  0  0  0  0  0  0  0
    6.9859    2.7312    0.4032 H   0  0  0  0  0  0  0  0  0  0  0  0
    5.6040    2.5131    1.4556 H   0  0  0  0  0  0  0  0  0  0  0  0
   -0.1072   -0.7360    3.2290 H   0  0  0  0  0  0  0  0  0  0  0  0
   -1.1299   -2.0280    2.5768 H   0  0  0  0  0  0  0  0  0  0  0  0
   -2.4983   -0.0889    3.1661 H   0  0  0  0  0  0  0  0  0  0  0  0
   -1.4971    0.9862    2.1665 H   0  0  0  0  0  0  0  0  0  0  0  0
   -8.6349    0.8927    0.0023 H   0  0  0  0  0  0  0  0  0  0  0  0
  -10.2209    0.6955   -1.8653 H   0  0  0  0  0  0  0  0  0  0  0  0
   -9.4087    0.2325   -4.1626 H   0  0  0  0  0  0  0  0  0  0  0  0
   -6.9785   -0.0472   -4.5792 H   0  0  0  0  0  0  0  0  0  0  0  0
   -5.3660    0.1565   -2.7200 H   0  0  0  0  0  0  0  0  0  0  0  0
   -6.8671    2.1698    1.2004 H   0  0  0  0  0  0  0  0  0  0  0  0
   -2.6058   -0.9877   -0.9518 H   0  0  0  0  0  0  0  0  0  0  0  0
   -2.3388   -2.2144    0.2923 H   0  0  0  0  0  0  0  0  0  0  0  0
   -0.2284   -1.5814   -0.8680 H   0  0  0  0  0  0  0  0  0  0  0  0
   -0.4792    0.1227   -0.4098 H   0  0  0  0  0  0  0  0  0  0  0  0
  1  2  2  0
  2  3  1  0
  3  4  1  0
  4  5  1  0
  5  6  1  0
  6  7  1  0
  7  8  1  0
  8  9  1  0
  9 10  1  0
 10 11  1  0
 11 12  1  0
  2 13  1  0
 13 14  1  0
 14 15  1  0
 15 16  1  0
 16 17  1  0
 17 18  2  0
 18 19  1  0
 19 20  1  0
 20 21  2  0
 21 22  1  0
 22 23  2  0
 23 24  1  0
 24 25  2  0
 19 26  2  0
 26 27  1  0
 16 28  1  0
 28 29  1  0
 12  7  1  0
 29 13  1  0
 27 17  1  0
 25 20  1  0
  3 30  1  0
  4 31  1  0
  4 32  1  0
  5 33  1  0
  5 34  1  0
  6 35  1  0
  6 36  1  0
  8 37  1  0
  8 38  1  0
  9 39  1  0
  9 40  1  0
 11 41  1  0
 11 42  1  0
 12 43  1  0
 12 44  1  0
 14 45  1  0
 14 46  1  0
 15 47  1  0
 15 48  1  0
 21 49  1  0
 22 50  1  0
 23 51  1  0
 24 52  1  0
 25 53  1  0
 26 54  1  0
 28 55  1  0
 28 56  1  0
 29 57  1  0
 29 58  1  0
M  END
$$$$
