
     RDKit          3D

 42 43  0  0  0  0  0  0  0  0999 V2000
    5.3790    3.3946   -1.2244 C   0  0  0  0  0  0  0  0  0  0  0  0
    4.3615    2.3054   -1.0978 C   0  0  0  0  0  0  0  0  0  0  0  0
    4.8847    0.6824   -1.0500 S   0  0  0  0  0  0  0  0  0  0  0  0
    3.2974    0.1001   -0.9126 C   0  0  0  0  0  0  0  0  0  0  0  0
    3.0799   -1.2234   -0.8326 N   0  0  0  0  0  0  0  0  0  0  0  0
    1.7892   -1.5310   -0.7312 C   0  0  0  0  0  0  0  0  0  0  0  0
    0.7566   -0.6817   -0.7016 N   0  0  0  0  0  0  0  0  0  0  0  0
    1.0227    0.6383   -0.7722 C   0  0  0  0  0  0  0  0  0  0  0  0
   -0.3764    1.7154   -0.7197 S   0  0  0  0  0  0  0  0  0  0  0  0
   -0.5889    1.8102    1.0856 C   0  0  0  0  0  0  0  0  0  0  0  0
   -1.0738    0.5264    1.7447 C   0  0  0  0  0  0  0  0  0  0  0  0
   -0.8770    0.3250    2.9426 O   0  0  0  0  0  0  0  0  0  0  0  0
   -1.8001   -0.3332    0.9500 N   0  0  0  0  0  0  0  0  0  0  0  0
   -2.2700   -1.6300    1.4333 C   0  0  0  0  0  0  0  0  0  0  0  0
   -3.4814   -1.4462    2.3528 C   0  0  0  0  0  0  0  0  0  0  0  0
   -2.5324   -2.5865    0.2400 C   0  0  0  0  0  0  0  0  0  0  0  0
   -2.7019   -4.0367    0.7019 C   0  0  0  0  0  0  0  0  0  0  0  0
   -3.7271   -2.1732   -0.6249 C   0  0  0  0  0  0  0  0  0  0  0  0
    2.3422    1.1081   -0.8951 C   0  0  0  0  0  0  0  0  0  0  0  0
    2.9783    2.4173   -1.0114 C   0  0  0  0  0  0  0  0  0  0  0  0
    2.2521    3.7279   -1.0399 C   0  0  0  0  0  0  0  0  0  0  0  0
    5.2103    3.9631   -2.1449 H   0  0  0  0  0  0  0  0  0  0  0  0
    5.3047    4.0812   -0.3746 H   0  0  0  0  0  0  0  0  0  0  0  0
    6.4041    3.0109   -1.2528 H   0  0  0  0  0  0  0  0  0  0  0  0
    1.5480   -2.5874   -0.6645 H   0  0  0  0  0  0  0  0  0  0  0  0
   -1.3270    2.5893    1.3004 H   0  0  0  0  0  0  0  0  0  0  0  0
    0.3613    2.1030    1.5440 H   0  0  0  0  0  0  0  0  0  0  0  0
   -1.6143   -0.2429   -0.0457 H   0  0  0  0  0  0  0  0  0  0  0  0
   -1.4530   -2.0527    2.0330 H   0  0  0  0  0  0  0  0  0  0  0  0
   -3.8547   -2.4047    2.7240 H   0  0  0  0  0  0  0  0  0  0  0  0
   -4.2999   -0.9288    1.8416 H   0  0  0  0  0  0  0  0  0  0  0  0
   -3.2222   -0.8403    3.2276 H   0  0  0  0  0  0  0  0  0  0  0  0
   -1.6432   -2.5622   -0.4050 H   0  0  0  0  0  0  0  0  0  0  0  0
   -1.8527   -4.3522    1.3168 H   0  0  0  0  0  0  0  0  0  0  0  0
   -2.7545   -4.7099   -0.1608 H   0  0  0  0  0  0  0  0  0  0  0  0
   -3.6176   -4.1755    1.2849 H   0  0  0  0  0  0  0  0  0  0  0  0
   -3.7956   -2.8139   -1.5110 H   0  0  0  0  0  0  0  0  0  0  0  0
   -3.6296   -1.1403   -0.9735 H   0  0  0  0  0  0  0  0  0  0  0  0
   -4.6728   -2.2639   -0.0811 H   0  0  0  0  0  0  0  0  0  0  0  0
    1.7048    3.8830   -0.1051 H   0  0  0  0  0  0  0  0  0  0  0  0
    2.9358    4.5742   -1.1574 H   0  0  0  0  0  0  0  0  0  0  0  0
    1.5533    3.7609   -1.8814 H   0  0  0  0  0  0  0  0  0  0  0  0
  1  2  1  0
  2  3  1  0
  3  4  1  0
  4  5  2  0
  5  6  1  0
  6  7  2  0
  7  8  1  0
  8  9  1  0
  9 10  1  0
 10 11  1  0
 11 12  2  0
 11 13  1  0
 13 14  1  0
 14 15  1  0
 14 16  1  0
 16 17  1  0
 16 18  1  0
  8 19  2  0
 19 20  1  0
 20 21  1  0
 20  2  2  0
 19  4  1  0
  1 22  1  0
  1 23  1  0
  1 24  1  0
  6 25  1  0
 10 26  1  0
 10 27  1  0
 13 28  1  0
 14 29  1  0
 15 30  1  0
 15 31  1  0
 15 32  1  0
 16 33  1  0
 17 34  1  0
 17 35  1  0
 17 36  1  0
 18 37  1  0
 18 38  1  0
 18 39  1  0
 21 40  1  0
 21 41  1  0
 21 42  1  0
M  END
$$$$
