
     RDKit          3D

 53 55  0  0  0  0  0  0  0  0999 V2000
    6.2526   -4.0989    1.9681 C   0  0  0  0  0  0  0  0  0  0  0  0
    6.3170   -3.9897    0.5521 O   0  0  0  0  0  0  0  0  0  0  0  0
    5.3999   -3.1677   -0.0443 C   0  0  0  0  0  0  0  0  0  0  0  0
    5.3174   -3.2869   -1.4328 C   0  0  0  0  0  0  0  0  0  0  0  0
    4.4182   -2.5038   -2.1610 C   0  0  0  0  0  0  0  0  0  0  0  0
    3.5847   -1.5816   -1.5096 C   0  0  0  0  0  0  0  0  0  0  0  0
    2.6667   -0.7916   -2.2219 C   0  0  0  0  0  0  0  0  0  0  0  0
    1.8307    0.1286   -1.5683 C   0  0  0  0  0  0  0  0  0  0  0  0
    0.8570    0.9619   -2.3854 C   0  0  0  0  0  0  0  0  0  0  0  0
    1.4931    2.2994   -2.7888 C   0  0  0  0  0  0  0  0  0  0  0  0
   -0.5352    1.0566   -1.7307 C   0  0  0  0  0  0  0  0  0  0  0  0
   -1.3090    0.1024   -1.8096 O   0  0  0  0  0  0  0  0  0  0  0  0
   -0.7789    2.2175   -1.0184 N   0  0  0  0  0  0  0  0  0  0  0  0
   -1.9445    2.5568   -0.3012 C   0  0  0  0  0  0  0  0  0  0  0  0
   -1.9264    3.7741    0.3883 C   0  0  0  0  0  0  0  0  0  0  0  0
   -3.0260    4.1906    1.1401 C   0  0  0  0  0  0  0  0  0  0  0  0
   -4.1598    3.3893    1.2140 C   0  0  0  0  0  0  0  0  0  0  0  0
   -4.1812    2.1806    0.5270 C   0  0  0  0  0  0  0  0  0  0  0  0
   -5.6048    1.1248    0.6276 S   0  0  0  0  0  6  0  0  0  0  0  0
   -6.1008    0.9431   -0.7170 O   0  0  0  0  0  0  0  0  0  0  0  0
   -6.4624    1.6230    1.6826 O   0  0  0  0  0  0  0  0  0  0  0  0
   -4.9460   -0.3531    1.1726 N   0  0  0  0  0  0  0  0  0  0  0  0
   -4.4117   -0.3426    2.5495 C   0  0  0  0  0  0  0  0  0  0  0  0
   -5.8187   -1.5173    0.9175 C   0  0  0  0  0  0  0  0  0  0  0  0
   -3.0875    1.7637   -0.2392 C   0  0  0  0  0  0  0  0  0  0  0  0
    1.9444    0.2655   -0.1764 C   0  0  0  0  0  0  0  0  0  0  0  0
    2.8529   -0.5147    0.5428 C   0  0  0  0  0  0  0  0  0  0  0  0
    3.6745   -1.4458   -0.1063 C   0  0  0  0  0  0  0  0  0  0  0  0
    4.5844   -2.2427    0.6137 C   0  0  0  0  0  0  0  0  0  0  0  0
    6.5180   -3.1531    2.4502 H   0  0  0  0  0  0  0  0  0  0  0  0
    5.2618   -4.4397    2.2928 H   0  0  0  0  0  0  0  0  0  0  0  0
    6.9847   -4.8493    2.2850 H   0  0  0  0  0  0  0  0  0  0  0  0
    5.9529   -4.0005   -1.9547 H   0  0  0  0  0  0  0  0  0  0  0  0
    4.3728   -2.6241   -3.2432 H   0  0  0  0  0  0  0  0  0  0  0  0
    2.6010   -0.8990   -3.3046 H   0  0  0  0  0  0  0  0  0  0  0  0
    0.6581    0.4314   -3.3298 H   0  0  0  0  0  0  0  0  0  0  0  0
    2.3526    2.1385   -3.4573 H   0  0  0  0  0  0  0  0  0  0  0  0
    1.8660    2.8605   -1.9175 H   0  0  0  0  0  0  0  0  0  0  0  0
    0.7722    2.9315   -3.3227 H   0  0  0  0  0  0  0  0  0  0  0  0
   -0.0202    2.8805   -0.9417 H   0  0  0  0  0  0  0  0  0  0  0  0
   -1.0525    4.4201    0.3534 H   0  0  0  0  0  0  0  0  0  0  0  0
   -2.9896    5.1369    1.6750 H   0  0  0  0  0  0  0  0  0  0  0  0
   -5.0131    3.7065    1.8046 H   0  0  0  0  0  0  0  0  0  0  0  0
   -3.8407    0.5635    2.7542 H   0  0  0  0  0  0  0  0  0  0  0  0
   -3.7199   -1.1849    2.6715 H   0  0  0  0  0  0  0  0  0  0  0  0
   -5.2126   -0.4389    3.2876 H   0  0  0  0  0  0  0  0  0  0  0  0
   -5.8504   -1.7382   -0.1579 H   0  0  0  0  0  0  0  0  0  0  0  0
   -5.4218   -2.4086    1.4250 H   0  0  0  0  0  0  0  0  0  0  0  0
   -6.8363   -1.3436    1.2930 H   0  0  0  0  0  0  0  0  0  0  0  0
   -3.1607    0.8162   -0.7643 H   0  0  0  0  0  0  0  0  0  0  0  0
    1.3225    0.9655    0.3751 H   0  0  0  0  0  0  0  0  0  0  0  0
    2.9138   -0.3922    1.6239 H   0  0  0  0  0  0  0  0  0  0  0  0
    4.6408   -2.1204    1.6936 H   0  0  0  0  0  0  0  0  0  0  0  0
  1  2  1  0
  2  3  1  0
  3  4  2  0
  4  5  1  0
  5  6  2  0
  6  7  1  0
  7  8  2  0
  8  9  1  0
  9 10  1  0
  9 11  1  0
 11 12  2  0
 11 13  1  0
 13 14  1  0
 14 15  2  0
 15 16  1  0
 16 17  2  0
 17 18  1  0
 18 19  1  0
 19 20  2  0
 19 21  2  0
 19 22  1  0
 22 23  1  0
 22 24  1  0
 18 25  2  0
  8 26  1  0
 26 27  2  0
 27 28  1  0
 28 29  2  0
 29  3  1  0
 28  6  1  0
 25 14  1  0
  1 30  1  0
  1 31  1  0
  1 32  1  0
  4 33  1  0
  5 34  1  0
  7 35  1  0
  9 36  1  0
 10 37  1  0
 10 38  1  0
 10 39  1  0
 13 40  1  0
 15 41  1  0
 16 42  1  0
 17 43  1  0
 23 44  1  0
 23 45  1  0
 23 46  1  0
 24 47  1  0
 24 48  1  0
 24 49  1  0
 25 50  1  0
 26 51  1  0
 27 52  1  0
 29 53  1  0
M  END
$$$$
