
     RDKit          3D

 39 40  0  0  0  0  0  0  0  0999 V2000
   -4.5132   -1.9723    0.8204 C   0  0  0  0  0  0  0  0  0  0  0  0
   -3.0269   -2.2607    0.9661 C   0  0  0  0  0  0  0  0  0  0  0  0
   -2.2499   -1.1263    1.6382 C   0  0  0  0  0  0  0  0  0  0  0  0
   -2.1649    0.1870    0.8517 C   0  0  0  0  0  0  0  0  0  0  0  0
   -1.3154    0.1055   -0.3244 N   0  0  0  0  0  0  0  0  0  0  0  0
   -1.6536   -0.3800   -1.5440 C   0  0  0  0  0  0  0  0  0  0  0  0
   -2.9369   -0.2955   -1.9354 N   0  0  0  0  0  0  0  0  0  0  0  0
   -0.7144   -0.8641   -2.3002 N   0  0  0  0  0  0  0  0  0  0  0  0
    0.5092   -0.7888   -1.4495 C   0  0  0  0  0  0  0  0  0  0  0  0
    0.1360    0.0121   -0.1810 C   0  0  0  0  0  0  0  0  0  0  0  0
    0.7543    1.4194   -0.1618 C   0  0  0  0  0  0  0  0  0  0  0  0
    2.2337    1.4136    0.1471 C   0  0  0  0  0  0  0  0  0  0  0  0
    2.6854    1.1605    1.4506 C   0  0  0  0  0  0  0  0  0  0  0  0
    4.0517    1.1445    1.7339 C   0  0  0  0  0  0  0  0  0  0  0  0
    4.9687    1.3824    0.7181 C   0  0  0  0  0  0  0  0  0  0  0  0
    6.2935    1.3561    1.0393 O   0  0  0  0  0  0  0  0  0  0  0  0
    4.5425    1.6389   -0.5804 C   0  0  0  0  0  0  0  0  0  0  0  0
    3.1748    1.6555   -0.8641 C   0  0  0  0  0  0  0  0  0  0  0  0
   -4.9660   -1.7523    1.7926 H   0  0  0  0  0  0  0  0  0  0  0  0
   -5.0248   -2.8443    0.4003 H   0  0  0  0  0  0  0  0  0  0  0  0
   -4.7009   -1.1253    0.1558 H   0  0  0  0  0  0  0  0  0  0  0  0
   -2.9149   -3.1620    1.5815 H   0  0  0  0  0  0  0  0  0  0  0  0
   -2.5955   -2.5023   -0.0101 H   0  0  0  0  0  0  0  0  0  0  0  0
   -2.7199   -0.9132    2.6070 H   0  0  0  0  0  0  0  0  0  0  0  0
   -1.2417   -1.4901    1.8666 H   0  0  0  0  0  0  0  0  0  0  0  0
   -3.1643    0.5473    0.5865 H   0  0  0  0  0  0  0  0  0  0  0  0
   -1.7510    0.9525    1.5199 H   0  0  0  0  0  0  0  0  0  0  0  0
   -3.3496    0.6037   -1.7296 H   0  0  0  0  0  0  0  0  0  0  0  0
   -3.0150   -0.5178   -2.9222 H   0  0  0  0  0  0  0  0  0  0  0  0
    1.3245   -0.3371   -2.0214 H   0  0  0  0  0  0  0  0  0  0  0  0
    0.8069   -1.8093   -1.1824 H   0  0  0  0  0  0  0  0  0  0  0  0
    0.4254   -0.5543    0.7108 H   0  0  0  0  0  0  0  0  0  0  0  0
    0.2560    2.0379    0.5966 H   0  0  0  0  0  0  0  0  0  0  0  0
    0.5694    1.9316   -1.1155 H   0  0  0  0  0  0  0  0  0  0  0  0
    1.9776    0.9777    2.2559 H   0  0  0  0  0  0  0  0  0  0  0  0
    4.3998    0.9486    2.7440 H   0  0  0  0  0  0  0  0  0  0  0  0
    6.8092    1.5373    0.2366 H   0  0  0  0  0  0  0  0  0  0  0  0
    5.2521    1.8271   -1.3798 H   0  0  0  0  0  0  0  0  0  0  0  0
    2.8482    1.8567   -1.8826 H   0  0  0  0  0  0  0  0  0  0  0  0
  1  2  1  0
  2  3  1  0
  3  4  1  0
  4  5  1  0
  5  6  1  0
  6  7  1  0
  6  8  2  0
  8  9  1  0
  9 10  1  0
 10 11  1  0
 11 12  1  0
 12 13  2  0
 13 14  1  0
 14 15  2  0
 15 16  1  0
 15 17  1  0
 17 18  2  0
 10  5  1  0
 18 12  1  0
  1 19  1  0
  1 20  1  0
  1 21  1  0
  2 22  1  0
  2 23  1  0
  3 24  1  0
  3 25  1  0
  4 26  1  0
  4 27  1  0
  7 28  1  0
  7 29  1  0
  9 30  1  0
  9 31  1  0
 10 32  1  0
 11 33  1  0
 11 34  1  0
 13 35  1  0
 14 36  1  0
 16 37  1  0
 17 38  1  0
 18 39  1  0
M  END
$$$$
