
     RDKit          3D

 52 54  0  0  0  0  0  0  0  0999 V2000
    2.6255   -0.4660   -0.5019 O   0  0  0  0  0  0  0  0  0  0  0  0
    3.2230    0.2801    0.2690 C   0  0  0  0  0  0  0  0  0  0  0  0
    4.6986    0.5993    0.1645 C   0  0  0  0  0  0  0  0  0  0  0  0
    5.3472   -0.1065   -1.0230 C   0  0  0  0  0  0  0  0  0  0  0  0
    6.8157    0.2236   -1.1183 C   0  0  0  0  0  0  0  0  0  0  0  0
    7.7662   -0.5723   -0.4647 C   0  0  0  0  0  0  0  0  0  0  0  0
    9.1230   -0.2524   -0.5345 C   0  0  0  0  0  0  0  0  0  0  0  0
    9.5409    0.8669   -1.2519 C   0  0  0  0  0  0  0  0  0  0  0  0
    8.6031    1.6669   -1.9019 C   0  0  0  0  0  0  0  0  0  0  0  0
    7.2459    1.3483   -1.8353 C   0  0  0  0  0  0  0  0  0  0  0  0
    2.6096    0.9280    1.3348 N   0  0  0  0  0  0  0  0  0  0  0  0
    1.2870    0.8720    1.7591 C   0  0  0  0  0  0  0  0  0  0  0  0
    0.9265    1.8131    3.0888 S   0  0  0  0  0  0  0  0  0  0  0  0
    0.4838    0.0468    1.0077 N   0  0  0  0  0  0  0  0  0  0  0  0
   -0.8757   -0.3291    1.0747 C   0  0  0  0  0  0  0  0  0  0  0  0
   -1.3155   -1.2089    0.0691 C   0  0  0  0  0  0  0  0  0  0  0  0
   -2.6382   -1.6590    0.0225 C   0  0  0  0  0  0  0  0  0  0  0  0
   -3.5384   -1.2227    0.9910 C   0  0  0  0  0  0  0  0  0  0  0  0
   -5.2232   -1.7746    0.9633 S   0  0  0  0  0  6  0  0  0  0  0  0
   -5.5688   -2.1809    2.3084 O   0  0  0  0  0  0  0  0  0  0  0  0
   -5.3998   -2.6733   -0.1579 O   0  0  0  0  0  0  0  0  0  0  0  0
   -6.0833   -0.3437    0.6040 N   0  0  0  0  0  0  0  0  0  0  0  0
   -5.7230    0.3099   -0.6989 C   0  0  0  0  0  0  0  0  0  0  0  0
   -6.8406    1.2538   -1.1536 C   0  0  0  0  0  0  0  0  0  0  0  0
   -8.0748    0.5721   -1.4143 O   0  0  0  0  0  0  0  0  0  0  0  0
   -8.2672   -0.5874   -0.5897 C   0  0  0  0  0  0  0  0  0  0  0  0
   -7.5705   -0.4800    0.7692 C   0  0  0  0  0  0  0  0  0  0  0  0
   -3.1221   -0.3589    2.0039 C   0  0  0  0  0  0  0  0  0  0  0  0
   -1.7942    0.0861    2.0402 C   0  0  0  0  0  0  0  0  0  0  0  0
    4.8093    1.6868    0.0685 H   0  0  0  0  0  0  0  0  0  0  0  0
    5.1828    0.2917    1.0996 H   0  0  0  0  0  0  0  0  0  0  0  0
    5.2200   -1.1932   -0.9376 H   0  0  0  0  0  0  0  0  0  0  0  0
    4.8472    0.1768   -1.9581 H   0  0  0  0  0  0  0  0  0  0  0  0
    7.4567   -1.4487    0.1007 H   0  0  0  0  0  0  0  0  0  0  0  0
    9.8550   -0.8776   -0.0289 H   0  0  0  0  0  0  0  0  0  0  0  0
   10.5978    1.1144   -1.3063 H   0  0  0  0  0  0  0  0  0  0  0  0
    8.9297    2.5393   -2.4625 H   0  0  0  0  0  0  0  0  0  0  0  0
    6.5270    1.9820   -2.3498 H   0  0  0  0  0  0  0  0  0  0  0  0
    3.1850    1.5298    1.9115 H   0  0  0  0  0  0  0  0  0  0  0  0
    0.9903   -0.3880    0.2336 H   0  0  0  0  0  0  0  0  0  0  0  0
   -0.6247   -1.5616   -0.6957 H   0  0  0  0  0  0  0  0  0  0  0  0
   -2.9470   -2.3448   -0.7631 H   0  0  0  0  0  0  0  0  0  0  0  0
   -4.8003    0.8823   -0.5626 H   0  0  0  0  0  0  0  0  0  0  0  0
   -5.5614   -0.4496   -1.4715 H   0  0  0  0  0  0  0  0  0  0  0  0
   -6.5496    1.7673   -2.0755 H   0  0  0  0  0  0  0  0  0  0  0  0
   -7.0320    2.0229   -0.3967 H   0  0  0  0  0  0  0  0  0  0  0  0
   -7.9055   -1.4597   -1.1461 H   0  0  0  0  0  0  0  0  0  0  0  0
   -9.3463   -0.7104   -0.4506 H   0  0  0  0  0  0  0  0  0  0  0  0
   -7.9174    0.4118    1.3049 H   0  0  0  0  0  0  0  0  0  0  0  0
   -7.8275   -1.3447    1.3889 H   0  0  0  0  0  0  0  0  0  0  0  0
   -3.8221   -0.0292    2.7695 H   0  0  0  0  0  0  0  0  0  0  0  0
   -1.5275    0.7509    2.8507 H   0  0  0  0  0  0  0  0  0  0  0  0
  1  2  2  0
  2  3  1  0
  3  4  1  0
  4  5  1  0
  5  6  2  0
  6  7  1  0
  7  8  2  0
  8  9  1  0
  9 10  2  0
  2 11  1  0
 11 12  1  0
 12 13  2  0
 12 14  1  0
 14 15  1  0
 15 16  2  0
 16 17  1  0
 17 18  2  0
 18 19  1  0
 19 20  2  0
 19 21  2  0
 19 22  1  0
 22 23  1  0
 23 24  1  0
 24 25  1  0
 25 26  1  0
 26 27  1  0
 18 28  1  0
 28 29  2  0
 10  5  1  0
 29 15  1  0
 27 22  1  0
  3 30  1  0
  3 31  1  0
  4 32  1  0
  4 33  1  0
  6 34  1  0
  7 35  1  0
  8 36  1  0
  9 37  1  0
 10 38  1  0
 11 39  1  0
 14 40  1  0
 16 41  1  0
 17 42  1  0
 23 43  1  0
 23 44  1  0
 24 45  1  0
 24 46  1  0
 26 47  1  0
 26 48  1  0
 27 49  1  0
 27 50  1  0
 28 51  1  0
 29 52  1  0
M  END
$$$$
