
     RDKit          3D

 52 53  0  0  0  0  0  0  0  0999 V2000
   -5.7616   -2.4711   -1.0179 C   0  0  0  0  0  0  0  0  0  0  0  0
   -5.8786   -1.1828   -1.8232 C   0  0  0  0  0  0  0  0  0  0  0  0
   -5.6513    0.1204   -1.0276 C   0  0  0  0  0  0  0  0  0  0  0  0
   -6.7006    0.3189    0.0732 C   0  0  0  0  0  0  0  0  0  0  0  0
   -4.2109    0.2578   -0.5563 C   0  0  0  0  0  0  0  0  0  0  0  0
   -3.7918   -0.1149    0.7267 C   0  0  0  0  0  0  0  0  0  0  0  0
   -2.4529    0.0162    1.1116 C   0  0  0  0  0  0  0  0  0  0  0  0
   -1.4948    0.5292    0.2256 C   0  0  0  0  0  0  0  0  0  0  0  0
   -0.0320    0.6606    0.6127 C   0  0  0  0  0  0  0  0  0  0  0  0
    0.1570    1.3774    1.9534 C   0  0  0  0  0  0  0  0  0  0  0  0
    0.5902   -0.6604    0.6215 N   0  0  0  0  0  0  0  0  0  0  0  0
    1.9027   -1.0144    0.6420 C   0  0  0  0  0  0  0  0  0  0  0  0
    2.2543   -2.6267    0.8918 S   0  0  0  0  0  0  0  0  0  0  0  0
    2.8058   -0.0036    0.4860 N   0  0  0  0  0  0  0  0  0  0  0  0
    4.2651   -0.1298    0.4072 C   0  0  0  0  0  0  0  0  0  0  0  0
    4.9272    1.1762    0.8536 C   0  0  0  0  0  0  0  0  0  0  0  0
    6.4529    1.0638    0.8765 C   0  0  0  0  0  0  0  0  0  0  0  0
    7.0090    0.0877   -0.1612 C   0  0  0  0  0  0  0  0  0  0  0  0
    6.1063   -0.0138   -1.3823 C   0  0  0  0  0  0  0  0  0  0  0  0
    4.7065   -0.5149   -1.0170 C   0  0  0  0  0  0  0  0  0  0  0  0
   -1.9090    0.8828   -1.0653 C   0  0  0  0  0  0  0  0  0  0  0  0
   -3.2468    0.7509   -1.4487 C   0  0  0  0  0  0  0  0  0  0  0  0
   -6.4956   -2.5096   -0.2083 H   0  0  0  0  0  0  0  0  0  0  0  0
   -5.9453   -3.3322   -1.6691 H   0  0  0  0  0  0  0  0  0  0  0  0
   -4.7624   -2.5904   -0.5899 H   0  0  0  0  0  0  0  0  0  0  0  0
   -5.1689   -1.2320   -2.6588 H   0  0  0  0  0  0  0  0  0  0  0  0
   -6.8791   -1.1501   -2.2730 H   0  0  0  0  0  0  0  0  0  0  0  0
   -5.8229    0.9472   -1.7330 H   0  0  0  0  0  0  0  0  0  0  0  0
   -6.5572    1.2815    0.5768 H   0  0  0  0  0  0  0  0  0  0  0  0
   -7.7088    0.3154   -0.3555 H   0  0  0  0  0  0  0  0  0  0  0  0
   -6.6660   -0.4629    0.8377 H   0  0  0  0  0  0  0  0  0  0  0  0
   -4.4944   -0.5273    1.4461 H   0  0  0  0  0  0  0  0  0  0  0  0
   -2.1681   -0.2988    2.1132 H   0  0  0  0  0  0  0  0  0  0  0  0
    0.4745    1.2613   -0.1520 H   0  0  0  0  0  0  0  0  0  0  0  0
   -0.2168    0.7817    2.7933 H   0  0  0  0  0  0  0  0  0  0  0  0
   -0.3649    2.3407    1.9608 H   0  0  0  0  0  0  0  0  0  0  0  0
    1.2166    1.5717    2.1497 H   0  0  0  0  0  0  0  0  0  0  0  0
   -0.0353   -1.4447    0.7700 H   0  0  0  0  0  0  0  0  0  0  0  0
    2.4413    0.8526    0.1003 H   0  0  0  0  0  0  0  0  0  0  0  0
    4.5787   -0.9188    1.1013 H   0  0  0  0  0  0  0  0  0  0  0  0
    4.5681    1.4733    1.8467 H   0  0  0  0  0  0  0  0  0  0  0  0
    4.6336    1.9866    0.1726 H   0  0  0  0  0  0  0  0  0  0  0  0
    6.7870    0.7463    1.8717 H   0  0  0  0  0  0  0  0  0  0  0  0
    6.8803    2.0609    0.7152 H   0  0  0  0  0  0  0  0  0  0  0  0
    8.0167    0.4005   -0.4574 H   0  0  0  0  0  0  0  0  0  0  0  0
    7.1120   -0.9061    0.2928 H   0  0  0  0  0  0  0  0  0  0  0  0
    6.0267    0.9739   -1.8538 H   0  0  0  0  0  0  0  0  0  0  0  0
    6.5513   -0.6806   -2.1295 H   0  0  0  0  0  0  0  0  0  0  0  0
    4.6793   -1.6076   -1.1119 H   0  0  0  0  0  0  0  0  0  0  0  0
    3.9969   -0.1347   -1.7631 H   0  0  0  0  0  0  0  0  0  0  0  0
   -1.1913    1.2597   -1.7909 H   0  0  0  0  0  0  0  0  0  0  0  0
   -3.5327    1.0335   -2.4601 H   0  0  0  0  0  0  0  0  0  0  0  0
  1  2  1  0
  2  3  1  0
  3  4  1  0
  3  5  1  0
  5  6  2  0
  6  7  1  0
  7  8  2  0
  8  9  1  0
  9 10  1  0
  9 11  1  0
 11 12  1  0
 12 13  2  0
 12 14  1  0
 14 15  1  0
 15 16  1  0
 16 17  1  0
 17 18  1  0
 18 19  1  0
 19 20  1  0
  8 21  1  0
 21 22  2  0
 22  5  1  0
 20 15  1  0
  1 23  1  0
  1 24  1  0
  1 25  1  0
  2 26  1  0
  2 27  1  0
  3 28  1  0
  4 29  1  0
  4 30  1  0
  4 31  1  0
  6 32  1  0
  7 33  1  0
  9 34  1  0
 10 35  1  0
 10 36  1  0
 10 37  1  0
 11 38  1  0
 14 39  1  0
 15 40  1  0
 16 41  1  0
 16 42  1  0
 17 43  1  0
 17 44  1  0
 18 45  1  0
 18 46  1  0
 19 47  1  0
 19 48  1  0
 20 49  1  0
 20 50  1  0
 21 51  1  0
 22 52  1  0
M  END
$$$$
