
     RDKit          3D

 44 46  0  0  0  0  0  0  0  0999 V2000
    3.5339    3.2815   -3.5947 C   0  0  0  0  0  0  0  0  0  0  0  0
    2.7669    3.3474   -2.3541 N   0  0  0  0  0  0  0  0  0  0  0  0
    1.3640    2.9463   -2.5885 C   0  0  0  0  0  0  0  0  0  0  0  0
    0.6452    2.4133   -1.3291 C   0  0  0  0  0  0  0  0  0  0  0  0
    1.3054    1.1898   -0.8064 N   0  0  0  0  0  0  0  0  0  0  0  0
    0.5898    0.1353   -0.2086 C   0  0  0  0  0  0  0  0  0  0  0  0
   -0.6602    0.2757    0.2855 C   0  0  0  0  0  0  0  0  0  0  0  0
   -1.4236   -0.8214    0.8545 C   0  0  0  0  0  0  0  0  0  0  0  0
   -2.4280   -0.6025    1.7212 C   0  0  0  0  0  0  0  0  0  0  0  0
   -3.1026   -1.6863    2.4385 C   0  0  0  0  0  0  0  0  0  0  0  0
   -4.3026   -1.5380    3.0527 C   0  0  0  0  0  0  0  0  0  0  0  0
   -5.0299   -0.3117    3.0072 C   0  0  0  0  0  0  0  0  0  0  0  0
   -5.6120    0.6918    2.9675 N   0  0  0  0  0  0  0  0  0  0  0  0
   -4.9080   -2.6082    3.7740 C   0  0  0  0  0  0  0  0  0  0  0  0
   -5.3899   -3.4875    4.3586 N   0  0  0  0  0  0  0  0  0  0  0  0
   -2.2886   -2.9736    2.4678 C   0  0  0  0  0  0  0  0  0  0  0  0
   -1.7792   -3.3357    1.0756 C   0  0  0  0  0  0  0  0  0  0  0  0
   -0.9751   -2.2009    0.4243 C   0  0  0  0  0  0  0  0  0  0  0  0
    0.5265   -2.2996    0.6874 C   0  0  0  0  0  0  0  0  0  0  0  0
    1.2795   -1.2293   -0.1209 C   0  0  0  0  0  0  0  0  0  0  0  0
    2.7609    1.1294   -1.0809 C   0  0  0  0  0  0  0  0  0  0  0  0
    3.3763    2.5334   -1.2840 C   0  0  0  0  0  0  0  0  0  0  0  0
    3.0702    3.9047   -4.3675 H   0  0  0  0  0  0  0  0  0  0  0  0
    3.6160    2.2580   -3.9779 H   0  0  0  0  0  0  0  0  0  0  0  0
    4.5454    3.6736   -3.4412 H   0  0  0  0  0  0  0  0  0  0  0  0
    1.3124    2.1611   -3.3558 H   0  0  0  0  0  0  0  0  0  0  0  0
    0.8144    3.8120   -2.9759 H   0  0  0  0  0  0  0  0  0  0  0  0
   -0.3916    2.2005   -1.6146 H   0  0  0  0  0  0  0  0  0  0  0  0
    0.6264    3.1781   -0.5434 H   0  0  0  0  0  0  0  0  0  0  0  0
   -1.1297    1.2546    0.3072 H   0  0  0  0  0  0  0  0  0  0  0  0
   -2.7166    0.4235    1.9471 H   0  0  0  0  0  0  0  0  0  0  0  0
   -2.8644   -3.8227    2.8496 H   0  0  0  0  0  0  0  0  0  0  0  0
   -1.4391   -2.8422    3.1510 H   0  0  0  0  0  0  0  0  0  0  0  0
   -2.6461   -3.5608    0.4386 H   0  0  0  0  0  0  0  0  0  0  0  0
   -1.1865   -4.2570    1.1196 H   0  0  0  0  0  0  0  0  0  0  0  0
   -1.1300   -2.2954   -0.6610 H   0  0  0  0  0  0  0  0  0  0  0  0
    0.7369   -2.1670    1.7573 H   0  0  0  0  0  0  0  0  0  0  0  0
    0.9072   -3.2902    0.4114 H   0  0  0  0  0  0  0  0  0  0  0  0
    1.4214   -1.5993   -1.1448 H   0  0  0  0  0  0  0  0  0  0  0  0
    2.2732   -1.1320    0.3284 H   0  0  0  0  0  0  0  0  0  0  0  0
    2.9369    0.5096   -1.9680 H   0  0  0  0  0  0  0  0  0  0  0  0
    3.2840    0.6704   -0.2351 H   0  0  0  0  0  0  0  0  0  0  0  0
    4.4606    2.4420   -1.4246 H   0  0  0  0  0  0  0  0  0  0  0  0
    3.2502    3.0941   -0.3481 H   0  0  0  0  0  0  0  0  0  0  0  0
  1  2  1  0
  2  3  1  0
  3  4  1  0
  4  5  1  0
  5  6  1  0
  6  7  2  0
  7  8  1  0
  8  9  2  0
  9 10  1  0
 10 11  2  3
 11 12  1  0
 12 13  3  0
 11 14  1  0
 14 15  3  0
 10 16  1  0
 16 17  1  0
 17 18  1  0
 18 19  1  0
 19 20  1  0
  5 21  1  0
 21 22  1  0
 22  2  1  0
 20  6  1  0
 18  8  1  0
  1 23  1  0
  1 24  1  0
  1 25  1  0
  3 26  1  0
  3 27  1  0
  4 28  1  0
  4 29  1  0
  7 30  1  0
  9 31  1  0
 16 32  1  0
 16 33  1  0
 17 34  1  0
 17 35  1  0
 18 36  1  0
 19 37  1  0
 19 38  1  0
 20 39  1  0
 20 40  1  0
 21 41  1  0
 21 42  1  0
 22 43  1  0
 22 44  1  0
M  END
$$$$
