
     RDKit          3D

 35 37  0  0  0  0  0  0  0  0999 V2000
    5.5454    1.6925   -0.8604 C   0  0  0  0  0  0  0  0  0  0  0  0
    4.6278    0.4921   -0.6785 C   0  0  0  0  0  0  0  0  0  0  0  0
    4.3921    0.2015    0.8023 C   0  0  0  0  0  0  0  0  0  0  0  0
    3.3293   -1.2575    1.0367 S   0  0  0  0  0  0  0  0  0  0  0  0
    1.7593   -0.5954    0.7337 C   0  0  0  0  0  0  0  0  0  0  0  0
    1.4867    0.6684    0.5187 N   0  0  0  0  0  0  0  0  0  0  0  0
    0.1339    0.7719    0.3241 N   0  0  0  0  0  0  0  0  0  0  0  0
   -0.4010   -0.4309    0.4271 C   0  0  0  0  0  0  0  0  0  0  0  0
   -1.9398   -0.6857    0.2594 C   0  0  0  0  0  0  0  0  0  0  0  0
   -2.5953   -1.8945    0.3465 C   0  0  0  0  0  0  0  0  0  0  0  0
   -3.9324   -1.6664    0.1360 N   0  0  0  0  0  0  0  0  0  0  0  0
   -4.1610   -0.3296   -0.0872 C   0  0  0  0  0  0  0  0  0  0  0  0
   -5.3598    0.3474   -0.3442 C   0  0  0  0  0  0  0  0  0  0  0  0
   -5.2959    1.7304   -0.5351 C   0  0  0  0  0  0  0  0  0  0  0  0
   -4.0808    2.4062   -0.4710 C   0  0  0  0  0  0  0  0  0  0  0  0
   -2.8924    1.7130   -0.2130 C   0  0  0  0  0  0  0  0  0  0  0  0
   -2.9248    0.3157   -0.0159 C   0  0  0  0  0  0  0  0  0  0  0  0
    0.6064   -1.3328    0.6912 N   0  0  0  0  0  0  0  0  0  0  0  0
    0.4579   -2.7499    0.8787 C   0  0  0  0  0  0  0  0  0  0  0  0
    5.1080    2.5913   -0.4141 H   0  0  0  0  0  0  0  0  0  0  0  0
    6.5200    1.5158   -0.3943 H   0  0  0  0  0  0  0  0  0  0  0  0
    5.7084    1.8867   -1.9252 H   0  0  0  0  0  0  0  0  0  0  0  0
    5.0845   -0.3769   -1.1676 H   0  0  0  0  0  0  0  0  0  0  0  0
    3.6815    0.6959   -1.1923 H   0  0  0  0  0  0  0  0  0  0  0  0
    3.9661    1.0692    1.3174 H   0  0  0  0  0  0  0  0  0  0  0  0
    5.3499   -0.0173    1.2872 H   0  0  0  0  0  0  0  0  0  0  0  0
   -2.2588   -2.9018    0.5363 H   0  0  0  0  0  0  0  0  0  0  0  0
   -4.6541   -2.3739    0.1422 H   0  0  0  0  0  0  0  0  0  0  0  0
   -6.3091   -0.1755   -0.3950 H   0  0  0  0  0  0  0  0  0  0  0  0
   -6.2085    2.2864   -0.7365 H   0  0  0  0  0  0  0  0  0  0  0  0
   -4.0488    3.4824   -0.6218 H   0  0  0  0  0  0  0  0  0  0  0  0
   -1.9500    2.2530   -0.1655 H   0  0  0  0  0  0  0  0  0  0  0  0
   -0.1999   -2.9215    1.7345 H   0  0  0  0  0  0  0  0  0  0  0  0
    1.4166   -3.2299    1.0785 H   0  0  0  0  0  0  0  0  0  0  0  0
    0.0386   -3.1804   -0.0342 H   0  0  0  0  0  0  0  0  0  0  0  0
  1  2  1  0
  2  3  1  0
  3  4  1  0
  4  5  1  0
  5  6  2  0
  6  7  1  0
  7  8  2  0
  8  9  1  0
  9 10  2  0
 10 11  1  0
 11 12  1  0
 12 13  2  0
 13 14  1  0
 14 15  2  0
 15 16  1  0
 16 17  2  0
  8 18  1  0
 18 19  1  0
 18  5  1  0
 17  9  1  0
 17 12  1  0
  1 20  1  0
  1 21  1  0
  1 22  1  0
  2 23  1  0
  2 24  1  0
  3 25  1  0
  3 26  1  0
 10 27  1  0
 11 28  1  0
 13 29  1  0
 14 30  1  0
 15 31  1  0
 16 32  1  0
 19 33  1  0
 19 34  1  0
 19 35  1  0
M  END
$$$$
