
     RDKit          3D

 54 55  0  0  0  0  0  0  0  0999 V2000
   -1.1628    2.9339    2.5920 C   0  0  0  0  0  0  0  0  0  0  0  0
   -1.5217    1.8259    1.7737 O   0  0  0  0  0  0  0  0  0  0  0  0
   -0.5761    0.8397    1.6549 C   0  0  0  0  0  0  0  0  0  0  0  0
    0.8017    1.0830    1.6898 C   0  0  0  0  0  0  0  0  0  0  0  0
    1.7199    0.0277    1.5614 C   0  0  0  0  0  0  0  0  0  0  0  0
    3.2079    0.2926    1.5847 C   0  0  0  0  0  0  0  0  0  0  0  0
    3.7096    0.2883    0.2190 N   0  0  0  0  0  0  0  0  0  0  0  0
    5.0365    0.6422   -0.0362 C   0  0  0  0  0  0  0  0  0  0  0  0
    6.0576    0.5657    0.9186 C   0  0  0  0  0  0  0  0  0  0  0  0
    7.3866    0.8650    0.5882 C   0  0  0  0  0  0  0  0  0  0  0  0
    7.7226    1.2205   -0.7202 C   0  0  0  0  0  0  0  0  0  0  0  0
    9.1130    1.5433   -1.1205 C   0  0  0  0  0  0  0  0  0  0  0  0
    9.4787    1.8595   -2.2375 O   0  0  0  0  0  0  0  0  0  0  0  0
    9.9839    1.4570   -0.0994 O   0  0  0  0  0  0  0  0  0  0  0  0
    6.7230    1.2616   -1.6942 C   0  0  0  0  0  0  0  0  0  0  0  0
    5.3995    0.9610   -1.3534 C   0  0  0  0  0  0  0  0  0  0  0  0
    1.2409   -1.2770    1.3732 C   0  0  0  0  0  0  0  0  0  0  0  0
   -0.1318   -1.5249    1.3236 C   0  0  0  0  0  0  0  0  0  0  0  0
   -0.7116   -3.3145    1.0750 Br  0  0  0  0  0  0  0  0  0  0  0  0
   -1.0413   -0.4681    1.4424 C   0  0  0  0  0  0  0  0  0  0  0  0
   -2.3898   -0.7318    1.4373 O   0  0  0  0  0  0  0  0  0  0  0  0
   -2.9650   -0.4077    0.1751 C   0  0  0  0  0  0  0  0  0  0  0  0
   -4.4002   -0.9341    0.0584 C   0  0  0  0  0  0  0  0  0  0  0  0
   -4.9810   -1.5364    0.9550 O   0  0  0  0  0  0  0  0  0  0  0  0
   -4.9738   -0.6564   -1.1738 N   0  0  0  0  0  0  0  0  0  0  0  0
   -6.3413   -1.0308   -1.5667 C   0  0  0  0  0  0  0  0  0  0  0  0
   -6.5717   -0.5434   -3.0096 C   0  0  0  0  0  0  0  0  0  0  0  0
   -6.5255   -2.5567   -1.5390 C   0  0  0  0  0  0  0  0  0  0  0  0
   -7.3791   -0.3548   -0.6565 C   0  0  0  0  0  0  0  0  0  0  0  0
   -2.0788    3.4832    2.8302 H   0  0  0  0  0  0  0  0  0  0  0  0
   -0.4985    3.6142    2.0504 H   0  0  0  0  0  0  0  0  0  0  0  0
   -0.7105    2.6118    3.5364 H   0  0  0  0  0  0  0  0  0  0  0  0
    1.1813    2.0943    1.8056 H   0  0  0  0  0  0  0  0  0  0  0  0
    3.4041    1.2573    2.0691 H   0  0  0  0  0  0  0  0  0  0  0  0
    3.6927   -0.4858    2.1863 H   0  0  0  0  0  0  0  0  0  0  0  0
    3.0645    0.7205   -0.4379 H   0  0  0  0  0  0  0  0  0  0  0  0
    5.8480    0.2666    1.9413 H   0  0  0  0  0  0  0  0  0  0  0  0
    8.1496    0.8048    1.3605 H   0  0  0  0  0  0  0  0  0  0  0  0
   10.8448    1.6884   -0.5069 H   0  0  0  0  0  0  0  0  0  0  0  0
    6.9672    1.5161   -2.7235 H   0  0  0  0  0  0  0  0  0  0  0  0
    4.6456    0.9759   -2.1375 H   0  0  0  0  0  0  0  0  0  0  0  0
    1.9488   -2.0963    1.2582 H   0  0  0  0  0  0  0  0  0  0  0  0
   -2.3836   -0.8544   -0.6421 H   0  0  0  0  0  0  0  0  0  0  0  0
   -3.0069    0.6796    0.0434 H   0  0  0  0  0  0  0  0  0  0  0  0
   -4.4281   -0.1210   -1.8367 H   0  0  0  0  0  0  0  0  0  0  0  0
   -7.5777   -0.7961   -3.3627 H   0  0  0  0  0  0  0  0  0  0  0  0
   -5.8493   -0.9960   -3.6993 H   0  0  0  0  0  0  0  0  0  0  0  0
   -6.4530    0.5442   -3.0827 H   0  0  0  0  0  0  0  0  0  0  0  0
   -6.4397   -2.9630   -0.5262 H   0  0  0  0  0  0  0  0  0  0  0  0
   -7.5126   -2.8425   -1.9203 H   0  0  0  0  0  0  0  0  0  0  0  0
   -5.7690   -3.0554   -2.1562 H   0  0  0  0  0  0  0  0  0  0  0  0
   -8.3994   -0.5565   -1.0023 H   0  0  0  0  0  0  0  0  0  0  0  0
   -7.2381    0.7321   -0.6393 H   0  0  0  0  0  0  0  0  0  0  0  0
   -7.3107   -0.7087    0.3770 H   0  0  0  0  0  0  0  0  0  0  0  0
  1  2  1  0
  2  3  1  0
  3  4  2  0
  4  5  1  0
  5  6  1  0
  6  7  1  0
  7  8  1  0
  8  9  2  0
  9 10  1  0
 10 11  2  0
 11 12  1  0
 12 13  2  0
 12 14  1  0
 11 15  1  0
 15 16  2  0
  5 17  2  0
 17 18  1  0
 18 19  1  0
 18 20  2  0
 20 21  1  0
 21 22  1  0
 22 23  1  0
 23 24  2  0
 23 25  1  0
 25 26  1  0
 26 27  1  0
 26 28  1  0
 26 29  1  0
 20  3  1  0
 16  8  1  0
  1 30  1  0
  1 31  1  0
  1 32  1  0
  4 33  1  0
  6 34  1  0
  6 35  1  0
  7 36  1  0
  9 37  1  0
 10 38  1  0
 14 39  1  0
 15 40  1  0
 16 41  1  0
 17 42  1  0
 22 43  1  0
 22 44  1  0
 25 45  1  0
 27 46  1  0
 27 47  1  0
 27 48  1  0
 28 49  1  0
 28 50  1  0
 28 51  1  0
 29 52  1  0
 29 53  1  0
 29 54  1  0
M  END
$$$$
