
     RDKit          3D

 37 38  0  0  0  0  0  0  0  0999 V2000
    5.1790    1.3253    2.2228 C   0  0  0  0  0  0  0  0  0  0  0  0
    3.7437    1.0692    1.7563 C   0  0  0  0  0  0  0  0  0  0  0  0
    2.8950    0.5959    2.9398 C   0  0  0  0  0  0  0  0  0  0  0  0
    3.7442    0.0519    0.6005 C   0  0  0  0  0  0  0  0  0  0  0  0
    2.4044   -0.0941   -0.0492 C   0  0  0  0  0  0  0  0  0  0  0  0
    1.5278   -1.0338    0.2435 N   0  0  0  0  0  0  0  0  0  0  0  0
    0.3828   -0.9298   -0.5202 N   0  0  0  0  0  0  0  0  0  0  0  0
    0.4519    0.0672   -1.3698 C   0  0  0  0  0  0  0  0  0  0  0  0
   -0.6378    0.4087   -2.2536 N   0  0  0  0  0  0  0  0  0  0  0  0
   -1.1200   -0.8513   -3.2412 S   0  0  0  0  0  6  0  0  0  0  0  0
   -1.9059   -0.2323   -4.2924 O   0  0  0  0  0  0  0  0  0  0  0  0
    0.0501   -1.6240   -3.6076 O   0  0  0  0  0  0  0  0  0  0  0  0
   -2.2020   -1.8646   -2.2144 C   0  0  0  0  0  0  0  0  0  0  0  0
   -3.2451   -1.0213   -1.5277 C   0  0  0  0  0  0  0  0  0  0  0  0
   -4.3614   -0.5438   -2.2298 C   0  0  0  0  0  0  0  0  0  0  0  0
   -5.3237    0.2359   -1.5862 C   0  0  0  0  0  0  0  0  0  0  0  0
   -5.1844    0.5428   -0.2344 C   0  0  0  0  0  0  0  0  0  0  0  0
   -4.0833    0.0698    0.4757 C   0  0  0  0  0  0  0  0  0  0  0  0
   -3.1194   -0.7095   -0.1657 C   0  0  0  0  0  0  0  0  0  0  0  0
    1.8831    0.9903   -1.2809 S   0  0  0  0  0  0  0  0  0  0  0  0
    5.2002    2.0669    3.0284 H   0  0  0  0  0  0  0  0  0  0  0  0
    5.7924    1.7096    1.4010 H   0  0  0  0  0  0  0  0  0  0  0  0
    5.6462    0.4070    2.5947 H   0  0  0  0  0  0  0  0  0  0  0  0
    3.3319    2.0234    1.4032 H   0  0  0  0  0  0  0  0  0  0  0  0
    3.2429   -0.3721    3.3163 H   0  0  0  0  0  0  0  0  0  0  0  0
    2.9444    1.3157    3.7640 H   0  0  0  0  0  0  0  0  0  0  0  0
    1.8419    0.4937    2.6595 H   0  0  0  0  0  0  0  0  0  0  0  0
    4.0687   -0.9301    0.9684 H   0  0  0  0  0  0  0  0  0  0  0  0
    4.4798    0.3508   -0.1575 H   0  0  0  0  0  0  0  0  0  0  0  0
   -0.5264    1.2736   -2.7756 H   0  0  0  0  0  0  0  0  0  0  0  0
   -2.6742   -2.6018   -2.8725 H   0  0  0  0  0  0  0  0  0  0  0  0
   -1.5806   -2.4106   -1.4989 H   0  0  0  0  0  0  0  0  0  0  0  0
   -4.4881   -0.7690   -3.2877 H   0  0  0  0  0  0  0  0  0  0  0  0
   -6.1825    0.6043   -2.1415 H   0  0  0  0  0  0  0  0  0  0  0  0
   -5.9348    1.1493    0.2657 H   0  0  0  0  0  0  0  0  0  0  0  0
   -3.9742    0.3064    1.5311 H   0  0  0  0  0  0  0  0  0  0  0  0
   -2.2669   -1.0698    0.4086 H   0  0  0  0  0  0  0  0  0  0  0  0
  1  2  1  0
  2  3  1  0
  2  4  1  0
  4  5  1  0
  5  6  2  0
  6  7  1  0
  7  8  2  0
  8  9  1  0
  9 10  1  0
 10 11  2  0
 10 12  2  0
 10 13  1  0
 13 14  1  0
 14 15  2  0
 15 16  1  0
 16 17  2  0
 17 18  1  0
 18 19  2  0
  8 20  1  0
 20  5  1  0
 19 14  1  0
  1 21  1  0
  1 22  1  0
  1 23  1  0
  2 24  1  0
  3 25  1  0
  3 26  1  0
  3 27  1  0
  4 28  1  0
  4 29  1  0
  9 30  1  0
 13 31  1  0
 13 32  1  0
 15 33  1  0
 16 34  1  0
 17 35  1  0
 18 36  1  0
 19 37  1  0
M  END
$$$$
