
     RDKit          3D

 42 43  0  0  0  0  0  0  0  0999 V2000
   -2.1715    2.8525    1.2741 C   0  0  0  0  0  0  0  0  0  0  0  0
   -0.8003    2.3207    0.9574 C   0  0  0  0  0  0  0  0  0  0  0  0
    0.2744    2.7180    1.7745 C   0  0  0  0  0  0  0  0  0  0  0  0
    1.5762    2.2811    1.5204 C   0  0  0  0  0  0  0  0  0  0  0  0
    1.8182    1.4449    0.4322 C   0  0  0  0  0  0  0  0  0  0  0  0
    3.4660    0.8632    0.1022 S   0  0  0  0  0  6  0  0  0  0  0  0
    4.3254    1.3224    1.1777 O   0  0  0  0  0  0  0  0  0  0  0  0
    3.7559    1.1991   -1.2783 O   0  0  0  0  0  0  0  0  0  0  0  0
    3.3980   -0.9119    0.2343 C   0  0  0  0  0  0  0  0  0  0  0  0
    3.3370   -1.4983    1.5032 C   0  0  0  0  0  0  0  0  0  0  0  0
    3.2762   -2.8888    1.6132 C   0  0  0  0  0  0  0  0  0  0  0  0
    3.2835   -3.6778    0.4616 C   0  0  0  0  0  0  0  0  0  0  0  0
    3.2010   -5.3902    0.6023 Cl  0  0  0  0  0  0  0  0  0  0  0  0
    3.3579   -3.0900   -0.8023 C   0  0  0  0  0  0  0  0  0  0  0  0
    3.4204   -1.7000   -0.9206 C   0  0  0  0  0  0  0  0  0  0  0  0
    0.7774    1.0496   -0.4103 C   0  0  0  0  0  0  0  0  0  0  0  0
   -0.5312    1.4792   -0.1416 C   0  0  0  0  0  0  0  0  0  0  0  0
   -1.8234    0.9323   -1.2504 S   0  0  0  0  0  6  0  0  0  0  0  0
   -2.6419    2.0770   -1.5800 O   0  0  0  0  0  0  0  0  0  0  0  0
   -1.2140    0.1306   -2.2909 O   0  0  0  0  0  0  0  0  0  0  0  0
   -2.7434   -0.1215   -0.2698 N   0  0  0  0  0  0  0  0  0  0  0  0
   -2.0372   -1.3249    0.2201 C   0  0  0  0  0  0  0  0  0  0  0  0
   -4.0889   -0.4221   -0.8436 C   0  0  0  0  0  0  0  0  0  0  0  0
   -4.1180   -0.9892   -2.2438 C   0  0  0  0  0  0  0  0  0  0  0  0
   -4.7691   -0.5613   -3.1831 O   0  0  0  0  0  0  0  0  0  0  0  0
   -3.3714   -2.1040   -2.3885 O   0  0  0  0  0  0  0  0  0  0  0  0
   -2.1948    3.3209    2.2645 H   0  0  0  0  0  0  0  0  0  0  0  0
   -2.9150    2.0520    1.2944 H   0  0  0  0  0  0  0  0  0  0  0  0
   -2.4616    3.6141    0.5443 H   0  0  0  0  0  0  0  0  0  0  0  0
    0.1031    3.3834    2.6204 H   0  0  0  0  0  0  0  0  0  0  0  0
    2.3872    2.6074    2.1690 H   0  0  0  0  0  0  0  0  0  0  0  0
    3.3459   -0.8861    2.4028 H   0  0  0  0  0  0  0  0  0  0  0  0
    3.2310   -3.3518    2.5960 H   0  0  0  0  0  0  0  0  0  0  0  0
    3.3726   -3.7085   -1.6967 H   0  0  0  0  0  0  0  0  0  0  0  0
    3.4871   -1.2477   -1.9084 H   0  0  0  0  0  0  0  0  0  0  0  0
    0.9859    0.4213   -1.2746 H   0  0  0  0  0  0  0  0  0  0  0  0
   -2.7339   -1.9993    0.7280 H   0  0  0  0  0  0  0  0  0  0  0  0
   -1.2812   -1.0384    0.9567 H   0  0  0  0  0  0  0  0  0  0  0  0
   -1.5541   -1.8770   -0.5897 H   0  0  0  0  0  0  0  0  0  0  0  0
   -4.6288   -1.1157   -0.1885 H   0  0  0  0  0  0  0  0  0  0  0  0
   -4.6759    0.5042   -0.8387 H   0  0  0  0  0  0  0  0  0  0  0  0
   -3.4246   -2.2954   -3.3494 H   0  0  0  0  0  0  0  0  0  0  0  0
  1  2  1  0
  2  3  2  0
  3  4  1  0
  4  5  2  0
  5  6  1  0
  6  7  2  0
  6  8  2  0
  6  9  1  0
  9 10  2  0
 10 11  1  0
 11 12  2  0
 12 13  1  0
 12 14  1  0
 14 15  2  0
  5 16  1  0
 16 17  2  0
 17 18  1  0
 18 19  2  0
 18 20  2  0
 18 21  1  0
 21 22  1  0
 21 23  1  0
 23 24  1  0
 24 25  2  0
 24 26  1  0
 17  2  1  0
 15  9  1  0
  1 27  1  0
  1 28  1  0
  1 29  1  0
  3 30  1  0
  4 31  1  0
 10 32  1  0
 11 33  1  0
 14 34  1  0
 15 35  1  0
 16 36  1  0
 22 37  1  0
 22 38  1  0
 22 39  1  0
 23 40  1  0
 23 41  1  0
 26 42  1  0
M  END
$$$$
