
     RDKit          3D

 36 38  0  0  0  0  0  0  0  0999 V2000
    6.2413   -0.2431   -3.5179 Br  0  0  0  0  0  0  0  0  0  0  0  0
    4.9610   -0.4459   -2.1426 C   0  0  0  0  0  0  0  0  0  0  0  0
    5.0270   -1.5475   -1.2925 C   0  0  0  0  0  0  0  0  0  0  0  0
    4.0793   -1.6987   -0.2742 C   0  0  0  0  0  0  0  0  0  0  0  0
    3.0623   -0.7484   -0.0988 C   0  0  0  0  0  0  0  0  0  0  0  0
    2.0563   -0.8787    0.9501 C   0  0  0  0  0  0  0  0  0  0  0  0
    2.2614   -1.5229    2.1518 C   0  0  0  0  0  0  0  0  0  0  0  0
    0.8454   -1.4431    3.1088 S   0  0  0  0  0  0  0  0  0  0  0  0
    0.0468   -0.5408    1.8657 C   0  0  0  0  0  0  0  0  0  0  0  0
   -1.2412   -0.1749    2.0886 N   0  0  0  0  0  0  0  0  0  0  0  0
   -1.8317    0.6215    1.2538 C   0  0  0  0  0  0  0  0  0  0  0  0
   -3.2932    0.9401    1.5590 C   0  0  0  0  0  0  0  0  0  0  0  0
   -4.2762    0.2875    0.5796 C   0  0  0  0  0  0  0  0  0  0  0  0
   -3.6761   -0.3155   -0.6925 C   0  0  0  0  0  0  0  0  0  0  0  0
   -2.9638    0.6684   -1.6271 C   0  0  0  0  0  0  0  0  0  0  0  0
   -2.1009    1.7340   -0.9575 C   0  0  0  0  0  0  0  0  0  0  0  0
   -1.3008    1.1877    0.1137 N   0  0  0  0  0  0  0  0  0  0  0  0
    0.7963   -0.3205    0.7997 N   0  0  0  0  0  0  0  0  0  0  0  0
    3.0094    0.3509   -0.9700 C   0  0  0  0  0  0  0  0  0  0  0  0
    3.9558    0.5048   -1.9874 C   0  0  0  0  0  0  0  0  0  0  0  0
    5.8060   -2.2957   -1.4146 H   0  0  0  0  0  0  0  0  0  0  0  0
    4.1422   -2.5766    0.3640 H   0  0  0  0  0  0  0  0  0  0  0  0
    3.1468   -2.0175    2.5224 H   0  0  0  0  0  0  0  0  0  0  0  0
   -3.5322    0.6261    2.5823 H   0  0  0  0  0  0  0  0  0  0  0  0
   -3.4163    2.0296    1.5424 H   0  0  0  0  0  0  0  0  0  0  0  0
   -5.0491    1.0181    0.3106 H   0  0  0  0  0  0  0  0  0  0  0  0
   -4.8025   -0.5154    1.1121 H   0  0  0  0  0  0  0  0  0  0  0  0
   -4.4764   -0.8077   -1.2597 H   0  0  0  0  0  0  0  0  0  0  0  0
   -2.9811   -1.1193   -0.4170 H   0  0  0  0  0  0  0  0  0  0  0  0
   -3.7109    1.1762   -2.2498 H   0  0  0  0  0  0  0  0  0  0  0  0
   -2.3416    0.0845   -2.3175 H   0  0  0  0  0  0  0  0  0  0  0  0
   -1.4385    2.1858   -1.7045 H   0  0  0  0  0  0  0  0  0  0  0  0
   -2.7289    2.5499   -0.5822 H   0  0  0  0  0  0  0  0  0  0  0  0
   -0.4035    0.7787   -0.1577 H   0  0  0  0  0  0  0  0  0  0  0  0
    2.2301    1.1021   -0.8551 H   0  0  0  0  0  0  0  0  0  0  0  0
    3.8974    1.3662   -2.6473 H   0  0  0  0  0  0  0  0  0  0  0  0
  1  2  1  0
  2  3  2  0
  3  4  1  0
  4  5  2  0
  5  6  1  0
  6  7  2  0
  7  8  1  0
  8  9  1  0
  9 10  1  0
 10 11  2  3
 11 12  1  0
 12 13  1  0
 13 14  1  0
 14 15  1  0
 15 16  1  0
 16 17  1  0
  9 18  2  0
  5 19  1  0
 19 20  2  0
 20  2  1  0
 18  6  1  0
 17 11  1  0
  3 21  1  0
  4 22  1  0
  7 23  1  0
 12 24  1  0
 12 25  1  0
 13 26  1  0
 13 27  1  0
 14 28  1  0
 14 29  1  0
 15 30  1  0
 15 31  1  0
 16 32  1  0
 16 33  1  0
 17 34  1  0
 19 35  1  0
 20 36  1  0
M  END
$$$$
