
     RDKit          3D

 50 52  0  0  0  0  0  0  0  0999 V2000
    5.9226    0.4719   -4.4488 C   0  0  0  0  0  0  0  0  0  0  0  0
    5.2925   -0.0454   -3.1899 C   0  0  0  0  0  0  0  0  0  0  0  0
    4.5035   -1.2002   -3.2139 C   0  0  0  0  0  0  0  0  0  0  0  0
    3.8860   -1.6594   -2.0472 C   0  0  0  0  0  0  0  0  0  0  0  0
    4.0313   -0.9608   -0.8448 C   0  0  0  0  0  0  0  0  0  0  0  0
    3.2309   -1.5974    0.6173 S   0  0  0  0  0  0  0  0  0  0  0  0
    2.3106   -0.1290    1.1983 C   0  0  0  0  0  0  0  0  0  0  0  0
    1.3650    0.4072    0.1307 C   0  0  0  0  0  0  0  0  0  0  0  0
    1.6786    1.4394   -0.4697 O   0  0  0  0  0  0  0  0  0  0  0  0
    0.1752   -0.2705   -0.1373 N   0  0  0  0  0  0  0  0  0  0  0  0
   -0.3251   -1.3994    0.6621 C   0  0  0  0  0  0  0  0  0  0  0  0
   -1.3501   -0.9379    1.6348 C   0  0  0  0  0  0  0  0  0  0  0  0
   -2.6530   -0.8335    1.5011 N   0  0  0  0  0  0  0  0  0  0  0  0
   -3.0412   -0.3348    2.7289 C   0  0  0  0  0  0  0  0  0  0  0  0
   -4.4356   -0.0421    3.0454 C   0  0  0  0  0  0  0  0  0  0  0  0
   -4.8019    0.4728    4.2984 C   0  0  0  0  0  0  0  0  0  0  0  0
   -6.1403    0.7502    4.5906 C   0  0  0  0  0  0  0  0  0  0  0  0
   -7.1266    0.5162    3.6345 C   0  0  0  0  0  0  0  0  0  0  0  0
   -6.7779    0.0056    2.3859 C   0  0  0  0  0  0  0  0  0  0  0  0
   -5.4400   -0.2718    2.0927 C   0  0  0  0  0  0  0  0  0  0  0  0
   -2.0206   -0.1538    3.5851 N   0  0  0  0  0  0  0  0  0  0  0  0
   -0.9011   -0.5502    2.8609 O   0  0  0  0  0  0  0  0  0  0  0  0
   -0.7231    0.2167   -1.2084 C   0  0  0  0  0  0  0  0  0  0  0  0
   -1.2851    1.6137   -0.9349 C   0  0  0  0  0  0  0  0  0  0  0  0
   -0.0682    0.1316   -2.5897 C   0  0  0  0  0  0  0  0  0  0  0  0
    4.8212    0.1906   -0.8186 C   0  0  0  0  0  0  0  0  0  0  0  0
    5.4382    0.6516   -1.9855 C   0  0  0  0  0  0  0  0  0  0  0  0
    6.8483    1.0140   -4.2288 H   0  0  0  0  0  0  0  0  0  0  0  0
    6.1815   -0.3516   -5.1227 H   0  0  0  0  0  0  0  0  0  0  0  0
    5.2314    1.1464   -4.9631 H   0  0  0  0  0  0  0  0  0  0  0  0
    4.3635   -1.7508   -4.1414 H   0  0  0  0  0  0  0  0  0  0  0  0
    3.2842   -2.5638   -2.0909 H   0  0  0  0  0  0  0  0  0  0  0  0
    1.7587   -0.3731    2.1094 H   0  0  0  0  0  0  0  0  0  0  0  0
    3.0155    0.6615    1.4762 H   0  0  0  0  0  0  0  0  0  0  0  0
    0.4774   -1.9047    1.1994 H   0  0  0  0  0  0  0  0  0  0  0  0
   -0.7539   -2.1413   -0.0210 H   0  0  0  0  0  0  0  0  0  0  0  0
   -4.0480    0.6643    5.0599 H   0  0  0  0  0  0  0  0  0  0  0  0
   -6.4106    1.1495    5.5651 H   0  0  0  0  0  0  0  0  0  0  0  0
   -8.1674    0.7325    3.8625 H   0  0  0  0  0  0  0  0  0  0  0  0
   -7.5462   -0.1768    1.6385 H   0  0  0  0  0  0  0  0  0  0  0  0
   -5.1865   -0.6695    1.1117 H   0  0  0  0  0  0  0  0  0  0  0  0
   -1.5837   -0.4643   -1.2405 H   0  0  0  0  0  0  0  0  0  0  0  0
   -1.7345    1.6685    0.0619 H   0  0  0  0  0  0  0  0  0  0  0  0
   -0.5193    2.3919   -0.9972 H   0  0  0  0  0  0  0  0  0  0  0  0
   -2.0613    1.8613   -1.6672 H   0  0  0  0  0  0  0  0  0  0  0  0
    0.3198   -0.8766   -2.7711 H   0  0  0  0  0  0  0  0  0  0  0  0
    0.7642    0.8325   -2.7012 H   0  0  0  0  0  0  0  0  0  0  0  0
   -0.7976    0.3591   -3.3744 H   0  0  0  0  0  0  0  0  0  0  0  0
    4.9663    0.7478    0.1026 H   0  0  0  0  0  0  0  0  0  0  0  0
    6.0325    1.5621   -1.9458 H   0  0  0  0  0  0  0  0  0  0  0  0
  1  2  1  0
  2  3  2  0
  3  4  1  0
  4  5  2  0
  5  6  1  0
  6  7  1  0
  7  8  1  0
  8  9  2  0
  8 10  1  0
 10 11  1  0
 11 12  1  0
 12 13  2  0
 13 14  1  0
 14 15  1  0
 15 16  2  0
 16 17  1  0
 17 18  2  0
 18 19  1  0
 19 20  2  0
 14 21  2  0
 21 22  1  0
 10 23  1  0
 23 24  1  0
 23 25  1  0
  5 26  1  0
 26 27  2  0
 27  2  1  0
 22 12  1  0
 20 15  1  0
  1 28  1  0
  1 29  1  0
  1 30  1  0
  3 31  1  0
  4 32  1  0
  7 33  1  0
  7 34  1  0
 11 35  1  0
 11 36  1  0
 16 37  1  0
 17 38  1  0
 18 39  1  0
 19 40  1  0
 20 41  1  0
 23 42  1  0
 24 43  1  0
 24 44  1  0
 24 45  1  0
 25 46  1  0
 25 47  1  0
 25 48  1  0
 26 49  1  0
 27 50  1  0
M  END
$$$$
