
     RDKit          3D

 44 46  0  0  0  0  0  0  0  0999 V2000
    4.7290    2.1843   -1.1027 C   0  0  0  0  0  0  0  0  0  0  0  0
    4.0439    1.0320   -0.6201 O   0  0  0  0  0  0  0  0  0  0  0  0
    4.7982   -0.0180   -0.1552 C   0  0  0  0  0  0  0  0  0  0  0  0
    6.2008   -0.0406   -0.2230 C   0  0  0  0  0  0  0  0  0  0  0  0
    6.9268   -1.1315    0.2615 C   0  0  0  0  0  0  0  0  0  0  0  0
    6.2642   -2.2157    0.8204 C   0  0  0  0  0  0  0  0  0  0  0  0
    4.8721   -2.2100    0.8930 C   0  0  0  0  0  0  0  0  0  0  0  0
    4.1189   -1.1216    0.4085 C   0  0  0  0  0  0  0  0  0  0  0  0
    2.6204   -1.2421    0.5458 C   0  0  0  0  0  0  0  0  0  0  0  0
    2.1632   -2.2322    1.1113 O   0  0  0  0  0  0  0  0  0  0  0  0
    1.8649   -0.2162    0.0136 N   0  0  0  0  0  0  0  0  0  0  0  0
    0.4640   -0.0785   -0.0013 C   0  0  0  0  0  0  0  0  0  0  0  0
   -0.0568    1.0713   -0.6030 C   0  0  0  0  0  0  0  0  0  0  0  0
   -1.4387    1.2854   -0.6599 C   0  0  0  0  0  0  0  0  0  0  0  0
   -2.3291    0.3528   -0.1127 C   0  0  0  0  0  0  0  0  0  0  0  0
   -3.8036    0.6278   -0.1945 C   0  0  0  0  0  0  0  0  0  0  0  0
   -4.2200    1.5800   -0.9799 N   0  0  0  0  0  0  0  0  0  0  0  0
   -5.5530    1.8495   -1.0249 N   0  0  0  0  0  0  0  0  0  0  0  0
   -6.4879    1.4457   -0.1068 C   0  0  0  0  0  0  0  0  0  0  0  0
   -7.6675    1.7775   -0.1884 O   0  0  0  0  0  0  0  0  0  0  0  0
   -5.9520    0.6380    1.0415 C   0  0  0  0  0  0  0  0  0  0  0  0
   -4.7771   -0.2277    0.6076 C   0  0  0  0  0  0  0  0  0  0  0  0
   -5.2350   -1.4230   -0.2302 C   0  0  0  0  0  0  0  0  0  0  0  0
   -1.8078   -0.7984    0.4843 C   0  0  0  0  0  0  0  0  0  0  0  0
   -0.4220   -1.0098    0.5389 C   0  0  0  0  0  0  0  0  0  0  0  0
    5.3120    1.9491   -1.9994 H   0  0  0  0  0  0  0  0  0  0  0  0
    5.3557    2.6280   -0.3219 H   0  0  0  0  0  0  0  0  0  0  0  0
    3.9742    2.9251   -1.3836 H   0  0  0  0  0  0  0  0  0  0  0  0
    6.7688    0.7785   -0.6528 H   0  0  0  0  0  0  0  0  0  0  0  0
    8.0128   -1.1321    0.2007 H   0  0  0  0  0  0  0  0  0  0  0  0
    6.8248   -3.0669    1.1992 H   0  0  0  0  0  0  0  0  0  0  0  0
    4.3702   -3.0700    1.3345 H   0  0  0  0  0  0  0  0  0  0  0  0
    2.3932    0.5363   -0.4168 H   0  0  0  0  0  0  0  0  0  0  0  0
    0.6025    1.8182   -1.0382 H   0  0  0  0  0  0  0  0  0  0  0  0
   -1.8097    2.1914   -1.1348 H   0  0  0  0  0  0  0  0  0  0  0  0
   -5.8641    2.4857   -1.7522 H   0  0  0  0  0  0  0  0  0  0  0  0
   -6.7576    0.0207    1.4536 H   0  0  0  0  0  0  0  0  0  0  0  0
   -5.6366    1.3469    1.8165 H   0  0  0  0  0  0  0  0  0  0  0  0
   -4.2951   -0.5970    1.5186 H   0  0  0  0  0  0  0  0  0  0  0  0
   -5.9358   -2.0465    0.3348 H   0  0  0  0  0  0  0  0  0  0  0  0
   -5.7306   -1.1081   -1.1548 H   0  0  0  0  0  0  0  0  0  0  0  0
   -4.3866   -2.0512   -0.5202 H   0  0  0  0  0  0  0  0  0  0  0  0
   -2.4459   -1.5658    0.9109 H   0  0  0  0  0  0  0  0  0  0  0  0
   -0.0677   -1.9213    1.0109 H   0  0  0  0  0  0  0  0  0  0  0  0
  1  2  1  0
  2  3  1  0
  3  4  2  0
  4  5  1  0
  5  6  2  0
  6  7  1  0
  7  8  2  0
  8  9  1  0
  9 10  2  0
  9 11  1  0
 11 12  1  0
 12 13  2  0
 13 14  1  0
 14 15  2  0
 15 16  1  0
 16 17  2  0
 17 18  1  0
 18 19  1  0
 19 20  2  0
 19 21  1  0
 21 22  1  0
 22 23  1  0
 15 24  1  0
 24 25  2  0
  8  3  1  0
 25 12  1  0
 22 16  1  0
  1 26  1  0
  1 27  1  0
  1 28  1  0
  4 29  1  0
  5 30  1  0
  6 31  1  0
  7 32  1  0
 11 33  1  0
 13 34  1  0
 14 35  1  0
 18 36  1  0
 21 37  1  0
 21 38  1  0
 22 39  1  0
 23 40  1  0
 23 41  1  0
 23 42  1  0
 24 43  1  0
 25 44  1  0
M  END
$$$$
