
     RDKit          3D

 42 44  0  0  0  0  0  0  0  0999 V2000
    4.5380    0.8662    2.0638 C   0  0  0  0  0  0  0  0  0  0  0  0
    3.3590   -0.0796    1.8986 C   0  0  0  0  0  0  0  0  0  0  0  0
    2.4334    0.3719    0.7666 C   0  0  0  0  0  0  0  0  0  0  0  0
    1.2426   -0.5785    0.6121 C   0  0  0  0  0  0  0  0  0  0  0  0
    0.3301   -0.2959   -0.6117 C   0  0  0  0  0  0  0  0  0  0  0  0
   -0.6829   -1.4217   -0.7137 C   0  0  0  0  0  0  0  0  0  0  0  0
   -1.9631   -1.2615   -0.3313 C   0  0  0  0  0  0  0  0  0  0  0  0
   -3.0103   -2.3341   -0.4054 C   0  0  0  0  0  0  0  0  0  0  0  0
   -2.6471   -3.4118   -1.4202 C   0  0  0  0  0  0  0  0  0  0  0  0
   -1.2204   -3.8950   -1.2191 C   0  0  0  0  0  0  0  0  0  0  0  0
   -0.2398   -2.7421   -1.2456 C   0  0  0  0  0  0  0  0  0  0  0  0
    0.9127   -2.8999   -1.6427 O   0  0  0  0  0  0  0  0  0  0  0  0
   -2.4365   -0.0431    0.1413 O   0  0  0  0  0  0  0  0  0  0  0  0
   -1.6829    1.0987   -0.1032 C   0  0  0  0  0  0  0  0  0  0  0  0
   -0.3944    1.0303   -0.4890 C   0  0  0  0  0  0  0  0  0  0  0  0
    0.2873    2.2831   -0.9270 C   0  0  0  0  0  0  0  0  0  0  0  0
    1.4008    2.2384   -1.4469 O   0  0  0  0  0  0  0  0  0  0  0  0
   -0.4519    3.5995   -0.8065 C   0  0  0  0  0  0  0  0  0  0  0  0
   -1.5017    3.5605    0.2907 C   0  0  0  0  0  0  0  0  0  0  0  0
   -2.4416    2.3777    0.0978 C   0  0  0  0  0  0  0  0  0  0  0  0
    5.1358    0.9114    1.1479 H   0  0  0  0  0  0  0  0  0  0  0  0
    5.1867    0.5249    2.8766 H   0  0  0  0  0  0  0  0  0  0  0  0
    4.1981    1.8789    2.3030 H   0  0  0  0  0  0  0  0  0  0  0  0
    2.8000   -0.1261    2.8404 H   0  0  0  0  0  0  0  0  0  0  0  0
    3.7348   -1.0888    1.6936 H   0  0  0  0  0  0  0  0  0  0  0  0
    2.0804    1.3846    0.9879 H   0  0  0  0  0  0  0  0  0  0  0  0
    2.9992    0.4095   -0.1716 H   0  0  0  0  0  0  0  0  0  0  0  0
    0.6461   -0.5482    1.5349 H   0  0  0  0  0  0  0  0  0  0  0  0
    1.6368   -1.6006    0.5420 H   0  0  0  0  0  0  0  0  0  0  0  0
    0.9289   -0.2889   -1.5314 H   0  0  0  0  0  0  0  0  0  0  0  0
   -3.1348   -2.7776    0.5896 H   0  0  0  0  0  0  0  0  0  0  0  0
   -3.9753   -1.8970   -0.6881 H   0  0  0  0  0  0  0  0  0  0  0  0
   -2.7543   -3.0050   -2.4345 H   0  0  0  0  0  0  0  0  0  0  0  0
   -3.3447   -4.2527   -1.3378 H   0  0  0  0  0  0  0  0  0  0  0  0
   -1.1124   -4.4145   -0.2606 H   0  0  0  0  0  0  0  0  0  0  0  0
   -0.9596   -4.5933   -2.0217 H   0  0  0  0  0  0  0  0  0  0  0  0
   -0.9126    3.8195   -1.7760 H   0  0  0  0  0  0  0  0  0  0  0  0
    0.2758    4.3866   -0.5812 H   0  0  0  0  0  0  0  0  0  0  0  0
   -2.0727    4.4956    0.2993 H   0  0  0  0  0  0  0  0  0  0  0  0
   -1.0071    3.4779    1.2675 H   0  0  0  0  0  0  0  0  0  0  0  0
   -3.0928    2.5469   -0.7680 H   0  0  0  0  0  0  0  0  0  0  0  0
   -3.0877    2.2937    0.9796 H   0  0  0  0  0  0  0  0  0  0  0  0
  1  2  1  0
  2  3  1  0
  3  4  1  0
  4  5  1  0
  5  6  1  0
  6  7  2  0
  7  8  1  0
  8  9  1  0
  9 10  1  0
 10 11  1  0
 11 12  2  0
  7 13  1  0
 13 14  1  0
 14 15  2  0
 15 16  1  0
 16 17  2  0
 16 18  1  0
 18 19  1  0
 19 20  1  0
 15  5  1  0
 11  6  1  0
 20 14  1  0
  1 21  1  0
  1 22  1  0
  1 23  1  0
  2 24  1  0
  2 25  1  0
  3 26  1  0
  3 27  1  0
  4 28  1  0
  4 29  1  0
  5 30  1  0
  8 31  1  0
  8 32  1  0
  9 33  1  0
  9 34  1  0
 10 35  1  0
 10 36  1  0
 18 37  1  0
 18 38  1  0
 19 39  1  0
 19 40  1  0
 20 41  1  0
 20 42  1  0
M  END
$$$$
