
     RDKit          3D

 36 37  0  0  0  0  0  0  0  0999 V2000
   -3.5142   -1.1113    1.9721 C   0  0  0  0  0  0  0  0  0  0  0  0
   -2.5839   -1.5943    0.8547 C   0  0  0  0  0  0  0  0  0  0  0  0
   -2.5920   -0.6410   -0.3443 C   0  0  0  0  0  0  0  0  0  0  0  0
   -1.9141    0.7057   -0.0379 C   0  0  0  0  0  0  0  0  0  0  0  0
   -1.4420    1.3604   -1.3383 C   0  0  0  0  0  0  0  0  0  0  0  0
   -0.7645    0.5690    0.9739 C   0  0  0  0  0  0  0  0  0  0  0  0
   -0.1920   -0.7973    0.8988 N   0  0  0  0  0  0  0  0  0  0  0  0
    1.3590   -0.9582    1.6111 S   0  0  0  0  0  6  0  0  0  0  0  0
    1.3273   -0.2680    2.8820 O   0  0  0  0  0  0  0  0  0  0  0  0
    1.7677   -2.3405    1.4918 O   0  0  0  0  0  0  0  0  0  0  0  0
    2.4946   -0.0740    0.5681 C   0  0  0  0  0  0  0  0  0  0  0  0
    2.4694    0.2240   -0.7810 C   0  0  0  0  0  0  0  0  0  0  0  0
    3.6244    0.9641   -1.2244 C   0  0  0  0  0  0  0  0  0  0  0  0
    3.8621    1.4214   -2.5816 C   0  0  0  0  0  0  0  0  0  0  0  0
    4.8346    2.0354   -2.9912 O   0  0  0  0  0  0  0  0  0  0  0  0
    2.8646    1.1109   -3.4418 O   0  0  0  0  0  0  0  0  0  0  0  0
    4.4739    1.1666   -0.1582 C   0  0  0  0  0  0  0  0  0  0  0  0
    5.9889    1.9876   -0.1278 Cl  0  0  0  0  0  0  0  0  0  0  0  0
    3.9220    0.5015    1.3028 S   0  0  0  0  0  0  0  0  0  0  0  0
   -1.1522   -1.8421    1.3686 C   0  0  0  0  0  0  0  0  0  0  0  0
   -4.5316   -0.9701    1.5918 H   0  0  0  0  0  0  0  0  0  0  0  0
   -3.5626   -1.8526    2.7771 H   0  0  0  0  0  0  0  0  0  0  0  0
   -3.1860   -0.1653    2.4108 H   0  0  0  0  0  0  0  0  0  0  0  0
   -2.9893   -2.5593    0.5215 H   0  0  0  0  0  0  0  0  0  0  0  0
   -3.6184   -0.4665   -0.6904 H   0  0  0  0  0  0  0  0  0  0  0  0
   -2.0735   -1.1371   -1.1764 H   0  0  0  0  0  0  0  0  0  0  0  0
   -2.6590    1.3809    0.4036 H   0  0  0  0  0  0  0  0  0  0  0  0
   -0.6754    0.7565   -1.8343 H   0  0  0  0  0  0  0  0  0  0  0  0
   -1.0194    2.3518   -1.1440 H   0  0  0  0  0  0  0  0  0  0  0  0
   -2.2783    1.4850   -2.0344 H   0  0  0  0  0  0  0  0  0  0  0  0
   -1.1349    0.7482    1.9903 H   0  0  0  0  0  0  0  0  0  0  0  0
    0.0003    1.3280    0.7788 H   0  0  0  0  0  0  0  0  0  0  0  0
    1.6545   -0.0810   -1.4286 H   0  0  0  0  0  0  0  0  0  0  0  0
    3.1860    1.4792   -4.2914 H   0  0  0  0  0  0  0  0  0  0  0  0
   -0.8110   -2.8033    0.9644 H   0  0  0  0  0  0  0  0  0  0  0  0
   -1.1346   -1.9144    2.4622 H   0  0  0  0  0  0  0  0  0  0  0  0
  1  2  1  0
  2  3  1  0
  3  4  1  0
  4  5  1  0
  4  6  1  0
  6  7  1  0
  7  8  1  0
  8  9  2  0
  8 10  2  0
  8 11  1  0
 11 12  2  0
 12 13  1  0
 13 14  1  0
 14 15  2  0
 14 16  1  0
 13 17  2  0
 17 18  1  0
 17 19  1  0
  7 20  1  0
 20  2  1  0
 19 11  1  0
  1 21  1  0
  1 22  1  0
  1 23  1  0
  2 24  1  0
  3 25  1  0
  3 26  1  0
  4 27  1  0
  5 28  1  0
  5 29  1  0
  5 30  1  0
  6 31  1  0
  6 32  1  0
 12 33  1  0
 16 34  1  0
 20 35  1  0
 20 36  1  0
M  END
$$$$
