
     RDKit          3D

 59 63  0  0  0  0  0  0  0  0999 V2000
   -2.8868   -1.6009    2.8061 C   0  0  0  0  0  0  0  0  0  0  0  0
   -3.5002   -0.8984    1.7346 O   0  0  0  0  0  0  0  0  0  0  0  0
   -3.9202   -1.6351    0.6550 C   0  0  0  0  0  0  0  0  0  0  0  0
   -3.9787   -3.0339    0.6316 C   0  0  0  0  0  0  0  0  0  0  0  0
   -4.4345   -3.7076   -0.5052 C   0  0  0  0  0  0  0  0  0  0  0  0
   -4.8395   -2.9932   -1.6283 C   0  0  0  0  0  0  0  0  0  0  0  0
   -4.7900   -1.6005   -1.6168 C   0  0  0  0  0  0  0  0  0  0  0  0
   -4.3346   -0.9094   -0.4810 C   0  0  0  0  0  0  0  0  0  0  0  0
   -4.2759    0.5588   -0.5209 C   0  0  0  0  0  0  0  0  0  0  0  0
   -5.7352    1.4359   -0.3651 S   0  0  0  0  0  0  0  0  0  0  0  0
   -4.9381    2.9540   -0.4805 C   0  0  0  0  0  0  0  0  0  0  0  0
   -5.5380    4.2285   -0.4297 C   0  0  0  0  0  0  0  0  0  0  0  0
   -4.7325    5.3632   -0.5445 C   0  0  0  0  0  0  0  0  0  0  0  0
   -3.3609    5.2387   -0.7071 C   0  0  0  0  0  0  0  0  0  0  0  0
   -2.7704    3.9726   -0.7563 C   0  0  0  0  0  0  0  0  0  0  0  0
   -3.5595    2.7981   -0.6402 C   0  0  0  0  0  0  0  0  0  0  0  0
   -3.1860    1.4018   -0.6630 C   0  0  0  0  0  0  0  0  0  0  0  0
   -1.8315    0.8830   -0.8078 C   0  0  0  0  0  0  0  0  0  0  0  0
   -0.9454    0.9335    0.2729 C   0  0  0  0  0  0  0  0  0  0  0  0
    0.3585    0.4428    0.1426 C   0  0  0  0  0  0  0  0  0  0  0  0
    0.7852   -0.0975   -1.0714 C   0  0  0  0  0  0  0  0  0  0  0  0
    2.0266   -0.6086   -1.3328 O   0  0  0  0  0  0  0  0  0  0  0  0
    2.9764   -0.5892   -0.2630 C   0  0  0  0  0  0  0  0  0  0  0  0
    4.2808   -1.2230   -0.7754 C   0  0  0  0  0  0  0  0  0  0  0  0
    5.3382   -1.3344    0.2448 N   0  0  0  0  0  0  0  0  0  0  0  0
    6.4951   -2.1120   -0.2551 C   0  0  0  0  0  0  0  0  0  0  0  0
    7.6627   -1.2353   -0.7346 C   0  0  0  0  0  0  0  0  0  0  0  0
    8.1826   -0.3771    0.2902 O   0  0  0  0  0  0  0  0  0  0  0  0
    7.2103   -0.0428    1.2898 C   0  0  0  0  0  0  0  0  0  0  0  0
    5.7790   -0.0074    0.7316 C   0  0  0  0  0  0  0  0  0  0  0  0
   -0.1021   -0.1424   -2.1506 C   0  0  0  0  0  0  0  0  0  0  0  0
   -1.4048    0.3456   -2.0243 C   0  0  0  0  0  0  0  0  0  0  0  0
   -2.0238   -2.1801    2.4609 H   0  0  0  0  0  0  0  0  0  0  0  0
   -3.6117   -2.2376    3.3236 H   0  0  0  0  0  0  0  0  0  0  0  0
   -2.5228   -0.8607    3.5254 H   0  0  0  0  0  0  0  0  0  0  0  0
   -3.6826   -3.6319    1.4867 H   0  0  0  0  0  0  0  0  0  0  0  0
   -4.4750   -4.7941   -0.5105 H   0  0  0  0  0  0  0  0  0  0  0  0
   -5.1937   -3.5179   -2.5115 H   0  0  0  0  0  0  0  0  0  0  0  0
   -5.1048   -1.0498   -2.5004 H   0  0  0  0  0  0  0  0  0  0  0  0
   -6.6124    4.3278   -0.3033 H   0  0  0  0  0  0  0  0  0  0  0  0
   -5.1869    6.3503   -0.5067 H   0  0  0  0  0  0  0  0  0  0  0  0
   -2.7402    6.1266   -0.7977 H   0  0  0  0  0  0  0  0  0  0  0  0
   -1.6940    3.8890   -0.8874 H   0  0  0  0  0  0  0  0  0  0  0  0
   -1.2721    1.3438    1.2261 H   0  0  0  0  0  0  0  0  0  0  0  0
    1.0092    0.4954    1.0085 H   0  0  0  0  0  0  0  0  0  0  0  0
    3.1578    0.4470    0.0446 H   0  0  0  0  0  0  0  0  0  0  0  0
    2.5991   -1.1745    0.5846 H   0  0  0  0  0  0  0  0  0  0  0  0
    4.0249   -2.2263   -1.1419 H   0  0  0  0  0  0  0  0  0  0  0  0
    4.6367   -0.6696   -1.6549 H   0  0  0  0  0  0  0  0  0  0  0  0
    6.2022   -2.8138   -1.0448 H   0  0  0  0  0  0  0  0  0  0  0  0
    6.8489   -2.7271    0.5823 H   0  0  0  0  0  0  0  0  0  0  0  0
    7.3552   -0.6088   -1.5800 H   0  0  0  0  0  0  0  0  0  0  0  0
    8.4880   -1.8657   -1.0812 H   0  0  0  0  0  0  0  0  0  0  0  0
    7.2944   -0.7659    2.1097 H   0  0  0  0  0  0  0  0  0  0  0  0
    7.4808    0.9383    1.6934 H   0  0  0  0  0  0  0  0  0  0  0  0
    5.7539    0.7263   -0.0849 H   0  0  0  0  0  0  0  0  0  0  0  0
    5.0941    0.3328    1.5157 H   0  0  0  0  0  0  0  0  0  0  0  0
    0.2233   -0.5631   -3.0988 H   0  0  0  0  0  0  0  0  0  0  0  0
   -2.0789    0.3017   -2.8756 H   0  0  0  0  0  0  0  0  0  0  0  0
  1  2  1  0
  2  3  1  0
  3  4  2  0
  4  5  1  0
  5  6  2  0
  6  7  1  0
  7  8  2  0
  8  9  1  0
  9 10  1  0
 10 11  1  0
 11 12  2  0
 12 13  1  0
 13 14  2  0
 14 15  1  0
 15 16  2  0
 16 17  1  0
 17 18  1  0
 18 19  2  0
 19 20  1  0
 20 21  2  0
 21 22  1  0
 22 23  1  0
 23 24  1  0
 24 25  1  0
 25 26  1  0
 26 27  1  0
 27 28  1  0
 28 29  1  0
 29 30  1  0
 21 31  1  0
 31 32  2  0
  8  3  1  0
 17  9  2  0
 32 18  1  0
 16 11  1  0
 30 25  1  0
  1 33  1  0
  1 34  1  0
  1 35  1  0
  4 36  1  0
  5 37  1  0
  6 38  1  0
  7 39  1  0
 12 40  1  0
 13 41  1  0
 14 42  1  0
 15 43  1  0
 19 44  1  0
 20 45  1  0
 23 46  1  0
 23 47  1  0
 24 48  1  0
 24 49  1  0
 26 50  1  0
 26 51  1  0
 27 52  1  0
 27 53  1  0
 29 54  1  0
 29 55  1  0
 30 56  1  0
 30 57  1  0
 31 58  1  0
 32 59  1  0
M  END
$$$$
