
     RDKit          3D

 25 26  0  0  0  0  0  0  0  0999 V2000
    3.9016   -1.4229   -0.5385 C   0  0  0  0  0  0  0  0  0  0  0  0
    3.3423   -0.1464   -0.0591 C   0  0  0  0  0  0  0  0  0  0  0  0
    4.2256    0.8257    0.3236 O   0  0  0  0  0  0  0  0  0  0  0  0
    3.4331    1.8622    0.7082 C   0  0  0  0  0  0  0  0  0  0  0  0
    2.1401    1.6477    0.6090 N   0  0  0  0  0  0  0  0  0  0  0  0
    2.0662    0.3501    0.1130 C   0  0  0  0  0  0  0  0  0  0  0  0
    0.8043   -0.3329   -0.1645 C   0  0  0  0  0  0  0  0  0  0  0  0
    0.7682   -1.4766   -0.6012 O   0  0  0  0  0  0  0  0  0  0  0  0
   -0.2741    0.4777    0.1302 N   0  0  0  0  0  0  0  0  0  0  0  0
   -1.6433    0.1913    0.0025 C   0  0  0  0  0  0  0  0  0  0  0  0
   -2.1446   -1.0247   -0.4681 C   0  0  0  0  0  0  0  0  0  0  0  0
   -3.5256   -1.2318   -0.5657 C   0  0  0  0  0  0  0  0  0  0  0  0
   -4.4088   -0.2227   -0.1927 C   0  0  0  0  0  0  0  0  0  0  0  0
   -6.1051   -0.4790   -0.3133 Cl  0  0  0  0  0  0  0  0  0  0  0  0
   -3.9233    0.9937    0.2778 C   0  0  0  0  0  0  0  0  0  0  0  0
   -2.5436    1.1987    0.3746 C   0  0  0  0  0  0  0  0  0  0  0  0
    4.9959   -1.4099   -0.5188 H   0  0  0  0  0  0  0  0  0  0  0  0
    3.5622   -2.2508    0.0914 H   0  0  0  0  0  0  0  0  0  0  0  0
    3.5846   -1.6181   -1.5674 H   0  0  0  0  0  0  0  0  0  0  0  0
    3.9392    2.7526    1.0547 H   0  0  0  0  0  0  0  0  0  0  0  0
   -0.0137    1.3954    0.4837 H   0  0  0  0  0  0  0  0  0  0  0  0
   -1.4889   -1.8361   -0.7688 H   0  0  0  0  0  0  0  0  0  0  0  0
   -3.8991   -2.1838   -0.9339 H   0  0  0  0  0  0  0  0  0  0  0  0
   -4.6086    1.7846    0.5703 H   0  0  0  0  0  0  0  0  0  0  0  0
   -2.1844    2.1561    0.7446 H   0  0  0  0  0  0  0  0  0  0  0  0
  1  2  1  0
  2  3  1  0
  3  4  1  0
  4  5  2  0
  5  6  1  0
  6  7  1  0
  7  8  2  0
  7  9  1  0
  9 10  1  0
 10 11  2  0
 11 12  1  0
 12 13  2  0
 13 14  1  0
 13 15  1  0
 15 16  2  0
  6  2  2  0
 16 10  1  0
  1 17  1  0
  1 18  1  0
  1 19  1  0
  4 20  1  0
  9 21  1  0
 11 22  1  0
 12 23  1  0
 15 24  1  0
 16 25  1  0
M  END
$$$$
