
     RDKit          3D

 37 40  0  0  0  0  0  0  0  0999 V2000
   -2.3810    3.5738   -1.3470 C   0  0  0  0  0  0  0  0  0  0  0  0
   -3.0117    2.4045   -1.8544 O   0  0  0  0  0  0  0  0  0  0  0  0
   -2.7745    1.2331   -1.1929 C   0  0  0  0  0  0  0  0  0  0  0  0
   -3.3836    0.1147   -1.7473 C   0  0  0  0  0  0  0  0  0  0  0  0
   -3.2162   -1.1415   -1.1606 C   0  0  0  0  0  0  0  0  0  0  0  0
   -2.4473   -1.3208   -0.0215 C   0  0  0  0  0  0  0  0  0  0  0  0
   -2.3449   -2.5638    0.4755 N   0  0  0  0  0  0  0  0  0  0  0  0
   -1.6007   -2.7677    1.5835 C   0  0  0  0  0  0  0  0  0  0  0  0
   -1.5053   -4.1721    2.0988 C   0  0  0  0  0  0  0  0  0  0  0  0
   -0.9412   -1.7407    2.2342 C   0  0  0  0  0  0  0  0  0  0  0  0
   -1.0399   -0.4462    1.7195 C   0  0  0  0  0  0  0  0  0  0  0  0
   -0.1682    0.8485    2.6128 S   0  0  0  0  0  0  0  0  0  0  0  0
    1.2837    0.9052    1.6261 C   0  0  0  0  0  0  0  0  0  0  0  0
    1.8259   -0.1764    1.1177 N   0  0  0  0  0  0  0  0  0  0  0  0
    2.9482    0.1652    0.3836 C   0  0  0  0  0  0  0  0  0  0  0  0
    3.7782   -0.7298   -0.3211 C   0  0  0  0  0  0  0  0  0  0  0  0
    4.8866   -0.2449   -1.0229 C   0  0  0  0  0  0  0  0  0  0  0  0
    5.1765    1.1160   -1.0294 C   0  0  0  0  0  0  0  0  0  0  0  0
    4.3691    2.0249   -0.3384 C   0  0  0  0  0  0  0  0  0  0  0  0
    3.2577    1.5270    0.3618 C   0  0  0  0  0  0  0  0  0  0  0  0
    2.0881    2.3796    1.2945 S   0  0  0  0  0  0  0  0  0  0  0  0
   -1.8172   -0.2008    0.5591 C   0  0  0  0  0  0  0  0  0  0  0  0
   -1.9993    1.0753   -0.0448 C   0  0  0  0  0  0  0  0  0  0  0  0
   -2.6565    4.4106   -1.9960 H   0  0  0  0  0  0  0  0  0  0  0  0
   -2.7346    3.8053   -0.3369 H   0  0  0  0  0  0  0  0  0  0  0  0
   -1.2904    3.4775   -1.3726 H   0  0  0  0  0  0  0  0  0  0  0  0
   -3.9936    0.2140   -2.6415 H   0  0  0  0  0  0  0  0  0  0  0  0
   -3.7014   -2.0058   -1.6084 H   0  0  0  0  0  0  0  0  0  0  0  0
   -0.4631   -4.5063    2.0950 H   0  0  0  0  0  0  0  0  0  0  0  0
   -2.0852   -4.8576    1.4725 H   0  0  0  0  0  0  0  0  0  0  0  0
   -1.8978   -4.2283    3.1189 H   0  0  0  0  0  0  0  0  0  0  0  0
   -0.3473   -1.9483    3.1188 H   0  0  0  0  0  0  0  0  0  0  0  0
    3.5477   -1.7907   -0.3146 H   0  0  0  0  0  0  0  0  0  0  0  0
    5.5236   -0.9390   -1.5664 H   0  0  0  0  0  0  0  0  0  0  0  0
    6.0423    1.4793   -1.5797 H   0  0  0  0  0  0  0  0  0  0  0  0
    4.5970    3.0865   -0.3451 H   0  0  0  0  0  0  0  0  0  0  0  0
   -1.5237    1.9399    0.4036 H   0  0  0  0  0  0  0  0  0  0  0  0
  1  2  1  0
  2  3  1  0
  3  4  2  0
  4  5  1  0
  5  6  2  0
  6  7  1  0
  7  8  2  0
  8  9  1  0
  8 10  1  0
 10 11  2  0
 11 12  1  0
 12 13  1  0
 13 14  2  0
 14 15  1  0
 15 16  2  0
 16 17  1  0
 17 18  2  0
 18 19  1  0
 19 20  2  0
 20 21  1  0
 11 22  1  0
 22 23  2  0
 23  3  1  0
 22  6  1  0
 21 13  1  0
 20 15  1  0
  1 24  1  0
  1 25  1  0
  1 26  1  0
  4 27  1  0
  5 28  1  0
  9 29  1  0
  9 30  1  0
  9 31  1  0
 10 32  1  0
 16 33  1  0
 17 34  1  0
 18 35  1  0
 19 36  1  0
 23 37  1  0
M  END
$$$$
