
     RDKit          3D

 46 49  0  0  0  0  0  0  0  0999 V2000
    6.5768   -1.3870   -0.0460 N   0  0  0  0  0  0  0  0  0  0  0  0
    5.9812   -0.0304   -0.8366 S   0  0  0  0  0  6  0  0  0  0  0  0
    6.2078   -0.2606   -2.2442 O   0  0  0  0  0  0  0  0  0  0  0  0
    6.5381    1.1054   -0.1388 O   0  0  0  0  0  0  0  0  0  0  0  0
    4.2516   -0.1377   -0.4953 C   0  0  0  0  0  0  0  0  0  0  0  0
    3.7118    0.5520    0.5886 C   0  0  0  0  0  0  0  0  0  0  0  0
    2.3350    0.4818    0.8385 C   0  0  0  0  0  0  0  0  0  0  0  0
    1.4709   -0.2627    0.0173 C   0  0  0  0  0  0  0  0  0  0  0  0
    0.0991   -0.3417    0.2508 N   0  0  0  0  0  0  0  0  0  0  0  0
   -0.7036   -1.1070   -0.5467 N   0  0  0  0  0  0  0  0  0  0  0  0
   -1.8784   -1.1386    0.0058 C   0  0  0  0  0  0  0  0  0  0  0  0
   -3.0322   -1.8569   -0.5843 C   0  0  0  0  0  0  0  0  0  0  0  0
   -4.2567   -1.9520    0.0867 C   0  0  0  0  0  0  0  0  0  0  0  0
   -5.3246   -2.6364   -0.5004 C   0  0  0  0  0  0  0  0  0  0  0  0
   -5.1741   -3.2271   -1.7545 C   0  0  0  0  0  0  0  0  0  0  0  0
   -3.9562   -3.1369   -2.4258 C   0  0  0  0  0  0  0  0  0  0  0  0
   -2.8870   -2.4542   -1.8428 C   0  0  0  0  0  0  0  0  0  0  0  0
   -1.9828   -0.4156    1.3203 C   0  0  0  0  0  0  0  0  0  0  0  0
   -0.6253    0.2891    1.3560 C   0  0  0  0  0  0  0  0  0  0  0  0
   -0.7896    1.7945    1.1921 C   0  0  0  0  0  0  0  0  0  0  0  0
   -0.8273    2.6132    2.3341 C   0  0  0  0  0  0  0  0  0  0  0  0
   -1.0003    3.9946    2.2163 C   0  0  0  0  0  0  0  0  0  0  0  0
   -1.1430    4.5690    0.9554 C   0  0  0  0  0  0  0  0  0  0  0  0
   -1.3773    6.4379    0.7972 Br  0  0  0  0  0  0  0  0  0  0  0  0
   -1.1164    3.7757   -0.1881 C   0  0  0  0  0  0  0  0  0  0  0  0
   -0.9445    2.3947   -0.0692 C   0  0  0  0  0  0  0  0  0  0  0  0
    2.0525   -0.9338   -1.0753 C   0  0  0  0  0  0  0  0  0  0  0  0
    3.4253   -0.8746   -1.3394 C   0  0  0  0  0  0  0  0  0  0  0  0
    7.2176   -1.1011    0.6941 H   0  0  0  0  0  0  0  0  0  0  0  0
    6.9869   -2.0287   -0.7247 H   0  0  0  0  0  0  0  0  0  0  0  0
    4.3454    1.1478    1.2414 H   0  0  0  0  0  0  0  0  0  0  0  0
    1.9525    1.0357    1.6905 H   0  0  0  0  0  0  0  0  0  0  0  0
   -4.4051   -1.5069    1.0655 H   0  0  0  0  0  0  0  0  0  0  0  0
   -6.2759   -2.7099    0.0212 H   0  0  0  0  0  0  0  0  0  0  0  0
   -6.0064   -3.7589   -2.2092 H   0  0  0  0  0  0  0  0  0  0  0  0
   -3.8365   -3.5973   -3.4033 H   0  0  0  0  0  0  0  0  0  0  0  0
   -1.9412   -2.3907   -2.3774 H   0  0  0  0  0  0  0  0  0  0  0  0
   -2.0612   -1.1567    2.1229 H   0  0  0  0  0  0  0  0  0  0  0  0
   -2.8407    0.2615    1.3514 H   0  0  0  0  0  0  0  0  0  0  0  0
   -0.1295    0.0708    2.3105 H   0  0  0  0  0  0  0  0  0  0  0  0
   -0.7193    2.1812    3.3271 H   0  0  0  0  0  0  0  0  0  0  0  0
   -1.0218    4.6119    3.1106 H   0  0  0  0  0  0  0  0  0  0  0  0
   -1.2246    4.2173   -1.1753 H   0  0  0  0  0  0  0  0  0  0  0  0
   -0.9206    1.7869   -0.9733 H   0  0  0  0  0  0  0  0  0  0  0  0
    1.4204   -1.5157   -1.7437 H   0  0  0  0  0  0  0  0  0  0  0  0
    3.8292   -1.4019   -2.1999 H   0  0  0  0  0  0  0  0  0  0  0  0
  1  2  1  0
  2  3  2  0
  2  4  2  0
  2  5  1  0
  5  6  2  0
  6  7  1  0
  7  8  2  0
  8  9  1  0
  9 10  1  0
 10 11  2  0
 11 12  1  0
 12 13  2  0
 13 14  1  0
 14 15  2  0
 15 16  1  0
 16 17  2  0
 11 18  1  0
 18 19  1  0
 19 20  1  0
 20 21  2  0
 21 22  1  0
 22 23  2  0
 23 24  1  0
 23 25  1  0
 25 26  2  0
  8 27  1  0
 27 28  2  0
 28  5  1  0
 19  9  1  0
 26 20  1  0
 17 12  1  0
  1 29  1  0
  1 30  1  0
  6 31  1  0
  7 32  1  0
 13 33  1  0
 14 34  1  0
 15 35  1  0
 16 36  1  0
 17 37  1  0
 18 38  1  0
 18 39  1  0
 19 40  1  0
 21 41  1  0
 22 42  1  0
 25 43  1  0
 26 44  1  0
 27 45  1  0
 28 46  1  0
M  END
$$$$
