
     RDKit          3D

 38 40  0  0  0  0  0  0  0  0999 V2000
   -5.8819   -0.2675   -1.7525 C   0  0  0  0  0  0  0  0  0  0  0  0
   -4.5859   -0.5857   -1.0681 C   0  0  0  0  0  0  0  0  0  0  0  0
   -4.4954   -0.5596    0.3275 C   0  0  0  0  0  0  0  0  0  0  0  0
   -3.2957   -0.8832    0.9668 C   0  0  0  0  0  0  0  0  0  0  0  0
   -2.1645   -1.2496    0.2234 C   0  0  0  0  0  0  0  0  0  0  0  0
   -0.8755   -1.6087    0.9227 C   0  0  0  0  0  0  0  0  0  0  0  0
    0.0611   -0.4622    0.7139 C   0  0  0  0  0  0  0  0  0  0  0  0
   -0.0005    0.8000    1.3803 C   0  0  0  0  0  0  0  0  0  0  0  0
    1.0365    1.5799    0.9224 C   0  0  0  0  0  0  0  0  0  0  0  0
    1.3928    2.8225    1.2246 O   0  0  0  0  0  0  0  0  0  0  0  0
    1.7475    0.8338    0.0126 N   0  0  0  0  0  0  0  0  0  0  0  0
    2.9144    1.3004   -0.7273 C   0  0  0  0  0  0  0  0  0  0  0  0
    4.1788    0.9824   -0.0134 C   0  0  0  0  0  0  0  0  0  0  0  0
    4.6202    1.1684    1.2823 C   0  0  0  0  0  0  0  0  0  0  0  0
    5.9413    0.6645    1.3348 C   0  0  0  0  0  0  0  0  0  0  0  0
    6.2282    0.2121    0.0691 C   0  0  0  0  0  0  0  0  0  0  0  0
    5.1698    0.4068   -0.7579 O   0  0  0  0  0  0  0  0  0  0  0  0
    1.1613   -0.4047   -0.1285 C   0  0  0  0  0  0  0  0  0  0  0  0
    1.6742   -1.2956   -0.9699 O   0  0  0  0  0  0  0  0  0  0  0  0
   -2.2653   -1.2900   -1.1752 C   0  0  0  0  0  0  0  0  0  0  0  0
   -3.4649   -0.9650   -1.8135 C   0  0  0  0  0  0  0  0  0  0  0  0
   -6.4798   -1.1773   -1.8632 H   0  0  0  0  0  0  0  0  0  0  0  0
   -5.7050    0.1628   -2.7438 H   0  0  0  0  0  0  0  0  0  0  0  0
   -6.4568    0.4667   -1.1783 H   0  0  0  0  0  0  0  0  0  0  0  0
   -5.3596   -0.2843    0.9277 H   0  0  0  0  0  0  0  0  0  0  0  0
   -3.2517   -0.8478    2.0529 H   0  0  0  0  0  0  0  0  0  0  0  0
   -0.4787   -2.5456    0.5167 H   0  0  0  0  0  0  0  0  0  0  0  0
   -1.0396   -1.7723    1.9944 H   0  0  0  0  0  0  0  0  0  0  0  0
   -0.7421    1.0984    2.1093 H   0  0  0  0  0  0  0  0  0  0  0  0
    0.7318    3.1631    1.8535 H   0  0  0  0  0  0  0  0  0  0  0  0
    2.8176    2.3821   -0.8699 H   0  0  0  0  0  0  0  0  0  0  0  0
    2.8876    0.8404   -1.7212 H   0  0  0  0  0  0  0  0  0  0  0  0
    4.0486    1.6116    2.0864 H   0  0  0  0  0  0  0  0  0  0  0  0
    6.6033    0.6357    2.1883 H   0  0  0  0  0  0  0  0  0  0  0  0
    7.0949   -0.2487   -0.3836 H   0  0  0  0  0  0  0  0  0  0  0  0
    1.1532   -2.1125   -0.8975 H   0  0  0  0  0  0  0  0  0  0  0  0
   -1.4050   -1.5663   -1.7805 H   0  0  0  0  0  0  0  0  0  0  0  0
   -3.5153   -1.0049   -2.8992 H   0  0  0  0  0  0  0  0  0  0  0  0
  1  2  1  0
  2  3  2  0
  3  4  1  0
  4  5  2  0
  5  6  1  0
  6  7  1  0
  7  8  1  0
  8  9  2  0
  9 10  1  0
  9 11  1  0
 11 12  1  0
 12 13  1  0
 13 14  2  0
 14 15  1  0
 15 16  2  0
 16 17  1  0
 11 18  1  0
 18 19  1  0
  5 20  1  0
 20 21  2  0
 21  2  1  0
 18  7  2  0
 17 13  1  0
  1 22  1  0
  1 23  1  0
  1 24  1  0
  3 25  1  0
  4 26  1  0
  6 27  1  0
  6 28  1  0
  8 29  1  0
 10 30  1  0
 12 31  1  0
 12 32  1  0
 14 33  1  0
 15 34  1  0
 16 35  1  0
 19 36  1  0
 20 37  1  0
 21 38  1  0
M  END
$$$$
