
     RDKit          3D

 55 59  0  0  0  0  0  0  0  0999 V2000
    4.1917    1.5503    1.5908 C   0  0  0  0  0  0  0  0  0  0  0  0
    4.0936    0.4365    0.6804 N   0  0  0  0  0  0  0  0  0  0  0  0
    3.0211    0.1357   -0.1347 C   0  0  0  0  0  0  0  0  0  0  0  0
    1.8476    0.8252   -0.0820 N   0  0  0  0  0  0  0  0  0  0  0  0
    1.0781    0.7747    1.1798 C   0  0  0  0  0  0  0  0  0  0  0  0
   -0.3172    0.1426    0.9773 C   0  0  0  0  0  0  0  0  0  0  0  0
   -1.1827    0.8776    0.0162 N   0  0  0  0  0  0  0  0  0  0  0  0
   -2.2781    0.0051   -0.5041 C   0  0  0  0  0  0  0  0  0  0  0  0
   -3.2609    0.7405   -1.4288 C   0  0  0  0  0  0  0  0  0  0  0  0
   -3.6593    2.0673   -1.1888 C   0  0  0  0  0  0  0  0  0  0  0  0
   -4.5678    2.7051   -2.0352 C   0  0  0  0  0  0  0  0  0  0  0  0
   -5.0981    2.0248   -3.1288 C   0  0  0  0  0  0  0  0  0  0  0  0
   -4.7232    0.7061   -3.3764 C   0  0  0  0  0  0  0  0  0  0  0  0
   -3.8141    0.0665   -2.5316 C   0  0  0  0  0  0  0  0  0  0  0  0
   -3.0643   -0.7102    0.6042 C   0  0  0  0  0  0  0  0  0  0  0  0
   -3.6840    0.0030    1.6452 C   0  0  0  0  0  0  0  0  0  0  0  0
   -4.4012   -0.6641    2.6397 C   0  0  0  0  0  0  0  0  0  0  0  0
   -4.5112   -2.0525    2.6080 C   0  0  0  0  0  0  0  0  0  0  0  0
   -3.9052   -2.7754    1.5824 C   0  0  0  0  0  0  0  0  0  0  0  0
   -3.1876   -2.1104    0.5860 C   0  0  0  0  0  0  0  0  0  0  0  0
   -0.3454    1.4362   -1.0824 C   0  0  0  0  0  0  0  0  0  0  0  0
    1.0127    0.7345   -1.2979 C   0  0  0  0  0  0  0  0  0  0  0  0
    3.3306   -0.8351   -0.9660 N   0  0  0  0  0  0  0  0  0  0  0  0
    4.5978   -1.2321   -0.6276 C   0  0  0  0  0  0  0  0  0  0  0  0
    5.3873   -2.2538   -1.1759 C   0  0  0  0  0  0  0  0  0  0  0  0
    6.6670   -2.4727   -0.6525 C   0  0  0  0  0  0  0  0  0  0  0  0
    7.1524   -1.6877    0.3947 C   0  0  0  0  0  0  0  0  0  0  0  0
    6.3809   -0.6604    0.9512 C   0  0  0  0  0  0  0  0  0  0  0  0
    5.1030   -0.4607    0.4137 C   0  0  0  0  0  0  0  0  0  0  0  0
    3.8525    1.2199    2.5752 H   0  0  0  0  0  0  0  0  0  0  0  0
    3.5778    2.3792    1.2302 H   0  0  0  0  0  0  0  0  0  0  0  0
    5.2302    1.8872    1.6440 H   0  0  0  0  0  0  0  0  0  0  0  0
    0.9669    1.7980    1.5586 H   0  0  0  0  0  0  0  0  0  0  0  0
    1.6053    0.2020    1.9531 H   0  0  0  0  0  0  0  0  0  0  0  0
   -0.8108    0.1106    1.9547 H   0  0  0  0  0  0  0  0  0  0  0  0
   -0.1681   -0.8946    0.6476 H   0  0  0  0  0  0  0  0  0  0  0  0
   -1.7888   -0.7688   -1.1147 H   0  0  0  0  0  0  0  0  0  0  0  0
   -3.2558    2.6116   -0.3377 H   0  0  0  0  0  0  0  0  0  0  0  0
   -4.8631    3.7321   -1.8375 H   0  0  0  0  0  0  0  0  0  0  0  0
   -5.8082    2.5208   -3.7849 H   0  0  0  0  0  0  0  0  0  0  0  0
   -5.1434    0.1725   -4.2248 H   0  0  0  0  0  0  0  0  0  0  0  0
   -3.5435   -0.9669   -2.7352 H   0  0  0  0  0  0  0  0  0  0  0  0
   -3.6025    1.0868    1.6853 H   0  0  0  0  0  0  0  0  0  0  0  0
   -4.8750   -0.0980    3.4373 H   0  0  0  0  0  0  0  0  0  0  0  0
   -5.0716   -2.5710    3.3813 H   0  0  0  0  0  0  0  0  0  0  0  0
   -3.9934   -3.8586    1.5566 H   0  0  0  0  0  0  0  0  0  0  0  0
   -2.7244   -2.6936   -0.2067 H   0  0  0  0  0  0  0  0  0  0  0  0
   -0.8744    1.4663   -2.0408 H   0  0  0  0  0  0  0  0  0  0  0  0
   -0.1503    2.4853   -0.8231 H   0  0  0  0  0  0  0  0  0  0  0  0
    1.5352    1.2224   -2.1298 H   0  0  0  0  0  0  0  0  0  0  0  0
    0.8363   -0.3119   -1.5804 H   0  0  0  0  0  0  0  0  0  0  0  0
    5.0025   -2.8577   -1.9898 H   0  0  0  0  0  0  0  0  0  0  0  0
    7.2872   -3.2625   -1.0690 H   0  0  0  0  0  0  0  0  0  0  0  0
    8.1506   -1.8756    0.7844 H   0  0  0  0  0  0  0  0  0  0  0  0
    6.7655   -0.0521    1.7625 H   0  0  0  0  0  0  0  0  0  0  0  0
  1  2  1  0
  2  3  1  0
  3  4  1  0
  4  5  1  0
  5  6  1  0
  6  7  1  0
  7  8  1  0
  8  9  1  0
  9 10  2  0
 10 11  1  0
 11 12  2  0
 12 13  1  0
 13 14  2  0
  8 15  1  0
 15 16  2  0
 16 17  1  0
 17 18  2  0
 18 19  1  0
 19 20  2  0
  7 21  1  0
 21 22  1  0
  3 23  2  0
 23 24  1  0
 24 25  2  0
 25 26  1  0
 26 27  2  0
 27 28  1  0
 28 29  2  0
 29  2  1  0
 22  4  1  0
 29 24  1  0
 14  9  1  0
 20 15  1  0
  1 30  1  0
  1 31  1  0
  1 32  1  0
  5 33  1  0
  5 34  1  0
  6 35  1  0
  6 36  1  0
  8 37  1  0
 10 38  1  0
 11 39  1  0
 12 40  1  0
 13 41  1  0
 14 42  1  0
 16 43  1  0
 17 44  1  0
 18 45  1  0
 19 46  1  0
 20 47  1  0
 21 48  1  0
 21 49  1  0
 22 50  1  0
 22 51  1  0
 25 52  1  0
 26 53  1  0
 27 54  1  0
 28 55  1  0
M  END
$$$$
