
     RDKit          3D

 39 41  0  0  0  0  0  0  0  0999 V2000
   -1.5915   -2.7970   -1.4955 C   0  0  0  0  0  0  0  0  0  0  0  0
   -1.4794   -2.2631   -0.0736 C   0  0  0  0  0  0  0  0  0  0  0  0
   -1.8677   -0.8518    0.0119 N   0  0  0  0  0  0  0  0  0  0  0  0
   -0.9648    0.1961   -0.0729 C   0  0  0  0  0  0  0  0  0  0  0  0
    0.4623   -0.1495   -0.3049 C   0  0  0  0  0  0  0  0  0  0  0  0
    1.4053    0.4409    0.4444 C   0  0  0  0  0  0  0  0  0  0  0  0
    2.8455    0.2079    0.2784 C   0  0  0  0  0  0  0  0  0  0  0  0
    3.7210    1.2988    0.4104 C   0  0  0  0  0  0  0  0  0  0  0  0
    5.1019    1.1260    0.2868 C   0  0  0  0  0  0  0  0  0  0  0  0
    5.6044   -0.1417    0.0430 C   0  0  0  0  0  0  0  0  0  0  0  0
    6.9534   -0.3128   -0.0762 O   0  0  0  0  0  0  0  0  0  0  0  0
    4.7508   -1.2350   -0.0742 C   0  0  0  0  0  0  0  0  0  0  0  0
    5.3180   -2.4590   -0.3031 O   0  0  0  0  0  0  0  0  0  0  0  0
    3.3734   -1.0721    0.0456 C   0  0  0  0  0  0  0  0  0  0  0  0
   -1.2992    1.4457    0.0238 N   0  0  0  0  0  0  0  0  0  0  0  0
   -2.6433    1.7716    0.2215 C   0  0  0  0  0  0  0  0  0  0  0  0
   -3.0021    3.1167    0.3378 C   0  0  0  0  0  0  0  0  0  0  0  0
   -4.3369    3.4844    0.5301 C   0  0  0  0  0  0  0  0  0  0  0  0
   -5.3267    2.5053    0.6068 C   0  0  0  0  0  0  0  0  0  0  0  0
   -4.9802    1.1597    0.4914 C   0  0  0  0  0  0  0  0  0  0  0  0
   -3.6392    0.8044    0.2997 C   0  0  0  0  0  0  0  0  0  0  0  0
   -3.2327   -0.6043    0.1768 C   0  0  0  0  0  0  0  0  0  0  0  0
   -4.0911   -1.4837    0.2218 O   0  0  0  0  0  0  0  0  0  0  0  0
   -1.2867   -3.8474   -1.5308 H   0  0  0  0  0  0  0  0  0  0  0  0
   -0.9564   -2.2330   -2.1854 H   0  0  0  0  0  0  0  0  0  0  0  0
   -2.6205   -2.7290   -1.8632 H   0  0  0  0  0  0  0  0  0  0  0  0
   -2.1256   -2.8567    0.5840 H   0  0  0  0  0  0  0  0  0  0  0  0
   -0.4585   -2.4006    0.2959 H   0  0  0  0  0  0  0  0  0  0  0  0
    0.6942   -0.8342   -1.1094 H   0  0  0  0  0  0  0  0  0  0  0  0
    1.1246    1.1668    1.2062 H   0  0  0  0  0  0  0  0  0  0  0  0
    3.3324    2.2974    0.6013 H   0  0  0  0  0  0  0  0  0  0  0  0
    5.7757    1.9721    0.3811 H   0  0  0  0  0  0  0  0  0  0  0  0
    7.0662   -1.2704   -0.2387 H   0  0  0  0  0  0  0  0  0  0  0  0
    4.6084   -3.1224   -0.3438 H   0  0  0  0  0  0  0  0  0  0  0  0
    2.7130   -1.9295   -0.0279 H   0  0  0  0  0  0  0  0  0  0  0  0
   -2.2323    3.8819    0.2759 H   0  0  0  0  0  0  0  0  0  0  0  0
   -4.6014    4.5353    0.6186 H   0  0  0  0  0  0  0  0  0  0  0  0
   -6.3656    2.7895    0.7557 H   0  0  0  0  0  0  0  0  0  0  0  0
   -5.7489    0.3926    0.5507 H   0  0  0  0  0  0  0  0  0  0  0  0
  1  2  1  0
  2  3  1  0
  3  4  1  0
  4  5  1  0
  5  6  2  3
  6  7  1  0
  7  8  2  0
  8  9  1  0
  9 10  2  0
 10 11  1  0
 10 12  1  0
 12 13  1  0
 12 14  2  0
  4 15  2  0
 15 16  1  0
 16 17  2  0
 17 18  1  0
 18 19  2  0
 19 20  1  0
 20 21  2  0
 21 22  1  0
 22 23  2  0
 22  3  1  0
 14  7  1  0
 21 16  1  0
  1 24  1  0
  1 25  1  0
  1 26  1  0
  2 27  1  0
  2 28  1  0
  5 29  1  0
  6 30  1  0
  8 31  1  0
  9 32  1  0
 11 33  1  0
 13 34  1  0
 14 35  1  0
 17 36  1  0
 18 37  1  0
 19 38  1  0
 20 39  1  0
M  END
$$$$
