
     RDKit          3D

 53 56  0  0  0  0  0  0  0  0999 V2000
    6.1130    1.9810    2.5231 C   0  0  0  0  0  0  0  0  0  0  0  0
    5.8257    0.8175    1.7578 O   0  0  0  0  0  0  0  0  0  0  0  0
    4.9473    0.9603    0.7192 C   0  0  0  0  0  0  0  0  0  0  0  0
    4.2665    2.1280    0.3745 C   0  0  0  0  0  0  0  0  0  0  0  0
    3.3857    2.1345   -0.7138 C   0  0  0  0  0  0  0  0  0  0  0  0
    3.1811    0.9762   -1.4762 C   0  0  0  0  0  0  0  0  0  0  0  0
    2.1981    0.9680   -2.6199 C   0  0  0  0  0  0  0  0  0  0  0  0
    0.9351    0.4095   -2.1872 N   0  0  0  0  0  0  0  0  0  0  0  0
    0.5696   -0.8875   -2.4973 C   0  0  0  0  0  0  0  0  0  0  0  0
    1.1931   -1.5377   -3.3391 O   0  0  0  0  0  0  0  0  0  0  0  0
   -0.7042   -1.4324   -1.8396 C   0  0  0  0  0  0  0  0  0  0  0  0
   -0.5606   -2.8800   -1.6123 C   0  0  0  0  0  0  0  0  0  0  0  0
   -0.5036   -4.0232   -1.4078 N   0  0  0  0  0  0  0  0  0  0  0  0
   -1.1227   -0.7539   -0.5486 C   0  0  0  0  0  0  0  0  0  0  0  0
   -0.1414   -0.2331    0.2454 N   0  0  0  0  0  0  0  0  0  0  0  0
   -0.5161    0.3493    1.3963 C   0  0  0  0  0  0  0  0  0  0  0  0
    0.4499    0.8826    2.2408 C   0  0  0  0  0  0  0  0  0  0  0  0
    0.0977    1.5053    3.4382 C   0  0  0  0  0  0  0  0  0  0  0  0
   -1.2419    1.5956    3.7942 C   0  0  0  0  0  0  0  0  0  0  0  0
   -2.2169    1.0593    2.9507 C   0  0  0  0  0  0  0  0  0  0  0  0
   -1.8770    0.4356    1.7562 C   0  0  0  0  0  0  0  0  0  0  0  0
   -2.8432   -0.0707    0.9660 N   0  0  0  0  0  0  0  0  0  0  0  0
   -2.4759   -0.6794   -0.1856 C   0  0  0  0  0  0  0  0  0  0  0  0
   -3.4676   -1.2549   -1.0090 N   0  0  0  0  0  0  0  0  0  0  0  0
   -3.8713   -2.5743   -0.4557 C   0  0  0  0  0  0  0  0  0  0  0  0
   -5.3929   -2.5983   -0.5489 C   0  0  0  0  0  0  0  0  0  0  0  0
   -5.7574   -1.1481   -0.3092 C   0  0  0  0  0  0  0  0  0  0  0  0
   -4.6837   -0.4137   -1.1008 C   0  0  0  0  0  0  0  0  0  0  0  0
    3.8632   -0.1938   -1.1216 C   0  0  0  0  0  0  0  0  0  0  0  0
    4.7386   -0.1978   -0.0331 C   0  0  0  0  0  0  0  0  0  0  0  0
    6.8440    1.7053    3.2896 H   0  0  0  0  0  0  0  0  0  0  0  0
    5.2167    2.3471    3.0348 H   0  0  0  0  0  0  0  0  0  0  0  0
    6.5614    2.7631    1.9014 H   0  0  0  0  0  0  0  0  0  0  0  0
    4.3941    3.0498    0.9323 H   0  0  0  0  0  0  0  0  0  0  0  0
    2.8573    3.0534   -0.9597 H   0  0  0  0  0  0  0  0  0  0  0  0
    2.6090    0.4194   -3.4744 H   0  0  0  0  0  0  0  0  0  0  0  0
    1.9979    1.9920   -2.9549 H   0  0  0  0  0  0  0  0  0  0  0  0
    0.6069    0.7507   -1.2864 H   0  0  0  0  0  0  0  0  0  0  0  0
   -1.4802   -1.2598   -2.5972 H   0  0  0  0  0  0  0  0  0  0  0  0
    1.4991    0.8061    1.9611 H   0  0  0  0  0  0  0  0  0  0  0  0
    0.8688    1.9129    4.0875 H   0  0  0  0  0  0  0  0  0  0  0  0
   -1.5316    2.0768    4.7249 H   0  0  0  0  0  0  0  0  0  0  0  0
   -3.2657    1.1265    3.2301 H   0  0  0  0  0  0  0  0  0  0  0  0
   -3.4375   -3.3874   -1.0461 H   0  0  0  0  0  0  0  0  0  0  0  0
   -3.5666   -2.7089    0.5908 H   0  0  0  0  0  0  0  0  0  0  0  0
   -5.8457   -3.2785    0.1779 H   0  0  0  0  0  0  0  0  0  0  0  0
   -5.7073   -2.9079   -1.5530 H   0  0  0  0  0  0  0  0  0  0  0  0
   -5.6806   -0.9069    0.7576 H   0  0  0  0  0  0  0  0  0  0  0  0
   -6.7678   -0.9025   -0.6474 H   0  0  0  0  0  0  0  0  0  0  0  0
   -4.9741   -0.3711   -2.1579 H   0  0  0  0  0  0  0  0  0  0  0  0
   -4.5558    0.6226   -0.7667 H   0  0  0  0  0  0  0  0  0  0  0  0
    3.7091   -1.1120   -1.6869 H   0  0  0  0  0  0  0  0  0  0  0  0
    5.2603   -1.1147    0.2315 H   0  0  0  0  0  0  0  0  0  0  0  0
  1  2  1  0
  2  3  1  0
  3  4  2  0
  4  5  1  0
  5  6  2  0
  6  7  1  0
  7  8  1  0
  8  9  1  0
  9 10  2  0
  9 11  1  0
 11 12  1  0
 12 13  3  0
 11 14  1  0
 14 15  2  0
 15 16  1  0
 16 17  2  0
 17 18  1  0
 18 19  2  0
 19 20  1  0
 20 21  2  0
 21 22  1  0
 22 23  2  0
 23 24  1  0
 24 25  1  0
 25 26  1  0
 26 27  1  0
 27 28  1  0
  6 29  1  0
 29 30  2  0
 30  3  1  0
 23 14  1  0
 28 24  1  0
 21 16  1  0
  1 31  1  0
  1 32  1  0
  1 33  1  0
  4 34  1  0
  5 35  1  0
  7 36  1  0
  7 37  1  0
  8 38  1  0
 11 39  1  0
 17 40  1  0
 18 41  1  0
 19 42  1  0
 20 43  1  0
 25 44  1  0
 25 45  1  0
 26 46  1  0
 26 47  1  0
 27 48  1  0
 27 49  1  0
 28 50  1  0
 28 51  1  0
 29 52  1  0
 30 53  1  0
M  END
$$$$
