
     RDKit          3D

 44 46  0  0  0  0  0  0  0  0999 V2000
    3.6139    2.4180   -2.4495 C   0  0  0  0  0  0  0  0  0  0  0  0
    3.0053    1.0903   -2.4626 N   0  0  0  0  0  0  0  0  0  0  0  0
    1.5341    1.1911   -2.3862 C   0  0  0  0  0  0  0  0  0  0  0  0
    0.8574   -0.1025   -1.8986 C   0  0  0  0  0  0  0  0  0  0  0  0
    1.3281   -0.4869   -0.5627 N   0  0  0  0  0  0  0  0  0  0  0  0
    0.6043   -1.2314    0.3573 C   0  0  0  0  0  0  0  0  0  0  0  0
    1.0093   -1.5170    1.4802 O   0  0  0  0  0  0  0  0  0  0  0  0
   -0.7228   -1.7345   -0.0473 C   0  0  0  0  0  0  0  0  0  0  0  0
   -0.7649   -2.9271   -0.7832 C   0  0  0  0  0  0  0  0  0  0  0  0
   -1.9917   -3.4426   -1.1944 C   0  0  0  0  0  0  0  0  0  0  0  0
   -3.1691   -2.7725   -0.8677 C   0  0  0  0  0  0  0  0  0  0  0  0
   -3.1237   -1.5871   -0.1263 C   0  0  0  0  0  0  0  0  0  0  0  0
   -1.8993   -1.0462    0.3070 C   0  0  0  0  0  0  0  0  0  0  0  0
   -1.8873    0.2206    1.0611 C   0  0  0  0  0  0  0  0  0  0  0  0
   -2.0842    1.4154    0.3335 C   0  0  0  0  0  0  0  0  0  0  0  0
   -2.0434    2.6662    0.9524 C   0  0  0  0  0  0  0  0  0  0  0  0
   -1.8024    2.7547    2.3173 C   0  0  0  0  0  0  0  0  0  0  0  0
   -1.6144    1.5913    3.0621 C   0  0  0  0  0  0  0  0  0  0  0  0
   -1.6666    0.3227    2.4527 C   0  0  0  0  0  0  0  0  0  0  0  0
   -1.4734   -0.8295    3.3733 C   0  0  0  0  0  0  0  0  0  0  0  0
   -0.9355   -0.7736    4.4661 O   0  0  0  0  0  0  0  0  0  0  0  0
   -2.0437   -1.9682    2.9493 O   0  0  0  0  0  0  0  0  0  0  0  0
    2.6565   -0.0048   -0.1846 C   0  0  0  0  0  0  0  0  0  0  0  0
    3.5654    0.2191   -1.4069 C   0  0  0  0  0  0  0  0  0  0  0  0
    3.4487    2.9381   -1.4991 H   0  0  0  0  0  0  0  0  0  0  0  0
    4.6936    2.3473   -2.6215 H   0  0  0  0  0  0  0  0  0  0  0  0
    3.2079    3.0362   -3.2580 H   0  0  0  0  0  0  0  0  0  0  0  0
    1.1451    1.4486   -3.3779 H   0  0  0  0  0  0  0  0  0  0  0  0
    1.2418    1.9995   -1.7017 H   0  0  0  0  0  0  0  0  0  0  0  0
    1.0872   -0.9333   -2.5763 H   0  0  0  0  0  0  0  0  0  0  0  0
   -0.2275    0.0327   -1.8947 H   0  0  0  0  0  0  0  0  0  0  0  0
    0.1561   -3.4512   -1.0264 H   0  0  0  0  0  0  0  0  0  0  0  0
   -2.0312   -4.3694   -1.7611 H   0  0  0  0  0  0  0  0  0  0  0  0
   -4.1288   -3.1770   -1.1808 H   0  0  0  0  0  0  0  0  0  0  0  0
   -4.0576   -1.0888    0.1285 H   0  0  0  0  0  0  0  0  0  0  0  0
   -2.2636    1.3725   -0.7399 H   0  0  0  0  0  0  0  0  0  0  0  0
   -2.1939    3.5692    0.3661 H   0  0  0  0  0  0  0  0  0  0  0  0
   -1.7616    3.7250    2.8056 H   0  0  0  0  0  0  0  0  0  0  0  0
   -1.4281    1.6732    4.1323 H   0  0  0  0  0  0  0  0  0  0  0  0
   -1.7773   -2.6217    3.6280 H   0  0  0  0  0  0  0  0  0  0  0  0
    3.1276   -0.7163    0.5025 H   0  0  0  0  0  0  0  0  0  0  0  0
    2.5157    0.9362    0.3609 H   0  0  0  0  0  0  0  0  0  0  0  0
    3.7449   -0.7584   -1.8734 H   0  0  0  0  0  0  0  0  0  0  0  0
    4.5491    0.5718   -1.0734 H   0  0  0  0  0  0  0  0  0  0  0  0
  1  2  1  0
  2  3  1  0
  3  4  1  0
  4  5  1  0
  5  6  1  0
  6  7  2  0
  6  8  1  0
  8  9  2  0
  9 10  1  0
 10 11  2  0
 11 12  1  0
 12 13  2  0
 13 14  1  0
 14 15  2  0
 15 16  1  0
 16 17  2  0
 17 18  1  0
 18 19  2  0
 19 20  1  0
 20 21  2  0
 20 22  1  0
  5 23  1  0
 23 24  1  0
 24  2  1  0
 13  8  1  0
 19 14  1  0
  1 25  1  0
  1 26  1  0
  1 27  1  0
  3 28  1  0
  3 29  1  0
  4 30  1  0
  4 31  1  0
  9 32  1  0
 10 33  1  0
 11 34  1  0
 12 35  1  0
 15 36  1  0
 16 37  1  0
 17 38  1  0
 18 39  1  0
 22 40  1  0
 23 41  1  0
 23 42  1  0
 24 43  1  0
 24 44  1  0
M  END
$$$$
