
     RDKit          3D

 46 48  0  0  0  0  0  0  0  0999 V2000
   -5.8991   -0.4152    0.9364 C   0  0  0  0  0  0  0  0  0  0  0  0
   -5.2691    0.9226    0.9875 C   0  0  0  0  0  0  0  0  0  0  0  0
   -5.9096    1.8276    1.7835 O   0  0  0  0  0  0  0  0  0  0  0  0
   -5.2461    3.0036    1.6738 C   0  0  0  0  0  0  0  0  0  0  0  0
   -4.1803    2.8693    0.8204 C   0  0  0  0  0  0  0  0  0  0  0  0
   -4.1652    1.5083    0.3828 C   0  0  0  0  0  0  0  0  0  0  0  0
   -3.1976    0.9254   -0.5376 C   0  0  0  0  0  0  0  0  0  0  0  0
   -2.5404    1.6245   -1.3018 O   0  0  0  0  0  0  0  0  0  0  0  0
   -3.0467   -0.4401   -0.4580 N   0  0  0  0  0  0  0  0  0  0  0  0
   -2.0133   -1.1319   -1.1927 C   0  0  0  0  0  0  0  0  0  0  0  0
   -0.9422   -1.6280   -0.2553 C   0  0  0  0  0  0  0  0  0  0  0  0
   -0.9119   -2.9678    0.1530 C   0  0  0  0  0  0  0  0  0  0  0  0
    0.0719   -3.4154    1.0347 C   0  0  0  0  0  0  0  0  0  0  0  0
    1.0309   -2.5285    1.5238 C   0  0  0  0  0  0  0  0  0  0  0  0
    1.0113   -1.1809    1.1416 C   0  0  0  0  0  0  0  0  0  0  0  0
    2.0563   -0.2207    1.6496 C   0  0  0  0  0  0  0  0  0  0  0  0
    3.0671    0.0053    0.6427 N   0  0  0  0  0  0  0  0  0  0  0  0
    3.1441    1.1934   -0.0469 C   0  0  0  0  0  0  0  0  0  0  0  0
    2.4383    2.1622    0.2142 O   0  0  0  0  0  0  0  0  0  0  0  0
    4.0924    1.2191   -1.1525 C   0  0  0  0  0  0  0  0  0  0  0  0
    4.0357    2.0989   -2.2779 C   0  0  0  0  0  0  0  0  0  0  0  0
    5.1079    1.7947   -3.0782 C   0  0  0  0  0  0  0  0  0  0  0  0
    5.8415    0.8014   -2.5208 O   0  0  0  0  0  0  0  0  0  0  0  0
    5.2406    0.4626   -1.3428 C   0  0  0  0  0  0  0  0  0  0  0  0
    5.9488   -0.5725   -0.5569 C   0  0  0  0  0  0  0  0  0  0  0  0
    0.0219   -0.7411    0.2483 C   0  0  0  0  0  0  0  0  0  0  0  0
   -6.9470   -0.3704    1.2517 H   0  0  0  0  0  0  0  0  0  0  0  0
   -5.8775   -0.8189   -0.0803 H   0  0  0  0  0  0  0  0  0  0  0  0
   -5.3761   -1.1084    1.6017 H   0  0  0  0  0  0  0  0  0  0  0  0
   -5.6488    3.8267    2.2465 H   0  0  0  0  0  0  0  0  0  0  0  0
   -3.4794    3.6456    0.5409 H   0  0  0  0  0  0  0  0  0  0  0  0
   -3.4377   -0.9200    0.3377 H   0  0  0  0  0  0  0  0  0  0  0  0
   -2.4930   -1.9749   -1.7030 H   0  0  0  0  0  0  0  0  0  0  0  0
   -1.5724   -0.4945   -1.9673 H   0  0  0  0  0  0  0  0  0  0  0  0
   -1.6525   -3.6739   -0.2161 H   0  0  0  0  0  0  0  0  0  0  0  0
    0.0914   -4.4584    1.3415 H   0  0  0  0  0  0  0  0  0  0  0  0
    1.7916   -2.8968    2.2088 H   0  0  0  0  0  0  0  0  0  0  0  0
    2.5653   -0.6400    2.5246 H   0  0  0  0  0  0  0  0  0  0  0  0
    1.5865    0.7167    1.9672 H   0  0  0  0  0  0  0  0  0  0  0  0
    3.4925   -0.8129    0.2348 H   0  0  0  0  0  0  0  0  0  0  0  0
    3.2846    2.8542   -2.4710 H   0  0  0  0  0  0  0  0  0  0  0  0
    5.4724    2.1763   -4.0216 H   0  0  0  0  0  0  0  0  0  0  0  0
    5.4749   -1.5495   -0.6951 H   0  0  0  0  0  0  0  0  0  0  0  0
    6.9950   -0.6574   -0.8686 H   0  0  0  0  0  0  0  0  0  0  0  0
    5.9408   -0.3265    0.5098 H   0  0  0  0  0  0  0  0  0  0  0  0
    0.0023    0.3060   -0.0597 H   0  0  0  0  0  0  0  0  0  0  0  0
  1  2  1  0
  2  3  1  0
  3  4  1  0
  4  5  2  0
  5  6  1  0
  6  7  1  0
  7  8  2  0
  7  9  1  0
  9 10  1  0
 10 11  1  0
 11 12  2  0
 12 13  1  0
 13 14  2  0
 14 15  1  0
 15 16  1  0
 16 17  1  0
 17 18  1  0
 18 19  2  0
 18 20  1  0
 20 21  1  0
 21 22  2  0
 22 23  1  0
 23 24  1  0
 24 25  1  0
 15 26  2  0
  6  2  2  0
 26 11  1  0
 24 20  2  0
  1 27  1  0
  1 28  1  0
  1 29  1  0
  4 30  1  0
  5 31  1  0
  9 32  1  0
 10 33  1  0
 10 34  1  0
 12 35  1  0
 13 36  1  0
 14 37  1  0
 16 38  1  0
 16 39  1  0
 17 40  1  0
 21 41  1  0
 22 42  1  0
 25 43  1  0
 25 44  1  0
 25 45  1  0
 26 46  1  0
M  END
$$$$
