
     RDKit          3D

 55 58  0  0  0  0  0  0  0  0999 V2000
   -1.1473   -3.4383   -3.8913 C   0  0  0  0  0  0  0  0  0  0  0  0
    0.0442   -2.6658   -4.0826 O   0  0  0  0  0  0  0  0  0  0  0  0
    0.8486   -2.7725   -2.9760 C   0  0  0  0  0  0  0  0  0  0  0  0
    1.6440   -3.9122   -2.8460 C   0  0  0  0  0  0  0  0  0  0  0  0
    2.4446   -4.0720   -1.7203 C   0  0  0  0  0  0  0  0  0  0  0  0
    2.4555   -3.0894   -0.7299 C   0  0  0  0  0  0  0  0  0  0  0  0
    1.6830   -1.9179   -0.8572 C   0  0  0  0  0  0  0  0  0  0  0  0
    1.7569   -0.8826    0.2480 C   0  0  0  0  0  0  0  0  0  0  0  0
    2.4310    0.4177   -0.2051 C   0  0  0  0  0  0  0  0  0  0  0  0
    1.6091    1.4707    0.4907 C   0  0  0  0  0  0  0  0  0  0  0  0
    2.0277    2.8928    0.5097 C   0  0  0  0  0  0  0  0  0  0  0  0
    1.2656    3.8156    1.2381 C   0  0  0  0  0  0  0  0  0  0  0  0
    1.6349    5.1615    1.2741 C   0  0  0  0  0  0  0  0  0  0  0  0
    2.7660    5.5921    0.5833 C   0  0  0  0  0  0  0  0  0  0  0  0
    3.5268    4.6793   -0.1470 C   0  0  0  0  0  0  0  0  0  0  0  0
    3.1602    3.3314   -0.1865 C   0  0  0  0  0  0  0  0  0  0  0  0
    0.5180    1.0495    1.0525 N   0  0  0  0  0  0  0  0  0  0  0  0
    0.4501   -0.4298    0.7844 N   0  0  0  0  0  0  0  0  0  0  0  0
   -0.2080   -1.4247    2.0135 S   0  0  0  0  0  6  0  0  0  0  0  0
    0.5656   -1.2130    3.2247 O   0  0  0  0  0  0  0  0  0  0  0  0
   -0.3953   -2.7663    1.4959 O   0  0  0  0  0  0  0  0  0  0  0  0
   -1.8197   -0.7161    2.2401 C   0  0  0  0  0  0  0  0  0  0  0  0
   -2.7751   -0.8702    1.2321 C   0  0  0  0  0  0  0  0  0  0  0  0
   -4.0521   -0.3354    1.4087 C   0  0  0  0  0  0  0  0  0  0  0  0
   -4.3766    0.3550    2.5855 C   0  0  0  0  0  0  0  0  0  0  0  0
   -5.7611    0.8989    2.7837 C   0  0  0  0  0  0  0  0  0  0  0  0
   -3.4126    0.4843    3.5960 C   0  0  0  0  0  0  0  0  0  0  0  0
   -2.1324   -0.0460    3.4252 C   0  0  0  0  0  0  0  0  0  0  0  0
    0.8940   -1.7512   -2.0128 C   0  0  0  0  0  0  0  0  0  0  0  0
    0.1471   -0.6039   -2.0943 O   0  0  0  0  0  0  0  0  0  0  0  0
    0.1818    0.0476   -3.3616 C   0  0  0  0  0  0  0  0  0  0  0  0
   -0.9317   -4.5120   -3.9889 H   0  0  0  0  0  0  0  0  0  0  0  0
   -1.6250   -3.2306   -2.9247 H   0  0  0  0  0  0  0  0  0  0  0  0
   -1.8515   -3.1614   -4.6818 H   0  0  0  0  0  0  0  0  0  0  0  0
    1.6273   -4.6798   -3.6144 H   0  0  0  0  0  0  0  0  0  0  0  0
    3.0485   -4.9684   -1.6049 H   0  0  0  0  0  0  0  0  0  0  0  0
    3.0705   -3.2506    0.1540 H   0  0  0  0  0  0  0  0  0  0  0  0
    2.3495   -1.2781    1.0846 H   0  0  0  0  0  0  0  0  0  0  0  0
    2.3896    0.5862   -1.2850 H   0  0  0  0  0  0  0  0  0  0  0  0
    3.4754    0.4477    0.1190 H   0  0  0  0  0  0  0  0  0  0  0  0
    0.3795    3.4948    1.7825 H   0  0  0  0  0  0  0  0  0  0  0  0
    1.0385    5.8723    1.8419 H   0  0  0  0  0  0  0  0  0  0  0  0
    3.0528    6.6403    0.6127 H   0  0  0  0  0  0  0  0  0  0  0  0
    4.4070    5.0193   -0.6879 H   0  0  0  0  0  0  0  0  0  0  0  0
    3.7698    2.6478   -0.7703 H   0  0  0  0  0  0  0  0  0  0  0  0
   -2.5269   -1.3989    0.3142 H   0  0  0  0  0  0  0  0  0  0  0  0
   -4.7933   -0.4586    0.6222 H   0  0  0  0  0  0  0  0  0  0  0  0
   -6.4111    0.1243    3.2006 H   0  0  0  0  0  0  0  0  0  0  0  0
   -5.7512    1.7567    3.4640 H   0  0  0  0  0  0  0  0  0  0  0  0
   -6.1841    1.2439    1.8345 H   0  0  0  0  0  0  0  0  0  0  0  0
   -3.6532    1.0013    4.5228 H   0  0  0  0  0  0  0  0  0  0  0  0
   -1.3908    0.0674    4.2128 H   0  0  0  0  0  0  0  0  0  0  0  0
    1.1279   -0.1069   -3.8932 H   0  0  0  0  0  0  0  0  0  0  0  0
    0.0771    1.1227   -3.1813 H   0  0  0  0  0  0  0  0  0  0  0  0
   -0.6692   -0.2685   -3.9726 H   0  0  0  0  0  0  0  0  0  0  0  0
  1  2  1  0
  2  3  1  0
  3  4  2  0
  4  5  1  0
  5  6  2  0
  6  7  1  0
  7  8  1  0
  8  9  1  0
  9 10  1  0
 10 11  1  0
 11 12  2  0
 12 13  1  0
 13 14  2  0
 14 15  1  0
 15 16  2  0
 10 17  2  0
 17 18  1  0
 18 19  1  0
 19 20  2  0
 19 21  2  0
 19 22  1  0
 22 23  2  0
 23 24  1  0
 24 25  2  0
 25 26  1  0
 25 27  1  0
 27 28  2  0
  7 29  2  0
 29 30  1  0
 30 31  1  0
 29  3  1  0
 18  8  1  0
 28 22  1  0
 16 11  1  0
  1 32  1  0
  1 33  1  0
  1 34  1  0
  4 35  1  0
  5 36  1  0
  6 37  1  0
  8 38  1  0
  9 39  1  0
  9 40  1  0
 12 41  1  0
 13 42  1  0
 14 43  1  0
 15 44  1  0
 16 45  1  0
 23 46  1  0
 24 47  1  0
 26 48  1  0
 26 49  1  0
 26 50  1  0
 27 51  1  0
 28 52  1  0
 31 53  1  0
 31 54  1  0
 31 55  1  0
M  END
$$$$
