
     RDKit          3D

 42 44  0  0  0  0  0  0  0  0999 V2000
    8.1808   -1.1921   -1.7586 C   0  0  0  0  0  0  0  0  0  0  0  0
    7.0771   -2.0018   -1.3717 O   0  0  0  0  0  0  0  0  0  0  0  0
    5.9286   -1.3522   -1.0139 C   0  0  0  0  0  0  0  0  0  0  0  0
    5.7350    0.0293   -1.0056 C   0  0  0  0  0  0  0  0  0  0  0  0
    4.5014    0.5626   -0.6151 C   0  0  0  0  0  0  0  0  0  0  0  0
    3.4492   -0.2816   -0.2400 C   0  0  0  0  0  0  0  0  0  0  0  0
    2.1526    0.3352    0.1664 C   0  0  0  0  0  0  0  0  0  0  0  0
    2.1917    1.4182    0.7356 O   0  0  0  0  0  0  0  0  0  0  0  0
    1.0319   -0.3931   -0.1956 N   0  0  0  0  0  0  0  0  0  0  0  0
   -0.2933   -0.0752    0.0822 C   0  0  0  0  0  0  0  0  0  0  0  0
   -0.7081    1.2666    1.0460 S   0  0  0  0  0  0  0  0  0  0  0  0
   -2.3732    0.9615    0.8986 C   0  0  0  0  0  0  0  0  0  0  0  0
   -2.6309   -0.1657    0.1439 C   0  0  0  0  0  0  0  0  0  0  0  0
   -1.4209   -0.7630   -0.3341 C   0  0  0  0  0  0  0  0  0  0  0  0
   -1.3629   -1.9386   -1.1500 C   0  0  0  0  0  0  0  0  0  0  0  0
   -1.2855   -2.8940   -1.8037 N   0  0  0  0  0  0  0  0  0  0  0  0
   -4.0407   -0.6061   -0.1017 C   0  0  0  0  0  0  0  0  0  0  0  0
   -4.9867   -0.0109    0.9548 C   0  0  0  0  0  0  0  0  0  0  0  0
   -4.7525    1.4289    1.1657 N   0  0  0  0  0  0  0  0  0  0  0  0
   -5.7651    2.3392    1.4439 C   0  0  0  0  0  0  0  0  0  0  0  0
   -7.1806    1.9160    1.1462 C   0  0  0  0  0  0  0  0  0  0  0  0
   -5.5395    3.4579    1.9057 O   0  0  0  0  0  0  0  0  0  0  0  0
   -3.3941    1.8391    1.5574 C   0  0  0  0  0  0  0  0  0  0  0  0
    3.6480   -1.6665   -0.2299 C   0  0  0  0  0  0  0  0  0  0  0  0
    4.8825   -2.1928   -0.6216 C   0  0  0  0  0  0  0  0  0  0  0  0
    9.0131   -1.8579   -2.0061 H   0  0  0  0  0  0  0  0  0  0  0  0
    7.9456   -0.6062   -2.6533 H   0  0  0  0  0  0  0  0  0  0  0  0
    8.5042   -0.5461   -0.9357 H   0  0  0  0  0  0  0  0  0  0  0  0
    6.5205    0.7210   -1.2920 H   0  0  0  0  0  0  0  0  0  0  0  0
    4.3630    1.6427   -0.6048 H   0  0  0  0  0  0  0  0  0  0  0  0
    1.1810   -1.2043   -0.7839 H   0  0  0  0  0  0  0  0  0  0  0  0
   -4.1193   -1.6985   -0.0875 H   0  0  0  0  0  0  0  0  0  0  0  0
   -4.3429   -0.2602   -1.0979 H   0  0  0  0  0  0  0  0  0  0  0  0
   -6.0183   -0.2117    0.6574 H   0  0  0  0  0  0  0  0  0  0  0  0
   -4.8329   -0.4992    1.9257 H   0  0  0  0  0  0  0  0  0  0  0  0
   -7.4893    1.1245    1.8338 H   0  0  0  0  0  0  0  0  0  0  0  0
   -7.2688    1.5855    0.1079 H   0  0  0  0  0  0  0  0  0  0  0  0
   -7.8496    2.7712    1.2839 H   0  0  0  0  0  0  0  0  0  0  0  0
   -3.2368    2.8883    1.2821 H   0  0  0  0  0  0  0  0  0  0  0  0
   -3.3250    1.7500    2.6481 H   0  0  0  0  0  0  0  0  0  0  0  0
    2.8734   -2.3501    0.1055 H   0  0  0  0  0  0  0  0  0  0  0  0
    5.0375   -3.2698   -0.6112 H   0  0  0  0  0  0  0  0  0  0  0  0
  1  2  1  0
  2  3  1  0
  3  4  2  0
  4  5  1  0
  5  6  2  0
  6  7  1  0
  7  8  2  0
  7  9  1  0
  9 10  1  0
 10 11  1  0
 11 12  1  0
 12 13  2  0
 13 14  1  0
 14 15  1  0
 15 16  3  0
 13 17  1  0
 17 18  1  0
 18 19  1  0
 19 20  1  0
 20 21  1  0
 20 22  2  0
 19 23  1  0
  6 24  1  0
 24 25  2  0
 25  3  1  0
 14 10  2  0
 23 12  1  0
  1 26  1  0
  1 27  1  0
  1 28  1  0
  4 29  1  0
  5 30  1  0
  9 31  1  0
 17 32  1  0
 17 33  1  0
 18 34  1  0
 18 35  1  0
 21 36  1  0
 21 37  1  0
 21 38  1  0
 23 39  1  0
 23 40  1  0
 24 41  1  0
 25 42  1  0
M  END
$$$$
