
     RDKit          3D

 42 44  0  0  0  0  0  0  0  0999 V2000
    5.5399   -1.0158    1.3176 C   0  0  0  0  0  0  0  0  0  0  0  0
    5.1608    0.1501    0.4174 C   0  0  0  0  0  0  0  0  0  0  0  0
    3.6779    0.1930    0.1514 C   0  0  0  0  0  0  0  0  0  0  0  0
    2.8255    0.9117    0.9959 C   0  0  0  0  0  0  0  0  0  0  0  0
    1.4492    0.9386    0.7583 C   0  0  0  0  0  0  0  0  0  0  0  0
    0.8914    0.2478   -0.3293 C   0  0  0  0  0  0  0  0  0  0  0  0
   -0.6126    0.2288   -0.5927 C   0  0  0  0  0  0  0  0  0  0  0  0
   -1.3281   -0.8153    0.2947 C   0  0  0  0  0  0  0  0  0  0  0  0
   -1.0798   -0.6010    1.7751 C   0  0  0  0  0  0  0  0  0  0  0  0
   -1.3990    0.3608    2.4544 O   0  0  0  0  0  0  0  0  0  0  0  0
   -0.4492   -1.6487    2.3508 O   0  0  0  0  0  0  0  0  0  0  0  0
   -2.8114   -0.8194    0.0139 C   0  0  0  0  0  0  0  0  0  0  0  0
   -3.5730   -1.9798    0.2304 C   0  0  0  0  0  0  0  0  0  0  0  0
   -4.9501   -1.9709    0.0091 C   0  0  0  0  0  0  0  0  0  0  0  0
   -5.5797   -0.8056   -0.4215 C   0  0  0  0  0  0  0  0  0  0  0  0
   -4.8313    0.3529   -0.6329 C   0  0  0  0  0  0  0  0  0  0  0  0
   -3.4461    0.3527   -0.4176 C   0  0  0  0  0  0  0  0  0  0  0  0
   -2.6767    1.6061   -0.6694 C   0  0  0  0  0  0  0  0  0  0  0  0
   -3.2941    2.6283   -0.9599 O   0  0  0  0  0  0  0  0  0  0  0  0
   -1.2747    1.5476   -0.6013 N   0  0  0  0  0  0  0  0  0  0  0  0
   -0.5735    2.6841   -1.1912 C   0  0  0  0  0  0  0  0  0  0  0  0
    1.7518   -0.4794   -1.1666 C   0  0  0  0  0  0  0  0  0  0  0  0
    3.1285   -0.5065   -0.9285 C   0  0  0  0  0  0  0  0  0  0  0  0
    5.2654   -1.9740    0.8635 H   0  0  0  0  0  0  0  0  0  0  0  0
    5.0372   -0.9482    2.2883 H   0  0  0  0  0  0  0  0  0  0  0  0
    6.6201   -1.0217    1.4946 H   0  0  0  0  0  0  0  0  0  0  0  0
    5.4809    1.0928    0.8777 H   0  0  0  0  0  0  0  0  0  0  0  0
    5.7038    0.0770   -0.5328 H   0  0  0  0  0  0  0  0  0  0  0  0
    3.2271    1.4595    1.8456 H   0  0  0  0  0  0  0  0  0  0  0  0
    0.8144    1.5194    1.4271 H   0  0  0  0  0  0  0  0  0  0  0  0
   -0.7411   -0.1097   -1.6335 H   0  0  0  0  0  0  0  0  0  0  0  0
   -0.9264   -1.8039    0.0278 H   0  0  0  0  0  0  0  0  0  0  0  0
   -0.3503   -1.3764    3.2879 H   0  0  0  0  0  0  0  0  0  0  0  0
   -3.0993   -2.8955    0.5800 H   0  0  0  0  0  0  0  0  0  0  0  0
   -5.5349   -2.8717    0.1798 H   0  0  0  0  0  0  0  0  0  0  0  0
   -6.6539   -0.7947   -0.5893 H   0  0  0  0  0  0  0  0  0  0  0  0
   -5.3329    1.2599   -0.9660 H   0  0  0  0  0  0  0  0  0  0  0  0
   -1.1630    3.6021   -1.1087 H   0  0  0  0  0  0  0  0  0  0  0  0
    0.3769    2.8644   -0.6883 H   0  0  0  0  0  0  0  0  0  0  0  0
   -0.4010    2.4767   -2.2518 H   0  0  0  0  0  0  0  0  0  0  0  0
    1.3595   -1.0361   -2.0154 H   0  0  0  0  0  0  0  0  0  0  0  0
    3.7717   -1.0801   -1.5928 H   0  0  0  0  0  0  0  0  0  0  0  0
  1  2  1  0
  2  3  1  0
  3  4  2  0
  4  5  1  0
  5  6  2  0
  6  7  1  0
  7  8  1  0
  8  9  1  0
  9 10  2  0
  9 11  1  0
  8 12  1  0
 12 13  2  0
 13 14  1  0
 14 15  2  0
 15 16  1  0
 16 17  2  0
 17 18  1  0
 18 19  2  0
 18 20  1  0
 20 21  1  0
  6 22  1  0
 22 23  2  0
 23  3  1  0
 20  7  1  0
 17 12  1  0
  1 24  1  0
  1 25  1  0
  1 26  1  0
  2 27  1  0
  2 28  1  0
  4 29  1  0
  5 30  1  0
  7 31  1  0
  8 32  1  0
 11 33  1  0
 13 34  1  0
 14 35  1  0
 15 36  1  0
 16 37  1  0
 21 38  1  0
 21 39  1  0
 21 40  1  0
 22 41  1  0
 23 42  1  0
M  END
$$$$
