
     RDKit          3D

 30 31  0  0  0  0  0  0  0  0999 V2000
   -4.6760    0.5261    1.1828 C   0  0  0  0  0  0  0  0  0  0  0  0
   -4.1326    0.7178   -0.2206 C   0  0  0  0  0  0  0  0  0  0  0  0
   -2.6984    0.7182   -0.1997 O   0  0  0  0  0  0  0  0  0  0  0  0
   -2.0991   -0.5057   -0.2859 C   0  0  0  0  0  0  0  0  0  0  0  0
   -2.7111   -1.5640   -0.3740 O   0  0  0  0  0  0  0  0  0  0  0  0
   -0.6561   -0.3618   -0.2543 C   0  0  0  0  0  0  0  0  0  0  0  0
    0.0834   -1.5190   -0.3405 O   0  0  0  0  0  0  0  0  0  0  0  0
    1.3812   -1.1625   -0.2910 C   0  0  0  0  0  0  0  0  0  0  0  0
    1.5285    0.1980   -0.1797 C   0  0  0  0  0  0  0  0  0  0  0  0
    0.2062    0.7356   -0.1497 C   0  0  0  0  0  0  0  0  0  0  0  0
   -0.1751    2.1686   -0.0327 C   0  0  0  0  0  0  0  0  0  0  0  0
    2.8605    0.7785   -0.1125 C   0  0  0  0  0  0  0  0  0  0  0  0
    3.0513    1.9849    0.0136 O   0  0  0  0  0  0  0  0  0  0  0  0
    4.0285   -0.1976   -0.2856 C   0  0  0  0  0  0  0  0  0  0  0  0
    3.7196   -1.6063    0.2515 C   0  0  0  0  0  0  0  0  0  0  0  0
    2.4348   -2.1981   -0.3523 C   0  0  0  0  0  0  0  0  0  0  0  0
   -5.7680    0.5849    1.1873 H   0  0  0  0  0  0  0  0  0  0  0  0
   -4.2779    1.2917    1.8568 H   0  0  0  0  0  0  0  0  0  0  0  0
   -4.3766   -0.4442    1.5913 H   0  0  0  0  0  0  0  0  0  0  0  0
   -4.5233   -0.0388   -0.9106 H   0  0  0  0  0  0  0  0  0  0  0  0
   -4.4461    1.6939   -0.6053 H   0  0  0  0  0  0  0  0  0  0  0  0
    0.6958    2.8244    0.0388 H   0  0  0  0  0  0  0  0  0  0  0  0
   -0.7517    2.4834   -0.9085 H   0  0  0  0  0  0  0  0  0  0  0  0
   -0.7821    2.3306    0.8640 H   0  0  0  0  0  0  0  0  0  0  0  0
    4.2688   -0.2452   -1.3540 H   0  0  0  0  0  0  0  0  0  0  0  0
    4.8977    0.2080    0.2437 H   0  0  0  0  0  0  0  0  0  0  0  0
    4.5640   -2.2758    0.0531 H   0  0  0  0  0  0  0  0  0  0  0  0
    3.6062   -1.5475    1.3424 H   0  0  0  0  0  0  0  0  0  0  0  0
    2.6082   -2.4817   -1.3963 H   0  0  0  0  0  0  0  0  0  0  0  0
    2.1392   -3.0965    0.1990 H   0  0  0  0  0  0  0  0  0  0  0  0
  1  2  1  0
  2  3  1  0
  3  4  1  0
  4  5  2  0
  4  6  1  0
  6  7  1  0
  7  8  1  0
  8  9  2  0
  9 10  1  0
 10 11  1  0
  9 12  1  0
 12 13  2  0
 12 14  1  0
 14 15  1  0
 15 16  1  0
 10  6  2  0
 16  8  1  0
  1 17  1  0
  1 18  1  0
  1 19  1  0
  2 20  1  0
  2 21  1  0
 11 22  1  0
 11 23  1  0
 11 24  1  0
 14 25  1  0
 14 26  1  0
 15 27  1  0
 15 28  1  0
 16 29  1  0
 16 30  1  0
M  END
$$$$
