
     RDKit          3D

 54 54  0  0  0  0  0  0  0  0999 V2000
    8.2720    1.5682    1.0887 C   0  0  0  0  0  0  0  0  0  0  0  0
    8.4382    0.4052    0.4404 C   0  0  0  0  0  0  0  0  0  0  0  0
    7.7005    0.0296   -0.8060 C   0  0  0  0  0  0  0  0  0  0  0  0
    6.8166   -1.0700   -0.4840 N   0  0  0  0  0  0  0  0  0  0  0  0
    5.6001   -1.1735   -1.1388 C   0  0  0  0  0  0  0  0  0  0  0  0
    5.1907   -0.3268   -1.9192 O   0  0  0  0  0  0  0  0  0  0  0  0
    4.9543   -2.3365   -0.7817 N   0  0  0  0  0  0  0  0  0  0  0  0
    3.7081   -2.6955   -1.2619 C   0  0  0  0  0  0  0  0  0  0  0  0
    3.1883   -2.2782   -2.2949 O   0  0  0  0  0  0  0  0  0  0  0  0
    3.0165   -3.7690   -0.4136 C   0  0  0  0  0  0  0  0  0  0  0  0
    1.5947   -3.6443   -0.4400 O   0  0  0  0  0  0  0  0  0  0  0  0
    1.1341   -2.5234    0.1787 C   0  0  0  0  0  0  0  0  0  0  0  0
    1.8318   -1.7811    0.8592 O   0  0  0  0  0  0  0  0  0  0  0  0
   -0.3118   -2.3171   -0.0880 C   0  0  0  0  0  0  0  0  0  0  0  0
   -1.0680   -3.3724   -0.6652 C   0  0  0  0  0  0  0  0  0  0  0  0
   -1.6744   -4.2481   -1.1278 N   0  0  0  0  0  0  0  0  0  0  0  0
   -0.8225   -1.1214    0.2640 C   0  0  0  0  0  0  0  0  0  0  0  0
   -2.1645   -0.6475    0.1149 C   0  0  0  0  0  0  0  0  0  0  0  0
   -3.0862   -0.9399   -0.9172 C   0  0  0  0  0  0  0  0  0  0  0  0
   -4.2443   -0.2303   -0.6688 C   0  0  0  0  0  0  0  0  0  0  0  0
   -5.5092   -0.2273   -1.4559 C   0  0  0  0  0  0  0  0  0  0  0  0
   -4.0359    0.5216    0.4733 N   0  0  0  0  0  0  0  0  0  0  0  0
   -5.0101    1.4305    1.0706 C   0  0  0  0  0  0  0  0  0  0  0  0
   -4.6922    2.9255    0.8699 C   0  0  0  0  0  0  0  0  0  0  0  0
   -5.6688    3.7718    1.6908 C   0  0  0  0  0  0  0  0  0  0  0  0
   -4.7515    3.3446   -0.6009 C   0  0  0  0  0  0  0  0  0  0  0  0
   -2.7717    0.2533    0.9768 C   0  0  0  0  0  0  0  0  0  0  0  0
   -2.2402    0.8877    2.2169 C   0  0  0  0  0  0  0  0  0  0  0  0
    8.8388    1.7983    1.9856 H   0  0  0  0  0  0  0  0  0  0  0  0
    7.5589    2.3164    0.7425 H   0  0  0  0  0  0  0  0  0  0  0  0
    9.1655   -0.3084    0.8220 H   0  0  0  0  0  0  0  0  0  0  0  0
    8.4067   -0.3254   -1.5652 H   0  0  0  0  0  0  0  0  0  0  0  0
    7.1504    0.8781   -1.2317 H   0  0  0  0  0  0  0  0  0  0  0  0
    7.2814   -1.9412   -0.2803 H   0  0  0  0  0  0  0  0  0  0  0  0
    5.2092   -2.6641    0.1372 H   0  0  0  0  0  0  0  0  0  0  0  0
    3.3769   -3.7672    0.6223 H   0  0  0  0  0  0  0  0  0  0  0  0
    3.2700   -4.7418   -0.8493 H   0  0  0  0  0  0  0  0  0  0  0  0
   -0.1451   -0.4041    0.7282 H   0  0  0  0  0  0  0  0  0  0  0  0
   -2.9424   -1.5924   -1.7729 H   0  0  0  0  0  0  0  0  0  0  0  0
   -5.7565    0.7794   -1.7997 H   0  0  0  0  0  0  0  0  0  0  0  0
   -6.3385   -0.6113   -0.8564 H   0  0  0  0  0  0  0  0  0  0  0  0
   -5.4193   -0.8651   -2.3404 H   0  0  0  0  0  0  0  0  0  0  0  0
   -6.0007    1.1901    0.6695 H   0  0  0  0  0  0  0  0  0  0  0  0
   -5.0543    1.1839    2.1388 H   0  0  0  0  0  0  0  0  0  0  0  0
   -3.6789    3.1413    1.2339 H   0  0  0  0  0  0  0  0  0  0  0  0
   -5.5976    3.5215    2.7539 H   0  0  0  0  0  0  0  0  0  0  0  0
   -6.7058    3.6077    1.3746 H   0  0  0  0  0  0  0  0  0  0  0  0
   -5.4448    4.8382    1.5850 H   0  0  0  0  0  0  0  0  0  0  0  0
   -5.7500    3.1754   -1.0238 H   0  0  0  0  0  0  0  0  0  0  0  0
   -4.0251    2.7886   -1.2029 H   0  0  0  0  0  0  0  0  0  0  0  0
   -4.5156    4.4085   -0.7097 H   0  0  0  0  0  0  0  0  0  0  0  0
   -1.4313    0.2924    2.6533 H   0  0  0  0  0  0  0  0  0  0  0  0
   -3.0082    0.9886    2.9882 H   0  0  0  0  0  0  0  0  0  0  0  0
   -1.8381    1.8769    1.9893 H   0  0  0  0  0  0  0  0  0  0  0  0
  1  2  2  0
  2  3  1  0
  3  4  1  0
  4  5  1  0
  5  6  2  0
  5  7  1  0
  7  8  1  0
  8  9  2  0
  8 10  1  0
 10 11  1  0
 11 12  1  0
 12 13  2  0
 12 14  1  0
 14 15  1  0
 15 16  3  0
 14 17  2  3
 17 18  1  0
 18 19  1  0
 19 20  2  0
 20 21  1  0
 20 22  1  0
 22 23  1  0
 23 24  1  0
 24 25  1  0
 24 26  1  0
 22 27  1  0
 27 28  1  0
 27 18  2  0
  1 29  1  0
  1 30  1  0
  2 31  1  0
  3 32  1  0
  3 33  1  0
  4 34  1  0
  7 35  1  0
 10 36  1  0
 10 37  1  0
 17 38  1  0
 19 39  1  0
 21 40  1  0
 21 41  1  0
 21 42  1  0
 23 43  1  0
 23 44  1  0
 24 45  1  0
 25 46  1  0
 25 47  1  0
 25 48  1  0
 26 49  1  0
 26 50  1  0
 26 51  1  0
 28 52  1  0
 28 53  1  0
 28 54  1  0
M  END
$$$$
