
     RDKit          3D

 33 34  0  0  0  0  0  0  0  0999 V2000
    7.4453   -0.4581   -0.1221 C   0  0  0  0  0  0  0  0  0  0  0  0
    6.5617   -0.3675    1.1138 C   0  0  0  0  0  0  0  0  0  0  0  0
    5.0665   -0.4178    0.8024 C   0  0  0  0  0  0  0  0  0  0  0  0
    4.4769    1.1029   -0.0123 S   0  0  0  0  0  0  0  0  0  0  0  0
    2.7719    0.7351   -0.1387 C   0  0  0  0  0  0  0  0  0  0  0  0
    2.3138   -0.4965   -0.2041 N   0  0  0  0  0  0  0  0  0  0  0  0
    0.9338   -0.5346   -0.2739 N   0  0  0  0  0  0  0  0  0  0  0  0
    0.4178    0.6710   -0.2565 C   0  0  0  0  0  0  0  0  0  0  0  0
   -0.8895    1.0763   -0.2513 N   0  0  0  0  0  0  0  0  0  0  0  0
   -1.9255    0.1857   -0.4569 C   0  0  0  0  0  0  0  0  0  0  0  0
   -1.7832   -0.9818   -0.7862 O   0  0  0  0  0  0  0  0  0  0  0  0
   -3.1475    0.8117   -0.2391 N   0  0  0  0  0  0  0  0  0  0  0  0
   -4.4334    0.2696   -0.4464 C   0  0  0  0  0  0  0  0  0  0  0  0
   -4.6705   -0.9331   -1.1156 C   0  0  0  0  0  0  0  0  0  0  0  0
   -5.9764   -1.4002   -1.2940 C   0  0  0  0  0  0  0  0  0  0  0  0
   -7.0565   -0.6721   -0.7958 C   0  0  0  0  0  0  0  0  0  0  0  0
   -6.8318    0.5315   -0.1339 C   0  0  0  0  0  0  0  0  0  0  0  0
   -5.5266    1.0037    0.0313 C   0  0  0  0  0  0  0  0  0  0  0  0
    1.5561    1.9451   -0.1790 S   0  0  0  0  0  0  0  0  0  0  0  0
    7.2888    0.3872   -0.7996 H   0  0  0  0  0  0  0  0  0  0  0  0
    8.5012   -0.4657    0.1695 H   0  0  0  0  0  0  0  0  0  0  0  0
    7.2493   -1.3835   -0.6757 H   0  0  0  0  0  0  0  0  0  0  0  0
    6.8091    0.5375    1.6846 H   0  0  0  0  0  0  0  0  0  0  0  0
    6.8029   -1.2191    1.7613 H   0  0  0  0  0  0  0  0  0  0  0  0
    4.5133   -0.5281    1.7440 H   0  0  0  0  0  0  0  0  0  0  0  0
    4.8460   -1.2887    0.1769 H   0  0  0  0  0  0  0  0  0  0  0  0
   -1.0650    2.0688   -0.2537 H   0  0  0  0  0  0  0  0  0  0  0  0
   -3.1172    1.6713    0.2953 H   0  0  0  0  0  0  0  0  0  0  0  0
   -3.8614   -1.5273   -1.5258 H   0  0  0  0  0  0  0  0  0  0  0  0
   -6.1462   -2.3352   -1.8237 H   0  0  0  0  0  0  0  0  0  0  0  0
   -8.0693   -1.0400   -0.9328 H   0  0  0  0  0  0  0  0  0  0  0  0
   -7.6716    1.0995    0.2526 H   0  0  0  0  0  0  0  0  0  0  0  0
   -5.3826    1.9523    0.5388 H   0  0  0  0  0  0  0  0  0  0  0  0
  1  2  1  0
  2  3  1  0
  3  4  1  0
  4  5  1  0
  5  6  2  0
  6  7  1  0
  7  8  2  0
  8  9  1  0
  9 10  1  0
 10 11  2  0
 10 12  1  0
 12 13  1  0
 13 14  2  0
 14 15  1  0
 15 16  2  0
 16 17  1  0
 17 18  2  0
  8 19  1  0
 19  5  1  0
 18 13  1  0
  1 20  1  0
  1 21  1  0
  1 22  1  0
  2 23  1  0
  2 24  1  0
  3 25  1  0
  3 26  1  0
  9 27  1  0
 12 28  1  0
 14 29  1  0
 15 30  1  0
 16 31  1  0
 17 32  1  0
 18 33  1  0
M  END
$$$$
