
     RDKit          3D

 57 58  0  0  0  0  0  0  0  0999 V2000
    7.7612    0.0846    0.2906 C   0  0  0  0  0  0  0  0  0  0  0  0
    6.8511    1.2537    0.0328 C   0  0  0  0  0  0  0  0  0  0  0  0
    7.3854    2.5496   -0.0327 C   0  0  0  0  0  0  0  0  0  0  0  0
    6.5581    3.6451   -0.2728 C   0  0  0  0  0  0  0  0  0  0  0  0
    5.1912    3.4550   -0.4504 C   0  0  0  0  0  0  0  0  0  0  0  0
    4.6469    2.1697   -0.3883 C   0  0  0  0  0  0  0  0  0  0  0  0
    5.4684    1.0636   -0.1468 C   0  0  0  0  0  0  0  0  0  0  0  0
    5.0338   -0.2345   -0.0699 O   0  0  0  0  0  0  0  0  0  0  0  0
    3.6320   -0.4669   -0.2045 C   0  0  0  0  0  0  0  0  0  0  0  0
    3.3929   -1.9592   -0.0678 C   0  0  0  0  0  0  0  0  0  0  0  0
    1.9219   -2.2332   -0.1287 C   0  0  0  0  0  0  0  0  0  0  0  0
    1.2070   -2.4071    0.8499 O   0  0  0  0  0  0  0  0  0  0  0  0
    1.4830   -2.2157   -1.4175 O   0  0  0  0  0  0  0  0  0  0  0  0
    0.0579   -2.3005   -1.5444 C   0  0  0  0  0  0  0  0  0  0  0  0
   -0.6313   -1.0388   -1.0124 C   0  0  0  0  0  0  0  0  0  0  0  0
   -0.0025    0.0212   -0.9023 O   0  0  0  0  0  0  0  0  0  0  0  0
   -2.0615   -1.1399   -0.5591 C   0  0  0  0  0  0  0  0  0  0  0  0
   -2.5676   -0.2738    0.3499 C   0  0  0  0  0  0  0  0  0  0  0  0
   -1.8200    0.7828    0.8591 N   0  0  0  0  0  0  0  0  0  0  0  0
   -3.8833   -0.4353    0.7888 N   0  0  0  0  0  0  0  0  0  0  0  0
   -4.5217    0.5939    1.6335 C   0  0  0  0  0  0  0  0  0  0  0  0
   -5.2644    1.7227    0.8771 C   0  0  0  0  0  0  0  0  0  0  0  0
   -6.4177    1.2169    0.0109 C   0  0  0  0  0  0  0  0  0  0  0  0
   -4.3377    2.6094    0.0465 C   0  0  0  0  0  0  0  0  0  0  0  0
   -4.6673   -1.5435    0.4607 C   0  0  0  0  0  0  0  0  0  0  0  0
   -5.8110   -1.6999    0.8931 O   0  0  0  0  0  0  0  0  0  0  0  0
   -4.0962   -2.4592   -0.4029 N   0  0  0  0  0  0  0  0  0  0  0  0
   -4.9146   -3.5809   -0.8257 C   0  0  0  0  0  0  0  0  0  0  0  0
   -2.9281   -2.2161   -1.0819 C   0  0  0  0  0  0  0  0  0  0  0  0
   -2.5864   -2.8453   -2.0825 O   0  0  0  0  0  0  0  0  0  0  0  0
    7.4563   -0.4402    1.2018 H   0  0  0  0  0  0  0  0  0  0  0  0
    7.7351   -0.6095   -0.5556 H   0  0  0  0  0  0  0  0  0  0  0  0
    8.7994    0.4054    0.4257 H   0  0  0  0  0  0  0  0  0  0  0  0
    8.4522    2.7119    0.1031 H   0  0  0  0  0  0  0  0  0  0  0  0
    6.9805    4.6453   -0.3222 H   0  0  0  0  0  0  0  0  0  0  0  0
    4.5447    4.3081   -0.6396 H   0  0  0  0  0  0  0  0  0  0  0  0
    3.5766    2.0689   -0.5359 H   0  0  0  0  0  0  0  0  0  0  0  0
    3.0828    0.0678    0.5809 H   0  0  0  0  0  0  0  0  0  0  0  0
    3.2862   -0.1266   -1.1885 H   0  0  0  0  0  0  0  0  0  0  0  0
    3.7868   -2.3338    0.8840 H   0  0  0  0  0  0  0  0  0  0  0  0
    3.9137   -2.5251   -0.8486 H   0  0  0  0  0  0  0  0  0  0  0  0
   -0.1588   -2.3857   -2.6132 H   0  0  0  0  0  0  0  0  0  0  0  0
   -0.2951   -3.2009   -1.0307 H   0  0  0  0  0  0  0  0  0  0  0  0
   -0.8716    0.8230    0.4636 H   0  0  0  0  0  0  0  0  0  0  0  0
   -1.7565    0.7436    1.8733 H   0  0  0  0  0  0  0  0  0  0  0  0
   -3.7854    1.0302    2.3176 H   0  0  0  0  0  0  0  0  0  0  0  0
   -5.2442    0.0989    2.2956 H   0  0  0  0  0  0  0  0  0  0  0  0
   -5.7071    2.3667    1.6494 H   0  0  0  0  0  0  0  0  0  0  0  0
   -7.1194    0.6212    0.6031 H   0  0  0  0  0  0  0  0  0  0  0  0
   -6.0605    0.6082   -0.8257 H   0  0  0  0  0  0  0  0  0  0  0  0
   -6.9789    2.0583   -0.4106 H   0  0  0  0  0  0  0  0  0  0  0  0
   -3.9016    2.0647   -0.7966 H   0  0  0  0  0  0  0  0  0  0  0  0
   -3.5277    3.0135    0.6616 H   0  0  0  0  0  0  0  0  0  0  0  0
   -4.8903    3.4614   -0.3651 H   0  0  0  0  0  0  0  0  0  0  0  0
   -5.4881   -3.9768    0.0182 H   0  0  0  0  0  0  0  0  0  0  0  0
   -5.6108   -3.2324   -1.5953 H   0  0  0  0  0  0  0  0  0  0  0  0
   -4.2978   -4.3844   -1.2392 H   0  0  0  0  0  0  0  0  0  0  0  0
  1  2  1  0
  2  3  2  0
  3  4  1  0
  4  5  2  0
  5  6  1  0
  6  7  2  0
  7  8  1  0
  8  9  1  0
  9 10  1  0
 10 11  1  0
 11 12  2  0
 11 13  1  0
 13 14  1  0
 14 15  1  0
 15 16  2  0
 15 17  1  0
 17 18  2  0
 18 19  1  0
 18 20  1  0
 20 21  1  0
 21 22  1  0
 22 23  1  0
 22 24  1  0
 20 25  1  0
 25 26  2  0
 25 27  1  0
 27 28  1  0
 27 29  1  0
 29 30  2  0
  7  2  1  0
 29 17  1  0
  1 31  1  0
  1 32  1  0
  1 33  1  0
  3 34  1  0
  4 35  1  0
  5 36  1  0
  6 37  1  0
  9 38  1  0
  9 39  1  0
 10 40  1  0
 10 41  1  0
 14 42  1  0
 14 43  1  0
 19 44  1  0
 19 45  1  0
 21 46  1  0
 21 47  1  0
 22 48  1  0
 23 49  1  0
 23 50  1  0
 23 51  1  0
 24 52  1  0
 24 53  1  0
 24 54  1  0
 28 55  1  0
 28 56  1  0
 28 57  1  0
M  END
$$$$
