
     RDKit          3D

 45 48  0  0  0  0  0  0  0  0999 V2000
   -3.3560   -2.7646   -1.0699 C   0  0  0  0  0  0  0  0  0  0  0  0
   -3.1863   -1.3882   -0.5336 C   0  0  0  0  0  0  0  0  0  0  0  0
   -4.1279   -0.3656   -0.5578 C   0  0  0  0  0  0  0  0  0  0  0  0
   -5.3653   -0.3102   -1.0346 O   0  0  0  0  0  0  0  0  0  0  0  0
   -3.5681    0.7236    0.0398 N   0  0  0  0  0  0  0  0  0  0  0  0
   -2.2872    0.4450    0.4382 C   0  0  0  0  0  0  0  0  0  0  0  0
   -1.4208    1.3262    1.0880 C   0  0  0  0  0  0  0  0  0  0  0  0
   -0.1498    0.8330    1.3814 C   0  0  0  0  0  0  0  0  0  0  0  0
    0.1851   -0.4873    1.0444 C   0  0  0  0  0  0  0  0  0  0  0  0
    1.8159   -1.0716    1.4383 S   0  0  0  0  0  6  0  0  0  0  0  0
    1.9215   -2.4600    1.0387 O   0  0  0  0  0  0  0  0  0  0  0  0
    2.1029   -0.6610    2.7967 O   0  0  0  0  0  0  0  0  0  0  0  0
    2.8099   -0.1624    0.3818 N   0  0  0  0  0  0  0  0  0  0  0  0
    2.5182   -0.3316   -1.0703 C   0  0  0  0  0  0  0  0  0  0  0  0
    3.6068    0.3239   -1.9113 C   0  0  0  0  0  0  0  0  0  0  0  0
    4.9619   -0.3426   -1.6849 C   0  0  0  0  0  0  0  0  0  0  0  0
    5.0752   -0.9650   -0.2953 C   0  0  0  0  0  0  0  0  0  0  0  0
    4.2607   -0.1931    0.7335 C   0  0  0  0  0  0  0  0  0  0  0  0
   -0.7259   -1.3577    0.4139 C   0  0  0  0  0  0  0  0  0  0  0  0
   -2.0053   -0.8647    0.0962 C   0  0  0  0  0  0  0  0  0  0  0  0
   -1.8948    2.7233    1.3653 C   0  0  0  0  0  0  0  0  0  0  0  0
   -3.4391    2.7645    1.4404 C   0  0  0  0  0  0  0  0  0  0  0  0
   -4.1297    2.0464    0.2610 C   0  0  0  0  0  0  0  0  0  0  0  0
   -2.6147   -3.4527   -0.6524 H   0  0  0  0  0  0  0  0  0  0  0  0
   -4.3478   -3.1577   -0.8237 H   0  0  0  0  0  0  0  0  0  0  0  0
   -3.2457   -2.7613   -2.1589 H   0  0  0  0  0  0  0  0  0  0  0  0
   -5.5697   -1.1838   -1.4107 H   0  0  0  0  0  0  0  0  0  0  0  0
    0.5827    1.4703    1.8734 H   0  0  0  0  0  0  0  0  0  0  0  0
    2.4357   -1.3929   -1.3299 H   0  0  0  0  0  0  0  0  0  0  0  0
    1.5648    0.1547   -1.3007 H   0  0  0  0  0  0  0  0  0  0  0  0
    3.3469    0.2798   -2.9748 H   0  0  0  0  0  0  0  0  0  0  0  0
    3.6787    1.3871   -1.6482 H   0  0  0  0  0  0  0  0  0  0  0  0
    5.7536    0.4020   -1.8305 H   0  0  0  0  0  0  0  0  0  0  0  0
    5.1288   -1.1220   -2.4379 H   0  0  0  0  0  0  0  0  0  0  0  0
    4.7212   -2.0031   -0.3337 H   0  0  0  0  0  0  0  0  0  0  0  0
    6.1284   -1.0045    0.0047 H   0  0  0  0  0  0  0  0  0  0  0  0
    4.6108    0.8441    0.7992 H   0  0  0  0  0  0  0  0  0  0  0  0
    4.4226   -0.6351    1.7221 H   0  0  0  0  0  0  0  0  0  0  0  0
   -0.4507   -2.3798    0.1724 H   0  0  0  0  0  0  0  0  0  0  0  0
   -1.4778    3.0856    2.3115 H   0  0  0  0  0  0  0  0  0  0  0  0
   -1.5436    3.3823    0.5629 H   0  0  0  0  0  0  0  0  0  0  0  0
   -3.7803    3.8044    1.4930 H   0  0  0  0  0  0  0  0  0  0  0  0
   -3.7547    2.2786    2.3739 H   0  0  0  0  0  0  0  0  0  0  0  0
   -5.2009    1.9369    0.4581 H   0  0  0  0  0  0  0  0  0  0  0  0
   -3.9901    2.6067   -0.6700 H   0  0  0  0  0  0  0  0  0  0  0  0
  1  2  1  0
  2  3  2  0
  3  4  1  0
  3  5  1  0
  5  6  1  0
  6  7  2  0
  7  8  1  0
  8  9  2  0
  9 10  1  0
 10 11  2  0
 10 12  2  0
 10 13  1  0
 13 14  1  0
 14 15  1  0
 15 16  1  0
 16 17  1  0
 17 18  1  0
  9 19  1  0
 19 20  2  0
  7 21  1  0
 21 22  1  0
 22 23  1  0
 20  2  1  0
 23  5  1  0
 20  6  1  0
 18 13  1  0
  1 24  1  0
  1 25  1  0
  1 26  1  0
  4 27  1  0
  8 28  1  0
 14 29  1  0
 14 30  1  0
 15 31  1  0
 15 32  1  0
 16 33  1  0
 16 34  1  0
 17 35  1  0
 17 36  1  0
 18 37  1  0
 18 38  1  0
 19 39  1  0
 21 40  1  0
 21 41  1  0
 22 42  1  0
 22 43  1  0
 23 44  1  0
 23 45  1  0
M  END
$$$$
