
     RDKit          3D

 56 60  0  0  0  0  0  0  0  0999 V2000
    7.7142   -0.5422   -1.9948 C   0  0  0  0  0  0  0  0  0  0  0  0
    6.2330   -0.4697   -2.0142 C   0  0  0  0  0  0  0  0  0  0  0  0
    5.5027   -1.5809   -1.8564 N   0  0  0  0  0  0  0  0  0  0  0  0
    4.2209   -1.1517   -1.9087 N   0  0  0  0  0  0  0  0  0  0  0  0
    3.1484   -2.1332   -1.7739 C   0  0  0  0  0  0  0  0  0  0  0  0
    2.5333   -2.1145   -0.3950 C   0  0  0  0  0  0  0  0  0  0  0  0
    3.2783   -2.5305    0.7201 C   0  0  0  0  0  0  0  0  0  0  0  0
    2.7087   -2.5444    1.9941 C   0  0  0  0  0  0  0  0  0  0  0  0
    1.3884   -2.1343    2.1725 C   0  0  0  0  0  0  0  0  0  0  0  0
    0.6379   -1.6976    1.0765 C   0  0  0  0  0  0  0  0  0  0  0  0
   -0.7659   -1.2591    1.3041 C   0  0  0  0  0  0  0  0  0  0  0  0
   -1.4292   -1.7857    2.1873 O   0  0  0  0  0  0  0  0  0  0  0  0
   -1.2046   -0.2317    0.4924 N   0  0  0  0  0  0  0  0  0  0  0  0
   -2.5168    0.4147    0.6137 C   0  0  0  0  0  0  0  0  0  0  0  0
   -2.6756    1.1304    1.9774 C   0  0  0  0  0  0  0  0  0  0  0  0
   -4.0344    1.8486    2.0559 C   0  0  0  0  0  0  0  0  0  0  0  0
   -5.1633    0.8190    1.8774 C   0  0  0  0  0  0  0  0  0  0  0  0
   -5.0383    0.1274    0.5090 C   0  0  0  0  0  0  0  0  0  0  0  0
   -5.1205    1.1843   -0.6031 C   0  0  0  0  0  0  0  0  0  0  0  0
   -3.9891    2.2099   -0.4354 C   0  0  0  0  0  0  0  0  0  0  0  0
   -4.1217    2.8954    0.9337 C   0  0  0  0  0  0  0  0  0  0  0  0
   -2.6364    1.4839   -0.5066 C   0  0  0  0  0  0  0  0  0  0  0  0
   -3.6803   -0.5925    0.4284 C   0  0  0  0  0  0  0  0  0  0  0  0
    1.2039   -1.7033   -0.2069 C   0  0  0  0  0  0  0  0  0  0  0  0
    4.1072    0.2029   -2.1290 C   0  0  0  0  0  0  0  0  0  0  0  0
    2.8122    0.9161   -2.2399 C   0  0  0  0  0  0  0  0  0  0  0  0
    5.4048    0.6562   -2.1852 C   0  0  0  0  0  0  0  0  0  0  0  0
    6.0037    2.4133   -2.4360 Br  0  0  0  0  0  0  0  0  0  0  0  0
    8.0649   -1.5699   -1.8523 H   0  0  0  0  0  0  0  0  0  0  0  0
    8.1166    0.0658   -1.1781 H   0  0  0  0  0  0  0  0  0  0  0  0
    8.1287   -0.1747   -2.9390 H   0  0  0  0  0  0  0  0  0  0  0  0
    3.5623   -3.1259   -1.9879 H   0  0  0  0  0  0  0  0  0  0  0  0
    2.4091   -1.9203   -2.5535 H   0  0  0  0  0  0  0  0  0  0  0  0
    4.3127   -2.8533    0.5980 H   0  0  0  0  0  0  0  0  0  0  0  0
    3.2943   -2.8780    2.8477 H   0  0  0  0  0  0  0  0  0  0  0  0
    0.9454   -2.1517    3.1663 H   0  0  0  0  0  0  0  0  0  0  0  0
   -0.4900    0.2927    0.0064 H   0  0  0  0  0  0  0  0  0  0  0  0
   -1.8622    1.8538    2.1209 H   0  0  0  0  0  0  0  0  0  0  0  0
   -2.5992    0.4152    2.8052 H   0  0  0  0  0  0  0  0  0  0  0  0
   -4.1348    2.3419    3.0292 H   0  0  0  0  0  0  0  0  0  0  0  0
   -5.1200    0.0726    2.6801 H   0  0  0  0  0  0  0  0  0  0  0  0
   -6.1381    1.3159    1.9572 H   0  0  0  0  0  0  0  0  0  0  0  0
   -5.8488   -0.5998    0.3872 H   0  0  0  0  0  0  0  0  0  0  0  0
   -5.0469    0.7016   -1.5853 H   0  0  0  0  0  0  0  0  0  0  0  0
   -6.0933    1.6899   -0.5689 H   0  0  0  0  0  0  0  0  0  0  0  0
   -4.0491    2.9600   -1.2318 H   0  0  0  0  0  0  0  0  0  0  0  0
   -5.0774    3.4305    0.9939 H   0  0  0  0  0  0  0  0  0  0  0  0
   -3.3295    3.6440    1.0569 H   0  0  0  0  0  0  0  0  0  0  0  0
   -2.5191    1.0126   -1.4917 H   0  0  0  0  0  0  0  0  0  0  0  0
   -1.8217    2.2154   -0.4190 H   0  0  0  0  0  0  0  0  0  0  0  0
   -3.5851   -1.1048   -0.5379 H   0  0  0  0  0  0  0  0  0  0  0  0
   -3.6510   -1.3757    1.1944 H   0  0  0  0  0  0  0  0  0  0  0  0
    0.6019   -1.4131   -1.0646 H   0  0  0  0  0  0  0  0  0  0  0  0
    2.3445    1.0153   -1.2554 H   0  0  0  0  0  0  0  0  0  0  0  0
    2.9427    1.9226   -2.6492 H   0  0  0  0  0  0  0  0  0  0  0  0
    2.1217    0.3863   -2.9032 H   0  0  0  0  0  0  0  0  0  0  0  0
  1  2  1  0
  2  3  2  0
  3  4  1  0
  4  5  1  0
  5  6  1  0
  6  7  2  0
  7  8  1  0
  8  9  2  0
  9 10  1  0
 10 11  1  0
 11 12  2  0
 11 13  1  0
 13 14  1  0
 14 15  1  0
 15 16  1  0
 16 17  1  0
 17 18  1  0
 18 19  1  0
 19 20  1  0
 20 21  1  0
 20 22  1  0
 18 23  1  0
 10 24  2  0
  4 25  1  0
 25 26  1  0
 25 27  2  0
 27 28  1  0
 27  2  1  0
 24  6  1  0
 22 14  1  0
 23 14  1  0
 21 16  1  0
  1 29  1  0
  1 30  1  0
  1 31  1  0
  5 32  1  0
  5 33  1  0
  7 34  1  0
  8 35  1  0
  9 36  1  0
 13 37  1  0
 15 38  1  0
 15 39  1  0
 16 40  1  0
 17 41  1  0
 17 42  1  0
 18 43  1  0
 19 44  1  0
 19 45  1  0
 20 46  1  0
 21 47  1  0
 21 48  1  0
 22 49  1  0
 22 50  1  0
 23 51  1  0
 23 52  1  0
 24 53  1  0
 26 54  1  0
 26 55  1  0
 26 56  1  0
M  END
$$$$
