
     RDKit          3D

 42 43  0  0  0  0  0  0  0  0999 V2000
   -3.8687   -0.0465    4.8686 C   0  0  0  0  0  0  0  0  0  0  0  0
   -3.6029   -1.2399    3.9476 C   0  0  0  0  0  0  0  0  0  0  0  0
   -4.9015   -1.9879    3.6356 C   0  0  0  0  0  0  0  0  0  0  0  0
   -2.8843   -0.8166    2.6791 C   0  0  0  0  0  0  0  0  0  0  0  0
   -3.4637    0.0731    1.7653 C   0  0  0  0  0  0  0  0  0  0  0  0
   -2.7802    0.4456    0.6049 C   0  0  0  0  0  0  0  0  0  0  0  0
   -1.5083   -0.0591    0.3321 C   0  0  0  0  0  0  0  0  0  0  0  0
   -0.9565    0.3885   -0.8352 O   0  0  0  0  0  0  0  0  0  0  0  0
    0.3443   -0.0763   -1.1583 C   0  0  0  0  0  0  0  0  0  0  0  0
    0.8347    0.5088   -2.4868 C   0  0  0  0  0  0  0  0  0  0  0  0
    0.1542    1.2169   -3.2223 O   0  0  0  0  0  0  0  0  0  0  0  0
    2.1393    0.1480   -2.7912 N   0  0  0  0  0  0  0  0  0  0  0  0
    2.8107    0.6872   -3.9646 C   0  0  0  0  0  0  0  0  0  0  0  0
    4.0541   -0.1236   -4.3171 C   0  0  0  0  0  0  0  0  0  0  0  0
    5.1549    0.4222   -3.4091 C   0  0  0  0  0  0  0  0  0  0  0  0
    4.6984    1.8134   -2.9695 C   0  0  0  0  0  0  0  0  0  0  0  0
    3.3862    2.0770   -3.7021 C   0  0  0  0  0  0  0  0  0  0  0  0
   -0.9229   -0.9458    1.2341 C   0  0  0  0  0  0  0  0  0  0  0  0
   -1.6063   -1.3205    2.3977 C   0  0  0  0  0  0  0  0  0  0  0  0
   -4.5580    0.6749    4.4164 H   0  0  0  0  0  0  0  0  0  0  0  0
   -4.3107   -0.3807    5.8136 H   0  0  0  0  0  0  0  0  0  0  0  0
   -2.9380    0.4824    5.1025 H   0  0  0  0  0  0  0  0  0  0  0  0
   -2.9560   -1.9346    4.4998 H   0  0  0  0  0  0  0  0  0  0  0  0
   -5.6332   -1.3466    3.1323 H   0  0  0  0  0  0  0  0  0  0  0  0
   -5.3630   -2.3584    4.5574 H   0  0  0  0  0  0  0  0  0  0  0  0
   -4.7105   -2.8497    2.9865 H   0  0  0  0  0  0  0  0  0  0  0  0
   -4.4533    0.4869    1.9442 H   0  0  0  0  0  0  0  0  0  0  0  0
   -3.2447    1.1370   -0.0946 H   0  0  0  0  0  0  0  0  0  0  0  0
    1.0560    0.2308   -0.3821 H   0  0  0  0  0  0  0  0  0  0  0  0
    0.3402   -1.1675   -1.2689 H   0  0  0  0  0  0  0  0  0  0  0  0
    2.7082   -0.2601   -2.0609 H   0  0  0  0  0  0  0  0  0  0  0  0
    2.0960    0.7042   -4.7945 H   0  0  0  0  0  0  0  0  0  0  0  0
    3.9184   -1.2026   -4.1920 H   0  0  0  0  0  0  0  0  0  0  0  0
    4.3289    0.0611   -5.3630 H   0  0  0  0  0  0  0  0  0  0  0  0
    6.1151    0.4587   -3.9341 H   0  0  0  0  0  0  0  0  0  0  0  0
    5.2866   -0.2220   -2.5322 H   0  0  0  0  0  0  0  0  0  0  0  0
    5.4461    2.5799   -3.1966 H   0  0  0  0  0  0  0  0  0  0  0  0
    4.5367    1.8243   -1.8853 H   0  0  0  0  0  0  0  0  0  0  0  0
    2.7212    2.7267   -3.1247 H   0  0  0  0  0  0  0  0  0  0  0  0
    3.5990    2.5743   -4.6565 H   0  0  0  0  0  0  0  0  0  0  0  0
    0.0615   -1.3685    1.0678 H   0  0  0  0  0  0  0  0  0  0  0  0
   -1.1279   -2.0146    3.0857 H   0  0  0  0  0  0  0  0  0  0  0  0
  1  2  1  0
  2  3  1  0
  2  4  1  0
  4  5  2  0
  5  6  1  0
  6  7  2  0
  7  8  1  0
  8  9  1  0
  9 10  1  0
 10 11  2  0
 10 12  1  0
 12 13  1  0
 13 14  1  0
 14 15  1  0
 15 16  1  0
 16 17  1  0
  7 18  1  0
 18 19  2  0
 19  4  1  0
 17 13  1  0
  1 20  1  0
  1 21  1  0
  1 22  1  0
  2 23  1  0
  3 24  1  0
  3 25  1  0
  3 26  1  0
  5 27  1  0
  6 28  1  0
  9 29  1  0
  9 30  1  0
 12 31  1  0
 13 32  1  0
 14 33  1  0
 14 34  1  0
 15 35  1  0
 15 36  1  0
 16 37  1  0
 16 38  1  0
 17 39  1  0
 17 40  1  0
 18 41  1  0
 19 42  1  0
M  END
$$$$
