
     RDKit          3D

 40 42  0  0  0  0  0  0  0  0999 V2000
    6.1756    0.8680    0.2398 C   0  0  0  0  0  0  0  0  0  0  0  0
    5.4457   -0.4663    0.2285 C   0  0  0  0  0  0  0  0  0  0  0  0
    3.9516   -0.2873    0.1338 C   0  0  0  0  0  0  0  0  0  0  0  0
    3.1774   -0.1596    1.2931 C   0  0  0  0  0  0  0  0  0  0  0  0
    1.7952    0.0233    1.2050 C   0  0  0  0  0  0  0  0  0  0  0  0
    1.1687    0.0837   -0.0449 C   0  0  0  0  0  0  0  0  0  0  0  0
   -0.2991    0.2769   -0.1049 C   0  0  0  0  0  0  0  0  0  0  0  0
   -1.0178    0.5639    0.9391 N   0  0  0  0  0  0  0  0  0  0  0  0
   -2.4461    0.6373    0.4613 N   0  0  0  0  0  0  0  0  0  0  0  0
   -3.2744    2.1092    0.7230 S   0  0  0  0  0  6  0  0  0  0  0  0
   -3.1059    2.2930    2.4846 C   0  0  0  0  0  0  0  0  0  0  0  0
   -2.5323    3.1636    0.0600 O   0  0  0  0  0  0  0  0  0  0  0  0
   -4.6740    1.8934    0.4138 O   0  0  0  0  0  0  0  0  0  0  0  0
   -2.5087    0.1601   -0.9439 C   0  0  0  0  0  0  0  0  0  0  0  0
   -3.1590   -1.2044   -0.9601 C   0  0  0  0  0  0  0  0  0  0  0  0
   -4.4473   -1.4998   -1.3733 C   0  0  0  0  0  0  0  0  0  0  0  0
   -4.7609   -2.8840   -1.2554 C   0  0  0  0  0  0  0  0  0  0  0  0
   -3.7078   -3.6072   -0.7454 C   0  0  0  0  0  0  0  0  0  0  0  0
   -2.3562   -2.6199   -0.4064 S   0  0  0  0  0  0  0  0  0  0  0  0
   -1.0549    0.1937   -1.4079 C   0  0  0  0  0  0  0  0  0  0  0  0
    1.9384   -0.0339   -1.2063 C   0  0  0  0  0  0  0  0  0  0  0  0
    3.3219   -0.2164   -1.1152 C   0  0  0  0  0  0  0  0  0  0  0  0
    7.2561    0.7077    0.3091 H   0  0  0  0  0  0  0  0  0  0  0  0
    5.8682    1.4818    1.0933 H   0  0  0  0  0  0  0  0  0  0  0  0
    5.9750    1.4385   -0.6734 H   0  0  0  0  0  0  0  0  0  0  0  0
    5.7982   -1.0747   -0.6133 H   0  0  0  0  0  0  0  0  0  0  0  0
    5.6927   -1.0318    1.1353 H   0  0  0  0  0  0  0  0  0  0  0  0
    3.6455   -0.2009    2.2745 H   0  0  0  0  0  0  0  0  0  0  0  0
    1.2148    0.1157    2.1206 H   0  0  0  0  0  0  0  0  0  0  0  0
   -2.0507    2.4073    2.7372 H   0  0  0  0  0  0  0  0  0  0  0  0
   -3.6538    3.1905    2.7806 H   0  0  0  0  0  0  0  0  0  0  0  0
   -3.5380    1.4185    2.9743 H   0  0  0  0  0  0  0  0  0  0  0  0
   -3.0975    0.8278   -1.5848 H   0  0  0  0  0  0  0  0  0  0  0  0
   -5.1409   -0.7486   -1.7351 H   0  0  0  0  0  0  0  0  0  0  0  0
   -5.7141   -3.3239   -1.5219 H   0  0  0  0  0  0  0  0  0  0  0  0
   -3.6692   -4.6691   -0.5450 H   0  0  0  0  0  0  0  0  0  0  0  0
   -0.8553    1.1162   -1.9657 H   0  0  0  0  0  0  0  0  0  0  0  0
   -0.7607   -0.6642   -2.0171 H   0  0  0  0  0  0  0  0  0  0  0  0
    1.4913    0.0221   -2.1941 H   0  0  0  0  0  0  0  0  0  0  0  0
    3.9083   -0.3003   -2.0282 H   0  0  0  0  0  0  0  0  0  0  0  0
  1  2  1  0
  2  3  1  0
  3  4  2  0
  4  5  1  0
  5  6  2  0
  6  7  1  0
  7  8  2  0
  8  9  1  0
  9 10  1  0
 10 11  1  0
 10 12  2  0
 10 13  2  0
  9 14  1  0
 14 15  1  0
 15 16  2  0
 16 17  1  0
 17 18  2  0
 18 19  1  0
 14 20  1  0
  6 21  1  0
 21 22  2  0
 22  3  1  0
 20  7  1  0
 19 15  1  0
  1 23  1  0
  1 24  1  0
  1 25  1  0
  2 26  1  0
  2 27  1  0
  4 28  1  0
  5 29  1  0
 11 30  1  0
 11 31  1  0
 11 32  1  0
 14 33  1  0
 16 34  1  0
 17 35  1  0
 18 36  1  0
 20 37  1  0
 20 38  1  0
 21 39  1  0
 22 40  1  0
M  END
$$$$
