
     RDKit          3D

 95 98  0  0  0  0  0  0  0  0999 V2000
   -6.5663    0.2789    3.6000 C   0  0  0  0  0  0  0  0  0  0  0  0
   -5.3471    0.0401    3.0952 C   0  0  0  0  0  0  0  0  0  0  0  0
   -5.0540    0.0124    1.6254 C   0  0  0  0  0  0  0  0  0  0  0  0
   -5.0613   -1.3827    0.9849 C   0  0  0  0  0  0  0  0  0  0  0  0
   -3.8017   -2.2554    1.1642 C   0  0  0  0  0  0  0  0  0  0  0  0
   -3.6101   -2.8534    2.5709 C   0  0  0  0  0  0  0  0  0  0  0  0
   -4.6695   -3.8570    2.9718 C   0  0  0  0  0  0  0  0  0  0  0  0
   -5.6279   -3.5382    3.9471 C   0  0  0  0  0  0  0  0  0  0  0  0
   -6.5973   -4.4706    4.3199 C   0  0  0  0  0  0  0  0  0  0  0  0
   -6.6054   -5.7263    3.7229 C   0  0  0  0  0  0  0  0  0  0  0  0
   -7.5374   -6.6205    4.0769 F   0  0  0  0  0  0  0  0  0  0  0  0
   -5.6629   -6.0660    2.7613 C   0  0  0  0  0  0  0  0  0  0  0  0
   -4.6957   -5.1318    2.3855 C   0  0  0  0  0  0  0  0  0  0  0  0
   -2.5327   -1.5323    0.7305 C   0  0  0  0  0  0  0  0  0  0  0  0
   -1.5272   -1.4131    1.4171 O   0  0  0  0  0  0  0  0  0  0  0  0
   -2.6514   -1.0785   -0.5475 O   0  0  0  0  0  0  0  0  0  0  0  0
   -1.4528   -0.5542   -1.1525 C   0  0  0  0  0  0  0  0  0  0  0  0
   -1.0613    0.8463   -0.6403 C   0  0  0  0  0  0  0  0  0  0  0  0
   -2.1967    1.8727   -0.8531 C   0  0  0  0  0  0  0  0  0  0  0  0
   -1.8938    3.2251   -0.2685 C   0  0  0  0  0  0  0  0  0  0  0  0
   -1.6624    4.3848   -0.9854 C   0  0  0  0  0  0  0  0  0  0  0  0
   -1.4130    5.3967   -0.1007 N   0  0  0  0  0  0  0  0  0  0  0  0
   -1.4855    4.9281    1.1902 C   0  0  0  0  0  0  0  0  0  0  0  0
   -1.3000    5.6012    2.4033 C   0  0  0  0  0  0  0  0  0  0  0  0
   -1.4309    4.8624    3.5833 C   0  0  0  0  0  0  0  0  0  0  0  0
   -1.7407    3.5054    3.5463 C   0  0  0  0  0  0  0  0  0  0  0  0
   -1.9214    2.8480    2.3248 C   0  0  0  0  0  0  0  0  0  0  0  0
   -1.7900    3.5683    1.1193 C   0  0  0  0  0  0  0  0  0  0  0  0
    0.2231    1.2819   -1.1953 N   0  0  0  0  0  0  0  0  0  0  0  0
    0.4360    1.5784   -2.5141 C   0  0  0  0  0  0  0  0  0  0  0  0
   -0.4296    1.4499   -3.3780 O   0  0  0  0  0  0  0  0  0  0  0  0
    1.8398    2.0484   -2.8766 C   0  0  0  0  0  0  0  0  0  0  0  0
    2.2873    3.2497   -2.0264 C   0  0  0  0  0  0  0  0  0  0  0  0
    3.6033    3.8244   -2.4800 C   0  0  0  0  0  0  0  0  0  0  0  0
    4.7017    3.8571   -1.7143 C   0  0  0  0  0  0  0  0  0  0  0  0
    2.8159    0.8642   -2.9490 C   0  0  0  0  0  0  0  0  0  0  0  0
    3.2605    0.2703   -1.6187 C   0  0  0  0  0  0  0  0  0  0  0  0
    2.7347    0.6147   -0.5583 O   0  0  0  0  0  0  0  0  0  0  0  0
    4.2774   -0.6811   -1.6510 N   0  0  0  0  0  0  0  0  0  0  0  0
    4.6737   -1.2905   -0.3689 C   0  0  0  0  0  0  0  0  0  0  0  0
    3.8319   -2.5197   -0.0034 C   0  0  0  0  0  0  0  0  0  0  0  0
    4.2216   -3.6599   -0.7750 O   0  0  0  0  0  0  0  0  0  0  0  0
    4.7376   -1.3356   -2.8829 C   0  0  0  0  0  0  0  0  0  0  0  0
    6.2412   -1.3563   -3.0402 C   0  0  0  0  0  0  0  0  0  0  0  0
    7.0043   -0.1956   -2.8416 C   0  0  0  0  0  0  0  0  0  0  0  0
    8.3850   -0.2143   -3.0382 C   0  0  0  0  0  0  0  0  0  0  0  0
    9.0148   -1.3872   -3.4483 C   0  0  0  0  0  0  0  0  0  0  0  0
    8.2668   -2.5447   -3.6621 C   0  0  0  0  0  0  0  0  0  0  0  0
    6.8861   -2.5295   -3.4611 C   0  0  0  0  0  0  0  0  0  0  0  0
   -6.7241    0.3158    4.6738 H   0  0  0  0  0  0  0  0  0  0  0  0
   -7.4295    0.4413    2.9585 H   0  0  0  0  0  0  0  0  0  0  0  0
   -4.5106   -0.0899    3.7805 H   0  0  0  0  0  0  0  0  0  0  0  0
   -4.1013    0.5199    1.4513 H   0  0  0  0  0  0  0  0  0  0  0  0
   -5.8061    0.6199    1.1043 H   0  0  0  0  0  0  0  0  0  0  0  0
   -5.9501   -1.9379    1.3118 H   0  0  0  0  0  0  0  0  0  0  0  0
   -5.1985   -1.2301   -0.0961 H   0  0  0  0  0  0  0  0  0  0  0  0
   -3.8933   -3.1013    0.4676 H   0  0  0  0  0  0  0  0  0  0  0  0
   -2.6443   -3.3756    2.6228 H   0  0  0  0  0  0  0  0  0  0  0  0
   -3.5308   -2.0644    3.3241 H   0  0  0  0  0  0  0  0  0  0  0  0
   -5.6305   -2.5618    4.4232 H   0  0  0  0  0  0  0  0  0  0  0  0
   -7.3419   -4.2291    5.0696 H   0  0  0  0  0  0  0  0  0  0  0  0
   -5.6812   -7.0563    2.3149 H   0  0  0  0  0  0  0  0  0  0  0  0
   -3.9553   -5.4074    1.6401 H   0  0  0  0  0  0  0  0  0  0  0  0
   -1.6384   -0.5313   -2.2317 H   0  0  0  0  0  0  0  0  0  0  0  0
   -0.6306   -1.2658   -0.9987 H   0  0  0  0  0  0  0  0  0  0  0  0
   -0.8799    0.7757    0.4376 H   0  0  0  0  0  0  0  0  0  0  0  0
   -2.4208    1.9811   -1.9211 H   0  0  0  0  0  0  0  0  0  0  0  0
   -3.1221    1.5042   -0.3957 H   0  0  0  0  0  0  0  0  0  0  0  0
   -1.6457    4.5649   -2.0529 H   0  0  0  0  0  0  0  0  0  0  0  0
   -1.2043    6.3530   -0.3528 H   0  0  0  0  0  0  0  0  0  0  0  0
   -1.0617    6.6590    2.4338 H   0  0  0  0  0  0  0  0  0  0  0  0
   -1.2884    5.3553    4.5419 H   0  0  0  0  0  0  0  0  0  0  0  0
   -1.8359    2.9470    4.4745 H   0  0  0  0  0  0  0  0  0  0  0  0
   -2.1543    1.7876    2.3144 H   0  0  0  0  0  0  0  0  0  0  0  0
    1.0358    1.2150   -0.5809 H   0  0  0  0  0  0  0  0  0  0  0  0
    1.7427    2.4230   -3.9076 H   0  0  0  0  0  0  0  0  0  0  0  0
    1.5313    4.0431   -2.1041 H   0  0  0  0  0  0  0  0  0  0  0  0
    2.3298    2.9985   -0.9608 H   0  0  0  0  0  0  0  0  0  0  0  0
    3.6400    4.2512   -3.4796 H   0  0  0  0  0  0  0  0  0  0  0  0
    5.6229    4.3001   -2.0806 H   0  0  0  0  0  0  0  0  0  0  0  0
    4.7040    3.4615   -0.6997 H   0  0  0  0  0  0  0  0  0  0  0  0
    2.3464    0.0586   -3.5281 H   0  0  0  0  0  0  0  0  0  0  0  0
    3.7127    1.1947   -3.4859 H   0  0  0  0  0  0  0  0  0  0  0  0
    5.7363   -1.5480   -0.4134 H   0  0  0  0  0  0  0  0  0  0  0  0
    4.5581   -0.5417    0.4231 H   0  0  0  0  0  0  0  0  0  0  0  0
    3.9751   -2.7754    1.0511 H   0  0  0  0  0  0  0  0  0  0  0  0
    2.7652   -2.3389   -0.1720 H   0  0  0  0  0  0  0  0  0  0  0  0
    5.1513   -3.8483   -0.5559 H   0  0  0  0  0  0  0  0  0  0  0  0
    4.3293   -2.3510   -2.8830 H   0  0  0  0  0  0  0  0  0  0  0  0
    4.3284   -0.8587   -3.7772 H   0  0  0  0  0  0  0  0  0  0  0  0
    6.5248    0.7292   -2.5297 H   0  0  0  0  0  0  0  0  0  0  0  0
    8.9673    0.6904   -2.8774 H   0  0  0  0  0  0  0  0  0  0  0  0
   10.0903   -1.3997   -3.6055 H   0  0  0  0  0  0  0  0  0  0  0  0
    8.7568   -3.4547   -3.9927 H   0  0  0  0  0  0  0  0  0  0  0  0
    6.3146   -3.4380   -3.6453 H   0  0  0  0  0  0  0  0  0  0  0  0
  1  2  2  0
  2  3  1  0
  3  4  1  0
  4  5  1  0
  5  6  1  0
  6  7  1  0
  7  8  2  0
  8  9  1  0
  9 10  2  0
 10 11  1  0
 10 12  1  0
 12 13  2  0
  5 14  1  0
 14 15  2  0
 14 16  1  0
 16 17  1  0
 17 18  1  0
 18 19  1  0
 19 20  1  0
 20 21  2  0
 21 22  1  0
 22 23  1  0
 23 24  2  0
 24 25  1  0
 25 26  2  0
 26 27  1  0
 27 28  2  0
 18 29  1  0
 29 30  1  0
 30 31  2  0
 30 32  1  0
 32 33  1  0
 33 34  1  0
 34 35  2  0
 32 36  1  0
 36 37  1  0
 37 38  2  0
 37 39  1  0
 39 40  1  0
 40 41  1  0
 41 42  1  0
 39 43  1  0
 43 44  1  0
 44 45  2  0
 45 46  1  0
 46 47  2  0
 47 48  1  0
 48 49  2  0
 13  7  1  0
 28 20  1  0
 49 44  1  0
 28 23  1  0
  1 50  1  0
  1 51  1  0
  2 52  1  0
  3 53  1  0
  3 54  1  0
  4 55  1  0
  4 56  1  0
  5 57  1  0
  6 58  1  0
  6 59  1  0
  8 60  1  0
  9 61  1  0
 12 62  1  0
 13 63  1  0
 17 64  1  0
 17 65  1  0
 18 66  1  0
 19 67  1  0
 19 68  1  0
 21 69  1  0
 22 70  1  0
 24 71  1  0
 25 72  1  0
 26 73  1  0
 27 74  1  0
 29 75  1  0
 32 76  1  0
 33 77  1  0
 33 78  1  0
 34 79  1  0
 35 80  1  0
 35 81  1  0
 36 82  1  0
 36 83  1  0
 40 84  1  0
 40 85  1  0
 41 86  1  0
 41 87  1  0
 42 88  1  0
 43 89  1  0
 43 90  1  0
 45 91  1  0
 46 92  1  0
 47 93  1  0
 48 94  1  0
 49 95  1  0
M  END
$$$$
