
     RDKit          3D

 53 56  0  0  0  0  0  0  0  0999 V2000
    7.8981   -0.0845    2.6569 C   0  0  0  0  0  0  0  0  0  0  0  0
    6.5172   -0.5400    2.2203 C   0  0  0  0  0  0  0  0  0  0  0  0
    6.0339    0.3880    1.2511 O   0  0  0  0  0  0  0  0  0  0  0  0
    4.8037    0.1397    0.7102 C   0  0  0  0  0  0  0  0  0  0  0  0
    3.9553   -0.9127    1.0441 C   0  0  0  0  0  0  0  0  0  0  0  0
    2.7123   -1.0486    0.4073 C   0  0  0  0  0  0  0  0  0  0  0  0
    2.2830   -0.1375   -0.5746 C   0  0  0  0  0  0  0  0  0  0  0  0
    0.9745   -0.2642   -1.2489 C   0  0  0  0  0  0  0  0  0  0  0  0
   -0.1506   -0.7674   -0.6199 C   0  0  0  0  0  0  0  0  0  0  0  0
   -1.3376   -0.8363   -1.3481 C   0  0  0  0  0  0  0  0  0  0  0  0
   -2.5275   -1.3568   -0.6507 C   0  0  0  0  0  0  0  0  0  0  0  0
   -2.8721   -2.5107   -0.8850 O   0  0  0  0  0  0  0  0  0  0  0  0
   -3.1738   -0.5177    0.2455 N   0  0  0  0  0  0  0  0  0  0  0  0
   -4.3175   -1.0379    0.9975 C   0  0  0  0  0  0  0  0  0  0  0  0
   -4.5054   -0.2894    2.3278 C   0  0  0  0  0  0  0  0  0  0  0  0
   -4.7288    1.1624    2.1636 N   0  0  0  0  0  0  0  0  0  0  0  0
   -4.3518    1.8843    3.3754 C   0  0  0  0  0  0  0  0  0  0  0  0
   -4.0640    1.7059    0.9635 C   0  0  0  0  0  0  0  0  0  0  0  0
   -2.8514    0.8998    0.4596 C   0  0  0  0  0  0  0  0  0  0  0  0
   -1.4020   -0.4362   -2.6954 C   0  0  0  0  0  0  0  0  0  0  0  0
   -2.5650   -0.5026   -3.5020 C   0  0  0  0  0  0  0  0  0  0  0  0
   -2.5415   -0.0692   -4.8255 C   0  0  0  0  0  0  0  0  0  0  0  0
   -1.3626    0.4343   -5.3572 C   0  0  0  0  0  0  0  0  0  0  0  0
   -0.2152    0.4980   -4.5620 C   0  0  0  0  0  0  0  0  0  0  0  0
   -0.2111    0.0709   -3.2405 C   0  0  0  0  0  0  0  0  0  0  0  0
    0.9309    0.1652   -2.5357 N   0  0  0  0  0  0  0  0  0  0  0  0
    3.1607    0.9101   -0.9016 C   0  0  0  0  0  0  0  0  0  0  0  0
    4.3995    1.0487   -0.2660 C   0  0  0  0  0  0  0  0  0  0  0  0
    8.3150   -0.7656    3.4039 H   0  0  0  0  0  0  0  0  0  0  0  0
    8.5783   -0.0404    1.7998 H   0  0  0  0  0  0  0  0  0  0  0  0
    7.8552    0.9237    3.0820 H   0  0  0  0  0  0  0  0  0  0  0  0
    5.8539   -0.5578    3.0928 H   0  0  0  0  0  0  0  0  0  0  0  0
    6.5928   -1.5427    1.7838 H   0  0  0  0  0  0  0  0  0  0  0  0
    4.2274   -1.6518    1.7902 H   0  0  0  0  0  0  0  0  0  0  0  0
    2.0913   -1.8995    0.6806 H   0  0  0  0  0  0  0  0  0  0  0  0
   -0.1285   -1.0899    0.4151 H   0  0  0  0  0  0  0  0  0  0  0  0
   -4.1785   -2.1079    1.1876 H   0  0  0  0  0  0  0  0  0  0  0  0
   -5.2053   -0.9276    0.3631 H   0  0  0  0  0  0  0  0  0  0  0  0
   -5.3570   -0.7183    2.8679 H   0  0  0  0  0  0  0  0  0  0  0  0
   -3.6092   -0.4690    2.9378 H   0  0  0  0  0  0  0  0  0  0  0  0
   -3.2754    1.8247    3.5725 H   0  0  0  0  0  0  0  0  0  0  0  0
   -4.6298    2.9410    3.2957 H   0  0  0  0  0  0  0  0  0  0  0  0
   -4.8861    1.4847    4.2446 H   0  0  0  0  0  0  0  0  0  0  0  0
   -4.8163    1.7123    0.1637 H   0  0  0  0  0  0  0  0  0  0  0  0
   -3.7765    2.7552    1.1041 H   0  0  0  0  0  0  0  0  0  0  0  0
   -2.4815    1.3430   -0.4698 H   0  0  0  0  0  0  0  0  0  0  0  0
   -2.0416    0.9386    1.1976 H   0  0  0  0  0  0  0  0  0  0  0  0
   -3.4944   -0.9054   -3.1021 H   0  0  0  0  0  0  0  0  0  0  0  0
   -3.4381   -0.1308   -5.4370 H   0  0  0  0  0  0  0  0  0  0  0  0
   -1.3270    0.7735   -6.3892 H   0  0  0  0  0  0  0  0  0  0  0  0
    0.7060    0.8897   -4.9882 H   0  0  0  0  0  0  0  0  0  0  0  0
    2.8803    1.6353   -1.6643 H   0  0  0  0  0  0  0  0  0  0  0  0
    5.0542    1.8717   -0.5419 H   0  0  0  0  0  0  0  0  0  0  0  0
  1  2  1  0
  2  3  1  0
  3  4  1  0
  4  5  2  0
  5  6  1  0
  6  7  2  0
  7  8  1  0
  8  9  2  0
  9 10  1  0
 10 11  1  0
 11 12  2  0
 11 13  1  0
 13 14  1  0
 14 15  1  0
 15 16  1  0
 16 17  1  0
 16 18  1  0
 18 19  1  0
 10 20  2  0
 20 21  1  0
 21 22  2  0
 22 23  1  0
 23 24  2  0
 24 25  1  0
 25 26  2  0
  7 27  1  0
 27 28  2  0
 28  4  1  0
 26  8  1  0
 19 13  1  0
 25 20  1  0
  1 29  1  0
  1 30  1  0
  1 31  1  0
  2 32  1  0
  2 33  1  0
  5 34  1  0
  6 35  1  0
  9 36  1  0
 14 37  1  0
 14 38  1  0
 15 39  1  0
 15 40  1  0
 17 41  1  0
 17 42  1  0
 17 43  1  0
 18 44  1  0
 18 45  1  0
 19 46  1  0
 19 47  1  0
 21 48  1  0
 22 49  1  0
 23 50  1  0
 24 51  1  0
 27 52  1  0
 28 53  1  0
M  END
$$$$
