
     RDKit          3D

 49 51  0  0  0  0  0  0  0  0999 V2000
   -3.4130   -3.7779   -0.1736 C   0  0  0  0  0  0  0  0  0  0  0  0
   -2.7749   -2.5257    0.3738 C   0  0  0  0  0  0  0  0  0  0  0  0
   -2.9011   -2.2842    1.8384 C   0  0  0  0  0  0  0  0  0  0  0  0
   -2.3459   -1.1449    2.2750 C   0  0  0  0  0  0  0  0  0  0  0  0
   -2.3379   -0.7583    3.7234 C   0  0  0  0  0  0  0  0  0  0  0  0
   -1.7354   -0.2956    1.3768 N   0  0  0  0  0  0  0  0  0  0  0  0
   -1.5734   -0.6141    0.0496 C   0  0  0  0  0  0  0  0  0  0  0  0
   -0.9078    0.0544   -0.8381 N   0  0  0  0  0  0  0  0  0  0  0  0
   -0.3504    1.2395   -0.4714 C   0  0  0  0  0  0  0  0  0  0  0  0
    0.8797    1.3123   -0.0945 N   0  0  0  0  0  0  0  0  0  0  0  0
    1.8730    0.0444    0.0445 S   0  0  0  0  0  6  0  0  0  0  0  0
    1.2762   -0.9187    0.9530 O   0  0  0  0  0  0  0  0  0  0  0  0
    3.1813    0.5927    0.3643 O   0  0  0  0  0  0  0  0  0  0  0  0
    1.9539   -0.6256   -1.6219 C   0  0  0  0  0  0  0  0  0  0  0  0
    2.9143   -1.7892   -1.6467 C   0  0  0  0  0  0  0  0  0  0  0  0
    2.4521   -3.0918   -1.4061 C   0  0  0  0  0  0  0  0  0  0  0  0
    3.3363   -4.1710   -1.4261 C   0  0  0  0  0  0  0  0  0  0  0  0
    4.6893   -3.9602   -1.6838 C   0  0  0  0  0  0  0  0  0  0  0  0
    5.1604   -2.6699   -1.9188 C   0  0  0  0  0  0  0  0  0  0  0  0
    4.2785   -1.5884   -1.9001 C   0  0  0  0  0  0  0  0  0  0  0  0
   -1.1829    2.3206   -0.5849 N   0  0  0  0  0  0  0  0  0  0  0  0
   -0.9934    3.6892   -0.3172 C   0  0  0  0  0  0  0  0  0  0  0  0
    0.1799    4.2146    0.2393 C   0  0  0  0  0  0  0  0  0  0  0  0
    0.3150    5.5844    0.4985 C   0  0  0  0  0  0  0  0  0  0  0  0
   -0.7253    6.4617    0.2109 C   0  0  0  0  0  0  0  0  0  0  0  0
   -1.9063    5.9708   -0.3355 C   0  0  0  0  0  0  0  0  0  0  0  0
   -2.0364    4.6016   -0.5930 C   0  0  0  0  0  0  0  0  0  0  0  0
   -3.6863    4.0023   -1.3347 Br  0  0  0  0  0  0  0  0  0  0  0  0
   -2.1563   -1.7488   -0.4611 N   0  0  0  0  0  0  0  0  0  0  0  0
   -4.1288   -3.5063   -0.9550 H   0  0  0  0  0  0  0  0  0  0  0  0
   -3.9374   -4.3368    0.6055 H   0  0  0  0  0  0  0  0  0  0  0  0
   -2.6377   -4.4166   -0.6068 H   0  0  0  0  0  0  0  0  0  0  0  0
   -3.3903   -3.0091    2.4726 H   0  0  0  0  0  0  0  0  0  0  0  0
   -1.3092   -0.6574    4.0850 H   0  0  0  0  0  0  0  0  0  0  0  0
   -2.8499    0.1994    3.8637 H   0  0  0  0  0  0  0  0  0  0  0  0
   -2.8417   -1.5025    4.3493 H   0  0  0  0  0  0  0  0  0  0  0  0
   -1.1156    0.4022    1.7713 H   0  0  0  0  0  0  0  0  0  0  0  0
    0.9687   -0.9595   -1.9477 H   0  0  0  0  0  0  0  0  0  0  0  0
    2.2905    0.1738   -2.2897 H   0  0  0  0  0  0  0  0  0  0  0  0
    1.3993   -3.2724   -1.1935 H   0  0  0  0  0  0  0  0  0  0  0  0
    2.9694   -5.1759   -1.2348 H   0  0  0  0  0  0  0  0  0  0  0  0
    5.3782   -4.8005   -1.6945 H   0  0  0  0  0  0  0  0  0  0  0  0
    6.2174   -2.5039   -2.1099 H   0  0  0  0  0  0  0  0  0  0  0  0
    4.6672   -0.5864   -2.0721 H   0  0  0  0  0  0  0  0  0  0  0  0
   -2.0755    2.1047   -1.0159 H   0  0  0  0  0  0  0  0  0  0  0  0
    1.0248    3.5797    0.4891 H   0  0  0  0  0  0  0  0  0  0  0  0
    1.2412    5.9607    0.9278 H   0  0  0  0  0  0  0  0  0  0  0  0
   -0.6153    7.5241    0.4133 H   0  0  0  0  0  0  0  0  0  0  0  0
   -2.7184    6.6583   -0.5572 H   0  0  0  0  0  0  0  0  0  0  0  0
  1  2  1  0
  2  3  1  0
  3  4  2  0
  4  5  1  0
  4  6  1  0
  6  7  1  0
  7  8  2  3
  8  9  1  0
  9 10  2  3
 10 11  1  0
 11 12  2  0
 11 13  2  0
 11 14  1  0
 14 15  1  0
 15 16  2  0
 16 17  1  0
 17 18  2  0
 18 19  1  0
 19 20  2  0
  9 21  1  0
 21 22  1  0
 22 23  2  0
 23 24  1  0
 24 25  2  0
 25 26  1  0
 26 27  2  0
 27 28  1  0
  7 29  1  0
 29  2  2  0
 20 15  1  0
 27 22  1  0
  1 30  1  0
  1 31  1  0
  1 32  1  0
  3 33  1  0
  5 34  1  0
  5 35  1  0
  5 36  1  0
  6 37  1  0
 14 38  1  0
 14 39  1  0
 16 40  1  0
 17 41  1  0
 18 42  1  0
 19 43  1  0
 20 44  1  0
 21 45  1  0
 23 46  1  0
 24 47  1  0
 25 48  1  0
 26 49  1  0
M  END
$$$$
