
     RDKit          3D

 36 39  0  0  0  0  0  0  0  0999 V2000
   -1.7745    0.4259    2.9152 C   0  0  0  0  0  0  0  0  0  0  0  0
   -0.9416    0.2646    1.6958 C   0  0  0  0  0  0  0  0  0  0  0  0
    0.3906    0.2641    1.8048 N   0  0  0  0  0  0  0  0  0  0  0  0
    0.8479    0.0740    0.5428 N   0  0  0  0  0  0  0  0  0  0  0  0
    2.1866   -0.0007    0.1282 C   0  0  0  0  0  0  0  0  0  0  0  0
    2.4520   -0.1800   -1.1793 C   0  0  0  0  0  0  0  0  0  0  0  0
    1.2734   -0.2989   -2.0780 C   0  0  0  0  0  0  0  0  0  0  0  0
    0.0272   -0.2397   -1.7150 N   0  0  0  0  0  0  0  0  0  0  0  0
   -0.2026   -0.0438   -0.3770 C   0  0  0  0  0  0  0  0  0  0  0  0
   -1.3696    0.0903    0.3547 C   0  0  0  0  0  0  0  0  0  0  0  0
   -2.7079    0.0502   -0.2112 C   0  0  0  0  0  0  0  0  0  0  0  0
   -3.6453    1.0370    0.1221 C   0  0  0  0  0  0  0  0  0  0  0  0
   -4.9388    0.9929   -0.4044 C   0  0  0  0  0  0  0  0  0  0  0  0
   -5.3059   -0.0367   -1.2689 C   0  0  0  0  0  0  0  0  0  0  0  0
   -4.3802   -1.0205   -1.6108 C   0  0  0  0  0  0  0  0  0  0  0  0
   -3.0868   -0.9772   -1.0848 C   0  0  0  0  0  0  0  0  0  0  0  0
    3.8441   -0.2201   -1.6805 C   0  0  0  0  0  0  0  0  0  0  0  0
    4.0680   -0.3964   -2.8757 O   0  0  0  0  0  0  0  0  0  0  0  0
    4.9608    0.0366   -0.6928 C   0  0  0  0  0  0  0  0  0  0  0  0
    4.5933   -0.4691    0.6941 C   0  0  0  0  0  0  0  0  0  0  0  0
    3.2636    0.1126    1.1737 C   0  0  0  0  0  0  0  0  0  0  0  0
   -2.6549   -0.2235    2.8764 H   0  0  0  0  0  0  0  0  0  0  0  0
   -1.2121    0.1660    3.8183 H   0  0  0  0  0  0  0  0  0  0  0  0
   -2.1103    1.4631    3.0112 H   0  0  0  0  0  0  0  0  0  0  0  0
    1.5007   -0.4509   -3.1469 H   0  0  0  0  0  0  0  0  0  0  0  0
   -3.3745    1.8585    0.7804 H   0  0  0  0  0  0  0  0  0  0  0  0
   -5.6572    1.7659   -0.1445 H   0  0  0  0  0  0  0  0  0  0  0  0
   -6.3109   -0.0692   -1.6815 H   0  0  0  0  0  0  0  0  0  0  0  0
   -4.6608   -1.8208   -2.2903 H   0  0  0  0  0  0  0  0  0  0  0  0
   -2.3753   -1.7509   -1.3650 H   0  0  0  0  0  0  0  0  0  0  0  0
    5.8608   -0.4821   -1.0402 H   0  0  0  0  0  0  0  0  0  0  0  0
    5.1647    1.1128   -0.6768 H   0  0  0  0  0  0  0  0  0  0  0  0
    5.3869   -0.2187    1.4070 H   0  0  0  0  0  0  0  0  0  0  0  0
    4.5187   -1.5645    0.6719 H   0  0  0  0  0  0  0  0  0  0  0  0
    3.3935    1.1692    1.4386 H   0  0  0  0  0  0  0  0  0  0  0  0
    2.9760   -0.4198    2.0882 H   0  0  0  0  0  0  0  0  0  0  0  0
  1  2  1  0
  2  3  2  0
  3  4  1  0
  4  5  1  0
  5  6  2  0
  6  7  1  0
  7  8  2  0
  8  9  1  0
  9 10  2  0
 10 11  1  0
 11 12  2  0
 12 13  1  0
 13 14  2  0
 14 15  1  0
 15 16  2  0
  6 17  1  0
 17 18  2  0
 17 19  1  0
 19 20  1  0
 20 21  1  0
 10  2  1  0
 16 11  1  0
  9  4  1  0
 21  5  1  0
  1 22  1  0
  1 23  1  0
  1 24  1  0
  7 25  1  0
 12 26  1  0
 13 27  1  0
 14 28  1  0
 15 29  1  0
 16 30  1  0
 19 31  1  0
 19 32  1  0
 20 33  1  0
 20 34  1  0
 21 35  1  0
 21 36  1  0
M  END
$$$$
