
     RDKit          3D

 33 34  0  0  0  0  0  0  0  0999 V2000
   -0.1117   -1.8767    0.0613 O   0  0  0  0  0  0  0  0  0  0  0  0
    0.2258   -0.6985    0.0293 C   0  0  0  0  0  0  0  0  0  0  0  0
   -0.7636    0.4285   -0.2650 C   0  0  0  0  0  0  0  0  0  0  0  0
   -2.0864   -0.0802   -0.4169 O   0  0  0  0  0  0  0  0  0  0  0  0
   -3.0094    0.8604   -0.7157 C   0  0  0  0  0  0  0  0  0  0  0  0
   -2.7891    2.0519   -0.8570 O   0  0  0  0  0  0  0  0  0  0  0  0
   -4.3467    0.2440   -0.8524 C   0  0  0  0  0  0  0  0  0  0  0  0
   -4.5897   -1.1240   -0.6908 C   0  0  0  0  0  0  0  0  0  0  0  0
   -5.8888   -1.6104   -0.8406 C   0  0  0  0  0  0  0  0  0  0  0  0
   -6.8928   -0.7065   -1.1467 C   0  0  0  0  0  0  0  0  0  0  0  0
   -8.5139   -1.2246   -1.3473 Cl  0  0  0  0  0  0  0  0  0  0  0  0
   -6.6984    0.6186   -1.3104 N   0  0  0  0  0  0  0  0  0  0  0  0
   -5.4265    1.0644   -1.1589 C   0  0  0  0  0  0  0  0  0  0  0  0
    1.5217   -0.2249    0.1864 N   0  0  0  0  0  0  0  0  0  0  0  0
    2.5763   -0.9596    0.6974 C   0  0  0  0  0  0  0  0  0  0  0  0
    2.4918   -2.0518    1.2418 O   0  0  0  0  0  0  0  0  0  0  0  0
    3.8994   -0.2773    0.6464 C   0  0  0  0  0  0  0  0  0  0  0  0
    4.8064   -0.5001    1.6895 C   0  0  0  0  0  0  0  0  0  0  0  0
    6.0522    0.1285    1.6800 C   0  0  0  0  0  0  0  0  0  0  0  0
    6.3995    0.9714    0.6247 C   0  0  0  0  0  0  0  0  0  0  0  0
    5.5077    1.1807   -0.4276 C   0  0  0  0  0  0  0  0  0  0  0  0
    4.2589    0.5551   -0.4227 C   0  0  0  0  0  0  0  0  0  0  0  0
   -0.7358    1.1341    0.5736 H   0  0  0  0  0  0  0  0  0  0  0  0
   -0.4483    0.9228   -1.1916 H   0  0  0  0  0  0  0  0  0  0  0  0
   -3.7853   -1.8162   -0.4505 H   0  0  0  0  0  0  0  0  0  0  0  0
   -6.1038   -2.6666   -0.7204 H   0  0  0  0  0  0  0  0  0  0  0  0
   -5.3029    2.1366   -1.2968 H   0  0  0  0  0  0  0  0  0  0  0  0
    1.6875    0.7543    0.0078 H   0  0  0  0  0  0  0  0  0  0  0  0
    4.5443   -1.1648    2.5111 H   0  0  0  0  0  0  0  0  0  0  0  0
    6.7539   -0.0456    2.4924 H   0  0  0  0  0  0  0  0  0  0  0  0
    7.3739    1.4548    0.6161 H   0  0  0  0  0  0  0  0  0  0  0  0
    5.7946    1.8211   -1.2587 H   0  0  0  0  0  0  0  0  0  0  0  0
    3.5993    0.7006   -1.2734 H   0  0  0  0  0  0  0  0  0  0  0  0
  1  2  2  0
  2  3  1  0
  3  4  1  0
  4  5  1  0
  5  6  2  0
  5  7  1  0
  7  8  2  0
  8  9  1  0
  9 10  2  0
 10 11  1  0
 10 12  1  0
 12 13  2  0
  2 14  1  0
 14 15  1  0
 15 16  2  0
 15 17  1  0
 17 18  2  0
 18 19  1  0
 19 20  2  0
 20 21  1  0
 21 22  2  0
 13  7  1  0
 22 17  1  0
  3 23  1  0
  3 24  1  0
  8 25  1  0
  9 26  1  0
 13 27  1  0
 14 28  1  0
 18 29  1  0
 19 30  1  0
 20 31  1  0
 21 32  1  0
 22 33  1  0
M  END
$$$$
