
     RDKit          3D

 40 41  0  0  0  0  0  0  0  0999 V2000
    5.4393    0.6391   -0.2082 C   0  0  0  0  0  0  0  0  0  0  0  0
    4.4929    0.4329   -1.3759 C   0  0  0  0  0  0  0  0  0  0  0  0
    3.2312   -0.0612   -0.9077 O   0  0  0  0  0  0  0  0  0  0  0  0
    2.3220    0.8789   -0.5177 C   0  0  0  0  0  0  0  0  0  0  0  0
    2.5415    2.0850   -0.5546 O   0  0  0  0  0  0  0  0  0  0  0  0
    1.0592    0.2955   -0.0492 C   0  0  0  0  0  0  0  0  0  0  0  0
   -0.1143    1.0135    0.1946 C   0  0  0  0  0  0  0  0  0  0  0  0
   -0.3897    2.4729    0.0225 C   0  0  0  0  0  0  0  0  0  0  0  0
   -1.0632    0.1286    0.6711 N   0  0  0  0  0  0  0  0  0  0  0  0
   -2.4002    0.4730    1.1571 C   0  0  0  0  0  0  0  0  0  0  0  0
   -3.3985   -0.1846    0.3754 O   0  0  0  0  0  0  0  0  0  0  0  0
   -3.6857    0.4612   -0.8676 C   0  0  0  0  0  0  0  0  0  0  0  0
   -4.7642    1.5325   -0.7040 C   0  0  0  0  0  0  0  0  0  0  0  0
   -4.2289    2.7000   -0.0856 O   0  0  0  0  0  0  0  0  0  0  0  0
   -0.5474   -1.1547    0.6990 C   0  0  0  0  0  0  0  0  0  0  0  0
   -1.1437   -2.3697    1.0862 C   0  0  0  0  0  0  0  0  0  0  0  0
   -0.3804   -3.5375    1.0294 C   0  0  0  0  0  0  0  0  0  0  0  0
    0.9368   -3.4843    0.6027 C   0  0  0  0  0  0  0  0  0  0  0  0
    1.7064   -4.6109    0.5422 O   0  0  0  0  0  0  0  0  0  0  0  0
    1.5273   -2.2806    0.2192 C   0  0  0  0  0  0  0  0  0  0  0  0
    0.7761   -1.0820    0.2578 C   0  0  0  0  0  0  0  0  0  0  0  0
    5.5508   -0.2877    0.3642 H   0  0  0  0  0  0  0  0  0  0  0  0
    5.0529    1.3951    0.4825 H   0  0  0  0  0  0  0  0  0  0  0  0
    6.4247    0.9580   -0.5593 H   0  0  0  0  0  0  0  0  0  0  0  0
    4.9025   -0.3264   -2.0502 H   0  0  0  0  0  0  0  0  0  0  0  0
    4.3715    1.3504   -1.9629 H   0  0  0  0  0  0  0  0  0  0  0  0
    0.2819    2.9316   -0.7073 H   0  0  0  0  0  0  0  0  0  0  0  0
   -1.4016    2.6514   -0.3510 H   0  0  0  0  0  0  0  0  0  0  0  0
   -0.2710    2.9942    0.9774 H   0  0  0  0  0  0  0  0  0  0  0  0
   -2.5329    1.5539    1.2005 H   0  0  0  0  0  0  0  0  0  0  0  0
   -2.4639    0.0921    2.1824 H   0  0  0  0  0  0  0  0  0  0  0  0
   -4.0717   -0.3183   -1.5325 H   0  0  0  0  0  0  0  0  0  0  0  0
   -2.7767    0.8678   -1.3219 H   0  0  0  0  0  0  0  0  0  0  0  0
   -5.1535    1.8232   -1.6844 H   0  0  0  0  0  0  0  0  0  0  0  0
   -5.5836    1.1638   -0.0793 H   0  0  0  0  0  0  0  0  0  0  0  0
   -4.9607    3.3371   -0.0075 H   0  0  0  0  0  0  0  0  0  0  0  0
   -2.1782   -2.4081    1.4154 H   0  0  0  0  0  0  0  0  0  0  0  0
   -0.8381   -4.4765    1.3243 H   0  0  0  0  0  0  0  0  0  0  0  0
    1.1682   -5.3663    0.8292 H   0  0  0  0  0  0  0  0  0  0  0  0
    2.5628   -2.2831   -0.1062 H   0  0  0  0  0  0  0  0  0  0  0  0
  1  2  1  0
  2  3  1  0
  3  4  1  0
  4  5  2  0
  4  6  1  0
  6  7  2  0
  7  8  1  0
  7  9  1  0
  9 10  1  0
 10 11  1  0
 11 12  1  0
 12 13  1  0
 13 14  1  0
  9 15  1  0
 15 16  2  0
 16 17  1  0
 17 18  2  0
 18 19  1  0
 18 20  1  0
 20 21  2  0
 21  6  1  0
 21 15  1  0
  1 22  1  0
  1 23  1  0
  1 24  1  0
  2 25  1  0
  2 26  1  0
  8 27  1  0
  8 28  1  0
  8 29  1  0
 10 30  1  0
 10 31  1  0
 12 32  1  0
 12 33  1  0
 13 34  1  0
 13 35  1  0
 14 36  1  0
 16 37  1  0
 17 38  1  0
 19 39  1  0
 20 40  1  0
M  END
$$$$
