
     RDKit          3D

 51 54  0  0  0  0  0  0  0  0999 V2000
    7.6532   -2.2010    1.6112 C   0  0  0  0  0  0  0  0  0  0  0  0
    6.3827   -1.8095    0.9165 C   0  0  0  0  0  0  0  0  0  0  0  0
    5.3456   -1.1950    1.6273 C   0  0  0  0  0  0  0  0  0  0  0  0
    4.1739   -0.8017    0.9755 C   0  0  0  0  0  0  0  0  0  0  0  0
    4.0262   -1.0030   -0.4028 C   0  0  0  0  0  0  0  0  0  0  0  0
    2.7616   -0.5947   -1.1166 C   0  0  0  0  0  0  0  0  0  0  0  0
    2.0009   -1.7643   -1.5322 N   0  0  0  0  0  0  0  0  0  0  0  0
    0.7567   -1.5979   -2.6282 S   0  0  0  0  0  6  0  0  0  0  0  0
    1.2684   -0.9035   -3.7884 O   0  0  0  0  0  0  0  0  0  0  0  0
    0.1132   -2.8883   -2.7300 O   0  0  0  0  0  0  0  0  0  0  0  0
   -0.3624   -0.5070   -1.7813 C   0  0  0  0  0  0  0  0  0  0  0  0
   -1.1946   -1.0263   -0.7770 C   0  0  0  0  0  0  0  0  0  0  0  0
   -2.0939   -0.1909   -0.0996 C   0  0  0  0  0  0  0  0  0  0  0  0
   -2.1603    1.1482   -0.4463 C   0  0  0  0  0  0  0  0  0  0  0  0
   -1.3173    1.6502   -1.4485 C   0  0  0  0  0  0  0  0  0  0  0  0
   -0.4241    0.8404   -2.1373 C   0  0  0  0  0  0  0  0  0  0  0  0
   -1.5549    3.1084   -1.6852 C   0  0  0  0  0  0  0  0  0  0  0  0
   -2.4695    3.4608   -0.5136 C   0  0  0  0  0  0  0  0  0  0  0  0
   -2.9439    2.1960    0.0690 N   0  0  0  0  0  0  0  0  0  0  0  0
   -3.9621    2.2319    1.0166 C   0  0  0  0  0  0  0  0  0  0  0  0
   -4.3610    3.3331    1.4319 O   0  0  0  0  0  0  0  0  0  0  0  0
   -4.6149    0.9205    1.5055 C   0  0  0  0  0  0  0  0  0  0  0  0
   -5.4642    0.1006    0.4866 C   0  0  0  0  0  0  0  0  0  0  0  0
   -6.4151   -0.2432    1.6460 C   0  0  0  0  0  0  0  0  0  0  0  0
   -5.9415    1.0549    2.3203 C   0  0  0  0  0  0  0  0  0  0  0  0
    5.0700   -1.6103   -1.1143 C   0  0  0  0  0  0  0  0  0  0  0  0
    6.2402   -2.0035   -0.4616 C   0  0  0  0  0  0  0  0  0  0  0  0
    7.4598   -2.4764    2.6533 H   0  0  0  0  0  0  0  0  0  0  0  0
    8.3626   -1.3680    1.5909 H   0  0  0  0  0  0  0  0  0  0  0  0
    8.1121   -3.0691    1.1262 H   0  0  0  0  0  0  0  0  0  0  0  0
    5.4440   -1.0200    2.6966 H   0  0  0  0  0  0  0  0  0  0  0  0
    3.3813   -0.3339    1.5552 H   0  0  0  0  0  0  0  0  0  0  0  0
    2.1490    0.0168   -0.4450 H   0  0  0  0  0  0  0  0  0  0  0  0
    3.0293    0.0283   -1.9771 H   0  0  0  0  0  0  0  0  0  0  0  0
    1.9324   -2.5552   -0.8959 H   0  0  0  0  0  0  0  0  0  0  0  0
   -1.1487   -2.0831   -0.5186 H   0  0  0  0  0  0  0  0  0  0  0  0
   -2.6947   -0.6306    0.6825 H   0  0  0  0  0  0  0  0  0  0  0  0
    0.1997    1.2470   -2.9288 H   0  0  0  0  0  0  0  0  0  0  0  0
   -2.0674    3.2552   -2.6416 H   0  0  0  0  0  0  0  0  0  0  0  0
   -0.6313    3.6938   -1.6653 H   0  0  0  0  0  0  0  0  0  0  0  0
   -3.3163    4.0810   -0.8283 H   0  0  0  0  0  0  0  0  0  0  0  0
   -1.9226    4.0046    0.2669 H   0  0  0  0  0  0  0  0  0  0  0  0
   -3.9062    0.3138    2.0848 H   0  0  0  0  0  0  0  0  0  0  0  0
   -5.9271    0.7077   -0.3007 H   0  0  0  0  0  0  0  0  0  0  0  0
   -4.9795   -0.7618    0.0234 H   0  0  0  0  0  0  0  0  0  0  0  0
   -6.1354   -1.1516    2.1916 H   0  0  0  0  0  0  0  0  0  0  0  0
   -7.4771   -0.2903    1.3937 H   0  0  0  0  0  0  0  0  0  0  0  0
   -5.8359    1.0071    3.4075 H   0  0  0  0  0  0  0  0  0  0  0  0
   -6.5528    1.9278    2.0623 H   0  0  0  0  0  0  0  0  0  0  0  0
    4.9728   -1.7820   -2.1851 H   0  0  0  0  0  0  0  0  0  0  0  0
    7.0391   -2.4659   -1.0373 H   0  0  0  0  0  0  0  0  0  0  0  0
  1  2  1  0
  2  3  2  0
  3  4  1  0
  4  5  2  0
  5  6  1  0
  6  7  1  0
  7  8  1  0
  8  9  2  0
  8 10  2  0
  8 11  1  0
 11 12  2  0
 12 13  1  0
 13 14  2  0
 14 15  1  0
 15 16  2  0
 15 17  1  0
 17 18  1  0
 18 19  1  0
 19 20  1  0
 20 21  2  0
 20 22  1  0
 22 23  1  0
 23 24  1  0
 24 25  1  0
  5 26  1  0
 26 27  2  0
 27  2  1  0
 16 11  1  0
 25 22  1  0
 19 14  1  0
  1 28  1  0
  1 29  1  0
  1 30  1  0
  3 31  1  0
  4 32  1  0
  6 33  1  0
  6 34  1  0
  7 35  1  0
 12 36  1  0
 13 37  1  0
 16 38  1  0
 17 39  1  0
 17 40  1  0
 18 41  1  0
 18 42  1  0
 22 43  1  0
 23 44  1  0
 23 45  1  0
 24 46  1  0
 24 47  1  0
 25 48  1  0
 25 49  1  0
 26 50  1  0
 27 51  1  0
M  END
$$$$
