
     RDKit          3D

 45 47  0  0  0  0  0  0  0  0999 V2000
    9.8141   -1.7767    0.0565 N   0  0  0  0  0  0  0  0  0  0  0  0
    8.7867   -1.2435    0.1376 C   0  0  0  0  0  0  0  0  0  0  0  0
    7.5136   -0.5906    0.2313 C   0  0  0  0  0  0  0  0  0  0  0  0
    7.4438    0.7945    0.3946 C   0  0  0  0  0  0  0  0  0  0  0  0
    6.1987    1.4228    0.4819 C   0  0  0  0  0  0  0  0  0  0  0  0
    5.0163    0.6804    0.4088 C   0  0  0  0  0  0  0  0  0  0  0  0
    3.8744    1.4234    0.5072 O   0  0  0  0  0  0  0  0  0  0  0  0
    2.6349    0.7267    0.4875 C   0  0  0  0  0  0  0  0  0  0  0  0
    1.4521    1.6966    0.6338 C   0  0  0  0  0  0  0  0  0  0  0  0
    1.6156    2.9064    0.7987 O   0  0  0  0  0  0  0  0  0  0  0  0
    0.1804    1.1366    0.5657 N   0  0  0  0  0  0  0  0  0  0  0  0
   -0.0879   -0.2969    0.3939 C   0  0  0  0  0  0  0  0  0  0  0  0
   -1.5784   -0.6635    0.5265 C   0  0  0  0  0  0  0  0  0  0  0  0
   -2.3873    0.1772   -0.3681 N   0  0  0  0  0  0  0  0  0  0  0  0
   -3.7205   -0.2045   -0.5073 C   0  0  0  0  0  0  0  0  0  0  0  0
   -4.5563    0.4324   -1.4253 C   0  0  0  0  0  0  0  0  0  0  0  0
   -5.8869    0.0326   -1.5592 C   0  0  0  0  0  0  0  0  0  0  0  0
   -6.3746   -1.0083   -0.7734 C   0  0  0  0  0  0  0  0  0  0  0  0
   -7.7831   -1.4993   -0.8774 C   0  0  0  0  0  0  0  0  0  0  0  0
   -7.9445   -2.4084   -1.8775 F   0  0  0  0  0  0  0  0  0  0  0  0
   -8.2251   -2.1096    0.2578 F   0  0  0  0  0  0  0  0  0  0  0  0
   -8.6754   -0.5014   -1.1320 F   0  0  0  0  0  0  0  0  0  0  0  0
   -5.4815   -1.6092    0.0938 C   0  0  0  0  0  0  0  0  0  0  0  0
   -4.1879   -1.2331    0.2341 N   0  0  0  0  0  0  0  0  0  0  0  0
   -2.0937    1.6255   -0.3577 C   0  0  0  0  0  0  0  0  0  0  0  0
   -0.9968    2.0037    0.6575 C   0  0  0  0  0  0  0  0  0  0  0  0
    5.0871   -0.7036    0.2453 C   0  0  0  0  0  0  0  0  0  0  0  0
    6.3327   -1.3372    0.1572 C   0  0  0  0  0  0  0  0  0  0  0  0
    8.3494    1.3949    0.4550 H   0  0  0  0  0  0  0  0  0  0  0  0
    6.1466    2.5026    0.6089 H   0  0  0  0  0  0  0  0  0  0  0  0
    2.5232    0.2053   -0.4696 H   0  0  0  0  0  0  0  0  0  0  0  0
    2.5955    0.0264    1.3295 H   0  0  0  0  0  0  0  0  0  0  0  0
    0.4982   -0.8583    1.1281 H   0  0  0  0  0  0  0  0  0  0  0  0
    0.2719   -0.5701   -0.6045 H   0  0  0  0  0  0  0  0  0  0  0  0
   -1.9010   -0.5259    1.5667 H   0  0  0  0  0  0  0  0  0  0  0  0
   -1.6855   -1.7256    0.2728 H   0  0  0  0  0  0  0  0  0  0  0  0
   -4.1774    1.2283   -2.0580 H   0  0  0  0  0  0  0  0  0  0  0  0
   -6.5306    0.5349   -2.2782 H   0  0  0  0  0  0  0  0  0  0  0  0
   -5.7790   -2.4404    0.7299 H   0  0  0  0  0  0  0  0  0  0  0  0
   -2.9837    2.2216   -0.1204 H   0  0  0  0  0  0  0  0  0  0  0  0
   -1.7611    1.9072   -1.3640 H   0  0  0  0  0  0  0  0  0  0  0  0
   -0.7244    3.0555    0.5245 H   0  0  0  0  0  0  0  0  0  0  0  0
   -1.3831    1.8977    1.6786 H   0  0  0  0  0  0  0  0  0  0  0  0
    4.1973   -1.3206    0.1811 H   0  0  0  0  0  0  0  0  0  0  0  0
    6.3733   -2.4176    0.0281 H   0  0  0  0  0  0  0  0  0  0  0  0
  1  2  3  0
  2  3  1  0
  3  4  2  0
  4  5  1  0
  5  6  2  0
  6  7  1  0
  7  8  1  0
  8  9  1  0
  9 10  2  0
  9 11  1  0
 11 12  1  0
 12 13  1  0
 13 14  1  0
 14 15  1  0
 15 16  2  0
 16 17  1  0
 17 18  2  0
 18 19  1  0
 19 20  1  0
 19 21  1  0
 19 22  1  0
 18 23  1  0
 23 24  2  0
 14 25  1  0
 25 26  1  0
  6 27  1  0
 27 28  2  0
 28  3  1  0
 26 11  1  0
 24 15  1  0
  4 29  1  0
  5 30  1  0
  8 31  1  0
  8 32  1  0
 12 33  1  0
 12 34  1  0
 13 35  1  0
 13 36  1  0
 16 37  1  0
 17 38  1  0
 23 39  1  0
 25 40  1  0
 25 41  1  0
 26 42  1  0
 26 43  1  0
 27 44  1  0
 28 45  1  0
M  END
$$$$
