
     RDKit          3D

 63 67  0  0  0  0  0  0  0  0999 V2000
   -7.3082    1.3147    4.6427 Cl  0  0  0  0  0  0  0  0  0  0  0  0
   -5.9383    0.5361    3.9573 C   0  0  0  0  0  0  0  0  0  0  0  0
   -5.5492   -0.7173    4.4183 C   0  0  0  0  0  0  0  0  0  0  0  0
   -4.4366   -1.3505    3.8564 C   0  0  0  0  0  0  0  0  0  0  0  0
   -3.6985   -0.7402    2.8220 C   0  0  0  0  0  0  0  0  0  0  0  0
   -2.4895   -1.4751    2.2565 C   0  0  0  0  0  0  0  0  0  0  0  0
   -1.2277   -1.4463    3.1095 C   0  0  0  0  0  0  0  0  0  0  0  0
   -0.9194   -0.3792    3.9735 C   0  0  0  0  0  0  0  0  0  0  0  0
    0.2783   -0.3679    4.6949 C   0  0  0  0  0  0  0  0  0  0  0  0
    1.1771   -1.4227    4.5674 C   0  0  0  0  0  0  0  0  0  0  0  0
    2.6569   -1.3967    5.4387 Cl  0  0  0  0  0  0  0  0  0  0  0  0
    0.8870   -2.4927    3.7268 C   0  0  0  0  0  0  0  0  0  0  0  0
   -0.3023   -2.5011    2.9941 C   0  0  0  0  0  0  0  0  0  0  0  0
   -2.1694   -0.9975    0.8938 N   0  0  0  0  0  0  0  0  0  0  0  0
   -2.7963   -1.4226   -0.2714 C   0  0  0  0  0  0  0  0  0  0  0  0
   -2.2105   -0.7508   -1.3071 C   0  0  0  0  0  0  0  0  0  0  0  0
   -1.2334    0.0557   -0.7528 N   0  0  0  0  0  4  0  0  0  0  0  0
   -0.3424    0.9790   -1.4769 C   0  0  0  0  0  0  0  0  0  0  0  0
    0.9387    0.3157   -2.0379 C   0  0  0  0  0  0  0  0  0  0  0  0
    1.7395    1.3423   -2.6294 O   0  0  0  0  0  0  0  0  0  0  0  0
    2.7394    0.8587   -3.5249 C   0  0  0  0  0  0  0  0  0  0  0  0
    2.9473    1.9000   -4.5922 C   0  0  0  0  0  0  0  0  0  0  0  0
    4.1035    2.6984   -4.5615 C   0  0  0  0  0  0  0  0  0  0  0  0
    4.3221    3.6723   -5.5386 C   0  0  0  0  0  0  0  0  0  0  0  0
    3.3852    3.8602   -6.5517 C   0  0  0  0  0  0  0  0  0  0  0  0
    3.6582    5.0579   -7.7555 Cl  0  0  0  0  0  0  0  0  0  0  0  0
    2.2284    3.0880   -6.5960 C   0  0  0  0  0  0  0  0  0  0  0  0
    2.0095    2.1148   -5.6179 C   0  0  0  0  0  0  0  0  0  0  0  0
    0.5458    1.1950   -5.7122 Cl  0  0  0  0  0  0  0  0  0  0  0  0
    1.7309   -0.4916   -1.0177 C   0  0  0  0  0  0  0  0  0  0  0  0
    1.8531   -1.8795   -1.2340 C   0  0  0  0  0  0  0  0  0  0  0  0
    2.5903   -2.6836   -0.3629 C   0  0  0  0  0  0  0  0  0  0  0  0
    3.2191   -2.1142    0.7378 C   0  0  0  0  0  0  0  0  0  0  0  0
    4.1341   -3.1051    1.8018 Cl  0  0  0  0  0  0  0  0  0  0  0  0
    3.1102   -0.7498    0.9801 C   0  0  0  0  0  0  0  0  0  0  0  0
    2.3744    0.0582    0.1068 C   0  0  0  0  0  0  0  0  0  0  0  0
    2.2967    1.7386    0.4885 Cl  0  0  0  0  0  0  0  0  0  0  0  0
   -1.2287   -0.0925    0.5817 C   0  0  0  0  0  0  0  0  0  0  0  0
   -4.1052    0.5316    2.3799 C   0  0  0  0  0  0  0  0  0  0  0  0
   -5.2199    1.1627    2.9429 C   0  0  0  0  0  0  0  0  0  0  0  0
   -6.1073   -1.2060    5.2151 H   0  0  0  0  0  0  0  0  0  0  0  0
   -4.1510   -2.3290    4.2432 H   0  0  0  0  0  0  0  0  0  0  0  0
   -2.7893   -2.5277    2.1412 H   0  0  0  0  0  0  0  0  0  0  0  0
   -1.6028    0.4586    4.1079 H   0  0  0  0  0  0  0  0  0  0  0  0
    0.5016    0.4631    5.3613 H   0  0  0  0  0  0  0  0  0  0  0  0
    1.5831   -3.3238    3.6407 H   0  0  0  0  0  0  0  0  0  0  0  0
   -0.4984   -3.3468    2.3355 H   0  0  0  0  0  0  0  0  0  0  0  0
   -3.5920   -2.1453   -0.2089 H   0  0  0  0  0  0  0  0  0  0  0  0
   -2.3659   -0.7395   -2.3727 H   0  0  0  0  0  0  0  0  0  0  0  0
   -0.1144    1.8214   -0.8163 H   0  0  0  0  0  0  0  0  0  0  0  0
   -0.9120    1.4196   -2.3062 H   0  0  0  0  0  0  0  0  0  0  0  0
    0.5974   -0.3553   -2.8383 H   0  0  0  0  0  0  0  0  0  0  0  0
    3.6617    0.6847   -2.9586 H   0  0  0  0  0  0  0  0  0  0  0  0
    2.4601   -0.0948   -3.9904 H   0  0  0  0  0  0  0  0  0  0  0  0
    4.8441    2.5711   -3.7734 H   0  0  0  0  0  0  0  0  0  0  0  0
    5.2239    4.2799   -5.5042 H   0  0  0  0  0  0  0  0  0  0  0  0
    1.5022    3.2439   -7.3893 H   0  0  0  0  0  0  0  0  0  0  0  0
    1.3913   -2.3527   -2.0999 H   0  0  0  0  0  0  0  0  0  0  0  0
    2.6851   -3.7500   -0.5579 H   0  0  0  0  0  0  0  0  0  0  0  0
    3.6097   -0.3151    1.8434 H   0  0  0  0  0  0  0  0  0  0  0  0
   -0.5817    0.4395    1.2696 H   0  0  0  0  0  0  0  0  0  0  0  0
   -3.5701    1.0573    1.5936 H   0  0  0  0  0  0  0  0  0  0  0  0
   -5.5256    2.1441    2.5871 H   0  0  0  0  0  0  0  0  0  0  0  0
  1  2  1  0
  2  3  2  0
  3  4  1  0
  4  5  2  0
  5  6  1  0
  6  7  1  0
  7  8  2  0
  8  9  1  0
  9 10  2  0
 10 11  1  0
 10 12  1  0
 12 13  2  0
  6 14  1  0
 14 15  1  0
 15 16  2  0
 16 17  1  0
 17 18  1  0
 18 19  1  0
 19 20  1  0
 20 21  1  0
 21 22  1  0
 22 23  2  0
 23 24  1  0
 24 25  2  0
 25 26  1  0
 25 27  1  0
 27 28  2  0
 28 29  1  0
 19 30  1  0
 30 31  2  0
 31 32  1  0
 32 33  2  0
 33 34  1  0
 33 35  1  0
 35 36  2  0
 36 37  1  0
 17 38  2  0
  5 39  1  0
 39 40  2  0
 40  2  1  0
 13  7  1  0
 38 14  1  0
 28 22  1  0
 36 30  1  0
  3 41  1  0
  4 42  1  0
  6 43  1  0
  8 44  1  0
  9 45  1  0
 12 46  1  0
 13 47  1  0
 15 48  1  0
 16 49  1  0
 18 50  1  0
 18 51  1  0
 19 52  1  0
 21 53  1  0
 21 54  1  0
 23 55  1  0
 24 56  1  0
 27 57  1  0
 31 58  1  0
 32 59  1  0
 35 60  1  0
 38 61  1  0
 39 62  1  0
 40 63  1  0
M  CHG  1  17   1
M  END
$$$$
