
     RDKit          3D

 58 61  0  0  0  0  0  0  0  0999 V2000
    2.4752    0.3679   -1.3300 O   0  0  0  0  0  0  0  0  0  0  0  0
    2.4800    1.0245   -0.2938 C   0  0  0  0  0  0  0  0  0  0  0  0
    3.6085    1.1805    0.4834 N   0  0  0  0  0  0  0  0  0  0  0  0
    4.8932    0.6420    0.0742 C   0  0  0  0  0  0  0  0  0  0  0  0
    4.9994   -0.8709    0.2929 C   0  0  0  0  0  0  0  0  0  0  0  0
    6.3697   -1.3849   -0.0799 C   0  0  0  0  0  0  0  0  0  0  0  0
    7.3765   -1.4980    0.8892 C   0  0  0  0  0  0  0  0  0  0  0  0
    8.6526   -1.9419    0.5331 C   0  0  0  0  0  0  0  0  0  0  0  0
    8.9261   -2.2748   -0.7917 C   0  0  0  0  0  0  0  0  0  0  0  0
   10.4966   -2.8246   -1.2275 Cl  0  0  0  0  0  0  0  0  0  0  0  0
    7.9361   -2.1644   -1.7654 C   0  0  0  0  0  0  0  0  0  0  0  0
    6.6606   -1.7189   -1.4106 C   0  0  0  0  0  0  0  0  0  0  0  0
    1.2513    1.7502    0.2587 C   0  0  0  0  0  0  0  0  0  0  0  0
    0.8594    1.1617    1.6257 C   0  0  0  0  0  0  0  0  0  0  0  0
   -0.6298    1.3260    1.9061 C   0  0  0  0  0  0  0  0  0  0  0  0
   -1.4916    0.5619    0.8835 C   0  0  0  0  0  0  0  0  0  0  0  0
   -2.9174    1.1481    0.8702 C   0  0  0  0  0  0  0  0  0  0  0  0
   -3.8316    0.2522    0.1727 N   0  0  0  0  0  0  0  0  0  0  0  0
   -5.1655    0.5130   -0.1192 C   0  0  0  0  0  0  0  0  0  0  0  0
   -5.5933    1.8151   -0.1546 N   0  0  0  0  0  0  0  0  0  0  0  0
   -6.8662    2.2370   -0.4333 C   0  0  0  0  0  0  0  0  0  0  0  0
   -7.1544    3.8909   -0.4496 S   0  0  0  0  0  0  0  0  0  0  0  0
   -7.8275    1.2984   -0.6791 N   0  0  0  0  0  0  0  0  0  0  0  0
   -7.4657    0.0553   -0.6637 C   0  0  0  0  0  0  0  0  0  0  0  0
   -8.4959   -0.9845   -0.9383 C   0  0  0  0  0  0  0  0  0  0  0  0
   -8.1766   -2.2855   -0.9438 C   0  0  0  0  0  0  0  0  0  0  0  0
   -6.8324   -2.7460   -0.6963 C   0  0  0  0  0  0  0  0  0  0  0  0
   -5.8384   -1.8854   -0.4349 C   0  0  0  0  0  0  0  0  0  0  0  0
   -6.0777   -0.4507   -0.3874 C   0  0  0  0  0  0  0  0  0  0  0  0
   -0.8526    0.5536   -0.5214 C   0  0  0  0  0  0  0  0  0  0  0  0
    0.0802    1.7427   -0.7412 C   0  0  0  0  0  0  0  0  0  0  0  0
    3.5799    1.7986    1.2831 H   0  0  0  0  0  0  0  0  0  0  0  0
    5.6583    1.1687    0.6569 H   0  0  0  0  0  0  0  0  0  0  0  0
    5.0511    0.8922   -0.9826 H   0  0  0  0  0  0  0  0  0  0  0  0
    4.7849   -1.1135    1.3418 H   0  0  0  0  0  0  0  0  0  0  0  0
    4.2389   -1.4038   -0.2922 H   0  0  0  0  0  0  0  0  0  0  0  0
    7.1747   -1.2416    1.9272 H   0  0  0  0  0  0  0  0  0  0  0  0
    9.4252   -2.0277    1.2923 H   0  0  0  0  0  0  0  0  0  0  0  0
    8.1475   -2.4238   -2.7988 H   0  0  0  0  0  0  0  0  0  0  0  0
    5.8932   -1.6325   -2.1783 H   0  0  0  0  0  0  0  0  0  0  0  0
    1.5505    2.7987    0.3918 H   0  0  0  0  0  0  0  0  0  0  0  0
    1.1213    0.0967    1.6801 H   0  0  0  0  0  0  0  0  0  0  0  0
    1.4354    1.6584    2.4162 H   0  0  0  0  0  0  0  0  0  0  0  0
   -0.8776    2.3954    1.8953 H   0  0  0  0  0  0  0  0  0  0  0  0
   -0.8597    0.9660    2.9163 H   0  0  0  0  0  0  0  0  0  0  0  0
   -1.5552   -0.4832    1.2146 H   0  0  0  0  0  0  0  0  0  0  0  0
   -3.2756    1.2800    1.8994 H   0  0  0  0  0  0  0  0  0  0  0  0
   -2.8982    2.1352    0.3916 H   0  0  0  0  0  0  0  0  0  0  0  0
   -3.6494   -0.7277    0.3647 H   0  0  0  0  0  0  0  0  0  0  0  0
   -4.9206    2.5516   -0.0056 H   0  0  0  0  0  0  0  0  0  0  0  0
   -9.5036   -0.6355   -1.1306 H   0  0  0  0  0  0  0  0  0  0  0  0
   -8.9350   -3.0333   -1.1504 H   0  0  0  0  0  0  0  0  0  0  0  0
   -6.6452   -3.8159   -0.7378 H   0  0  0  0  0  0  0  0  0  0  0  0
   -4.8387   -2.2709   -0.2711 H   0  0  0  0  0  0  0  0  0  0  0  0
   -0.2755   -0.3719   -0.6415 H   0  0  0  0  0  0  0  0  0  0  0  0
   -1.6171    0.5360   -1.3057 H   0  0  0  0  0  0  0  0  0  0  0  0
   -0.4982    2.6667   -0.6205 H   0  0  0  0  0  0  0  0  0  0  0  0
    0.4399    1.7464   -1.7753 H   0  0  0  0  0  0  0  0  0  0  0  0
  1  2  2  0
  2  3  1  0
  3  4  1  0
  4  5  1  0
  5  6  1  0
  6  7  2  0
  7  8  1  0
  8  9  2  0
  9 10  1  0
  9 11  1  0
 11 12  2  0
  2 13  1  0
 13 14  1  0
 14 15  1  0
 15 16  1  0
 16 17  1  0
 17 18  1  0
 18 19  1  0
 19 20  1  0
 20 21  1  0
 21 22  2  0
 21 23  1  0
 23 24  2  0
 24 25  1  0
 25 26  2  0
 26 27  1  0
 27 28  2  0
 28 29  1  0
 16 30  1  0
 30 31  1  0
 12  6  1  0
 31 13  1  0
 29 19  2  0
 29 24  1  0
  3 32  1  0
  4 33  1  0
  4 34  1  0
  5 35  1  0
  5 36  1  0
  7 37  1  0
  8 38  1  0
 11 39  1  0
 12 40  1  0
 13 41  1  0
 14 42  1  0
 14 43  1  0
 15 44  1  0
 15 45  1  0
 16 46  1  0
 17 47  1  0
 17 48  1  0
 18 49  1  0
 20 50  1  0
 25 51  1  0
 26 52  1  0
 27 53  1  0
 28 54  1  0
 30 55  1  0
 30 56  1  0
 31 57  1  0
 31 58  1  0
M  END
$$$$
