
     RDKit          3D

 46 48  0  0  0  0  0  0  0  0999 V2000
    4.0926   -1.7552   -3.6132 C   0  0  0  0  0  0  0  0  0  0  0  0
    3.1311   -2.5881   -2.7873 C   0  0  0  0  0  0  0  0  0  0  0  0
    2.9871   -2.0145   -1.4770 O   0  0  0  0  0  0  0  0  0  0  0  0
    3.8756   -2.4406   -0.5412 C   0  0  0  0  0  0  0  0  0  0  0  0
    4.7777   -3.2398   -0.7382 O   0  0  0  0  0  0  0  0  0  0  0  0
    3.5939   -1.8325    0.7940 C   0  0  0  0  0  0  0  0  0  0  0  0
    4.1632   -2.5085    1.8911 C   0  0  0  0  0  0  0  0  0  0  0  0
    3.9821   -2.0414    3.1904 C   0  0  0  0  0  0  0  0  0  0  0  0
    3.2357   -0.8903    3.4053 C   0  0  0  0  0  0  0  0  0  0  0  0
    2.6714   -0.2032    2.3255 C   0  0  0  0  0  0  0  0  0  0  0  0
    2.8372   -0.6545    1.0085 C   0  0  0  0  0  0  0  0  0  0  0  0
    2.2839    0.0472   -0.0906 N   0  0  0  0  0  0  0  0  0  0  0  0
    1.5007    1.1907   -0.0936 C   0  0  0  0  0  0  0  0  0  0  0  0
    1.1384    1.8244    0.8913 O   0  0  0  0  0  0  0  0  0  0  0  0
    1.1189    1.6335   -1.5006 C   0  0  0  0  0  0  0  0  0  0  0  0
    0.0198    0.4010   -2.2725 S   0  0  0  0  0  0  0  0  0  0  0  0
   -1.4497    0.7333   -1.3333 C   0  0  0  0  0  0  0  0  0  0  0  0
   -2.0973   -0.2773   -0.6488 C   0  0  0  0  0  0  0  0  0  0  0  0
   -3.2546    0.0302    0.0688 C   0  0  0  0  0  0  0  0  0  0  0  0
   -3.7333    1.3362    0.0729 C   0  0  0  0  0  0  0  0  0  0  0  0
   -4.9415    1.7709    0.7910 C   0  0  0  0  0  0  0  0  0  0  0  0
   -5.7045    2.8669    0.3574 C   0  0  0  0  0  0  0  0  0  0  0  0
   -6.8500    3.2604    1.0490 C   0  0  0  0  0  0  0  0  0  0  0  0
   -7.2137    2.5447    2.1738 C   0  0  0  0  0  0  0  0  0  0  0  0
   -6.5180    1.4885    2.6400 N   0  0  0  0  0  0  0  0  0  0  0  0
   -5.4049    1.1378    1.9460 C   0  0  0  0  0  0  0  0  0  0  0  0
   -3.0806    2.2893   -0.6327 N   0  0  0  0  0  0  0  0  0  0  0  0
   -1.9351    1.9883   -1.3380 N   0  0  0  0  0  0  0  0  0  0  0  0
    3.7574   -0.7144   -3.6615 H   0  0  0  0  0  0  0  0  0  0  0  0
    5.0911   -1.7476   -3.1632 H   0  0  0  0  0  0  0  0  0  0  0  0
    4.1707   -2.1480   -4.6310 H   0  0  0  0  0  0  0  0  0  0  0  0
    3.4471   -3.6355   -2.7342 H   0  0  0  0  0  0  0  0  0  0  0  0
    2.1394   -2.5750   -3.2507 H   0  0  0  0  0  0  0  0  0  0  0  0
    4.7541   -3.4100    1.7347 H   0  0  0  0  0  0  0  0  0  0  0  0
    4.4235   -2.5735    4.0299 H   0  0  0  0  0  0  0  0  0  0  0  0
    3.0908   -0.5154    4.4162 H   0  0  0  0  0  0  0  0  0  0  0  0
    2.1056    0.6947    2.5558 H   0  0  0  0  0  0  0  0  0  0  0  0
    2.4200   -0.3965   -0.9969 H   0  0  0  0  0  0  0  0  0  0  0  0
    2.0302    1.7204   -2.1017 H   0  0  0  0  0  0  0  0  0  0  0  0
    0.6527    2.6224   -1.4675 H   0  0  0  0  0  0  0  0  0  0  0  0
   -1.7182   -1.2936   -0.6603 H   0  0  0  0  0  0  0  0  0  0  0  0
   -3.7714   -0.7639    0.5969 H   0  0  0  0  0  0  0  0  0  0  0  0
   -5.4090    3.4236   -0.5305 H   0  0  0  0  0  0  0  0  0  0  0  0
   -7.4387    4.1066    0.7146 H   0  0  0  0  0  0  0  0  0  0  0  0
   -8.0976    2.8096    2.7468 H   0  0  0  0  0  0  0  0  0  0  0  0
   -4.8736    0.2983    2.3867 H   0  0  0  0  0  0  0  0  0  0  0  0
  1  2  1  0
  2  3  1  0
  3  4  1  0
  4  5  2  0
  4  6  1  0
  6  7  2  0
  7  8  1  0
  8  9  2  0
  9 10  1  0
 10 11  2  0
 11 12  1  0
 12 13  1  0
 13 14  2  0
 13 15  1  0
 15 16  1  0
 16 17  1  0
 17 18  2  0
 18 19  1  0
 19 20  2  0
 20 21  1  0
 21 22  2  0
 22 23  1  0
 23 24  2  0
 24 25  1  0
 25 26  2  0
 20 27  1  0
 27 28  2  0
 11  6  1  0
 28 17  1  0
 26 21  1  0
  1 29  1  0
  1 30  1  0
  1 31  1  0
  2 32  1  0
  2 33  1  0
  7 34  1  0
  8 35  1  0
  9 36  1  0
 10 37  1  0
 12 38  1  0
 15 39  1  0
 15 40  1  0
 18 41  1  0
 19 42  1  0
 22 43  1  0
 23 44  1  0
 24 45  1  0
 26 46  1  0
M  END
$$$$
