
     RDKit          3D

 43 44  0  0  0  0  0  0  0  0999 V2000
   -3.8551    1.6458    3.9623 C   0  0  0  0  0  0  0  0  0  0  0  0
   -4.0982    2.1962    2.5697 C   0  0  0  0  0  0  0  0  0  0  0  0
   -3.9930    1.1457    1.5981 O   0  0  0  0  0  0  0  0  0  0  0  0
   -2.7427    0.8841    1.1256 C   0  0  0  0  0  0  0  0  0  0  0  0
   -1.7345    1.4878    1.4854 O   0  0  0  0  0  0  0  0  0  0  0  0
   -2.6979   -0.2011    0.1349 C   0  0  0  0  0  0  0  0  0  0  0  0
   -1.4957   -0.5877   -0.4481 C   0  0  0  0  0  0  0  0  0  0  0  0
   -0.2483   -0.0340   -0.1876 N   0  0  0  0  0  0  0  0  0  0  0  0
    0.9733   -0.3872   -0.7444 C   0  0  0  0  0  0  0  0  0  0  0  0
    1.1851   -1.2611   -1.5790 O   0  0  0  0  0  0  0  0  0  0  0  0
    2.1059    0.4760   -0.1793 C   0  0  0  0  0  0  0  0  0  0  0  0
    3.3595    0.1107   -0.7531 O   0  0  0  0  0  0  0  0  0  0  0  0
    4.4082    0.8325   -0.3006 C   0  0  0  0  0  0  0  0  0  0  0  0
    4.3520    1.7299    0.5248 O   0  0  0  0  0  0  0  0  0  0  0  0
    5.6662    0.3845   -0.9503 C   0  0  0  0  0  0  0  0  0  0  0  0
    5.6946   -0.6463   -1.8916 C   0  0  0  0  0  0  0  0  0  0  0  0
    6.9171   -0.9896   -2.4394 C   0  0  0  0  0  0  0  0  0  0  0  0
    8.0804   -0.3851   -2.1154 N   0  0  0  0  0  0  0  0  0  0  0  0
    8.0244    0.6082   -1.2029 C   0  0  0  0  0  0  0  0  0  0  0  0
    6.8544    1.0264   -0.5972 C   0  0  0  0  0  0  0  0  0  0  0  0
   -1.6854   -1.8496   -1.5550 S   0  0  0  0  0  0  0  0  0  0  0  0
   -3.3669   -1.9348   -1.3045 C   0  0  0  0  0  0  0  0  0  0  0  0
   -4.1668   -2.9448   -2.0635 C   0  0  0  0  0  0  0  0  0  0  0  0
   -3.8059   -1.0030   -0.3743 C   0  0  0  0  0  0  0  0  0  0  0  0
   -5.2387   -0.8547    0.0416 C   0  0  0  0  0  0  0  0  0  0  0  0
   -4.5447    0.8225    4.1757 H   0  0  0  0  0  0  0  0  0  0  0  0
   -2.8413    1.2438    4.0548 H   0  0  0  0  0  0  0  0  0  0  0  0
   -3.9918    2.4255    4.7169 H   0  0  0  0  0  0  0  0  0  0  0  0
   -3.4172    3.0234    2.3392 H   0  0  0  0  0  0  0  0  0  0  0  0
   -5.1171    2.5915    2.5033 H   0  0  0  0  0  0  0  0  0  0  0  0
   -0.2579    0.7203    0.4996 H   0  0  0  0  0  0  0  0  0  0  0  0
    1.8854    1.5241   -0.4141 H   0  0  0  0  0  0  0  0  0  0  0  0
    2.1404    0.3252    0.9062 H   0  0  0  0  0  0  0  0  0  0  0  0
    4.7979   -1.1750   -2.1983 H   0  0  0  0  0  0  0  0  0  0  0  0
    6.9970   -1.7843   -3.1763 H   0  0  0  0  0  0  0  0  0  0  0  0
    8.9770    1.0733   -0.9648 H   0  0  0  0  0  0  0  0  0  0  0  0
    6.8701    1.8313    0.1304 H   0  0  0  0  0  0  0  0  0  0  0  0
   -3.5507   -3.5497   -2.7368 H   0  0  0  0  0  0  0  0  0  0  0  0
   -4.9291   -2.4442   -2.6698 H   0  0  0  0  0  0  0  0  0  0  0  0
   -4.6695   -3.6267   -1.3696 H   0  0  0  0  0  0  0  0  0  0  0  0
   -5.3448   -1.0309    1.1168 H   0  0  0  0  0  0  0  0  0  0  0  0
   -5.8918   -1.5681   -0.4700 H   0  0  0  0  0  0  0  0  0  0  0  0
   -5.6039    0.1492   -0.1974 H   0  0  0  0  0  0  0  0  0  0  0  0
  1  2  1  0
  2  3  1  0
  3  4  1  0
  4  5  2  0
  4  6  1  0
  6  7  2  0
  7  8  1  0
  8  9  1  0
  9 10  2  0
  9 11  1  0
 11 12  1  0
 12 13  1  0
 13 14  2  0
 13 15  1  0
 15 16  2  0
 16 17  1  0
 17 18  2  0
 18 19  1  0
 19 20  2  0
  7 21  1  0
 21 22  1  0
 22 23  1  0
 22 24  2  0
 24 25  1  0
 24  6  1  0
 20 15  1  0
  1 26  1  0
  1 27  1  0
  1 28  1  0
  2 29  1  0
  2 30  1  0
  8 31  1  0
 11 32  1  0
 11 33  1  0
 16 34  1  0
 17 35  1  0
 19 36  1  0
 20 37  1  0
 23 38  1  0
 23 39  1  0
 23 40  1  0
 25 41  1  0
 25 42  1  0
 25 43  1  0
M  END
$$$$
