
     RDKit          3D

 46 49  0  0  0  0  0  0  0  0999 V2000
   -3.3213   -4.6460    0.3958 N   0  0  0  0  0  0  0  0  0  0  0  0
   -3.7904   -3.6703   -0.4061 C   0  0  0  0  0  0  0  0  0  0  0  0
   -5.0104   -3.6617   -0.9406 N   0  0  0  0  0  0  0  0  0  0  0  0
   -5.0852   -2.4869   -1.6787 O   0  0  0  0  0  0  0  0  0  0  0  0
   -3.8878   -1.7766   -1.6202 N   0  0  0  0  0  0  0  0  0  0  0  0
   -3.1116   -2.5090   -0.8226 C   0  0  0  0  0  0  0  0  0  0  0  0
   -1.7790   -2.1225   -0.5289 N   0  0  0  0  0  0  0  0  0  0  0  0
   -0.9340   -2.9720    0.1287 N   0  0  0  0  0  0  0  0  0  0  0  0
    0.2634   -2.4252    0.2078 N   0  0  0  0  0  0  0  0  0  0  0  0
    0.2057   -1.1839   -0.3655 C   0  0  0  0  0  0  0  0  0  0  0  0
    1.3644   -0.2931   -0.4105 C   0  0  0  0  0  0  0  0  0  0  0  0
    1.3291    0.7973   -0.9699 O   0  0  0  0  0  0  0  0  0  0  0  0
    2.4652   -0.8317    0.2514 N   0  0  0  0  0  0  0  0  0  0  0  0
    3.6177   -0.1606    0.5723 N   0  0  0  0  0  0  0  0  0  0  0  0
    4.0946    0.6869   -0.2881 C   0  0  0  0  0  0  0  0  0  0  0  0
    5.3039    1.4895    0.0150 C   0  0  0  0  0  0  0  0  0  0  0  0
    5.8643    1.4096    1.3007 C   0  0  0  0  0  0  0  0  0  0  0  0
    6.9994    2.1547    1.6272 C   0  0  0  0  0  0  0  0  0  0  0  0
    7.5853    2.9835    0.6732 C   0  0  0  0  0  0  0  0  0  0  0  0
    7.0341    3.0698   -0.6068 C   0  0  0  0  0  0  0  0  0  0  0  0
    5.8943    2.3267   -0.9408 C   0  0  0  0  0  0  0  0  0  0  0  0
    5.2916    2.4942   -2.5519 Cl  0  0  0  0  0  0  0  0  0  0  0  0
   -1.0845   -0.9514   -0.8199 C   0  0  0  0  0  0  0  0  0  0  0  0
   -1.6687    0.2822   -1.4055 C   0  0  0  0  0  0  0  0  0  0  0  0
   -1.9067    1.1900   -0.3204 O   0  0  0  0  0  0  0  0  0  0  0  0
   -3.1569    1.0822    0.2249 C   0  0  0  0  0  0  0  0  0  0  0  0
   -3.2400    0.6992    1.5644 C   0  0  0  0  0  0  0  0  0  0  0  0
   -4.4879    0.5928    2.1779 C   0  0  0  0  0  0  0  0  0  0  0  0
   -5.6354    0.8903    1.4490 C   0  0  0  0  0  0  0  0  0  0  0  0
   -6.8332    0.7950    2.0416 F   0  0  0  0  0  0  0  0  0  0  0  0
   -5.5573    1.3026    0.1214 C   0  0  0  0  0  0  0  0  0  0  0  0
   -4.3086    1.4105   -0.4933 C   0  0  0  0  0  0  0  0  0  0  0  0
   -3.8241   -5.5278    0.4295 H   0  0  0  0  0  0  0  0  0  0  0  0
   -2.3239   -4.7267    0.5886 H   0  0  0  0  0  0  0  0  0  0  0  0
    2.2814   -1.6442    0.8363 H   0  0  0  0  0  0  0  0  0  0  0  0
    3.6404    0.8180   -1.2826 H   0  0  0  0  0  0  0  0  0  0  0  0
    5.4165    0.7698    2.0589 H   0  0  0  0  0  0  0  0  0  0  0  0
    7.4225    2.0885    2.6282 H   0  0  0  0  0  0  0  0  0  0  0  0
    8.4694    3.5648    0.9263 H   0  0  0  0  0  0  0  0  0  0  0  0
    7.5003    3.7213   -1.3427 H   0  0  0  0  0  0  0  0  0  0  0  0
   -2.5443    0.1289   -2.0373 H   0  0  0  0  0  0  0  0  0  0  0  0
   -0.9348    0.7612   -2.0638 H   0  0  0  0  0  0  0  0  0  0  0  0
   -2.3346    0.4873    2.1275 H   0  0  0  0  0  0  0  0  0  0  0  0
   -4.5728    0.2927    3.2182 H   0  0  0  0  0  0  0  0  0  0  0  0
   -6.4672    1.5442   -0.4203 H   0  0  0  0  0  0  0  0  0  0  0  0
   -4.2430    1.7560   -1.5207 H   0  0  0  0  0  0  0  0  0  0  0  0
  1  2  1  0
  2  3  2  0
  3  4  1  0
  4  5  1  0
  5  6  2  0
  6  7  1  0
  7  8  1  0
  8  9  2  0
  9 10  1  0
 10 11  1  0
 11 12  2  0
 11 13  1  0
 13 14  1  0
 14 15  2  3
 15 16  1  0
 16 17  2  0
 17 18  1  0
 18 19  2  0
 19 20  1  0
 20 21  2  0
 21 22  1  0
 10 23  2  0
 23 24  1  0
 24 25  1  0
 25 26  1  0
 26 27  2  0
 27 28  1  0
 28 29  2  0
 29 30  1  0
 29 31  1  0
 31 32  2  0
  6  2  1  0
 23  7  1  0
 32 26  1  0
 21 16  1  0
  1 33  1  0
  1 34  1  0
 13 35  1  0
 15 36  1  0
 17 37  1  0
 18 38  1  0
 19 39  1  0
 20 40  1  0
 24 41  1  0
 24 42  1  0
 27 43  1  0
 28 44  1  0
 31 45  1  0
 32 46  1  0
M  END
$$$$
