
     RDKit          3D

 42 46  0  0  0  0  0  0  0  0999 V2000
   -0.6893   -0.2277    1.4910 O   0  0  0  0  0  0  0  0  0  0  0  0
   -1.3580   -0.2184    0.4551 C   0  0  0  0  0  0  0  0  0  0  0  0
   -2.3021   -1.3405    0.2270 C   0  0  0  0  0  0  0  0  0  0  0  0
   -2.4388   -1.9381   -1.0306 C   0  0  0  0  0  0  0  0  0  0  0  0
   -3.3331   -2.9965   -1.2019 C   0  0  0  0  0  0  0  0  0  0  0  0
   -4.0808   -3.4637   -0.1204 C   0  0  0  0  0  0  0  0  0  0  0  0
   -3.9298   -2.8827    1.1387 C   0  0  0  0  0  0  0  0  0  0  0  0
   -3.0364   -1.8257    1.3157 C   0  0  0  0  0  0  0  0  0  0  0  0
   -1.2805    0.8919   -0.6282 C   0  0  0  0  0  0  0  0  0  0  0  0
   -1.7598    2.1491   -0.1386 O   0  0  0  0  0  0  0  0  0  0  0  0
   -0.8982    2.7942    0.7053 C   0  0  0  0  0  0  0  0  0  0  0  0
   -1.4615    3.6449    1.6549 C   0  0  0  0  0  0  0  0  0  0  0  0
   -0.6390    4.3327    2.5454 C   0  0  0  0  0  0  0  0  0  0  0  0
    0.7447    4.1798    2.4731 C   0  0  0  0  0  0  0  0  0  0  0  0
    1.3073    3.3456    1.5047 C   0  0  0  0  0  0  0  0  0  0  0  0
    0.4864    2.6431    0.6110 C   0  0  0  0  0  0  0  0  0  0  0  0
    1.0535    1.8157   -0.4978 C   0  0  0  0  0  0  0  0  0  0  0  0
    2.1369    0.8172   -0.1354 C   0  0  0  0  0  0  0  0  0  0  0  0
    1.8199   -0.2520   -1.1461 C   0  0  0  0  0  0  0  0  0  0  0  0
    2.7458   -1.3264   -1.4205 C   0  0  0  0  0  0  0  0  0  0  0  0
    3.9743   -1.5786   -0.8369 C   0  0  0  0  0  0  0  0  0  0  0  0
    4.6063   -2.7408   -1.3696 C   0  0  0  0  0  0  0  0  0  0  0  0
    3.8410   -3.3411   -2.3426 C   0  0  0  0  0  0  0  0  0  0  0  0
    2.3730   -2.5080   -2.6067 S   0  0  0  0  0  0  0  0  0  0  0  0
    0.6356   -0.1573   -1.6827 N   0  0  0  0  0  0  0  0  0  0  0  0
    0.0628    1.0103   -1.2008 N   0  0  0  0  0  0  0  0  0  0  0  0
   -1.8378   -1.6148   -1.8780 H   0  0  0  0  0  0  0  0  0  0  0  0
   -3.4379   -3.4655   -2.1775 H   0  0  0  0  0  0  0  0  0  0  0  0
   -4.7732   -4.2911   -0.2565 H   0  0  0  0  0  0  0  0  0  0  0  0
   -4.5024   -3.2570    1.9836 H   0  0  0  0  0  0  0  0  0  0  0  0
   -2.9123   -1.3819    2.3015 H   0  0  0  0  0  0  0  0  0  0  0  0
   -1.9381    0.6355   -1.4640 H   0  0  0  0  0  0  0  0  0  0  0  0
   -2.5400    3.7622    1.7080 H   0  0  0  0  0  0  0  0  0  0  0  0
   -1.0771    4.9873    3.2940 H   0  0  0  0  0  0  0  0  0  0  0  0
    1.3861    4.7191    3.1656 H   0  0  0  0  0  0  0  0  0  0  0  0
    2.3896    3.2603    1.4474 H   0  0  0  0  0  0  0  0  0  0  0  0
    1.4458    2.5065   -1.2575 H   0  0  0  0  0  0  0  0  0  0  0  0
    2.0250    0.4011    0.8712 H   0  0  0  0  0  0  0  0  0  0  0  0
    3.1424    1.2273   -0.2593 H   0  0  0  0  0  0  0  0  0  0  0  0
    4.4087   -0.9660   -0.0561 H   0  0  0  0  0  0  0  0  0  0  0  0
    5.5711   -3.1181   -1.0529 H   0  0  0  0  0  0  0  0  0  0  0  0
    4.0699   -4.2317   -2.9118 H   0  0  0  0  0  0  0  0  0  0  0  0
  1  2  2  0
  2  3  1  0
  3  4  2  0
  4  5  1  0
  5  6  2  0
  6  7  1  0
  7  8  2  0
  2  9  1  0
  9 10  1  0
 10 11  1  0
 11 12  2  0
 12 13  1  0
 13 14  2  0
 14 15  1  0
 15 16  2  0
 16 17  1  0
 17 18  1  0
 18 19  1  0
 19 20  1  0
 20 21  2  0
 21 22  1  0
 22 23  2  0
 23 24  1  0
 19 25  2  0
 25 26  1  0
  8  3  1  0
 26  9  1  0
 16 11  1  0
 26 17  1  0
 24 20  1  0
  4 27  1  0
  5 28  1  0
  6 29  1  0
  7 30  1  0
  8 31  1  0
  9 32  1  0
 12 33  1  0
 13 34  1  0
 14 35  1  0
 15 36  1  0
 17 37  1  0
 18 38  1  0
 18 39  1  0
 21 40  1  0
 22 41  1  0
 23 42  1  0
M  END
$$$$
