
     RDKit          3D

 46 49  0  0  0  0  0  0  0  0999 V2000
   -2.6400   -5.5134   -1.6940 N   0  0  0  0  0  0  0  0  0  0  0  0
   -3.3559   -4.5904   -1.0246 C   0  0  0  0  0  0  0  0  0  0  0  0
   -4.6628   -4.6851   -0.7836 N   0  0  0  0  0  0  0  0  0  0  0  0
   -4.9921   -3.5431   -0.0620 O   0  0  0  0  0  0  0  0  0  0  0  0
   -3.8751   -2.7363    0.1452 N   0  0  0  0  0  0  0  0  0  0  0  0
   -2.8840   -3.3875   -0.4640 C   0  0  0  0  0  0  0  0  0  0  0  0
   -1.5634   -2.8689   -0.4879 N   0  0  0  0  0  0  0  0  0  0  0  0
   -0.5484   -3.5493   -1.0995 N   0  0  0  0  0  0  0  0  0  0  0  0
    0.5732   -2.8642   -0.9756 N   0  0  0  0  0  0  0  0  0  0  0  0
    0.3019   -1.7155   -0.2819 C   0  0  0  0  0  0  0  0  0  0  0  0
    1.3369   -0.7250    0.0140 C   0  0  0  0  0  0  0  0  0  0  0  0
    1.1028    0.2854    0.6701 O   0  0  0  0  0  0  0  0  0  0  0  0
    2.5690   -1.0726   -0.5318 N   0  0  0  0  0  0  0  0  0  0  0  0
    3.6863   -0.2805   -0.5982 N   0  0  0  0  0  0  0  0  0  0  0  0
    3.9236    0.5492    0.3653 C   0  0  0  0  0  0  0  0  0  0  0  0
    5.0630    1.4978    0.3683 C   0  0  0  0  0  0  0  0  0  0  0  0
    5.0048    2.5018    1.3515 C   0  0  0  0  0  0  0  0  0  0  0  0
    6.0140    3.4612    1.4520 C   0  0  0  0  0  0  0  0  0  0  0  0
    7.0924    3.4269    0.5742 C   0  0  0  0  0  0  0  0  0  0  0  0
    7.1618    2.4319   -0.4017 C   0  0  0  0  0  0  0  0  0  0  0  0
    6.1535    1.4631   -0.5117 C   0  0  0  0  0  0  0  0  0  0  0  0
    6.3802    0.2669   -1.7373 Cl  0  0  0  0  0  0  0  0  0  0  0  0
   -1.0469   -1.6877    0.0397 C   0  0  0  0  0  0  0  0  0  0  0  0
   -1.8501   -0.6553    0.7403 C   0  0  0  0  0  0  0  0  0  0  0  0
   -2.5590    0.0343   -0.2843 O   0  0  0  0  0  0  0  0  0  0  0  0
   -3.4270    1.0158    0.1067 C   0  0  0  0  0  0  0  0  0  0  0  0
   -4.1566    1.5946   -0.9384 C   0  0  0  0  0  0  0  0  0  0  0  0
   -5.0794    2.6098   -0.6833 C   0  0  0  0  0  0  0  0  0  0  0  0
   -5.2677    3.0450    0.6213 C   0  0  0  0  0  0  0  0  0  0  0  0
   -6.1512    4.0196    0.8726 F   0  0  0  0  0  0  0  0  0  0  0  0
   -4.5498    2.4837    1.6706 C   0  0  0  0  0  0  0  0  0  0  0  0
   -3.6253    1.4661    1.4146 C   0  0  0  0  0  0  0  0  0  0  0  0
   -1.6939   -5.3178   -2.0174 H   0  0  0  0  0  0  0  0  0  0  0  0
   -3.1278   -6.2289   -2.2229 H   0  0  0  0  0  0  0  0  0  0  0  0
    2.5672   -1.8369   -1.2052 H   0  0  0  0  0  0  0  0  0  0  0  0
    3.2853    0.5914    1.2638 H   0  0  0  0  0  0  0  0  0  0  0  0
    4.1651    2.5543    2.0424 H   0  0  0  0  0  0  0  0  0  0  0  0
    5.9551    4.2363    2.2128 H   0  0  0  0  0  0  0  0  0  0  0  0
    7.8807    4.1725    0.6475 H   0  0  0  0  0  0  0  0  0  0  0  0
    8.0134    2.4132   -1.0789 H   0  0  0  0  0  0  0  0  0  0  0  0
   -1.2039    0.0433    1.2795 H   0  0  0  0  0  0  0  0  0  0  0  0
   -2.5273   -1.1110    1.4705 H   0  0  0  0  0  0  0  0  0  0  0  0
   -4.0047    1.2494   -1.9583 H   0  0  0  0  0  0  0  0  0  0  0  0
   -5.6475    3.0595   -1.4907 H   0  0  0  0  0  0  0  0  0  0  0  0
   -4.7125    2.8423    2.6821 H   0  0  0  0  0  0  0  0  0  0  0  0
   -3.0783    1.0541    2.2558 H   0  0  0  0  0  0  0  0  0  0  0  0
  1  2  1  0
  2  3  2  0
  3  4  1  0
  4  5  1  0
  5  6  2  0
  6  7  1  0
  7  8  1  0
  8  9  2  0
  9 10  1  0
 10 11  1  0
 11 12  2  0
 11 13  1  0
 13 14  1  0
 14 15  2  3
 15 16  1  0
 16 17  2  0
 17 18  1  0
 18 19  2  0
 19 20  1  0
 20 21  2  0
 21 22  1  0
 10 23  2  0
 23 24  1  0
 24 25  1  0
 25 26  1  0
 26 27  2  0
 27 28  1  0
 28 29  2  0
 29 30  1  0
 29 31  1  0
 31 32  2  0
  6  2  1  0
 23  7  1  0
 32 26  1  0
 21 16  1  0
  1 33  1  0
  1 34  1  0
 13 35  1  0
 15 36  1  0
 17 37  1  0
 18 38  1  0
 19 39  1  0
 20 40  1  0
 24 41  1  0
 24 42  1  0
 27 43  1  0
 28 44  1  0
 31 45  1  0
 32 46  1  0
M  END
$$$$
