
     RDKit          3D

 55 58  0  0  0  0  0  0  0  0999 V2000
   -4.0644    0.2775    2.4717 C   0  0  0  0  0  0  0  0  0  0  0  0
   -2.8927    0.7335    1.5994 C   0  0  0  0  0  0  0  0  0  0  0  0
   -2.7273    2.2533    1.6125 C   0  0  0  0  0  0  0  0  0  0  0  0
   -2.9584    0.1962    0.2434 N   0  0  0  0  0  0  0  0  0  0  0  0
   -2.0311   -0.6590   -0.3267 C   0  0  0  0  0  0  0  0  0  0  0  0
   -0.8752   -1.0087    0.3094 N   0  0  0  0  0  0  0  0  0  0  0  0
   -0.4129   -2.3898    0.0151 C   0  0  0  0  0  0  0  0  0  0  0  0
    0.7476   -2.4052   -1.0023 C   0  0  0  0  0  0  0  0  0  0  0  0
    1.9628   -1.6682   -0.5675 N   0  0  0  0  0  0  0  0  0  0  0  0
    2.9683   -2.5967    0.0092 C   0  0  0  0  0  0  0  0  0  0  0  0
    4.3211   -1.8983    0.1935 C   0  0  0  0  0  0  0  0  0  0  0  0
    5.0601   -2.1273    1.1464 O   0  0  0  0  0  0  0  0  0  0  0  0
    4.6350   -1.0383   -0.8372 N   0  0  0  0  0  0  0  0  0  0  0  0
    5.7645   -0.1454   -0.7718 C   0  0  0  0  0  0  0  0  0  0  0  0
    5.3252    1.1314   -0.1256 C   0  0  0  0  0  0  0  0  0  0  0  0
    5.3068    1.4414    1.2211 C   0  0  0  0  0  0  0  0  0  0  0  0
    4.8143    2.7543    1.4697 C   0  0  0  0  0  0  0  0  0  0  0  0
    4.4719    3.4041    0.3053 C   0  0  0  0  0  0  0  0  0  0  0  0
    4.7415    2.4329   -1.0761 S   0  0  0  0  0  0  0  0  0  0  0  0
    1.5989   -0.6139    0.4187 C   0  0  0  0  0  0  0  0  0  0  0  0
    0.2060    0.0050    0.1705 C   0  0  0  0  0  0  0  0  0  0  0  0
   -2.4283   -1.0706   -1.5083 N   0  0  0  0  0  0  0  0  0  0  0  0
   -3.6100   -0.4253   -1.7498 C   0  0  0  0  0  0  0  0  0  0  0  0
   -4.4356   -0.4919   -2.8830 C   0  0  0  0  0  0  0  0  0  0  0  0
   -5.6090    0.2683   -2.9120 C   0  0  0  0  0  0  0  0  0  0  0  0
   -5.9544    1.0791   -1.8319 C   0  0  0  0  0  0  0  0  0  0  0  0
   -5.1443    1.1555   -0.6922 C   0  0  0  0  0  0  0  0  0  0  0  0
   -3.9706    0.3878   -0.6778 C   0  0  0  0  0  0  0  0  0  0  0  0
   -3.9005    0.5707    3.5144 H   0  0  0  0  0  0  0  0  0  0  0  0
   -5.0149    0.7152    2.1546 H   0  0  0  0  0  0  0  0  0  0  0  0
   -4.1719   -0.8124    2.4423 H   0  0  0  0  0  0  0  0  0  0  0  0
   -1.9946    0.3145    2.0665 H   0  0  0  0  0  0  0  0  0  0  0  0
   -1.8814    2.5610    0.9882 H   0  0  0  0  0  0  0  0  0  0  0  0
   -2.5400    2.6095    2.6313 H   0  0  0  0  0  0  0  0  0  0  0  0
   -3.6175    2.7692    1.2415 H   0  0  0  0  0  0  0  0  0  0  0  0
   -0.0774   -2.8414    0.9574 H   0  0  0  0  0  0  0  0  0  0  0  0
   -1.2321   -3.0262   -0.3439 H   0  0  0  0  0  0  0  0  0  0  0  0
    0.4033   -1.9352   -1.9326 H   0  0  0  0  0  0  0  0  0  0  0  0
    0.9883   -3.4414   -1.2689 H   0  0  0  0  0  0  0  0  0  0  0  0
    2.6360   -3.0074    0.9695 H   0  0  0  0  0  0  0  0  0  0  0  0
    3.1539   -3.4318   -0.6774 H   0  0  0  0  0  0  0  0  0  0  0  0
    3.8461   -0.7786   -1.4234 H   0  0  0  0  0  0  0  0  0  0  0  0
    6.5770   -0.6073   -0.2005 H   0  0  0  0  0  0  0  0  0  0  0  0
    6.1173    0.0192   -1.7950 H   0  0  0  0  0  0  0  0  0  0  0  0
    5.6288    0.7478    1.9906 H   0  0  0  0  0  0  0  0  0  0  0  0
    4.7180    3.1987    2.4527 H   0  0  0  0  0  0  0  0  0  0  0  0
    4.0766    4.4047    0.1967 H   0  0  0  0  0  0  0  0  0  0  0  0
    1.6110   -1.0166    1.4406 H   0  0  0  0  0  0  0  0  0  0  0  0
    2.3452    0.1859    0.3779 H   0  0  0  0  0  0  0  0  0  0  0  0
    0.0434    0.8077    0.8986 H   0  0  0  0  0  0  0  0  0  0  0  0
    0.1894    0.4592   -0.8301 H   0  0  0  0  0  0  0  0  0  0  0  0
   -4.1567   -1.1249   -3.7178 H   0  0  0  0  0  0  0  0  0  0  0  0
   -6.2546    0.2244   -3.7856 H   0  0  0  0  0  0  0  0  0  0  0  0
   -6.8715    1.6631   -1.8739 H   0  0  0  0  0  0  0  0  0  0  0  0
   -5.4308    1.7910    0.1374 H   0  0  0  0  0  0  0  0  0  0  0  0
  1  2  1  0
  2  3  1  0
  2  4  1  0
  4  5  1  0
  5  6  1  0
  6  7  1  0
  7  8  1  0
  8  9  1  0
  9 10  1  0
 10 11  1  0
 11 12  2  0
 11 13  1  0
 13 14  1  0
 14 15  1  0
 15 16  2  0
 16 17  1  0
 17 18  2  0
 18 19  1  0
  9 20  1  0
 20 21  1  0
  5 22  2  0
 22 23  1  0
 23 24  2  0
 24 25  1  0
 25 26  2  0
 26 27  1  0
 27 28  2  0
 28  4  1  0
 21  6  1  0
 28 23  1  0
 19 15  1  0
  1 29  1  0
  1 30  1  0
  1 31  1  0
  2 32  1  0
  3 33  1  0
  3 34  1  0
  3 35  1  0
  7 36  1  0
  7 37  1  0
  8 38  1  0
  8 39  1  0
 10 40  1  0
 10 41  1  0
 13 42  1  0
 14 43  1  0
 14 44  1  0
 16 45  1  0
 17 46  1  0
 18 47  1  0
 20 48  1  0
 20 49  1  0
 21 50  1  0
 21 51  1  0
 24 52  1  0
 25 53  1  0
 26 54  1  0
 27 55  1  0
M  END
$$$$
