
     RDKit          3D

 54 56  0  0  0  0  0  0  0  0999 V2000
   -3.6297   -0.9344    3.3319 C   0  0  0  0  0  0  0  0  0  0  0  0
   -3.6413   -1.4989    1.9337 C   0  0  0  0  0  0  0  0  0  0  0  0
   -4.2321   -2.7676    1.7942 C   0  0  0  0  0  0  0  0  0  0  0  0
   -4.4200   -3.3353    0.5435 C   0  0  0  0  0  0  0  0  0  0  0  0
   -4.0194   -2.6399   -0.5898 C   0  0  0  0  0  0  0  0  0  0  0  0
   -3.3855   -1.3794   -0.5008 C   0  0  0  0  0  0  0  0  0  0  0  0
   -2.9819   -0.7598   -1.8396 C   0  0  0  0  0  0  0  0  0  0  0  0
   -3.7918    0.4914   -2.1909 C   0  0  0  0  0  0  0  0  0  0  0  0
   -1.4749   -0.5409   -1.9866 C   0  0  0  0  0  0  0  0  0  0  0  0
   -3.1534   -0.8224    0.7874 C   0  0  0  0  0  0  0  0  0  0  0  0
   -2.5039    0.4335    0.8852 N   0  0  0  0  0  0  0  0  0  0  0  0
   -1.5641    0.7958    1.8412 C   0  0  0  0  0  0  0  0  0  0  0  0
   -1.0638    0.0466    2.6773 O   0  0  0  0  0  0  0  0  0  0  0  0
   -1.1611    2.2639    1.7480 C   0  0  0  0  0  0  0  0  0  0  0  0
    0.3150    2.3781    1.5162 C   0  0  0  0  0  0  0  0  0  0  0  0
    1.3098    2.6223    2.4427 C   0  0  0  0  0  0  0  0  0  0  0  0
    2.6056    2.6377    1.8502 C   0  0  0  0  0  0  0  0  0  0  0  0
    2.5624    2.4007    0.4906 C   0  0  0  0  0  0  0  0  0  0  0  0
    3.8359    2.2359   -0.7367 S   0  0  0  0  0  6  0  0  0  0  0  0
    5.0820    2.3396   -0.0056 O   0  0  0  0  0  0  0  0  0  0  0  0
    3.5010    3.1739   -1.7855 O   0  0  0  0  0  0  0  0  0  0  0  0
    3.7441    0.6583   -1.3760 N   0  0  0  0  0  0  0  0  0  0  0  0
    3.8729   -0.4413   -0.3646 C   0  0  0  0  0  0  0  0  0  0  0  0
    4.2227   -1.7627   -1.0544 C   0  0  0  0  0  0  0  0  0  0  0  0
    5.4859   -1.7253   -1.7327 O   0  0  0  0  0  0  0  0  0  0  0  0
    5.8330   -0.4194   -2.2163 C   0  0  0  0  0  0  0  0  0  0  0  0
    4.6144    0.4334   -2.5738 C   0  0  0  0  0  0  0  0  0  0  0  0
    0.9571    2.2052   -0.0624 S   0  0  0  0  0  0  0  0  0  0  0  0
   -2.7486   -1.2832    3.8788 H   0  0  0  0  0  0  0  0  0  0  0  0
   -3.6717    0.1586    3.3347 H   0  0  0  0  0  0  0  0  0  0  0  0
   -4.5187   -1.2626    3.8851 H   0  0  0  0  0  0  0  0  0  0  0  0
   -4.5787   -3.3076    2.6727 H   0  0  0  0  0  0  0  0  0  0  0  0
   -4.8929   -4.3079    0.4496 H   0  0  0  0  0  0  0  0  0  0  0  0
   -4.2004   -3.1021   -1.5608 H   0  0  0  0  0  0  0  0  0  0  0  0
   -3.2309   -1.4870   -2.6260 H   0  0  0  0  0  0  0  0  0  0  0  0
   -3.5983    0.7867   -3.2273 H   0  0  0  0  0  0  0  0  0  0  0  0
   -4.8651    0.3030   -2.0937 H   0  0  0  0  0  0  0  0  0  0  0  0
   -3.5502    1.3513   -1.5632 H   0  0  0  0  0  0  0  0  0  0  0  0
   -1.1065    0.2818   -1.3728 H   0  0  0  0  0  0  0  0  0  0  0  0
   -1.2255   -0.3001   -3.0257 H   0  0  0  0  0  0  0  0  0  0  0  0
   -0.9175   -1.4418   -1.7098 H   0  0  0  0  0  0  0  0  0  0  0  0
   -2.4578    0.9753    0.0379 H   0  0  0  0  0  0  0  0  0  0  0  0
   -1.7176    2.7798    0.9552 H   0  0  0  0  0  0  0  0  0  0  0  0
   -1.4431    2.7446    2.6937 H   0  0  0  0  0  0  0  0  0  0  0  0
    1.1195    2.7635    3.5010 H   0  0  0  0  0  0  0  0  0  0  0  0
    3.5326    2.7933    2.3915 H   0  0  0  0  0  0  0  0  0  0  0  0
    4.6563   -0.1960    0.3639 H   0  0  0  0  0  0  0  0  0  0  0  0
    2.9215   -0.5486    0.1652 H   0  0  0  0  0  0  0  0  0  0  0  0
    4.2703   -2.5720   -0.3187 H   0  0  0  0  0  0  0  0  0  0  0  0
    3.4560   -2.0337   -1.7920 H   0  0  0  0  0  0  0  0  0  0  0  0
    6.4424    0.0732   -1.4498 H   0  0  0  0  0  0  0  0  0  0  0  0
    6.4657   -0.5582   -3.0985 H   0  0  0  0  0  0  0  0  0  0  0  0
    4.9387    1.3805   -3.0160 H   0  0  0  0  0  0  0  0  0  0  0  0
    4.0018   -0.0797   -3.3255 H   0  0  0  0  0  0  0  0  0  0  0  0
  1  2  1  0
  2  3  2  0
  3  4  1  0
  4  5  2  0
  5  6  1  0
  6  7  1  0
  7  8  1  0
  7  9  1  0
  6 10  2  0
 10 11  1  0
 11 12  1  0
 12 13  2  0
 12 14  1  0
 14 15  1  0
 15 16  2  0
 16 17  1  0
 17 18  2  0
 18 19  1  0
 19 20  2  0
 19 21  2  0
 19 22  1  0
 22 23  1  0
 23 24  1  0
 24 25  1  0
 25 26  1  0
 26 27  1  0
 18 28  1  0
 10  2  1  0
 28 15  1  0
 27 22  1  0
  1 29  1  0
  1 30  1  0
  1 31  1  0
  3 32  1  0
  4 33  1  0
  5 34  1  0
  7 35  1  0
  8 36  1  0
  8 37  1  0
  8 38  1  0
  9 39  1  0
  9 40  1  0
  9 41  1  0
 11 42  1  0
 14 43  1  0
 14 44  1  0
 16 45  1  0
 17 46  1  0
 23 47  1  0
 23 48  1  0
 24 49  1  0
 24 50  1  0
 26 51  1  0
 26 52  1  0
 27 53  1  0
 27 54  1  0
M  END
$$$$
