
     RDKit          3D

 53 56  0  0  0  0  0  0  0  0999 V2000
    7.5030    2.5277    0.5636 C   0  0  0  0  0  0  0  0  0  0  0  0
    7.2079    1.9993   -0.8332 C   0  0  0  0  0  0  0  0  0  0  0  0
    6.0698    0.9805   -0.8413 C   0  0  0  0  0  0  0  0  0  0  0  0
    4.8694    1.6271   -0.4205 O   0  0  0  0  0  0  0  0  0  0  0  0
    3.7385    0.8625   -0.3589 C   0  0  0  0  0  0  0  0  0  0  0  0
    3.6385   -0.4867   -0.6850 C   0  0  0  0  0  0  0  0  0  0  0  0
    2.4068   -1.1493   -0.5744 C   0  0  0  0  0  0  0  0  0  0  0  0
    1.2417   -0.4895   -0.1372 C   0  0  0  0  0  0  0  0  0  0  0  0
   -0.0518   -1.1977   -0.0234 C   0  0  0  0  0  0  0  0  0  0  0  0
   -1.1157   -0.5017    0.4126 N   0  0  0  0  0  0  0  0  0  0  0  0
   -2.2929   -1.1451    0.5047 C   0  0  0  0  0  0  0  0  0  0  0  0
   -3.4336   -0.4190    0.9193 N   0  0  0  0  0  0  0  0  0  0  0  0
   -4.3241   -0.0755   -0.2135 C   0  0  0  0  0  0  0  0  0  0  0  0
   -3.9122    1.2358   -0.9237 C   0  0  0  0  0  0  0  0  0  0  0  0
   -3.7440    2.4065   -0.0373 N   0  0  0  0  0  0  0  0  0  0  0  0
   -5.0208    2.8889    0.4817 C   0  0  0  0  0  0  0  0  0  0  0  0
   -2.8129    2.0394    1.0523 C   0  0  0  0  0  0  0  0  0  0  0  0
   -3.1463    0.7292    1.8073 C   0  0  0  0  0  0  0  0  0  0  0  0
   -2.4099   -2.5182    0.2056 C   0  0  0  0  0  0  0  0  0  0  0  0
   -3.5923   -3.2905    0.3505 C   0  0  0  0  0  0  0  0  0  0  0  0
   -3.6135   -4.6444    0.0243 C   0  0  0  0  0  0  0  0  0  0  0  0
   -2.4544   -5.2470   -0.4420 C   0  0  0  0  0  0  0  0  0  0  0  0
   -1.2847   -4.4926   -0.5668 C   0  0  0  0  0  0  0  0  0  0  0  0
   -1.2407   -3.1412   -0.2431 C   0  0  0  0  0  0  0  0  0  0  0  0
   -0.0800   -2.4960   -0.3677 N   0  0  0  0  0  0  0  0  0  0  0  0
    1.3714    0.8726    0.1848 C   0  0  0  0  0  0  0  0  0  0  0  0
    2.5990    1.5374    0.0752 C   0  0  0  0  0  0  0  0  0  0  0  0
    8.3406    3.2317    0.5311 H   0  0  0  0  0  0  0  0  0  0  0  0
    6.6387    3.0525    0.9824 H   0  0  0  0  0  0  0  0  0  0  0  0
    7.7719    1.7116    1.2419 H   0  0  0  0  0  0  0  0  0  0  0  0
    8.1124    1.5358   -1.2421 H   0  0  0  0  0  0  0  0  0  0  0  0
    6.9461    2.8471   -1.4770 H   0  0  0  0  0  0  0  0  0  0  0  0
    6.3155    0.1527   -0.1652 H   0  0  0  0  0  0  0  0  0  0  0  0
    5.9490    0.6009   -1.8630 H   0  0  0  0  0  0  0  0  0  0  0  0
    4.4928   -1.0593   -1.0296 H   0  0  0  0  0  0  0  0  0  0  0  0
    2.3636   -2.2057   -0.8376 H   0  0  0  0  0  0  0  0  0  0  0  0
   -5.3417    0.0283    0.1822 H   0  0  0  0  0  0  0  0  0  0  0  0
   -4.3761   -0.8808   -0.9563 H   0  0  0  0  0  0  0  0  0  0  0  0
   -2.9623    1.0708   -1.4491 H   0  0  0  0  0  0  0  0  0  0  0  0
   -4.6433    1.4679   -1.7081 H   0  0  0  0  0  0  0  0  0  0  0  0
   -5.5491    2.1535    1.0964 H   0  0  0  0  0  0  0  0  0  0  0  0
   -5.6811    3.1796   -0.3430 H   0  0  0  0  0  0  0  0  0  0  0  0
   -4.8674    3.7885    1.0881 H   0  0  0  0  0  0  0  0  0  0  0  0
   -1.8126    1.9631    0.6131 H   0  0  0  0  0  0  0  0  0  0  0  0
   -2.7430    2.8626    1.7746 H   0  0  0  0  0  0  0  0  0  0  0  0
   -4.0412    0.8960    2.4199 H   0  0  0  0  0  0  0  0  0  0  0  0
   -2.3462    0.4892    2.5195 H   0  0  0  0  0  0  0  0  0  0  0  0
   -4.4981   -2.8264    0.7354 H   0  0  0  0  0  0  0  0  0  0  0  0
   -4.5265   -5.2222    0.1405 H   0  0  0  0  0  0  0  0  0  0  0  0
   -2.4499   -6.3027   -0.7002 H   0  0  0  0  0  0  0  0  0  0  0  0
   -0.3771   -4.9768   -0.9211 H   0  0  0  0  0  0  0  0  0  0  0  0
    0.5072    1.4375    0.5273 H   0  0  0  0  0  0  0  0  0  0  0  0
    2.6618    2.5922    0.3316 H   0  0  0  0  0  0  0  0  0  0  0  0
  1  2  1  0
  2  3  1  0
  3  4  1  0
  4  5  1  0
  5  6  2  0
  6  7  1  0
  7  8  2  0
  8  9  1  0
  9 10  2  0
 10 11  1  0
 11 12  1  0
 12 13  1  0
 13 14  1  0
 14 15  1  0
 15 16  1  0
 15 17  1  0
 17 18  1  0
 11 19  2  0
 19 20  1  0
 20 21  2  0
 21 22  1  0
 22 23  2  0
 23 24  1  0
 24 25  2  0
  8 26  1  0
 26 27  2  0
 27  5  1  0
 25  9  1  0
 18 12  1  0
 24 19  1  0
  1 28  1  0
  1 29  1  0
  1 30  1  0
  2 31  1  0
  2 32  1  0
  3 33  1  0
  3 34  1  0
  6 35  1  0
  7 36  1  0
 13 37  1  0
 13 38  1  0
 14 39  1  0
 14 40  1  0
 16 41  1  0
 16 42  1  0
 16 43  1  0
 17 44  1  0
 17 45  1  0
 18 46  1  0
 18 47  1  0
 20 48  1  0
 21 49  1  0
 22 50  1  0
 23 51  1  0
 26 52  1  0
 27 53  1  0
M  END
$$$$
