
     RDKit          3D

 32 32  0  0  0  0  0  0  0  0999 V2000
    5.7256   -0.2361    0.1377 C   0  0  0  0  0  0  0  0  0  0  0  0
    4.9310   -1.3754    0.7534 C   0  0  0  0  0  0  0  0  0  0  0  0
    3.5813   -1.9167   -0.3360 S   0  0  0  0  0  0  0  0  0  0  0  0
    2.3728   -0.6872   -0.0474 C   0  0  0  0  0  0  0  0  0  0  0  0
    2.5105    0.2669    0.8449 N   0  0  0  0  0  0  0  0  0  0  0  0
    1.4201    1.1115    0.8727 N   0  0  0  0  0  0  0  0  0  0  0  0
    0.4748    0.7510    0.0334 C   0  0  0  0  0  0  0  0  0  0  0  0
   -0.6782    1.4675   -0.1075 N   0  0  0  0  0  0  0  0  0  0  0  0
   -2.0190    0.7962    0.1523 C   0  0  0  0  0  0  0  0  0  0  0  0
   -2.2373    0.1018   -1.1273 N   0  0  0  0  0  0  0  0  0  0  0  0
   -3.3151   -0.7016   -1.3579 C   0  0  0  0  0  0  0  0  0  0  0  0
   -3.4271   -1.2244   -2.7633 C   0  0  0  0  0  0  0  0  0  0  0  0
   -4.1275   -0.9718   -0.4858 O   0  0  0  0  0  0  0  0  0  0  0  0
   -3.0859    1.8985    0.4446 C   0  0  0  0  0  0  0  0  0  0  0  0
   -3.2178    2.7155   -0.6383 F   0  0  0  0  0  0  0  0  0  0  0  0
   -2.6803    2.6991    1.4633 F   0  0  0  0  0  0  0  0  0  0  0  0
   -4.3165    1.4504    0.7428 F   0  0  0  0  0  0  0  0  0  0  0  0
   -2.0376   -0.0594    1.4620 C   0  0  0  0  0  0  0  0  0  0  0  0
   -3.2593   -0.4279    1.8882 F   0  0  0  0  0  0  0  0  0  0  0  0
   -1.3053   -1.1941    1.3219 F   0  0  0  0  0  0  0  0  0  0  0  0
   -1.4696    0.6356    2.4837 F   0  0  0  0  0  0  0  0  0  0  0  0
    0.8977   -0.6253   -0.9142 S   0  0  0  0  0  0  0  0  0  0  0  0
    6.5536    0.0380    0.8000 H   0  0  0  0  0  0  0  0  0  0  0  0
    6.1570   -0.5248   -0.8268 H   0  0  0  0  0  0  0  0  0  0  0  0
    5.1137    0.6591   -0.0106 H   0  0  0  0  0  0  0  0  0  0  0  0
    4.5459   -1.0978    1.7397 H   0  0  0  0  0  0  0  0  0  0  0  0
    5.5959   -2.2328    0.9011 H   0  0  0  0  0  0  0  0  0  0  0  0
   -0.6154    2.2918    0.5005 H   0  0  0  0  0  0  0  0  0  0  0  0
   -1.7101    0.4666   -1.9087 H   0  0  0  0  0  0  0  0  0  0  0  0
   -3.5713   -2.3077   -2.7310 H   0  0  0  0  0  0  0  0  0  0  0  0
   -4.2818   -0.7513   -3.2537 H   0  0  0  0  0  0  0  0  0  0  0  0
   -2.5245   -1.0153   -3.3442 H   0  0  0  0  0  0  0  0  0  0  0  0
  1  2  1  0
  2  3  1  0
  3  4  1  0
  4  5  2  0
  5  6  1  0
  6  7  2  0
  7  8  1  0
  8  9  1  0
  9 10  1  0
 10 11  1  0
 11 12  1  0
 11 13  2  0
  9 14  1  0
 14 15  1  0
 14 16  1  0
 14 17  1  0
  9 18  1  0
 18 19  1  0
 18 20  1  0
 18 21  1  0
  7 22  1  0
 22  4  1  0
  1 23  1  0
  1 24  1  0
  1 25  1  0
  2 26  1  0
  2 27  1  0
  8 28  1  0
 10 29  1  0
 12 30  1  0
 12 31  1  0
 12 32  1  0
M  END
$$$$
