
     RDKit          3D

 40 42  0  0  0  0  0  0  0  0999 V2000
   -1.6538   -2.6348   -1.8063 C   0  0  0  0  0  0  0  0  0  0  0  0
   -0.9000   -1.5815   -0.9917 C   0  0  0  0  0  0  0  0  0  0  0  0
   -1.4602   -1.5326    0.4301 C   0  0  0  0  0  0  0  0  0  0  0  0
   -0.9715   -0.2197   -1.7094 C   0  0  0  0  0  0  0  0  0  0  0  0
   -0.1239    0.8053   -1.1335 N   0  0  0  0  0  0  0  0  0  0  0  0
    1.2210    0.9699   -1.3429 C   0  0  0  0  0  0  0  0  0  0  0  0
    2.2009   -0.0521   -2.3308 S   0  0  0  0  0  0  0  0  0  0  0  0
    3.5703   -0.3861   -1.1779 C   0  0  0  0  0  0  0  0  0  0  0  0
    3.1414   -1.4269   -0.1544 C   0  0  0  0  0  0  0  0  0  0  0  0
    3.0634   -2.6083   -0.5075 O   0  0  0  0  0  0  0  0  0  0  0  0
    2.8034   -0.9822    1.1974 C   0  0  0  0  0  0  0  0  0  0  0  0
    2.8931    0.2654    1.7938 C   0  0  0  0  0  0  0  0  0  0  0  0
    2.4120    0.2700    3.1397 C   0  0  0  0  0  0  0  0  0  0  0  0
    1.9902   -0.9754    3.5168 C   0  0  0  0  0  0  0  0  0  0  0  0
    1.3377   -1.4181    5.0412 Cl  0  0  0  0  0  0  0  0  0  0  0  0
    2.1643   -2.1383    2.3069 S   0  0  0  0  0  0  0  0  0  0  0  0
    1.6656    1.9951   -0.6589 N   0  0  0  0  0  0  0  0  0  0  0  0
    0.6016    2.5276    0.0199 N   0  0  0  0  0  0  0  0  0  0  0  0
   -0.4769    1.8229   -0.2737 C   0  0  0  0  0  0  0  0  0  0  0  0
   -1.7701    2.1159    0.2662 C   0  0  0  0  0  0  0  0  0  0  0  0
   -2.0992    3.1136    1.1722 C   0  0  0  0  0  0  0  0  0  0  0  0
   -3.4903    3.0263    1.4170 C   0  0  0  0  0  0  0  0  0  0  0  0
   -3.9410    1.9828    0.6485 C   0  0  0  0  0  0  0  0  0  0  0  0
   -2.9155    1.4283   -0.0444 O   0  0  0  0  0  0  0  0  0  0  0  0
   -2.7135   -2.3761   -1.9067 H   0  0  0  0  0  0  0  0  0  0  0  0
   -1.5883   -3.6174   -1.3275 H   0  0  0  0  0  0  0  0  0  0  0  0
   -1.2298   -2.7259   -2.8119 H   0  0  0  0  0  0  0  0  0  0  0  0
    0.1456   -1.9021   -0.9239 H   0  0  0  0  0  0  0  0  0  0  0  0
   -1.3867   -2.5162    0.9060 H   0  0  0  0  0  0  0  0  0  0  0  0
   -0.9036   -0.8288    1.0560 H   0  0  0  0  0  0  0  0  0  0  0  0
   -2.5146   -1.2391    0.4341 H   0  0  0  0  0  0  0  0  0  0  0  0
   -1.9990    0.1481   -1.7581 H   0  0  0  0  0  0  0  0  0  0  0  0
   -0.6641   -0.3315   -2.7566 H   0  0  0  0  0  0  0  0  0  0  0  0
    4.4017   -0.8132   -1.7504 H   0  0  0  0  0  0  0  0  0  0  0  0
    3.9514    0.5298   -0.7217 H   0  0  0  0  0  0  0  0  0  0  0  0
    3.2607    1.1595    1.3037 H   0  0  0  0  0  0  0  0  0  0  0  0
    2.3768    1.1436    3.7786 H   0  0  0  0  0  0  0  0  0  0  0  0
   -1.4011    3.8204    1.6021 H   0  0  0  0  0  0  0  0  0  0  0  0
   -4.0864    3.6485    2.0697 H   0  0  0  0  0  0  0  0  0  0  0  0
   -4.9115    1.5328    0.4902 H   0  0  0  0  0  0  0  0  0  0  0  0
  1  2  1  0
  2  3  1  0
  2  4  1  0
  4  5  1  0
  5  6  1  0
  6  7  1  0
  7  8  1  0
  8  9  1  0
  9 10  2  0
  9 11  1  0
 11 12  2  0
 12 13  1  0
 13 14  2  0
 14 15  1  0
 14 16  1  0
  6 17  2  0
 17 18  1  0
 18 19  2  0
 19 20  1  0
 20 21  2  0
 21 22  1  0
 22 23  2  0
 23 24  1  0
 19  5  1  0
 24 20  1  0
 16 11  1  0
  1 25  1  0
  1 26  1  0
  1 27  1  0
  2 28  1  0
  3 29  1  0
  3 30  1  0
  3 31  1  0
  4 32  1  0
  4 33  1  0
  8 34  1  0
  8 35  1  0
 12 36  1  0
 13 37  1  0
 21 38  1  0
 22 39  1  0
 23 40  1  0
M  END
$$$$
