
     RDKit          3D

 44 46  0  0  0  0  0  0  0  0999 V2000
   -4.4529    1.0241   -2.3057 C   0  0  0  0  0  0  0  0  0  0  0  0
   -4.4541    0.2790   -1.0032 C   0  0  0  0  0  0  0  0  0  0  0  0
   -5.4752   -0.6274   -0.7083 C   0  0  0  0  0  0  0  0  0  0  0  0
   -5.4827   -1.3064    0.5098 C   0  0  0  0  0  0  0  0  0  0  0  0
   -4.4775   -1.0788    1.4600 C   0  0  0  0  0  0  0  0  0  0  0  0
   -4.5030   -1.8253    2.7652 C   0  0  0  0  0  0  0  0  0  0  0  0
   -3.4643   -0.1439    1.1838 C   0  0  0  0  0  0  0  0  0  0  0  0
   -2.5220    0.0149    2.1674 O   0  0  0  0  0  0  0  0  0  0  0  0
   -1.6766    1.1667    2.1249 C   0  0  0  0  0  0  0  0  0  0  0  0
   -0.4460    0.8343    1.3736 C   0  0  0  0  0  0  0  0  0  0  0  0
    0.3338   -0.2871    1.2421 C   0  0  0  0  0  0  0  0  0  0  0  0
    1.3727    0.0867    0.3446 C   0  0  0  0  0  0  0  0  0  0  0  0
    2.4828   -0.7836   -0.0830 C   0  0  0  0  0  0  0  0  0  0  0  0
    2.7293   -1.8000    0.5715 O   0  0  0  0  0  0  0  0  0  0  0  0
    3.2432   -0.4730   -1.2179 N   0  0  0  0  0  0  0  0  0  0  0  0
    3.0046    0.6631   -2.0991 C   0  0  0  0  0  0  0  0  0  0  0  0
    4.5008   -1.1966   -1.4104 C   0  0  0  0  0  0  0  0  0  0  0  0
    5.6632   -0.3666   -0.9385 C   0  0  0  0  0  0  0  0  0  0  0  0
    6.3034    0.5100   -1.6898 N   0  0  0  0  0  0  0  0  0  0  0  0
    7.3073    1.1082   -0.9547 C   0  0  0  0  0  0  0  0  0  0  0  0
    7.4275    0.6800    0.3487 C   0  0  0  0  0  0  0  0  0  0  0  0
    6.2450   -0.5148    0.6761 S   0  0  0  0  0  0  0  0  0  0  0  0
    1.2309    1.3772   -0.0045 N   0  0  0  0  0  0  0  0  0  0  0  0
    0.0925    1.8328    0.6275 O   0  0  0  0  0  0  0  0  0  0  0  0
   -3.4568    0.5227   -0.0470 C   0  0  0  0  0  0  0  0  0  0  0  0
   -3.4294    1.2305   -2.6360 H   0  0  0  0  0  0  0  0  0  0  0  0
   -4.9352    0.4365   -3.0938 H   0  0  0  0  0  0  0  0  0  0  0  0
   -4.9879    1.9722   -2.1945 H   0  0  0  0  0  0  0  0  0  0  0  0
   -6.2682   -0.8175   -1.4280 H   0  0  0  0  0  0  0  0  0  0  0  0
   -6.2808   -2.0170    0.7131 H   0  0  0  0  0  0  0  0  0  0  0  0
   -4.6158   -1.1252    3.5993 H   0  0  0  0  0  0  0  0  0  0  0  0
   -3.5791   -2.3987    2.8931 H   0  0  0  0  0  0  0  0  0  0  0  0
   -5.3384   -2.5321    2.8081 H   0  0  0  0  0  0  0  0  0  0  0  0
   -2.1961    2.0516    1.7401 H   0  0  0  0  0  0  0  0  0  0  0  0
   -1.4016    1.3959    3.1606 H   0  0  0  0  0  0  0  0  0  0  0  0
    0.1827   -1.2483    1.7121 H   0  0  0  0  0  0  0  0  0  0  0  0
    1.9358    0.7735   -2.2968 H   0  0  0  0  0  0  0  0  0  0  0  0
    3.4995    0.4993   -3.0614 H   0  0  0  0  0  0  0  0  0  0  0  0
    3.4032    1.5701   -1.6360 H   0  0  0  0  0  0  0  0  0  0  0  0
    4.6098   -1.4139   -2.4796 H   0  0  0  0  0  0  0  0  0  0  0  0
    4.4861   -2.1648   -0.8985 H   0  0  0  0  0  0  0  0  0  0  0  0
    7.9307    1.8600   -1.4233 H   0  0  0  0  0  0  0  0  0  0  0  0
    8.1317    1.0023    1.1018 H   0  0  0  0  0  0  0  0  0  0  0  0
   -2.6729    1.2294   -0.3015 H   0  0  0  0  0  0  0  0  0  0  0  0
  1  2  1  0
  2  3  2  0
  3  4  1  0
  4  5  2  0
  5  6  1  0
  5  7  1  0
  7  8  1  0
  8  9  1  0
  9 10  1  0
 10 11  2  0
 11 12  1  0
 12 13  1  0
 13 14  2  0
 13 15  1  0
 15 16  1  0
 15 17  1  0
 17 18  1  0
 18 19  2  0
 19 20  1  0
 20 21  2  0
 21 22  1  0
 12 23  2  0
 23 24  1  0
  7 25  2  0
 25  2  1  0
 24 10  1  0
 22 18  1  0
  1 26  1  0
  1 27  1  0
  1 28  1  0
  3 29  1  0
  4 30  1  0
  6 31  1  0
  6 32  1  0
  6 33  1  0
  9 34  1  0
  9 35  1  0
 11 36  1  0
 16 37  1  0
 16 38  1  0
 16 39  1  0
 17 40  1  0
 17 41  1  0
 20 42  1  0
 21 43  1  0
 25 44  1  0
M  END
$$$$
