
     RDKit          3D

 43 45  0  0  0  0  0  0  0  0999 V2000
   -0.7727    3.1517    1.4563 C   0  0  0  0  0  0  0  0  0  0  0  0
   -1.1141    2.0129    0.6657 O   0  0  0  0  0  0  0  0  0  0  0  0
   -1.0423    2.2229   -0.6775 C   0  0  0  0  0  0  0  0  0  0  0  0
   -0.7449    3.2955   -1.1960 O   0  0  0  0  0  0  0  0  0  0  0  0
   -1.4453    1.0139   -1.4828 C   0  0  0  0  0  0  0  0  0  0  0  0
   -1.2443   -0.2594   -0.8083 N   0  0  0  0  0  0  0  0  0  0  0  0
   -0.0932   -1.0314   -0.8244 C   0  0  0  0  0  0  0  0  0  0  0  0
    1.1757   -0.6327   -1.5248 C   0  0  0  0  0  0  0  0  0  0  0  0
    1.6959    0.6471   -1.0221 N   0  0  0  0  0  0  0  0  0  0  0  0
    2.2656    0.5296    0.3423 C   0  0  0  0  0  0  0  0  0  0  0  0
    3.7998    0.4425    0.3633 C   0  0  0  0  0  0  0  0  0  0  0  0
    4.4365    1.5754   -0.2431 O   0  0  0  0  0  0  0  0  0  0  0  0
    3.6374    2.1962   -1.2596 C   0  0  0  0  0  0  0  0  0  0  0  0
    2.7003    1.2004   -1.9569 C   0  0  0  0  0  0  0  0  0  0  0  0
   -0.2649   -2.1464   -0.1290 N   0  0  0  0  0  0  0  0  0  0  0  0
   -1.5365   -2.0763    0.3445 C   0  0  0  0  0  0  0  0  0  0  0  0
   -2.1670   -0.9352   -0.0562 C   0  0  0  0  0  0  0  0  0  0  0  0
   -3.5022   -0.6283    0.3225 C   0  0  0  0  0  0  0  0  0  0  0  0
   -4.1146    0.3810   -0.0064 O   0  0  0  0  0  0  0  0  0  0  0  0
   -4.0622   -1.6045    1.1153 N   0  0  0  0  0  0  0  0  0  0  0  0
   -3.4695   -2.7773    1.5468 C   0  0  0  0  0  0  0  0  0  0  0  0
   -4.1188   -3.5432    2.2592 O   0  0  0  0  0  0  0  0  0  0  0  0
   -2.1611   -3.0135    1.1391 N   0  0  0  0  0  0  0  0  0  0  0  0
   -1.4621   -4.2150    1.5501 C   0  0  0  0  0  0  0  0  0  0  0  0
   -1.4862    3.9634    1.2839 H   0  0  0  0  0  0  0  0  0  0  0  0
    0.2489    3.4796    1.2394 H   0  0  0  0  0  0  0  0  0  0  0  0
   -0.8259    2.8609    2.5090 H   0  0  0  0  0  0  0  0  0  0  0  0
   -2.4994    1.1003   -1.7583 H   0  0  0  0  0  0  0  0  0  0  0  0
   -0.8627    0.9914   -2.4090 H   0  0  0  0  0  0  0  0  0  0  0  0
    1.9235   -1.4294   -1.4226 H   0  0  0  0  0  0  0  0  0  0  0  0
    0.9449   -0.5534   -2.5952 H   0  0  0  0  0  0  0  0  0  0  0  0
    1.9695    1.4365    0.8843 H   0  0  0  0  0  0  0  0  0  0  0  0
    1.8396   -0.3110    0.9012 H   0  0  0  0  0  0  0  0  0  0  0  0
    4.1440   -0.4605   -0.1542 H   0  0  0  0  0  0  0  0  0  0  0  0
    4.1583    0.3812    1.3959 H   0  0  0  0  0  0  0  0  0  0  0  0
    4.3228    2.6423   -1.9874 H   0  0  0  0  0  0  0  0  0  0  0  0
    3.0704    3.0152   -0.8013 H   0  0  0  0  0  0  0  0  0  0  0  0
    3.3130    0.3937   -2.3813 H   0  0  0  0  0  0  0  0  0  0  0  0
    2.1803    1.6990   -2.7821 H   0  0  0  0  0  0  0  0  0  0  0  0
   -5.0092   -1.4504    1.4232 H   0  0  0  0  0  0  0  0  0  0  0  0
   -1.1529   -4.7718    0.6599 H   0  0  0  0  0  0  0  0  0  0  0  0
   -0.5789   -3.9330    2.1319 H   0  0  0  0  0  0  0  0  0  0  0  0
   -2.0954   -4.8603    2.1646 H   0  0  0  0  0  0  0  0  0  0  0  0
  1  2  1  0
  2  3  1  0
  3  4  2  0
  3  5  1  0
  5  6  1  0
  6  7  1  0
  7  8  1  0
  8  9  1  0
  9 10  1  0
 10 11  1  0
 11 12  1  0
 12 13  1  0
 13 14  1  0
  7 15  2  0
 15 16  1  0
 16 17  2  0
 17 18  1  0
 18 19  2  0
 18 20  1  0
 20 21  1  0
 21 22  2  0
 21 23  1  0
 23 24  1  0
 17  6  1  0
 14  9  1  0
 23 16  1  0
  1 25  1  0
  1 26  1  0
  1 27  1  0
  5 28  1  0
  5 29  1  0
  8 30  1  0
  8 31  1  0
 10 32  1  0
 10 33  1  0
 11 34  1  0
 11 35  1  0
 13 36  1  0
 13 37  1  0
 14 38  1  0
 14 39  1  0
 20 40  1  0
 24 41  1  0
 24 42  1  0
 24 43  1  0
M  END
$$$$
