
     RDKit          3D

 63 67  0  0  0  0  0  0  0  0999 V2000
   -2.4257    2.5683    7.2548 Cl  0  0  0  0  0  0  0  0  0  0  0  0
   -2.3498    1.8485    5.6969 C   0  0  0  0  0  0  0  0  0  0  0  0
   -2.0517    2.6299    4.5847 C   0  0  0  0  0  0  0  0  0  0  0  0
   -1.9816    2.0402    3.3182 C   0  0  0  0  0  0  0  0  0  0  0  0
   -2.2190    0.6606    3.1472 C   0  0  0  0  0  0  0  0  0  0  0  0
   -2.1070    0.0495    1.7566 C   0  0  0  0  0  0  0  0  0  0  0  0
   -3.1359   -1.0298    1.4363 C   0  0  0  0  0  0  0  0  0  0  0  0
   -4.3917   -0.6505    0.9256 C   0  0  0  0  0  0  0  0  0  0  0  0
   -5.3663   -1.6102    0.6346 C   0  0  0  0  0  0  0  0  0  0  0  0
   -5.0998   -2.9587    0.8551 C   0  0  0  0  0  0  0  0  0  0  0  0
   -6.2968   -4.1395    0.4987 Cl  0  0  0  0  0  0  0  0  0  0  0  0
   -3.8672   -3.3559    1.3685 C   0  0  0  0  0  0  0  0  0  0  0  0
   -2.8919   -2.3978    1.6610 C   0  0  0  0  0  0  0  0  0  0  0  0
   -0.7396   -0.4541    1.4888 N   0  0  0  0  0  0  0  0  0  0  0  0
    0.3230   -0.6066    2.3732 C   0  0  0  0  0  0  0  0  0  0  0  0
    1.3749   -1.0991    1.6540 C   0  0  0  0  0  0  0  0  0  0  0  0
    0.9354   -1.2371    0.3528 N   0  0  0  0  0  4  0  0  0  0  0  0
    1.7024   -1.7814   -0.7868 C   0  0  0  0  0  0  0  0  0  0  0  0
    2.0701   -0.6914   -1.8273 C   0  0  0  0  0  0  0  0  0  0  0  0
    0.8572   -0.1686   -2.3931 O   0  0  0  0  0  0  0  0  0  0  0  0
    1.0163    1.0025   -3.1994 C   0  0  0  0  0  0  0  0  0  0  0  0
    1.1702    2.2365   -2.3468 C   0  0  0  0  0  0  0  0  0  0  0  0
    2.4196    2.8786   -2.2903 C   0  0  0  0  0  0  0  0  0  0  0  0
    2.6085    4.0004   -1.4797 C   0  0  0  0  0  0  0  0  0  0  0  0
    1.5497    4.4954   -0.7255 C   0  0  0  0  0  0  0  0  0  0  0  0
    1.7860    5.8601    0.2955 Cl  0  0  0  0  0  0  0  0  0  0  0  0
    0.2992    3.8877   -0.7823 C   0  0  0  0  0  0  0  0  0  0  0  0
    0.1117    2.7633   -1.5882 C   0  0  0  0  0  0  0  0  0  0  0  0
   -1.4604    2.0488   -1.5989 Cl  0  0  0  0  0  0  0  0  0  0  0  0
    3.0307   -1.2408   -2.8723 C   0  0  0  0  0  0  0  0  0  0  0  0
    4.3715   -0.8076   -2.8286 C   0  0  0  0  0  0  0  0  0  0  0  0
    5.3103   -1.2795   -3.7472 C   0  0  0  0  0  0  0  0  0  0  0  0
    4.9257   -2.1919   -4.7227 C   0  0  0  0  0  0  0  0  0  0  0  0
    6.0855   -2.7780   -5.8457 Cl  0  0  0  0  0  0  0  0  0  0  0  0
    3.6097   -2.6349   -4.7898 C   0  0  0  0  0  0  0  0  0  0  0  0
    2.6667   -2.1641   -3.8711 C   0  0  0  0  0  0  0  0  0  0  0  0
    1.0560   -2.7684   -4.0268 Cl  0  0  0  0  0  0  0  0  0  0  0  0
   -0.3410   -0.8285    0.2604 C   0  0  0  0  0  0  0  0  0  0  0  0
   -2.5184   -0.1085    4.2868 C   0  0  0  0  0  0  0  0  0  0  0  0
   -2.5821    0.4828    5.5529 C   0  0  0  0  0  0  0  0  0  0  0  0
   -1.8788    3.6999    4.6987 H   0  0  0  0  0  0  0  0  0  0  0  0
   -1.7455    2.6773    2.4656 H   0  0  0  0  0  0  0  0  0  0  0  0
   -2.2570    0.8559    1.0254 H   0  0  0  0  0  0  0  0  0  0  0  0
   -4.6308    0.3991    0.7547 H   0  0  0  0  0  0  0  0  0  0  0  0
   -6.3341   -1.2990    0.2445 H   0  0  0  0  0  0  0  0  0  0  0  0
   -3.6665   -4.4099    1.5505 H   0  0  0  0  0  0  0  0  0  0  0  0
   -1.9458   -2.7363    2.0784 H   0  0  0  0  0  0  0  0  0  0  0  0
    0.2126   -0.3542    3.4137 H   0  0  0  0  0  0  0  0  0  0  0  0
    2.3838   -1.3773    1.9088 H   0  0  0  0  0  0  0  0  0  0  0  0
    2.6068   -2.2600   -0.3907 H   0  0  0  0  0  0  0  0  0  0  0  0
    1.0744   -2.5670   -1.2216 H   0  0  0  0  0  0  0  0  0  0  0  0
    2.5542    0.1207   -1.2705 H   0  0  0  0  0  0  0  0  0  0  0  0
    1.8473    0.8875   -3.9018 H   0  0  0  0  0  0  0  0  0  0  0  0
    0.1194    1.1020   -3.8190 H   0  0  0  0  0  0  0  0  0  0  0  0
    3.2591    2.5141   -2.8794 H   0  0  0  0  0  0  0  0  0  0  0  0
    3.5824    4.4868   -1.4419 H   0  0  0  0  0  0  0  0  0  0  0  0
   -0.5242    4.2952   -0.2029 H   0  0  0  0  0  0  0  0  0  0  0  0
    4.7052   -0.0918   -2.0793 H   0  0  0  0  0  0  0  0  0  0  0  0
    6.3404   -0.9331   -3.6985 H   0  0  0  0  0  0  0  0  0  0  0  0
    3.3200   -3.3464   -5.5591 H   0  0  0  0  0  0  0  0  0  0  0  0
   -0.9478   -0.8265   -0.6390 H   0  0  0  0  0  0  0  0  0  0  0  0
   -2.7114   -1.1788    4.2141 H   0  0  0  0  0  0  0  0  0  0  0  0
   -2.8184   -0.1284    6.4219 H   0  0  0  0  0  0  0  0  0  0  0  0
  1  2  1  0
  2  3  2  0
  3  4  1  0
  4  5  2  0
  5  6  1  0
  6  7  1  0
  7  8  2  0
  8  9  1  0
  9 10  2  0
 10 11  1  0
 10 12  1  0
 12 13  2  0
  6 14  1  0
 14 15  1  0
 15 16  2  0
 16 17  1  0
 17 18  1  0
 18 19  1  0
 19 20  1  0
 20 21  1  0
 21 22  1  0
 22 23  2  0
 23 24  1  0
 24 25  2  0
 25 26  1  0
 25 27  1  0
 27 28  2  0
 28 29  1  0
 19 30  1  0
 30 31  2  0
 31 32  1  0
 32 33  2  0
 33 34  1  0
 33 35  1  0
 35 36  2  0
 36 37  1  0
 17 38  2  0
  5 39  1  0
 39 40  2  0
 40  2  1  0
 13  7  1  0
 38 14  1  0
 28 22  1  0
 36 30  1  0
  3 41  1  0
  4 42  1  0
  6 43  1  0
  8 44  1  0
  9 45  1  0
 12 46  1  0
 13 47  1  0
 15 48  1  0
 16 49  1  0
 18 50  1  0
 18 51  1  0
 19 52  1  0
 21 53  1  0
 21 54  1  0
 23 55  1  0
 24 56  1  0
 27 57  1  0
 31 58  1  0
 32 59  1  0
 35 60  1  0
 38 61  1  0
 39 62  1  0
 40 63  1  0
M  CHG  1  17   1
M  END
$$$$
