
     RDKit          3D

 45 47  0  0  0  0  0  0  0  0999 V2000
   -3.8289   -1.3243   -2.4164 C   0  0  0  0  0  0  0  0  0  0  0  0
   -3.8483    0.4693   -2.1495 S   0  0  0  0  0  0  0  0  0  0  0  0
   -4.2314    0.5232   -0.4013 C   0  0  0  0  0  0  0  0  0  0  0  0
   -5.3576    1.2647   -0.0165 C   0  0  0  0  0  0  0  0  0  0  0  0
   -5.7314    1.3531    1.3271 C   0  0  0  0  0  0  0  0  0  0  0  0
   -4.9833    0.7000    2.3035 C   0  0  0  0  0  0  0  0  0  0  0  0
   -3.8525   -0.0288    1.9387 C   0  0  0  0  0  0  0  0  0  0  0  0
   -3.4617   -0.0950    0.5961 C   0  0  0  0  0  0  0  0  0  0  0  0
   -2.3524   -0.8296    0.2640 O   0  0  0  0  0  0  0  0  0  0  0  0
   -1.1287   -0.2054    0.6894 C   0  0  0  0  0  0  0  0  0  0  0  0
   -0.2933    0.1278   -0.5450 C   0  0  0  0  0  0  0  0  0  0  0  0
    1.0971    0.6197   -0.1511 C   0  0  0  0  0  0  0  0  0  0  0  0
    1.7916   -0.3670    0.6926 N   0  0  0  0  0  0  0  0  0  0  0  0
    3.1500    0.0878    1.0464 C   0  0  0  0  0  0  0  0  0  0  0  0
    4.1029    0.1262   -0.1303 C   0  0  0  0  0  0  0  0  0  0  0  0
    4.8113    1.2969   -0.4374 C   0  0  0  0  0  0  0  0  0  0  0  0
    5.7037    1.3239   -1.5113 C   0  0  0  0  0  0  0  0  0  0  0  0
    5.9003    0.1818   -2.2858 C   0  0  0  0  0  0  0  0  0  0  0  0
    5.2061   -0.9892   -1.9879 C   0  0  0  0  0  0  0  0  0  0  0  0
    4.3144   -1.0179   -0.9147 C   0  0  0  0  0  0  0  0  0  0  0  0
    1.0231   -0.6564    1.9110 C   0  0  0  0  0  0  0  0  0  0  0  0
   -0.3654   -1.1898    1.5730 C   0  0  0  0  0  0  0  0  0  0  0  0
   -2.9228   -1.7757   -2.0054 H   0  0  0  0  0  0  0  0  0  0  0  0
   -3.8428   -1.5186   -3.4924 H   0  0  0  0  0  0  0  0  0  0  0  0
   -4.7101   -1.7939   -1.9705 H   0  0  0  0  0  0  0  0  0  0  0  0
   -5.9620    1.7729   -0.7656 H   0  0  0  0  0  0  0  0  0  0  0  0
   -6.6126    1.9251    1.6071 H   0  0  0  0  0  0  0  0  0  0  0  0
   -5.2823    0.7557    3.3473 H   0  0  0  0  0  0  0  0  0  0  0  0
   -3.2805   -0.5494    2.7011 H   0  0  0  0  0  0  0  0  0  0  0  0
   -1.3096    0.7216    1.2533 H   0  0  0  0  0  0  0  0  0  0  0  0
   -0.8008    0.8950   -1.1412 H   0  0  0  0  0  0  0  0  0  0  0  0
   -0.2148   -0.7538   -1.1955 H   0  0  0  0  0  0  0  0  0  0  0  0
    1.0128    1.5836    0.3681 H   0  0  0  0  0  0  0  0  0  0  0  0
    1.6568    0.7981   -1.0763 H   0  0  0  0  0  0  0  0  0  0  0  0
    3.1077    1.0691    1.5376 H   0  0  0  0  0  0  0  0  0  0  0  0
    3.5952   -0.6024    1.7760 H   0  0  0  0  0  0  0  0  0  0  0  0
    4.6714    2.1969    0.1569 H   0  0  0  0  0  0  0  0  0  0  0  0
    6.2460    2.2369   -1.7433 H   0  0  0  0  0  0  0  0  0  0  0  0
    6.5936    0.2037   -3.1220 H   0  0  0  0  0  0  0  0  0  0  0  0
    5.3559   -1.8806   -2.5911 H   0  0  0  0  0  0  0  0  0  0  0  0
    3.7717   -1.9346   -0.6922 H   0  0  0  0  0  0  0  0  0  0  0  0
    1.5419   -1.4189    2.5051 H   0  0  0  0  0  0  0  0  0  0  0  0
    0.9333    0.2401    2.5391 H   0  0  0  0  0  0  0  0  0  0  0  0
   -0.2858   -2.1625    1.0687 H   0  0  0  0  0  0  0  0  0  0  0  0
   -0.9278   -1.3793    2.4949 H   0  0  0  0  0  0  0  0  0  0  0  0
  1  2  1  0
  2  3  1  0
  3  4  2  0
  4  5  1  0
  5  6  2  0
  6  7  1  0
  7  8  2  0
  8  9  1  0
  9 10  1  0
 10 11  1  0
 11 12  1  0
 12 13  1  0
 13 14  1  0
 14 15  1  0
 15 16  2  0
 16 17  1  0
 17 18  2  0
 18 19  1  0
 19 20  2  0
 13 21  1  0
 21 22  1  0
  8  3  1  0
 22 10  1  0
 20 15  1  0
  1 23  1  0
  1 24  1  0
  1 25  1  0
  4 26  1  0
  5 27  1  0
  6 28  1  0
  7 29  1  0
 10 30  1  0
 11 31  1  0
 11 32  1  0
 12 33  1  0
 12 34  1  0
 14 35  1  0
 14 36  1  0
 16 37  1  0
 17 38  1  0
 18 39  1  0
 19 40  1  0
 20 41  1  0
 21 42  1  0
 21 43  1  0
 22 44  1  0
 22 45  1  0
M  END
$$$$
