
     RDKit          3D

 46 48  0  0  0  0  0  0  0  0999 V2000
    2.8020    4.0319   -0.0835 C   0  0  0  0  0  0  0  0  0  0  0  0
    3.7514    2.8785    0.0262 C   0  0  0  0  0  0  0  0  0  0  0  0
    4.6626    2.8064    0.8369 O   0  0  0  0  0  0  0  0  0  0  0  0
    3.4382    1.9293   -0.8991 O   0  0  0  0  0  0  0  0  0  0  0  0
    4.2902    0.7735   -0.9182 C   0  0  0  0  0  0  0  0  0  0  0  0
    3.8335   -0.2693    0.0971 C   0  0  0  0  0  0  0  0  0  0  0  0
    2.3872   -0.7019   -0.1457 C   0  0  0  0  0  0  0  0  0  0  0  0
    2.0391   -1.7855    0.7752 N   0  0  0  0  0  0  0  0  0  0  0  0
    0.7190   -2.2748    0.8457 C   0  0  0  0  0  0  0  0  0  0  0  0
   -0.2024   -2.0597   -0.2225 C   0  0  0  0  0  0  0  0  0  0  0  0
   -1.5296   -2.5575   -0.2587 C   0  0  0  0  0  0  0  0  0  0  0  0
   -2.6488   -2.2372   -1.5844 S   0  0  0  0  0  0  0  0  0  0  0  0
   -3.0468   -0.5307   -1.2544 C   0  0  0  0  0  0  0  0  0  0  0  0
   -3.8770   -0.1874   -0.1830 C   0  0  0  0  0  0  0  0  0  0  0  0
   -4.1767    1.1531    0.0746 C   0  0  0  0  0  0  0  0  0  0  0  0
   -3.6469    2.1665   -0.7331 C   0  0  0  0  0  0  0  0  0  0  0  0
   -4.0000    3.6027   -0.4797 C   0  0  0  0  0  0  0  0  0  0  0  0
   -2.8364    1.8169   -1.8203 C   0  0  0  0  0  0  0  0  0  0  0  0
   -2.5363    0.4764   -2.0782 C   0  0  0  0  0  0  0  0  0  0  0  0
   -1.9170   -3.3448    0.8479 C   0  0  0  0  0  0  0  0  0  0  0  0
   -3.0848   -3.9403    1.1283 N   0  0  0  0  0  0  0  0  0  0  0  0
   -2.9120   -4.5766    2.3406 O   0  0  0  0  0  0  0  0  0  0  0  0
   -1.6423   -4.3765    2.8439 N   0  0  0  0  0  0  0  0  0  0  0  0
   -0.9936   -3.6281    1.9404 C   0  0  0  0  0  0  0  0  0  0  0  0
    0.3168   -3.1152    1.9169 C   0  0  0  0  0  0  0  0  0  0  0  0
    1.1870   -3.4472    3.0093 N   0  0  0  0  0  4  0  0  0  0  0  0
    1.7543   -2.5015    3.5777 O   0  0  0  0  0  0  0  0  0  0  0  0
    1.3421   -4.6439    3.2832 O   0  0  0  0  0  1  0  0  0  0  0  0
    1.7823    3.6928    0.1166 H   0  0  0  0  0  0  0  0  0  0  0  0
    3.0685    4.7920    0.6565 H   0  0  0  0  0  0  0  0  0  0  0  0
    2.8723    4.4769   -1.0791 H   0  0  0  0  0  0  0  0  0  0  0  0
    5.3358    1.0556   -0.7477 H   0  0  0  0  0  0  0  0  0  0  0  0
    4.2393    0.3580   -1.9305 H   0  0  0  0  0  0  0  0  0  0  0  0
    3.9165    0.1369    1.1124 H   0  0  0  0  0  0  0  0  0  0  0  0
    4.4999   -1.1385    0.0446 H   0  0  0  0  0  0  0  0  0  0  0  0
    2.2901   -1.0480   -1.1811 H   0  0  0  0  0  0  0  0  0  0  0  0
    1.7139    0.1497    0.0075 H   0  0  0  0  0  0  0  0  0  0  0  0
    2.4419   -1.6367    1.7085 H   0  0  0  0  0  0  0  0  0  0  0  0
    0.1108   -1.4679   -1.0823 H   0  0  0  0  0  0  0  0  0  0  0  0
   -4.3054   -0.9579    0.4547 H   0  0  0  0  0  0  0  0  0  0  0  0
   -4.8313    1.3999    0.9084 H   0  0  0  0  0  0  0  0  0  0  0  0
   -4.8932    3.8747   -1.0507 H   0  0  0  0  0  0  0  0  0  0  0  0
   -4.1939    3.7763    0.5842 H   0  0  0  0  0  0  0  0  0  0  0  0
   -3.1767    4.2634   -0.7714 H   0  0  0  0  0  0  0  0  0  0  0  0
   -2.4375    2.5871   -2.4778 H   0  0  0  0  0  0  0  0  0  0  0  0
   -1.9066    0.2283   -2.9299 H   0  0  0  0  0  0  0  0  0  0  0  0
  1  2  1  0
  2  3  2  0
  2  4  1  0
  4  5  1  0
  5  6  1  0
  6  7  1  0
  7  8  1  0
  8  9  1  0
  9 10  1  0
 10 11  2  0
 11 12  1  0
 12 13  1  0
 13 14  2  0
 14 15  1  0
 15 16  2  0
 16 17  1  0
 16 18  1  0
 18 19  2  0
 11 20  1  0
 20 21  2  0
 21 22  1  0
 22 23  1  0
 23 24  2  0
 24 25  1  0
 25 26  1  0
 26 27  2  0
 26 28  1  0
 25  9  2  0
 19 13  1  0
 24 20  1  0
  1 29  1  0
  1 30  1  0
  1 31  1  0
  5 32  1  0
  5 33  1  0
  6 34  1  0
  6 35  1  0
  7 36  1  0
  7 37  1  0
  8 38  1  0
 10 39  1  0
 14 40  1  0
 15 41  1  0
 17 42  1  0
 17 43  1  0
 17 44  1  0
 18 45  1  0
 19 46  1  0
M  CHG  2  26   1  28  -1
M  END
$$$$
