
     RDKit          3D

 44 47  0  0  0  0  0  0  0  0999 V2000
    6.1390    1.3175   -2.9146 C   0  0  0  0  0  0  0  0  0  0  0  0
    4.9032    1.0545   -2.2657 O   0  0  0  0  0  0  0  0  0  0  0  0
    5.0008    0.5460   -1.0424 C   0  0  0  0  0  0  0  0  0  0  0  0
    6.0184    0.1793   -0.1884 C   0  0  0  0  0  0  0  0  0  0  0  0
    5.3951   -0.3029    0.9888 C   0  0  0  0  0  0  0  0  0  0  0  0
    4.0324   -0.2006    0.7863 C   0  0  0  0  0  0  0  0  0  0  0  0
    2.9128   -0.5433    1.6361 C   0  0  0  0  0  0  0  0  0  0  0  0
    3.0347   -1.0437    2.7507 O   0  0  0  0  0  0  0  0  0  0  0  0
    1.6848   -0.2662    1.0791 N   0  0  0  0  0  0  0  0  0  0  0  0
    0.4498   -0.6752    1.7044 C   0  0  0  0  0  0  0  0  0  0  0  0
    0.1727   -2.1753    1.4508 C   0  0  0  0  0  0  0  0  0  0  0  0
   -1.3080   -2.5339    1.6597 C   0  0  0  0  0  0  0  0  0  0  0  0
   -2.2200   -1.7627    0.6848 C   0  0  0  0  0  0  0  0  0  0  0  0
   -1.8590   -0.3158    0.6875 C   0  0  0  0  0  0  0  0  0  0  0  0
   -0.6546    0.1717    1.1666 C   0  0  0  0  0  0  0  0  0  0  0  0
   -0.7946    1.5618    1.1256 C   0  0  0  0  0  0  0  0  0  0  0  0
   -1.9794    1.9373    0.6513 N   0  0  0  0  0  0  0  0  0  0  0  0
   -2.6284    0.7792    0.3158 N   0  0  0  0  0  0  0  0  0  0  0  0
   -3.9171    0.8793   -0.2840 C   0  0  0  0  0  0  0  0  0  0  0  0
   -4.6112    2.1021   -0.1824 C   0  0  0  0  0  0  0  0  0  0  0  0
   -5.8858    2.2560   -0.7368 C   0  0  0  0  0  0  0  0  0  0  0  0
   -6.4823    1.1975   -1.4138 C   0  0  0  0  0  0  0  0  0  0  0  0
   -5.7953   -0.0064   -1.5455 C   0  0  0  0  0  0  0  0  0  0  0  0
   -4.5214   -0.1591   -0.9906 C   0  0  0  0  0  0  0  0  0  0  0  0
   -3.8979   -1.3142   -1.2436 F   0  0  0  0  0  0  0  0  0  0  0  0
    3.7940    0.3179   -0.4595 O   0  0  0  0  0  0  0  0  0  0  0  0
    6.7251    2.0562   -2.3571 H   0  0  0  0  0  0  0  0  0  0  0  0
    6.7141    0.3953   -3.0509 H   0  0  0  0  0  0  0  0  0  0  0  0
    5.9224    1.7321   -3.9036 H   0  0  0  0  0  0  0  0  0  0  0  0
    7.0784    0.2476   -0.3837 H   0  0  0  0  0  0  0  0  0  0  0  0
    5.8688   -0.6816    1.8846 H   0  0  0  0  0  0  0  0  0  0  0  0
    1.6782    0.0338    0.1097 H   0  0  0  0  0  0  0  0  0  0  0  0
    0.5266   -0.5079    2.7864 H   0  0  0  0  0  0  0  0  0  0  0  0
    0.4565   -2.4438    0.4238 H   0  0  0  0  0  0  0  0  0  0  0  0
    0.8011   -2.7838    2.1121 H   0  0  0  0  0  0  0  0  0  0  0  0
   -1.5922   -2.3046    2.6948 H   0  0  0  0  0  0  0  0  0  0  0  0
   -1.4533   -3.6108    1.5175 H   0  0  0  0  0  0  0  0  0  0  0  0
   -2.0670   -2.1743   -0.3188 H   0  0  0  0  0  0  0  0  0  0  0  0
   -3.2619   -1.9172    0.9824 H   0  0  0  0  0  0  0  0  0  0  0  0
   -0.0912    2.3213    1.4438 H   0  0  0  0  0  0  0  0  0  0  0  0
   -4.1742    2.9493    0.3457 H   0  0  0  0  0  0  0  0  0  0  0  0
   -6.4072    3.2052   -0.6379 H   0  0  0  0  0  0  0  0  0  0  0  0
   -7.4709    1.3144   -1.8500 H   0  0  0  0  0  0  0  0  0  0  0  0
   -6.2361   -0.8318   -2.0971 H   0  0  0  0  0  0  0  0  0  0  0  0
  1  2  1  0
  2  3  1  0
  3  4  2  0
  4  5  1  0
  5  6  2  0
  6  7  1  0
  7  8  2  0
  7  9  1  0
  9 10  1  0
 10 11  1  0
 11 12  1  0
 12 13  1  0
 13 14  1  0
 14 15  2  0
 15 16  1  0
 16 17  2  0
 17 18  1  0
 18 19  1  0
 19 20  2  0
 20 21  1  0
 21 22  2  0
 22 23  1  0
 23 24  2  0
 24 25  1  0
  6 26  1  0
 26  3  1  0
 15 10  1  0
 24 19  1  0
 18 14  1  0
  1 27  1  0
  1 28  1  0
  1 29  1  0
  4 30  1  0
  5 31  1  0
  9 32  1  0
 10 33  1  0
 11 34  1  0
 11 35  1  0
 12 36  1  0
 12 37  1  0
 13 38  1  0
 13 39  1  0
 16 40  1  0
 20 41  1  0
 21 42  1  0
 22 43  1  0
 23 44  1  0
M  END
$$$$
