
     RDKit          3D

 43 45  0  0  0  0  0  0  0  0999 V2000
    4.4583   -1.6463   -1.8283 C   0  0  0  0  0  0  0  0  0  0  0  0
    3.6453   -1.9079   -0.6834 O   0  0  0  0  0  0  0  0  0  0  0  0
    3.1394   -0.7405   -0.1670 C   0  0  0  0  0  0  0  0  0  0  0  0
    1.7770   -0.5039   -0.3845 C   0  0  0  0  0  0  0  0  0  0  0  0
    1.1586    0.6451    0.1299 C   0  0  0  0  0  0  0  0  0  0  0  0
   -0.2710    0.8541   -0.1762 C   0  0  0  0  0  0  0  0  0  0  0  0
   -0.6185    1.7720   -1.2168 C   0  0  0  0  0  0  0  0  0  0  0  0
   -0.8472    2.5271   -2.0674 N   0  0  0  0  0  0  0  0  0  0  0  0
   -1.1839    0.1605    0.5316 C   0  0  0  0  0  0  0  0  0  0  0  0
   -2.6411    0.2681    0.3485 C   0  0  0  0  0  0  0  0  0  0  0  0
   -3.2812    1.3995    0.8776 C   0  0  0  0  0  0  0  0  0  0  0  0
   -4.6549    1.5611    0.7352 C   0  0  0  0  0  0  0  0  0  0  0  0
   -5.4016    0.5942    0.0650 C   0  0  0  0  0  0  0  0  0  0  0  0
   -4.7884   -0.5483   -0.4717 C   0  0  0  0  0  0  0  0  0  0  0  0
   -5.5564   -1.5135   -1.1445 C   0  0  0  0  0  0  0  0  0  0  0  0
   -4.9647   -2.6558   -1.6816 C   0  0  0  0  0  0  0  0  0  0  0  0
   -3.5956   -2.8502   -1.5520 C   0  0  0  0  0  0  0  0  0  0  0  0
   -2.8174   -1.9001   -0.8866 C   0  0  0  0  0  0  0  0  0  0  0  0
   -3.3891   -0.7298   -0.3325 C   0  0  0  0  0  0  0  0  0  0  0  0
    1.9538    1.5307    0.8817 C   0  0  0  0  0  0  0  0  0  0  0  0
    1.3898    2.7448    1.4636 N   0  0  0  0  0  4  0  0  0  0  0  0
    2.0627    3.7796    1.3650 O   0  0  0  0  0  0  0  0  0  0  0  0
    0.2992    2.6529    2.0415 O   0  0  0  0  0  1  0  0  0  0  0  0
    3.3204    1.2843    1.1209 C   0  0  0  0  0  0  0  0  0  0  0  0
    3.9200    0.1359    0.6043 C   0  0  0  0  0  0  0  0  0  0  0  0
    5.2264   -0.2200    0.7988 O   0  0  0  0  0  0  0  0  0  0  0  0
    6.0342    0.6294    1.6044 C   0  0  0  0  0  0  0  0  0  0  0  0
    4.7069   -2.6082   -2.2872 H   0  0  0  0  0  0  0  0  0  0  0  0
    5.3958   -1.1529   -1.5549 H   0  0  0  0  0  0  0  0  0  0  0  0
    3.9178   -1.0480   -2.5702 H   0  0  0  0  0  0  0  0  0  0  0  0
    1.2098   -1.2271   -0.9684 H   0  0  0  0  0  0  0  0  0  0  0  0
   -0.8852   -0.5364    1.3125 H   0  0  0  0  0  0  0  0  0  0  0  0
   -2.7121    2.1623    1.4069 H   0  0  0  0  0  0  0  0  0  0  0  0
   -5.1447    2.4405    1.1456 H   0  0  0  0  0  0  0  0  0  0  0  0
   -6.4749    0.7417   -0.0372 H   0  0  0  0  0  0  0  0  0  0  0  0
   -6.6306   -1.3788   -1.2592 H   0  0  0  0  0  0  0  0  0  0  0  0
   -5.5745   -3.3907   -2.2012 H   0  0  0  0  0  0  0  0  0  0  0  0
   -3.1296   -3.7388   -1.9700 H   0  0  0  0  0  0  0  0  0  0  0  0
   -1.7492   -2.0855   -0.8065 H   0  0  0  0  0  0  0  0  0  0  0  0
    3.8871    1.9959    1.7156 H   0  0  0  0  0  0  0  0  0  0  0  0
    7.0334    0.1873    1.6576 H   0  0  0  0  0  0  0  0  0  0  0  0
    5.6430    0.6944    2.6251 H   0  0  0  0  0  0  0  0  0  0  0  0
    6.1327    1.6214    1.1526 H   0  0  0  0  0  0  0  0  0  0  0  0
  1  2  1  0
  2  3  1  0
  3  4  2  0
  4  5  1  0
  5  6  1  0
  6  7  1  0
  7  8  3  0
  6  9  2  3
  9 10  1  0
 10 11  2  0
 11 12  1  0
 12 13  2  0
 13 14  1  0
 14 15  2  0
 15 16  1  0
 16 17  2  0
 17 18  1  0
 18 19  2  0
  5 20  2  0
 20 21  1  0
 21 22  2  0
 21 23  1  0
 20 24  1  0
 24 25  2  0
 25 26  1  0
 26 27  1  0
 25  3  1  0
 19 10  1  0
 19 14  1  0
  1 28  1  0
  1 29  1  0
  1 30  1  0
  4 31  1  0
  9 32  1  0
 11 33  1  0
 12 34  1  0
 13 35  1  0
 15 36  1  0
 16 37  1  0
 17 38  1  0
 18 39  1  0
 24 40  1  0
 27 41  1  0
 27 42  1  0
 27 43  1  0
M  CHG  2  21   1  23  -1
M  END
$$$$
