
     RDKit          3D

 52 54  0  0  0  0  0  0  0  0999 V2000
   -4.4783    3.1252   -1.7456 C   0  0  0  0  0  0  0  0  0  0  0  0
   -3.7519    1.9823   -1.0079 C   0  0  0  0  0  0  0  0  0  0  0  0
   -3.9805    2.1817    0.5023 C   0  0  0  0  0  0  0  0  0  0  0  0
   -2.2377    2.0647   -1.3546 C   0  0  0  0  0  0  0  0  0  0  0  0
   -1.5098    0.8063   -0.9778 C   0  0  0  0  0  0  0  0  0  0  0  0
   -2.2176   -0.3779   -0.8555 C   0  0  0  0  0  0  0  0  0  0  0  0
   -1.2126   -1.6540   -0.3450 S   0  0  0  0  0  0  0  0  0  0  0  0
    0.1557   -0.6599   -0.2642 C   0  0  0  0  0  0  0  0  0  0  0  0
    1.3746   -1.1471    0.1841 N   0  0  0  0  0  0  0  0  0  0  0  0
    1.6850   -2.4383    0.5679 C   0  0  0  0  0  0  0  0  0  0  0  0
    0.9552   -3.4262    0.5355 O   0  0  0  0  0  0  0  0  0  0  0  0
    3.1420   -2.5894    1.0168 C   0  0  0  0  0  0  0  0  0  0  0  0
    3.7231   -1.3402    1.3705 O   0  0  0  0  0  0  0  0  0  0  0  0
    4.9873   -1.3562    1.8996 C   0  0  0  0  0  0  0  0  0  0  0  0
    5.8285   -2.4746    1.9044 C   0  0  0  0  0  0  0  0  0  0  0  0
    7.1109   -2.3919    2.4582 C   0  0  0  0  0  0  0  0  0  0  0  0
    7.5592   -1.1923    3.0061 C   0  0  0  0  0  0  0  0  0  0  0  0
    9.1375   -1.1011    3.6836 Cl  0  0  0  0  0  0  0  0  0  0  0  0
    6.7393   -0.0695    3.0075 C   0  0  0  0  0  0  0  0  0  0  0  0
    5.4591   -0.1530    2.4546 C   0  0  0  0  0  0  0  0  0  0  0  0
    4.4729    1.2669    2.4898 Cl  0  0  0  0  0  0  0  0  0  0  0  0
   -0.0992    0.6379   -0.6928 C   0  0  0  0  0  0  0  0  0  0  0  0
    0.9722    1.6302   -0.7842 C   0  0  0  0  0  0  0  0  0  0  0  0
    0.7772    2.6664   -1.6516 N   0  0  0  0  0  0  0  0  0  0  0  0
    2.0398    1.5247   -0.1872 O   0  0  0  0  0  0  0  0  0  0  0  0
   -3.7084   -0.5514   -1.1076 C   0  0  0  0  0  0  0  0  0  0  0  0
   -4.4364   -1.1449    0.1143 C   0  0  0  0  0  0  0  0  0  0  0  0
   -3.9315   -1.4877   -2.3136 C   0  0  0  0  0  0  0  0  0  0  0  0
   -4.3521    0.7279   -1.5021 N   0  0  0  0  0  0  0  0  0  0  0  0
   -5.5500    3.1362   -1.5135 H   0  0  0  0  0  0  0  0  0  0  0  0
   -4.0681    4.1011   -1.4607 H   0  0  0  0  0  0  0  0  0  0  0  0
   -4.3748    3.0305   -2.8332 H   0  0  0  0  0  0  0  0  0  0  0  0
   -3.6825    3.1909    0.8106 H   0  0  0  0  0  0  0  0  0  0  0  0
   -3.3999    1.4825    1.1108 H   0  0  0  0  0  0  0  0  0  0  0  0
   -5.0381    2.0608    0.7641 H   0  0  0  0  0  0  0  0  0  0  0  0
   -2.1117    2.2140   -2.4352 H   0  0  0  0  0  0  0  0  0  0  0  0
   -1.7942    2.9288   -0.8460 H   0  0  0  0  0  0  0  0  0  0  0  0
    2.1163   -0.4488    0.2864 H   0  0  0  0  0  0  0  0  0  0  0  0
    3.6855   -3.0357    0.1760 H   0  0  0  0  0  0  0  0  0  0  0  0
    3.1418   -3.2610    1.8836 H   0  0  0  0  0  0  0  0  0  0  0  0
    5.5240   -3.4266    1.4807 H   0  0  0  0  0  0  0  0  0  0  0  0
    7.7550   -3.2684    2.4559 H   0  0  0  0  0  0  0  0  0  0  0  0
    7.0907    0.8651    3.4357 H   0  0  0  0  0  0  0  0  0  0  0  0
    1.5951    3.2343   -1.8291 H   0  0  0  0  0  0  0  0  0  0  0  0
    0.1136    2.5706   -2.4059 H   0  0  0  0  0  0  0  0  0  0  0  0
   -5.5196   -1.1943   -0.0508 H   0  0  0  0  0  0  0  0  0  0  0  0
   -4.2655   -0.5643    1.0255 H   0  0  0  0  0  0  0  0  0  0  0  0
   -4.1047   -2.1692    0.3216 H   0  0  0  0  0  0  0  0  0  0  0  0
   -4.9977   -1.5898   -2.5508 H   0  0  0  0  0  0  0  0  0  0  0  0
   -3.5485   -2.4966   -2.1207 H   0  0  0  0  0  0  0  0  0  0  0  0
   -3.4238   -1.1142   -3.2119 H   0  0  0  0  0  0  0  0  0  0  0  0
   -5.3463    0.6957   -1.2832 H   0  0  0  0  0  0  0  0  0  0  0  0
  1  2  1  0
  2  3  1  0
  2  4  1  0
  4  5  1  0
  5  6  2  0
  6  7  1  0
  7  8  1  0
  8  9  1  0
  9 10  1  0
 10 11  2  0
 10 12  1  0
 12 13  1  0
 13 14  1  0
 14 15  2  0
 15 16  1  0
 16 17  2  0
 17 18  1  0
 17 19  1  0
 19 20  2  0
 20 21  1  0
  8 22  2  0
 22 23  1  0
 23 24  1  0
 23 25  2  0
  6 26  1  0
 26 27  1  0
 26 28  1  0
 26 29  1  0
 29  2  1  0
 22  5  1  0
 20 14  1  0
  1 30  1  0
  1 31  1  0
  1 32  1  0
  3 33  1  0
  3 34  1  0
  3 35  1  0
  4 36  1  0
  4 37  1  0
  9 38  1  0
 12 39  1  0
 12 40  1  0
 15 41  1  0
 16 42  1  0
 19 43  1  0
 24 44  1  0
 24 45  1  0
 27 46  1  0
 27 47  1  0
 27 48  1  0
 28 49  1  0
 28 50  1  0
 28 51  1  0
 29 52  1  0
M  END
$$$$
