
     RDKit          3D

 37 39  0  0  0  0  0  0  0  0999 V2000
   -4.7330   -2.2760   -0.4406 C   0  0  0  0  0  0  0  0  0  0  0  0
   -4.6147   -1.3312   -1.4983 O   0  0  0  0  0  0  0  0  0  0  0  0
   -3.4236   -0.6551   -1.5920 C   0  0  0  0  0  0  0  0  0  0  0  0
   -2.3247   -0.8095   -0.7485 C   0  0  0  0  0  0  0  0  0  0  0  0
   -1.1660   -0.0438   -0.9492 C   0  0  0  0  0  0  0  0  0  0  0  0
   -0.0227   -0.2507   -0.0494 C   0  0  0  0  0  0  0  0  0  0  0  0
    0.6995    0.7532    0.4748 C   0  0  0  0  0  0  0  0  0  0  0  0
    1.7881    0.4832    1.3549 C   0  0  0  0  0  0  0  0  0  0  0  0
    2.2076   -0.7021    1.7526 N   0  0  0  0  0  0  0  0  0  0  0  0
    3.2907   -0.5813    2.6059 C   0  0  0  0  0  0  0  0  0  0  0  0
    3.9861   -1.6459    3.2147 C   0  0  0  0  0  0  0  0  0  0  0  0
    5.0681   -1.3778    4.0596 C   0  0  0  0  0  0  0  0  0  0  0  0
    5.4628   -0.0662    4.3032 C   0  0  0  0  0  0  0  0  0  0  0  0
    4.7891    1.0067    3.7110 C   0  0  0  0  0  0  0  0  0  0  0  0
    3.7040    0.7245    2.8642 C   0  0  0  0  0  0  0  0  0  0  0  0
    2.6903    1.8109    2.0006 S   0  0  0  0  0  0  0  0  0  0  0  0
   -1.1049    0.8607   -2.0230 C   0  0  0  0  0  0  0  0  0  0  0  0
   -2.1965    1.0268   -2.8793 C   0  0  0  0  0  0  0  0  0  0  0  0
   -2.2390    1.8839   -3.9466 O   0  0  0  0  0  0  0  0  0  0  0  0
   -1.0721    2.6417   -4.2288 C   0  0  0  0  0  0  0  0  0  0  0  0
   -3.3474    0.2653   -2.6473 C   0  0  0  0  0  0  0  0  0  0  0  0
   -4.4369    0.4115   -3.4736 O   0  0  0  0  0  0  0  0  0  0  0  0
   -4.6483   -1.7877    0.5358 H   0  0  0  0  0  0  0  0  0  0  0  0
   -5.7294   -2.7239   -0.5034 H   0  0  0  0  0  0  0  0  0  0  0  0
   -3.9987   -3.0813   -0.5471 H   0  0  0  0  0  0  0  0  0  0  0  0
   -2.3460   -1.5116    0.0791 H   0  0  0  0  0  0  0  0  0  0  0  0
    0.2040   -1.2862    0.2012 H   0  0  0  0  0  0  0  0  0  0  0  0
    0.4579    1.7874    0.2487 H   0  0  0  0  0  0  0  0  0  0  0  0
    3.6743   -2.6674    3.0212 H   0  0  0  0  0  0  0  0  0  0  0  0
    5.6018   -2.2020    4.5270 H   0  0  0  0  0  0  0  0  0  0  0  0
    6.3062    0.1291    4.9624 H   0  0  0  0  0  0  0  0  0  0  0  0
    5.0981    2.0299    3.9017 H   0  0  0  0  0  0  0  0  0  0  0  0
   -0.1883    1.4191   -2.1813 H   0  0  0  0  0  0  0  0  0  0  0  0
   -0.8310    3.3180   -3.4021 H   0  0  0  0  0  0  0  0  0  0  0  0
   -0.2251    1.9899   -4.4670 H   0  0  0  0  0  0  0  0  0  0  0  0
   -1.2768    3.2558   -5.1111 H   0  0  0  0  0  0  0  0  0  0  0  0
   -5.1039   -0.2116   -3.1297 H   0  0  0  0  0  0  0  0  0  0  0  0
  1  2  1  0
  2  3  1  0
  3  4  2  0
  4  5  1  0
  5  6  1  0
  6  7  2  3
  7  8  1  0
  8  9  2  0
  9 10  1  0
 10 11  2  0
 11 12  1  0
 12 13  2  0
 13 14  1  0
 14 15  2  0
 15 16  1  0
  5 17  2  0
 17 18  1  0
 18 19  1  0
 19 20  1  0
 18 21  2  0
 21 22  1  0
 21  3  1  0
 16  8  1  0
 15 10  1  0
  1 23  1  0
  1 24  1  0
  1 25  1  0
  4 26  1  0
  6 27  1  0
  7 28  1  0
 11 29  1  0
 12 30  1  0
 13 31  1  0
 14 32  1  0
 17 33  1  0
 20 34  1  0
 20 35  1  0
 20 36  1  0
 22 37  1  0
M  END
$$$$
