
     RDKit          3D

 42 46  0  0  0  0  0  0  0  0999 V2000
   -3.2829    1.8597    0.1414 O   0  0  0  0  0  0  0  0  0  0  0  0
   -2.5101    0.9972   -0.2837 C   0  0  0  0  0  0  0  0  0  0  0  0
   -3.0501   -0.3816   -0.4599 C   0  0  0  0  0  0  0  0  0  0  0  0
   -2.6127   -1.2333   -1.4809 C   0  0  0  0  0  0  0  0  0  0  0  0
   -3.1565   -2.5143   -1.6034 C   0  0  0  0  0  0  0  0  0  0  0  0
   -4.1440   -2.9445   -0.7177 C   0  0  0  0  0  0  0  0  0  0  0  0
   -4.5963   -2.0943    0.2899 C   0  0  0  0  0  0  0  0  0  0  0  0
   -4.0548   -0.8142    0.4167 C   0  0  0  0  0  0  0  0  0  0  0  0
   -1.0558    1.3115   -0.7220 C   0  0  0  0  0  0  0  0  0  0  0  0
   -0.5375    2.5036   -0.1288 O   0  0  0  0  0  0  0  0  0  0  0  0
   -0.0629    2.3504    1.1462 C   0  0  0  0  0  0  0  0  0  0  0  0
    0.0217    3.5100    1.9160 C   0  0  0  0  0  0  0  0  0  0  0  0
    0.4858    3.4449    3.2286 C   0  0  0  0  0  0  0  0  0  0  0  0
    0.8688    2.2195    3.7698 C   0  0  0  0  0  0  0  0  0  0  0  0
    0.7998    1.0606    2.9943 C   0  0  0  0  0  0  0  0  0  0  0  0
    0.3510    1.1188    1.6654 C   0  0  0  0  0  0  0  0  0  0  0  0
    0.2830   -0.1191    0.8123 C   0  0  0  0  0  0  0  0  0  0  0  0
    1.6125   -0.8381    0.6280 C   0  0  0  0  0  0  0  0  0  0  0  0
    1.9097   -0.4891   -0.8043 C   0  0  0  0  0  0  0  0  0  0  0  0
    3.1646   -0.7831   -1.4558 C   0  0  0  0  0  0  0  0  0  0  0  0
    3.5388   -0.4581   -2.7471 C   0  0  0  0  0  0  0  0  0  0  0  0
    4.8529   -0.9054   -3.0677 C   0  0  0  0  0  0  0  0  0  0  0  0
    5.4422   -1.5612   -2.0112 C   0  0  0  0  0  0  0  0  0  0  0  0
    4.4127   -1.6332   -0.6489 S   0  0  0  0  0  0  0  0  0  0  0  0
    0.9321    0.0905   -1.4389 N   0  0  0  0  0  0  0  0  0  0  0  0
   -0.1141    0.2090   -0.5495 N   0  0  0  0  0  0  0  0  0  0  0  0
   -1.8561   -0.9205   -2.1966 H   0  0  0  0  0  0  0  0  0  0  0  0
   -2.8127   -3.1751   -2.3960 H   0  0  0  0  0  0  0  0  0  0  0  0
   -4.5684   -3.9406   -0.8191 H   0  0  0  0  0  0  0  0  0  0  0  0
   -5.3749   -2.4243    0.9733 H   0  0  0  0  0  0  0  0  0  0  0  0
   -4.4202   -0.1527    1.2004 H   0  0  0  0  0  0  0  0  0  0  0  0
   -1.1230    1.5090   -1.7997 H   0  0  0  0  0  0  0  0  0  0  0  0
   -0.2893    4.4623    1.4944 H   0  0  0  0  0  0  0  0  0  0  0  0
    0.5408    4.3490    3.8291 H   0  0  0  0  0  0  0  0  0  0  0  0
    1.2224    2.1679    4.7966 H   0  0  0  0  0  0  0  0  0  0  0  0
    1.1026    0.1136    3.4355 H   0  0  0  0  0  0  0  0  0  0  0  0
   -0.4739   -0.7907    1.2343 H   0  0  0  0  0  0  0  0  0  0  0  0
    2.4060   -0.5082    1.3028 H   0  0  0  0  0  0  0  0  0  0  0  0
    1.4885   -1.9238    0.7031 H   0  0  0  0  0  0  0  0  0  0  0  0
    2.8920    0.0822   -3.4296 H   0  0  0  0  0  0  0  0  0  0  0  0
    5.3389   -0.7522   -4.0236 H   0  0  0  0  0  0  0  0  0  0  0  0
    6.4290   -2.0022   -1.9730 H   0  0  0  0  0  0  0  0  0  0  0  0
  1  2  2  0
  2  3  1  0
  3  4  2  0
  4  5  1  0
  5  6  2  0
  6  7  1  0
  7  8  2  0
  2  9  1  0
  9 10  1  0
 10 11  1  0
 11 12  2  0
 12 13  1  0
 13 14  2  0
 14 15  1  0
 15 16  2  0
 16 17  1  0
 17 18  1  0
 18 19  1  0
 19 20  1  0
 20 21  2  0
 21 22  1  0
 22 23  2  0
 23 24  1  0
 19 25  2  0
 25 26  1  0
  8  3  1  0
 26  9  1  0
 16 11  1  0
 26 17  1  0
 24 20  1  0
  4 27  1  0
  5 28  1  0
  6 29  1  0
  7 30  1  0
  8 31  1  0
  9 32  1  0
 12 33  1  0
 13 34  1  0
 14 35  1  0
 15 36  1  0
 17 37  1  0
 18 38  1  0
 18 39  1  0
 21 40  1  0
 22 41  1  0
 23 42  1  0
M  END
$$$$
