
     RDKit          3D

 33 35  0  0  0  0  0  0  0  0999 V2000
    4.5945   -1.2757    1.5839 C   0  0  0  0  0  0  0  0  0  0  0  0
    4.6696   -0.1209    0.6380 C   0  0  0  0  0  0  0  0  0  0  0  0
    5.9003    0.4997    0.2388 C   0  0  0  0  0  0  0  0  0  0  0  0
    5.7091    1.5459   -0.6331 C   0  0  0  0  0  0  0  0  0  0  0  0
    4.0582    1.7917   -0.9786 S   0  0  0  0  0  0  0  0  0  0  0  0
    3.5797    0.4959    0.0351 C   0  0  0  0  0  0  0  0  0  0  0  0
    2.1767    0.1565    0.1842 C   0  0  0  0  0  0  0  0  0  0  0  0
    1.2344    0.8203   -0.4121 N   0  0  0  0  0  0  0  0  0  0  0  0
   -0.0739    0.4627   -0.1862 N   0  0  0  0  0  0  0  0  0  0  0  0
   -0.5957   -0.0110    1.0119 C   0  0  0  0  0  0  0  0  0  0  0  0
    0.0739   -0.2902    2.0031 O   0  0  0  0  0  0  0  0  0  0  0  0
   -2.0312   -0.1418    1.0246 C   0  0  0  0  0  0  0  0  0  0  0  0
   -2.7121   -0.4964    2.1768 N   0  0  0  0  0  0  0  0  0  0  0  0
   -4.0592   -0.5799    2.0327 N   0  0  0  0  0  0  0  0  0  0  0  0
   -4.2174   -0.2765    0.7549 C   0  0  0  0  0  0  0  0  0  0  0  0
   -3.0242   -0.0027    0.0865 C   0  0  0  0  0  0  0  0  0  0  0  0
   -3.2620    0.3162   -1.3337 C   0  0  0  0  0  0  0  0  0  0  0  0
   -4.7536   -0.1245   -1.5264 C   0  0  0  0  0  0  0  0  0  0  0  0
   -5.4090   -0.1792   -0.1065 C   0  0  0  0  0  0  0  0  0  0  0  0
    3.9884   -1.0159    2.4578 H   0  0  0  0  0  0  0  0  0  0  0  0
    5.5894   -1.5649    1.9381 H   0  0  0  0  0  0  0  0  0  0  0  0
    4.1462   -2.1445    1.0911 H   0  0  0  0  0  0  0  0  0  0  0  0
    6.8819    0.1917    0.5799 H   0  0  0  0  0  0  0  0  0  0  0  0
    6.4608    2.1797   -1.0832 H   0  0  0  0  0  0  0  0  0  0  0  0
    1.9653   -0.7257    0.8101 H   0  0  0  0  0  0  0  0  0  0  0  0
   -0.7204    0.9050   -0.8291 H   0  0  0  0  0  0  0  0  0  0  0  0
   -2.3024   -0.6898    3.0857 H   0  0  0  0  0  0  0  0  0  0  0  0
   -3.1578    1.3915   -1.5114 H   0  0  0  0  0  0  0  0  0  0  0  0
   -2.6016   -0.2309   -2.0119 H   0  0  0  0  0  0  0  0  0  0  0  0
   -5.2960    0.5383   -2.2079 H   0  0  0  0  0  0  0  0  0  0  0  0
   -4.7711   -1.1316   -1.9640 H   0  0  0  0  0  0  0  0  0  0  0  0
   -5.9609    0.7441    0.0960 H   0  0  0  0  0  0  0  0  0  0  0  0
   -6.0800   -1.0370   -0.0126 H   0  0  0  0  0  0  0  0  0  0  0  0
  1  2  1  0
  2  3  1  0
  3  4  2  0
  4  5  1  0
  5  6  1  0
  6  7  1  0
  7  8  2  3
  8  9  1  0
  9 10  1  0
 10 11  2  0
 10 12  1  0
 12 13  1  0
 13 14  1  0
 14 15  2  0
 15 16  1  0
 16 17  1  0
 17 18  1  0
 18 19  1  0
  6  2  2  0
 16 12  2  0
 19 15  1  0
  1 20  1  0
  1 21  1  0
  1 22  1  0
  3 23  1  0
  4 24  1  0
  7 25  1  0
  9 26  1  0
 13 27  1  0
 17 28  1  0
 17 29  1  0
 18 30  1  0
 18 31  1  0
 19 32  1  0
 19 33  1  0
M  END
$$$$
