
     RDKit          3D

 34 36  0  0  0  0  0  0  0  0999 V2000
   -2.2682   -2.8860   -2.5845 O   0  0  0  0  0  0  0  0  0  0  0  0
   -2.0912   -1.9293   -1.8402 C   0  0  0  0  0  0  0  0  0  0  0  0
   -3.1667   -1.1732   -1.3873 O   0  0  0  0  0  0  0  0  0  0  0  0
   -2.9819   -0.0701   -0.5312 C   0  0  0  0  0  0  0  0  0  0  0  0
   -4.1413    0.6066   -0.1479 C   0  0  0  0  0  0  0  0  0  0  0  0
   -4.0397    1.7068    0.6967 C   0  0  0  0  0  0  0  0  0  0  0  0
   -2.7867    2.1173    1.1471 C   0  0  0  0  0  0  0  0  0  0  0  0
   -1.6334    1.4276    0.7533 C   0  0  0  0  0  0  0  0  0  0  0  0
   -1.7101    0.3156   -0.0975 C   0  0  0  0  0  0  0  0  0  0  0  0
   -0.5272   -0.4540   -0.5486 C   0  0  0  0  0  0  0  0  0  0  0  0
    0.7375   -0.0541   -0.1049 N   0  0  0  0  0  0  0  0  0  0  0  0
    1.2634   -0.4680    1.2046 C   0  0  0  0  0  0  0  0  0  0  0  0
    2.7252   -0.8869    1.0687 C   0  0  0  0  0  0  0  0  0  0  0  0
    3.5585    0.2096    0.4091 C   0  0  0  0  0  0  0  0  0  0  0  0
    2.9476    0.6248   -0.9275 C   0  0  0  0  0  0  0  0  0  0  0  0
    1.4832    1.0260   -0.7682 C   0  0  0  0  0  0  0  0  0  0  0  0
   -0.7859   -1.4919   -1.3635 C   0  0  0  0  0  0  0  0  0  0  0  0
    0.3246   -2.2620   -1.8232 N   0  0  0  0  0  4  0  0  0  0  0  0
    0.6672   -3.2302   -1.1285 O   0  0  0  0  0  0  0  0  0  0  0  0
    0.8624   -1.9027   -2.8811 O   0  0  0  0  0  1  0  0  0  0  0  0
   -5.1137    0.2781   -0.5050 H   0  0  0  0  0  0  0  0  0  0  0  0
   -4.9336    2.2440    1.0039 H   0  0  0  0  0  0  0  0  0  0  0  0
   -2.7034    2.9775    1.8078 H   0  0  0  0  0  0  0  0  0  0  0  0
   -0.6754    1.7789    1.1260 H   0  0  0  0  0  0  0  0  0  0  0  0
    0.6846   -1.3081    1.6069 H   0  0  0  0  0  0  0  0  0  0  0  0
    1.1732    0.3611    1.9162 H   0  0  0  0  0  0  0  0  0  0  0  0
    3.1368   -1.1235    2.0561 H   0  0  0  0  0  0  0  0  0  0  0  0
    2.7906   -1.8004    0.4647 H   0  0  0  0  0  0  0  0  0  0  0  0
    3.6132    1.0800    1.0743 H   0  0  0  0  0  0  0  0  0  0  0  0
    4.5839   -0.1442    0.2553 H   0  0  0  0  0  0  0  0  0  0  0  0
    3.0243   -0.2118   -1.6330 H   0  0  0  0  0  0  0  0  0  0  0  0
    3.5166    1.4585   -1.3534 H   0  0  0  0  0  0  0  0  0  0  0  0
    1.4061    1.9447   -0.1749 H   0  0  0  0  0  0  0  0  0  0  0  0
    1.0593    1.2393   -1.7569 H   0  0  0  0  0  0  0  0  0  0  0  0
  1  2  2  0
  2  3  1  0
  3  4  1  0
  4  5  2  0
  5  6  1  0
  6  7  2  0
  7  8  1  0
  8  9  2  0
  9 10  1  0
 10 11  1  0
 11 12  1  0
 12 13  1  0
 13 14  1  0
 14 15  1  0
 15 16  1  0
 10 17  2  0
 17 18  1  0
 18 19  2  0
 18 20  1  0
 17  2  1  0
  9  4  1  0
 16 11  1  0
  5 21  1  0
  6 22  1  0
  7 23  1  0
  8 24  1  0
 12 25  1  0
 12 26  1  0
 13 27  1  0
 13 28  1  0
 14 29  1  0
 14 30  1  0
 15 31  1  0
 15 32  1  0
 16 33  1  0
 16 34  1  0
M  CHG  2  18   1  20  -1
M  END
$$$$
