
     RDKit          3D

 40 41  0  0  0  0  0  0  0  0999 V2000
   -5.4384   -0.0067   -1.1793 C   0  0  0  0  0  0  0  0  0  0  0  0
   -4.8368   -0.6548   -0.0178 N   0  0  0  0  0  0  0  0  0  0  0  0
   -4.2693   -1.9692   -0.3840 C   0  0  0  0  0  0  0  0  0  0  0  0
   -3.1409   -2.4372    0.5513 C   0  0  0  0  0  0  0  0  0  0  0  0
   -2.0259   -1.4841    0.5641 N   0  0  0  0  0  0  0  0  0  0  0  0
   -0.7340   -1.9589    0.7802 C   0  0  0  0  0  0  0  0  0  0  0  0
   -0.5249   -3.1522    0.9999 O   0  0  0  0  0  0  0  0  0  0  0  0
    0.3818   -0.9161    0.7106 C   0  0  0  0  0  0  0  0  0  0  0  0
    2.0437   -1.6616    0.8462 S   0  0  0  0  0  0  0  0  0  0  0  0
    3.0418   -0.2488    0.4075 C   0  0  0  0  0  0  0  0  0  0  0  0
    3.3838   -0.0973   -0.9434 C   0  0  0  0  0  0  0  0  0  0  0  0
    4.2034    0.9577   -1.3683 C   0  0  0  0  0  0  0  0  0  0  0  0
    4.7210    1.8843   -0.4500 C   0  0  0  0  0  0  0  0  0  0  0  0
    5.5890    3.0301   -0.9177 C   0  0  0  0  0  0  0  0  0  0  0  0
    4.8522    4.1272   -1.2401 F   0  0  0  0  0  0  0  0  0  0  0  0
    6.4811    3.4379    0.0251 F   0  0  0  0  0  0  0  0  0  0  0  0
    6.3212    2.7273   -2.0237 F   0  0  0  0  0  0  0  0  0  0  0  0
    4.3876    1.7443    0.9043 C   0  0  0  0  0  0  0  0  0  0  0  0
    3.5604    0.6846    1.3125 C   0  0  0  0  0  0  0  0  0  0  0  0
    3.2460    0.6036    2.7229 N   0  0  0  0  0  4  0  0  0  0  0  0
    2.0933    0.9092    3.0575 O   0  0  0  0  0  0  0  0  0  0  0  0
    4.1710    0.3031    3.4875 O   0  0  0  0  0  1  0  0  0  0  0  0
   -2.3828   -0.0778    0.3454 C   0  0  0  0  0  0  0  0  0  0  0  0
   -3.8617    0.2146    0.6649 C   0  0  0  0  0  0  0  0  0  0  0  0
   -5.9642    0.9068   -0.8804 H   0  0  0  0  0  0  0  0  0  0  0  0
   -6.1856   -0.6609   -1.6423 H   0  0  0  0  0  0  0  0  0  0  0  0
   -4.6915    0.2573   -1.9365 H   0  0  0  0  0  0  0  0  0  0  0  0
   -3.8597   -1.9349   -1.4031 H   0  0  0  0  0  0  0  0  0  0  0  0
   -5.0740   -2.7130   -0.3824 H   0  0  0  0  0  0  0  0  0  0  0  0
   -3.5055   -2.5285    1.5815 H   0  0  0  0  0  0  0  0  0  0  0  0
   -2.7888   -3.4255    0.2364 H   0  0  0  0  0  0  0  0  0  0  0  0
    0.2513   -0.2088    1.5326 H   0  0  0  0  0  0  0  0  0  0  0  0
    0.3094   -0.3918   -0.2473 H   0  0  0  0  0  0  0  0  0  0  0  0
    3.0241   -0.8101   -1.6855 H   0  0  0  0  0  0  0  0  0  0  0  0
    4.4474    1.0440   -2.4279 H   0  0  0  0  0  0  0  0  0  0  0  0
    4.7730    2.4530    1.6380 H   0  0  0  0  0  0  0  0  0  0  0  0
   -2.1708    0.1482   -0.7063 H   0  0  0  0  0  0  0  0  0  0  0  0
   -1.7462    0.5649    0.9601 H   0  0  0  0  0  0  0  0  0  0  0  0
   -4.0066    0.0645    1.7429 H   0  0  0  0  0  0  0  0  0  0  0  0
   -4.0752    1.2756    0.4859 H   0  0  0  0  0  0  0  0  0  0  0  0
  1  2  1  0
  2  3  1  0
  3  4  1  0
  4  5  1  0
  5  6  1  0
  6  7  2  0
  6  8  1  0
  8  9  1  0
  9 10  1  0
 10 11  2  0
 11 12  1  0
 12 13  2  0
 13 14  1  0
 14 15  1  0
 14 16  1  0
 14 17  1  0
 13 18  1  0
 18 19  2  0
 19 20  1  0
 20 21  2  0
 20 22  1  0
  5 23  1  0
 23 24  1  0
 24  2  1  0
 19 10  1  0
  1 25  1  0
  1 26  1  0
  1 27  1  0
  3 28  1  0
  3 29  1  0
  4 30  1  0
  4 31  1  0
  8 32  1  0
  8 33  1  0
 11 34  1  0
 12 35  1  0
 18 36  1  0
 23 37  1  0
 23 38  1  0
 24 39  1  0
 24 40  1  0
M  CHG  2  20   1  22  -1
M  END
$$$$
