
     RDKit          3D

 39 40  0  0  0  0  0  0  0  0999 V2000
    7.6226   -0.1596    0.6972 C   0  0  0  0  0  0  0  0  0  0  0  0
    6.7223   -0.9941   -0.0200 O   0  0  0  0  0  0  0  0  0  0  0  0
    5.4121   -0.6034   -0.0547 C   0  0  0  0  0  0  0  0  0  0  0  0
    4.5704   -1.4461   -0.7835 C   0  0  0  0  0  0  0  0  0  0  0  0
    3.2072   -1.1659   -0.9009 C   0  0  0  0  0  0  0  0  0  0  0  0
    2.6653   -0.0303   -0.2893 C   0  0  0  0  0  0  0  0  0  0  0  0
    1.1919    0.2615   -0.3966 C   0  0  0  0  0  0  0  0  0  0  0  0
    0.3821   -0.4899    0.6589 C   0  0  0  0  0  0  0  0  0  0  0  0
   -1.0096   -0.1354    0.5724 O   0  0  0  0  0  0  0  0  0  0  0  0
   -1.7290   -0.8155   -0.3528 C   0  0  0  0  0  0  0  0  0  0  0  0
   -1.3013   -1.6730   -1.1079 O   0  0  0  0  0  0  0  0  0  0  0  0
   -3.1500   -0.3728   -0.3367 C   0  0  0  0  0  0  0  0  0  0  0  0
   -4.0404   -0.9760   -1.2323 C   0  0  0  0  0  0  0  0  0  0  0  0
   -5.3878   -0.5964   -1.2623 C   0  0  0  0  0  0  0  0  0  0  0  0
   -5.8952    0.3633   -0.3757 C   0  0  0  0  0  0  0  0  0  0  0  0
   -7.2197    0.7923   -0.5611 N   0  0  0  0  0  0  0  0  0  0  0  0
   -4.9755    0.9971    0.4837 C   0  0  0  0  0  0  0  0  0  0  0  0
   -5.4124    2.0584    1.3924 N   0  0  0  0  0  4  0  0  0  0  0  0
   -6.5727    2.0067    1.8298 O   0  0  0  0  0  0  0  0  0  0  0  0
   -4.5850    2.9327    1.6888 O   0  0  0  0  0  1  0  0  0  0  0  0
   -3.6185    0.6258    0.5224 C   0  0  0  0  0  0  0  0  0  0  0  0
    3.5094    0.8109    0.4454 C   0  0  0  0  0  0  0  0  0  0  0  0
    4.8753    0.5273    0.5606 C   0  0  0  0  0  0  0  0  0  0  0  0
    8.6205   -0.6026    0.6227 H   0  0  0  0  0  0  0  0  0  0  0  0
    7.6694    0.8418    0.2567 H   0  0  0  0  0  0  0  0  0  0  0  0
    7.3576   -0.1135    1.7586 H   0  0  0  0  0  0  0  0  0  0  0  0
    4.9806   -2.3304   -1.2651 H   0  0  0  0  0  0  0  0  0  0  0  0
    2.5735   -1.8404   -1.4735 H   0  0  0  0  0  0  0  0  0  0  0  0
    1.0114    1.3401   -0.3013 H   0  0  0  0  0  0  0  0  0  0  0  0
    0.8393    0.0093   -1.4044 H   0  0  0  0  0  0  0  0  0  0  0  0
    0.5104   -1.5770    0.5824 H   0  0  0  0  0  0  0  0  0  0  0  0
    0.7159   -0.2072    1.6640 H   0  0  0  0  0  0  0  0  0  0  0  0
   -3.6880   -1.7383   -1.9267 H   0  0  0  0  0  0  0  0  0  0  0  0
   -6.0425   -1.0612   -1.9977 H   0  0  0  0  0  0  0  0  0  0  0  0
   -7.6254    1.2465    0.2626 H   0  0  0  0  0  0  0  0  0  0  0  0
   -7.8468    0.0888   -0.9416 H   0  0  0  0  0  0  0  0  0  0  0  0
   -2.9382    1.1196    1.2137 H   0  0  0  0  0  0  0  0  0  0  0  0
    3.1112    1.6972    0.9348 H   0  0  0  0  0  0  0  0  0  0  0  0
    5.4896    1.2098    1.1380 H   0  0  0  0  0  0  0  0  0  0  0  0
  1  2  1  0
  2  3  1  0
  3  4  2  0
  4  5  1  0
  5  6  2  0
  6  7  1  0
  7  8  1  0
  8  9  1  0
  9 10  1  0
 10 11  2  0
 10 12  1  0
 12 13  2  0
 13 14  1  0
 14 15  2  0
 15 16  1  0
 15 17  1  0
 17 18  1  0
 18 19  2  0
 18 20  1  0
 17 21  2  0
  6 22  1  0
 22 23  2  0
 23  3  1  0
 21 12  1  0
  1 24  1  0
  1 25  1  0
  1 26  1  0
  4 27  1  0
  5 28  1  0
  7 29  1  0
  7 30  1  0
  8 31  1  0
  8 32  1  0
 13 33  1  0
 14 34  1  0
 16 35  1  0
 16 36  1  0
 21 37  1  0
 22 38  1  0
 23 39  1  0
M  CHG  2  18   1  20  -1
M  END
$$$$
