
     RDKit          3D

 63 67  0  0  0  0  0  0  0  0999 V2000
   -5.3132   -4.2953   -1.4441 C   0  0  0  0  0  0  0  0  0  0  0  0
   -4.2584   -4.7835   -0.6250 O   0  0  0  0  0  0  0  0  0  0  0  0
   -3.6119   -3.8699    0.1620 C   0  0  0  0  0  0  0  0  0  0  0  0
   -2.5874   -4.4011    0.9488 C   0  0  0  0  0  0  0  0  0  0  0  0
   -1.8436   -3.5810    1.7965 C   0  0  0  0  0  0  0  0  0  0  0  0
   -2.1233   -2.2172    1.8634 C   0  0  0  0  0  0  0  0  0  0  0  0
   -3.1479   -1.6661    1.0832 C   0  0  0  0  0  0  0  0  0  0  0  0
   -3.4292   -0.2255    1.1459 C   0  0  0  0  0  0  0  0  0  0  0  0
   -4.9524    0.2775    1.7436 S   0  0  0  0  0  0  0  0  0  0  0  0
   -4.5762    1.9423    1.5660 C   0  0  0  0  0  0  0  0  0  0  0  0
   -5.4089    3.0341    1.8782 C   0  0  0  0  0  0  0  0  0  0  0  0
   -4.9413    4.3357    1.6643 C   0  0  0  0  0  0  0  0  0  0  0  0
   -3.6722    4.5547    1.1470 C   0  0  0  0  0  0  0  0  0  0  0  0
   -3.1058    5.7738    0.8923 O   0  0  0  0  0  0  0  0  0  0  0  0
   -3.9004    6.9224    1.1595 C   0  0  0  0  0  0  0  0  0  0  0  0
   -2.8546    3.4599    0.8417 C   0  0  0  0  0  0  0  0  0  0  0  0
   -3.2926    2.1254    1.0520 C   0  0  0  0  0  0  0  0  0  0  0  0
   -2.6299    0.8595    0.8165 C   0  0  0  0  0  0  0  0  0  0  0  0
   -1.2762    0.6920    0.2944 C   0  0  0  0  0  0  0  0  0  0  0  0
   -1.0607    0.1094   -0.9573 C   0  0  0  0  0  0  0  0  0  0  0  0
    0.2406   -0.0406   -1.4429 C   0  0  0  0  0  0  0  0  0  0  0  0
    1.3376    0.3900   -0.6923 C   0  0  0  0  0  0  0  0  0  0  0  0
    2.5503    0.1865   -1.2891 O   0  0  0  0  0  0  0  0  0  0  0  0
    3.7151    0.5441   -0.5441 C   0  0  0  0  0  0  0  0  0  0  0  0
    4.9767    0.2216   -1.3713 C   0  0  0  0  0  0  0  0  0  0  0  0
    5.1805   -1.2101   -1.6707 N   0  0  0  0  0  0  0  0  0  0  0  0
    5.5066   -2.0291   -0.4847 C   0  0  0  0  0  0  0  0  0  0  0  0
    6.9375   -1.8249    0.0426 C   0  0  0  0  0  0  0  0  0  0  0  0
    7.9127   -2.0534   -0.9817 O   0  0  0  0  0  0  0  0  0  0  0  0
    7.6715   -1.2086   -2.1137 C   0  0  0  0  0  0  0  0  0  0  0  0
    6.2522   -1.4072   -2.6725 C   0  0  0  0  0  0  0  0  0  0  0  0
    1.1230    0.9777    0.5546 C   0  0  0  0  0  0  0  0  0  0  0  0
   -0.1790    1.1282    1.0459 C   0  0  0  0  0  0  0  0  0  0  0  0
   -3.8886   -2.5028    0.2304 C   0  0  0  0  0  0  0  0  0  0  0  0
   -4.9424   -3.5663   -2.1721 H   0  0  0  0  0  0  0  0  0  0  0  0
   -6.1216   -3.8738   -0.8376 H   0  0  0  0  0  0  0  0  0  0  0  0
   -5.7230   -5.1430   -2.0017 H   0  0  0  0  0  0  0  0  0  0  0  0
   -2.3663   -5.4645    0.8977 H   0  0  0  0  0  0  0  0  0  0  0  0
   -1.0466   -4.0047    2.4013 H   0  0  0  0  0  0  0  0  0  0  0  0
   -1.5370   -1.5860    2.5271 H   0  0  0  0  0  0  0  0  0  0  0  0
   -6.4050    2.8700    2.2804 H   0  0  0  0  0  0  0  0  0  0  0  0
   -5.6057    5.1562    1.9154 H   0  0  0  0  0  0  0  0  0  0  0  0
   -4.8061    6.9282    0.5440 H   0  0  0  0  0  0  0  0  0  0  0  0
   -4.1447    6.9938    2.2244 H   0  0  0  0  0  0  0  0  0  0  0  0
   -3.3116    7.8055    0.8933 H   0  0  0  0  0  0  0  0  0  0  0  0
   -1.8640    3.6407    0.4298 H   0  0  0  0  0  0  0  0  0  0  0  0
   -1.8966   -0.2324   -1.5624 H   0  0  0  0  0  0  0  0  0  0  0  0
    0.4024   -0.4999   -2.4153 H   0  0  0  0  0  0  0  0  0  0  0  0
    3.7054    1.6255   -0.3584 H   0  0  0  0  0  0  0  0  0  0  0  0
    3.7380    0.0200    0.4171 H   0  0  0  0  0  0  0  0  0  0  0  0
    4.8680    0.7541   -2.3253 H   0  0  0  0  0  0  0  0  0  0  0  0
    5.8477    0.6491   -0.8624 H   0  0  0  0  0  0  0  0  0  0  0  0
    5.3995   -3.0812   -0.7805 H   0  0  0  0  0  0  0  0  0  0  0  0
    4.7825   -1.8763    0.3213 H   0  0  0  0  0  0  0  0  0  0  0  0
    7.1364   -2.5392    0.8481 H   0  0  0  0  0  0  0  0  0  0  0  0
    7.0778   -0.8196    0.4552 H   0  0  0  0  0  0  0  0  0  0  0  0
    8.4078   -1.4706   -2.8804 H   0  0  0  0  0  0  0  0  0  0  0  0
    7.8521   -0.1660   -1.8287 H   0  0  0  0  0  0  0  0  0  0  0  0
    6.0938   -0.7592   -3.5425 H   0  0  0  0  0  0  0  0  0  0  0  0
    6.1674   -2.4372   -3.0428 H   0  0  0  0  0  0  0  0  0  0  0  0
    1.9425    1.3318    1.1700 H   0  0  0  0  0  0  0  0  0  0  0  0
   -0.3296    1.5862    2.0211 H   0  0  0  0  0  0  0  0  0  0  0  0
   -4.6721   -2.0596   -0.3756 H   0  0  0  0  0  0  0  0  0  0  0  0
  1  2  1  0
  2  3  1  0
  3  4  2  0
  4  5  1  0
  5  6  2  0
  6  7  1  0
  7  8  1  0
  8  9  1  0
  9 10  1  0
 10 11  2  0
 11 12  1  0
 12 13  2  0
 13 14  1  0
 14 15  1  0
 13 16  1  0
 16 17  2  0
 17 18  1  0
 18 19  1  0
 19 20  2  0
 20 21  1  0
 21 22  2  0
 22 23  1  0
 23 24  1  0
 24 25  1  0
 25 26  1  0
 26 27  1  0
 27 28  1  0
 28 29  1  0
 29 30  1  0
 30 31  1  0
 22 32  1  0
 32 33  2  0
  7 34  2  0
 34  3  1  0
 18  8  2  0
 33 19  1  0
 17 10  1  0
 31 26  1  0
  1 35  1  0
  1 36  1  0
  1 37  1  0
  4 38  1  0
  5 39  1  0
  6 40  1  0
 11 41  1  0
 12 42  1  0
 15 43  1  0
 15 44  1  0
 15 45  1  0
 16 46  1  0
 20 47  1  0
 21 48  1  0
 24 49  1  0
 24 50  1  0
 25 51  1  0
 25 52  1  0
 27 53  1  0
 27 54  1  0
 28 55  1  0
 28 56  1  0
 30 57  1  0
 30 58  1  0
 31 59  1  0
 31 60  1  0
 32 61  1  0
 33 62  1  0
 34 63  1  0
M  END
$$$$
