
     RDKit          3D

 31 33  0  0  0  0  0  0  0  0999 V2000
    1.4607   -0.9378    1.7838 O   0  0  0  0  0  0  0  0  0  0  0  0
    1.8831   -0.7508    0.6471 C   0  0  0  0  0  0  0  0  0  0  0  0
    1.2673   -1.2552   -0.4879 N   0  0  0  0  0  0  0  0  0  0  0  0
   -0.0158   -1.8073   -0.2939 N   0  0  0  0  0  0  0  0  0  0  0  0
   -1.1127   -0.9633   -0.3608 C   0  0  0  0  0  0  0  0  0  0  0  0
   -1.0629    0.2088   -0.7070 O   0  0  0  0  0  0  0  0  0  0  0  0
   -2.3462   -1.7350   -0.0201 C   0  0  0  0  0  0  0  0  0  0  0  0
   -3.6159   -1.3169    0.0869 C   0  0  0  0  0  0  0  0  0  0  0  0
   -4.0625    0.0260   -0.0560 C   0  0  0  0  0  0  0  0  0  0  0  0
   -3.5704    1.2097    0.4665 C   0  0  0  0  0  0  0  0  0  0  0  0
   -4.3421    2.3498    0.0958 C   0  0  0  0  0  0  0  0  0  0  0  0
   -5.4205    2.0076   -0.6848 C   0  0  0  0  0  0  0  0  0  0  0  0
   -5.5026    0.3247   -0.9592 S   0  0  0  0  0  0  0  0  0  0  0  0
   -1.9334   -3.4128    0.2116 S   0  0  0  0  0  0  0  0  0  0  0  0
   -0.2130   -3.1455   -0.0368 C   0  0  0  0  0  0  0  0  0  0  0  0
    0.9220   -4.3668    0.0002 S   0  0  0  0  0  0  0  0  0  0  0  0
    3.0890    0.0790    0.4238 C   0  0  0  0  0  0  0  0  0  0  0  0
    3.8793   -0.0070   -0.7257 C   0  0  0  0  0  0  0  0  0  0  0  0
    4.9996    0.8146   -0.8461 C   0  0  0  0  0  0  0  0  0  0  0  0
    5.2929    1.6892    0.1887 C   0  0  0  0  0  0  0  0  0  0  0  0
    4.5563    1.7881    1.3157 N   0  0  0  0  0  0  0  0  0  0  0  0
    3.4748    0.9750    1.4134 C   0  0  0  0  0  0  0  0  0  0  0  0
    1.3706   -0.7432   -1.3590 H   0  0  0  0  0  0  0  0  0  0  0  0
   -4.3921   -2.0541    0.2898 H   0  0  0  0  0  0  0  0  0  0  0  0
   -2.6846    1.2666    1.0887 H   0  0  0  0  0  0  0  0  0  0  0  0
   -4.1152    3.3668    0.3911 H   0  0  0  0  0  0  0  0  0  0  0  0
   -6.1701    2.6650   -1.1033 H   0  0  0  0  0  0  0  0  0  0  0  0
    3.6610   -0.7171   -1.5173 H   0  0  0  0  0  0  0  0  0  0  0  0
    5.6368    0.7684   -1.7231 H   0  0  0  0  0  0  0  0  0  0  0  0
    6.1559    2.3478    0.1400 H   0  0  0  0  0  0  0  0  0  0  0  0
    2.9108    1.0759    2.3380 H   0  0  0  0  0  0  0  0  0  0  0  0
  1  2  2  0
  2  3  1  0
  3  4  1  0
  4  5  1  0
  5  6  2  0
  5  7  1  0
  7  8  2  3
  8  9  1  0
  9 10  2  0
 10 11  1  0
 11 12  2  0
 12 13  1  0
  7 14  1  0
 14 15  1  0
 15 16  2  0
  2 17  1  0
 17 18  2  0
 18 19  1  0
 19 20  2  0
 20 21  1  0
 21 22  2  0
 15  4  1  0
 22 17  1  0
 13  9  1  0
  3 23  1  0
  8 24  1  0
 10 25  1  0
 11 26  1  0
 12 27  1  0
 18 28  1  0
 19 29  1  0
 20 30  1  0
 22 31  1  0
M  END
$$$$
