
     RDKit          3D

 62 63  0  0  0  0  0  0  0  0999 V2000
   -6.9039   -0.4959    0.6854 C   0  0  0  0  0  0  0  0  0  0  0  0
   -5.8509   -0.3295   -0.4337 C   0  0  0  0  0  0  0  0  0  0  0  0
   -5.6706   -1.7126   -1.0967 C   0  0  0  0  0  0  0  0  0  0  0  0
   -6.4349    0.6580   -1.4669 C   0  0  0  0  0  0  0  0  0  0  0  0
   -4.4892    0.1890    0.0659 C   0  0  0  0  0  0  0  0  0  0  0  0
   -4.2468    0.5102    1.4109 C   0  0  0  0  0  0  0  0  0  0  0  0
   -2.9989    0.9809    1.8354 C   0  0  0  0  0  0  0  0  0  0  0  0
   -1.9600    1.1282    0.9209 C   0  0  0  0  0  0  0  0  0  0  0  0
   -0.7071    1.5825    1.2447 O   0  0  0  0  0  0  0  0  0  0  0  0
   -0.1825    1.2352    2.5303 C   0  0  0  0  0  0  0  0  0  0  0  0
    0.0137   -0.2748    2.7364 C   0  0  0  0  0  0  0  0  0  0  0  0
    0.5621   -0.9431    1.5974 O   0  0  0  0  0  0  0  0  0  0  0  0
    1.8513   -0.6651    1.2227 C   0  0  0  0  0  0  0  0  0  0  0  0
    2.8380   -0.1776    2.0737 C   0  0  0  0  0  0  0  0  0  0  0  0
    4.1225    0.0752    1.5818 C   0  0  0  0  0  0  0  0  0  0  0  0
    4.4596   -0.1618    0.2360 C   0  0  0  0  0  0  0  0  0  0  0  0
    5.8863    0.1308   -0.2656 C   0  0  0  0  0  0  0  0  0  0  0  0
    6.1020   -0.1746   -1.7654 C   0  0  0  0  0  0  0  0  0  0  0  0
    6.2122    1.6256   -0.0553 C   0  0  0  0  0  0  0  0  0  0  0  0
    6.8993   -0.7260    0.5242 C   0  0  0  0  0  0  0  0  0  0  0  0
    3.4528   -0.6770   -0.6019 C   0  0  0  0  0  0  0  0  0  0  0  0
    2.1623   -0.9349   -0.1231 C   0  0  0  0  0  0  0  0  0  0  0  0
    1.1250   -1.4645   -0.9235 N   0  0  0  0  0  0  0  0  0  0  0  0
    1.1562   -1.7905   -2.2553 C   0  0  0  0  0  0  0  0  0  0  0  0
    2.0656   -1.6425   -3.0583 O   0  0  0  0  0  0  0  0  0  0  0  0
   -2.1768    0.8417   -0.4375 C   0  0  0  0  0  0  0  0  0  0  0  0
   -1.0935    1.0544   -1.3178 N   0  0  0  0  0  0  0  0  0  0  0  0
   -1.0345    0.8202   -2.6674 C   0  0  0  0  0  0  0  0  0  0  0  0
   -1.8784    0.3160   -3.3936 O   0  0  0  0  0  0  0  0  0  0  0  0
   -3.4280    0.3714   -0.8478 C   0  0  0  0  0  0  0  0  0  0  0  0
   -6.5709   -1.2075    1.4500 H   0  0  0  0  0  0  0  0  0  0  0  0
   -7.8514   -0.8745    0.2832 H   0  0  0  0  0  0  0  0  0  0  0  0
   -7.1234    0.4582    1.1786 H   0  0  0  0  0  0  0  0  0  0  0  0
   -5.2249   -2.4301   -0.3974 H   0  0  0  0  0  0  0  0  0  0  0  0
   -5.0239   -1.6693   -1.9799 H   0  0  0  0  0  0  0  0  0  0  0  0
   -6.6331   -2.1215   -1.4259 H   0  0  0  0  0  0  0  0  0  0  0  0
   -6.5499    1.6590   -1.0342 H   0  0  0  0  0  0  0  0  0  0  0  0
   -5.7995    0.7549   -2.3541 H   0  0  0  0  0  0  0  0  0  0  0  0
   -7.4214    0.3292   -1.8140 H   0  0  0  0  0  0  0  0  0  0  0  0
   -5.0247    0.4119    2.1636 H   0  0  0  0  0  0  0  0  0  0  0  0
   -2.8780    1.2399    2.8815 H   0  0  0  0  0  0  0  0  0  0  0  0
   -0.7800    1.6759    3.3362 H   0  0  0  0  0  0  0  0  0  0  0  0
    0.7926    1.7307    2.5859 H   0  0  0  0  0  0  0  0  0  0  0  0
   -0.9647   -0.7396    2.8998 H   0  0  0  0  0  0  0  0  0  0  0  0
    0.5912   -0.4878    3.6429 H   0  0  0  0  0  0  0  0  0  0  0  0
    2.6517    0.0049    3.1258 H   0  0  0  0  0  0  0  0  0  0  0  0
    4.8684    0.4585    2.2757 H   0  0  0  0  0  0  0  0  0  0  0  0
    5.9296   -1.2335   -1.9909 H   0  0  0  0  0  0  0  0  0  0  0  0
    7.1296    0.0556   -2.0716 H   0  0  0  0  0  0  0  0  0  0  0  0
    5.4361    0.4231   -2.3988 H   0  0  0  0  0  0  0  0  0  0  0  0
    5.4915    2.2638   -0.5804 H   0  0  0  0  0  0  0  0  0  0  0  0
    6.1932    1.9099    1.0026 H   0  0  0  0  0  0  0  0  0  0  0  0
    7.2117    1.8695   -0.4340 H   0  0  0  0  0  0  0  0  0  0  0  0
    7.9214   -0.5625    0.1633 H   0  0  0  0  0  0  0  0  0  0  0  0
    6.6763   -1.7947    0.4218 H   0  0  0  0  0  0  0  0  0  0  0  0
    6.8967   -0.4905    1.5941 H   0  0  0  0  0  0  0  0  0  0  0  0
    3.6785   -0.8886   -1.6409 H   0  0  0  0  0  0  0  0  0  0  0  0
    0.2506   -1.6179   -0.4274 H   0  0  0  0  0  0  0  0  0  0  0  0
    0.1885   -2.2191   -2.5702 H   0  0  0  0  0  0  0  0  0  0  0  0
   -0.2590    1.4275   -0.8727 H   0  0  0  0  0  0  0  0  0  0  0  0
   -0.0565    1.1354   -3.0717 H   0  0  0  0  0  0  0  0  0  0  0  0
   -3.5992    0.1481   -1.8968 H   0  0  0  0  0  0  0  0  0  0  0  0
  1  2  1  0
  2  3  1  0
  2  4  1  0
  2  5  1  0
  5  6  2  0
  6  7  1  0
  7  8  2  0
  8  9  1  0
  9 10  1  0
 10 11  1  0
 11 12  1  0
 12 13  1  0
 13 14  2  0
 14 15  1  0
 15 16  2  0
 16 17  1  0
 17 18  1  0
 17 19  1  0
 17 20  1  0
 16 21  1  0
 21 22  2  0
 22 23  1  0
 23 24  1  0
 24 25  2  0
  8 26  1  0
 26 27  1  0
 27 28  1  0
 28 29  2  0
 26 30  2  0
 30  5  1  0
 22 13  1  0
  1 31  1  0
  1 32  1  0
  1 33  1  0
  3 34  1  0
  3 35  1  0
  3 36  1  0
  4 37  1  0
  4 38  1  0
  4 39  1  0
  6 40  1  0
  7 41  1  0
 10 42  1  0
 10 43  1  0
 11 44  1  0
 11 45  1  0
 14 46  1  0
 15 47  1  0
 18 48  1  0
 18 49  1  0
 18 50  1  0
 19 51  1  0
 19 52  1  0
 19 53  1  0
 20 54  1  0
 20 55  1  0
 20 56  1  0
 21 57  1  0
 23 58  1  0
 24 59  1  0
 27 60  1  0
 28 61  1  0
 30 62  1  0
M  END
$$$$
