
     RDKit          3D

 43 44  0  0  0  0  0  0  0  0999 V2000
   -5.5259    3.1194    1.1059 C   0  0  0  0  0  0  0  0  0  0  0  0
   -4.1231    2.9541    0.5547 C   0  0  0  0  0  0  0  0  0  0  0  0
   -3.8477    1.5524    0.4528 O   0  0  0  0  0  0  0  0  0  0  0  0
   -2.6123    1.2482   -0.0336 C   0  0  0  0  0  0  0  0  0  0  0  0
   -1.7867    2.0939   -0.3721 O   0  0  0  0  0  0  0  0  0  0  0  0
   -2.3473   -0.1950   -0.1189 C   0  0  0  0  0  0  0  0  0  0  0  0
   -1.1100   -0.6721   -0.5373 C   0  0  0  0  0  0  0  0  0  0  0  0
   -0.0208    0.1047   -0.9122 N   0  0  0  0  0  0  0  0  0  0  0  0
    1.2439   -0.3280   -1.2782 C   0  0  0  0  0  0  0  0  0  0  0  0
    1.6481   -1.4857   -1.3432 O   0  0  0  0  0  0  0  0  0  0  0  0
    2.1640    0.8448   -1.6483 C   0  0  0  0  0  0  0  0  0  0  0  0
    3.5475    0.5317   -1.4886 O   0  0  0  0  0  0  0  0  0  0  0  0
    3.9491    0.4923   -0.1938 C   0  0  0  0  0  0  0  0  0  0  0  0
    3.2721    0.8135    0.7706 O   0  0  0  0  0  0  0  0  0  0  0  0
    5.3565    0.0311   -0.0929 C   0  0  0  0  0  0  0  0  0  0  0  0
    5.9824    0.0950    1.1531 C   0  0  0  0  0  0  0  0  0  0  0  0
    7.2932   -0.3343    1.2459 C   0  0  0  0  0  0  0  0  0  0  0  0
    7.9995   -0.8117    0.1990 N   0  0  0  0  0  0  0  0  0  0  0  0
    7.3672   -0.8723   -0.9928 C   0  0  0  0  0  0  0  0  0  0  0  0
    6.0595   -0.4674   -1.1908 C   0  0  0  0  0  0  0  0  0  0  0  0
   -1.0392   -2.3597   -0.5648 S   0  0  0  0  0  0  0  0  0  0  0  0
   -2.6389   -2.5246   -0.0082 C   0  0  0  0  0  0  0  0  0  0  0  0
   -3.2023   -3.8947    0.1943 C   0  0  0  0  0  0  0  0  0  0  0  0
   -3.2529   -1.2963    0.1921 C   0  0  0  0  0  0  0  0  0  0  0  0
   -4.6669   -1.1409    0.6660 C   0  0  0  0  0  0  0  0  0  0  0  0
   -5.6123    2.6430    2.0879 H   0  0  0  0  0  0  0  0  0  0  0  0
   -5.7855    4.1774    1.2017 H   0  0  0  0  0  0  0  0  0  0  0  0
   -6.2565    2.6332    0.4511 H   0  0  0  0  0  0  0  0  0  0  0  0
   -3.4014    3.4242    1.2320 H   0  0  0  0  0  0  0  0  0  0  0  0
   -4.0569    3.4175   -0.4358 H   0  0  0  0  0  0  0  0  0  0  0  0
   -0.1820    1.1099   -0.8524 H   0  0  0  0  0  0  0  0  0  0  0  0
    1.9997    1.0627   -2.7094 H   0  0  0  0  0  0  0  0  0  0  0  0
    1.9084    1.7510   -1.0856 H   0  0  0  0  0  0  0  0  0  0  0  0
    5.4628    0.4676    2.0301 H   0  0  0  0  0  0  0  0  0  0  0  0
    7.8274   -0.3057    2.1917 H   0  0  0  0  0  0  0  0  0  0  0  0
    7.9604   -1.2709   -1.8115 H   0  0  0  0  0  0  0  0  0  0  0  0
    5.6100   -0.5521   -2.1737 H   0  0  0  0  0  0  0  0  0  0  0  0
   -2.4618   -4.6832    0.0258 H   0  0  0  0  0  0  0  0  0  0  0  0
   -3.5740   -4.0038    1.2185 H   0  0  0  0  0  0  0  0  0  0  0  0
   -4.0353   -4.0649   -0.4955 H   0  0  0  0  0  0  0  0  0  0  0  0
   -5.1654   -2.1062    0.7961 H   0  0  0  0  0  0  0  0  0  0  0  0
   -4.6923   -0.6275    1.6329 H   0  0  0  0  0  0  0  0  0  0  0  0
   -5.2540   -0.5708   -0.0609 H   0  0  0  0  0  0  0  0  0  0  0  0
  1  2  1  0
  2  3  1  0
  3  4  1  0
  4  5  2  0
  4  6  1  0
  6  7  2  0
  7  8  1  0
  8  9  1  0
  9 10  2  0
  9 11  1  0
 11 12  1  0
 12 13  1  0
 13 14  2  0
 13 15  1  0
 15 16  2  0
 16 17  1  0
 17 18  2  0
 18 19  1  0
 19 20  2  0
  7 21  1  0
 21 22  1  0
 22 23  1  0
 22 24  2  0
 24 25  1  0
 24  6  1  0
 20 15  1  0
  1 26  1  0
  1 27  1  0
  1 28  1  0
  2 29  1  0
  2 30  1  0
  8 31  1  0
 11 32  1  0
 11 33  1  0
 16 34  1  0
 17 35  1  0
 19 36  1  0
 20 37  1  0
 23 38  1  0
 23 39  1  0
 23 40  1  0
 25 41  1  0
 25 42  1  0
 25 43  1  0
M  END
$$$$
