
     RDKit          3D

 45 47  0  0  0  0  0  0  0  0999 V2000
   -4.1565    1.3009   -1.1194 O   0  0  0  0  0  0  0  0  0  0  0  0
   -3.5729    0.2219   -1.1823 C   0  0  0  0  0  0  0  0  0  0  0  0
   -2.7149   -0.1742   -2.3857 C   0  0  0  0  0  0  0  0  0  0  0  0
   -1.3387    0.1775   -2.2140 O   0  0  0  0  0  0  0  0  0  0  0  0
   -0.6278   -0.6434   -1.3835 C   0  0  0  0  0  0  0  0  0  0  0  0
   -1.0988   -1.6364   -0.8430 O   0  0  0  0  0  0  0  0  0  0  0  0
    0.7811   -0.1031   -1.2420 C   0  0  0  0  0  0  0  0  0  0  0  0
    1.7890   -1.1432   -0.1348 S   0  0  0  0  0  0  0  0  0  0  0  0
    3.3488   -0.2868   -0.2472 C   0  0  0  0  0  0  0  0  0  0  0  0
    4.4665   -0.9733   -0.7229 C   0  0  0  0  0  0  0  0  0  0  0  0
    5.7055   -0.3331   -0.8052 C   0  0  0  0  0  0  0  0  0  0  0  0
    5.8486    1.0040   -0.4051 C   0  0  0  0  0  0  0  0  0  0  0  0
    7.0858    1.6618   -0.4796 C   0  0  0  0  0  0  0  0  0  0  0  0
    7.2127    2.9900   -0.0704 C   0  0  0  0  0  0  0  0  0  0  0  0
    6.1063    3.6766    0.4182 C   0  0  0  0  0  0  0  0  0  0  0  0
    4.8696    3.0369    0.4986 C   0  0  0  0  0  0  0  0  0  0  0  0
    4.7235    1.7012    0.0897 C   0  0  0  0  0  0  0  0  0  0  0  0
    3.4840    1.0428    0.1668 C   0  0  0  0  0  0  0  0  0  0  0  0
   -3.6076   -0.7273   -0.1800 N   0  0  0  0  0  0  0  0  0  0  0  0
   -4.2457   -0.4561    1.0979 C   0  0  0  0  0  0  0  0  0  0  0  0
   -5.7708   -0.5066    1.0040 C   0  0  0  0  0  0  0  0  0  0  0  0
   -6.1413   -1.9829    1.1566 C   0  0  0  0  0  0  0  0  0  0  0  0
   -4.9119   -2.6761    1.7450 C   0  0  0  0  0  0  0  0  0  0  0  0
   -3.9488   -1.5553    2.1149 C   0  0  0  0  0  0  0  0  0  0  0  0
   -3.0911    0.3666   -3.2616 H   0  0  0  0  0  0  0  0  0  0  0  0
   -2.8270   -1.2430   -2.6067 H   0  0  0  0  0  0  0  0  0  0  0  0
    1.2471   -0.0794   -2.2316 H   0  0  0  0  0  0  0  0  0  0  0  0
    0.7155    0.9086   -0.8304 H   0  0  0  0  0  0  0  0  0  0  0  0
    4.3862   -2.0135   -1.0315 H   0  0  0  0  0  0  0  0  0  0  0  0
    6.5608   -0.8908   -1.1794 H   0  0  0  0  0  0  0  0  0  0  0  0
    7.9636    1.1420   -0.8559 H   0  0  0  0  0  0  0  0  0  0  0  0
    8.1769    3.4865   -0.1314 H   0  0  0  0  0  0  0  0  0  0  0  0
    6.2053    4.7102    0.7390 H   0  0  0  0  0  0  0  0  0  0  0  0
    4.0180    3.5908    0.8861 H   0  0  0  0  0  0  0  0  0  0  0  0
    2.6243    1.5734    0.5693 H   0  0  0  0  0  0  0  0  0  0  0  0
   -2.8631   -1.4267   -0.2019 H   0  0  0  0  0  0  0  0  0  0  0  0
   -3.8976    0.5217    1.4484 H   0  0  0  0  0  0  0  0  0  0  0  0
   -6.1742   -0.0815    0.0810 H   0  0  0  0  0  0  0  0  0  0  0  0
   -6.2053    0.0530    1.8426 H   0  0  0  0  0  0  0  0  0  0  0  0
   -7.0139   -2.0930    1.8103 H   0  0  0  0  0  0  0  0  0  0  0  0
   -6.3981   -2.4264    0.1865 H   0  0  0  0  0  0  0  0  0  0  0  0
   -5.1631   -3.2971    2.6099 H   0  0  0  0  0  0  0  0  0  0  0  0
   -4.4615   -3.3316    0.9888 H   0  0  0  0  0  0  0  0  0  0  0  0
   -2.9064   -1.8878    2.1050 H   0  0  0  0  0  0  0  0  0  0  0  0
   -4.1817   -1.1980    3.1246 H   0  0  0  0  0  0  0  0  0  0  0  0
  1  2  2  0
  2  3  1  0
  3  4  1  0
  4  5  1  0
  5  6  2  0
  5  7  1  0
  7  8  1  0
  8  9  1  0
  9 10  2  0
 10 11  1  0
 11 12  2  0
 12 13  1  0
 13 14  2  0
 14 15  1  0
 15 16  2  0
 16 17  1  0
 17 18  2  0
  2 19  1  0
 19 20  1  0
 20 21  1  0
 21 22  1  0
 22 23  1  0
 23 24  1  0
 18  9  1  0
 24 20  1  0
 17 12  1  0
  3 25  1  0
  3 26  1  0
  7 27  1  0
  7 28  1  0
 10 29  1  0
 11 30  1  0
 13 31  1  0
 14 32  1  0
 15 33  1  0
 16 34  1  0
 18 35  1  0
 19 36  1  0
 20 37  1  0
 21 38  1  0
 21 39  1  0
 22 40  1  0
 22 41  1  0
 23 42  1  0
 23 43  1  0
 24 44  1  0
 24 45  1  0
M  END
$$$$
