
     RDKit          3D

 72 76  0  0  0  0  0  0  0  0999 V2000
    8.1477    0.5186    2.3125 C   0  0  0  0  0  0  0  0  0  0  0  0
    8.1891   -0.2208    0.9706 C   0  0  0  0  0  0  0  0  0  0  0  0
    9.0963    0.4832   -0.0467 C   0  0  0  0  0  0  0  0  0  0  0  0
    8.7294   -1.6416    1.2075 C   0  0  0  0  0  0  0  0  0  0  0  0
    6.8495   -0.4208    0.4434 O   0  0  0  0  0  0  0  0  0  0  0  0
    6.0712    0.6373    0.1177 C   0  0  0  0  0  0  0  0  0  0  0  0
    6.3811    1.8144    0.2044 O   0  0  0  0  0  0  0  0  0  0  0  0
    4.8796    0.1707   -0.3521 N   0  0  0  0  0  0  0  0  0  0  0  0
    3.9030    1.0437   -0.9623 C   0  0  0  0  0  0  0  0  0  0  0  0
    2.5060    0.4227   -0.9881 C   0  0  0  0  0  0  0  0  0  0  0  0
    1.9034    0.2944    0.4138 C   0  0  0  0  0  0  0  0  0  0  0  0
    0.5946   -0.5046    0.4740 C   0  0  0  0  0  0  0  0  0  0  0  0
   -0.6462    0.2223   -0.0692 C   0  0  1  0  0  0  0  0  0  0  0  0
   -0.6504    0.3268   -1.5758 N   0  0  0  0  0  0  0  0  0  0  0  0
   -2.0461    0.0600   -2.0715 C   0  0  0  0  0  0  0  0  0  0  0  0
   -2.0331   -0.7573   -3.3915 C   0  0  0  0  0  0  0  0  0  0  0  0
   -1.4641   -1.8152   -3.6133 O   0  0  0  0  0  0  0  0  0  0  0  0
   -2.7863   -0.0389   -4.3212 N   0  0  0  0  0  0  0  0  0  0  0  0
   -3.2345    1.1630   -3.7868 C   0  0  0  0  0  0  0  0  0  0  0  0
   -3.9572    2.1411   -4.4391 C   0  0  0  0  0  0  0  0  0  0  0  0
   -4.2901    3.2847   -3.7085 C   0  0  0  0  0  0  0  0  0  0  0  0
   -3.8956    3.4241   -2.3649 C   0  0  0  0  0  0  0  0  0  0  0  0
   -3.1595    2.4201   -1.7263 C   0  0  0  0  0  0  0  0  0  0  0  0
   -2.8340    1.2833   -2.4510 C   0  0  0  0  0  0  0  0  0  0  0  0
   -2.7078   -0.6028   -0.9387 C   0  0  0  0  0  0  0  0  0  0  0  0
   -1.9082   -0.5030    0.2022 C   0  0  0  0  0  0  0  0  0  0  0  0
   -2.5552   -1.0878    1.2566 C   0  0  0  0  0  0  0  0  0  0  0  0
   -2.1770   -1.1694    2.5279 O   0  0  0  0  0  0  0  0  0  0  0  0
   -3.7325   -1.6196    0.7408 N   0  0  0  0  0  0  0  0  0  0  0  0
   -4.6876   -2.4564    1.4621 C   0  0  0  0  0  0  0  0  0  0  0  0
   -5.6983   -1.6372    2.2295 C   0  0  0  0  0  0  0  0  0  0  0  0
   -5.6175   -1.5020    3.6262 C   0  0  0  0  0  0  0  0  0  0  0  0
   -6.5500   -0.7248    4.3215 C   0  0  0  0  0  0  0  0  0  0  0  0
   -7.5800   -0.0845    3.6308 C   0  0  0  0  0  0  0  0  0  0  0  0
   -7.6819   -0.2237    2.2464 C   0  0  0  0  0  0  0  0  0  0  0  0
   -6.7479   -0.9947    1.5509 C   0  0  0  0  0  0  0  0  0  0  0  0
   -3.8313   -1.3144   -0.6138 C   0  0  0  0  0  0  0  0  0  0  0  0
   -4.8724   -1.7072   -1.3331 O   0  0  0  0  0  0  0  0  0  0  0  0
    7.3956    0.0691    2.9707 H   0  0  0  0  0  0  0  0  0  0  0  0
    9.1195    0.4906    2.8169 H   0  0  0  0  0  0  0  0  0  0  0  0
    7.8723    1.5694    2.1896 H   0  0  0  0  0  0  0  0  0  0  0  0
    8.7943    1.5214   -0.2244 H   0  0  0  0  0  0  0  0  0  0  0  0
   10.1385    0.4967    0.2905 H   0  0  0  0  0  0  0  0  0  0  0  0
    9.0494   -0.0228   -1.0157 H   0  0  0  0  0  0  0  0  0  0  0  0
    8.7317   -2.2124    0.2721 H   0  0  0  0  0  0  0  0  0  0  0  0
    9.7489   -1.6283    1.6080 H   0  0  0  0  0  0  0  0  0  0  0  0
    8.0883   -2.1976    1.9030 H   0  0  0  0  0  0  0  0  0  0  0  0
    4.8747   -0.8174   -0.5626 H   0  0  0  0  0  0  0  0  0  0  0  0
    3.8901    2.0045   -0.4329 H   0  0  0  0  0  0  0  0  0  0  0  0
    4.2403    1.2334   -1.9889 H   0  0  0  0  0  0  0  0  0  0  0  0
    2.5452   -0.5623   -1.4700 H   0  0  0  0  0  0  0  0  0  0  0  0
    1.8690    1.0650   -1.6049 H   0  0  0  0  0  0  0  0  0  0  0  0
    1.7487    1.2917    0.8424 H   0  0  0  0  0  0  0  0  0  0  0  0
    2.6246   -0.2153    1.0656 H   0  0  0  0  0  0  0  0  0  0  0  0
    0.7279   -1.4737   -0.0279 H   0  0  0  0  0  0  0  0  0  0  0  0
    0.4152   -0.7453    1.5317 H   0  0  0  0  0  0  0  0  0  0  0  0
   -0.7090    1.2338    0.3521 H   0  0  0  0  0  0  0  0  0  0  0  0
   -0.1092   -0.4737   -1.9126 H   0  0  0  0  0  0  0  0  0  0  0  0
   -2.9024   -0.3383   -5.2779 H   0  0  0  0  0  0  0  0  0  0  0  0
   -4.2537    2.0389   -5.4770 H   0  0  0  0  0  0  0  0  0  0  0  0
   -4.8549    4.0843   -4.1857 H   0  0  0  0  0  0  0  0  0  0  0  0
   -4.1596    4.3254   -1.8150 H   0  0  0  0  0  0  0  0  0  0  0  0
   -2.8486    2.5357   -0.6920 H   0  0  0  0  0  0  0  0  0  0  0  0
   -2.9186   -1.4882    3.0682 H   0  0  0  0  0  0  0  0  0  0  0  0
   -5.1911   -3.1167    0.7452 H   0  0  0  0  0  0  0  0  0  0  0  0
   -4.1154   -3.1091    2.1321 H   0  0  0  0  0  0  0  0  0  0  0  0
   -4.8345   -1.9993    4.1947 H   0  0  0  0  0  0  0  0  0  0  0  0
   -6.4762   -0.6214    5.4036 H   0  0  0  0  0  0  0  0  0  0  0  0
   -8.3035    0.5248    4.1687 H   0  0  0  0  0  0  0  0  0  0  0  0
   -8.4877    0.2704    1.7042 H   0  0  0  0  0  0  0  0  0  0  0  0
   -6.8421   -1.0904    0.4688 H   0  0  0  0  0  0  0  0  0  0  0  0
   -4.7739   -1.3267   -2.2253 H   0  0  0  0  0  0  0  0  0  0  0  0
  1  2  1  0
  2  3  1  0
  2  4  1  0
  2  5  1  0
  5  6  1  0
  6  7  2  0
  6  8  1  0
  8  9  1  0
  9 10  1  0
 10 11  1  0
 11 12  1  0
 12 13  1  0
 13 14  1  0
 14 15  1  0
 15 16  1  0
 16 17  2  0
 16 18  1  0
 18 19  1  0
 19 20  2  0
 20 21  1  0
 21 22  2  0
 22 23  1  0
 23 24  2  0
 15 25  1  0
 25 26  1  0
 26 27  2  0
 27 28  1  0
 27 29  1  0
 29 30  1  0
 30 31  1  0
 31 32  2  0
 32 33  1  0
 33 34  2  0
 34 35  1  0
 35 36  2  0
 29 37  1  0
 37 38  1  0
 26 13  1  0
 36 31  1  0
 24 15  1  0
 37 25  2  0
 24 19  1  0
  1 39  1  0
  1 40  1  0
  1 41  1  0
  3 42  1  0
  3 43  1  0
  3 44  1  0
  4 45  1  0
  4 46  1  0
  4 47  1  0
  8 48  1  0
  9 49  1  0
  9 50  1  0
 10 51  1  0
 10 52  1  0
 11 53  1  0
 11 54  1  0
 12 55  1  0
 12 56  1  0
 13 57  1  1
 14 58  1  0
 18 59  1  0
 20 60  1  0
 21 61  1  0
 22 62  1  0
 23 63  1  0
 28 64  1  0
 30 65  1  0
 30 66  1  0
 32 67  1  0
 33 68  1  0
 34 69  1  0
 35 70  1  0
 36 71  1  0
 38 72  1  0
M  END
$$$$
