
     RDKit          3D

 44 45  0  0  0  0  0  0  0  0999 V2000
    5.8565    2.0337   -1.2361 C   0  0  0  0  0  0  0  0  0  0  0  0
    5.3532    0.7784   -0.5735 C   0  0  0  0  0  0  0  0  0  0  0  0
    5.6878    0.4713    0.5666 O   0  0  0  0  0  0  0  0  0  0  0  0
    4.5277    0.0151   -1.3702 N   0  0  0  0  0  0  0  0  0  0  0  0
    3.8919   -1.2026   -0.8900 C   0  0  0  0  0  0  0  0  0  0  0  0
    2.3652   -1.1184   -0.9549 C   0  0  0  0  0  0  0  0  0  0  0  0
    1.9164   -0.1088   -0.0502 O   0  0  0  0  0  0  0  0  0  0  0  0
    0.5640    0.1397   -0.1451 C   0  0  0  0  0  0  0  0  0  0  0  0
    0.1750    1.2653    0.4279 N   0  0  0  0  0  0  0  0  0  0  0  0
   -1.1232    1.5170    0.3619 C   0  0  0  0  0  0  0  0  0  0  0  0
   -1.6085    2.7057    0.9150 N   0  0  0  0  0  0  0  0  0  0  0  0
   -3.0283    2.7014    1.2271 C   0  0  0  0  0  0  0  0  0  0  0  0
   -0.7235    3.3293    1.8881 C   0  0  0  0  0  0  0  0  0  0  0  0
   -1.9818    0.6885   -0.2320 N   0  0  0  0  0  0  0  0  0  0  0  0
   -1.5066   -0.4306   -0.7729 C   0  0  0  0  0  0  0  0  0  0  0  0
   -2.3934   -1.3036   -1.4107 N   0  0  0  0  0  0  0  0  0  0  0  0
   -1.9966   -2.7231   -1.3864 C   0  0  0  0  0  0  0  0  0  0  0  0
   -2.3497   -3.3494   -0.0253 C   0  0  0  0  0  0  0  0  0  0  0  0
   -3.7492   -3.1919    0.2755 O   0  0  0  0  0  0  0  0  0  0  0  0
   -4.1201   -1.8001    0.2893 C   0  0  0  0  0  0  0  0  0  0  0  0
   -3.8145   -1.1267   -1.0606 C   0  0  0  0  0  0  0  0  0  0  0  0
   -0.2203   -0.7464   -0.7439 N   0  0  0  0  0  0  0  0  0  0  0  0
    6.8974    1.8858   -1.5435 H   0  0  0  0  0  0  0  0  0  0  0  0
    5.7967    2.8622   -0.5233 H   0  0  0  0  0  0  0  0  0  0  0  0
    5.2570    2.2932   -2.1144 H   0  0  0  0  0  0  0  0  0  0  0  0
    4.3220    0.3287   -2.3098 H   0  0  0  0  0  0  0  0  0  0  0  0
    4.2111   -1.4096    0.1369 H   0  0  0  0  0  0  0  0  0  0  0  0
    4.2440   -2.0156   -1.5336 H   0  0  0  0  0  0  0  0  0  0  0  0
    1.9499   -2.0912   -0.6636 H   0  0  0  0  0  0  0  0  0  0  0  0
    2.0590   -0.8776   -1.9814 H   0  0  0  0  0  0  0  0  0  0  0  0
   -3.3358    3.6796    1.6130 H   0  0  0  0  0  0  0  0  0  0  0  0
   -3.6397    2.5161    0.3362 H   0  0  0  0  0  0  0  0  0  0  0  0
   -3.2665    1.9515    1.9899 H   0  0  0  0  0  0  0  0  0  0  0  0
   -1.1538    4.2722    2.2432 H   0  0  0  0  0  0  0  0  0  0  0  0
    0.2483    3.5812    1.4486 H   0  0  0  0  0  0  0  0  0  0  0  0
   -0.5699    2.6839    2.7602 H   0  0  0  0  0  0  0  0  0  0  0  0
   -2.5694   -3.2388   -2.1680 H   0  0  0  0  0  0  0  0  0  0  0  0
   -0.9397   -2.8782   -1.6310 H   0  0  0  0  0  0  0  0  0  0  0  0
   -1.7622   -2.9094    0.7890 H   0  0  0  0  0  0  0  0  0  0  0  0
   -2.1379   -4.4231   -0.0468 H   0  0  0  0  0  0  0  0  0  0  0  0
   -5.1946   -1.7497    0.4918 H   0  0  0  0  0  0  0  0  0  0  0  0
   -3.6019   -1.3048    1.1184 H   0  0  0  0  0  0  0  0  0  0  0  0
   -4.1279   -0.0766   -1.0635 H   0  0  0  0  0  0  0  0  0  0  0  0
   -4.4080   -1.6230   -1.8392 H   0  0  0  0  0  0  0  0  0  0  0  0
  1  2  1  0
  2  3  2  0
  2  4  1  0
  4  5  1  0
  5  6  1  0
  6  7  1  0
  7  8  1  0
  8  9  2  0
  9 10  1  0
 10 11  1  0
 11 12  1  0
 11 13  1  0
 10 14  2  0
 14 15  1  0
 15 16  1  0
 16 17  1  0
 17 18  1  0
 18 19  1  0
 19 20  1  0
 20 21  1  0
 15 22  2  0
 22  8  1  0
 21 16  1  0
  1 23  1  0
  1 24  1  0
  1 25  1  0
  4 26  1  0
  5 27  1  0
  5 28  1  0
  6 29  1  0
  6 30  1  0
 12 31  1  0
 12 32  1  0
 12 33  1  0
 13 34  1  0
 13 35  1  0
 13 36  1  0
 17 37  1  0
 17 38  1  0
 18 39  1  0
 18 40  1  0
 20 41  1  0
 20 42  1  0
 21 43  1  0
 21 44  1  0
M  END
$$$$
