
     RDKit          3D

 37 39  0  0  0  0  0  0  0  0999 V2000
   -4.4201   -2.8007   -0.7814 C   0  0  0  0  0  0  0  0  0  0  0  0
   -4.4066   -1.7443   -1.7302 O   0  0  0  0  0  0  0  0  0  0  0  0
   -3.3659   -0.8561   -1.6744 C   0  0  0  0  0  0  0  0  0  0  0  0
   -2.3142   -0.9046   -0.7560 C   0  0  0  0  0  0  0  0  0  0  0  0
   -1.2857    0.0516   -0.7901 C   0  0  0  0  0  0  0  0  0  0  0  0
   -0.2137   -0.0326    0.2113 C   0  0  0  0  0  0  0  0  0  0  0  0
    1.0888    0.1074   -0.0850 C   0  0  0  0  0  0  0  0  0  0  0  0
    2.0817   -0.0002    0.9323 C   0  0  0  0  0  0  0  0  0  0  0  0
    1.8774   -0.2261    2.2153 N   0  0  0  0  0  0  0  0  0  0  0  0
    3.0761   -0.2663    2.9063 C   0  0  0  0  0  0  0  0  0  0  0  0
    3.2251   -0.4874    4.2906 C   0  0  0  0  0  0  0  0  0  0  0  0
    4.5028   -0.5024    4.8596 C   0  0  0  0  0  0  0  0  0  0  0  0
    5.6284   -0.3004    4.0674 C   0  0  0  0  0  0  0  0  0  0  0  0
    5.5065   -0.0789    2.6920 C   0  0  0  0  0  0  0  0  0  0  0  0
    4.2178   -0.0660    2.1322 C   0  0  0  0  0  0  0  0  0  0  0  0
    3.7469    0.1775    0.4974 S   0  0  0  0  0  0  0  0  0  0  0  0
   -1.3261    1.0857   -1.7384 C   0  0  0  0  0  0  0  0  0  0  0  0
   -2.3694    1.1505   -2.6609 C   0  0  0  0  0  0  0  0  0  0  0  0
   -2.5247    2.1020   -3.6383 O   0  0  0  0  0  0  0  0  0  0  0  0
   -1.5397    3.1272   -3.6976 C   0  0  0  0  0  0  0  0  0  0  0  0
   -3.3764    0.1751   -2.6203 C   0  0  0  0  0  0  0  0  0  0  0  0
   -4.3999    0.2466   -3.5360 O   0  0  0  0  0  0  0  0  0  0  0  0
   -3.5454   -3.4488   -0.8991 H   0  0  0  0  0  0  0  0  0  0  0  0
   -4.4915   -2.4134    0.2403 H   0  0  0  0  0  0  0  0  0  0  0  0
   -5.3109   -3.4079   -0.9692 H   0  0  0  0  0  0  0  0  0  0  0  0
   -2.2667   -1.6869   -0.0047 H   0  0  0  0  0  0  0  0  0  0  0  0
   -0.5318   -0.2461    1.2311 H   0  0  0  0  0  0  0  0  0  0  0  0
    1.4085    0.2900   -1.1064 H   0  0  0  0  0  0  0  0  0  0  0  0
    2.3436   -0.6445    4.9042 H   0  0  0  0  0  0  0  0  0  0  0  0
    4.6132   -0.6735    5.9279 H   0  0  0  0  0  0  0  0  0  0  0  0
    6.6169   -0.3147    4.5221 H   0  0  0  0  0  0  0  0  0  0  0  0
    6.3857    0.0785    2.0747 H   0  0  0  0  0  0  0  0  0  0  0  0
   -0.5411    1.8343   -1.7296 H   0  0  0  0  0  0  0  0  0  0  0  0
   -1.8092    3.8018   -4.5159 H   0  0  0  0  0  0  0  0  0  0  0  0
   -0.5514    2.7118   -3.9203 H   0  0  0  0  0  0  0  0  0  0  0  0
   -1.5248    3.7140   -2.7733 H   0  0  0  0  0  0  0  0  0  0  0  0
   -4.2045    1.0339   -4.0774 H   0  0  0  0  0  0  0  0  0  0  0  0
  1  2  1  0
  2  3  1  0
  3  4  2  0
  4  5  1  0
  5  6  1  0
  6  7  2  3
  7  8  1  0
  8  9  2  0
  9 10  1  0
 10 11  2  0
 11 12  1  0
 12 13  2  0
 13 14  1  0
 14 15  2  0
 15 16  1  0
  5 17  2  0
 17 18  1  0
 18 19  1  0
 19 20  1  0
 18 21  2  0
 21 22  1  0
 21  3  1  0
 16  8  1  0
 15 10  1  0
  1 23  1  0
  1 24  1  0
  1 25  1  0
  4 26  1  0
  6 27  1  0
  7 28  1  0
 11 29  1  0
 12 30  1  0
 13 31  1  0
 14 32  1  0
 17 33  1  0
 20 34  1  0
 20 35  1  0
 20 36  1  0
 22 37  1  0
M  END
$$$$
