
     RDKit          3D

 43 45  0  0  0  0  0  0  0  0999 V2000
    5.0240    1.2702   -2.8516 C   0  0  0  0  0  0  0  0  0  0  0  0
    5.4350    1.2382   -1.3877 C   0  0  0  0  0  0  0  0  0  0  0  0
    4.2548    1.0796   -0.4274 C   0  0  0  0  0  0  0  0  0  0  0  0
    3.5360   -0.2647   -0.5716 C   0  0  0  0  0  0  0  0  0  0  0  0
    2.5057   -0.4595    0.4463 N   0  0  0  0  0  0  0  0  0  0  0  0
    1.2414    0.2333    0.2662 C   0  0  0  0  0  0  0  0  0  0  0  0
    0.1810   -0.2184    1.2133 C   0  0  0  0  0  0  0  0  0  0  0  0
   -1.1789    0.0313    1.0035 C   0  0  0  0  0  0  0  0  0  0  0  0
   -2.0978   -0.3562    1.9803 C   0  0  0  0  0  0  0  0  0  0  0  0
   -3.5485   -0.1220    1.8516 C   0  0  0  0  0  0  0  0  0  0  0  0
   -4.1807    0.2426    2.8418 O   0  0  0  0  0  0  0  0  0  0  0  0
   -4.2731   -0.2827    0.5661 C   0  0  0  0  0  0  0  0  0  0  0  0
   -3.8329   -1.1813   -0.4119 C   0  0  0  0  0  0  0  0  0  0  0  0
   -4.5385   -1.2911   -1.6071 C   0  0  0  0  0  0  0  0  0  0  0  0
   -4.1060   -2.1443   -2.5441 F   0  0  0  0  0  0  0  0  0  0  0  0
   -5.6803   -0.5347   -1.8467 C   0  0  0  0  0  0  0  0  0  0  0  0
   -6.1396    0.3421   -0.8662 C   0  0  0  0  0  0  0  0  0  0  0  0
   -5.4458    0.4561    0.3379 C   0  0  0  0  0  0  0  0  0  0  0  0
   -5.9730    1.3171    1.2624 O   0  0  0  0  0  0  0  0  0  0  0  0
   -1.6110   -0.9258    3.1491 C   0  0  0  0  0  0  0  0  0  0  0  0
   -0.2978   -1.1750    3.3736 N   0  0  0  0  0  0  0  0  0  0  0  0
    0.5631   -0.8238    2.3984 C   0  0  0  0  0  0  0  0  0  0  0  0
    1.9010   -1.0885    2.6108 N   0  0  0  0  0  0  0  0  0  0  0  0
    2.8841   -0.9525    1.6815 C   0  0  0  0  0  0  0  0  0  0  0  0
    4.0337   -1.2937    1.9517 O   0  0  0  0  0  0  0  0  0  0  0  0
    5.8948    1.4789   -3.4814 H   0  0  0  0  0  0  0  0  0  0  0  0
    4.6063    0.3113   -3.1720 H   0  0  0  0  0  0  0  0  0  0  0  0
    4.2792    2.0512   -3.0338 H   0  0  0  0  0  0  0  0  0  0  0  0
    5.9526    2.1752   -1.1503 H   0  0  0  0  0  0  0  0  0  0  0  0
    6.1569    0.4287   -1.2288 H   0  0  0  0  0  0  0  0  0  0  0  0
    4.6291    1.1846    0.5985 H   0  0  0  0  0  0  0  0  0  0  0  0
    3.5453    1.9015   -0.5806 H   0  0  0  0  0  0  0  0  0  0  0  0
    3.0580   -0.3551   -1.5529 H   0  0  0  0  0  0  0  0  0  0  0  0
    4.2649   -1.0800   -0.4928 H   0  0  0  0  0  0  0  0  0  0  0  0
    0.9089    0.0605   -0.7638 H   0  0  0  0  0  0  0  0  0  0  0  0
    1.4168    1.3055    0.4090 H   0  0  0  0  0  0  0  0  0  0  0  0
   -1.5024    0.5447    0.1020 H   0  0  0  0  0  0  0  0  0  0  0  0
   -2.9644   -1.8158   -0.2691 H   0  0  0  0  0  0  0  0  0  0  0  0
   -6.2116   -0.6409   -2.7876 H   0  0  0  0  0  0  0  0  0  0  0  0
   -7.0404    0.9279   -1.0315 H   0  0  0  0  0  0  0  0  0  0  0  0
   -5.5250    1.1515    2.1229 H   0  0  0  0  0  0  0  0  0  0  0  0
   -2.2771   -1.2105    3.9605 H   0  0  0  0  0  0  0  0  0  0  0  0
    2.1523   -1.5154    3.4898 H   0  0  0  0  0  0  0  0  0  0  0  0
  1  2  1  0
  2  3  1  0
  3  4  1  0
  4  5  1  0
  5  6  1  0
  6  7  1  0
  7  8  2  0
  8  9  1  0
  9 10  1  0
 10 11  2  0
 10 12  1  0
 12 13  2  0
 13 14  1  0
 14 15  1  0
 14 16  2  0
 16 17  1  0
 17 18  2  0
 18 19  1  0
  9 20  2  0
 20 21  1  0
 21 22  2  0
 22 23  1  0
 23 24  1  0
 24 25  2  0
 24  5  1  0
 22  7  1  0
 18 12  1  0
  1 26  1  0
  1 27  1  0
  1 28  1  0
  2 29  1  0
  2 30  1  0
  3 31  1  0
  3 32  1  0
  4 33  1  0
  4 34  1  0
  6 35  1  0
  6 36  1  0
  8 37  1  0
 13 38  1  0
 16 39  1  0
 17 40  1  0
 19 41  1  0
 20 42  1  0
 23 43  1  0
M  END
$$$$
