
     RDKit          3D

 41 42  0  0  0  0  0  0  0  0999 V2000
    4.2342   -2.7272   -0.6310 C   0  0  0  0  0  0  0  0  0  0  0  0
    3.2246   -1.7755   -0.3114 O   0  0  0  0  0  0  0  0  0  0  0  0
    3.6091   -0.4571   -0.2132 C   0  0  0  0  0  0  0  0  0  0  0  0
    4.9181    0.0063   -0.3732 C   0  0  0  0  0  0  0  0  0  0  0  0
    5.1851    1.3776   -0.2454 C   0  0  0  0  0  0  0  0  0  0  0  0
    6.5601    1.8665   -0.4124 N   0  0  0  0  0  4  0  0  0  0  0  0
    7.4403    1.0305   -0.6637 O   0  0  0  0  0  0  0  0  0  0  0  0
    6.7606    3.0829   -0.2919 O   0  0  0  0  0  1  0  0  0  0  0  0
    4.1595    2.2837    0.0428 C   0  0  0  0  0  0  0  0  0  0  0  0
    2.8524    1.8170    0.2029 C   0  0  0  0  0  0  0  0  0  0  0  0
    2.5669    0.4548    0.0721 C   0  0  0  0  0  0  0  0  0  0  0  0
    1.2722   -0.0853    0.2269 N   0  0  0  0  0  0  0  0  0  0  0  0
    0.0734    0.5910    0.3585 C   0  0  0  0  0  0  0  0  0  0  0  0
   -0.0762    1.8049    0.2811 O   0  0  0  0  0  0  0  0  0  0  0  0
   -0.9735   -0.3196    0.5593 N   0  0  0  0  0  0  0  0  0  0  0  0
   -2.2706    0.1819    0.8440 N   0  0  0  0  0  0  0  0  0  0  0  0
   -3.0565   -0.7471    1.6776 C   0  0  0  0  0  0  0  0  0  0  0  0
   -4.5679   -0.4612    1.5879 C   0  0  0  0  0  0  0  0  0  0  0  0
   -5.1058   -0.7088    0.2344 N   0  0  0  0  0  0  0  0  0  0  0  0
   -6.3437    0.0403    0.0328 C   0  0  0  0  0  0  0  0  0  0  0  0
   -4.1044   -0.4060   -0.8097 C   0  0  0  0  0  0  0  0  0  0  0  0
   -2.9961    0.5794   -0.3818 C   0  0  0  0  0  0  0  0  0  0  0  0
    3.7591   -3.7115   -0.6838 H   0  0  0  0  0  0  0  0  0  0  0  0
    4.6777   -2.5187   -1.6101 H   0  0  0  0  0  0  0  0  0  0  0  0
    4.9982   -2.7680    0.1521 H   0  0  0  0  0  0  0  0  0  0  0  0
    5.7321   -0.6768   -0.5936 H   0  0  0  0  0  0  0  0  0  0  0  0
    4.3536    3.3496    0.1479 H   0  0  0  0  0  0  0  0  0  0  0  0
    2.0760    2.5410    0.4354 H   0  0  0  0  0  0  0  0  0  0  0  0
    1.2213   -1.0848    0.0760 H   0  0  0  0  0  0  0  0  0  0  0  0
   -0.6981   -1.1744    1.0293 H   0  0  0  0  0  0  0  0  0  0  0  0
   -2.8774   -1.7897    1.3807 H   0  0  0  0  0  0  0  0  0  0  0  0
   -2.7295   -0.6485    2.7192 H   0  0  0  0  0  0  0  0  0  0  0  0
   -4.7438    0.5770    1.9021 H   0  0  0  0  0  0  0  0  0  0  0  0
   -5.0987   -1.1056    2.2984 H   0  0  0  0  0  0  0  0  0  0  0  0
   -6.1803    1.1238    0.0542 H   0  0  0  0  0  0  0  0  0  0  0  0
   -6.7977   -0.2211   -0.9295 H   0  0  0  0  0  0  0  0  0  0  0  0
   -7.0779   -0.2149    0.8051 H   0  0  0  0  0  0  0  0  0  0  0  0
   -3.6280   -1.3557   -1.0865 H   0  0  0  0  0  0  0  0  0  0  0  0
   -4.5834   -0.0429   -1.7278 H   0  0  0  0  0  0  0  0  0  0  0  0
   -2.3095    0.7348   -1.2235 H   0  0  0  0  0  0  0  0  0  0  0  0
   -3.4555    1.5574   -0.1890 H   0  0  0  0  0  0  0  0  0  0  0  0
  1  2  1  0
  2  3  1  0
  3  4  2  0
  4  5  1  0
  5  6  1  0
  6  7  2  0
  6  8  1  0
  5  9  2  0
  9 10  1  0
 10 11  2  0
 11 12  1  0
 12 13  1  0
 13 14  2  0
 13 15  1  0
 15 16  1  0
 16 17  1  0
 17 18  1  0
 18 19  1  0
 19 20  1  0
 19 21  1  0
 21 22  1  0
 11  3  1  0
 22 16  1  0
  1 23  1  0
  1 24  1  0
  1 25  1  0
  4 26  1  0
  9 27  1  0
 10 28  1  0
 12 29  1  0
 15 30  1  0
 17 31  1  0
 17 32  1  0
 18 33  1  0
 18 34  1  0
 20 35  1  0
 20 36  1  0
 20 37  1  0
 21 38  1  0
 21 39  1  0
 22 40  1  0
 22 41  1  0
M  CHG  2   6   1   8  -1
M  END
$$$$
