
     RDKit          3D

 45 47  0  0  0  0  0  0  0  0999 V2000
    7.4311   -2.0121   -0.7543 C   0  0  0  0  0  0  0  0  0  0  0  0
    6.7138   -0.9259   -0.0066 C   0  0  0  0  0  0  0  0  0  0  0  0
    7.4014   -0.1366    0.9239 C   0  0  0  0  0  0  0  0  0  0  0  0
    6.7295    0.8398    1.6603 C   0  0  0  0  0  0  0  0  0  0  0  0
    5.3618    1.0364    1.4742 C   0  0  0  0  0  0  0  0  0  0  0  0
    4.6622    0.2594    0.5444 C   0  0  0  0  0  0  0  0  0  0  0  0
    3.2036    0.4996    0.3814 C   0  0  0  0  0  0  0  0  0  0  0  0
    2.5332    0.9102    1.3249 O   0  0  0  0  0  0  0  0  0  0  0  0
    2.6862    0.2799   -0.8892 N   0  0  0  0  0  0  0  0  0  0  0  0
    1.3692    0.3553   -1.3267 C   0  0  0  0  0  0  0  0  0  0  0  0
    1.1420    0.0486   -2.9520 S   0  0  0  0  0  0  0  0  0  0  0  0
    0.4619    0.6760   -0.3458 N   0  0  0  0  0  0  0  0  0  0  0  0
   -0.9431    0.8106   -0.3149 C   0  0  0  0  0  0  0  0  0  0  0  0
   -1.4898    1.2547    0.8987 C   0  0  0  0  0  0  0  0  0  0  0  0
   -2.8693    1.4246    1.0569 C   0  0  0  0  0  0  0  0  0  0  0  0
   -3.7405    1.1474    0.0004 C   0  0  0  0  0  0  0  0  0  0  0  0
   -5.2322    1.3294    0.1596 C   0  0  0  0  0  0  0  0  0  0  0  0
   -6.0220    0.0431    0.1032 C   0  0  0  0  0  0  0  0  0  0  0  0
   -5.8401   -0.9557    1.0649 C   0  0  0  0  0  0  0  0  0  0  0  0
   -6.5948   -2.1151    0.9730 C   0  0  0  0  0  0  0  0  0  0  0  0
   -7.5099   -2.3425    0.0071 N   0  0  0  0  0  0  0  0  0  0  0  0
   -7.6719   -1.3670   -0.9114 C   0  0  0  0  0  0  0  0  0  0  0  0
   -6.9641   -0.1744   -0.9064 C   0  0  0  0  0  0  0  0  0  0  0  0
   -3.1988    0.6989   -1.2096 C   0  0  0  0  0  0  0  0  0  0  0  0
   -1.8153    0.5300   -1.3633 C   0  0  0  0  0  0  0  0  0  0  0  0
    5.3355   -0.7343   -0.1810 C   0  0  0  0  0  0  0  0  0  0  0  0
    8.4799   -1.7449   -0.9207 H   0  0  0  0  0  0  0  0  0  0  0  0
    7.3893   -2.9469   -0.1871 H   0  0  0  0  0  0  0  0  0  0  0  0
    6.9774   -2.1731   -1.7379 H   0  0  0  0  0  0  0  0  0  0  0  0
    8.4673   -0.2848    1.0883 H   0  0  0  0  0  0  0  0  0  0  0  0
    7.2714    1.4435    2.3845 H   0  0  0  0  0  0  0  0  0  0  0  0
    4.8439    1.7960    2.0567 H   0  0  0  0  0  0  0  0  0  0  0  0
    3.3319    0.0625   -1.6358 H   0  0  0  0  0  0  0  0  0  0  0  0
    0.9137    0.8873    0.5463 H   0  0  0  0  0  0  0  0  0  0  0  0
   -0.8429    1.4804    1.7444 H   0  0  0  0  0  0  0  0  0  0  0  0
   -3.2515    1.7745    2.0131 H   0  0  0  0  0  0  0  0  0  0  0  0
   -5.5755    2.0240   -0.6185 H   0  0  0  0  0  0  0  0  0  0  0  0
   -5.4577    1.8274    1.1118 H   0  0  0  0  0  0  0  0  0  0  0  0
   -5.1198   -0.8415    1.8683 H   0  0  0  0  0  0  0  0  0  0  0  0
   -6.4780   -2.9158    1.6974 H   0  0  0  0  0  0  0  0  0  0  0  0
   -8.4114   -1.5742   -1.6795 H   0  0  0  0  0  0  0  0  0  0  0  0
   -7.1484    0.5648   -1.6787 H   0  0  0  0  0  0  0  0  0  0  0  0
   -3.8511    0.4657   -2.0490 H   0  0  0  0  0  0  0  0  0  0  0  0
   -1.4745    0.1621   -2.3212 H   0  0  0  0  0  0  0  0  0  0  0  0
    4.7967   -1.3875   -0.8630 H   0  0  0  0  0  0  0  0  0  0  0  0
  1  2  1  0
  2  3  2  0
  3  4  1  0
  4  5  2  0
  5  6  1  0
  6  7  1  0
  7  8  2  0
  7  9  1  0
  9 10  1  0
 10 11  2  0
 10 12  1  0
 12 13  1  0
 13 14  2  0
 14 15  1  0
 15 16  2  0
 16 17  1  0
 17 18  1  0
 18 19  2  0
 19 20  1  0
 20 21  2  0
 21 22  1  0
 22 23  2  0
 16 24  1  0
 24 25  2  0
  6 26  2  0
 26  2  1  0
 25 13  1  0
 23 18  1  0
  1 27  1  0
  1 28  1  0
  1 29  1  0
  3 30  1  0
  4 31  1  0
  5 32  1  0
  9 33  1  0
 12 34  1  0
 14 35  1  0
 15 36  1  0
 17 37  1  0
 17 38  1  0
 19 39  1  0
 20 40  1  0
 22 41  1  0
 23 42  1  0
 24 43  1  0
 25 44  1  0
 26 45  1  0
M  END
$$$$
