
     RDKit          3D

 44 47  0  0  0  0  0  0  0  0999 V2000
    0.8547   -2.6145    0.7580 O   0  0  0  0  0  0  0  0  0  0  0  0
    0.4324   -2.6583   -0.4011 C   0  0  0  0  0  0  0  0  0  0  0  0
    1.3451   -2.8898   -1.6066 C   0  0  0  0  0  0  0  0  0  0  0  0
    3.0692   -3.2033   -1.1321 S   0  0  0  0  0  0  0  0  0  0  0  0
    3.5076   -1.6218   -0.6090 C   0  0  0  0  0  0  0  0  0  0  0  0
    3.9293   -0.6343   -1.3579 N   0  0  0  0  0  0  0  0  0  0  0  0
    4.1331    0.4032   -0.4780 C   0  0  0  0  0  0  0  0  0  0  0  0
    4.5887    1.7057   -0.7251 C   0  0  0  0  0  0  0  0  0  0  0  0
    4.6981    2.5818    0.3586 C   0  0  0  0  0  0  0  0  0  0  0  0
    5.2713    4.1858    0.0911 Cl  0  0  0  0  0  0  0  0  0  0  0  0
    4.3546    2.1865    1.6550 C   0  0  0  0  0  0  0  0  0  0  0  0
    3.8954    0.8902    1.9184 C   0  0  0  0  0  0  0  0  0  0  0  0
    3.8049    0.0287    0.8244 C   0  0  0  0  0  0  0  0  0  0  0  0
    3.4071   -1.2783    0.7059 N   0  0  0  0  0  0  0  0  0  0  0  0
   -0.9281   -2.5133   -0.6737 N   0  0  0  0  0  0  0  0  0  0  0  0
   -1.4751   -2.1466   -1.9821 C   0  0  0  0  0  0  0  0  0  0  0  0
   -1.7288   -0.6328   -2.0408 C   0  0  0  0  0  0  0  0  0  0  0  0
   -2.4996   -0.1320   -0.8900 N   0  0  0  0  0  0  0  0  0  0  0  0
   -3.2524    1.0371   -1.0943 C   0  0  0  0  0  0  0  0  0  0  0  0
   -3.5564    1.3734   -2.2424 O   0  0  0  0  0  0  0  0  0  0  0  0
   -3.6876    1.8382    0.0404 C   0  0  0  0  0  0  0  0  0  0  0  0
   -4.7377    2.7361    0.1345 C   0  0  0  0  0  0  0  0  0  0  0  0
   -4.6914    3.2968    1.4324 C   0  0  0  0  0  0  0  0  0  0  0  0
   -3.6005    2.7338    2.0486 C   0  0  0  0  0  0  0  0  0  0  0  0
   -2.9822    1.8575    1.2159 O   0  0  0  0  0  0  0  0  0  0  0  0
   -2.1053   -0.6477    0.4353 C   0  0  0  0  0  0  0  0  0  0  0  0
   -1.8257   -2.1611    0.4249 C   0  0  0  0  0  0  0  0  0  0  0  0
    0.9892   -3.7712   -2.1475 H   0  0  0  0  0  0  0  0  0  0  0  0
    1.3121   -2.0199   -2.2693 H   0  0  0  0  0  0  0  0  0  0  0  0
    4.8445    2.0119   -1.7328 H   0  0  0  0  0  0  0  0  0  0  0  0
    4.4470    2.8919    2.4787 H   0  0  0  0  0  0  0  0  0  0  0  0
    3.6292    0.5773    2.9223 H   0  0  0  0  0  0  0  0  0  0  0  0
    3.0329   -1.8772    1.4290 H   0  0  0  0  0  0  0  0  0  0  0  0
   -0.8173   -2.4513   -2.7990 H   0  0  0  0  0  0  0  0  0  0  0  0
   -2.4196   -2.6903   -2.1024 H   0  0  0  0  0  0  0  0  0  0  0  0
   -0.7718   -0.0951   -2.0276 H   0  0  0  0  0  0  0  0  0  0  0  0
   -2.2284   -0.3879   -2.9833 H   0  0  0  0  0  0  0  0  0  0  0  0
   -5.4438    2.9538   -0.6556 H   0  0  0  0  0  0  0  0  0  0  0  0
   -5.3580    4.0333    1.8589 H   0  0  0  0  0  0  0  0  0  0  0  0
   -3.1492    2.8503    3.0241 H   0  0  0  0  0  0  0  0  0  0  0  0
   -2.9003   -0.4599    1.1622 H   0  0  0  0  0  0  0  0  0  0  0  0
   -1.2067   -0.0975    0.7379 H   0  0  0  0  0  0  0  0  0  0  0  0
   -2.7613   -2.7118    0.2673 H   0  0  0  0  0  0  0  0  0  0  0  0
   -1.4193   -2.4774    1.3910 H   0  0  0  0  0  0  0  0  0  0  0  0
  1  2  2  0
  2  3  1  0
  3  4  1  0
  4  5  1  0
  5  6  2  0
  6  7  1  0
  7  8  2  0
  8  9  1  0
  9 10  1  0
  9 11  2  0
 11 12  1  0
 12 13  2  0
 13 14  1  0
  2 15  1  0
 15 16  1  0
 16 17  1  0
 17 18  1  0
 18 19  1  0
 19 20  2  0
 19 21  1  0
 21 22  2  0
 22 23  1  0
 23 24  2  0
 24 25  1  0
 18 26  1  0
 26 27  1  0
 14  5  1  0
 27 15  1  0
 13  7  1  0
 25 21  1  0
  3 28  1  0
  3 29  1  0
  8 30  1  0
 11 31  1  0
 12 32  1  0
 14 33  1  0
 16 34  1  0
 16 35  1  0
 17 36  1  0
 17 37  1  0
 22 38  1  0
 23 39  1  0
 24 40  1  0
 26 41  1  0
 26 42  1  0
 27 43  1  0
 27 44  1  0
M  END
$$$$
