
     RDKit          3D

 48 51  0  0  0  0  0  0  0  0999 V2000
    0.4401   -3.6502    1.3680 O   0  0  0  0  0  0  0  0  0  0  0  0
    0.8846   -2.5398    1.0847 C   0  0  0  0  0  0  0  0  0  0  0  0
    2.3821   -2.2175    1.1492 C   0  0  0  0  0  0  0  0  0  0  0  0
    2.6365   -0.7593    0.9884 N   0  0  0  0  0  0  0  0  0  0  0  0
    2.8429    0.0112    2.2211 C   0  0  0  0  0  0  0  0  0  0  0  0
    4.3004    0.4091    2.3714 C   0  0  0  0  0  0  0  0  0  0  0  0
    4.6914    1.2960    1.1978 C   0  0  0  0  0  0  0  0  0  0  0  0
    4.2776    0.6832   -0.1169 C   0  0  0  0  0  0  0  0  0  0  0  0
    4.8893    1.1454   -1.2951 C   0  0  0  0  0  0  0  0  0  0  0  0
    4.5471    0.6034   -2.5300 C   0  0  0  0  0  0  0  0  0  0  0  0
    3.5865   -0.3976   -2.5975 C   0  0  0  0  0  0  0  0  0  0  0  0
    2.9658   -0.8517   -1.4302 C   0  0  0  0  0  0  0  0  0  0  0  0
    3.2921   -0.3245   -0.1689 C   0  0  0  0  0  0  0  0  0  0  0  0
    0.1274   -1.4614    0.6567 N   0  0  0  0  0  0  0  0  0  0  0  0
   -1.2174   -1.5575    0.5103 N   0  0  0  0  0  0  0  0  0  0  0  0
   -1.8067   -0.4828    0.0825 C   0  0  0  0  0  0  0  0  0  0  0  0
   -3.2774   -0.4390   -0.1218 C   0  0  0  0  0  0  0  0  0  0  0  0
   -4.0481   -1.5696    0.2063 C   0  0  0  0  0  0  0  0  0  0  0  0
   -3.5285   -2.7360    0.7035 O   0  0  0  0  0  0  0  0  0  0  0  0
   -5.4257   -1.5621    0.0397 C   0  0  0  0  0  0  0  0  0  0  0  0
   -6.0554   -0.4264   -0.4576 C   0  0  0  0  0  0  0  0  0  0  0  0
   -5.3190    0.7170   -0.7980 C   0  0  0  0  0  0  0  0  0  0  0  0
   -5.9950    1.8416   -1.2990 C   0  0  0  0  0  0  0  0  0  0  0  0
   -5.3062    2.9983   -1.6528 C   0  0  0  0  0  0  0  0  0  0  0  0
   -3.9282    3.0443   -1.5113 C   0  0  0  0  0  0  0  0  0  0  0  0
   -3.2395    1.9336   -1.0141 C   0  0  0  0  0  0  0  0  0  0  0  0
   -3.9065    0.7363   -0.6385 C   0  0  0  0  0  0  0  0  0  0  0  0
    2.7529   -2.5569    2.1236 H   0  0  0  0  0  0  0  0  0  0  0  0
    2.8943   -2.8155    0.3869 H   0  0  0  0  0  0  0  0  0  0  0  0
    2.2065    0.9048    2.1892 H   0  0  0  0  0  0  0  0  0  0  0  0
    2.5203   -0.5608    3.0989 H   0  0  0  0  0  0  0  0  0  0  0  0
    4.4564    0.9462    3.3132 H   0  0  0  0  0  0  0  0  0  0  0  0
    4.9335   -0.4870    2.3952 H   0  0  0  0  0  0  0  0  0  0  0  0
    5.7762    1.4532    1.2176 H   0  0  0  0  0  0  0  0  0  0  0  0
    4.2082    2.2762    1.2919 H   0  0  0  0  0  0  0  0  0  0  0  0
    5.6433    1.9281   -1.2491 H   0  0  0  0  0  0  0  0  0  0  0  0
    5.0286    0.9611   -3.4361 H   0  0  0  0  0  0  0  0  0  0  0  0
    3.3108   -0.8245   -3.5584 H   0  0  0  0  0  0  0  0  0  0  0  0
    2.2008   -1.6174   -1.5320 H   0  0  0  0  0  0  0  0  0  0  0  0
    0.6351   -0.5976    0.4605 H   0  0  0  0  0  0  0  0  0  0  0  0
   -1.2150    0.4193   -0.1336 H   0  0  0  0  0  0  0  0  0  0  0  0
   -2.5495   -2.6449    0.7632 H   0  0  0  0  0  0  0  0  0  0  0  0
   -6.0078   -2.4427    0.2987 H   0  0  0  0  0  0  0  0  0  0  0  0
   -7.1370   -0.4457   -0.5788 H   0  0  0  0  0  0  0  0  0  0  0  0
   -7.0769    1.8248   -1.4198 H   0  0  0  0  0  0  0  0  0  0  0  0
   -5.8467    3.8583   -2.0392 H   0  0  0  0  0  0  0  0  0  0  0  0
   -3.3828    3.9434   -1.7879 H   0  0  0  0  0  0  0  0  0  0  0  0
   -2.1615    2.0335   -0.9324 H   0  0  0  0  0  0  0  0  0  0  0  0
  1  2  2  0
  2  3  1  0
  3  4  1  0
  4  5  1  0
  5  6  1  0
  6  7  1  0
  7  8  1  0
  8  9  2  0
  9 10  1  0
 10 11  2  0
 11 12  1  0
 12 13  2  0
  2 14  1  0
 14 15  1  0
 15 16  2  3
 16 17  1  0
 17 18  2  0
 18 19  1  0
 18 20  1  0
 20 21  2  0
 21 22  1  0
 22 23  2  0
 23 24  1  0
 24 25  2  0
 25 26  1  0
 26 27  2  0
 13  4  1  0
 27 17  1  0
 13  8  1  0
 27 22  1  0
  3 28  1  0
  3 29  1  0
  5 30  1  0
  5 31  1  0
  6 32  1  0
  6 33  1  0
  7 34  1  0
  7 35  1  0
  9 36  1  0
 10 37  1  0
 11 38  1  0
 12 39  1  0
 14 40  1  0
 16 41  1  0
 19 42  1  0
 20 43  1  0
 21 44  1  0
 23 45  1  0
 24 46  1  0
 25 47  1  0
 26 48  1  0
M  END
$$$$
