
     RDKit          3D

 49 52  0  0  0  0  0  0  0  0999 V2000
    1.1666   -1.6289   -1.7581 N   0  0  0  0  0  0  0  0  0  0  0  0
    0.2058   -2.0416   -0.9126 C   0  0  0  0  0  0  0  0  0  0  0  0
   -0.0540   -3.3004   -0.7007 N   0  0  0  0  0  0  0  0  0  0  0  0
   -1.1316   -3.2726    0.3295 C   0  0  0  0  0  0  0  0  0  0  0  0
   -1.6532   -1.8190    0.3967 C   0  0  0  0  0  0  0  0  0  0  0  0
   -2.9862   -1.6991   -0.3660 C   0  0  0  0  0  0  0  0  0  0  0  0
   -3.6522   -0.3479   -0.2373 C   0  0  0  0  0  0  0  0  0  0  0  0
   -3.6638    0.5408   -1.3229 C   0  0  0  0  0  0  0  0  0  0  0  0
   -4.2666    1.7951   -1.2078 C   0  0  0  0  0  0  0  0  0  0  0  0
   -4.8594    2.1600   -0.0040 C   0  0  0  0  0  0  0  0  0  0  0  0
   -5.4579    3.3749    0.1535 O   0  0  0  0  0  0  0  0  0  0  0  0
   -4.8599    1.2926    1.0815 C   0  0  0  0  0  0  0  0  0  0  0  0
   -4.2592    0.0383    0.9662 C   0  0  0  0  0  0  0  0  0  0  0  0
   -0.5720   -1.1218   -0.2896 N   0  0  0  0  0  0  0  0  0  0  0  0
   -0.2460    0.2566    0.0329 C   0  0  0  0  0  0  0  0  0  0  0  0
    0.6181    0.3845    1.2983 C   0  0  0  0  0  0  0  0  0  0  0  0
    2.0780    0.0226    1.0972 C   0  0  0  0  0  0  0  0  0  0  0  0
    2.4956   -1.2556    1.5095 C   0  0  0  0  0  0  0  0  0  0  0  0
    3.8087   -1.6714    1.3254 C   0  0  0  0  0  0  0  0  0  0  0  0
    4.7277   -0.8158    0.7271 C   0  0  0  0  0  0  0  0  0  0  0  0
    4.3486    0.4659    0.3042 C   0  0  0  0  0  0  0  0  0  0  0  0
    5.2937    1.3098   -0.3019 C   0  0  0  0  0  0  0  0  0  0  0  0
    4.9435    2.5869   -0.7346 C   0  0  0  0  0  0  0  0  0  0  0  0
    3.6421    3.0372   -0.5645 C   0  0  0  0  0  0  0  0  0  0  0  0
    2.6906    2.2097    0.0374 C   0  0  0  0  0  0  0  0  0  0  0  0
    3.0122    0.9070    0.4854 C   0  0  0  0  0  0  0  0  0  0  0  0
    1.7435   -0.8834   -1.3910 H   0  0  0  0  0  0  0  0  0  0  0  0
    1.7464   -2.4132   -2.0353 H   0  0  0  0  0  0  0  0  0  0  0  0
   -1.9136   -3.9957    0.0771 H   0  0  0  0  0  0  0  0  0  0  0  0
   -0.6938   -3.5665    1.2908 H   0  0  0  0  0  0  0  0  0  0  0  0
   -1.7607   -1.5051    1.4411 H   0  0  0  0  0  0  0  0  0  0  0  0
   -3.6943   -2.4486    0.0123 H   0  0  0  0  0  0  0  0  0  0  0  0
   -2.8409   -1.9374   -1.4282 H   0  0  0  0  0  0  0  0  0  0  0  0
   -3.1926    0.2598   -2.2633 H   0  0  0  0  0  0  0  0  0  0  0  0
   -4.2608    2.4658   -2.0608 H   0  0  0  0  0  0  0  0  0  0  0  0
   -5.4188    3.8493   -0.6931 H   0  0  0  0  0  0  0  0  0  0  0  0
   -5.3312    1.5908    2.0137 H   0  0  0  0  0  0  0  0  0  0  0  0
   -4.2729   -0.6343    1.8204 H   0  0  0  0  0  0  0  0  0  0  0  0
   -1.1713    0.8121    0.2131 H   0  0  0  0  0  0  0  0  0  0  0  0
    0.2284    0.7442   -0.8259 H   0  0  0  0  0  0  0  0  0  0  0  0
    0.1956   -0.2280    2.1054 H   0  0  0  0  0  0  0  0  0  0  0  0
    0.5617    1.4130    1.6754 H   0  0  0  0  0  0  0  0  0  0  0  0
    1.7857   -1.9471    1.9604 H   0  0  0  0  0  0  0  0  0  0  0  0
    4.1137   -2.6654    1.6423 H   0  0  0  0  0  0  0  0  0  0  0  0
    5.7505   -1.1615    0.5915 H   0  0  0  0  0  0  0  0  0  0  0  0
    6.3197    0.9752   -0.4424 H   0  0  0  0  0  0  0  0  0  0  0  0
    5.6875    3.2271   -1.2010 H   0  0  0  0  0  0  0  0  0  0  0  0
    3.3627    4.0336   -0.8972 H   0  0  0  0  0  0  0  0  0  0  0  0
    1.6863    2.6081    0.1526 H   0  0  0  0  0  0  0  0  0  0  0  0
  1  2  1  0
  2  3  2  0
  3  4  1  0
  4  5  1  0
  5  6  1  0
  6  7  1  0
  7  8  2  0
  8  9  1  0
  9 10  2  0
 10 11  1  0
 10 12  1  0
 12 13  2  0
  5 14  1  0
 14 15  1  0
 15 16  1  0
 16 17  1  0
 17 18  2  0
 18 19  1  0
 19 20  2  0
 20 21  1  0
 21 22  2  0
 22 23  1  0
 23 24  2  0
 24 25  1  0
 25 26  2  0
 14  2  1  0
 26 17  1  0
 13  7  1  0
 26 21  1  0
  1 27  1  0
  1 28  1  0
  4 29  1  0
  4 30  1  0
  5 31  1  0
  6 32  1  0
  6 33  1  0
  8 34  1  0
  9 35  1  0
 11 36  1  0
 12 37  1  0
 13 38  1  0
 15 39  1  0
 15 40  1  0
 16 41  1  0
 16 42  1  0
 18 43  1  0
 19 44  1  0
 20 45  1  0
 22 46  1  0
 23 47  1  0
 24 48  1  0
 25 49  1  0
M  END
$$$$
