
     RDKit          3D

 57 60  0  0  0  0  0  0  0  0999 V2000
    8.1840   -2.0523    0.7283 C   0  0  0  0  0  0  0  0  0  0  0  0
    6.9634   -1.8330    1.4260 O   0  0  0  0  0  0  0  0  0  0  0  0
    5.8827   -1.4513    0.6791 C   0  0  0  0  0  0  0  0  0  0  0  0
    5.8614   -1.2864   -0.7008 C   0  0  0  0  0  0  0  0  0  0  0  0
    4.6803   -0.8902   -1.3335 C   0  0  0  0  0  0  0  0  0  0  0  0
    3.5030   -0.6519   -0.6009 C   0  0  0  0  0  0  0  0  0  0  0  0
    2.3048   -0.2261   -1.4011 C   0  0  0  0  0  0  0  0  0  0  0  0
    2.3609   -0.1863   -2.6273 O   0  0  0  0  0  0  0  0  0  0  0  0
    1.1664    0.1116   -0.7121 N   0  0  0  0  0  0  0  0  0  0  0  0
   -0.0794    0.4210   -1.3785 C   0  0  0  0  0  0  0  0  0  0  0  0
   -0.7876   -0.8731   -1.8451 C   0  0  0  0  0  0  0  0  0  0  0  0
   -2.3025   -0.6850   -2.1509 C   0  0  0  0  0  0  0  0  0  0  0  0
   -2.8997   -2.0474   -2.5527 C   0  0  0  0  0  0  0  0  0  0  0  0
   -2.5003    0.2874   -3.3321 C   0  0  0  0  0  0  0  0  0  0  0  0
   -3.0540   -0.1643   -0.8845 C   0  0  0  0  0  0  0  0  0  0  0  0
   -2.2790    0.9071   -0.1901 C   0  0  0  0  0  0  0  0  0  0  0  0
   -0.9420    1.1762   -0.4261 C   0  0  0  0  0  0  0  0  0  0  0  0
   -0.6690    2.3147    0.3382 C   0  0  0  0  0  0  0  0  0  0  0  0
   -1.7257    2.7222    1.0356 N   0  0  0  0  0  0  0  0  0  0  0  0
   -2.7187    1.8246    0.7572 N   0  0  0  0  0  0  0  0  0  0  0  0
   -3.9706    1.9511    1.4380 C   0  0  0  0  0  0  0  0  0  0  0  0
   -4.2132    3.1130    2.1938 C   0  0  0  0  0  0  0  0  0  0  0  0
   -5.4197    3.2865    2.8774 C   0  0  0  0  0  0  0  0  0  0  0  0
   -6.3967    2.2981    2.8247 C   0  0  0  0  0  0  0  0  0  0  0  0
   -6.1639    1.1358    2.0945 C   0  0  0  0  0  0  0  0  0  0  0  0
   -4.9566    0.9588    1.4071 C   0  0  0  0  0  0  0  0  0  0  0  0
    3.5212   -0.8229    0.7985 C   0  0  0  0  0  0  0  0  0  0  0  0
    2.3555   -0.5976    1.4877 O   0  0  0  0  0  0  0  0  0  0  0  0
    2.3756   -0.7403    2.9046 C   0  0  0  0  0  0  0  0  0  0  0  0
    4.7162   -1.2210    1.4183 C   0  0  0  0  0  0  0  0  0  0  0  0
    8.0884   -2.8807    0.0186 H   0  0  0  0  0  0  0  0  0  0  0  0
    8.5233   -1.1391    0.2282 H   0  0  0  0  0  0  0  0  0  0  0  0
    8.9440   -2.3303    1.4646 H   0  0  0  0  0  0  0  0  0  0  0  0
    6.7383   -1.4561   -1.3173 H   0  0  0  0  0  0  0  0  0  0  0  0
    4.6836   -0.7652   -2.4159 H   0  0  0  0  0  0  0  0  0  0  0  0
    1.1526   -0.0583    0.2883 H   0  0  0  0  0  0  0  0  0  0  0  0
    0.1370    1.0522   -2.2492 H   0  0  0  0  0  0  0  0  0  0  0  0
   -0.6848   -1.6409   -1.0636 H   0  0  0  0  0  0  0  0  0  0  0  0
   -0.2674   -1.2742   -2.7249 H   0  0  0  0  0  0  0  0  0  0  0  0
   -2.4152   -2.4425   -3.4525 H   0  0  0  0  0  0  0  0  0  0  0  0
   -3.9724   -1.9629   -2.7591 H   0  0  0  0  0  0  0  0  0  0  0  0
   -2.7719   -2.7876   -1.7547 H   0  0  0  0  0  0  0  0  0  0  0  0
   -2.1535    1.2996   -3.1024 H   0  0  0  0  0  0  0  0  0  0  0  0
   -1.9543   -0.0571   -4.2179 H   0  0  0  0  0  0  0  0  0  0  0  0
   -3.5593    0.3621   -3.6051 H   0  0  0  0  0  0  0  0  0  0  0  0
   -4.0442    0.1994   -1.1812 H   0  0  0  0  0  0  0  0  0  0  0  0
   -3.1859   -0.9966   -0.1819 H   0  0  0  0  0  0  0  0  0  0  0  0
    0.2567    2.8723    0.4103 H   0  0  0  0  0  0  0  0  0  0  0  0
   -3.4692    3.9063    2.2532 H   0  0  0  0  0  0  0  0  0  0  0  0
   -5.5909    4.1943    3.4501 H   0  0  0  0  0  0  0  0  0  0  0  0
   -7.3347    2.4300    3.3576 H   0  0  0  0  0  0  0  0  0  0  0  0
   -6.9216    0.3564    2.0660 H   0  0  0  0  0  0  0  0  0  0  0  0
   -4.8232    0.0164    0.8945 H   0  0  0  0  0  0  0  0  0  0  0  0
    2.6023   -1.7719    3.1929 H   0  0  0  0  0  0  0  0  0  0  0  0
    1.3730   -0.5051    3.2757 H   0  0  0  0  0  0  0  0  0  0  0  0
    3.0740   -0.0332    3.3647 H   0  0  0  0  0  0  0  0  0  0  0  0
    4.7785   -1.3661    2.4923 H   0  0  0  0  0  0  0  0  0  0  0  0
  1  2  1  0
  2  3  1  0
  3  4  2  0
  4  5  1  0
  5  6  2  0
  6  7  1  0
  7  8  2  0
  7  9  1  0
  9 10  1  0
 10 11  1  0
 11 12  1  0
 12 13  1  0
 12 14  1  0
 12 15  1  0
 15 16  1  0
 16 17  2  0
 17 18  1  0
 18 19  2  0
 19 20  1  0
 20 21  1  0
 21 22  2  0
 22 23  1  0
 23 24  2  0
 24 25  1  0
 25 26  2  0
  6 27  1  0
 27 28  1  0
 28 29  1  0
 27 30  2  0
 30  3  1  0
 17 10  1  0
 26 21  1  0
 20 16  1  0
  1 31  1  0
  1 32  1  0
  1 33  1  0
  4 34  1  0
  5 35  1  0
  9 36  1  0
 10 37  1  0
 11 38  1  0
 11 39  1  0
 13 40  1  0
 13 41  1  0
 13 42  1  0
 14 43  1  0
 14 44  1  0
 14 45  1  0
 15 46  1  0
 15 47  1  0
 18 48  1  0
 22 49  1  0
 23 50  1  0
 24 51  1  0
 25 52  1  0
 26 53  1  0
 29 54  1  0
 29 55  1  0
 29 56  1  0
 30 57  1  0
M  END
$$$$
