
     RDKit          3D

 40 42  0  0  0  0  0  0  0  0999 V2000
   -0.3916   -1.4521   -1.9004 C   0  0  0  0  0  0  0  0  0  0  0  0
   -1.7376   -1.0321   -1.3073 C   0  0  0  0  0  0  0  0  0  0  0  0
   -2.8752   -1.7212   -2.0634 C   0  0  0  0  0  0  0  0  0  0  0  0
   -1.8424   -1.3565    0.1953 C   0  0  0  0  0  0  0  0  0  0  0  0
   -0.9412   -0.5915    1.0341 N   0  0  0  0  0  0  0  0  0  0  0  0
    0.2233   -1.0128    1.6197 C   0  0  0  0  0  0  0  0  0  0  0  0
    0.8776   -2.6055    1.4890 S   0  0  0  0  0  0  0  0  0  0  0  0
    2.6588   -2.2323    1.5291 C   0  0  0  0  0  0  0  0  0  0  0  0
    3.0998   -1.5999    0.2161 C   0  0  0  0  0  0  0  0  0  0  0  0
    2.9999   -2.2589   -0.8245 O   0  0  0  0  0  0  0  0  0  0  0  0
    3.6379   -0.2398    0.2412 C   0  0  0  0  0  0  0  0  0  0  0  0
    3.7590    0.6727    1.2775 C   0  0  0  0  0  0  0  0  0  0  0  0
    4.3409    1.9098    0.8604 C   0  0  0  0  0  0  0  0  0  0  0  0
    4.6414    1.8878   -0.4742 C   0  0  0  0  0  0  0  0  0  0  0  0
    5.3498    3.1582   -1.3859 Cl  0  0  0  0  0  0  0  0  0  0  0  0
    4.2417    0.4322   -1.2290 S   0  0  0  0  0  0  0  0  0  0  0  0
    0.7715   -0.0306    2.2927 N   0  0  0  0  0  0  0  0  0  0  0  0
   -0.0432    1.0638    2.1651 N   0  0  0  0  0  0  0  0  0  0  0  0
   -1.0833    0.7222    1.4264 C   0  0  0  0  0  0  0  0  0  0  0  0
   -2.1576    1.6148    1.1121 C   0  0  0  0  0  0  0  0  0  0  0  0
   -2.2738    2.9535    1.4550 C   0  0  0  0  0  0  0  0  0  0  0  0
   -3.5013    3.4226    0.9303 C   0  0  0  0  0  0  0  0  0  0  0  0
   -4.0737    2.3482    0.2970 C   0  0  0  0  0  0  0  0  0  0  0  0
   -3.2760    1.2564    0.4014 O   0  0  0  0  0  0  0  0  0  0  0  0
   -0.2051   -2.5207   -1.7507 H   0  0  0  0  0  0  0  0  0  0  0  0
   -0.3641   -1.2540   -2.9774 H   0  0  0  0  0  0  0  0  0  0  0  0
    0.4309   -0.8909   -1.4472 H   0  0  0  0  0  0  0  0  0  0  0  0
   -1.8414    0.0484   -1.4606 H   0  0  0  0  0  0  0  0  0  0  0  0
   -2.8191   -2.8103   -1.9600 H   0  0  0  0  0  0  0  0  0  0  0  0
   -3.8486   -1.3932   -1.6836 H   0  0  0  0  0  0  0  0  0  0  0  0
   -2.8362   -1.4795   -3.1309 H   0  0  0  0  0  0  0  0  0  0  0  0
   -2.8569   -1.1700    0.5662 H   0  0  0  0  0  0  0  0  0  0  0  0
   -1.6671   -2.4238    0.3661 H   0  0  0  0  0  0  0  0  0  0  0  0
    2.9109   -1.6340    2.4059 H   0  0  0  0  0  0  0  0  0  0  0  0
    3.2043   -3.1770    1.6321 H   0  0  0  0  0  0  0  0  0  0  0  0
    3.4300    0.4967    2.2951 H   0  0  0  0  0  0  0  0  0  0  0  0
    4.5143    2.7599    1.5083 H   0  0  0  0  0  0  0  0  0  0  0  0
   -1.5440    3.5173    2.0214 H   0  0  0  0  0  0  0  0  0  0  0  0
   -3.9152    4.4183    1.0061 H   0  0  0  0  0  0  0  0  0  0  0  0
   -4.9972    2.2041   -0.2466 H   0  0  0  0  0  0  0  0  0  0  0  0
  1  2  1  0
  2  3  1  0
  2  4  1  0
  4  5  1  0
  5  6  1  0
  6  7  1  0
  7  8  1  0
  8  9  1  0
  9 10  2  0
  9 11  1  0
 11 12  2  0
 12 13  1  0
 13 14  2  0
 14 15  1  0
 14 16  1  0
  6 17  2  0
 17 18  1  0
 18 19  2  0
 19 20  1  0
 20 21  2  0
 21 22  1  0
 22 23  2  0
 23 24  1  0
 19  5  1  0
 24 20  1  0
 16 11  1  0
  1 25  1  0
  1 26  1  0
  1 27  1  0
  2 28  1  0
  3 29  1  0
  3 30  1  0
  3 31  1  0
  4 32  1  0
  4 33  1  0
  8 34  1  0
  8 35  1  0
 12 36  1  0
 13 37  1  0
 21 38  1  0
 22 39  1  0
 23 40  1  0
M  END
$$$$
