
     RDKit          3D

 31 33  0  0  0  0  0  0  0  0999 V2000
   -2.0219   -2.5253    1.7455 O   0  0  0  0  0  0  0  0  0  0  0  0
   -1.9073   -2.0061    0.6500 C   0  0  0  0  0  0  0  0  0  0  0  0
   -1.6993   -2.7548   -0.4502 O   0  0  0  0  0  0  0  0  0  0  0  0
   -2.0134   -0.5517    0.3674 C   0  0  0  0  0  0  0  0  0  0  0  0
   -2.6122    0.2299    1.3702 C   0  0  0  0  0  0  0  0  0  0  0  0
   -2.7816    1.6025    1.1934 C   0  0  0  0  0  0  0  0  0  0  0  0
   -2.3630    2.2030    0.0106 C   0  0  0  0  0  0  0  0  0  0  0  0
   -1.7556    1.4376   -0.9876 C   0  0  0  0  0  0  0  0  0  0  0  0
   -1.5456    0.0645   -0.8104 C   0  0  0  0  0  0  0  0  0  0  0  0
   -0.8948   -0.6951   -1.8380 N   0  0  0  0  0  0  0  0  0  0  0  0
    0.6011   -0.2285   -2.4550 S   0  0  0  0  0  6  0  0  0  0  0  0
    1.1664   -1.3704   -3.1395 O   0  0  0  0  0  0  0  0  0  0  0  0
    0.4308    1.0296   -3.1547 O   0  0  0  0  0  0  0  0  0  0  0  0
    1.5983    0.0911   -1.0446 C   0  0  0  0  0  0  0  0  0  0  0  0
    2.2058    1.3549   -0.8669 C   0  0  0  0  0  0  0  0  0  0  0  0
    3.0152    1.6695    0.2486 C   0  0  0  0  0  0  0  0  0  0  0  0
    3.2861    0.7525    1.2774 C   0  0  0  0  0  0  0  0  0  0  0  0
    2.7001   -0.5297    1.1466 C   0  0  0  0  0  0  0  0  0  0  0  0
    2.8334   -1.5380    2.0201 N   0  0  0  0  0  0  0  0  0  0  0  0
    1.9565   -2.8077    1.4140 S   0  0  0  0  0  0  0  0  0  0  0  0
    1.3613   -2.1330    0.0188 N   0  0  0  0  0  0  0  0  0  0  0  0
    1.8335   -0.8766   -0.0430 C   0  0  0  0  0  0  0  0  0  0  0  0
   -1.6599   -3.6732   -0.1030 H   0  0  0  0  0  0  0  0  0  0  0  0
   -2.9597   -0.2331    2.2929 H   0  0  0  0  0  0  0  0  0  0  0  0
   -3.2540    2.1982    1.9713 H   0  0  0  0  0  0  0  0  0  0  0  0
   -2.5147    3.2693   -0.1428 H   0  0  0  0  0  0  0  0  0  0  0  0
   -1.4666    1.9327   -1.9118 H   0  0  0  0  0  0  0  0  0  0  0  0
   -0.9511   -1.7167   -1.7241 H   0  0  0  0  0  0  0  0  0  0  0  0
    2.0532    2.1310   -1.6199 H   0  0  0  0  0  0  0  0  0  0  0  0
    3.4504    2.6680    0.3122 H   0  0  0  0  0  0  0  0  0  0  0  0
    3.9087    1.0055    2.1277 H   0  0  0  0  0  0  0  0  0  0  0  0
  1  2  2  0
  2  3  1  0
  2  4  1  0
  4  5  2  0
  5  6  1  0
  6  7  2  0
  7  8  1  0
  8  9  2  0
  9 10  1  0
 10 11  1  0
 11 12  2  0
 11 13  2  0
 11 14  1  0
 14 15  2  0
 15 16  1  0
 16 17  2  0
 17 18  1  0
 18 19  2  0
 19 20  1  0
 20 21  1  0
 21 22  2  0
  9  4  1  0
 22 14  1  0
 22 18  1  0
  3 23  1  0
  5 24  1  0
  6 25  1  0
  7 26  1  0
  8 27  1  0
 10 28  1  0
 15 29  1  0
 16 30  1  0
 17 31  1  0
M  END
$$$$
