
     RDKit          3D

 50 53  0  0  0  0  0  0  0  0999 V2000
    1.2157   -3.3460   -0.1006 O   0  0  0  0  0  0  0  0  0  0  0  0
    0.5871   -2.3199   -0.2820 C   0  0  0  0  0  0  0  0  0  0  0  0
   -0.9088   -2.2835   -0.5641 C   0  0  0  0  0  0  0  0  0  0  0  0
   -1.6272   -3.2584   -0.6241 O   0  0  0  0  0  0  0  0  0  0  0  0
   -1.2563   -0.9487   -0.6850 N   0  0  0  0  0  0  0  0  0  0  0  0
   -2.6675   -0.5599   -0.6017 C   0  0  0  0  0  0  0  0  0  0  0  0
   -3.2390   -0.6146    0.8203 C   0  0  0  0  0  0  0  0  0  0  0  0
   -4.7526   -0.4807    0.8544 C   0  0  0  0  0  0  0  0  0  0  0  0
   -4.9773    0.0442    2.2499 C   0  0  0  0  0  0  0  0  0  0  0  0
   -3.8056    0.9867    2.4244 C   0  0  0  0  0  0  0  0  0  0  0  0
   -2.7376    0.4881    1.6041 O   0  0  0  0  0  0  0  0  0  0  0  0
   -0.1734   -0.1064   -0.1900 C   0  0  0  0  0  0  0  0  0  0  0  0
   -0.0721    1.2524   -0.8640 C   0  0  0  0  0  0  0  0  0  0  0  0
    0.2272    2.3602   -0.0469 C   0  0  0  0  0  0  0  0  0  0  0  0
    0.3341    3.6503   -0.5768 C   0  0  0  0  0  0  0  0  0  0  0  0
    0.1441    3.8710   -1.9385 C   0  0  0  0  0  0  0  0  0  0  0  0
   -0.1485    2.7996   -2.7774 C   0  0  0  0  0  0  0  0  0  0  0  0
   -0.2464    1.5059   -2.2399 C   0  0  0  0  0  0  0  0  0  0  0  0
   -0.5407    0.4366   -3.1823 N   0  0  0  0  0  4  0  0  0  0  0  0
   -1.5841    0.5365   -3.8408 O   0  0  0  0  0  0  0  0  0  0  0  0
    0.2877   -0.4794   -3.2741 O   0  0  0  0  0  1  0  0  0  0  0  0
    1.1330   -0.9286   -0.3038 C   0  0  0  0  0  0  0  0  0  0  0  0
    2.1008   -0.6433    0.8196 C   0  0  0  0  0  0  0  0  0  0  0  0
    1.7375   -0.0854    1.8550 O   0  0  0  0  0  0  0  0  0  0  0  0
    3.5447   -1.0117    0.6694 C   0  0  0  0  0  0  0  0  0  0  0  0
    4.4447   -0.5581    1.6460 C   0  0  0  0  0  0  0  0  0  0  0  0
    5.8059   -0.8555    1.5520 C   0  0  0  0  0  0  0  0  0  0  0  0
    6.2801   -1.6109    0.4828 C   0  0  0  0  0  0  0  0  0  0  0  0
    5.3945   -2.0712   -0.4896 C   0  0  0  0  0  0  0  0  0  0  0  0
    4.0309   -1.7740   -0.3997 C   0  0  0  0  0  0  0  0  0  0  0  0
   -3.2278   -1.2514   -1.2421 H   0  0  0  0  0  0  0  0  0  0  0  0
   -2.7683    0.4468   -1.0193 H   0  0  0  0  0  0  0  0  0  0  0  0
   -2.9329   -1.5364    1.3299 H   0  0  0  0  0  0  0  0  0  0  0  0
   -5.0977    0.2597    0.1224 H   0  0  0  0  0  0  0  0  0  0  0  0
   -5.2671   -1.4253    0.6580 H   0  0  0  0  0  0  0  0  0  0  0  0
   -4.9072   -0.7775    2.9725 H   0  0  0  0  0  0  0  0  0  0  0  0
   -5.9440    0.5359    2.3856 H   0  0  0  0  0  0  0  0  0  0  0  0
   -3.4715    1.0524    3.4637 H   0  0  0  0  0  0  0  0  0  0  0  0
   -4.0510    1.9940    2.0721 H   0  0  0  0  0  0  0  0  0  0  0  0
   -0.4106    0.0508    0.8693 H   0  0  0  0  0  0  0  0  0  0  0  0
    0.3730    2.2280    1.0270 H   0  0  0  0  0  0  0  0  0  0  0  0
    0.5615    4.4861    0.0823 H   0  0  0  0  0  0  0  0  0  0  0  0
    0.2230    4.8776   -2.3429 H   0  0  0  0  0  0  0  0  0  0  0  0
   -0.2977    2.9761   -3.8411 H   0  0  0  0  0  0  0  0  0  0  0  0
    1.6221   -0.7488   -1.2637 H   0  0  0  0  0  0  0  0  0  0  0  0
    4.0914    0.0308    2.4908 H   0  0  0  0  0  0  0  0  0  0  0  0
    6.4932   -0.5007    2.3162 H   0  0  0  0  0  0  0  0  0  0  0  0
    7.3387   -1.8485    0.4110 H   0  0  0  0  0  0  0  0  0  0  0  0
    5.7640   -2.6725   -1.3175 H   0  0  0  0  0  0  0  0  0  0  0  0
    3.3780   -2.1727   -1.1706 H   0  0  0  0  0  0  0  0  0  0  0  0
  1  2  2  0
  2  3  1  0
  3  4  2  0
  3  5  1  0
  5  6  1  0
  6  7  1  0
  7  8  1  0
  8  9  1  0
  9 10  1  0
 10 11  1  0
  5 12  1  0
 12 13  1  0
 13 14  2  0
 14 15  1  0
 15 16  2  0
 16 17  1  0
 17 18  2  0
 18 19  1  0
 19 20  2  0
 19 21  1  0
 12 22  1  0
 22 23  1  0
 23 24  2  0
 23 25  1  0
 25 26  2  0
 26 27  1  0
 27 28  2  0
 28 29  1  0
 29 30  2  0
 22  2  1  0
 30 25  1  0
 11  7  1  0
 18 13  1  0
  6 31  1  0
  6 32  1  0
  7 33  1  0
  8 34  1  0
  8 35  1  0
  9 36  1  0
  9 37  1  0
 10 38  1  0
 10 39  1  0
 12 40  1  0
 14 41  1  0
 15 42  1  0
 16 43  1  0
 17 44  1  0
 22 45  1  0
 26 46  1  0
 27 47  1  0
 28 48  1  0
 29 49  1  0
 30 50  1  0
M  CHG  2  19   1  21  -1
M  END
$$$$
