
     RDKit          3D

 46 49  0  0  0  0  0  0  0  0999 V2000
   -2.9354    0.5780    1.0174 O   0  0  0  0  0  0  0  0  0  0  0  0
   -3.3058    0.0846   -0.0418 C   0  0  0  0  0  0  0  0  0  0  0  0
   -2.4868   -0.5014   -0.9890 N   0  0  0  0  0  0  0  0  0  0  0  0
   -1.0841   -0.6512   -0.9437 C   0  0  0  0  0  0  0  0  0  0  0  0
   -0.4823   -1.2911   -2.0357 C   0  0  0  0  0  0  0  0  0  0  0  0
    0.9023   -1.4840   -2.0782 C   0  0  0  0  0  0  0  0  0  0  0  0
    1.7107   -1.0430   -1.0325 C   0  0  0  0  0  0  0  0  0  0  0  0
    3.0901   -1.2460   -1.1172 N   0  0  0  0  0  0  0  0  0  0  0  0
    3.8369   -0.8566   -0.1336 C   0  0  0  0  0  0  0  0  0  0  0  0
    3.3522   -0.2479    1.0052 N   0  0  0  0  0  0  0  0  0  0  0  0
    1.9942    0.0438    1.1414 C   0  0  0  0  0  0  0  0  0  0  0  0
    1.5124    0.6465    2.0970 O   0  0  0  0  0  0  0  0  0  0  0  0
    1.1127   -0.4082    0.0500 C   0  0  0  0  0  0  0  0  0  0  0  0
   -0.2760   -0.2080    0.1038 C   0  0  0  0  0  0  0  0  0  0  0  0
    4.2374    0.1566    2.0963 C   0  0  0  0  0  0  0  0  0  0  0  0
    5.1171    1.3466    1.7180 C   0  0  0  0  0  0  0  0  0  0  0  0
    6.3583    0.9527    0.9193 C   0  0  0  0  0  0  0  0  0  0  0  0
    6.0651    0.2711   -0.4149 C   0  0  0  0  0  0  0  0  0  0  0  0
    5.3340   -1.0598   -0.2696 C   0  0  0  0  0  0  0  0  0  0  0  0
   -4.7712    0.1146   -0.3420 C   0  0  0  0  0  0  0  0  0  0  0  0
   -5.6323    0.7057    0.6007 C   0  0  0  0  0  0  0  0  0  0  0  0
   -7.0132    0.7544    0.3573 C   0  0  0  0  0  0  0  0  0  0  0  0
   -7.9095    1.3727    1.3447 N   0  0  0  0  0  4  0  0  0  0  0  0
   -9.1206    1.3929    1.0839 O   0  0  0  0  0  0  0  0  0  0  0  0
   -7.4027    1.8348    2.3748 O   0  0  0  0  0  1  0  0  0  0  0  0
   -7.5485    0.2176   -0.8217 C   0  0  0  0  0  0  0  0  0  0  0  0
   -6.6948   -0.3685   -1.7564 C   0  0  0  0  0  0  0  0  0  0  0  0
   -5.3214   -0.4165   -1.5134 C   0  0  0  0  0  0  0  0  0  0  0  0
   -4.5436   -0.9910   -2.4436 F   0  0  0  0  0  0  0  0  0  0  0  0
   -2.9344   -0.8731   -1.8204 H   0  0  0  0  0  0  0  0  0  0  0  0
   -1.0787   -1.6496   -2.8713 H   0  0  0  0  0  0  0  0  0  0  0  0
    1.3563   -1.9800   -2.9325 H   0  0  0  0  0  0  0  0  0  0  0  0
   -0.6908    0.2939    0.9728 H   0  0  0  0  0  0  0  0  0  0  0  0
    3.6452    0.4285    2.9768 H   0  0  0  0  0  0  0  0  0  0  0  0
    4.8487   -0.7024    2.3950 H   0  0  0  0  0  0  0  0  0  0  0  0
    4.5355    2.0937    1.1644 H   0  0  0  0  0  0  0  0  0  0  0  0
    5.4595    1.8307    2.6410 H   0  0  0  0  0  0  0  0  0  0  0  0
    6.9917    0.2979    1.5309 H   0  0  0  0  0  0  0  0  0  0  0  0
    6.9475    1.8576    0.7261 H   0  0  0  0  0  0  0  0  0  0  0  0
    5.4990    0.9529   -1.0613 H   0  0  0  0  0  0  0  0  0  0  0  0
    7.0247    0.0858   -0.9131 H   0  0  0  0  0  0  0  0  0  0  0  0
    5.5110   -1.6563   -1.1737 H   0  0  0  0  0  0  0  0  0  0  0  0
    5.7165   -1.6477    0.5707 H   0  0  0  0  0  0  0  0  0  0  0  0
   -5.2177    1.1240    1.5186 H   0  0  0  0  0  0  0  0  0  0  0  0
   -8.6181    0.2482   -1.0240 H   0  0  0  0  0  0  0  0  0  0  0  0
   -7.0915   -0.7902   -2.6766 H   0  0  0  0  0  0  0  0  0  0  0  0
  1  2  2  0
  2  3  1  0
  3  4  1  0
  4  5  2  0
  5  6  1  0
  6  7  2  0
  7  8  1  0
  8  9  2  0
  9 10  1  0
 10 11  1  0
 11 12  2  0
 11 13  1  0
 13 14  2  0
 10 15  1  0
 15 16  1  0
 16 17  1  0
 17 18  1  0
 18 19  1  0
  2 20  1  0
 20 21  2  0
 21 22  1  0
 22 23  1  0
 23 24  2  0
 23 25  1  0
 22 26  2  0
 26 27  1  0
 27 28  2  0
 28 29  1  0
 14  4  1  0
 28 20  1  0
 13  7  1  0
 19  9  1  0
  3 30  1  0
  5 31  1  0
  6 32  1  0
 14 33  1  0
 15 34  1  0
 15 35  1  0
 16 36  1  0
 16 37  1  0
 17 38  1  0
 17 39  1  0
 18 40  1  0
 18 41  1  0
 19 42  1  0
 19 43  1  0
 21 44  1  0
 26 45  1  0
 27 46  1  0
M  CHG  2  23   1  25  -1
M  END
$$$$
