
     RDKit          3D

 44 46  0  0  0  0  0  0  0  0999 V2000
    4.4968    0.2118   -0.8508 C   0  0  0  0  0  0  0  0  0  0  0  0
    3.0893    0.1580   -1.0936 O   0  0  0  0  0  0  0  0  0  0  0  0
    2.5393   -1.0724   -0.9328 C   0  0  0  0  0  0  0  0  0  0  0  0
    3.1694   -2.0838   -0.6462 O   0  0  0  0  0  0  0  0  0  0  0  0
    1.0405   -1.0636   -1.0856 C   0  0  0  0  0  0  0  0  0  0  0  0
    0.4237   -0.1030   -2.0812 C   0  0  0  0  0  0  0  0  0  0  0  0
    1.2196    0.3476   -3.2831 C   0  0  0  0  0  0  0  0  0  0  0  0
   -0.8108    0.3015   -2.0087 N   0  0  0  0  0  0  0  0  0  0  0  0
   -1.6128   -0.1489   -0.9858 C   0  0  0  0  0  0  0  0  0  0  0  0
   -1.1160   -0.7296    0.1123 C   0  0  0  0  0  0  0  0  0  0  0  0
   -2.0349   -1.2111    1.1593 C   0  0  0  0  0  0  0  0  0  0  0  0
   -1.6006   -1.8941    2.0849 O   0  0  0  0  0  0  0  0  0  0  0  0
   -3.3603   -0.8651    1.0120 N   0  0  0  0  0  0  0  0  0  0  0  0
   -4.2919   -1.2745    2.0457 C   0  0  0  0  0  0  0  0  0  0  0  0
   -3.8900   -0.3066   -0.1435 C   0  0  0  0  0  0  0  0  0  0  0  0
   -5.1045   -0.1483   -0.2848 O   0  0  0  0  0  0  0  0  0  0  0  0
   -2.9720    0.0452   -1.1262 N   0  0  0  0  0  0  0  0  0  0  0  0
   -3.4725    0.6664   -2.3495 C   0  0  0  0  0  0  0  0  0  0  0  0
    0.3609   -0.9489    0.2917 C   0  0  0  0  0  0  0  0  0  0  0  0
    0.9640    0.1046    1.2238 C   0  0  0  0  0  0  0  0  0  0  0  0
    1.5798   -0.3080    2.4180 C   0  0  0  0  0  0  0  0  0  0  0  0
    2.1546    0.6236    3.2858 C   0  0  0  0  0  0  0  0  0  0  0  0
    2.1161    1.9783    2.9705 C   0  0  0  0  0  0  0  0  0  0  0  0
    2.8282    3.1264    4.0352 Cl  0  0  0  0  0  0  0  0  0  0  0  0
    1.5033    2.4093    1.7974 C   0  0  0  0  0  0  0  0  0  0  0  0
    0.9276    1.4783    0.9284 C   0  0  0  0  0  0  0  0  0  0  0  0
    4.8236    1.2464   -0.9861 H   0  0  0  0  0  0  0  0  0  0  0  0
    5.0322   -0.4186   -1.5674 H   0  0  0  0  0  0  0  0  0  0  0  0
    4.7199   -0.0904    0.1773 H   0  0  0  0  0  0  0  0  0  0  0  0
    0.7925   -2.0489   -1.5129 H   0  0  0  0  0  0  0  0  0  0  0  0
    1.8168    1.2242   -3.0208 H   0  0  0  0  0  0  0  0  0  0  0  0
    1.8718   -0.4582   -3.6293 H   0  0  0  0  0  0  0  0  0  0  0  0
    0.5445    0.6214   -4.0996 H   0  0  0  0  0  0  0  0  0  0  0  0
   -4.7330   -2.2327    1.7530 H   0  0  0  0  0  0  0  0  0  0  0  0
   -5.0926   -0.5361    2.1534 H   0  0  0  0  0  0  0  0  0  0  0  0
   -3.7912   -1.3922    3.0110 H   0  0  0  0  0  0  0  0  0  0  0  0
   -3.1715    0.0634   -3.2126 H   0  0  0  0  0  0  0  0  0  0  0  0
   -4.5631    0.7448   -2.3574 H   0  0  0  0  0  0  0  0  0  0  0  0
   -3.0606    1.6773   -2.4359 H   0  0  0  0  0  0  0  0  0  0  0  0
    0.5062   -1.9306    0.7662 H   0  0  0  0  0  0  0  0  0  0  0  0
    1.6127   -1.3632    2.6876 H   0  0  0  0  0  0  0  0  0  0  0  0
    2.6252    0.2840    4.2047 H   0  0  0  0  0  0  0  0  0  0  0  0
    1.4672    3.4678    1.5530 H   0  0  0  0  0  0  0  0  0  0  0  0
    0.4524    1.8484    0.0225 H   0  0  0  0  0  0  0  0  0  0  0  0
  1  2  1  0
  2  3  1  0
  3  4  2  0
  3  5  1  0
  5  6  1  0
  6  7  1  0
  6  8  2  0
  8  9  1  0
  9 10  2  0
 10 11  1  0
 11 12  2  0
 11 13  1  0
 13 14  1  0
 13 15  1  0
 15 16  2  0
 15 17  1  0
 17 18  1  0
 10 19  1  0
 19 20  1  0
 20 21  2  0
 21 22  1  0
 22 23  2  0
 23 24  1  0
 23 25  1  0
 25 26  2  0
 19  5  1  0
 26 20  1  0
 17  9  1  0
  1 27  1  0
  1 28  1  0
  1 29  1  0
  5 30  1  0
  7 31  1  0
  7 32  1  0
  7 33  1  0
 14 34  1  0
 14 35  1  0
 14 36  1  0
 18 37  1  0
 18 38  1  0
 18 39  1  0
 19 40  1  0
 21 41  1  0
 22 42  1  0
 25 43  1  0
 26 44  1  0
M  END
$$$$
