
     RDKit          3D

 42 44  0  0  0  0  0  0  0  0999 V2000
   -2.0264    0.4018   -3.9371 C   0  0  0  0  0  0  0  0  0  0  0  0
   -2.7163    0.3270   -2.6333 C   0  0  0  0  0  0  0  0  0  0  0  0
   -4.0728    0.3594   -2.6947 O   0  0  0  0  0  0  0  0  0  0  0  0
   -4.5981    0.3358   -1.4233 N   0  0  0  0  0  0  0  0  0  0  0  0
   -3.5516    0.2995   -0.5862 C   0  0  0  0  0  0  0  0  0  0  0  0
   -3.7520    0.2523    0.8534 C   0  0  0  0  0  0  0  0  0  0  0  0
   -3.4086   -0.9140    1.5462 C   0  0  0  0  0  0  0  0  0  0  0  0
   -2.8899   -1.9633    0.8879 F   0  0  0  0  0  0  0  0  0  0  0  0
   -3.5864   -1.0225    2.9240 C   0  0  0  0  0  0  0  0  0  0  0  0
   -4.1141    0.0500    3.6373 C   0  0  0  0  0  0  0  0  0  0  0  0
   -4.4540    1.2261    2.9666 C   0  0  0  0  0  0  0  0  0  0  0  0
   -4.2726    1.3310    1.5807 C   0  0  0  0  0  0  0  0  0  0  0  0
   -4.6770    2.8413    0.8397 Cl  0  0  0  0  0  0  0  0  0  0  0  0
   -2.3215    0.2583   -1.3112 C   0  0  0  0  0  0  0  0  0  0  0  0
   -0.9819    0.2119   -0.7631 C   0  0  0  0  0  0  0  0  0  0  0  0
   -0.7100    0.7003    0.3316 O   0  0  0  0  0  0  0  0  0  0  0  0
   -0.0450   -0.4546   -1.5405 N   0  0  0  0  0  0  0  0  0  0  0  0
    1.3059   -0.6239   -1.3235 C   0  0  0  0  0  0  0  0  0  0  0  0
    2.1454   -1.5014   -2.4649 S   0  0  0  0  0  0  0  0  0  0  0  0
    1.8045   -0.0396   -0.1938 N   0  0  0  0  0  0  0  0  0  0  0  0
    3.1529   -0.0089    0.3734 C   0  0  0  0  0  0  0  0  0  0  0  0
    4.2087    0.6858   -0.4936 C   0  0  0  0  0  0  0  0  0  0  0  0
    5.5137    0.5753    0.2859 C   0  0  0  0  0  0  0  0  0  0  0  0
    5.4477   -1.0119    1.1075 S   0  0  0  0  0  6  0  0  0  0  0  0
    6.2673   -1.9540    0.3756 O   0  0  0  0  0  0  0  0  0  0  0  0
    5.6078   -0.7928    2.5305 O   0  0  0  0  0  0  0  0  0  0  0  0
    3.7281   -1.3621    0.7802 C   0  0  0  0  0  0  0  0  0  0  0  0
   -1.1139    1.0011   -3.8626 H   0  0  0  0  0  0  0  0  0  0  0  0
   -1.7578   -0.6004   -4.2841 H   0  0  0  0  0  0  0  0  0  0  0  0
   -2.6657    0.8644   -4.6959 H   0  0  0  0  0  0  0  0  0  0  0  0
   -3.3111   -1.9434    3.4297 H   0  0  0  0  0  0  0  0  0  0  0  0
   -4.2562   -0.0252    4.7129 H   0  0  0  0  0  0  0  0  0  0  0  0
   -4.8571    2.0648    3.5307 H   0  0  0  0  0  0  0  0  0  0  0  0
   -0.3737   -0.9306   -2.3685 H   0  0  0  0  0  0  0  0  0  0  0  0
    1.0946    0.4155    0.3847 H   0  0  0  0  0  0  0  0  0  0  0  0
    3.0434    0.5915    1.2882 H   0  0  0  0  0  0  0  0  0  0  0  0
    3.9522    1.7311   -0.6948 H   0  0  0  0  0  0  0  0  0  0  0  0
    4.3276    0.1889   -1.4605 H   0  0  0  0  0  0  0  0  0  0  0  0
    6.3923    0.6217   -0.3607 H   0  0  0  0  0  0  0  0  0  0  0  0
    5.5761    1.3483    1.0574 H   0  0  0  0  0  0  0  0  0  0  0  0
    3.2564   -1.7620    1.6810 H   0  0  0  0  0  0  0  0  0  0  0  0
    3.6890   -2.1101   -0.0129 H   0  0  0  0  0  0  0  0  0  0  0  0
  1  2  1  0
  2  3  1  0
  3  4  1  0
  4  5  2  0
  5  6  1  0
  6  7  2  0
  7  8  1  0
  7  9  1  0
  9 10  2  0
 10 11  1  0
 11 12  2  0
 12 13  1  0
  5 14  1  0
 14 15  1  0
 15 16  2  0
 15 17  1  0
 17 18  1  0
 18 19  2  0
 18 20  1  0
 20 21  1  0
 21 22  1  0
 22 23  1  0
 23 24  1  0
 24 25  2  0
 24 26  2  0
 24 27  1  0
 14  2  2  0
 27 21  1  0
 12  6  1  0
  1 28  1  0
  1 29  1  0
  1 30  1  0
  9 31  1  0
 10 32  1  0
 11 33  1  0
 17 34  1  0
 20 35  1  0
 21 36  1  0
 22 37  1  0
 22 38  1  0
 23 39  1  0
 23 40  1  0
 27 41  1  0
 27 42  1  0
M  END
$$$$
