
     RDKit          3D

 46 48  0  0  0  0  0  0  0  0999 V2000
   -1.6112   -3.5367    1.7718 C   0  0  0  0  0  0  0  0  0  0  0  0
   -1.3095   -2.3847    0.9940 O   0  0  0  0  0  0  0  0  0  0  0  0
   -2.3743   -1.6644    0.5027 C   0  0  0  0  0  0  0  0  0  0  0  0
   -3.7159   -1.9161    0.7946 C   0  0  0  0  0  0  0  0  0  0  0  0
   -4.7152   -1.1135    0.2385 C   0  0  0  0  0  0  0  0  0  0  0  0
   -4.3863   -0.0603   -0.6208 C   0  0  0  0  0  0  0  0  0  0  0  0
   -5.4593    0.8202   -1.1918 C   0  0  0  0  0  0  0  0  0  0  0  0
   -3.0372    0.2024   -0.9001 C   0  0  0  0  0  0  0  0  0  0  0  0
   -2.0302   -0.5920   -0.3478 C   0  0  0  0  0  0  0  0  0  0  0  0
   -0.6498   -0.4006   -0.5895 N   0  0  0  0  0  0  0  0  0  0  0  0
   -0.0384    0.5894   -1.3243 C   0  0  0  0  0  0  0  0  0  0  0  0
   -0.6070    1.5167   -1.8960 O   0  0  0  0  0  0  0  0  0  0  0  0
    1.4842    0.4776   -1.4280 C   0  0  0  0  0  0  0  0  0  0  0  0
    1.8843   -0.8212   -2.1068 C   0  0  0  0  0  0  0  0  0  0  0  0
    2.2534   -1.6959   -0.9477 C   0  0  0  0  0  0  0  0  0  0  0  0
    2.4546   -2.8967   -1.0024 O   0  0  0  0  0  0  0  0  0  0  0  0
    2.3133   -0.9619    0.2024 O   0  0  0  0  0  0  0  0  0  0  0  0
    2.2509    0.4464   -0.1052 C   0  0  0  0  0  0  0  0  0  0  0  0
    1.5530    1.1859    1.0565 C   0  0  0  0  0  0  0  0  0  0  0  0
    2.5411    1.6109    2.1403 C   0  0  0  0  0  0  0  0  0  0  0  0
    3.5742    2.6002    1.6006 C   0  0  0  0  0  0  0  0  0  0  0  0
    3.8950    2.3864    0.1214 C   0  0  0  0  0  0  0  0  0  0  0  0
    3.7187    0.9275   -0.2799 C   0  0  0  0  0  0  0  0  0  0  0  0
   -2.1162   -3.2603    2.7030 H   0  0  0  0  0  0  0  0  0  0  0  0
   -0.6645   -4.0173    2.0369 H   0  0  0  0  0  0  0  0  0  0  0  0
   -2.2022   -4.2585    1.1983 H   0  0  0  0  0  0  0  0  0  0  0  0
   -4.0197   -2.7224    1.4531 H   0  0  0  0  0  0  0  0  0  0  0  0
   -5.7563   -1.3172    0.4808 H   0  0  0  0  0  0  0  0  0  0  0  0
   -5.6213    1.6832   -0.5388 H   0  0  0  0  0  0  0  0  0  0  0  0
   -6.4022    0.2728   -1.2941 H   0  0  0  0  0  0  0  0  0  0  0  0
   -5.1813    1.1761   -2.1894 H   0  0  0  0  0  0  0  0  0  0  0  0
   -2.7987    1.0337   -1.5561 H   0  0  0  0  0  0  0  0  0  0  0  0
   -0.0790   -1.0732   -0.0821 H   0  0  0  0  0  0  0  0  0  0  0  0
    1.7987    1.3349   -2.0379 H   0  0  0  0  0  0  0  0  0  0  0  0
    1.0736   -1.2742   -2.6837 H   0  0  0  0  0  0  0  0  0  0  0  0
    2.7681   -0.6887   -2.7378 H   0  0  0  0  0  0  0  0  0  0  0  0
    0.7953    0.5452    1.5218 H   0  0  0  0  0  0  0  0  0  0  0  0
    1.0479    2.0876    0.6878 H   0  0  0  0  0  0  0  0  0  0  0  0
    3.0520    0.7236    2.5348 H   0  0  0  0  0  0  0  0  0  0  0  0
    2.0072    2.0636    2.9836 H   0  0  0  0  0  0  0  0  0  0  0  0
    4.4900    2.5133    2.1977 H   0  0  0  0  0  0  0  0  0  0  0  0
    3.2155    3.6274    1.7383 H   0  0  0  0  0  0  0  0  0  0  0  0
    4.9200    2.7162   -0.0826 H   0  0  0  0  0  0  0  0  0  0  0  0
    3.2371    3.0144   -0.4923 H   0  0  0  0  0  0  0  0  0  0  0  0
    4.3922    0.3055    0.3256 H   0  0  0  0  0  0  0  0  0  0  0  0
    4.0554    0.7950   -1.3150 H   0  0  0  0  0  0  0  0  0  0  0  0
  1  2  1  0
  2  3  1  0
  3  4  2  0
  4  5  1  0
  5  6  2  0
  6  7  1  0
  6  8  1  0
  8  9  2  0
  9 10  1  0
 10 11  1  0
 11 12  2  0
 11 13  1  0
 13 14  1  0
 14 15  1  0
 15 16  2  0
 15 17  1  0
 17 18  1  0
 18 19  1  0
 19 20  1  0
 20 21  1  0
 21 22  1  0
 22 23  1  0
  9  3  1  0
 18 13  1  0
 23 18  1  0
  1 24  1  0
  1 25  1  0
  1 26  1  0
  4 27  1  0
  5 28  1  0
  7 29  1  0
  7 30  1  0
  7 31  1  0
  8 32  1  0
 10 33  1  0
 13 34  1  0
 14 35  1  0
 14 36  1  0
 19 37  1  0
 19 38  1  0
 20 39  1  0
 20 40  1  0
 21 41  1  0
 21 42  1  0
 22 43  1  0
 22 44  1  0
 23 45  1  0
 23 46  1  0
M  END
$$$$
