
     RDKit          3D

 31 31  0  0  0  0  0  0  0  0999 V2000
    3.3208   -2.3222   -0.0118 N   0  0  0  0  0  0  0  0  0  0  0  0
    3.8606   -1.2484   -0.6483 C   0  0  0  0  0  0  0  0  0  0  0  0
    5.1782   -1.4050   -1.6388 S   0  0  0  0  0  0  0  0  0  0  0  0
    3.2372   -0.0561   -0.4345 N   0  0  0  0  0  0  0  0  0  0  0  0
    1.9259   -0.0166    0.0699 N   0  0  0  0  0  0  0  0  0  0  0  0
    1.2690    1.1986   -0.0092 C   0  0  0  0  0  0  0  0  0  0  0  0
    1.8366    2.2391   -0.3379 O   0  0  0  0  0  0  0  0  0  0  0  0
   -0.2247    1.1559    0.2911 C   0  0  0  0  0  0  0  0  0  0  0  0
   -0.4956    0.5628    1.6830 C   0  0  0  0  0  0  0  0  0  0  0  0
   -1.9823    0.3051    1.8852 C   0  0  0  0  0  0  0  0  0  0  0  0
   -2.5540   -0.6670    0.8540 C   0  0  0  0  0  0  0  0  0  0  0  0
   -1.6713   -0.8580   -0.3807 C   0  0  0  0  0  0  0  0  0  0  0  0
   -0.9765    0.4259   -0.8437 C   0  0  0  0  0  0  0  0  0  0  0  0
   -1.9956    1.3461   -1.4825 C   0  0  0  0  0  0  0  0  0  0  0  0
   -2.7426    2.1213   -0.9112 O   0  0  0  0  0  0  0  0  0  0  0  0
   -2.0444    1.2066   -2.8208 O   0  0  0  0  0  0  0  0  0  0  0  0
    2.9707   -2.1358    0.9199 H   0  0  0  0  0  0  0  0  0  0  0  0
    3.8713   -3.1722   -0.0811 H   0  0  0  0  0  0  0  0  0  0  0  0
    3.5537    0.7779   -0.9341 H   0  0  0  0  0  0  0  0  0  0  0  0
    1.4005   -0.8797   -0.0420 H   0  0  0  0  0  0  0  0  0  0  0  0
   -0.5370    2.2091    0.3281 H   0  0  0  0  0  0  0  0  0  0  0  0
    0.0547   -0.3729    1.8390 H   0  0  0  0  0  0  0  0  0  0  0  0
   -0.1324    1.2570    2.4509 H   0  0  0  0  0  0  0  0  0  0  0  0
   -2.1627   -0.0815    2.8949 H   0  0  0  0  0  0  0  0  0  0  0  0
   -2.5233    1.2577    1.8226 H   0  0  0  0  0  0  0  0  0  0  0  0
   -2.7134   -1.6461    1.3224 H   0  0  0  0  0  0  0  0  0  0  0  0
   -3.5481   -0.3167    0.5503 H   0  0  0  0  0  0  0  0  0  0  0  0
   -0.9029   -1.6065   -0.1479 H   0  0  0  0  0  0  0  0  0  0  0  0
   -2.2761   -1.2852   -1.1902 H   0  0  0  0  0  0  0  0  0  0  0  0
   -0.2670    0.1593   -1.6394 H   0  0  0  0  0  0  0  0  0  0  0  0
   -2.7295    1.8475   -3.1070 H   0  0  0  0  0  0  0  0  0  0  0  0
  1  2  1  0
  2  3  2  0
  2  4  1  0
  4  5  1  0
  5  6  1  0
  6  7  2  0
  6  8  1  0
  8  9  1  0
  9 10  1  0
 10 11  1  0
 11 12  1  0
 12 13  1  0
 13 14  1  0
 14 15  2  0
 14 16  1  0
 13  8  1  0
  1 17  1  0
  1 18  1  0
  4 19  1  0
  5 20  1  0
  8 21  1  0
  9 22  1  0
  9 23  1  0
 10 24  1  0
 10 25  1  0
 11 26  1  0
 11 27  1  0
 12 28  1  0
 12 29  1  0
 13 30  1  0
 16 31  1  0
M  END
$$$$
