
     RDKit          3D

 33 35  0  0  0  0  0  0  0  0999 V2000
    4.3360   -0.2652   -1.4516 C   0  0  0  0  0  0  0  0  0  0  0  0
    4.6317   -0.0817    0.0021 C   0  0  0  0  0  0  0  0  0  0  0  0
    5.9380   -0.2433    0.5734 C   0  0  0  0  0  0  0  0  0  0  0  0
    5.9537   -0.0292    1.9318 C   0  0  0  0  0  0  0  0  0  0  0  0
    4.4075    0.3655    2.5309 S   0  0  0  0  0  0  0  0  0  0  0  0
    3.6987    0.2573    0.9749 C   0  0  0  0  0  0  0  0  0  0  0  0
    2.2814    0.5080    0.7920 C   0  0  0  0  0  0  0  0  0  0  0  0
    1.4901    0.7827    1.7841 N   0  0  0  0  0  0  0  0  0  0  0  0
    0.1506    0.9697    1.5278 N   0  0  0  0  0  0  0  0  0  0  0  0
   -0.5920    0.2609    0.5828 C   0  0  0  0  0  0  0  0  0  0  0  0
   -0.1138   -0.5721   -0.1825 O   0  0  0  0  0  0  0  0  0  0  0  0
   -2.0009    0.5737    0.5913 C   0  0  0  0  0  0  0  0  0  0  0  0
   -2.5874    1.7358    1.0603 N   0  0  0  0  0  0  0  0  0  0  0  0
   -3.9402    1.7684    0.9556 N   0  0  0  0  0  0  0  0  0  0  0  0
   -4.1977    0.6151    0.3594 C   0  0  0  0  0  0  0  0  0  0  0  0
   -3.0623   -0.1461    0.1044 C   0  0  0  0  0  0  0  0  0  0  0  0
   -3.3844   -1.4193   -0.5623 C   0  0  0  0  0  0  0  0  0  0  0  0
   -4.8795   -1.1935   -0.9798 C   0  0  0  0  0  0  0  0  0  0  0  0
   -5.4427   -0.0298   -0.0934 C   0  0  0  0  0  0  0  0  0  0  0  0
    3.5839   -1.0481   -1.5934 H   0  0  0  0  0  0  0  0  0  0  0  0
    3.9591    0.6667   -1.8851 H   0  0  0  0  0  0  0  0  0  0  0  0
    5.2340   -0.5565   -2.0061 H   0  0  0  0  0  0  0  0  0  0  0  0
    6.8255   -0.5081    0.0105 H   0  0  0  0  0  0  0  0  0  0  0  0
    6.7998   -0.0878    2.6025 H   0  0  0  0  0  0  0  0  0  0  0  0
    1.9236    0.4840   -0.2507 H   0  0  0  0  0  0  0  0  0  0  0  0
   -0.3470    1.3006    2.3477 H   0  0  0  0  0  0  0  0  0  0  0  0
   -2.1265    2.5530    1.4451 H   0  0  0  0  0  0  0  0  0  0  0  0
   -2.7575   -1.6172   -1.4357 H   0  0  0  0  0  0  0  0  0  0  0  0
   -3.3076   -2.2557    0.1399 H   0  0  0  0  0  0  0  0  0  0  0  0
   -4.9095   -0.8829   -2.0327 H   0  0  0  0  0  0  0  0  0  0  0  0
   -5.4759   -2.1069   -0.8907 H   0  0  0  0  0  0  0  0  0  0  0  0
   -6.0032   -0.4334    0.7557 H   0  0  0  0  0  0  0  0  0  0  0  0
   -6.0854    0.6355   -0.6757 H   0  0  0  0  0  0  0  0  0  0  0  0
  1  2  1  0
  2  3  1  0
  3  4  2  0
  4  5  1  0
  5  6  1  0
  6  7  1  0
  7  8  2  3
  8  9  1  0
  9 10  1  0
 10 11  2  0
 10 12  1  0
 12 13  1  0
 13 14  1  0
 14 15  2  0
 15 16  1  0
 16 17  1  0
 17 18  1  0
 18 19  1  0
  6  2  2  0
 16 12  2  0
 19 15  1  0
  1 20  1  0
  1 21  1  0
  1 22  1  0
  3 23  1  0
  4 24  1  0
  7 25  1  0
  9 26  1  0
 13 27  1  0
 17 28  1  0
 17 29  1  0
 18 30  1  0
 18 31  1  0
 19 32  1  0
 19 33  1  0
M  END
$$$$
