
     RDKit          3D

 46 49  0  0  0  0  0  0  0  0999 V2000
    6.4715   -0.0289    0.2869 N   0  0  0  0  0  0  0  0  0  0  0  0
    5.9483   -0.0826   -1.3142 S   0  0  0  0  0  6  0  0  0  0  0  0
    6.3556    1.1445   -1.9561 O   0  0  0  0  0  0  0  0  0  0  0  0
    6.3372   -1.3842   -1.8063 O   0  0  0  0  0  0  0  0  0  0  0  0
    4.1898   -0.0546   -1.1086 C   0  0  0  0  0  0  0  0  0  0  0  0
    3.5291    1.1686   -1.0108 C   0  0  0  0  0  0  0  0  0  0  0  0
    2.1390    1.1920   -0.8432 C   0  0  0  0  0  0  0  0  0  0  0  0
    1.3824    0.0097   -0.7754 C   0  0  0  0  0  0  0  0  0  0  0  0
   -0.0003    0.0148   -0.6004 N   0  0  0  0  0  0  0  0  0  0  0  0
   -0.7062   -1.1543   -0.5776 N   0  0  0  0  0  0  0  0  0  0  0  0
   -1.9670   -0.8449   -0.6182 C   0  0  0  0  0  0  0  0  0  0  0  0
   -3.0506   -1.8551   -0.5879 C   0  0  0  0  0  0  0  0  0  0  0  0
   -4.3953   -1.4907   -0.7202 C   0  0  0  0  0  0  0  0  0  0  0  0
   -5.3920   -2.4699   -0.6859 C   0  0  0  0  0  0  0  0  0  0  0  0
   -5.0509   -3.8118   -0.5212 C   0  0  0  0  0  0  0  0  0  0  0  0
   -3.7132   -4.1800   -0.3912 C   0  0  0  0  0  0  0  0  0  0  0  0
   -2.7146   -3.2050   -0.4248 C   0  0  0  0  0  0  0  0  0  0  0  0
   -2.2580    0.6261   -0.7331 C   0  0  0  0  0  0  0  0  0  0  0  0
   -0.8552    1.2020   -0.5314 C   0  0  0  0  0  0  0  0  0  0  0  0
   -0.7521    1.9384    0.7979 C   0  0  0  0  0  0  0  0  0  0  0  0
   -0.5685    1.2571    2.0135 C   0  0  0  0  0  0  0  0  0  0  0  0
   -0.4995    1.9550    3.2213 C   0  0  0  0  0  0  0  0  0  0  0  0
   -0.6203    3.3418    3.2249 C   0  0  0  0  0  0  0  0  0  0  0  0
   -0.5270    4.2883    4.8583 Br  0  0  0  0  0  0  0  0  0  0  0  0
   -0.8113    4.0368    2.0331 C   0  0  0  0  0  0  0  0  0  0  0  0
   -0.8801    3.3378    0.8252 C   0  0  0  0  0  0  0  0  0  0  0  0
    2.0863   -1.2047   -0.8913 C   0  0  0  0  0  0  0  0  0  0  0  0
    3.4741   -1.2472   -1.0619 C   0  0  0  0  0  0  0  0  0  0  0  0
    5.7169    0.1580    0.9466 H   0  0  0  0  0  0  0  0  0  0  0  0
    6.9552   -0.9026    0.5018 H   0  0  0  0  0  0  0  0  0  0  0  0
    4.0807    2.1051   -1.0640 H   0  0  0  0  0  0  0  0  0  0  0  0
    1.6611    2.1640   -0.7637 H   0  0  0  0  0  0  0  0  0  0  0  0
   -4.6941   -0.4557   -0.8544 H   0  0  0  0  0  0  0  0  0  0  0  0
   -6.4367   -2.1864   -0.7892 H   0  0  0  0  0  0  0  0  0  0  0  0
   -5.8281   -4.5719   -0.4956 H   0  0  0  0  0  0  0  0  0  0  0  0
   -3.4452   -5.2261   -0.2644 H   0  0  0  0  0  0  0  0  0  0  0  0
   -1.6738   -3.5058   -0.3231 H   0  0  0  0  0  0  0  0  0  0  0  0
   -2.6256    0.8335   -1.7438 H   0  0  0  0  0  0  0  0  0  0  0  0
   -2.9903    0.9603    0.0068 H   0  0  0  0  0  0  0  0  0  0  0  0
   -0.6245    1.8873   -1.3571 H   0  0  0  0  0  0  0  0  0  0  0  0
   -0.4683    0.1721    2.0246 H   0  0  0  0  0  0  0  0  0  0  0  0
   -0.3502    1.4067    4.1477 H   0  0  0  0  0  0  0  0  0  0  0  0
   -0.9078    5.1195    2.0334 H   0  0  0  0  0  0  0  0  0  0  0  0
   -1.0322    3.8968   -0.0961 H   0  0  0  0  0  0  0  0  0  0  0  0
    1.5391   -2.1453   -0.8533 H   0  0  0  0  0  0  0  0  0  0  0  0
    3.9726   -2.2088   -1.1575 H   0  0  0  0  0  0  0  0  0  0  0  0
  1  2  1  0
  2  3  2  0
  2  4  2  0
  2  5  1  0
  5  6  2  0
  6  7  1  0
  7  8  2  0
  8  9  1  0
  9 10  1  0
 10 11  2  0
 11 12  1  0
 12 13  2  0
 13 14  1  0
 14 15  2  0
 15 16  1  0
 16 17  2  0
 11 18  1  0
 18 19  1  0
 19 20  1  0
 20 21  2  0
 21 22  1  0
 22 23  2  0
 23 24  1  0
 23 25  1  0
 25 26  2  0
  8 27  1  0
 27 28  2  0
 28  5  1  0
 19  9  1  0
 26 20  1  0
 17 12  1  0
  1 29  1  0
  1 30  1  0
  6 31  1  0
  7 32  1  0
 13 33  1  0
 14 34  1  0
 15 35  1  0
 16 36  1  0
 17 37  1  0
 18 38  1  0
 18 39  1  0
 19 40  1  0
 21 41  1  0
 22 42  1  0
 25 43  1  0
 26 44  1  0
 27 45  1  0
 28 46  1  0
M  END
$$$$
