
     RDKit          3D

 36 37  0  0  0  0  0  0  0  0999 V2000
    1.4405    0.6996   -1.8414 C   0  0  0  0  0  0  0  0  0  0  0  0
    1.2634   -0.1430   -0.5766 C   0  0  0  0  0  0  0  0  0  0  0  0
    0.2835    0.5062    0.2967 N   0  0  0  0  0  0  0  0  0  0  0  0
   -0.9857    0.2789    0.2163 C   0  0  0  0  0  0  0  0  0  0  0  0
   -1.6554   -0.6570   -0.7797 C   0  0  0  0  0  0  0  0  0  0  0  0
   -2.9042   -0.0513   -1.4183 C   0  0  0  0  0  0  0  0  0  0  0  0
   -4.1541   -0.1625   -0.5472 C   0  0  0  0  0  0  0  0  0  0  0  0
   -4.1449    0.7411    0.6833 C   0  0  0  0  0  0  0  0  0  0  0  0
   -3.0135    0.4409    1.6568 C   0  0  0  0  0  0  0  0  0  0  0  0
   -1.7517    0.9279    1.1492 N   0  0  0  0  0  0  0  0  0  0  0  0
    2.6074   -0.2980    0.1241 C   0  0  0  0  0  0  0  0  0  0  0  0
    3.1151    0.7109    0.9574 C   0  0  0  0  0  0  0  0  0  0  0  0
    4.3586    0.5682    1.5755 C   0  0  0  0  0  0  0  0  0  0  0  0
    5.1139   -0.5833    1.3648 C   0  0  0  0  0  0  0  0  0  0  0  0
    4.6268   -1.5918    0.5357 C   0  0  0  0  0  0  0  0  0  0  0  0
    3.3827   -1.4500   -0.0829 C   0  0  0  0  0  0  0  0  0  0  0  0
    1.7930    1.7104   -1.6046 H   0  0  0  0  0  0  0  0  0  0  0  0
    2.1682    0.2432   -2.5215 H   0  0  0  0  0  0  0  0  0  0  0  0
    0.4951    0.8060   -2.3832 H   0  0  0  0  0  0  0  0  0  0  0  0
    0.9307   -1.1519   -0.8448 H   0  0  0  0  0  0  0  0  0  0  0  0
   -1.8847   -1.5998   -0.2707 H   0  0  0  0  0  0  0  0  0  0  0  0
   -0.9700   -0.8948   -1.5956 H   0  0  0  0  0  0  0  0  0  0  0  0
   -3.1040   -0.5948   -2.3505 H   0  0  0  0  0  0  0  0  0  0  0  0
   -2.7286    0.9953   -1.6948 H   0  0  0  0  0  0  0  0  0  0  0  0
   -5.0248    0.1061   -1.1584 H   0  0  0  0  0  0  0  0  0  0  0  0
   -4.3023   -1.2051   -0.2404 H   0  0  0  0  0  0  0  0  0  0  0  0
   -5.0990    0.6059    1.2076 H   0  0  0  0  0  0  0  0  0  0  0  0
   -4.1047    1.7913    0.3682 H   0  0  0  0  0  0  0  0  0  0  0  0
   -2.9565   -0.6279    1.8925 H   0  0  0  0  0  0  0  0  0  0  0  0
   -3.2221    0.9615    2.5986 H   0  0  0  0  0  0  0  0  0  0  0  0
   -1.1594    1.3757    1.8439 H   0  0  0  0  0  0  0  0  0  0  0  0
    2.5329    1.6143    1.1282 H   0  0  0  0  0  0  0  0  0  0  0  0
    4.7351    1.3571    2.2207 H   0  0  0  0  0  0  0  0  0  0  0  0
    6.0815   -0.6941    1.8462 H   0  0  0  0  0  0  0  0  0  0  0  0
    5.2161   -2.4895    0.3695 H   0  0  0  0  0  0  0  0  0  0  0  0
    3.0211   -2.2457   -0.7296 H   0  0  0  0  0  0  0  0  0  0  0  0
  1  2  1  0
  2  3  1  0
  3  4  2  3
  4  5  1  0
  5  6  1  0
  6  7  1  0
  7  8  1  0
  8  9  1  0
  9 10  1  0
  2 11  1  0
 11 12  2  0
 12 13  1  0
 13 14  2  0
 14 15  1  0
 15 16  2  0
 10  4  1  0
 16 11  1  0
  1 17  1  0
  1 18  1  0
  1 19  1  0
  2 20  1  0
  5 21  1  0
  5 22  1  0
  6 23  1  0
  6 24  1  0
  7 25  1  0
  7 26  1  0
  8 27  1  0
  8 28  1  0
  9 29  1  0
  9 30  1  0
 10 31  1  0
 12 32  1  0
 13 33  1  0
 14 34  1  0
 15 35  1  0
 16 36  1  0
M  END
$$$$
