
     RDKit          3D

 43 45  0  0  0  0  0  0  0  0999 V2000
   -1.8864   -3.7923   -0.7640 N   0  0  0  0  0  0  0  0  0  0  0  0
   -0.7838   -3.0650   -0.5066 C   0  0  0  0  0  0  0  0  0  0  0  0
    0.3061   -3.6054   -0.0495 N   0  0  0  0  0  0  0  0  0  0  0  0
    1.2384   -2.4546    0.0991 C   0  0  0  0  0  0  0  0  0  0  0  0
    0.5858   -1.2603   -0.6268 C   0  0  0  0  0  0  0  0  0  0  0  0
    0.6918    0.0511    0.1572 C   0  0  0  0  0  0  0  0  0  0  0  0
    2.0993    0.5994    0.1912 C   0  0  0  0  0  0  0  0  0  0  0  0
    2.9165    0.4005    1.3127 C   0  0  0  0  0  0  0  0  0  0  0  0
    4.2213    0.8945    1.3309 C   0  0  0  0  0  0  0  0  0  0  0  0
    4.7113    1.5889    0.2319 C   0  0  0  0  0  0  0  0  0  0  0  0
    5.9913    2.0539    0.2949 O   0  0  0  0  0  0  0  0  0  0  0  0
    3.9169    1.7997   -0.8899 C   0  0  0  0  0  0  0  0  0  0  0  0
    2.6117    1.3030   -0.9095 C   0  0  0  0  0  0  0  0  0  0  0  0
   -0.8058   -1.7233   -0.7508 N   0  0  0  0  0  0  0  0  0  0  0  0
   -1.6137   -1.1169   -1.8136 C   0  0  0  0  0  0  0  0  0  0  0  0
   -3.0001   -0.6809   -1.3193 C   0  0  0  0  0  0  0  0  0  0  0  0
   -2.9603    0.4916   -0.3677 C   0  0  0  0  0  0  0  0  0  0  0  0
   -2.8732    0.2809    1.0170 C   0  0  0  0  0  0  0  0  0  0  0  0
   -2.8042    1.3622    1.8992 C   0  0  0  0  0  0  0  0  0  0  0  0
   -2.8225    2.6648    1.4052 C   0  0  0  0  0  0  0  0  0  0  0  0
   -2.9076    2.8748    0.0343 C   0  0  0  0  0  0  0  0  0  0  0  0
   -2.9190    4.1271   -0.4422 F   0  0  0  0  0  0  0  0  0  0  0  0
   -2.9766    1.8058   -0.8536 C   0  0  0  0  0  0  0  0  0  0  0  0
   -2.7132   -3.4061   -0.3304 H   0  0  0  0  0  0  0  0  0  0  0  0
   -1.7407   -4.7429   -0.4370 H   0  0  0  0  0  0  0  0  0  0  0  0
    1.3844   -2.2681    1.1687 H   0  0  0  0  0  0  0  0  0  0  0  0
    2.2098   -2.6985   -0.3436 H   0  0  0  0  0  0  0  0  0  0  0  0
    1.0314   -1.1648   -1.6258 H   0  0  0  0  0  0  0  0  0  0  0  0
    0.0468    0.8132   -0.2945 H   0  0  0  0  0  0  0  0  0  0  0  0
    0.3140   -0.0780    1.1795 H   0  0  0  0  0  0  0  0  0  0  0  0
    2.5444   -0.1384    2.1815 H   0  0  0  0  0  0  0  0  0  0  0  0
    4.8532    0.7391    2.2009 H   0  0  0  0  0  0  0  0  0  0  0  0
    6.1881    2.5320   -0.5271 H   0  0  0  0  0  0  0  0  0  0  0  0
    4.2918    2.3429   -1.7514 H   0  0  0  0  0  0  0  0  0  0  0  0
    1.9927    1.4744   -1.7877 H   0  0  0  0  0  0  0  0  0  0  0  0
   -1.7275   -1.8283   -2.6420 H   0  0  0  0  0  0  0  0  0  0  0  0
   -1.0953   -0.2461   -2.2347 H   0  0  0  0  0  0  0  0  0  0  0  0
   -3.6102   -0.4007   -2.1878 H   0  0  0  0  0  0  0  0  0  0  0  0
   -3.5339   -1.5113   -0.8448 H   0  0  0  0  0  0  0  0  0  0  0  0
   -2.8395   -0.7321    1.4148 H   0  0  0  0  0  0  0  0  0  0  0  0
   -2.7297    1.1858    2.9693 H   0  0  0  0  0  0  0  0  0  0  0  0
   -2.7662    3.5151    2.0769 H   0  0  0  0  0  0  0  0  0  0  0  0
   -3.0377    2.0133   -1.9176 H   0  0  0  0  0  0  0  0  0  0  0  0
  1  2  1  0
  2  3  2  0
  3  4  1  0
  4  5  1  0
  5  6  1  0
  6  7  1  0
  7  8  2  0
  8  9  1  0
  9 10  2  0
 10 11  1  0
 10 12  1  0
 12 13  2  0
  5 14  1  0
 14 15  1  0
 15 16  1  0
 16 17  1  0
 17 18  2  0
 18 19  1  0
 19 20  2  0
 20 21  1  0
 21 22  1  0
 21 23  2  0
 14  2  1  0
 23 17  1  0
 13  7  1  0
  1 24  1  0
  1 25  1  0
  4 26  1  0
  4 27  1  0
  5 28  1  0
  6 29  1  0
  6 30  1  0
  8 31  1  0
  9 32  1  0
 11 33  1  0
 12 34  1  0
 13 35  1  0
 15 36  1  0
 15 37  1  0
 16 38  1  0
 16 39  1  0
 18 40  1  0
 19 41  1  0
 20 42  1  0
 23 43  1  0
M  END
$$$$
