
     RDKit          3D

 42 45  0  0  0  0  0  0  0  0999 V2000
   -1.1725    0.7940   -0.0018 O   0  0  0  0  0  0  0  0  0  0  0  0
   -1.4767    0.3459    1.0941 C   0  0  0  0  0  0  0  0  0  0  0  0
   -0.5087   -0.2342    2.0716 C   0  0  0  0  0  0  0  0  0  0  0  0
    0.8012   -0.4897    1.9484 C   0  0  0  0  0  0  0  0  0  0  0  0
    1.6052   -0.3134    0.7912 C   0  0  0  0  0  0  0  0  0  0  0  0
    1.3523   -0.5043   -0.5619 C   0  0  0  0  0  0  0  0  0  0  0  0
    2.5366   -0.2085   -1.2793 C   0  0  0  0  0  0  0  0  0  0  0  0
    3.4761    0.1410   -0.3382 C   0  0  0  0  0  0  0  0  0  0  0  0
    4.8834    0.5120   -0.4011 C   0  0  0  0  0  0  0  0  0  0  0  0
    5.7417   -0.2648   -1.2008 C   0  0  0  0  0  0  0  0  0  0  0  0
    7.1033    0.0329   -1.2996 C   0  0  0  0  0  0  0  0  0  0  0  0
    7.6300    1.1165   -0.6040 C   0  0  0  0  0  0  0  0  0  0  0  0
    6.7941    1.9046    0.1861 C   0  0  0  0  0  0  0  0  0  0  0  0
    5.4278    1.6097    0.2883 C   0  0  0  0  0  0  0  0  0  0  0  0
    4.4687    2.6845    1.2499 Cl  0  0  0  0  0  0  0  0  0  0  0  0
    2.9330    0.0424    0.9046 O   0  0  0  0  0  0  0  0  0  0  0  0
   -1.3342   -0.5535    3.5635 S   0  0  0  0  0  0  0  0  0  0  0  0
   -2.8965   -0.0716    2.9288 C   0  0  0  0  0  0  0  0  0  0  0  0
   -4.2882   -0.1505    3.8472 S   0  0  0  0  0  0  0  0  0  0  0  0
   -2.7581    0.3581    1.6289 N   0  0  0  0  0  0  0  0  0  0  0  0
   -3.8716    0.7793    0.7711 C   0  0  0  0  0  0  0  0  0  0  0  0
   -4.5879   -0.4186    0.1316 C   0  0  0  0  0  0  0  0  0  0  0  0
   -5.7190   -0.0026   -0.7963 C   0  0  0  0  0  0  0  0  0  0  0  0
   -5.7896   -1.1773   -1.7392 C   0  0  0  0  0  0  0  0  0  0  0  0
   -4.3275   -1.5298   -1.9064 C   0  0  0  0  0  0  0  0  0  0  0  0
   -3.6780   -1.1968   -0.6711 O   0  0  0  0  0  0  0  0  0  0  0  0
    1.3481   -0.8510    2.8169 H   0  0  0  0  0  0  0  0  0  0  0  0
    0.4117   -0.8235   -0.9906 H   0  0  0  0  0  0  0  0  0  0  0  0
    2.6810   -0.2445   -2.3494 H   0  0  0  0  0  0  0  0  0  0  0  0
    5.3535   -1.1239   -1.7453 H   0  0  0  0  0  0  0  0  0  0  0  0
    7.7508   -0.5848   -1.9175 H   0  0  0  0  0  0  0  0  0  0  0  0
    8.6890    1.3511   -0.6782 H   0  0  0  0  0  0  0  0  0  0  0  0
    7.2109    2.7560    0.7189 H   0  0  0  0  0  0  0  0  0  0  0  0
   -4.5807    1.3702    1.3604 H   0  0  0  0  0  0  0  0  0  0  0  0
   -3.4794    1.4334   -0.0163 H   0  0  0  0  0  0  0  0  0  0  0  0
   -4.9729   -1.0955    0.9027 H   0  0  0  0  0  0  0  0  0  0  0  0
   -5.4562    0.9026   -1.3570 H   0  0  0  0  0  0  0  0  0  0  0  0
   -6.6560    0.1847   -0.2645 H   0  0  0  0  0  0  0  0  0  0  0  0
   -6.3228   -2.0067   -1.2598 H   0  0  0  0  0  0  0  0  0  0  0  0
   -6.2858   -0.9522   -2.6868 H   0  0  0  0  0  0  0  0  0  0  0  0
   -4.1728   -2.5888   -2.1308 H   0  0  0  0  0  0  0  0  0  0  0  0
   -3.8633   -0.9325   -2.6982 H   0  0  0  0  0  0  0  0  0  0  0  0
  1  2  2  0
  2  3  1  0
  3  4  2  3
  4  5  1  0
  5  6  2  0
  6  7  1  0
  7  8  2  0
  8  9  1  0
  9 10  2  0
 10 11  1  0
 11 12  2  0
 12 13  1  0
 13 14  2  0
 14 15  1  0
  8 16  1  0
  3 17  1  0
 17 18  1  0
 18 19  2  0
 18 20  1  0
 20 21  1  0
 21 22  1  0
 22 23  1  0
 23 24  1  0
 24 25  1  0
 25 26  1  0
 20  2  1  0
 26 22  1  0
 16  5  1  0
 14  9  1  0
  4 27  1  0
  6 28  1  0
  7 29  1  0
 10 30  1  0
 11 31  1  0
 12 32  1  0
 13 33  1  0
 21 34  1  0
 21 35  1  0
 22 36  1  0
 23 37  1  0
 23 38  1  0
 24 39  1  0
 24 40  1  0
 25 41  1  0
 25 42  1  0
M  END
$$$$
