
     RDKit          3D

 44 46  0  0  0  0  0  0  0  0999 V2000
   -5.6607   -3.1653    1.5185 C   0  0  0  0  0  0  0  0  0  0  0  0
   -5.0594   -1.8876    1.0120 C   0  0  0  0  0  0  0  0  0  0  0  0
   -5.8370   -0.7329    0.9010 C   0  0  0  0  0  0  0  0  0  0  0  0
   -5.2789    0.4469    0.4080 C   0  0  0  0  0  0  0  0  0  0  0  0
   -3.9354    0.4891    0.0096 C   0  0  0  0  0  0  0  0  0  0  0  0
   -3.3631    1.7663   -0.5400 C   0  0  0  0  0  0  0  0  0  0  0  0
   -3.1508   -0.6749    0.1003 C   0  0  0  0  0  0  0  0  0  0  0  0
   -1.8508   -0.5451   -0.3158 O   0  0  0  0  0  0  0  0  0  0  0  0
   -1.0457   -1.7231   -0.3315 C   0  0  0  0  0  0  0  0  0  0  0  0
    0.2970   -1.3314   -0.8180 C   0  0  0  0  0  0  0  0  0  0  0  0
    0.8939   -0.1541   -1.1980 C   0  0  0  0  0  0  0  0  0  0  0  0
    2.2296   -0.5095   -1.5269 C   0  0  0  0  0  0  0  0  0  0  0  0
    3.3110    0.3493   -2.0285 C   0  0  0  0  0  0  0  0  0  0  0  0
    4.0116   -0.0098   -2.9776 O   0  0  0  0  0  0  0  0  0  0  0  0
    3.4774    1.6279   -1.4542 N   0  0  0  0  0  0  0  0  0  0  0  0
    4.4875    2.4741   -2.0699 C   0  0  0  0  0  0  0  0  0  0  0  0
    3.1858    1.8909   -0.0397 C   0  0  0  0  0  0  0  0  0  0  0  0
    4.2902    1.3847    0.8469 C   0  0  0  0  0  0  0  0  0  0  0  0
    4.5028    0.1120    1.1116 N   0  0  0  0  0  0  0  0  0  0  0  0
    5.5932   -0.0178    1.9488 C   0  0  0  0  0  0  0  0  0  0  0  0
    6.1916    1.1623    2.3326 C   0  0  0  0  0  0  0  0  0  0  0  0
    5.3688    2.4855    1.6181 S   0  0  0  0  0  0  0  0  0  0  0  0
    2.3975   -1.8383   -1.4032 N   0  0  0  0  0  0  0  0  0  0  0  0
    1.1993   -2.3406   -0.9392 O   0  0  0  0  0  0  0  0  0  0  0  0
   -3.7194   -1.8541    0.5970 C   0  0  0  0  0  0  0  0  0  0  0  0
   -5.9769   -3.7906    0.6779 H   0  0  0  0  0  0  0  0  0  0  0  0
   -4.9346   -3.7211    2.1221 H   0  0  0  0  0  0  0  0  0  0  0  0
   -6.5281   -2.9676    2.1572 H   0  0  0  0  0  0  0  0  0  0  0  0
   -6.8827   -0.7425    1.1985 H   0  0  0  0  0  0  0  0  0  0  0  0
   -5.9020    1.3340    0.3330 H   0  0  0  0  0  0  0  0  0  0  0  0
   -2.4587    2.0516    0.0084 H   0  0  0  0  0  0  0  0  0  0  0  0
   -3.1218    1.6441   -1.5999 H   0  0  0  0  0  0  0  0  0  0  0  0
   -4.0723    2.5956   -0.4511 H   0  0  0  0  0  0  0  0  0  0  0  0
   -1.4758   -2.4694   -1.0102 H   0  0  0  0  0  0  0  0  0  0  0  0
   -0.9489   -2.1322    0.6803 H   0  0  0  0  0  0  0  0  0  0  0  0
    0.4317    0.8205   -1.2374 H   0  0  0  0  0  0  0  0  0  0  0  0
    5.4799    2.1668   -1.7265 H   0  0  0  0  0  0  0  0  0  0  0  0
    4.4495    2.3848   -3.1602 H   0  0  0  0  0  0  0  0  0  0  0  0
    4.3040    3.5191   -1.8024 H   0  0  0  0  0  0  0  0  0  0  0  0
    3.0262    2.9680    0.0801 H   0  0  0  0  0  0  0  0  0  0  0  0
    2.2585    1.4065    0.2687 H   0  0  0  0  0  0  0  0  0  0  0  0
    5.9113   -1.0084    2.2535 H   0  0  0  0  0  0  0  0  0  0  0  0
    7.0465    1.3043    2.9777 H   0  0  0  0  0  0  0  0  0  0  0  0
   -3.1418   -2.7680    0.6806 H   0  0  0  0  0  0  0  0  0  0  0  0
  1  2  1  0
  2  3  2  0
  3  4  1  0
  4  5  2  0
  5  6  1  0
  5  7  1  0
  7  8  1  0
  8  9  1  0
  9 10  1  0
 10 11  2  0
 11 12  1  0
 12 13  1  0
 13 14  2  0
 13 15  1  0
 15 16  1  0
 15 17  1  0
 17 18  1  0
 18 19  2  0
 19 20  1  0
 20 21  2  0
 21 22  1  0
 12 23  2  0
 23 24  1  0
  7 25  2  0
 25  2  1  0
 24 10  1  0
 22 18  1  0
  1 26  1  0
  1 27  1  0
  1 28  1  0
  3 29  1  0
  4 30  1  0
  6 31  1  0
  6 32  1  0
  6 33  1  0
  9 34  1  0
  9 35  1  0
 11 36  1  0
 16 37  1  0
 16 38  1  0
 16 39  1  0
 17 40  1  0
 17 41  1  0
 20 42  1  0
 21 43  1  0
 25 44  1  0
M  END
$$$$
