
     RDKit          3D

 67 72  0  0  0  0  0  0  0  0999 V2000
    7.3112   -0.2681   -0.6741 C   0  0  0  0  0  0  0  0  0  0  0  0
    6.3973    0.7119    0.0779 C   0  0  0  0  0  0  0  0  0  0  0  0
    6.6137    2.1176   -0.4933 C   0  0  0  0  0  0  0  0  0  0  0  0
    6.7299    0.6412    1.5723 C   0  0  0  0  0  0  0  0  0  0  0  0
    5.0534    0.2349   -0.1870 O   0  0  0  0  0  0  0  0  0  0  0  0
    3.9694    0.8705    0.3265 C   0  0  0  0  0  0  0  0  0  0  0  0
    4.0208    1.8667    1.0365 O   0  0  0  0  0  0  0  0  0  0  0  0
    2.7828    0.2623   -0.0470 N   0  0  0  0  0  0  0  0  0  0  0  0
    2.7617   -1.0761   -0.6693 C   0  0  0  0  0  0  0  0  0  0  0  0
    1.4319   -1.4201   -1.3907 C   0  0  0  0  0  0  0  0  0  0  0  0
    0.3168   -1.0805   -0.5233 N   0  0  0  0  0  0  0  0  0  0  0  0
    0.3262    0.3879   -0.2191 C   0  0  2  0  0  0  0  0  0  0  0  0
    1.5500    0.6949    0.6345 C   0  0  0  0  0  0  0  0  0  0  0  0
   -1.0194    0.5425    0.3713 C   0  0  0  0  0  0  0  0  0  0  0  0
   -1.8457   -0.5280   -0.0389 C   0  0  0  0  0  0  0  0  0  0  0  0
   -3.0859   -0.3492    0.5172 C   0  0  0  0  0  0  0  0  0  0  0  0
   -4.1940   -1.0793    0.4817 O   0  0  0  0  0  0  0  0  0  0  0  0
   -3.0289    0.8436    1.2257 N   0  0  0  0  0  0  0  0  0  0  0  0
   -4.1360    1.4152    1.9826 C   0  0  0  0  0  0  0  0  0  0  0  0
   -4.9457    2.3812    1.1523 C   0  0  0  0  0  0  0  0  0  0  0  0
   -6.0032    1.9229    0.3531 C   0  0  0  0  0  0  0  0  0  0  0  0
   -6.7478    2.8161   -0.4189 C   0  0  0  0  0  0  0  0  0  0  0  0
   -6.4403    4.1752   -0.4046 C   0  0  0  0  0  0  0  0  0  0  0  0
   -5.3859    4.6421    0.3778 C   0  0  0  0  0  0  0  0  0  0  0  0
   -4.6409    3.7501    1.1507 C   0  0  0  0  0  0  0  0  0  0  0  0
   -1.7522    1.3856    1.1601 C   0  0  0  0  0  0  0  0  0  0  0  0
   -1.4499    2.5170    1.7837 O   0  0  0  0  0  0  0  0  0  0  0  0
   -1.0645   -1.4649   -0.8910 C   0  0  1  0  0  0  0  0  0  0  0  0
   -1.4031   -1.3478   -2.4038 C   0  0  0  0  0  0  0  0  0  0  0  0
   -1.2212   -0.4054   -3.1598 O   0  0  0  0  0  0  0  0  0  0  0  0
   -1.9542   -2.5763   -2.7825 N   0  0  0  0  0  0  0  0  0  0  0  0
   -1.9812   -3.4693   -1.7188 C   0  0  0  0  0  0  0  0  0  0  0  0
   -2.4409   -4.7689   -1.7387 C   0  0  0  0  0  0  0  0  0  0  0  0
   -2.3646   -5.4944   -0.5473 C   0  0  0  0  0  0  0  0  0  0  0  0
   -1.8341   -4.9127    0.6189 C   0  0  0  0  0  0  0  0  0  0  0  0
   -1.3726   -3.5936    0.6153 C   0  0  0  0  0  0  0  0  0  0  0  0
   -1.4582   -2.8744   -0.5662 C   0  0  0  0  0  0  0  0  0  0  0  0
    8.3691   -0.0147   -0.5502 H   0  0  0  0  0  0  0  0  0  0  0  0
    7.1571   -1.2943   -0.3210 H   0  0  0  0  0  0  0  0  0  0  0  0
    7.0798   -0.2726   -1.7455 H   0  0  0  0  0  0  0  0  0  0  0  0
    7.6682    2.4095   -0.4431 H   0  0  0  0  0  0  0  0  0  0  0  0
    6.0397    2.8738    0.0506 H   0  0  0  0  0  0  0  0  0  0  0  0
    6.2875    2.1674   -1.5383 H   0  0  0  0  0  0  0  0  0  0  0  0
    6.4834   -0.3458    1.9790 H   0  0  0  0  0  0  0  0  0  0  0  0
    6.1590    1.3714    2.1537 H   0  0  0  0  0  0  0  0  0  0  0  0
    7.7919    0.8375    1.7543 H   0  0  0  0  0  0  0  0  0  0  0  0
    2.9410   -1.7970    0.1387 H   0  0  0  0  0  0  0  0  0  0  0  0
    3.5881   -1.1697   -1.3820 H   0  0  0  0  0  0  0  0  0  0  0  0
    1.4313   -2.4893   -1.6295 H   0  0  0  0  0  0  0  0  0  0  0  0
    1.3826   -0.8675   -2.3365 H   0  0  0  0  0  0  0  0  0  0  0  0
    0.3682    0.9669   -1.1530 H   0  0  0  0  0  0  0  0  0  0  0  0
    1.5103    0.1737    1.5999 H   0  0  0  0  0  0  0  0  0  0  0  0
    1.6001    1.7680    0.8514 H   0  0  0  0  0  0  0  0  0  0  0  0
   -3.9908   -1.8974   -0.0064 H   0  0  0  0  0  0  0  0  0  0  0  0
   -3.7255    1.9083    2.8715 H   0  0  0  0  0  0  0  0  0  0  0  0
   -4.7639    0.5953    2.3503 H   0  0  0  0  0  0  0  0  0  0  0  0
   -6.2448    0.8622    0.3234 H   0  0  0  0  0  0  0  0  0  0  0  0
   -7.5635    2.4494   -1.0359 H   0  0  0  0  0  0  0  0  0  0  0  0
   -7.0173    4.8697   -1.0091 H   0  0  0  0  0  0  0  0  0  0  0  0
   -5.1389    5.7002    0.3821 H   0  0  0  0  0  0  0  0  0  0  0  0
   -3.8122    4.1259    1.7478 H   0  0  0  0  0  0  0  0  0  0  0  0
   -0.5341    2.7502    1.5527 H   0  0  0  0  0  0  0  0  0  0  0  0
   -2.2574   -2.7677   -3.7257 H   0  0  0  0  0  0  0  0  0  0  0  0
   -2.8444   -5.2202   -2.6379 H   0  0  0  0  0  0  0  0  0  0  0  0
   -2.7152   -6.5241   -0.5187 H   0  0  0  0  0  0  0  0  0  0  0  0
   -1.7813   -5.4979    1.5350 H   0  0  0  0  0  0  0  0  0  0  0  0
   -0.9625   -3.1419    1.5141 H   0  0  0  0  0  0  0  0  0  0  0  0
  1  2  1  0
  2  3  1  0
  2  4  1  0
  2  5  1  0
  5  6  1  0
  6  7  2  0
  6  8  1  0
  8  9  1  0
  9 10  1  0
 10 11  1  0
 11 12  1  0
 12 13  1  0
 12 14  1  0
 14 15  1  0
 15 16  2  0
 16 17  1  0
 16 18  1  0
 18 19  1  0
 19 20  1  0
 20 21  2  0
 21 22  1  0
 22 23  2  0
 23 24  1  0
 24 25  2  0
 18 26  1  0
 26 27  1  0
 15 28  1  0
 28 29  1  0
 29 30  2  0
 29 31  1  0
 31 32  1  0
 32 33  2  0
 33 34  1  0
 34 35  2  0
 35 36  1  0
 36 37  2  0
 13  8  1  0
 26 14  2  0
 37 28  1  0
 28 11  1  6
 37 32  1  0
 25 20  1  0
  1 38  1  0
  1 39  1  0
  1 40  1  0
  3 41  1  0
  3 42  1  0
  3 43  1  0
  4 44  1  0
  4 45  1  0
  4 46  1  0
  9 47  1  0
  9 48  1  0
 10 49  1  0
 10 50  1  0
 12 51  1  6
 13 52  1  0
 13 53  1  0
 17 54  1  0
 19 55  1  0
 19 56  1  0
 21 57  1  0
 22 58  1  0
 23 59  1  0
 24 60  1  0
 25 61  1  0
 27 62  1  0
 31 63  1  0
 33 64  1  0
 34 65  1  0
 35 66  1  0
 36 67  1  0
M  END
$$$$
