
     RDKit          3D

 49 52  0  0  0  0  0  0  0  0999 V2000
    6.3705    0.4598   -0.8058 C   0  0  0  0  0  0  0  0  0  0  0  0
    5.6470   -0.6328   -0.0727 C   0  0  0  0  0  0  0  0  0  0  0  0
    6.3695   -1.6290    0.6015 C   0  0  0  0  0  0  0  0  0  0  0  0
    5.6988   -2.6483    1.2795 C   0  0  0  0  0  0  0  0  0  0  0  0
    6.6001   -3.8636    2.0996 Cl  0  0  0  0  0  0  0  0  0  0  0  0
    4.3070   -2.6947    1.2914 C   0  0  0  0  0  0  0  0  0  0  0  0
    3.5774   -1.7096    0.6250 C   0  0  0  0  0  0  0  0  0  0  0  0
    4.2434   -0.6719   -0.0378 C   0  0  0  0  0  0  0  0  0  0  0  0
    3.5536    0.2868   -0.7433 O   0  0  0  0  0  0  0  0  0  0  0  0
    2.5632    0.9834   -0.1789 C   0  0  0  0  0  0  0  0  0  0  0  0
    2.2697    0.9555    1.1025 N   0  0  0  0  0  0  0  0  0  0  0  0
    1.2061    1.7979    1.3535 C   0  0  0  0  0  0  0  0  0  0  0  0
    0.6799    2.4537    0.2570 C   0  0  0  0  0  0  0  0  0  0  0  0
   -0.4454    3.4425    0.1921 C   0  0  0  0  0  0  0  0  0  0  0  0
   -1.7900    2.8835    0.0362 N   0  0  0  0  0  0  0  0  0  0  0  0
   -2.2900    2.1450    1.2063 C   0  0  0  0  0  0  0  0  0  0  0  0
   -3.5451    1.2890    0.9101 C   0  0  0  0  0  0  0  0  0  0  0  0
   -3.2633    0.2973   -0.1406 N   0  0  0  0  0  0  0  0  0  0  0  0
   -3.9445   -0.9067   -0.2067 C   0  0  0  0  0  0  0  0  0  0  0  0
   -3.4286   -2.0143   -0.9000 C   0  0  0  0  0  0  0  0  0  0  0  0
   -4.1128   -3.2347   -0.9683 C   0  0  0  0  0  0  0  0  0  0  0  0
   -5.3438   -3.3795   -0.3415 C   0  0  0  0  0  0  0  0  0  0  0  0
   -5.8848   -2.3040    0.3512 C   0  0  0  0  0  0  0  0  0  0  0  0
   -5.1914   -1.0886    0.4148 C   0  0  0  0  0  0  0  0  0  0  0  0
   -2.2068    0.6410   -1.1069 C   0  0  0  0  0  0  0  0  0  0  0  0
   -2.0380    2.1745   -1.2293 C   0  0  0  0  0  0  0  0  0  0  0  0
    1.6007    2.0343   -1.1323 S   0  0  0  0  0  0  0  0  0  0  0  0
    6.0960    0.4518   -1.8655 H   0  0  0  0  0  0  0  0  0  0  0  0
    7.4566    0.3346   -0.7435 H   0  0  0  0  0  0  0  0  0  0  0  0
    6.1222    1.4345   -0.3736 H   0  0  0  0  0  0  0  0  0  0  0  0
    7.4569   -1.6129    0.5979 H   0  0  0  0  0  0  0  0  0  0  0  0
    3.7847   -3.4910    1.8145 H   0  0  0  0  0  0  0  0  0  0  0  0
    2.4914   -1.7524    0.6318 H   0  0  0  0  0  0  0  0  0  0  0  0
    0.8453    1.8958    2.3705 H   0  0  0  0  0  0  0  0  0  0  0  0
   -0.2656    4.1573   -0.6219 H   0  0  0  0  0  0  0  0  0  0  0  0
   -0.4240    4.0551    1.1036 H   0  0  0  0  0  0  0  0  0  0  0  0
   -2.5272    2.8589    2.0034 H   0  0  0  0  0  0  0  0  0  0  0  0
   -1.5254    1.4647    1.5974 H   0  0  0  0  0  0  0  0  0  0  0  0
   -4.3760    1.9324    0.5966 H   0  0  0  0  0  0  0  0  0  0  0  0
   -3.8299    0.7964    1.8477 H   0  0  0  0  0  0  0  0  0  0  0  0
   -2.4598   -1.9571   -1.3880 H   0  0  0  0  0  0  0  0  0  0  0  0
   -3.6756   -4.0692   -1.5097 H   0  0  0  0  0  0  0  0  0  0  0  0
   -5.8784   -4.3236   -0.3930 H   0  0  0  0  0  0  0  0  0  0  0  0
   -6.8501   -2.4011    0.8405 H   0  0  0  0  0  0  0  0  0  0  0  0
   -5.6666   -0.2697    0.9467 H   0  0  0  0  0  0  0  0  0  0  0  0
   -1.2622    0.1821   -0.7929 H   0  0  0  0  0  0  0  0  0  0  0  0
   -2.4564    0.2608   -2.1047 H   0  0  0  0  0  0  0  0  0  0  0  0
   -1.2819    2.4075   -1.9872 H   0  0  0  0  0  0  0  0  0  0  0  0
   -2.9762    2.5786   -1.6333 H   0  0  0  0  0  0  0  0  0  0  0  0
  1  2  1  0
  2  3  2  0
  3  4  1  0
  4  5  1  0
  4  6  2  0
  6  7  1  0
  7  8  2  0
  8  9  1  0
  9 10  1  0
 10 11  2  0
 11 12  1  0
 12 13  2  0
 13 14  1  0
 14 15  1  0
 15 16  1  0
 16 17  1  0
 17 18  1  0
 18 19  1  0
 19 20  2  0
 20 21  1  0
 21 22  2  0
 22 23  1  0
 23 24  2  0
 18 25  1  0
 25 26  1  0
 13 27  1  0
  8  2  1  0
 27 10  1  0
 26 15  1  0
 24 19  1  0
  1 28  1  0
  1 29  1  0
  1 30  1  0
  3 31  1  0
  6 32  1  0
  7 33  1  0
 12 34  1  0
 14 35  1  0
 14 36  1  0
 16 37  1  0
 16 38  1  0
 17 39  1  0
 17 40  1  0
 20 41  1  0
 21 42  1  0
 22 43  1  0
 23 44  1  0
 24 45  1  0
 25 46  1  0
 25 47  1  0
 26 48  1  0
 26 49  1  0
M  END
$$$$
