
     RDKit          3D

 59 62  0  0  0  0  0  0  0  0999 V2000
    2.4304    0.6057    2.8416 O   0  0  0  0  0  0  0  0  0  0  0  0
    1.5094    0.4353    2.0458 C   0  0  0  0  0  0  0  0  0  0  0  0
    0.2676    0.1920    2.5519 N   0  0  0  0  0  0  0  0  0  0  0  0
   -0.7123   -0.4793    1.8874 C   0  0  0  0  0  0  0  0  0  0  0  0
   -1.5505   -1.1321    2.5021 O   0  0  0  0  0  0  0  0  0  0  0  0
   -0.7136   -0.2958    0.3882 C   0  0  0  0  0  0  0  0  0  0  0  0
   -1.3334    1.1003    0.0700 C   0  0  0  0  0  0  0  0  0  0  0  0
   -2.8237    1.2511    0.4089 C   0  0  0  0  0  0  0  0  0  0  0  0
   -3.2855    2.6724    0.2052 C   0  0  0  0  0  0  0  0  0  0  0  0
   -3.3427    3.5664    1.2772 C   0  0  0  0  0  0  0  0  0  0  0  0
   -3.7536    4.8685    1.0350 C   0  0  0  0  0  0  0  0  0  0  0  0
   -4.1003    5.3332   -0.1837 N   0  0  0  0  0  0  0  0  0  0  0  0
   -4.0382    4.4540   -1.2060 C   0  0  0  0  0  0  0  0  0  0  0  0
   -3.6408    3.1331   -1.0652 C   0  0  0  0  0  0  0  0  0  0  0  0
   -1.5149   -1.4275   -0.3068 C   0  0  0  0  0  0  0  0  0  0  0  0
   -0.9213   -2.8358   -0.1226 C   0  0  0  0  0  0  0  0  0  0  0  0
   -1.7632   -3.8743   -0.8194 C   0  0  0  0  0  0  0  0  0  0  0  0
   -2.8190   -4.5019   -0.1543 C   0  0  0  0  0  0  0  0  0  0  0  0
   -3.5769   -5.4351   -0.8449 C   0  0  0  0  0  0  0  0  0  0  0  0
   -3.3601   -5.7758   -2.1333 N   0  0  0  0  0  0  0  0  0  0  0  0
   -2.3379   -5.1535   -2.7584 C   0  0  0  0  0  0  0  0  0  0  0  0
   -1.5240   -4.2074   -2.1547 C   0  0  0  0  0  0  0  0  0  0  0  0
    0.7129   -0.2337   -0.1476 C   0  0  0  0  0  0  0  0  0  0  0  0
    0.9832   -0.6543   -1.2744 O   0  0  0  0  0  0  0  0  0  0  0  0
    1.6549    0.3882    0.6703 N   0  0  0  0  0  0  0  0  0  0  0  0
    2.9905    0.6237    0.0847 C   0  0  0  0  0  0  0  0  0  0  0  0
    3.6165    1.9702    0.4819 C   0  0  0  0  0  0  0  0  0  0  0  0
    4.8854    2.2557   -0.3279 C   0  0  0  0  0  0  0  0  0  0  0  0
    5.6735    0.9963   -0.6965 C   0  0  0  0  0  0  0  0  0  0  0  0
    5.4314   -0.1418    0.2863 C   0  0  0  0  0  0  0  0  0  0  0  0
    3.9573   -0.5526    0.3330 C   0  0  0  0  0  0  0  0  0  0  0  0
    0.2616    0.0735    3.5570 H   0  0  0  0  0  0  0  0  0  0  0  0
   -0.7716    1.8839    0.5985 H   0  0  0  0  0  0  0  0  0  0  0  0
   -1.1923    1.3182   -0.9986 H   0  0  0  0  0  0  0  0  0  0  0  0
   -3.4347    0.5943   -0.2211 H   0  0  0  0  0  0  0  0  0  0  0  0
   -3.0203    0.9550    1.4456 H   0  0  0  0  0  0  0  0  0  0  0  0
   -3.0775    3.2629    2.2843 H   0  0  0  0  0  0  0  0  0  0  0  0
   -3.8156    5.5944    1.8408 H   0  0  0  0  0  0  0  0  0  0  0  0
   -4.3248    4.8513   -2.1756 H   0  0  0  0  0  0  0  0  0  0  0  0
   -3.6125    2.4818   -1.9325 H   0  0  0  0  0  0  0  0  0  0  0  0
   -2.5435   -1.4449    0.0762 H   0  0  0  0  0  0  0  0  0  0  0  0
   -1.5957   -1.2103   -1.3809 H   0  0  0  0  0  0  0  0  0  0  0  0
   -0.8472   -3.0942    0.9400 H   0  0  0  0  0  0  0  0  0  0  0  0
    0.1009   -2.8927   -0.5126 H   0  0  0  0  0  0  0  0  0  0  0  0
   -3.0519   -4.2713    0.8803 H   0  0  0  0  0  0  0  0  0  0  0  0
   -4.4053   -5.9474   -0.3643 H   0  0  0  0  0  0  0  0  0  0  0  0
   -2.1843   -5.4427   -3.7941 H   0  0  0  0  0  0  0  0  0  0  0  0
   -0.7218   -3.7414   -2.7180 H   0  0  0  0  0  0  0  0  0  0  0  0
    2.8510    0.6893   -1.0037 H   0  0  0  0  0  0  0  0  0  0  0  0
    3.8823    1.9798    1.5445 H   0  0  0  0  0  0  0  0  0  0  0  0
    2.8989    2.7867    0.3375 H   0  0  0  0  0  0  0  0  0  0  0  0
    4.6248    2.7899   -1.2497 H   0  0  0  0  0  0  0  0  0  0  0  0
    5.5233    2.9369    0.2483 H   0  0  0  0  0  0  0  0  0  0  0  0
    5.3816    0.6683   -1.7023 H   0  0  0  0  0  0  0  0  0  0  0  0
    6.7422    1.2340   -0.7463 H   0  0  0  0  0  0  0  0  0  0  0  0
    5.7529    0.1724    1.2873 H   0  0  0  0  0  0  0  0  0  0  0  0
    6.0449   -1.0097    0.0194 H   0  0  0  0  0  0  0  0  0  0  0  0
    3.7691   -1.3210   -0.4282 H   0  0  0  0  0  0  0  0  0  0  0  0
    3.7643   -1.0424    1.2944 H   0  0  0  0  0  0  0  0  0  0  0  0
  1  2  2  0
  2  3  1  0
  3  4  1  0
  4  5  2  0
  4  6  1  0
  6  7  1  0
  7  8  1  0
  8  9  1  0
  9 10  2  0
 10 11  1  0
 11 12  2  0
 12 13  1  0
 13 14  2  0
  6 15  1  0
 15 16  1  0
 16 17  1  0
 17 18  2  0
 18 19  1  0
 19 20  2  0
 20 21  1  0
 21 22  2  0
  6 23  1  0
 23 24  2  0
 23 25  1  0
 25 26  1  0
 26 27  1  0
 27 28  1  0
 28 29  1  0
 29 30  1  0
 30 31  1  0
 25  2  1  0
 31 26  1  0
 14  9  1  0
 22 17  1  0
  3 32  1  0
  7 33  1  0
  7 34  1  0
  8 35  1  0
  8 36  1  0
 10 37  1  0
 11 38  1  0
 13 39  1  0
 14 40  1  0
 15 41  1  0
 15 42  1  0
 16 43  1  0
 16 44  1  0
 18 45  1  0
 19 46  1  0
 21 47  1  0
 22 48  1  0
 26 49  1  0
 27 50  1  0
 27 51  1  0
 28 52  1  0
 28 53  1  0
 29 54  1  0
 29 55  1  0
 30 56  1  0
 30 57  1  0
 31 58  1  0
 31 59  1  0
M  END
$$$$
