
     RDKit          3D

 48 48  0  0  0  0  0  0  0  0999 V2000
    3.0324   -0.0737    1.7935 C   0  0  0  0  0  0  0  0  0  0  0  0
    3.2625   -0.9140    0.5342 C   0  0  0  0  0  0  0  0  0  0  0  0
    2.6337   -0.2878   -0.7213 C   0  0  0  0  0  0  0  0  0  0  0  0
    1.1802   -0.3031   -0.6804 N   0  0  0  0  0  0  0  0  0  0  0  0
    0.4439    0.7832   -0.2553 C   0  0  0  0  0  0  0  0  0  0  0  0
    0.9389    1.8416    0.1144 O   0  0  0  0  0  0  0  0  0  0  0  0
   -1.0333    0.6014   -0.2212 C   0  0  0  0  0  0  0  0  0  0  0  0
   -1.7719    1.3232    0.7172 C   0  0  0  0  0  0  0  0  0  0  0  0
   -3.1615    1.1781    0.7825 C   0  0  0  0  0  0  0  0  0  0  0  0
   -3.8544    0.3177   -0.0919 C   0  0  0  0  0  0  0  0  0  0  0  0
   -5.3851    0.1866    0.0089 C   0  0  0  0  0  0  0  0  0  0  0  0
   -5.9958   -0.8029   -1.0092 C   0  0  0  0  0  0  0  0  0  0  0  0
   -6.0409    1.5618   -0.2404 C   0  0  0  0  0  0  0  0  0  0  0  0
   -5.7722   -0.3132    1.4177 C   0  0  0  0  0  0  0  0  0  0  0  0
   -3.0931   -0.3848   -1.0419 C   0  0  0  0  0  0  0  0  0  0  0  0
   -1.7003   -0.2443   -1.1105 C   0  0  0  0  0  0  0  0  0  0  0  0
    4.7511   -1.2792    0.3069 C   0  0  0  0  0  0  0  0  0  0  0  0
    5.6099   -0.2973   -0.3782 N   0  0  0  0  0  0  0  0  0  0  0  0
    6.8952   -0.9175   -0.7209 C   0  0  0  0  0  0  0  0  0  0  0  0
    5.8511    0.9078    0.4148 C   0  0  0  0  0  0  0  0  0  0  0  0
    1.9790   -0.1144    2.0917 H   0  0  0  0  0  0  0  0  0  0  0  0
    3.6182   -0.4580    2.6349 H   0  0  0  0  0  0  0  0  0  0  0  0
    3.2845    0.9789    1.6514 H   0  0  0  0  0  0  0  0  0  0  0  0
    2.7500   -1.8698    0.7189 H   0  0  0  0  0  0  0  0  0  0  0  0
    2.9810    0.7403   -0.8693 H   0  0  0  0  0  0  0  0  0  0  0  0
    2.9112   -0.8678   -1.6086 H   0  0  0  0  0  0  0  0  0  0  0  0
    0.7193   -1.1911   -0.8181 H   0  0  0  0  0  0  0  0  0  0  0  0
   -1.2685    2.0012    1.4037 H   0  0  0  0  0  0  0  0  0  0  0  0
   -3.6981    1.7574    1.5314 H   0  0  0  0  0  0  0  0  0  0  0  0
   -5.5982   -1.8157   -0.8757 H   0  0  0  0  0  0  0  0  0  0  0  0
   -5.7998   -0.4920   -2.0420 H   0  0  0  0  0  0  0  0  0  0  0  0
   -7.0846   -0.8663   -0.8941 H   0  0  0  0  0  0  0  0  0  0  0  0
   -7.1344    1.4899   -0.2080 H   0  0  0  0  0  0  0  0  0  0  0  0
   -5.7617    1.9597   -1.2232 H   0  0  0  0  0  0  0  0  0  0  0  0
   -5.7464    2.3035    0.5102 H   0  0  0  0  0  0  0  0  0  0  0  0
   -6.8565   -0.4499    1.5045 H   0  0  0  0  0  0  0  0  0  0  0  0
   -5.2957   -1.2756    1.6394 H   0  0  0  0  0  0  0  0  0  0  0  0
   -5.4748    0.3897    2.2035 H   0  0  0  0  0  0  0  0  0  0  0  0
   -3.5622   -1.0515   -1.7607 H   0  0  0  0  0  0  0  0  0  0  0  0
   -1.1600   -0.7807   -1.8852 H   0  0  0  0  0  0  0  0  0  0  0  0
    4.7342   -2.1853   -0.3159 H   0  0  0  0  0  0  0  0  0  0  0  0
    5.2030   -1.5857    1.2602 H   0  0  0  0  0  0  0  0  0  0  0  0
    6.7446   -1.7892   -1.3677 H   0  0  0  0  0  0  0  0  0  0  0  0
    7.4488   -1.2377    0.1693 H   0  0  0  0  0  0  0  0  0  0  0  0
    7.5227   -0.2195   -1.2867 H   0  0  0  0  0  0  0  0  0  0  0  0
    4.9502    1.5212    0.4787 H   0  0  0  0  0  0  0  0  0  0  0  0
    6.5997    1.5476   -0.0676 H   0  0  0  0  0  0  0  0  0  0  0  0
    6.2041    0.6771    1.4260 H   0  0  0  0  0  0  0  0  0  0  0  0
  1  2  1  0
  2  3  1  0
  3  4  1  0
  4  5  1  0
  5  6  2  0
  5  7  1  0
  7  8  2  0
  8  9  1  0
  9 10  2  0
 10 11  1  0
 11 12  1  0
 11 13  1  0
 11 14  1  0
 10 15  1  0
 15 16  2  0
  2 17  1  0
 17 18  1  0
 18 19  1  0
 18 20  1  0
 16  7  1  0
  1 21  1  0
  1 22  1  0
  1 23  1  0
  2 24  1  0
  3 25  1  0
  3 26  1  0
  4 27  1  0
  8 28  1  0
  9 29  1  0
 12 30  1  0
 12 31  1  0
 12 32  1  0
 13 33  1  0
 13 34  1  0
 13 35  1  0
 14 36  1  0
 14 37  1  0
 14 38  1  0
 15 39  1  0
 16 40  1  0
 17 41  1  0
 17 42  1  0
 19 43  1  0
 19 44  1  0
 19 45  1  0
 20 46  1  0
 20 47  1  0
 20 48  1  0
M  END
$$$$
