
     RDKit          3D

 59 62  0  0  0  0  0  0  0  0999 V2000
   -4.3842    2.5492   -1.2866 C   0  0  0  0  0  0  0  0  0  0  0  0
   -5.1787    1.3388   -1.7465 C   0  0  0  0  0  0  0  0  0  0  0  0
   -5.5661    0.4796   -0.6437 N   0  0  0  0  0  0  0  0  0  0  0  0
   -4.7818   -0.4397    0.0303 C   0  0  0  0  0  0  0  0  0  0  0  0
   -3.3860   -0.7171   -0.2878 C   0  0  0  0  0  0  0  0  0  0  0  0
   -2.9927   -0.7731   -1.4519 O   0  0  0  0  0  0  0  0  0  0  0  0
   -2.5004   -0.8945    0.7793 N   0  0  0  0  0  0  0  0  0  0  0  0
   -2.7390   -0.3566    2.1200 C   0  0  0  0  0  0  0  0  0  0  0  0
   -1.4401    0.0113    2.8432 C   0  0  0  0  0  0  0  0  0  0  0  0
   -0.4593    0.7159    1.9025 C   0  0  0  0  0  0  0  0  0  0  0  0
   -0.1850   -0.0968    0.6173 C   0  0  0  0  0  0  0  0  0  0  0  0
    1.2648   -0.5562    0.5565 C   0  0  0  0  0  0  0  0  0  0  0  0
    1.6076   -1.7283    0.6669 O   0  0  0  0  0  0  0  0  0  0  0  0
    2.1646    0.4754    0.3813 N   0  0  0  0  0  0  0  0  0  0  0  0
    3.5900    0.2280    0.2609 C   0  0  0  0  0  0  0  0  0  0  0  0
    3.9765   -0.2699   -1.1338 C   0  0  0  0  0  0  0  0  0  0  0  0
    5.4645   -0.4799   -1.2571 C   0  0  0  0  0  0  0  0  0  0  0  0
    6.2869    0.5207   -1.7879 C   0  0  0  0  0  0  0  0  0  0  0  0
    7.6674    0.3271   -1.8803 C   0  0  0  0  0  0  0  0  0  0  0  0
    8.2475   -0.8717   -1.4502 C   0  0  0  0  0  0  0  0  0  0  0  0
    9.7331   -1.0654   -1.5197 C   0  0  0  0  0  0  0  0  0  0  0  0
    7.4277   -1.8644   -0.9026 C   0  0  0  0  0  0  0  0  0  0  0  0
    6.0475   -1.6721   -0.8103 C   0  0  0  0  0  0  0  0  0  0  0  0
   -1.1256   -1.2989    0.4921 C   0  0  0  0  0  0  0  0  0  0  0  0
   -5.5805   -1.0588    0.9849 C   0  0  0  0  0  0  0  0  0  0  0  0
   -6.8539   -0.4335    0.9194 C   0  0  0  0  0  0  0  0  0  0  0  0
   -8.3946   -0.5135    1.7045 S   0  0  0  0  0  0  0  0  0  0  0  0
   -8.9760    0.7401    0.6810 C   0  0  0  0  0  0  0  0  0  0  0  0
   -8.0483    1.2042   -0.2274 C   0  0  0  0  0  0  0  0  0  0  0  0
   -6.8206    0.5014   -0.0701 C   0  0  0  0  0  0  0  0  0  0  0  0
   -3.4520    2.2527   -0.7945 H   0  0  0  0  0  0  0  0  0  0  0  0
   -4.9596    3.1510   -0.5751 H   0  0  0  0  0  0  0  0  0  0  0  0
   -4.1297    3.1822   -2.1422 H   0  0  0  0  0  0  0  0  0  0  0  0
   -6.0884    1.6628   -2.2639 H   0  0  0  0  0  0  0  0  0  0  0  0
   -4.6091    0.7427   -2.4649 H   0  0  0  0  0  0  0  0  0  0  0  0
   -3.2759   -1.1124    2.7020 H   0  0  0  0  0  0  0  0  0  0  0  0
   -3.3709    0.5351    2.0431 H   0  0  0  0  0  0  0  0  0  0  0  0
   -1.6646    0.6484    3.7060 H   0  0  0  0  0  0  0  0  0  0  0  0
   -0.9674   -0.8959    3.2404 H   0  0  0  0  0  0  0  0  0  0  0  0
   -0.8885    1.6851    1.6168 H   0  0  0  0  0  0  0  0  0  0  0  0
    0.4637    0.9377    2.4506 H   0  0  0  0  0  0  0  0  0  0  0  0
   -0.3507    0.5621   -0.2465 H   0  0  0  0  0  0  0  0  0  0  0  0
    1.8187    1.4028    0.1709 H   0  0  0  0  0  0  0  0  0  0  0  0
    3.8816   -0.5015    1.0258 H   0  0  0  0  0  0  0  0  0  0  0  0
    4.0975    1.1717    0.4903 H   0  0  0  0  0  0  0  0  0  0  0  0
    3.6386    0.4471   -1.8934 H   0  0  0  0  0  0  0  0  0  0  0  0
    3.4575   -1.2082   -1.3674 H   0  0  0  0  0  0  0  0  0  0  0  0
    5.8603    1.4593   -2.1339 H   0  0  0  0  0  0  0  0  0  0  0  0
    8.2885    1.1191   -2.2928 H   0  0  0  0  0  0  0  0  0  0  0  0
   10.1560   -0.5337   -2.3787 H   0  0  0  0  0  0  0  0  0  0  0  0
   10.2023   -0.6907   -0.6047 H   0  0  0  0  0  0  0  0  0  0  0  0
    9.9844   -2.1249   -1.6382 H   0  0  0  0  0  0  0  0  0  0  0  0
    7.8579   -2.7971   -0.5444 H   0  0  0  0  0  0  0  0  0  0  0  0
    5.4279   -2.4597   -0.3847 H   0  0  0  0  0  0  0  0  0  0  0  0
   -0.8684   -2.0979    1.1990 H   0  0  0  0  0  0  0  0  0  0  0  0
   -1.0465   -1.7401   -0.5081 H   0  0  0  0  0  0  0  0  0  0  0  0
   -5.2880   -1.8616    1.6478 H   0  0  0  0  0  0  0  0  0  0  0  0
   -9.9967    1.0769    0.8013 H   0  0  0  0  0  0  0  0  0  0  0  0
   -8.2439    1.9860   -0.9494 H   0  0  0  0  0  0  0  0  0  0  0  0
  1  2  1  0
  2  3  1  0
  3  4  1  0
  4  5  1  0
  5  6  2  0
  5  7  1  0
  7  8  1  0
  8  9  1  0
  9 10  1  0
 10 11  1  0
 11 12  1  0
 12 13  2  0
 12 14  1  0
 14 15  1  0
 15 16  1  0
 16 17  1  0
 17 18  2  0
 18 19  1  0
 19 20  2  0
 20 21  1  0
 20 22  1  0
 22 23  2  0
 11 24  1  0
  4 25  2  0
 25 26  1  0
 26 27  1  0
 27 28  1  0
 28 29  2  0
 29 30  1  0
 30  3  1  0
 24  7  1  0
 30 26  2  0
 23 17  1  0
  1 31  1  0
  1 32  1  0
  1 33  1  0
  2 34  1  0
  2 35  1  0
  8 36  1  0
  8 37  1  0
  9 38  1  0
  9 39  1  0
 10 40  1  0
 10 41  1  0
 11 42  1  0
 14 43  1  0
 15 44  1  0
 15 45  1  0
 16 46  1  0
 16 47  1  0
 18 48  1  0
 19 49  1  0
 21 50  1  0
 21 51  1  0
 21 52  1  0
 22 53  1  0
 23 54  1  0
 24 55  1  0
 24 56  1  0
 25 57  1  0
 28 58  1  0
 29 59  1  0
M  END
$$$$
