
     RDKit          3D

 65 69  0  0  0  0  0  0  0  0999 V2000
    4.9912    1.1691    3.9619 C   0  0  0  0  0  0  0  0  0  0  0  0
    4.7124    0.9533    2.5842 O   0  0  0  0  0  0  0  0  0  0  0  0
    3.3980    0.9570    2.1982 C   0  0  0  0  0  0  0  0  0  0  0  0
    2.3263    1.2475    3.0462 C   0  0  0  0  0  0  0  0  0  0  0  0
    1.0089    1.2367    2.5723 C   0  0  0  0  0  0  0  0  0  0  0  0
    0.7307    0.9476    1.2345 C   0  0  0  0  0  0  0  0  0  0  0  0
   -0.6771    0.9295    0.6622 C   0  0  0  0  0  0  0  0  0  0  0  0
   -1.2113    2.3492    0.3666 C   0  0  0  0  0  0  0  0  0  0  0  0
   -1.3550    3.1842    1.5759 C   0  0  0  0  0  0  0  0  0  0  0  0
   -1.4822    3.8017    2.5512 N   0  0  0  0  0  0  0  0  0  0  0  0
   -2.5907    2.2852   -0.3094 C   0  0  0  0  0  0  0  0  0  0  0  0
   -2.9414    3.3688   -0.9387 N   0  0  0  0  0  0  0  0  0  0  0  0
   -3.3693    1.1085   -0.2060 N   0  0  0  0  0  0  0  0  0  0  0  0
   -4.5164    1.0121   -1.0675 C   0  0  0  0  0  0  0  0  0  0  0  0
   -5.7945    1.2213   -0.5208 C   0  0  0  0  0  0  0  0  0  0  0  0
   -6.9282    1.1581   -1.3313 C   0  0  0  0  0  0  0  0  0  0  0  0
   -6.8005    0.8847   -2.6930 C   0  0  0  0  0  0  0  0  0  0  0  0
   -5.5390    0.6662   -3.2487 C   0  0  0  0  0  0  0  0  0  0  0  0
   -4.3935    0.7298   -2.4446 C   0  0  0  0  0  0  0  0  0  0  0  0
   -3.1081    0.4971   -3.0370 C   0  0  0  0  0  0  0  0  0  0  0  0
   -2.0574    0.3178   -3.4981 N   0  0  0  0  0  0  0  0  0  0  0  0
   -2.9392   -0.0540    0.4867 C   0  0  0  0  0  0  0  0  0  0  0  0
   -3.4533   -1.2944    0.3069 C   0  0  0  0  0  0  0  0  0  0  0  0
   -2.8776   -2.5536    0.8871 C   0  0  0  0  0  0  0  0  0  0  0  0
   -1.4037   -2.4011    1.2113 C   0  0  0  0  0  0  0  0  0  0  0  0
   -1.2644   -1.1652    2.0494 C   0  0  0  0  0  0  0  0  0  0  0  0
   -0.7844   -1.2203    3.1825 O   0  0  0  0  0  0  0  0  0  0  0  0
   -1.7533    0.1513    1.4416 C   0  0  0  0  0  0  0  0  0  0  0  0
    1.8113    0.6709    0.3846 C   0  0  0  0  0  0  0  0  0  0  0  0
    3.1408    0.6455    0.8528 C   0  0  0  0  0  0  0  0  0  0  0  0
    4.2539    0.2959   -0.1221 C   0  0  0  0  0  0  0  0  0  0  0  0
    3.9783   -0.9369   -0.8782 N   0  0  0  0  0  0  0  0  0  0  0  0
    4.0400   -2.1358   -0.0380 C   0  0  0  0  0  0  0  0  0  0  0  0
    4.1126   -3.2601   -1.0592 C   0  0  0  0  0  0  0  0  0  0  0  0
    4.7644   -2.6355   -2.2882 C   0  0  0  0  0  0  0  0  0  0  0  0
    4.9630   -1.1672   -1.9358 C   0  0  0  0  0  0  0  0  0  0  0  0
    6.0746    1.0997    4.0965 H   0  0  0  0  0  0  0  0  0  0  0  0
    4.6824    2.1707    4.2773 H   0  0  0  0  0  0  0  0  0  0  0  0
    4.5280    0.3968    4.5856 H   0  0  0  0  0  0  0  0  0  0  0  0
    2.4741    1.4860    4.0942 H   0  0  0  0  0  0  0  0  0  0  0  0
    0.2116    1.4535    3.2827 H   0  0  0  0  0  0  0  0  0  0  0  0
   -0.5869    0.4230   -0.3145 H   0  0  0  0  0  0  0  0  0  0  0  0
   -0.5249    2.8532   -0.3273 H   0  0  0  0  0  0  0  0  0  0  0  0
   -3.8823    3.2903   -1.3331 H   0  0  0  0  0  0  0  0  0  0  0  0
   -5.9059    1.4444    0.5389 H   0  0  0  0  0  0  0  0  0  0  0  0
   -7.9118    1.3330   -0.9020 H   0  0  0  0  0  0  0  0  0  0  0  0
   -7.6876    0.8394   -3.3221 H   0  0  0  0  0  0  0  0  0  0  0  0
   -5.4563    0.4495   -4.3132 H   0  0  0  0  0  0  0  0  0  0  0  0
   -4.3100   -1.4616   -0.3421 H   0  0  0  0  0  0  0  0  0  0  0  0
   -2.9964   -3.3706    0.1660 H   0  0  0  0  0  0  0  0  0  0  0  0
   -3.4505   -2.8237    1.7823 H   0  0  0  0  0  0  0  0  0  0  0  0
   -1.0411   -3.2686    1.7707 H   0  0  0  0  0  0  0  0  0  0  0  0
   -0.7902   -2.2949    0.3103 H   0  0  0  0  0  0  0  0  0  0  0  0
   -2.1224    0.7323    2.2990 H   0  0  0  0  0  0  0  0  0  0  0  0
    1.6354    0.4424   -0.6671 H   0  0  0  0  0  0  0  0  0  0  0  0
    4.3393    1.1410   -0.8179 H   0  0  0  0  0  0  0  0  0  0  0  0
    5.2213    0.2142    0.3850 H   0  0  0  0  0  0  0  0  0  0  0  0
    4.9411   -2.1473    0.5881 H   0  0  0  0  0  0  0  0  0  0  0  0
    3.1632   -2.2456    0.6083 H   0  0  0  0  0  0  0  0  0  0  0  0
    3.1080   -3.6169   -1.3160 H   0  0  0  0  0  0  0  0  0  0  0  0
    4.6876   -4.1113   -0.6807 H   0  0  0  0  0  0  0  0  0  0  0  0
    4.1047   -2.7455   -3.1565 H   0  0  0  0  0  0  0  0  0  0  0  0
    5.7180   -3.1186   -2.5271 H   0  0  0  0  0  0  0  0  0  0  0  0
    5.9912   -1.0090   -1.5818 H   0  0  0  0  0  0  0  0  0  0  0  0
    4.7947   -0.5203   -2.8032 H   0  0  0  0  0  0  0  0  0  0  0  0
  1  2  1  0
  2  3  1  0
  3  4  2  0
  4  5  1  0
  5  6  2  0
  6  7  1  0
  7  8  1  0
  8  9  1  0
  9 10  3  0
  8 11  1  0
 11 12  2  3
 11 13  1  0
 13 14  1  0
 14 15  2  0
 15 16  1  0
 16 17  2  0
 17 18  1  0
 18 19  2  0
 19 20  1  0
 20 21  3  0
 13 22  1  0
 22 23  2  0
 23 24  1  0
 24 25  1  0
 25 26  1  0
 26 27  2  0
 26 28  1  0
  6 29  1  0
 29 30  2  0
 30 31  1  0
 31 32  1  0
 32 33  1  0
 33 34  1  0
 34 35  1  0
 35 36  1  0
 30  3  1  0
 36 32  1  0
 28  7  1  0
 19 14  1  0
 28 22  1  0
  1 37  1  0
  1 38  1  0
  1 39  1  0
  4 40  1  0
  5 41  1  0
  7 42  1  0
  8 43  1  0
 12 44  1  0
 15 45  1  0
 16 46  1  0
 17 47  1  0
 18 48  1  0
 23 49  1  0
 24 50  1  0
 24 51  1  0
 25 52  1  0
 25 53  1  0
 28 54  1  0
 29 55  1  0
 31 56  1  0
 31 57  1  0
 33 58  1  0
 33 59  1  0
 34 60  1  0
 34 61  1  0
 35 62  1  0
 35 63  1  0
 36 64  1  0
 36 65  1  0
M  END
$$$$
