
     RDKit          3D

 58 62  0  0  0  0  0  0  0  0999 V2000
   -3.9932   -0.1215   -1.0805 O   0  0  0  0  0  0  0  0  0  0  0  0
   -3.3679    0.8521   -0.3254 C   0  0  0  0  0  0  0  0  0  0  0  0
   -2.2392    0.5191    0.4387 C   0  0  0  0  0  0  0  0  0  0  0  0
   -1.6763   -0.9059    0.4443 C   0  0  0  0  0  0  0  0  0  0  0  0
   -1.9887   -1.6732    1.7449 C   0  0  0  0  0  0  0  0  0  0  0  0
   -2.7091   -2.8690    1.6826 C   0  0  0  0  0  0  0  0  0  0  0  0
   -2.9843   -3.5611    2.8594 C   0  0  0  0  0  0  0  0  0  0  0  0
   -2.5382   -3.0503    4.0706 C   0  0  0  0  0  0  0  0  0  0  0  0
   -1.8307   -1.8620    4.0558 C   0  0  0  0  0  0  0  0  0  0  0  0
   -1.5458   -1.1699    2.9316 N   0  0  0  0  0  0  0  0  0  0  0  0
   -0.2640   -0.9626   -0.0423 N   0  0  0  0  0  0  0  0  0  0  0  0
    0.7781   -0.9354    0.9800 C   0  0  0  0  0  0  0  0  0  0  0  0
    2.1351   -0.6000    0.3403 C   0  0  0  0  0  0  0  0  0  0  0  0
    2.3083   -1.1879   -1.0751 C   0  0  0  0  0  0  0  0  0  0  0  0
    3.7752   -1.5264   -1.3952 C   0  0  0  0  0  0  0  0  0  0  0  0
    4.6810   -0.3184   -1.4371 C   0  0  0  0  0  0  0  0  0  0  0  0
    5.6207   -0.0957   -0.4218 C   0  0  0  0  0  0  0  0  0  0  0  0
    6.4535    1.0240   -0.4607 C   0  0  0  0  0  0  0  0  0  0  0  0
    6.3556    1.9312   -1.5139 C   0  0  0  0  0  0  0  0  0  0  0  0
    5.4255    1.7193   -2.5296 C   0  0  0  0  0  0  0  0  0  0  0  0
    4.5925    0.6001   -2.4923 C   0  0  0  0  0  0  0  0  0  0  0  0
    1.4172   -2.4243   -1.2256 C   0  0  0  0  0  0  0  0  0  0  0  0
   -0.0597   -2.0824   -0.9752 C   0  0  0  0  0  0  0  0  0  0  0  0
   -1.6771    1.5446    1.2088 C   0  0  0  0  0  0  0  0  0  0  0  0
   -2.2077    2.8392    1.1892 C   0  0  0  0  0  0  0  0  0  0  0  0
   -1.4282    4.0281    2.1809 Cl  0  0  0  0  0  0  0  0  0  0  0  0
   -3.3357    3.1567    0.3971 C   0  0  0  0  0  0  0  0  0  0  0  0
   -3.9367    4.4329    0.3138 C   0  0  0  0  0  0  0  0  0  0  0  0
   -5.0512    4.6397   -0.4912 C   0  0  0  0  0  0  0  0  0  0  0  0
   -5.5454    3.5636   -1.1983 C   0  0  0  0  0  0  0  0  0  0  0  0
   -5.0078    2.3256   -1.1527 N   0  0  0  0  0  0  0  0  0  0  0  0
   -3.9223    2.1339   -0.3693 C   0  0  0  0  0  0  0  0  0  0  0  0
   -4.7290    0.3607   -1.5191 H   0  0  0  0  0  0  0  0  0  0  0  0
   -2.2550   -1.4262   -0.3291 H   0  0  0  0  0  0  0  0  0  0  0  0
   -3.0605   -3.2581    0.7321 H   0  0  0  0  0  0  0  0  0  0  0  0
   -3.5471   -4.4897    2.8288 H   0  0  0  0  0  0  0  0  0  0  0  0
   -2.7392   -3.5636    5.0039 H   0  0  0  0  0  0  0  0  0  0  0  0
   -1.4616   -1.4193    4.9764 H   0  0  0  0  0  0  0  0  0  0  0  0
    0.8453   -1.9030    1.4951 H   0  0  0  0  0  0  0  0  0  0  0  0
    0.5994   -0.1833    1.7513 H   0  0  0  0  0  0  0  0  0  0  0  0
    2.9230   -0.9612    1.0127 H   0  0  0  0  0  0  0  0  0  0  0  0
    2.2512    0.4900    0.2804 H   0  0  0  0  0  0  0  0  0  0  0  0
    1.9556   -0.4384   -1.7980 H   0  0  0  0  0  0  0  0  0  0  0  0
    4.1575   -2.2559   -0.6692 H   0  0  0  0  0  0  0  0  0  0  0  0
    3.8360   -2.0246   -2.3719 H   0  0  0  0  0  0  0  0  0  0  0  0
    5.7078   -0.7917    0.4092 H   0  0  0  0  0  0  0  0  0  0  0  0
    7.1774    1.1892    0.3327 H   0  0  0  0  0  0  0  0  0  0  0  0
    7.0027    2.8037   -1.5425 H   0  0  0  0  0  0  0  0  0  0  0  0
    5.3467    2.4266   -3.3508 H   0  0  0  0  0  0  0  0  0  0  0  0
    3.8700    0.4489   -3.2912 H   0  0  0  0  0  0  0  0  0  0  0  0
    1.7389   -3.1944   -0.5119 H   0  0  0  0  0  0  0  0  0  0  0  0
    1.5228   -2.8577   -2.2272 H   0  0  0  0  0  0  0  0  0  0  0  0
   -0.5540   -2.9961   -0.6215 H   0  0  0  0  0  0  0  0  0  0  0  0
   -0.5239   -1.8161   -1.9329 H   0  0  0  0  0  0  0  0  0  0  0  0
   -0.8249    1.3375    1.8486 H   0  0  0  0  0  0  0  0  0  0  0  0
   -3.5395    5.2739    0.8775 H   0  0  0  0  0  0  0  0  0  0  0  0
   -5.5187    5.6154   -0.5608 H   0  0  0  0  0  0  0  0  0  0  0  0
   -6.4148    3.6692   -1.8413 H   0  0  0  0  0  0  0  0  0  0  0  0
  1  2  1  0
  2  3  2  0
  3  4  1  0
  4  5  1  0
  5  6  2  0
  6  7  1  0
  7  8  2  0
  8  9  1  0
  9 10  2  0
  4 11  1  0
 11 12  1  0
 12 13  1  0
 13 14  1  0
 14 15  1  0
 15 16  1  0
 16 17  2  0
 17 18  1  0
 18 19  2  0
 19 20  1  0
 20 21  2  0
 14 22  1  0
 22 23  1  0
  3 24  1  0
 24 25  2  0
 25 26  1  0
 25 27  1  0
 27 28  2  0
 28 29  1  0
 29 30  2  0
 30 31  1  0
 31 32  2  0
 32  2  1  0
 10  5  1  0
 23 11  1  0
 32 27  1  0
 21 16  1  0
  1 33  1  0
  4 34  1  0
  6 35  1  0
  7 36  1  0
  8 37  1  0
  9 38  1  0
 12 39  1  0
 12 40  1  0
 13 41  1  0
 13 42  1  0
 14 43  1  0
 15 44  1  0
 15 45  1  0
 17 46  1  0
 18 47  1  0
 19 48  1  0
 20 49  1  0
 21 50  1  0
 22 51  1  0
 22 52  1  0
 23 53  1  0
 23 54  1  0
 24 55  1  0
 28 56  1  0
 29 57  1  0
 30 58  1  0
M  END
$$$$
