
     RDKit          3D

 73 75  0  0  0  0  0  0  0  0999 V2000
    8.3537    0.7479   -1.8945 C   0  0  0  0  0  0  0  0  0  0  0  0
    8.2187    0.5239   -0.3960 C   0  0  0  0  0  0  0  0  0  0  0  0
    6.8069    0.0689   -0.0217 C   0  0  0  0  0  0  0  0  0  0  0  0
    6.6874   -0.1865    1.4834 C   0  0  0  0  0  0  0  0  0  0  0  0
    5.3165   -0.7337    1.8936 C   0  0  0  0  0  0  0  0  0  0  0  0
    4.1963    0.3046    1.7826 C   0  0  0  0  0  0  0  0  0  0  0  0
    2.8585   -0.1935    2.3392 C   0  0  0  0  0  0  0  0  0  0  0  0
    2.2579   -1.4086    1.6251 C   0  0  0  0  0  0  0  0  0  0  0  0
    1.9908   -1.2327    0.1275 C   0  0  0  0  0  0  0  0  0  0  0  0
    0.9674   -0.1336   -0.1777 C   0  0  0  0  0  0  0  0  0  0  0  0
    0.6622   -0.0796   -1.6773 C   0  0  0  0  0  0  0  0  0  0  0  0
   -0.5013    0.8613   -2.0642 N   0  0  0  0  0  4  0  0  0  0  0  0
   -0.5637    2.1281   -1.2109 C   0  0  0  0  0  0  0  0  0  0  0  0
   -0.2416    1.3235   -3.5157 C   0  0  0  0  0  0  0  0  0  0  0  0
   -1.8739    0.1412   -2.0875 C   0  0  0  0  0  0  0  0  0  0  0  0
   -2.2798   -0.5239   -0.7653 C   0  0  0  0  0  0  0  0  0  0  0  0
   -3.7143   -0.9904   -0.8189 C   0  0  0  0  0  0  0  0  0  0  0  0
   -4.7309   -0.6891    0.0223 C   0  0  0  0  0  0  0  0  0  0  0  0
   -6.1066   -1.0781   -0.3969 C   0  0  0  0  0  0  0  0  0  0  0  0
   -6.4217   -2.3767   -0.8257 C   0  0  0  0  0  0  0  0  0  0  0  0
   -7.7245   -2.6962   -1.2131 C   0  0  0  0  0  0  0  0  0  0  0  0
   -8.7241   -1.7265   -1.1692 C   0  0  0  0  0  0  0  0  0  0  0  0
   -8.4288   -0.4368   -0.7245 C   0  0  0  0  0  0  0  0  0  0  0  0
   -7.1277   -0.1082   -0.3252 C   0  0  0  0  0  0  0  0  0  0  0  0
   -6.8076    1.5596    0.2633 S   0  0  0  0  0  0  0  0  0  0  0  0
   -5.4564    1.2551    1.4010 C   0  0  0  0  0  0  0  0  0  0  0  0
   -5.3098    2.0999    2.5084 C   0  0  0  0  0  0  0  0  0  0  0  0
   -4.2985    1.8673    3.4425 C   0  0  0  0  0  0  0  0  0  0  0  0
   -3.4469    0.7788    3.2808 C   0  0  0  0  0  0  0  0  0  0  0  0
   -2.1970    0.4863    4.4262 Cl  0  0  0  0  0  0  0  0  0  0  0  0
   -3.5812   -0.0697    2.1831 C   0  0  0  0  0  0  0  0  0  0  0  0
   -4.5596    0.1854    1.2111 C   0  0  0  0  0  0  0  0  0  0  0  0
    7.6491    1.5100   -2.2429 H   0  0  0  0  0  0  0  0  0  0  0  0
    8.1620   -0.1776   -2.4468 H   0  0  0  0  0  0  0  0  0  0  0  0
    9.3658    1.0854   -2.1378 H   0  0  0  0  0  0  0  0  0  0  0  0
    8.4614    1.4548    0.1312 H   0  0  0  0  0  0  0  0  0  0  0  0
    8.9510   -0.2286   -0.0802 H   0  0  0  0  0  0  0  0  0  0  0  0
    6.5597   -0.8495   -0.5685 H   0  0  0  0  0  0  0  0  0  0  0  0
    6.0881    0.8348   -0.3335 H   0  0  0  0  0  0  0  0  0  0  0  0
    7.4489   -0.9197    1.7786 H   0  0  0  0  0  0  0  0  0  0  0  0
    6.9022    0.7355    2.0397 H   0  0  0  0  0  0  0  0  0  0  0  0
    5.0844   -1.6144    1.2840 H   0  0  0  0  0  0  0  0  0  0  0  0
    5.3818   -1.0744    2.9340 H   0  0  0  0  0  0  0  0  0  0  0  0
    4.4844    1.1989    2.3479 H   0  0  0  0  0  0  0  0  0  0  0  0
    4.0699    0.6257    0.7446 H   0  0  0  0  0  0  0  0  0  0  0  0
    2.9887   -0.4492    3.3975 H   0  0  0  0  0  0  0  0  0  0  0  0
    2.1404    0.6347    2.3184 H   0  0  0  0  0  0  0  0  0  0  0  0
    1.3159   -1.6680    2.1231 H   0  0  0  0  0  0  0  0  0  0  0  0
    2.9159   -2.2738    1.7621 H   0  0  0  0  0  0  0  0  0  0  0  0
    2.9272   -1.0330   -0.4055 H   0  0  0  0  0  0  0  0  0  0  0  0
    1.6136   -2.1876   -0.2608 H   0  0  0  0  0  0  0  0  0  0  0  0
    1.3723    0.8319    0.1440 H   0  0  0  0  0  0  0  0  0  0  0  0
    0.0692   -0.3200    0.4137 H   0  0  0  0  0  0  0  0  0  0  0  0
    0.4157   -1.0678   -2.0812 H   0  0  0  0  0  0  0  0  0  0  0  0
    1.5563    0.2824   -2.1993 H   0  0  0  0  0  0  0  0  0  0  0  0
   -0.7879    1.8644   -0.1758 H   0  0  0  0  0  0  0  0  0  0  0  0
    0.4044    2.6328   -1.2754 H   0  0  0  0  0  0  0  0  0  0  0  0
   -1.3543    2.7736   -1.6070 H   0  0  0  0  0  0  0  0  0  0  0  0
    0.6937    1.8905   -3.5366 H   0  0  0  0  0  0  0  0  0  0  0  0
   -1.0755    1.9562   -3.8338 H   0  0  0  0  0  0  0  0  0  0  0  0
   -0.1673    0.4360   -4.1496 H   0  0  0  0  0  0  0  0  0  0  0  0
   -2.6143    0.8958   -2.3859 H   0  0  0  0  0  0  0  0  0  0  0  0
   -1.8188   -0.6150   -2.8820 H   0  0  0  0  0  0  0  0  0  0  0  0
   -2.1255    0.1794    0.0519 H   0  0  0  0  0  0  0  0  0  0  0  0
   -1.6516   -1.4021   -0.5799 H   0  0  0  0  0  0  0  0  0  0  0  0
   -3.9387   -1.6016   -1.6954 H   0  0  0  0  0  0  0  0  0  0  0  0
   -5.6618   -3.1546   -0.8517 H   0  0  0  0  0  0  0  0  0  0  0  0
   -7.9634   -3.7053   -1.5428 H   0  0  0  0  0  0  0  0  0  0  0  0
   -9.7393   -1.9771   -1.4694 H   0  0  0  0  0  0  0  0  0  0  0  0
   -9.2233    0.3045   -0.6852 H   0  0  0  0  0  0  0  0  0  0  0  0
   -5.9936    2.9331    2.6612 H   0  0  0  0  0  0  0  0  0  0  0  0
   -4.1978    2.5248    4.3031 H   0  0  0  0  0  0  0  0  0  0  0  0
   -2.9291   -0.9344    2.0938 H   0  0  0  0  0  0  0  0  0  0  0  0
  1  2  1  0
  2  3  1  0
  3  4  1  0
  4  5  1  0
  5  6  1  0
  6  7  1  0
  7  8  1  0
  8  9  1  0
  9 10  1  0
 10 11  1  0
 11 12  1  0
 12 13  1  0
 12 14  1  0
 12 15  1  0
 15 16  1  0
 16 17  1  0
 17 18  2  3
 18 19  1  0
 19 20  2  0
 20 21  1  0
 21 22  2  0
 22 23  1  0
 23 24  2  0
 24 25  1  0
 25 26  1  0
 26 27  2  0
 27 28  1  0
 28 29  2  0
 29 30  1  0
 29 31  1  0
 31 32  2  0
 32 18  1  0
 24 19  1  0
 32 26  1  0
  1 33  1  0
  1 34  1  0
  1 35  1  0
  2 36  1  0
  2 37  1  0
  3 38  1  0
  3 39  1  0
  4 40  1  0
  4 41  1  0
  5 42  1  0
  5 43  1  0
  6 44  1  0
  6 45  1  0
  7 46  1  0
  7 47  1  0
  8 48  1  0
  8 49  1  0
  9 50  1  0
  9 51  1  0
 10 52  1  0
 10 53  1  0
 11 54  1  0
 11 55  1  0
 13 56  1  0
 13 57  1  0
 13 58  1  0
 14 59  1  0
 14 60  1  0
 14 61  1  0
 15 62  1  0
 15 63  1  0
 16 64  1  0
 16 65  1  0
 17 66  1  0
 20 67  1  0
 21 68  1  0
 22 69  1  0
 23 70  1  0
 27 71  1  0
 28 72  1  0
 31 73  1  0
M  CHG  1  12   1
M  END
$$$$
