
     RDKit          3D

 45 48  0  0  0  0  0  0  0  0999 V2000
    3.9013   -1.1978   -0.0230 O   0  0  0  0  0  0  0  0  0  0  0  0
    2.8409   -0.6091   -0.1891 C   0  0  0  0  0  0  0  0  0  0  0  0
    1.6731   -1.1297   -0.7139 N   0  0  0  0  0  0  0  0  0  0  0  0
    1.3969   -2.4650   -1.1091 C   0  0  0  0  0  0  0  0  0  0  0  0
    2.3334   -3.4918   -0.9176 C   0  0  0  0  0  0  0  0  0  0  0  0
    2.0530   -4.8097   -1.2875 C   0  0  0  0  0  0  0  0  0  0  0  0
    0.8258   -5.1288   -1.8498 C   0  0  0  0  0  0  0  0  0  0  0  0
   -0.1220   -4.1262   -2.0434 C   0  0  0  0  0  0  0  0  0  0  0  0
    0.1408   -2.7864   -1.6859 C   0  0  0  0  0  0  0  0  0  0  0  0
   -0.9316   -1.8196   -1.9258 C   0  0  0  0  0  0  0  0  0  0  0  0
   -2.2091   -2.0225   -2.1843 N   0  0  0  0  0  0  0  0  0  0  0  0
   -2.7871   -0.7774   -2.3197 N   0  0  0  0  0  0  0  0  0  0  0  0
   -1.8256    0.1041   -2.1437 C   0  0  0  0  0  0  0  0  0  0  0  0
   -2.0409    1.8236   -2.1673 S   0  0  0  0  0  0  0  0  0  0  0  0
   -3.4925    1.9621   -1.0827 C   0  0  0  0  0  0  0  0  0  0  0  0
   -3.1421    1.7253    0.3682 C   0  0  0  0  0  0  0  0  0  0  0  0
   -3.3398    0.4652    0.9549 C   0  0  0  0  0  0  0  0  0  0  0  0
   -2.9804    0.2383    2.2852 C   0  0  0  0  0  0  0  0  0  0  0  0
   -2.4240    1.2697    3.0378 C   0  0  0  0  0  0  0  0  0  0  0  0
   -1.9723    0.9884    4.6729 Cl  0  0  0  0  0  0  0  0  0  0  0  0
   -2.2258    2.5273    2.4730 C   0  0  0  0  0  0  0  0  0  0  0  0
   -2.5805    2.7540    1.1409 C   0  0  0  0  0  0  0  0  0  0  0  0
   -0.6161   -0.4852   -1.8945 O   0  0  0  0  0  0  0  0  0  0  0  0
    2.7726    0.8398    0.1602 C   0  0  0  0  0  0  0  0  0  0  0  0
    1.6074    1.4220    0.6789 C   0  0  0  0  0  0  0  0  0  0  0  0
    1.5893    2.7829    0.9911 C   0  0  0  0  0  0  0  0  0  0  0  0
    2.7297    3.5617    0.7960 C   0  0  0  0  0  0  0  0  0  0  0  0
    3.8955    2.9825    0.2964 C   0  0  0  0  0  0  0  0  0  0  0  0
    3.9199    1.6226   -0.0161 C   0  0  0  0  0  0  0  0  0  0  0  0
    0.9429   -0.4578   -0.9174 H   0  0  0  0  0  0  0  0  0  0  0  0
    3.3042   -3.3016   -0.4707 H   0  0  0  0  0  0  0  0  0  0  0  0
    2.7999   -5.5840   -1.1280 H   0  0  0  0  0  0  0  0  0  0  0  0
    0.6047   -6.1541   -2.1351 H   0  0  0  0  0  0  0  0  0  0  0  0
   -1.0817   -4.3979   -2.4834 H   0  0  0  0  0  0  0  0  0  0  0  0
   -4.2867    1.2815   -1.4110 H   0  0  0  0  0  0  0  0  0  0  0  0
   -3.9010    2.9737   -1.1906 H   0  0  0  0  0  0  0  0  0  0  0  0
   -3.7724   -0.3519    0.3790 H   0  0  0  0  0  0  0  0  0  0  0  0
   -3.1366   -0.7433    2.7258 H   0  0  0  0  0  0  0  0  0  0  0  0
   -1.7933    3.3322    3.0611 H   0  0  0  0  0  0  0  0  0  0  0  0
   -2.4133    3.7387    0.7076 H   0  0  0  0  0  0  0  0  0  0  0  0
    0.7176    0.8290    0.8749 H   0  0  0  0  0  0  0  0  0  0  0  0
    0.6896    3.2351    1.3995 H   0  0  0  0  0  0  0  0  0  0  0  0
    2.7141    4.6199    1.0455 H   0  0  0  0  0  0  0  0  0  0  0  0
    4.7877    3.5872    0.1551 H   0  0  0  0  0  0  0  0  0  0  0  0
    4.8341    1.1730   -0.3983 H   0  0  0  0  0  0  0  0  0  0  0  0
  1  2  2  0
  2  3  1  0
  3  4  1  0
  4  5  2  0
  5  6  1  0
  6  7  2  0
  7  8  1  0
  8  9  2  0
  9 10  1  0
 10 11  2  0
 11 12  1  0
 12 13  2  0
 13 14  1  0
 14 15  1  0
 15 16  1  0
 16 17  2  0
 17 18  1  0
 18 19  2  0
 19 20  1  0
 19 21  1  0
 21 22  2  0
 13 23  1  0
  2 24  1  0
 24 25  2  0
 25 26  1  0
 26 27  2  0
 27 28  1  0
 28 29  2  0
  9  4  1  0
 23 10  1  0
 29 24  1  0
 22 16  1  0
  3 30  1  0
  5 31  1  0
  6 32  1  0
  7 33  1  0
  8 34  1  0
 15 35  1  0
 15 36  1  0
 17 37  1  0
 18 38  1  0
 21 39  1  0
 22 40  1  0
 25 41  1  0
 26 42  1  0
 27 43  1  0
 28 44  1  0
 29 45  1  0
M  END
$$$$
