
     RDKit          3D

 28 30  0  0  0  0  0  0  0  0999 V2000
    2.6681    1.3643    2.0927 O   0  0  0  0  0  0  0  0  0  0  0  0
    2.3945    0.4786    1.2884 C   0  0  0  0  0  0  0  0  0  0  0  0
    1.0971   -0.2238    1.3736 C   0  0  0  0  0  0  0  0  0  0  0  0
    0.8059   -1.1995    0.4951 C   0  0  0  0  0  0  0  0  0  0  0  0
   -0.5207   -1.9431    0.5235 C   0  0  0  0  0  0  0  0  0  0  0  0
   -1.5500   -1.2354    1.2234 O   0  0  0  0  0  0  0  0  0  0  0  0
   -2.2931   -0.3174    0.5331 C   0  0  0  0  0  0  0  0  0  0  0  0
   -3.3869    0.1889    1.2400 C   0  0  0  0  0  0  0  0  0  0  0  0
   -4.2274    1.1446    0.6650 C   0  0  0  0  0  0  0  0  0  0  0  0
   -3.9754    1.6079   -0.6270 C   0  0  0  0  0  0  0  0  0  0  0  0
   -5.0495    2.7905   -1.2830 Cl  0  0  0  0  0  0  0  0  0  0  0  0
   -2.8775    1.1108   -1.3372 C   0  0  0  0  0  0  0  0  0  0  0  0
   -2.4962    1.6442   -2.9375 Cl  0  0  0  0  0  0  0  0  0  0  0  0
   -2.0373    0.1504   -0.7565 C   0  0  0  0  0  0  0  0  0  0  0  0
    1.6646   -1.5900   -0.5133 N   0  0  0  0  0  0  0  0  0  0  0  0
    2.7882   -0.9605   -0.5706 C   0  0  0  0  0  0  0  0  0  0  0  0
    4.0426   -1.2726   -1.7596 S   0  0  0  0  0  0  0  0  0  0  0  0
    5.0487   -0.0315   -1.0620 C   0  0  0  0  0  0  0  0  0  0  0  0
    4.4536    0.5520   -0.0152 C   0  0  0  0  0  0  0  0  0  0  0  0
    3.2026    0.0479    0.2673 N   0  0  0  0  0  0  0  0  0  0  0  0
    0.4274    0.0901    2.1643 H   0  0  0  0  0  0  0  0  0  0  0  0
   -0.8534   -2.2291   -0.4821 H   0  0  0  0  0  0  0  0  0  0  0  0
   -0.3646   -2.8847    1.0639 H   0  0  0  0  0  0  0  0  0  0  0  0
   -3.5891   -0.1656    2.2490 H   0  0  0  0  0  0  0  0  0  0  0  0
   -5.0747    1.5227    1.2320 H   0  0  0  0  0  0  0  0  0  0  0  0
   -1.1881   -0.2045   -1.3325 H   0  0  0  0  0  0  0  0  0  0  0  0
    6.0284    0.2151   -1.4483 H   0  0  0  0  0  0  0  0  0  0  0  0
    4.8622    1.3496    0.5929 H   0  0  0  0  0  0  0  0  0  0  0  0
  1  2  2  0
  2  3  1  0
  3  4  2  0
  4  5  1  0
  5  6  1  0
  6  7  1  0
  7  8  2  0
  8  9  1  0
  9 10  2  0
 10 11  1  0
 10 12  1  0
 12 13  1  0
 12 14  2  0
  4 15  1  0
 15 16  2  0
 16 17  1  0
 17 18  1  0
 18 19  2  0
 19 20  1  0
 20  2  1  0
 14  7  1  0
 20 16  1  0
  3 21  1  0
  5 22  1  0
  5 23  1  0
  8 24  1  0
  9 25  1  0
 14 26  1  0
 18 27  1  0
 19 28  1  0
M  END
$$$$
