
     RDKit          3D

 47 49  0  0  0  0  0  0  0  0999 V2000
    6.1837   -1.0202   -0.9529 C   0  0  0  0  0  0  0  0  0  0  0  0
    6.1345    0.1870   -0.0197 C   0  0  0  0  0  0  0  0  0  0  0  0
    7.0638    1.2902   -0.5140 C   0  0  0  0  0  0  0  0  0  0  0  0
    4.7788    0.6935    0.0939 N   0  0  0  0  0  0  0  0  0  0  0  0
    3.8444    0.1246    0.9338 C   0  0  0  0  0  0  0  0  0  0  0  0
    4.0448   -0.7764    1.7351 O   0  0  0  0  0  0  0  0  0  0  0  0
    2.4318    0.7211    0.7775 C   0  0  0  0  0  0  0  0  0  0  0  0
    2.2055    1.5851   -0.0623 O   0  0  0  0  0  0  0  0  0  0  0  0
    1.5032    0.1759    1.6407 N   0  0  0  0  0  0  0  0  0  0  0  0
    0.1415    0.4070    1.3703 N   0  0  0  0  0  0  0  0  0  0  0  0
   -0.6570   -0.7077    1.1843 C   0  0  0  0  0  0  0  0  0  0  0  0
   -0.2479   -1.8417    1.4333 O   0  0  0  0  0  0  0  0  0  0  0  0
   -2.0713   -0.4196    0.6580 C   0  0  0  0  0  0  0  0  0  0  0  0
   -2.8696   -1.7448    0.5483 C   0  0  0  0  0  0  0  0  0  0  0  0
   -4.2923   -1.4853    0.0284 C   0  0  0  0  0  0  0  0  0  0  0  0
   -5.0172   -0.5376    0.9967 C   0  0  0  0  0  0  0  0  0  0  0  0
   -4.2552    0.7936    1.1000 C   0  0  0  0  0  0  0  0  0  0  0  0
   -4.1718    1.4387   -0.2941 C   0  0  0  0  0  0  0  0  0  0  0  0
   -3.4425    0.4984   -1.2690 C   0  0  0  0  0  0  0  0  0  0  0  0
   -4.2098   -0.8304   -1.3596 C   0  0  0  0  0  0  0  0  0  0  0  0
   -2.0197    0.2313   -0.7456 C   0  0  0  0  0  0  0  0  0  0  0  0
   -2.8312    0.5262    1.6191 C   0  0  0  0  0  0  0  0  0  0  0  0
    7.2030   -1.4155   -1.0229 H   0  0  0  0  0  0  0  0  0  0  0  0
    5.5347   -1.8256   -0.5925 H   0  0  0  0  0  0  0  0  0  0  0  0
    5.8495   -0.7550   -1.9623 H   0  0  0  0  0  0  0  0  0  0  0  0
    6.4608   -0.1322    0.9772 H   0  0  0  0  0  0  0  0  0  0  0  0
    8.0983    0.9341   -0.5672 H   0  0  0  0  0  0  0  0  0  0  0  0
    6.7703    1.6401   -1.5108 H   0  0  0  0  0  0  0  0  0  0  0  0
    7.0375    2.1517    0.1611 H   0  0  0  0  0  0  0  0  0  0  0  0
    4.4184    1.3456   -0.5984 H   0  0  0  0  0  0  0  0  0  0  0  0
    1.7362   -0.7139    2.0916 H   0  0  0  0  0  0  0  0  0  0  0  0
   -0.0605    1.2777    0.8831 H   0  0  0  0  0  0  0  0  0  0  0  0
   -2.9207   -2.2385    1.5277 H   0  0  0  0  0  0  0  0  0  0  0  0
   -2.3544   -2.4444   -0.1239 H   0  0  0  0  0  0  0  0  0  0  0  0
   -4.8384   -2.4315   -0.0412 H   0  0  0  0  0  0  0  0  0  0  0  0
   -6.0413   -0.3566    0.6474 H   0  0  0  0  0  0  0  0  0  0  0  0
   -5.0966   -0.9997    1.9878 H   0  0  0  0  0  0  0  0  0  0  0  0
   -4.7785    1.4668    1.7881 H   0  0  0  0  0  0  0  0  0  0  0  0
   -5.1806    1.6549   -0.6665 H   0  0  0  0  0  0  0  0  0  0  0  0
   -3.6443    2.3986   -0.2325 H   0  0  0  0  0  0  0  0  0  0  0  0
   -3.3903    0.9623   -2.2601 H   0  0  0  0  0  0  0  0  0  0  0  0
   -5.2191   -0.6545   -1.7516 H   0  0  0  0  0  0  0  0  0  0  0  0
   -3.7082   -1.5050   -2.0651 H   0  0  0  0  0  0  0  0  0  0  0  0
   -1.4689    1.1794   -0.7171 H   0  0  0  0  0  0  0  0  0  0  0  0
   -1.4761   -0.4168   -1.4467 H   0  0  0  0  0  0  0  0  0  0  0  0
   -2.8754    0.0881    2.6247 H   0  0  0  0  0  0  0  0  0  0  0  0
   -2.3023    1.4812    1.7242 H   0  0  0  0  0  0  0  0  0  0  0  0
  1  2  1  0
  2  3  1  0
  2  4  1  0
  4  5  1  0
  5  6  2  0
  5  7  1  0
  7  8  2  0
  7  9  1  0
  9 10  1  0
 10 11  1  0
 11 12  2  0
 11 13  1  0
 13 14  1  0
 14 15  1  0
 15 16  1  0
 16 17  1  0
 17 18  1  0
 18 19  1  0
 19 20  1  0
 19 21  1  0
 17 22  1  0
 21 13  1  0
 22 13  1  0
 20 15  1  0
  1 23  1  0
  1 24  1  0
  1 25  1  0
  2 26  1  0
  3 27  1  0
  3 28  1  0
  3 29  1  0
  4 30  1  0
  9 31  1  0
 10 32  1  0
 14 33  1  0
 14 34  1  0
 15 35  1  0
 16 36  1  0
 16 37  1  0
 17 38  1  0
 18 39  1  0
 18 40  1  0
 19 41  1  0
 20 42  1  0
 20 43  1  0
 21 44  1  0
 21 45  1  0
 22 46  1  0
 22 47  1  0
M  END
$$$$
