
     RDKit          3D

 49 51  0  0  0  0  0  0  0  0999 V2000
   -0.7417    3.1283   -0.0683 C   0  0  0  0  0  0  0  0  0  0  0  0
   -0.9721    1.6456   -0.3368 C   0  0  0  0  0  0  0  0  0  0  0  0
   -1.6363    0.9114    0.8438 C   0  0  0  0  0  0  0  0  0  0  0  0
   -3.0899    1.3232    1.0890 C   0  0  0  0  0  0  0  0  0  0  0  0
   -1.4487   -0.5701    0.7777 N   0  0  0  0  0  0  0  0  0  0  0  0
   -0.6832   -1.2844    1.7217 C   0  0  0  0  0  0  0  0  0  0  0  0
   -0.7697   -2.5166    1.7947 O   0  0  0  0  0  0  0  0  0  0  0  0
    0.2243   -0.5671    2.6938 C   0  0  0  0  0  0  0  0  0  0  0  0
    1.3150    0.1030    2.0316 N   0  0  0  0  0  0  0  0  0  0  0  0
    1.5899    1.3954    2.2750 N   0  0  0  0  0  0  0  0  0  0  0  0
    2.6517    1.6600    1.5287 N   0  0  0  0  0  0  0  0  0  0  0  0
    2.9898    0.4925    0.8822 C   0  0  0  0  0  0  0  0  0  0  0  0
    4.1180    0.3906   -0.0343 C   0  0  0  0  0  0  0  0  0  0  0  0
    4.4224   -0.8271   -0.6666 C   0  0  0  0  0  0  0  0  0  0  0  0
    5.5037   -0.9198   -1.5470 C   0  0  0  0  0  0  0  0  0  0  0  0
    6.2821    0.2034   -1.7968 C   0  0  0  0  0  0  0  0  0  0  0  0
    7.3178    0.1146   -2.6409 F   0  0  0  0  0  0  0  0  0  0  0  0
    6.0011    1.4180   -1.1831 C   0  0  0  0  0  0  0  0  0  0  0  0
    4.9201    1.5126   -0.3022 C   0  0  0  0  0  0  0  0  0  0  0  0
    2.1595   -0.5199    1.1899 N   0  0  0  0  0  0  0  0  0  0  0  0
   -2.1976   -1.4249   -0.1806 C   0  0  0  0  0  0  0  0  0  0  0  0
   -2.5226   -0.8528   -1.5665 C   0  0  0  0  0  0  0  0  0  0  0  0
   -3.3140   -1.9436   -2.2771 C   0  0  0  0  0  0  0  0  0  0  0  0
   -4.3969   -2.6081   -1.0253 S   0  0  0  0  0  6  0  0  0  0  0  0
   -5.6662   -1.9143   -1.1087 O   0  0  0  0  0  0  0  0  0  0  0  0
   -4.3030   -4.0518   -1.0521 O   0  0  0  0  0  0  0  0  0  0  0  0
   -3.5080   -1.9818    0.3897 C   0  0  0  0  0  0  0  0  0  0  0  0
   -0.1493    3.2818    0.8383 H   0  0  0  0  0  0  0  0  0  0  0  0
   -1.6879    3.6659    0.0422 H   0  0  0  0  0  0  0  0  0  0  0  0
   -0.1994    3.5800   -0.9052 H   0  0  0  0  0  0  0  0  0  0  0  0
   -1.5748    1.5648   -1.2445 H   0  0  0  0  0  0  0  0  0  0  0  0
   -0.0041    1.1809   -0.5587 H   0  0  0  0  0  0  0  0  0  0  0  0
   -1.1168    1.2585    1.7377 H   0  0  0  0  0  0  0  0  0  0  0  0
   -3.4995    0.7871    1.9519 H   0  0  0  0  0  0  0  0  0  0  0  0
   -3.1626    2.3928    1.3101 H   0  0  0  0  0  0  0  0  0  0  0  0
   -3.7359    1.1240    0.2318 H   0  0  0  0  0  0  0  0  0  0  0  0
    0.6765   -1.3013    3.3704 H   0  0  0  0  0  0  0  0  0  0  0  0
   -0.3385    0.1382    3.3110 H   0  0  0  0  0  0  0  0  0  0  0  0
    3.8189   -1.7131   -0.4755 H   0  0  0  0  0  0  0  0  0  0  0  0
    5.7414   -1.8595   -2.0356 H   0  0  0  0  0  0  0  0  0  0  0  0
    6.6235    2.2825   -1.3920 H   0  0  0  0  0  0  0  0  0  0  0  0
    4.7110    2.4694    0.1732 H   0  0  0  0  0  0  0  0  0  0  0  0
   -1.5494   -2.2917   -0.3809 H   0  0  0  0  0  0  0  0  0  0  0  0
   -1.6184   -0.6012   -2.1292 H   0  0  0  0  0  0  0  0  0  0  0  0
   -3.1466    0.0415   -1.5016 H   0  0  0  0  0  0  0  0  0  0  0  0
   -3.9033   -1.5608   -3.1127 H   0  0  0  0  0  0  0  0  0  0  0  0
   -2.6580   -2.7495   -2.6190 H   0  0  0  0  0  0  0  0  0  0  0  0
   -3.3464   -2.7945    1.1017 H   0  0  0  0  0  0  0  0  0  0  0  0
   -4.1261   -1.2120    0.8553 H   0  0  0  0  0  0  0  0  0  0  0  0
  1  2  1  0
  2  3  1  0
  3  4  1  0
  3  5  1  0
  5  6  1  0
  6  7  2  0
  6  8  1  0
  8  9  1  0
  9 10  1  0
 10 11  2  0
 11 12  1  0
 12 13  1  0
 13 14  2  0
 14 15  1  0
 15 16  2  0
 16 17  1  0
 16 18  1  0
 18 19  2  0
 12 20  2  0
  5 21  1  0
 21 22  1  0
 22 23  1  0
 23 24  1  0
 24 25  2  0
 24 26  2  0
 24 27  1  0
 20  9  1  0
 27 21  1  0
 19 13  1  0
  1 28  1  0
  1 29  1  0
  1 30  1  0
  2 31  1  0
  2 32  1  0
  3 33  1  0
  4 34  1  0
  4 35  1  0
  4 36  1  0
  8 37  1  0
  8 38  1  0
 14 39  1  0
 15 40  1  0
 18 41  1  0
 19 42  1  0
 21 43  1  0
 22 44  1  0
 22 45  1  0
 23 46  1  0
 23 47  1  0
 27 48  1  0
 27 49  1  0
M  END
$$$$
