
     RDKit          3D

 35 37  0  0  0  0  0  0  0  0999 V2000
   -2.0990   -2.4465    0.5554 C   0  0  0  0  0  0  0  0  0  0  0  0
   -1.2553   -1.2386    0.3205 C   0  0  0  0  0  0  0  0  0  0  0  0
    0.0521   -1.2681    0.3852 N   0  0  0  0  0  0  0  0  0  0  0  0
    0.4653    0.0423    0.1626 N   0  0  0  0  0  0  0  0  0  0  0  0
    1.7975    0.3753    0.1771 C   0  0  0  0  0  0  0  0  0  0  0  0
    2.3689    1.5452   -0.0083 N   0  0  0  0  0  0  0  0  0  0  0  0
    3.7191    1.3232    0.1098 C   0  0  0  0  0  0  0  0  0  0  0  0
    4.7892    2.2229    0.0036 C   0  0  0  0  0  0  0  0  0  0  0  0
    6.0932    1.7378    0.1680 C   0  0  0  0  0  0  0  0  0  0  0  0
    6.3261    0.3853    0.4325 C   0  0  0  0  0  0  0  0  0  0  0  0
    5.2707   -0.5280    0.5421 C   0  0  0  0  0  0  0  0  0  0  0  0
    3.9830   -0.0160    0.3736 C   0  0  0  0  0  0  0  0  0  0  0  0
    2.7430   -0.5927    0.4103 N   0  0  0  0  0  0  0  0  0  0  0  0
   -0.5599    0.9679   -0.0529 C   0  0  0  0  0  0  0  0  0  0  0  0
   -0.5671    2.1670   -0.2596 O   0  0  0  0  0  0  0  0  0  0  0  0
   -1.7665    0.1049    0.0121 C   0  0  0  0  0  0  0  0  0  0  0  0
   -3.0013    0.5829   -0.1731 C   0  0  0  0  0  0  0  0  0  0  0  0
   -4.2350   -0.0649   -0.2177 N   0  0  0  0  0  0  0  0  0  0  0  0
   -5.4325    0.6986    0.1729 C   0  0  0  0  0  0  0  0  0  0  0  0
   -4.5145   -0.9846   -1.3332 C   0  0  0  0  0  0  0  0  0  0  0  0
   -2.2676   -2.9639   -0.3920 H   0  0  0  0  0  0  0  0  0  0  0  0
   -1.5772   -3.1282    1.2340 H   0  0  0  0  0  0  0  0  0  0  0  0
   -3.0541   -2.1808    1.0120 H   0  0  0  0  0  0  0  0  0  0  0  0
    4.5992    3.2705   -0.2016 H   0  0  0  0  0  0  0  0  0  0  0  0
    6.9320    2.4252    0.0882 H   0  0  0  0  0  0  0  0  0  0  0  0
    7.3490    0.0350    0.5560 H   0  0  0  0  0  0  0  0  0  0  0  0
    5.4517   -1.5772    0.7475 H   0  0  0  0  0  0  0  0  0  0  0  0
    2.5177   -1.5611    0.5786 H   0  0  0  0  0  0  0  0  0  0  0  0
   -3.1131    1.6625   -0.2990 H   0  0  0  0  0  0  0  0  0  0  0  0
   -5.2584    1.2269    1.1168 H   0  0  0  0  0  0  0  0  0  0  0  0
   -6.2840    0.0265    0.3239 H   0  0  0  0  0  0  0  0  0  0  0  0
   -5.6943    1.4318   -0.5978 H   0  0  0  0  0  0  0  0  0  0  0  0
   -4.8919   -0.4308   -2.2001 H   0  0  0  0  0  0  0  0  0  0  0  0
   -3.6197   -1.5280   -1.6499 H   0  0  0  0  0  0  0  0  0  0  0  0
   -5.2661   -1.7222   -1.0332 H   0  0  0  0  0  0  0  0  0  0  0  0
  1  2  1  0
  2  3  2  0
  3  4  1  0
  4  5  1  0
  5  6  2  0
  6  7  1  0
  7  8  2  0
  8  9  1  0
  9 10  2  0
 10 11  1  0
 11 12  2  0
 12 13  1  0
  4 14  1  0
 14 15  2  0
 14 16  1  0
 16 17  2  3
 17 18  1  0
 18 19  1  0
 18 20  1  0
 16  2  1  0
 13  5  1  0
 12  7  1  0
  1 21  1  0
  1 22  1  0
  1 23  1  0
  8 24  1  0
  9 25  1  0
 10 26  1  0
 11 27  1  0
 13 28  1  0
 17 29  1  0
 19 30  1  0
 19 31  1  0
 19 32  1  0
 20 33  1  0
 20 34  1  0
 20 35  1  0
M  END
$$$$
