
     RDKit          3D

 54 59  0  0  0  0  0  0  0  0999 V2000
    5.1153   -1.9382   -1.4912 C   0  0  0  0  0  0  0  0  0  0  0  0
    5.2952   -0.5700   -0.8920 C   0  0  0  0  0  0  0  0  0  0  0  0
    6.1194    0.3661   -1.5353 C   0  0  0  0  0  0  0  0  0  0  0  0
    6.2951    1.6398   -0.9994 C   0  0  0  0  0  0  0  0  0  0  0  0
    5.6486    1.9876    0.1821 C   0  0  0  0  0  0  0  0  0  0  0  0
    4.8254    1.0639    0.8325 C   0  0  0  0  0  0  0  0  0  0  0  0
    4.6416   -0.2170    0.3043 C   0  0  0  0  0  0  0  0  0  0  0  0
    3.8637   -1.1991    0.8571 O   0  0  0  0  0  0  0  0  0  0  0  0
    3.1167   -0.9159    2.0475 C   0  0  0  0  0  0  0  0  0  0  0  0
    1.8416   -0.1753    1.7959 C   0  0  0  0  0  0  0  0  0  0  0  0
    0.7980   -0.7274    1.0846 N   0  0  0  0  0  0  0  0  0  0  0  0
   -0.1068    0.2282    1.0592 C   0  0  0  0  0  0  0  0  0  0  0  0
   -1.4180    0.3560    0.4916 C   0  0  0  0  0  0  0  0  0  0  0  0
   -2.0640    1.5310    0.7672 C   0  0  0  0  0  0  0  0  0  0  0  0
   -1.5287    2.5860    1.5050 N   0  0  0  0  0  0  0  0  0  0  0  0
   -0.3309    2.4509    1.9851 C   0  0  0  0  0  0  0  0  0  0  0  0
    0.3737    1.2889    1.7700 N   0  0  0  0  0  0  0  0  0  0  0  0
    1.6065    1.0625    2.2633 N   0  0  0  0  0  0  0  0  0  0  0  0
   -3.4608    1.7320    0.2884 C   0  0  0  0  0  0  0  0  0  0  0  0
   -4.2816    2.7333    0.8336 C   0  0  0  0  0  0  0  0  0  0  0  0
   -5.5862    2.9272    0.3733 C   0  0  0  0  0  0  0  0  0  0  0  0
   -6.0888    2.1266   -0.6469 C   0  0  0  0  0  0  0  0  0  0  0  0
   -5.2884    1.1321   -1.2041 C   0  0  0  0  0  0  0  0  0  0  0  0
   -3.9827    0.9260   -0.7327 C   0  0  0  0  0  0  0  0  0  0  0  0
   -3.1045   -0.1186   -1.3594 C   0  0  0  0  0  0  0  0  0  0  0  0
   -2.1063   -0.7461   -0.3451 C   0  0  0  0  0  0  0  0  0  0  0  0
   -1.1611   -1.6839   -1.1368 C   0  0  0  0  0  0  0  0  0  0  0  0
   -1.9866   -2.9401   -1.4096 C   0  0  0  0  0  0  0  0  0  0  0  0
   -2.9880   -3.0343   -0.2602 C   0  0  0  0  0  0  0  0  0  0  0  0
   -2.8028   -1.7694    0.5797 C   0  0  0  0  0  0  0  0  0  0  0  0
    4.0615   -2.1104   -1.7329 H   0  0  0  0  0  0  0  0  0  0  0  0
    5.6904   -2.0508   -2.4162 H   0  0  0  0  0  0  0  0  0  0  0  0
    5.4595   -2.7068   -0.7917 H   0  0  0  0  0  0  0  0  0  0  0  0
    6.6284    0.1061   -2.4606 H   0  0  0  0  0  0  0  0  0  0  0  0
    6.9342    2.3594   -1.5041 H   0  0  0  0  0  0  0  0  0  0  0  0
    5.7822    2.9816    0.6013 H   0  0  0  0  0  0  0  0  0  0  0  0
    4.3428    1.3871    1.7484 H   0  0  0  0  0  0  0  0  0  0  0  0
    3.7423   -0.4309    2.8061 H   0  0  0  0  0  0  0  0  0  0  0  0
    2.8496   -1.8905    2.4739 H   0  0  0  0  0  0  0  0  0  0  0  0
    0.1411    3.2526    2.5738 H   0  0  0  0  0  0  0  0  0  0  0  0
   -3.9080    3.3764    1.6278 H   0  0  0  0  0  0  0  0  0  0  0  0
   -6.2037    3.7077    0.8097 H   0  0  0  0  0  0  0  0  0  0  0  0
   -7.1007    2.2805   -1.0119 H   0  0  0  0  0  0  0  0  0  0  0  0
   -5.6864    0.5186   -2.0093 H   0  0  0  0  0  0  0  0  0  0  0  0
   -2.5520    0.3657   -2.1765 H   0  0  0  0  0  0  0  0  0  0  0  0
   -3.7348   -0.8886   -1.8193 H   0  0  0  0  0  0  0  0  0  0  0  0
   -0.7864   -1.2341   -2.0625 H   0  0  0  0  0  0  0  0  0  0  0  0
   -0.2909   -1.9937   -0.5539 H   0  0  0  0  0  0  0  0  0  0  0  0
   -2.5155   -2.8548   -2.3657 H   0  0  0  0  0  0  0  0  0  0  0  0
   -1.3527   -3.8307   -1.4697 H   0  0  0  0  0  0  0  0  0  0  0  0
   -4.0089   -3.0934   -0.6540 H   0  0  0  0  0  0  0  0  0  0  0  0
   -2.8216   -3.9314    0.3454 H   0  0  0  0  0  0  0  0  0  0  0  0
   -3.7590   -1.4136    0.9780 H   0  0  0  0  0  0  0  0  0  0  0  0
   -2.1658   -2.0091    1.4415 H   0  0  0  0  0  0  0  0  0  0  0  0
  1  2  1  0
  2  3  2  0
  3  4  1  0
  4  5  2  0
  5  6  1  0
  6  7  2  0
  7  8  1  0
  8  9  1  0
  9 10  1  0
 10 11  1  0
 11 12  2  0
 12 13  1  0
 13 14  2  0
 14 15  1  0
 15 16  2  0
 16 17  1  0
 17 18  1  0
 14 19  1  0
 19 20  2  0
 20 21  1  0
 21 22  2  0
 22 23  1  0
 23 24  2  0
 24 25  1  0
 25 26  1  0
 26 27  1  0
 27 28  1  0
 28 29  1  0
 29 30  1  0
  7  2  1  0
 18 10  2  0
 24 19  1  0
 30 26  1  0
 17 12  1  0
 26 13  1  0
  1 31  1  0
  1 32  1  0
  1 33  1  0
  3 34  1  0
  4 35  1  0
  5 36  1  0
  6 37  1  0
  9 38  1  0
  9 39  1  0
 16 40  1  0
 20 41  1  0
 21 42  1  0
 22 43  1  0
 23 44  1  0
 25 45  1  0
 25 46  1  0
 27 47  1  0
 27 48  1  0
 28 49  1  0
 28 50  1  0
 29 51  1  0
 29 52  1  0
 30 53  1  0
 30 54  1  0
M  END
$$$$
