
     RDKit          3D

 45 48  0  0  0  0  0  0  0  0999 V2000
   -0.6020   -2.3154   -3.7238 O   0  0  0  0  0  0  0  0  0  0  0  0
    0.5689   -1.9988   -3.7450 C   0  0  0  0  0  0  0  0  0  0  0  0
    1.4312   -2.5631   -4.6098 O   0  0  0  0  0  0  0  0  0  0  0  0
    1.2909   -1.0241   -2.9115 C   0  0  0  0  0  0  0  0  0  0  0  0
    0.7868   -0.1865   -1.9917 C   0  0  0  0  0  0  0  0  0  0  0  0
   -0.5628    0.0409   -1.5969 C   0  0  0  0  0  0  0  0  0  0  0  0
   -1.6653    0.0953   -2.4164 C   0  0  0  0  0  0  0  0  0  0  0  0
   -2.7580    0.3570   -1.6190 N   0  0  0  0  0  0  0  0  0  0  0  0
   -4.1237    0.4588   -2.0105 C   0  0  0  0  0  0  0  0  0  0  0  0
   -4.5197    0.2321   -3.3362 C   0  0  0  0  0  0  0  0  0  0  0  0
   -5.8676    0.3401   -3.6925 C   0  0  0  0  0  0  0  0  0  0  0  0
   -6.8240    0.6719   -2.7344 C   0  0  0  0  0  0  0  0  0  0  0  0
   -6.4383    0.8949   -1.4145 C   0  0  0  0  0  0  0  0  0  0  0  0
   -5.0941    0.7882   -1.0508 C   0  0  0  0  0  0  0  0  0  0  0  0
   -2.3904    0.5467   -0.3251 N   0  0  0  0  0  0  0  0  0  0  0  0
   -1.0682    0.3427   -0.3105 C   0  0  0  0  0  0  0  0  0  0  0  0
   -0.2472    0.4434    1.0204 C   0  0  0  0  0  0  0  0  0  0  0  0
   -0.7682    0.7461    2.2618 C   0  0  0  0  0  0  0  0  0  0  0  0
    0.3147    0.7304    3.1740 C   0  0  0  0  0  0  0  0  0  0  0  0
    1.4436    0.4144    2.4440 C   0  0  0  0  0  0  0  0  0  0  0  0
    2.8578    0.2391    2.7697 C   0  0  0  0  0  0  0  0  0  0  0  0
    3.7712   -0.2342    1.8121 C   0  0  0  0  0  0  0  0  0  0  0  0
    5.1251   -0.4037    2.1236 C   0  0  0  0  0  0  0  0  0  0  0  0
    5.5788   -0.0973    3.4107 C   0  0  0  0  0  0  0  0  0  0  0  0
    6.9976   -0.2716    3.7452 N   0  0  0  0  0  4  0  0  0  0  0  0
    7.7538   -0.6832    2.8538 O   0  0  0  0  0  0  0  0  0  0  0  0
    7.3556    0.0037    4.8993 O   0  0  0  0  0  1  0  0  0  0  0  0
    4.6879    0.3744    4.3811 C   0  0  0  0  0  0  0  0  0  0  0  0
    3.3359    0.5390    4.0561 C   0  0  0  0  0  0  0  0  0  0  0  0
    1.0997    0.2429    1.1323 O   0  0  0  0  0  0  0  0  0  0  0  0
    0.8755   -3.1992   -5.1072 H   0  0  0  0  0  0  0  0  0  0  0  0
    2.3675   -1.0301   -3.0595 H   0  0  0  0  0  0  0  0  0  0  0  0
    1.5239    0.4061   -1.4490 H   0  0  0  0  0  0  0  0  0  0  0  0
   -1.7602   -0.0386   -3.4824 H   0  0  0  0  0  0  0  0  0  0  0  0
   -3.8119   -0.0394   -4.1131 H   0  0  0  0  0  0  0  0  0  0  0  0
   -6.1719    0.1609   -4.7209 H   0  0  0  0  0  0  0  0  0  0  0  0
   -7.8708    0.7535   -3.0158 H   0  0  0  0  0  0  0  0  0  0  0  0
   -7.1829    1.1510   -0.6651 H   0  0  0  0  0  0  0  0  0  0  0  0
   -4.8176    0.9661   -0.0132 H   0  0  0  0  0  0  0  0  0  0  0  0
   -1.8091    0.9513    2.4719 H   0  0  0  0  0  0  0  0  0  0  0  0
    0.2673    0.9221    4.2363 H   0  0  0  0  0  0  0  0  0  0  0  0
    3.4329   -0.4820    0.8073 H   0  0  0  0  0  0  0  0  0  0  0  0
    5.8023   -0.7736    1.3565 H   0  0  0  0  0  0  0  0  0  0  0  0
    5.0237    0.6180    5.3872 H   0  0  0  0  0  0  0  0  0  0  0  0
    2.6612    0.9098    4.8251 H   0  0  0  0  0  0  0  0  0  0  0  0
  1  2  2  0
  2  3  1  0
  2  4  1  0
  4  5  2  3
  5  6  1  0
  6  7  2  0
  7  8  1  0
  8  9  1  0
  9 10  2  0
 10 11  1  0
 11 12  2  0
 12 13  1  0
 13 14  2  0
  8 15  1  0
 15 16  2  0
 16 17  1  0
 17 18  2  0
 18 19  1  0
 19 20  2  0
 20 21  1  0
 21 22  2  0
 22 23  1  0
 23 24  2  0
 24 25  1  0
 25 26  2  0
 25 27  1  0
 24 28  1  0
 28 29  2  0
 20 30  1  0
 16  6  1  0
 30 17  1  0
 14  9  1  0
 29 21  1  0
  3 31  1  0
  4 32  1  0
  5 33  1  0
  7 34  1  0
 10 35  1  0
 11 36  1  0
 12 37  1  0
 13 38  1  0
 14 39  1  0
 18 40  1  0
 19 41  1  0
 22 42  1  0
 23 43  1  0
 28 44  1  0
 29 45  1  0
M  CHG  2  25   1  27  -1
M  END
$$$$
