
     RDKit          3D

 40 41  0  0  0  0  0  0  0  0999 V2000
   -3.4979   -0.7266    3.1642 C   0  0  0  0  0  0  0  0  0  0  0  0
   -3.9653    0.0239    1.9710 C   0  0  0  0  0  0  0  0  0  0  0  0
   -5.2061    0.5244    1.9500 N   0  0  0  0  0  0  0  0  0  0  0  0
   -5.2948    1.1429    0.7635 N   0  0  0  0  0  0  0  0  0  0  0  0
   -6.5231    1.8217    0.4195 C   0  0  0  0  0  0  0  0  0  0  0  0
   -4.1602    1.0343    0.0002 C   0  0  0  0  0  0  0  0  0  0  0  0
   -4.0464    1.6320   -1.3555 C   0  0  0  0  0  0  0  0  0  0  0  0
   -3.2572    0.3128    0.7705 C   0  0  0  0  0  0  0  0  0  0  0  0
   -1.9047   -0.0368    0.3867 C   0  0  0  0  0  0  0  0  0  0  0  0
   -1.1744   -0.7280    1.2021 N   0  0  0  0  0  0  0  0  0  0  0  0
    0.1179   -1.0251    0.8473 N   0  0  0  0  0  0  0  0  0  0  0  0
    0.9595   -0.1971    0.1090 C   0  0  0  0  0  0  0  0  0  0  0  0
    0.6376    0.8479   -0.4475 O   0  0  0  0  0  0  0  0  0  0  0  0
    2.3636   -0.7516    0.0361 C   0  0  0  0  0  0  0  0  0  0  0  0
    3.2902    0.2206   -0.6800 C   0  0  0  0  0  0  0  0  0  0  0  0
    4.6299   -0.3184   -0.8323 N   0  0  0  0  0  0  0  0  0  0  0  0
    5.2793   -0.5811   -2.0039 C   0  0  0  0  0  0  0  0  0  0  0  0
    6.5189   -1.0688   -1.6422 C   0  0  0  0  0  0  0  0  0  0  0  0
    7.5718   -1.4853   -2.5126 N   0  0  0  0  0  4  0  0  0  0  0  0
    7.3611   -1.4099   -3.7296 O   0  0  0  0  0  0  0  0  0  0  0  0
    8.6099   -1.8919   -1.9765 O   0  0  0  0  0  1  0  0  0  0  0  0
    6.5160   -1.0652   -0.2369 C   0  0  0  0  0  0  0  0  0  0  0  0
    5.3602   -0.6127    0.2629 N   0  0  0  0  0  0  0  0  0  0  0  0
   -2.6238   -0.2386    3.6068 H   0  0  0  0  0  0  0  0  0  0  0  0
   -3.2290   -1.7520    2.8920 H   0  0  0  0  0  0  0  0  0  0  0  0
   -4.2748   -0.7795    3.9344 H   0  0  0  0  0  0  0  0  0  0  0  0
   -6.2797    2.8012    0.0009 H   0  0  0  0  0  0  0  0  0  0  0  0
   -7.1321    1.9510    1.3182 H   0  0  0  0  0  0  0  0  0  0  0  0
   -7.0567    1.2095   -0.3114 H   0  0  0  0  0  0  0  0  0  0  0  0
   -4.9534    1.4544   -1.9424 H   0  0  0  0  0  0  0  0  0  0  0  0
   -3.8871    2.7124   -1.2811 H   0  0  0  0  0  0  0  0  0  0  0  0
   -3.2105    1.2038   -1.9160 H   0  0  0  0  0  0  0  0  0  0  0  0
   -1.5713    0.2818   -0.6126 H   0  0  0  0  0  0  0  0  0  0  0  0
    0.5501   -1.7036    1.4698 H   0  0  0  0  0  0  0  0  0  0  0  0
    2.3312   -1.7101   -0.4957 H   0  0  0  0  0  0  0  0  0  0  0  0
    2.7208   -0.9408    1.0554 H   0  0  0  0  0  0  0  0  0  0  0  0
    2.9143    0.4599   -1.6817 H   0  0  0  0  0  0  0  0  0  0  0  0
    3.3862    1.1624   -0.1268 H   0  0  0  0  0  0  0  0  0  0  0  0
    4.8281   -0.4014   -2.9708 H   0  0  0  0  0  0  0  0  0  0  0  0
    7.3015   -1.3723    0.4431 H   0  0  0  0  0  0  0  0  0  0  0  0
  1  2  1  0
  2  3  2  0
  3  4  1  0
  4  5  1  0
  4  6  1  0
  6  7  1  0
  6  8  2  0
  8  9  1  0
  9 10  2  3
 10 11  1  0
 11 12  1  0
 12 13  2  0
 12 14  1  0
 14 15  1  0
 15 16  1  0
 16 17  1  0
 17 18  2  0
 18 19  1  0
 19 20  2  0
 19 21  1  0
 18 22  1  0
 22 23  2  0
  8  2  1  0
 23 16  1  0
  1 24  1  0
  1 25  1  0
  1 26  1  0
  5 27  1  0
  5 28  1  0
  5 29  1  0
  7 30  1  0
  7 31  1  0
  7 32  1  0
  9 33  1  0
 11 34  1  0
 14 35  1  0
 14 36  1  0
 15 37  1  0
 15 38  1  0
 17 39  1  0
 22 40  1  0
M  CHG  2  19   1  21  -1
M  END
$$$$
