
     RDKit          3D

 52 56  0  0  0  0  0  0  0  0999 V2000
   -2.8252    2.2970   -0.1974 C   0  0  0  0  0  0  0  0  0  0  0  0
   -1.3729    1.8562   -0.0545 C   0  0  0  0  0  0  0  0  0  0  0  0
   -1.2039    0.3482   -0.2778 C   0  0  0  0  0  0  0  0  0  0  0  0
   -1.9541   -0.5360    0.6919 C   0  0  0  0  0  0  0  0  0  0  0  0
   -3.0412   -0.9993    0.3689 O   0  0  0  0  0  0  0  0  0  0  0  0
   -1.4116   -0.8078    2.0558 C   0  0  0  0  0  0  0  0  0  0  0  0
   -0.3021   -0.1362    2.5852 C   0  0  0  0  0  0  0  0  0  0  0  0
    0.1498   -0.4289    3.8770 C   0  0  0  0  0  0  0  0  0  0  0  0
   -0.5054   -1.3903    4.6447 C   0  0  0  0  0  0  0  0  0  0  0  0
    0.0547   -1.7432    6.2311 Cl  0  0  0  0  0  0  0  0  0  0  0  0
   -1.6103   -2.0645    4.1321 C   0  0  0  0  0  0  0  0  0  0  0  0
   -2.0627   -1.7726    2.8413 C   0  0  0  0  0  0  0  0  0  0  0  0
   -1.1358   -0.0391   -1.7553 C   0  0  0  0  0  0  0  0  0  0  0  0
   -1.7588   -1.2734   -2.3257 C   0  0  0  0  0  0  0  0  0  0  0  0
   -2.9165   -1.2220   -3.1155 C   0  0  0  0  0  0  0  0  0  0  0  0
   -3.4656   -2.3816   -3.6727 C   0  0  0  0  0  0  0  0  0  0  0  0
   -2.8631   -3.6186   -3.4506 C   0  0  0  0  0  0  0  0  0  0  0  0
   -1.7166   -3.6964   -2.6656 C   0  0  0  0  0  0  0  0  0  0  0  0
   -1.1864   -2.5286   -2.1151 C   0  0  0  0  0  0  0  0  0  0  0  0
   -0.0548   -2.6845   -1.2884 O   0  0  0  0  0  0  0  0  0  0  0  0
    0.5031   -1.6338   -0.5618 C   0  0  0  0  0  0  0  0  0  0  0  0
    1.3107   -1.8291    0.3421 O   0  0  0  0  0  0  0  0  0  0  0  0
    0.1079   -0.2292   -0.9080 C   0  0  0  0  0  0  0  0  0  0  0  0
    1.2533    0.7339   -1.1174 C   0  0  0  0  0  0  0  0  0  0  0  0
    1.2387    1.4813   -2.0866 O   0  0  0  0  0  0  0  0  0  0  0  0
    2.2114    0.6918   -0.1234 N   0  0  0  0  0  0  0  0  0  0  0  0
    3.3250    1.5383    0.0410 C   0  0  0  0  0  0  0  0  0  0  0  0
    3.5823    2.6558   -0.7544 C   0  0  0  0  0  0  0  0  0  0  0  0
    4.7026    3.4566   -0.5069 C   0  0  0  0  0  0  0  0  0  0  0  0
    5.5712    3.1478    0.5378 C   0  0  0  0  0  0  0  0  0  0  0  0
    5.3235    2.0341    1.3349 C   0  0  0  0  0  0  0  0  0  0  0  0
    4.2051    1.2338    1.0876 C   0  0  0  0  0  0  0  0  0  0  0  0
   -3.4609    1.8347    0.5662 H   0  0  0  0  0  0  0  0  0  0  0  0
   -3.2267    2.0264   -1.1804 H   0  0  0  0  0  0  0  0  0  0  0  0
   -2.9019    3.3824   -0.0847 H   0  0  0  0  0  0  0  0  0  0  0  0
   -0.7745    2.4341   -0.7674 H   0  0  0  0  0  0  0  0  0  0  0  0
   -1.0142    2.1328    0.9423 H   0  0  0  0  0  0  0  0  0  0  0  0
    0.2316    0.6227    2.0233 H   0  0  0  0  0  0  0  0  0  0  0  0
    1.0134    0.0959    4.2783 H   0  0  0  0  0  0  0  0  0  0  0  0
   -2.1238   -2.8149    4.7261 H   0  0  0  0  0  0  0  0  0  0  0  0
   -2.9310   -2.3032    2.4516 H   0  0  0  0  0  0  0  0  0  0  0  0
   -1.1075    0.7918   -2.4617 H   0  0  0  0  0  0  0  0  0  0  0  0
   -3.4037   -0.2661   -3.2970 H   0  0  0  0  0  0  0  0  0  0  0  0
   -4.3670   -2.3167   -4.2765 H   0  0  0  0  0  0  0  0  0  0  0  0
   -3.2942   -4.5198   -3.8794 H   0  0  0  0  0  0  0  0  0  0  0  0
   -1.2490   -4.6578   -2.4732 H   0  0  0  0  0  0  0  0  0  0  0  0
    2.1545   -0.0911    0.5266 H   0  0  0  0  0  0  0  0  0  0  0  0
    2.9313    2.9365   -1.5761 H   0  0  0  0  0  0  0  0  0  0  0  0
    4.8939    4.3244   -1.1336 H   0  0  0  0  0  0  0  0  0  0  0  0
    6.4410    3.7731    0.7275 H   0  0  0  0  0  0  0  0  0  0  0  0
    5.9998    1.7875    2.1495 H   0  0  0  0  0  0  0  0  0  0  0  0
    4.0364    0.3675    1.7228 H   0  0  0  0  0  0  0  0  0  0  0  0
  1  2  1  0
  2  3  1  0
  3  4  1  0
  4  5  2  0
  4  6  1  0
  6  7  2  0
  7  8  1  0
  8  9  2  0
  9 10  1  0
  9 11  1  0
 11 12  2  0
  3 13  1  0
 13 14  1  0
 14 15  2  0
 15 16  1  0
 16 17  2  0
 17 18  1  0
 18 19  2  0
 19 20  1  0
 20 21  1  0
 21 22  2  0
 21 23  1  0
 23 24  1  0
 24 25  2  0
 24 26  1  0
 26 27  1  0
 27 28  2  0
 28 29  1  0
 29 30  2  0
 30 31  1  0
 31 32  2  0
 23  3  1  0
 32 27  1  0
 12  6  1  0
 23 13  1  0
 19 14  1  0
  1 33  1  0
  1 34  1  0
  1 35  1  0
  2 36  1  0
  2 37  1  0
  7 38  1  0
  8 39  1  0
 11 40  1  0
 12 41  1  0
 13 42  1  0
 15 43  1  0
 16 44  1  0
 17 45  1  0
 18 46  1  0
 26 47  1  0
 28 48  1  0
 29 49  1  0
 30 50  1  0
 31 51  1  0
 32 52  1  0
M  END
$$$$
