
     RDKit          3D

 43 45  0  0  0  0  0  0  0  0999 V2000
    3.1321   -3.1435   -0.1635 C   0  0  0  0  0  0  0  0  0  0  0  0
    3.9076   -1.9543   -0.1110 O   0  0  0  0  0  0  0  0  0  0  0  0
    3.2593   -0.7698    0.1343 C   0  0  0  0  0  0  0  0  0  0  0  0
    1.8677   -0.6403    0.2466 C   0  0  0  0  0  0  0  0  0  0  0  0
    1.2707    0.6096    0.4958 C   0  0  0  0  0  0  0  0  0  0  0  0
   -0.2005    0.6559    0.6306 C   0  0  0  0  0  0  0  0  0  0  0  0
   -0.7654    0.7005    1.9441 C   0  0  0  0  0  0  0  0  0  0  0  0
   -1.1778    0.7339    3.0278 N   0  0  0  0  0  0  0  0  0  0  0  0
   -0.9452    0.6391   -0.4920 C   0  0  0  0  0  0  0  0  0  0  0  0
   -2.4168    0.6888   -0.5188 C   0  0  0  0  0  0  0  0  0  0  0  0
   -3.0281    1.9331   -0.3021 C   0  0  0  0  0  0  0  0  0  0  0  0
   -4.4139    2.0463   -0.3099 C   0  0  0  0  0  0  0  0  0  0  0  0
   -5.2007    0.9196   -0.5378 C   0  0  0  0  0  0  0  0  0  0  0  0
   -4.6160   -0.3363   -0.7634 C   0  0  0  0  0  0  0  0  0  0  0  0
   -5.4245   -1.4617   -0.9933 C   0  0  0  0  0  0  0  0  0  0  0  0
   -4.8614   -2.7169   -1.2194 C   0  0  0  0  0  0  0  0  0  0  0  0
   -3.4807   -2.8642   -1.2189 C   0  0  0  0  0  0  0  0  0  0  0  0
   -2.6625   -1.7555   -0.9913 C   0  0  0  0  0  0  0  0  0  0  0  0
   -3.2049   -0.4691   -0.7582 C   0  0  0  0  0  0  0  0  0  0  0  0
    2.1138    1.7262    0.6236 C   0  0  0  0  0  0  0  0  0  0  0  0
    1.5721    3.0607    0.8548 N   0  0  0  0  0  4  0  0  0  0  0  0
    0.6219    3.4240    0.1499 O   0  0  0  0  0  0  0  0  0  0  0  0
    2.1247    3.7495    1.7222 O   0  0  0  0  0  1  0  0  0  0  0  0
    3.5093    1.6132    0.5184 C   0  0  0  0  0  0  0  0  0  0  0  0
    4.0851    0.3655    0.2742 C   0  0  0  0  0  0  0  0  0  0  0  0
    5.4336    0.1477    0.1465 O   0  0  0  0  0  0  0  0  0  0  0  0
    6.3120    1.2361    0.3993 C   0  0  0  0  0  0  0  0  0  0  0  0
    2.4341   -3.1205   -1.0066 H   0  0  0  0  0  0  0  0  0  0  0  0
    2.6068   -3.3157    0.7816 H   0  0  0  0  0  0  0  0  0  0  0  0
    3.8165   -3.9826   -0.3215 H   0  0  0  0  0  0  0  0  0  0  0  0
    1.2241   -1.5109    0.1489 H   0  0  0  0  0  0  0  0  0  0  0  0
   -0.4853    0.5995   -1.4777 H   0  0  0  0  0  0  0  0  0  0  0  0
   -2.4269    2.8237   -0.1245 H   0  0  0  0  0  0  0  0  0  0  0  0
   -4.8821    3.0118   -0.1359 H   0  0  0  0  0  0  0  0  0  0  0  0
   -6.2833    1.0303   -0.5370 H   0  0  0  0  0  0  0  0  0  0  0  0
   -6.5087   -1.3678   -0.9966 H   0  0  0  0  0  0  0  0  0  0  0  0
   -5.5029   -3.5766   -1.3943 H   0  0  0  0  0  0  0  0  0  0  0  0
   -3.0379   -3.8411   -1.3943 H   0  0  0  0  0  0  0  0  0  0  0  0
   -1.5866   -1.9088   -0.9983 H   0  0  0  0  0  0  0  0  0  0  0  0
    4.1206    2.5052    0.6219 H   0  0  0  0  0  0  0  0  0  0  0  0
    6.1831    1.6217    1.4160 H   0  0  0  0  0  0  0  0  0  0  0  0
    6.1793    2.0281   -0.3448 H   0  0  0  0  0  0  0  0  0  0  0  0
    7.3378    0.8656    0.3112 H   0  0  0  0  0  0  0  0  0  0  0  0
  1  2  1  0
  2  3  1  0
  3  4  2  0
  4  5  1  0
  5  6  1  0
  6  7  1  0
  7  8  3  0
  6  9  2  3
  9 10  1  0
 10 11  2  0
 11 12  1  0
 12 13  2  0
 13 14  1  0
 14 15  2  0
 15 16  1  0
 16 17  2  0
 17 18  1  0
 18 19  2  0
  5 20  2  0
 20 21  1  0
 21 22  2  0
 21 23  1  0
 20 24  1  0
 24 25  2  0
 25 26  1  0
 26 27  1  0
 25  3  1  0
 19 10  1  0
 19 14  1  0
  1 28  1  0
  1 29  1  0
  1 30  1  0
  4 31  1  0
  9 32  1  0
 11 33  1  0
 12 34  1  0
 13 35  1  0
 15 36  1  0
 16 37  1  0
 17 38  1  0
 18 39  1  0
 24 40  1  0
 27 41  1  0
 27 42  1  0
 27 43  1  0
M  CHG  2  21   1  23  -1
M  END
$$$$
