
     RDKit          3D

 70 72  0  0  0  0  0  0  0  0999 V2000
   -2.5541   -0.9439    3.6442 C   0  0  0  0  0  0  0  0  0  0  0  0
   -3.3179   -0.4677    2.3800 C   0  0  0  0  0  0  0  0  0  0  0  0
   -4.4807   -1.4670    2.1863 C   0  0  0  0  0  0  0  0  0  0  0  0
   -3.8770    0.9312    2.7208 C   0  0  0  0  0  0  0  0  0  0  0  0
   -2.4364   -0.4045    1.1084 C   0  0  0  0  0  0  0  0  0  0  0  0
   -1.0672   -0.7166    1.1656 C   0  0  0  0  0  0  0  0  0  0  0  0
   -0.2426   -0.6724    0.0308 C   0  0  0  0  0  0  0  0  0  0  0  0
    1.2487   -1.0258    0.1546 C   0  0  0  0  0  0  0  0  0  0  0  0
    1.5139   -2.3516   -0.5575 C   0  0  0  0  0  0  0  0  0  0  0  0
    1.3123   -3.5716    0.1020 C   0  0  0  0  0  0  0  0  0  0  0  0
    1.5344   -4.7709   -0.5694 C   0  0  0  0  0  0  0  0  0  0  0  0
    1.9494   -4.7172   -1.8892 C   0  0  0  0  0  0  0  0  0  0  0  0
    2.1481   -3.5674   -2.5662 N   0  0  0  0  0  0  0  0  0  0  0  0
    1.9182   -2.4168   -1.8899 C   0  0  0  0  0  0  0  0  0  0  0  0
    2.1554    0.0776   -0.2768 N   0  0  0  0  0  0  0  0  0  0  0  0
    3.5826   -0.2160    0.0140 C   0  0  0  0  0  0  0  0  0  0  0  0
    4.1547    0.4961    1.2604 C   0  0  0  0  0  0  0  0  0  0  0  0
    4.0483    1.9705    1.2313 N   0  0  0  0  0  0  0  0  0  0  0  0
    5.3250    2.5930    0.8147 C   0  0  0  0  0  0  0  0  0  0  0  0
    5.3185    4.1160    1.0202 C   0  0  0  0  0  0  0  0  0  0  0  0
    4.9317    4.4204    2.3591 O   0  0  0  0  0  0  0  0  0  0  0  0
    2.9306    2.3955    0.3563 C   0  0  0  0  0  0  0  0  0  0  0  0
    1.7714    1.3755    0.3339 C   0  0  0  0  0  0  0  0  0  0  0  0
   -0.8106   -0.3216   -1.2042 C   0  0  0  0  0  0  0  0  0  0  0  0
   -2.1754   -0.0159   -1.3459 C   0  0  0  0  0  0  0  0  0  0  0  0
   -2.7663    0.3049   -2.7411 C   0  0  0  0  0  0  0  0  0  0  0  0
   -3.1836    1.7883   -2.8182 C   0  0  0  0  0  0  0  0  0  0  0  0
   -1.7661    0.0722   -3.9060 C   0  0  0  0  0  0  0  0  0  0  0  0
   -3.9822   -0.5987   -3.0514 C   0  0  0  0  0  0  0  0  0  0  0  0
   -2.9493   -0.0400   -0.1606 C   0  0  0  0  0  0  0  0  0  0  0  0
   -4.2658    0.3249   -0.2312 O   0  0  0  0  0  0  0  0  0  0  0  0
   -3.2183   -0.9862    4.5162 H   0  0  0  0  0  0  0  0  0  0  0  0
   -1.7353   -0.2625    3.9031 H   0  0  0  0  0  0  0  0  0  0  0  0
   -2.1385   -1.9495    3.5103 H   0  0  0  0  0  0  0  0  0  0  0  0
   -5.0594   -1.5821    3.1105 H   0  0  0  0  0  0  0  0  0  0  0  0
   -4.1045   -2.4575    1.9043 H   0  0  0  0  0  0  0  0  0  0  0  0
   -5.1898   -1.1536    1.4153 H   0  0  0  0  0  0  0  0  0  0  0  0
   -4.5849    1.3006    1.9742 H   0  0  0  0  0  0  0  0  0  0  0  0
   -4.4148    0.9186    3.6765 H   0  0  0  0  0  0  0  0  0  0  0  0
   -3.0693    1.6682    2.8031 H   0  0  0  0  0  0  0  0  0  0  0  0
   -0.6047   -1.0021    2.1059 H   0  0  0  0  0  0  0  0  0  0  0  0
    1.4614   -1.1952    1.2209 H   0  0  0  0  0  0  0  0  0  0  0  0
    0.9737   -3.5932    1.1347 H   0  0  0  0  0  0  0  0  0  0  0  0
    1.3834   -5.7242   -0.0761 H   0  0  0  0  0  0  0  0  0  0  0  0
    2.1342   -5.6255   -2.4554 H   0  0  0  0  0  0  0  0  0  0  0  0
    2.0822   -1.5128   -2.4720 H   0  0  0  0  0  0  0  0  0  0  0  0
    3.7780   -1.2895    0.1117 H   0  0  0  0  0  0  0  0  0  0  0  0
    4.1620    0.1045   -0.8617 H   0  0  0  0  0  0  0  0  0  0  0  0
    3.6018    0.1449    2.1415 H   0  0  0  0  0  0  0  0  0  0  0  0
    5.1901    0.1715    1.4223 H   0  0  0  0  0  0  0  0  0  0  0  0
    5.5767    2.3482   -0.2242 H   0  0  0  0  0  0  0  0  0  0  0  0
    6.1240    2.1932    1.4521 H   0  0  0  0  0  0  0  0  0  0  0  0
    4.6228    4.6143    0.3386 H   0  0  0  0  0  0  0  0  0  0  0  0
    6.3174    4.5291    0.8498 H   0  0  0  0  0  0  0  0  0  0  0  0
    4.2808    3.7283    2.5953 H   0  0  0  0  0  0  0  0  0  0  0  0
    2.5448    3.3553    0.7187 H   0  0  0  0  0  0  0  0  0  0  0  0
    3.2712    2.5516   -0.6764 H   0  0  0  0  0  0  0  0  0  0  0  0
    0.9481    1.8143   -0.2413 H   0  0  0  0  0  0  0  0  0  0  0  0
    1.4184    1.2400    1.3654 H   0  0  0  0  0  0  0  0  0  0  0  0
   -0.1443   -0.2968   -2.0617 H   0  0  0  0  0  0  0  0  0  0  0  0
   -4.0244    2.0258   -2.1617 H   0  0  0  0  0  0  0  0  0  0  0  0
   -2.3519    2.4475   -2.5429 H   0  0  0  0  0  0  0  0  0  0  0  0
   -3.4985    2.0566   -3.8338 H   0  0  0  0  0  0  0  0  0  0  0  0
   -2.2374    0.2655   -4.8774 H   0  0  0  0  0  0  0  0  0  0  0  0
   -0.9011    0.7425   -3.8401 H   0  0  0  0  0  0  0  0  0  0  0  0
   -1.4025   -0.9620   -3.9248 H   0  0  0  0  0  0  0  0  0  0  0  0
   -3.7261   -1.6577   -2.9296 H   0  0  0  0  0  0  0  0  0  0  0  0
   -4.3266   -0.4570   -4.0829 H   0  0  0  0  0  0  0  0  0  0  0  0
   -4.8448   -0.3897   -2.4133 H   0  0  0  0  0  0  0  0  0  0  0  0
   -4.2620    1.2957   -0.2701 H   0  0  0  0  0  0  0  0  0  0  0  0
  1  2  1  0
  2  3  1  0
  2  4  1  0
  2  5  1  0
  5  6  2  0
  6  7  1  0
  7  8  1  0
  8  9  1  0
  9 10  2  0
 10 11  1  0
 11 12  2  0
 12 13  1  0
 13 14  2  0
  8 15  1  0
 15 16  1  0
 16 17  1  0
 17 18  1  0
 18 19  1  0
 19 20  1  0
 20 21  1  0
 18 22  1  0
 22 23  1  0
  7 24  2  0
 24 25  1  0
 25 26  1  0
 26 27  1  0
 26 28  1  0
 26 29  1  0
 25 30  2  0
 30 31  1  0
 30  5  1  0
 14  9  1  0
 23 15  1  0
  1 32  1  0
  1 33  1  0
  1 34  1  0
  3 35  1  0
  3 36  1  0
  3 37  1  0
  4 38  1  0
  4 39  1  0
  4 40  1  0
  6 41  1  0
  8 42  1  0
 10 43  1  0
 11 44  1  0
 12 45  1  0
 14 46  1  0
 16 47  1  0
 16 48  1  0
 17 49  1  0
 17 50  1  0
 19 51  1  0
 19 52  1  0
 20 53  1  0
 20 54  1  0
 21 55  1  0
 22 56  1  0
 22 57  1  0
 23 58  1  0
 23 59  1  0
 24 60  1  0
 27 61  1  0
 27 62  1  0
 27 63  1  0
 28 64  1  0
 28 65  1  0
 28 66  1  0
 29 67  1  0
 29 68  1  0
 29 69  1  0
 31 70  1  0
M  END
$$$$
