
     RDKit          3D

 53 54  0  0  0  0  0  0  0  0999 V2000
    0.3074   -1.4095   -2.0795 C   0  0  0  0  0  0  0  0  0  0  0  0
   -0.0474    0.0726   -2.3070 C   0  0  0  0  0  0  0  0  0  0  0  0
   -0.9212    0.1742   -3.5733 C   0  0  0  0  0  0  0  0  0  0  0  0
    1.2365    0.9049   -2.5611 C   0  0  0  0  0  0  0  0  0  0  0  0
    2.2373    0.7700   -1.5156 N   0  0  0  0  0  0  0  0  0  0  0  0
    2.7831    1.8624   -0.8854 C   0  0  0  0  0  0  0  0  0  0  0  0
    2.4087    3.0165   -1.0447 O   0  0  0  0  0  0  0  0  0  0  0  0
    3.9019    1.4990    0.0214 C   0  0  0  0  0  0  0  0  0  0  0  0
    4.6044    2.4671    0.6327 C   0  0  0  0  0  0  0  0  0  0  0  0
    5.7102    2.2147    1.5666 C   0  0  0  0  0  0  0  0  0  0  0  0
    5.8793    3.0819    2.6594 C   0  0  0  0  0  0  0  0  0  0  0  0
    6.9254    2.8844    3.5636 C   0  0  0  0  0  0  0  0  0  0  0  0
    7.8101    1.8286    3.3705 C   0  0  0  0  0  0  0  0  0  0  0  0
    8.8117    1.6371    4.2385 F   0  0  0  0  0  0  0  0  0  0  0  0
    7.6723    0.9708    2.2877 C   0  0  0  0  0  0  0  0  0  0  0  0
    6.6260    1.1666    1.3824 C   0  0  0  0  0  0  0  0  0  0  0  0
   -0.7927    0.6557   -1.0783 C   0  0  0  0  0  0  0  0  0  0  0  0
   -1.9991   -0.0705   -0.7172 N   0  0  0  0  0  0  0  0  0  0  0  0
   -3.2446    0.3101   -1.1439 C   0  0  0  0  0  0  0  0  0  0  0  0
   -3.4725    1.2637   -1.8761 O   0  0  0  0  0  0  0  0  0  0  0  0
   -4.3543   -0.5789   -0.7225 C   0  0  0  0  0  0  0  0  0  0  0  0
   -4.4236   -1.1540    0.4880 C   0  0  0  0  0  0  0  0  0  0  0  0
   -5.5418   -2.0074    0.9134 C   0  0  0  0  0  0  0  0  0  0  0  0
   -5.2698   -3.1357    1.7040 C   0  0  0  0  0  0  0  0  0  0  0  0
   -6.3088   -3.9569    2.1468 C   0  0  0  0  0  0  0  0  0  0  0  0
   -7.6206   -3.6433    1.8107 C   0  0  0  0  0  0  0  0  0  0  0  0
   -8.6161   -4.4296    2.2375 F   0  0  0  0  0  0  0  0  0  0  0  0
   -7.9142   -2.5221    1.0436 C   0  0  0  0  0  0  0  0  0  0  0  0
   -6.8757   -1.7010    0.5983 C   0  0  0  0  0  0  0  0  0  0  0  0
    0.8431   -1.5559   -1.1357 H   0  0  0  0  0  0  0  0  0  0  0  0
   -0.5907   -2.0381   -2.0470 H   0  0  0  0  0  0  0  0  0  0  0  0
    0.9419   -1.7894   -2.8885 H   0  0  0  0  0  0  0  0  0  0  0  0
   -1.2457    1.2055   -3.7472 H   0  0  0  0  0  0  0  0  0  0  0  0
   -1.8148   -0.4547   -3.5035 H   0  0  0  0  0  0  0  0  0  0  0  0
   -0.3675   -0.1524   -4.4605 H   0  0  0  0  0  0  0  0  0  0  0  0
    0.9802    1.9612   -2.7030 H   0  0  0  0  0  0  0  0  0  0  0  0
    1.7266    0.5706   -3.4837 H   0  0  0  0  0  0  0  0  0  0  0  0
    2.6949   -0.1269   -1.4221 H   0  0  0  0  0  0  0  0  0  0  0  0
    4.1084    0.4483    0.1837 H   0  0  0  0  0  0  0  0  0  0  0  0
    4.3456    3.5153    0.4723 H   0  0  0  0  0  0  0  0  0  0  0  0
    5.1908    3.9122    2.8198 H   0  0  0  0  0  0  0  0  0  0  0  0
    7.0518    3.5451    4.4149 H   0  0  0  0  0  0  0  0  0  0  0  0
    8.3801    0.1575    2.1527 H   0  0  0  0  0  0  0  0  0  0  0  0
    6.5452    0.4974    0.5288 H   0  0  0  0  0  0  0  0  0  0  0  0
   -1.0498    1.7072   -1.2528 H   0  0  0  0  0  0  0  0  0  0  0  0
   -0.1500    0.6201   -0.1914 H   0  0  0  0  0  0  0  0  0  0  0  0
   -1.8968   -0.9383   -0.2106 H   0  0  0  0  0  0  0  0  0  0  0  0
   -5.1436   -0.6729   -1.4605 H   0  0  0  0  0  0  0  0  0  0  0  0
   -3.6405   -1.0037    1.2258 H   0  0  0  0  0  0  0  0  0  0  0  0
   -4.2474   -3.3898    1.9767 H   0  0  0  0  0  0  0  0  0  0  0  0
   -6.1033   -4.8348    2.7520 H   0  0  0  0  0  0  0  0  0  0  0  0
   -8.9471   -2.2888    0.8025 H   0  0  0  0  0  0  0  0  0  0  0  0
   -7.1233   -0.8143    0.0167 H   0  0  0  0  0  0  0  0  0  0  0  0
  1  2  1  0
  2  3  1  0
  2  4  1  0
  4  5  1  0
  5  6  1  0
  6  7  2  0
  6  8  1  0
  8  9  2  3
  9 10  1  0
 10 11  2  0
 11 12  1  0
 12 13  2  0
 13 14  1  0
 13 15  1  0
 15 16  2  0
  2 17  1  0
 17 18  1  0
 18 19  1  0
 19 20  2  0
 19 21  1  0
 21 22  2  3
 22 23  1  0
 23 24  2  0
 24 25  1  0
 25 26  2  0
 26 27  1  0
 26 28  1  0
 28 29  2  0
 16 10  1  0
 29 23  1  0
  1 30  1  0
  1 31  1  0
  1 32  1  0
  3 33  1  0
  3 34  1  0
  3 35  1  0
  4 36  1  0
  4 37  1  0
  5 38  1  0
  8 39  1  0
  9 40  1  0
 11 41  1  0
 12 42  1  0
 15 43  1  0
 16 44  1  0
 17 45  1  0
 17 46  1  0
 18 47  1  0
 21 48  1  0
 22 49  1  0
 24 50  1  0
 25 51  1  0
 28 52  1  0
 29 53  1  0
M  END
$$$$
