
     RDKit          3D

 46 48  0  0  0  0  0  0  0  0999 V2000
   -3.8255    3.5129    1.4564 C   0  0  0  0  0  0  0  0  0  0  0  0
   -4.2461    2.2670    0.9210 O   0  0  0  0  0  0  0  0  0  0  0  0
   -3.2897    1.4599    0.3553 C   0  0  0  0  0  0  0  0  0  0  0  0
   -1.9421    1.8092    0.2153 C   0  0  0  0  0  0  0  0  0  0  0  0
   -1.0288    0.9272   -0.3831 C   0  0  0  0  0  0  0  0  0  0  0  0
   -1.4621   -0.3329   -0.8228 C   0  0  0  0  0  0  0  0  0  0  0  0
   -2.8179   -0.6775   -0.6906 C   0  0  0  0  0  0  0  0  0  0  0  0
   -3.7329    0.2057   -0.1058 C   0  0  0  0  0  0  0  0  0  0  0  0
   -5.0701   -0.0596    0.0600 O   0  0  0  0  0  0  0  0  0  0  0  0
   -5.5494   -1.3290   -0.3581 C   0  0  0  0  0  0  0  0  0  0  0  0
   -0.5158   -1.3146   -1.4795 C   0  0  0  0  0  0  0  0  0  0  0  0
    0.9017   -0.9721   -1.3132 N   0  0  0  0  0  0  0  0  0  0  0  0
    1.8912   -1.9010   -1.6068 C   0  0  0  0  0  0  0  0  0  0  0  0
    1.6907   -3.2531   -2.5852 S   0  0  0  0  0  0  0  0  0  0  0  0
    3.1556   -1.6793   -1.1346 N   0  0  0  0  0  0  0  0  0  0  0  0
    3.6115   -1.0021    0.0181 C   0  0  0  0  0  0  0  0  0  0  0  0
    4.8885   -0.4282   -0.1052 C   0  0  0  0  0  0  0  0  0  0  0  0
    5.4327    0.3436    0.9180 C   0  0  0  0  0  0  0  0  0  0  0  0
    4.7068    0.5407    2.0850 C   0  0  0  0  0  0  0  0  0  0  0  0
    3.4627   -0.0756    2.2467 C   0  0  0  0  0  0  0  0  0  0  0  0
    2.6381    0.2141    3.7425 Cl  0  0  0  0  0  0  0  0  0  0  0  0
    2.9129   -0.8985    1.2393 C   0  0  0  0  0  0  0  0  0  0  0  0
    1.6645   -1.6881    1.5387 C   0  0  0  0  0  0  0  0  0  0  0  0
    1.1782    0.4567   -1.5017 C   0  0  0  0  0  0  0  0  0  0  0  0
    0.4239    1.3175   -0.4918 C   0  0  0  0  0  0  0  0  0  0  0  0
   -3.0942    3.3729    2.2593 H   0  0  0  0  0  0  0  0  0  0  0  0
   -4.7025    4.0043    1.8888 H   0  0  0  0  0  0  0  0  0  0  0  0
   -3.4325    4.1671    0.6712 H   0  0  0  0  0  0  0  0  0  0  0  0
   -1.5729    2.7679    0.5653 H   0  0  0  0  0  0  0  0  0  0  0  0
   -3.1354   -1.6499   -1.0543 H   0  0  0  0  0  0  0  0  0  0  0  0
   -5.4290   -1.4601   -1.4385 H   0  0  0  0  0  0  0  0  0  0  0  0
   -5.0631   -2.1382    0.1966 H   0  0  0  0  0  0  0  0  0  0  0  0
   -6.6201   -1.3719   -0.1364 H   0  0  0  0  0  0  0  0  0  0  0  0
   -0.7359   -1.3457   -2.5539 H   0  0  0  0  0  0  0  0  0  0  0  0
   -0.6809   -2.3114   -1.0537 H   0  0  0  0  0  0  0  0  0  0  0  0
    3.8715   -2.1491   -1.6790 H   0  0  0  0  0  0  0  0  0  0  0  0
    5.4546   -0.5382   -1.0281 H   0  0  0  0  0  0  0  0  0  0  0  0
    6.4095    0.8043    0.7963 H   0  0  0  0  0  0  0  0  0  0  0  0
    5.1209    1.1607    2.8765 H   0  0  0  0  0  0  0  0  0  0  0  0
    0.7764   -1.0550    1.4752 H   0  0  0  0  0  0  0  0  0  0  0  0
    1.7138   -2.1208    2.5443 H   0  0  0  0  0  0  0  0  0  0  0  0
    1.5482   -2.5503    0.8783 H   0  0  0  0  0  0  0  0  0  0  0  0
    2.2468    0.6813   -1.4658 H   0  0  0  0  0  0  0  0  0  0  0  0
    0.8587    0.7056   -2.5231 H   0  0  0  0  0  0  0  0  0  0  0  0
    0.8782    1.2149    0.4999 H   0  0  0  0  0  0  0  0  0  0  0  0
    0.5092    2.3690   -0.7899 H   0  0  0  0  0  0  0  0  0  0  0  0
  1  2  1  0
  2  3  1  0
  3  4  2  0
  4  5  1  0
  5  6  2  0
  6  7  1  0
  7  8  2  0
  8  9  1  0
  9 10  1  0
  6 11  1  0
 11 12  1  0
 12 13  1  0
 13 14  2  0
 13 15  1  0
 15 16  1  0
 16 17  2  0
 17 18  1  0
 18 19  2  0
 19 20  1  0
 20 21  1  0
 20 22  2  0
 22 23  1  0
 12 24  1  0
 24 25  1  0
  8  3  1  0
 22 16  1  0
 25  5  1  0
  1 26  1  0
  1 27  1  0
  1 28  1  0
  4 29  1  0
  7 30  1  0
 10 31  1  0
 10 32  1  0
 10 33  1  0
 11 34  1  0
 11 35  1  0
 15 36  1  0
 17 37  1  0
 18 38  1  0
 19 39  1  0
 23 40  1  0
 23 41  1  0
 23 42  1  0
 24 43  1  0
 24 44  1  0
 25 45  1  0
 25 46  1  0
M  END
$$$$
