
     RDKit          3D

 44 47  0  0  0  0  0  0  0  0999 V2000
    6.9223   -2.6839    0.6996 C   0  0  0  0  0  0  0  0  0  0  0  0
    7.0149   -1.1766    0.5278 C   0  0  0  0  0  0  0  0  0  0  0  0
    6.4459   -0.7980   -0.7287 O   0  0  0  0  0  0  0  0  0  0  0  0
    5.2482   -0.1340   -0.7013 C   0  0  0  0  0  0  0  0  0  0  0  0
    4.2393   -0.4076    0.2282 C   0  0  0  0  0  0  0  0  0  0  0  0
    3.0224    0.2822    0.1764 C   0  0  0  0  0  0  0  0  0  0  0  0
    2.7982    1.2382   -0.8225 C   0  0  0  0  0  0  0  0  0  0  0  0
    1.5210    2.0004   -0.9062 C   0  0  0  0  0  0  0  0  0  0  0  0
    1.5723    3.1700   -1.2656 O   0  0  0  0  0  0  0  0  0  0  0  0
    0.3876    1.2734   -0.5909 N   0  0  0  0  0  0  0  0  0  0  0  0
   -0.9426    1.7426   -0.5405 C   0  0  0  0  0  0  0  0  0  0  0  0
   -1.3089    3.0738   -0.7351 C   0  0  0  0  0  0  0  0  0  0  0  0
   -2.6508    3.4560   -0.6622 C   0  0  0  0  0  0  0  0  0  0  0  0
   -3.6390    2.5095   -0.3897 C   0  0  0  0  0  0  0  0  0  0  0  0
   -3.2971    1.1671   -0.1861 C   0  0  0  0  0  0  0  0  0  0  0  0
   -4.3015    0.1457    0.1049 C   0  0  0  0  0  0  0  0  0  0  0  0
   -4.1211   -1.1449    0.3374 N   0  0  0  0  0  0  0  0  0  0  0  0
   -5.3942   -1.6087    0.5447 C   0  0  0  0  0  0  0  0  0  0  0  0
   -5.8849   -2.8853    0.8371 C   0  0  0  0  0  0  0  0  0  0  0  0
   -7.2687   -3.0101    0.9898 C   0  0  0  0  0  0  0  0  0  0  0  0
   -8.0766   -1.8832    0.8461 C   0  0  0  0  0  0  0  0  0  0  0  0
   -7.6474   -0.6298    0.5635 N   0  0  0  0  0  0  0  0  0  0  0  0
   -6.3103   -0.5695    0.4283 C   0  0  0  0  0  0  0  0  0  0  0  0
   -5.6072    0.5632    0.1456 O   0  0  0  0  0  0  0  0  0  0  0  0
   -1.9426    0.7994   -0.2644 C   0  0  0  0  0  0  0  0  0  0  0  0
    3.8022    1.5173   -1.7551 C   0  0  0  0  0  0  0  0  0  0  0  0
    5.0140    0.8246   -1.7011 C   0  0  0  0  0  0  0  0  0  0  0  0
    6.2152    1.1957   -2.8891 Cl  0  0  0  0  0  0  0  0  0  0  0  0
    7.4192   -3.1959   -0.1317 H   0  0  0  0  0  0  0  0  0  0  0  0
    7.3935   -2.9976    1.6367 H   0  0  0  0  0  0  0  0  0  0  0  0
    5.8800   -3.0198    0.6990 H   0  0  0  0  0  0  0  0  0  0  0  0
    6.5766   -0.6433    1.3802 H   0  0  0  0  0  0  0  0  0  0  0  0
    8.0728   -0.8887    0.4963 H   0  0  0  0  0  0  0  0  0  0  0  0
    4.3724   -1.1610    0.9991 H   0  0  0  0  0  0  0  0  0  0  0  0
    2.2716    0.0777    0.9363 H   0  0  0  0  0  0  0  0  0  0  0  0
    0.5033    0.2793   -0.4423 H   0  0  0  0  0  0  0  0  0  0  0  0
   -0.5732    3.8445   -0.9444 H   0  0  0  0  0  0  0  0  0  0  0  0
   -2.9230    4.4975   -0.8192 H   0  0  0  0  0  0  0  0  0  0  0  0
   -4.6767    2.8340   -0.3381 H   0  0  0  0  0  0  0  0  0  0  0  0
   -5.2173   -3.7329    0.9408 H   0  0  0  0  0  0  0  0  0  0  0  0
   -7.7123   -3.9746    1.2186 H   0  0  0  0  0  0  0  0  0  0  0  0
   -9.1556   -1.9710    0.9632 H   0  0  0  0  0  0  0  0  0  0  0  0
   -1.6773   -0.2448   -0.1064 H   0  0  0  0  0  0  0  0  0  0  0  0
    3.6354    2.2688   -2.5245 H   0  0  0  0  0  0  0  0  0  0  0  0
  1  2  1  0
  2  3  1  0
  3  4  1  0
  4  5  2  0
  5  6  1  0
  6  7  2  0
  7  8  1  0
  8  9  2  0
  8 10  1  0
 10 11  1  0
 11 12  2  0
 12 13  1  0
 13 14  2  0
 14 15  1  0
 15 16  1  0
 16 17  2  0
 17 18  1  0
 18 19  2  0
 19 20  1  0
 20 21  2  0
 21 22  1  0
 22 23  2  0
 23 24  1  0
 15 25  2  0
  7 26  1  0
 26 27  2  0
 27 28  1  0
 27  4  1  0
 25 11  1  0
 24 16  1  0
 23 18  1  0
  1 29  1  0
  1 30  1  0
  1 31  1  0
  2 32  1  0
  2 33  1  0
  5 34  1  0
  6 35  1  0
 10 36  1  0
 12 37  1  0
 13 38  1  0
 14 39  1  0
 19 40  1  0
 20 41  1  0
 21 42  1  0
 25 43  1  0
 26 44  1  0
M  END
$$$$
