
     RDKit          3D

 40 40  0  0  0  0  0  0  0  0999 V2000
   -3.4191    3.1150    2.8887 C   0  0  0  0  0  0  0  0  0  0  0  0
   -3.3358    2.7258    1.4215 C   0  0  0  0  0  0  0  0  0  0  0  0
   -1.9471    2.2491    0.9950 C   0  0  0  0  0  0  0  0  0  0  0  0
   -1.5166    0.9523    1.6802 C   0  0  0  0  0  0  0  0  0  0  0  0
   -0.2386    0.5127    1.1215 N   0  0  0  0  0  0  0  0  0  0  0  0
   -0.2159   -0.4099    0.2054 C   0  0  0  0  0  0  0  0  0  0  0  0
    0.9841   -0.8544   -0.3408 N   0  0  0  0  0  0  0  0  0  0  0  0
    2.1824   -0.5093    0.2408 N   0  0  0  0  0  0  0  0  0  0  0  0
    3.3323   -0.2062   -0.5261 C   0  0  0  0  0  0  0  0  0  0  0  0
    3.4429   -0.5428   -1.8830 C   0  0  0  0  0  0  0  0  0  0  0  0
    4.6217   -0.2900   -2.5904 C   0  0  0  0  0  0  0  0  0  0  0  0
    5.7098    0.2815   -1.9362 C   0  0  0  0  0  0  0  0  0  0  0  0
    7.3034    0.6209   -2.8881 Br  0  0  0  0  0  0  0  0  0  0  0  0
    5.6324    0.5951   -0.5821 C   0  0  0  0  0  0  0  0  0  0  0  0
    4.4516    0.3402    0.1189 C   0  0  0  0  0  0  0  0  0  0  0  0
   -1.4929   -1.0782   -0.3408 C   0  0  0  0  0  0  0  0  0  0  0  0
   -2.3403   -0.4938   -0.9868 O   0  0  0  0  0  0  0  0  0  0  0  0
   -1.4483   -2.3900   -0.0179 O   0  0  0  0  0  0  0  0  0  0  0  0
   -2.5759   -3.1657   -0.4455 C   0  0  0  0  0  0  0  0  0  0  0  0
   -2.3727   -3.6497   -1.8688 C   0  0  0  0  0  0  0  0  0  0  0  0
   -3.2705    2.2503    3.5427 H   0  0  0  0  0  0  0  0  0  0  0  0
   -2.6689    3.8726    3.1367 H   0  0  0  0  0  0  0  0  0  0  0  0
   -4.4064    3.5312    3.1098 H   0  0  0  0  0  0  0  0  0  0  0  0
   -4.0782    1.9480    1.2076 H   0  0  0  0  0  0  0  0  0  0  0  0
   -3.6067    3.5975    0.8142 H   0  0  0  0  0  0  0  0  0  0  0  0
   -1.2073    3.0346    1.1948 H   0  0  0  0  0  0  0  0  0  0  0  0
   -1.9506    2.1033   -0.0929 H   0  0  0  0  0  0  0  0  0  0  0  0
   -2.3006    0.1902    1.6181 H   0  0  0  0  0  0  0  0  0  0  0  0
   -1.3607    1.1319    2.7495 H   0  0  0  0  0  0  0  0  0  0  0  0
    0.9557   -1.7691   -0.7894 H   0  0  0  0  0  0  0  0  0  0  0  0
    2.0559    0.1742    1.0010 H   0  0  0  0  0  0  0  0  0  0  0  0
    2.6084   -0.9936   -2.4120 H   0  0  0  0  0  0  0  0  0  0  0  0
    4.6771   -0.5451   -3.6452 H   0  0  0  0  0  0  0  0  0  0  0  0
    6.4816    1.0292   -0.0614 H   0  0  0  0  0  0  0  0  0  0  0  0
    4.4110    0.5717    1.1801 H   0  0  0  0  0  0  0  0  0  0  0  0
   -2.6482   -4.0246    0.2295 H   0  0  0  0  0  0  0  0  0  0  0  0
   -3.5075   -2.5986   -0.3449 H   0  0  0  0  0  0  0  0  0  0  0  0
   -2.3312   -2.8066   -2.5658 H   0  0  0  0  0  0  0  0  0  0  0  0
   -3.1875   -4.3138   -2.1728 H   0  0  0  0  0  0  0  0  0  0  0  0
   -1.4229   -4.1859   -1.9650 H   0  0  0  0  0  0  0  0  0  0  0  0
  1  2  1  0
  2  3  1  0
  3  4  1  0
  4  5  1  0
  5  6  2  3
  6  7  1  0
  7  8  1  0
  8  9  1  0
  9 10  2  0
 10 11  1  0
 11 12  2  0
 12 13  1  0
 12 14  1  0
 14 15  2  0
  6 16  1  0
 16 17  2  0
 16 18  1  0
 18 19  1  0
 19 20  1  0
 15  9  1  0
  1 21  1  0
  1 22  1  0
  1 23  1  0
  2 24  1  0
  2 25  1  0
  3 26  1  0
  3 27  1  0
  4 28  1  0
  4 29  1  0
  7 30  1  0
  8 31  1  0
 10 32  1  0
 11 33  1  0
 14 34  1  0
 15 35  1  0
 19 36  1  0
 19 37  1  0
 20 38  1  0
 20 39  1  0
 20 40  1  0
M  END
$$$$
