
     RDKit          3D

 53 56  0  0  0  0  0  0  0  0999 V2000
   -6.2878    3.2763    0.8298 C   0  0  0  0  0  0  0  0  0  0  0  0
   -5.0915    2.4184    0.5431 C   0  0  0  0  0  0  0  0  0  0  0  0
   -5.2186    1.0299    0.4547 C   0  0  0  0  0  0  0  0  0  0  0  0
   -4.0980    0.2231    0.2256 C   0  0  0  0  0  0  0  0  0  0  0  0
   -2.8340    0.7913    0.0700 C   0  0  0  0  0  0  0  0  0  0  0  0
   -1.6510    0.0415   -0.1166 N   0  0  0  0  0  0  0  0  0  0  0  0
   -1.4609   -1.2441   -0.6121 C   0  0  0  0  0  0  0  0  0  0  0  0
   -2.4881   -1.9571   -1.7434 S   0  0  0  0  0  0  0  0  0  0  0  0
   -0.2753   -1.8517   -0.1287 N   0  0  0  0  0  0  0  0  0  0  0  0
    0.1699   -3.1955   -0.5573 C   0  0  0  0  0  0  0  0  0  0  0  0
   -0.2091   -4.2344    0.4627 C   0  0  0  0  0  0  0  0  0  0  0  0
   -1.4661   -4.6996    0.8021 C   0  0  0  0  0  0  0  0  0  0  0  0
   -1.4248   -5.7050    1.8104 C   0  0  0  0  0  0  0  0  0  0  0  0
   -0.1372   -5.9801    2.2103 C   0  0  0  0  0  0  0  0  0  0  0  0
    1.0126   -5.0510    1.3545 S   0  0  0  0  0  0  0  0  0  0  0  0
    0.5686   -1.2265    0.9122 C   0  0  0  0  0  0  0  0  0  0  0  0
    1.6209   -0.3177    0.3250 C   0  0  0  0  0  0  0  0  0  0  0  0
    1.8540   -0.0846   -0.9800 C   0  0  0  0  0  0  0  0  0  0  0  0
    2.9188    0.8221   -1.4142 C   0  0  0  0  0  0  0  0  0  0  0  0
    3.1484    1.0567   -2.7719 C   0  0  0  0  0  0  0  0  0  0  0  0
    4.1710    1.9178   -3.1662 C   0  0  0  0  0  0  0  0  0  0  0  0
    4.9640    2.5514   -2.2067 C   0  0  0  0  0  0  0  0  0  0  0  0
    4.7475    2.3339   -0.8370 C   0  0  0  0  0  0  0  0  0  0  0  0
    5.6146    3.0402    0.1665 C   0  0  0  0  0  0  0  0  0  0  0  0
    3.7161    1.4601   -0.4520 C   0  0  0  0  0  0  0  0  0  0  0  0
    3.4520    1.2053    0.9020 N   0  0  0  0  0  0  0  0  0  0  0  0
    2.4627    0.3733    1.3501 C   0  0  0  0  0  0  0  0  0  0  0  0
    2.2698    0.2089    2.5507 O   0  0  0  0  0  0  0  0  0  0  0  0
   -2.7016    2.1789    0.1977 C   0  0  0  0  0  0  0  0  0  0  0  0
   -3.8198    2.9868    0.4292 C   0  0  0  0  0  0  0  0  0  0  0  0
   -6.4293    3.3711    1.9116 H   0  0  0  0  0  0  0  0  0  0  0  0
   -6.1653    4.2763    0.3992 H   0  0  0  0  0  0  0  0  0  0  0  0
   -7.1928    2.8431    0.3915 H   0  0  0  0  0  0  0  0  0  0  0  0
   -6.1913    0.5585    0.5747 H   0  0  0  0  0  0  0  0  0  0  0  0
   -4.2419   -0.8520    0.2102 H   0  0  0  0  0  0  0  0  0  0  0  0
   -0.8053    0.5884   -0.0477 H   0  0  0  0  0  0  0  0  0  0  0  0
   -0.2521   -3.4712   -1.5269 H   0  0  0  0  0  0  0  0  0  0  0  0
    1.2554   -3.1563   -0.7073 H   0  0  0  0  0  0  0  0  0  0  0  0
   -2.3810   -4.3353    0.3501 H   0  0  0  0  0  0  0  0  0  0  0  0
   -2.2975   -6.1956    2.2240 H   0  0  0  0  0  0  0  0  0  0  0  0
    0.1866   -6.6914    2.9573 H   0  0  0  0  0  0  0  0  0  0  0  0
   -0.0728   -0.6691    1.6045 H   0  0  0  0  0  0  0  0  0  0  0  0
    1.0536   -2.0103    1.5039 H   0  0  0  0  0  0  0  0  0  0  0  0
    1.2662   -0.5629   -1.7568 H   0  0  0  0  0  0  0  0  0  0  0  0
    2.5374    0.5747   -3.5331 H   0  0  0  0  0  0  0  0  0  0  0  0
    4.3505    2.0995   -4.2234 H   0  0  0  0  0  0  0  0  0  0  0  0
    5.7574    3.2179   -2.5395 H   0  0  0  0  0  0  0  0  0  0  0  0
    6.1426    2.3123    0.7912 H   0  0  0  0  0  0  0  0  0  0  0  0
    5.0035    3.6925    0.8000 H   0  0  0  0  0  0  0  0  0  0  0  0
    6.3696    3.6650   -0.3209 H   0  0  0  0  0  0  0  0  0  0  0  0
    3.9969    1.6568    1.6225 H   0  0  0  0  0  0  0  0  0  0  0  0
   -1.7283    2.6564    0.1131 H   0  0  0  0  0  0  0  0  0  0  0  0
   -3.6890    4.0625    0.5220 H   0  0  0  0  0  0  0  0  0  0  0  0
  1  2  1  0
  2  3  2  0
  3  4  1  0
  4  5  2  0
  5  6  1  0
  6  7  1  0
  7  8  2  0
  7  9  1  0
  9 10  1  0
 10 11  1  0
 11 12  2  0
 12 13  1  0
 13 14  2  0
 14 15  1  0
  9 16  1  0
 16 17  1  0
 17 18  2  0
 18 19  1  0
 19 20  2  0
 20 21  1  0
 21 22  2  0
 22 23  1  0
 23 24  1  0
 23 25  2  0
 25 26  1  0
 26 27  1  0
 27 28  2  0
  5 29  1  0
 29 30  2  0
 30  2  1  0
 15 11  1  0
 27 17  1  0
 25 19  1  0
  1 31  1  0
  1 32  1  0
  1 33  1  0
  3 34  1  0
  4 35  1  0
  6 36  1  0
 10 37  1  0
 10 38  1  0
 12 39  1  0
 13 40  1  0
 14 41  1  0
 16 42  1  0
 16 43  1  0
 18 44  1  0
 20 45  1  0
 21 46  1  0
 22 47  1  0
 24 48  1  0
 24 49  1  0
 24 50  1  0
 26 51  1  0
 29 52  1  0
 30 53  1  0
M  END
$$$$
