
     RDKit          3D

 42 45  0  0  0  0  0  0  0  0999 V2000
    7.6529   -0.6133    0.9677 C   0  0  0  0  0  0  0  0  0  0  0  0
    6.7065   -0.0905    2.0335 C   0  0  0  0  0  0  0  0  0  0  0  0
    5.2843   -0.2034    1.5744 C   0  0  0  0  0  0  0  0  0  0  0  0
    4.6858    0.7096    0.8686 N   0  0  0  0  0  0  0  0  0  0  0  0
    3.3966    0.2772    0.6026 N   0  0  0  0  0  0  0  0  0  0  0  0
    2.4768    1.0518   -0.0732 C   0  0  0  0  0  0  0  0  0  0  0  0
    2.7703    2.2301   -0.5471 N   0  0  0  0  0  0  0  0  0  0  0  0
    1.1108    0.4485   -0.2249 C   0  0  0  0  0  0  0  0  0  0  0  0
    0.1368    1.2288   -0.7350 C   0  0  0  0  0  0  0  0  0  0  0  0
   -1.2406    0.9114   -0.9183 C   0  0  0  0  0  0  0  0  0  0  0  0
   -1.9998    1.0097   -2.1046 C   0  0  0  0  0  0  0  0  0  0  0  0
   -1.5388    1.4045   -3.4597 C   0  0  0  0  0  0  0  0  0  0  0  0
   -3.2890    0.7231   -1.8951 N   0  0  0  0  0  0  0  0  0  0  0  0
   -3.3642    0.3275   -0.5837 N   0  0  0  0  0  0  0  0  0  0  0  0
   -4.5916   -0.2293   -0.1076 C   0  0  0  0  0  0  0  0  0  0  0  0
   -4.6624   -1.0103    1.0519 C   0  0  0  0  0  0  0  0  0  0  0  0
   -5.8873   -1.5399    1.4733 C   0  0  0  0  0  0  0  0  0  0  0  0
   -7.0468   -1.3067    0.7374 C   0  0  0  0  0  0  0  0  0  0  0  0
   -6.9846   -0.5546   -0.4320 C   0  0  0  0  0  0  0  0  0  0  0  0
   -5.7639   -0.0252   -0.8578 C   0  0  0  0  0  0  0  0  0  0  0  0
   -2.1553    0.5687    0.0481 C   0  0  0  0  0  0  0  0  0  0  0  0
   -1.9578    0.5753    1.7477 Cl  0  0  0  0  0  0  0  0  0  0  0  0
    0.9273   -0.9931    0.1981 C   0  0  0  0  0  0  0  0  0  0  0  0
   -0.0593   -1.6343   -0.1412 O   0  0  0  0  0  0  0  0  0  0  0  0
    1.9284   -1.5794    0.9507 N   0  0  0  0  0  0  0  0  0  0  0  0
    3.0442   -0.9573    1.0868 C   0  0  0  0  0  0  0  0  0  0  0  0
    4.3774   -1.6515    1.9767 S   0  0  0  0  0  0  0  0  0  0  0  0
    8.6916   -0.5058    1.2948 H   0  0  0  0  0  0  0  0  0  0  0  0
    7.4679   -1.6723    0.7588 H   0  0  0  0  0  0  0  0  0  0  0  0
    7.5306   -0.0637    0.0285 H   0  0  0  0  0  0  0  0  0  0  0  0
    6.8482   -0.6415    2.9690 H   0  0  0  0  0  0  0  0  0  0  0  0
    6.9247    0.9644    2.2338 H   0  0  0  0  0  0  0  0  0  0  0  0
    3.7595    2.3974   -0.3024 H   0  0  0  0  0  0  0  0  0  0  0  0
    0.4028    2.2376   -1.0528 H   0  0  0  0  0  0  0  0  0  0  0  0
   -2.3492    1.3473   -4.1945 H   0  0  0  0  0  0  0  0  0  0  0  0
   -1.1635    2.4331   -3.4501 H   0  0  0  0  0  0  0  0  0  0  0  0
   -0.7324    0.7445   -3.7956 H   0  0  0  0  0  0  0  0  0  0  0  0
   -3.7835   -1.2771    1.6282 H   0  0  0  0  0  0  0  0  0  0  0  0
   -5.9304   -2.1500    2.3724 H   0  0  0  0  0  0  0  0  0  0  0  0
   -7.9948   -1.7235    1.0673 H   0  0  0  0  0  0  0  0  0  0  0  0
   -7.8834   -0.3809   -1.0177 H   0  0  0  0  0  0  0  0  0  0  0  0
   -5.7448    0.5584   -1.7770 H   0  0  0  0  0  0  0  0  0  0  0  0
  1  2  1  0
  2  3  1  0
  3  4  2  0
  4  5  1  0
  5  6  1  0
  6  7  2  3
  6  8  1  0
  8  9  2  3
  9 10  1  0
 10 11  1  0
 11 12  1  0
 11 13  2  0
 13 14  1  0
 14 15  1  0
 15 16  2  0
 16 17  1  0
 17 18  2  0
 18 19  1  0
 19 20  2  0
 14 21  1  0
 21 22  1  0
  8 23  1  0
 23 24  2  0
 23 25  1  0
 25 26  2  0
 26 27  1  0
 27  3  1  0
 26  5  1  0
 21 10  2  0
 20 15  1  0
  1 28  1  0
  1 29  1  0
  1 30  1  0
  2 31  1  0
  2 32  1  0
  7 33  1  0
  9 34  1  0
 12 35  1  0
 12 36  1  0
 12 37  1  0
 16 38  1  0
 17 39  1  0
 18 40  1  0
 19 41  1  0
 20 42  1  0
M  END
$$$$
