
     RDKit          3D

 52 55  0  0  0  0  0  0  0  0999 V2000
   -7.5900   -1.7459    0.3826 C   0  0  0  0  0  0  0  0  0  0  0  0
   -6.8444   -2.9465    0.2281 O   0  0  0  0  0  0  0  0  0  0  0  0
   -5.5648   -2.8220   -0.2381 C   0  0  0  0  0  0  0  0  0  0  0  0
   -4.9514   -1.6382   -0.6486 C   0  0  0  0  0  0  0  0  0  0  0  0
   -3.6293   -1.6531   -1.1101 C   0  0  0  0  0  0  0  0  0  0  0  0
   -2.9060   -2.8493   -1.1562 C   0  0  0  0  0  0  0  0  0  0  0  0
   -1.5349   -2.8931   -1.6706 C   0  0  0  0  0  0  0  0  0  0  0  0
   -0.4474   -2.3233   -1.1280 C   0  0  0  0  0  0  0  0  0  0  0  0
    1.1037   -2.4707   -1.8694 S   0  0  0  0  0  0  0  0  0  0  0  0
    1.8111   -1.2938   -0.7763 C   0  0  0  0  0  0  0  0  0  0  0  0
    2.9923   -0.7050   -1.0781 C   0  0  0  0  0  0  0  0  0  0  0  0
    3.8050   -1.1316   -2.1716 C   0  0  0  0  0  0  0  0  0  0  0  0
    4.4418   -1.4805   -3.0776 N   0  0  0  0  0  0  0  0  0  0  0  0
    3.5479    0.4703   -0.3587 C   0  0  0  0  0  0  0  0  0  0  0  0
    4.6861    0.4455    0.0962 O   0  0  0  0  0  0  0  0  0  0  0  0
    2.7240    1.5661   -0.3156 N   0  0  0  0  0  0  0  0  0  0  0  0
    3.1466    2.8188    0.2691 C   0  0  0  0  0  0  0  0  0  0  0  0
    3.3717    3.7796   -0.8358 C   0  0  0  0  0  0  0  0  0  0  0  0
    4.5042    4.2452   -1.4707 C   0  0  0  0  0  0  0  0  0  0  0  0
    4.0599    5.1451   -2.4689 C   0  0  0  0  0  0  0  0  0  0  0  0
    2.6878    5.1681   -2.3823 C   0  0  0  0  0  0  0  0  0  0  0  0
    2.2587    4.3385   -1.3964 O   0  0  0  0  0  0  0  0  0  0  0  0
    0.9457   -1.0308    0.2928 N   0  0  0  0  0  0  0  0  0  0  0  0
    1.3072   -0.4663    1.5624 C   0  0  0  0  0  0  0  0  0  0  0  0
    0.4428    0.4089    2.2365 C   0  0  0  0  0  0  0  0  0  0  0  0
    0.7993    0.9618    3.4700 C   0  0  0  0  0  0  0  0  0  0  0  0
    2.0206    0.6383    4.0534 C   0  0  0  0  0  0  0  0  0  0  0  0
    2.8807   -0.2464    3.4098 C   0  0  0  0  0  0  0  0  0  0  0  0
    2.5233   -0.8014    2.1775 C   0  0  0  0  0  0  0  0  0  0  0  0
   -0.3613   -1.5462    0.1427 C   0  0  0  0  0  0  0  0  0  0  0  0
   -1.2962   -1.4324    0.9231 O   0  0  0  0  0  0  0  0  0  0  0  0
   -3.5258   -4.0356   -0.7547 C   0  0  0  0  0  0  0  0  0  0  0  0
   -4.8462   -4.0181   -0.2975 C   0  0  0  0  0  0  0  0  0  0  0  0
   -7.7569   -1.2592   -0.5839 H   0  0  0  0  0  0  0  0  0  0  0  0
   -8.5685   -2.0108    0.7941 H   0  0  0  0  0  0  0  0  0  0  0  0
   -7.1045   -1.0659    1.0904 H   0  0  0  0  0  0  0  0  0  0  0  0
   -5.4700   -0.6859   -0.6228 H   0  0  0  0  0  0  0  0  0  0  0  0
   -3.1717   -0.7187   -1.4251 H   0  0  0  0  0  0  0  0  0  0  0  0
   -1.4401   -3.4696   -2.5898 H   0  0  0  0  0  0  0  0  0  0  0  0
    1.8314    1.5727   -0.7901 H   0  0  0  0  0  0  0  0  0  0  0  0
    4.0504    2.6886    0.8717 H   0  0  0  0  0  0  0  0  0  0  0  0
    2.3409    3.1662    0.9233 H   0  0  0  0  0  0  0  0  0  0  0  0
    5.5229    3.9614   -1.2421 H   0  0  0  0  0  0  0  0  0  0  0  0
    4.6647    5.7053   -3.1682 H   0  0  0  0  0  0  0  0  0  0  0  0
    1.9123    5.6927   -2.9230 H   0  0  0  0  0  0  0  0  0  0  0  0
   -0.5162    0.6905    1.8074 H   0  0  0  0  0  0  0  0  0  0  0  0
    0.1175    1.6412    3.9756 H   0  0  0  0  0  0  0  0  0  0  0  0
    2.2965    1.0650    5.0145 H   0  0  0  0  0  0  0  0  0  0  0  0
    3.8296   -0.5136    3.8688 H   0  0  0  0  0  0  0  0  0  0  0  0
    3.2070   -1.5171    1.7274 H   0  0  0  0  0  0  0  0  0  0  0  0
   -2.9901   -4.9812   -0.7865 H   0  0  0  0  0  0  0  0  0  0  0  0
   -5.3181   -4.9453    0.0194 H   0  0  0  0  0  0  0  0  0  0  0  0
  1  2  1  0
  2  3  1  0
  3  4  2  0
  4  5  1  0
  5  6  2  0
  6  7  1  0
  7  8  2  3
  8  9  1  0
  9 10  1  0
 10 11  2  3
 11 12  1  0
 12 13  3  0
 11 14  1  0
 14 15  2  0
 14 16  1  0
 16 17  1  0
 17 18  1  0
 18 19  2  0
 19 20  1  0
 20 21  2  0
 21 22  1  0
 10 23  1  0
 23 24  1  0
 24 25  2  0
 25 26  1  0
 26 27  2  0
 27 28  1  0
 28 29  2  0
 23 30  1  0
 30 31  2  0
  6 32  1  0
 32 33  2  0
 33  3  1  0
 30  8  1  0
 22 18  1  0
 29 24  1  0
  1 34  1  0
  1 35  1  0
  1 36  1  0
  4 37  1  0
  5 38  1  0
  7 39  1  0
 16 40  1  0
 17 41  1  0
 17 42  1  0
 19 43  1  0
 20 44  1  0
 21 45  1  0
 25 46  1  0
 26 47  1  0
 27 48  1  0
 28 49  1  0
 29 50  1  0
 32 51  1  0
 33 52  1  0
M  END
$$$$
