
     RDKit          3D

 53 56  0  0  0  0  0  0  0  0999 V2000
    5.7720   -1.0529    0.5451 C   0  0  0  0  0  0  0  0  0  0  0  0
    6.2826    0.1867    1.0254 O   0  0  0  0  0  0  0  0  0  0  0  0
    5.4663    1.2762    0.9040 C   0  0  0  0  0  0  0  0  0  0  0  0
    5.9454    2.4342    1.5067 C   0  0  0  0  0  0  0  0  0  0  0  0
    5.2036    3.6158    1.4676 C   0  0  0  0  0  0  0  0  0  0  0  0
    3.9579    3.6629    0.8204 C   0  0  0  0  0  0  0  0  0  0  0  0
    3.1788    4.7903    0.7927 O   0  0  0  0  0  0  0  0  0  0  0  0
    3.6666    5.9664    1.4305 C   0  0  0  0  0  0  0  0  0  0  0  0
    3.4641    2.4997    0.1844 C   0  0  0  0  0  0  0  0  0  0  0  0
    2.1740    2.4132   -0.5238 C   0  0  0  0  0  0  0  0  0  0  0  0
    1.4252    3.4755   -1.0007 C   0  0  0  0  0  0  0  0  0  0  0  0
   -0.0128    2.9085   -1.7381 S   0  0  0  0  0  0  0  0  0  0  0  0
    0.4654    1.3107   -1.4256 C   0  0  0  0  0  0  0  0  0  0  0  0
   -0.2635    0.2186   -1.8170 N   0  0  0  0  0  0  0  0  0  0  0  0
   -1.5020    0.2167   -2.4164 C   0  0  0  0  0  0  0  0  0  0  0  0
   -2.2242    1.1822   -2.6622 O   0  0  0  0  0  0  0  0  0  0  0  0
   -1.9889   -1.1730   -2.7524 C   0  0  0  0  0  0  0  0  0  0  0  0
   -2.7787   -1.6971   -1.6570 N   0  0  0  0  0  0  0  0  0  0  0  0
   -2.3494   -2.6791   -0.7929 C   0  0  0  0  0  0  0  0  0  0  0  0
   -1.1037   -3.1332   -0.8428 O   0  0  0  0  0  0  0  0  0  0  0  0
   -3.4141   -3.0119    0.0162 C   0  0  0  0  0  0  0  0  0  0  0  0
   -4.4980   -2.1509   -0.3359 C   0  0  0  0  0  0  0  0  0  0  0  0
   -4.0614   -1.3105   -1.3357 C   0  0  0  0  0  0  0  0  0  0  0  0
   -4.7022   -0.3120   -1.9351 O   0  0  0  0  0  0  0  0  0  0  0  0
   -5.8369   -2.2033    0.3205 C   0  0  0  0  0  0  0  0  0  0  0  0
   -5.8043   -3.0319    1.6165 C   0  0  0  0  0  0  0  0  0  0  0  0
   -4.9823   -4.3206    1.4583 C   0  0  0  0  0  0  0  0  0  0  0  0
   -3.5136   -4.0186    1.1143 C   0  0  0  0  0  0  0  0  0  0  0  0
    1.6103    1.1655   -0.7999 N   0  0  0  0  0  0  0  0  0  0  0  0
    4.2395    1.3178    0.2393 C   0  0  0  0  0  0  0  0  0  0  0  0
    5.6189   -1.0252   -0.5435 H   0  0  0  0  0  0  0  0  0  0  0  0
    6.5220   -1.8215    0.7530 H   0  0  0  0  0  0  0  0  0  0  0  0
    4.8527   -1.3357    1.0720 H   0  0  0  0  0  0  0  0  0  0  0  0
    6.9026    2.4160    2.0212 H   0  0  0  0  0  0  0  0  0  0  0  0
    5.6279    4.4836    1.9608 H   0  0  0  0  0  0  0  0  0  0  0  0
    3.8206    5.8044    2.5020 H   0  0  0  0  0  0  0  0  0  0  0  0
    2.9057    6.7457    1.3214 H   0  0  0  0  0  0  0  0  0  0  0  0
    4.5799    6.3267    0.9440 H   0  0  0  0  0  0  0  0  0  0  0  0
    1.6218    4.5361   -0.9622 H   0  0  0  0  0  0  0  0  0  0  0  0
    0.1656   -0.6627   -1.5528 H   0  0  0  0  0  0  0  0  0  0  0  0
   -2.6219   -1.1367   -3.6475 H   0  0  0  0  0  0  0  0  0  0  0  0
   -1.1527   -1.8470   -2.9761 H   0  0  0  0  0  0  0  0  0  0  0  0
   -1.0366   -3.8371   -0.1679 H   0  0  0  0  0  0  0  0  0  0  0  0
   -4.0618    0.3402   -2.2850 H   0  0  0  0  0  0  0  0  0  0  0  0
   -6.1927   -1.1917    0.5445 H   0  0  0  0  0  0  0  0  0  0  0  0
   -6.5545   -2.6530   -0.3773 H   0  0  0  0  0  0  0  0  0  0  0  0
   -5.3695   -2.4307    2.4259 H   0  0  0  0  0  0  0  0  0  0  0  0
   -6.8313   -3.2757    1.9179 H   0  0  0  0  0  0  0  0  0  0  0  0
   -5.4257   -4.9367    0.6665 H   0  0  0  0  0  0  0  0  0  0  0  0
   -5.0269   -4.9061    2.3843 H   0  0  0  0  0  0  0  0  0  0  0  0
   -3.0015   -4.9487    0.8376 H   0  0  0  0  0  0  0  0  0  0  0  0
   -3.0123   -3.6178    2.0052 H   0  0  0  0  0  0  0  0  0  0  0  0
    3.8539    0.4276   -0.2504 H   0  0  0  0  0  0  0  0  0  0  0  0
  1  2  1  0
  2  3  1  0
  3  4  2  0
  4  5  1  0
  5  6  2  0
  6  7  1  0
  7  8  1  0
  6  9  1  0
  9 10  1  0
 10 11  2  0
 11 12  1  0
 12 13  1  0
 13 14  1  0
 14 15  1  0
 15 16  2  0
 15 17  1  0
 17 18  1  0
 18 19  1  0
 19 20  1  0
 19 21  2  0
 21 22  1  0
 22 23  2  0
 23 24  1  0
 22 25  1  0
 25 26  1  0
 26 27  1  0
 27 28  1  0
 13 29  2  0
  9 30  2  0
 30  3  1  0
 29 10  1  0
 23 18  1  0
 28 21  1  0
  1 31  1  0
  1 32  1  0
  1 33  1  0
  4 34  1  0
  5 35  1  0
  8 36  1  0
  8 37  1  0
  8 38  1  0
 11 39  1  0
 14 40  1  0
 17 41  1  0
 17 42  1  0
 20 43  1  0
 24 44  1  0
 25 45  1  0
 25 46  1  0
 26 47  1  0
 26 48  1  0
 27 49  1  0
 27 50  1  0
 28 51  1  0
 28 52  1  0
 30 53  1  0
M  END
$$$$
