
     RDKit          3D

 40 42  0  0  0  0  0  0  0  0999 V2000
   -4.8170    1.6451    0.4733 C   0  0  0  0  0  0  0  0  0  0  0  0
   -4.4743    0.4007    1.2988 C   0  0  0  0  0  0  0  0  0  0  0  0
   -3.0382    0.4618    1.8578 C   0  0  0  0  0  0  0  0  0  0  0  0
   -1.9532    0.4048    0.7699 C   0  0  0  0  0  0  0  0  0  0  0  0
   -2.2538   -0.6265   -0.2846 C   0  0  0  0  0  0  0  0  0  0  0  0
   -1.3683   -1.1026   -1.3260 C   0  0  0  0  0  0  0  0  0  0  0  0
    0.0412   -0.7627   -1.5532 C   0  0  0  0  0  0  0  0  0  0  0  0
    0.4501   -0.4993   -2.6770 O   0  0  0  0  0  0  0  0  0  0  0  0
    0.8038   -0.8462   -0.4053 N   0  0  0  0  0  0  0  0  0  0  0  0
    2.1723   -0.5515   -0.2552 C   0  0  0  0  0  0  0  0  0  0  0  0
    2.9728   -0.0164   -1.2644 C   0  0  0  0  0  0  0  0  0  0  0  0
    4.3296    0.2582   -1.0357 C   0  0  0  0  0  0  0  0  0  0  0  0
    4.9016    0.0027    0.2089 C   0  0  0  0  0  0  0  0  0  0  0  0
    6.1995    0.2196    0.5696 O   0  0  0  0  0  0  0  0  0  0  0  0
    7.0752    0.7584   -0.4060 C   0  0  0  0  0  0  0  0  0  0  0  0
    6.6611    1.9770   -0.8135 F   0  0  0  0  0  0  0  0  0  0  0  0
    7.1845   -0.0631   -1.4715 F   0  0  0  0  0  0  0  0  0  0  0  0
    8.3022    0.8958    0.1446 F   0  0  0  0  0  0  0  0  0  0  0  0
    4.1002   -0.5290    1.2212 C   0  0  0  0  0  0  0  0  0  0  0  0
    2.7478   -0.8028    0.9939 C   0  0  0  0  0  0  0  0  0  0  0  0
   -2.0416   -1.9462   -2.1942 C   0  0  0  0  0  0  0  0  0  0  0  0
   -3.6599   -2.2274   -1.7359 S   0  0  0  0  0  0  0  0  0  0  0  0
   -3.5208   -1.1711   -0.4124 C   0  0  0  0  0  0  0  0  0  0  0  0
   -4.6886   -0.8949    0.4881 C   0  0  0  0  0  0  0  0  0  0  0  0
   -5.8683    1.6227    0.1666 H   0  0  0  0  0  0  0  0  0  0  0  0
   -4.6630    2.5540    1.0644 H   0  0  0  0  0  0  0  0  0  0  0  0
   -4.2093    1.7245   -0.4333 H   0  0  0  0  0  0  0  0  0  0  0  0
   -5.1690    0.3819    2.1487 H   0  0  0  0  0  0  0  0  0  0  0  0
   -2.9020    1.3679    2.4601 H   0  0  0  0  0  0  0  0  0  0  0  0
   -2.8975   -0.3878    2.5398 H   0  0  0  0  0  0  0  0  0  0  0  0
   -1.8684    1.3841    0.2834 H   0  0  0  0  0  0  0  0  0  0  0  0
   -0.9945    0.2047    1.2564 H   0  0  0  0  0  0  0  0  0  0  0  0
    0.3374   -1.2348    0.4033 H   0  0  0  0  0  0  0  0  0  0  0  0
    2.5744    0.2067   -2.2501 H   0  0  0  0  0  0  0  0  0  0  0  0
    4.8984    0.6727   -1.8636 H   0  0  0  0  0  0  0  0  0  0  0  0
    4.5293   -0.7346    2.1996 H   0  0  0  0  0  0  0  0  0  0  0  0
    2.1592   -1.2170    1.8083 H   0  0  0  0  0  0  0  0  0  0  0  0
   -1.6421   -2.4254   -3.0789 H   0  0  0  0  0  0  0  0  0  0  0  0
   -5.6238   -0.8355   -0.0813 H   0  0  0  0  0  0  0  0  0  0  0  0
   -4.7869   -1.7371    1.1854 H   0  0  0  0  0  0  0  0  0  0  0  0
  1  2  1  0
  2  3  1  0
  3  4  1  0
  4  5  1  0
  5  6  1  0
  6  7  1  0
  7  8  2  0
  7  9  1  0
  9 10  1  0
 10 11  2  0
 11 12  1  0
 12 13  2  0
 13 14  1  0
 14 15  1  0
 15 16  1  0
 15 17  1  0
 15 18  1  0
 13 19  1  0
 19 20  2  0
  6 21  2  0
 21 22  1  0
 22 23  1  0
 23 24  1  0
 24  2  1  0
 23  5  2  0
 20 10  1  0
  1 25  1  0
  1 26  1  0
  1 27  1  0
  2 28  1  0
  3 29  1  0
  3 30  1  0
  4 31  1  0
  4 32  1  0
  9 33  1  0
 11 34  1  0
 12 35  1  0
 19 36  1  0
 20 37  1  0
 21 38  1  0
 24 39  1  0
 24 40  1  0
M  END
$$$$
