
     RDKit          3D

 40 43  0  0  0  0  0  0  0  0999 V2000
    7.2000   -0.5340    1.0244 O   0  0  0  0  0  0  0  0  0  0  0  0
    6.3825   -0.0083    1.7942 N   0  0  0  0  0  4  0  0  0  0  0  0
    6.6515    0.3902    2.9367 O   0  0  0  0  0  1  0  0  0  0  0  0
    5.0033    0.1544    1.3193 C   0  0  0  0  0  0  0  0  0  0  0  0
    4.6559   -0.2753    0.0334 C   0  0  0  0  0  0  0  0  0  0  0  0
    3.3394   -0.1179   -0.4162 C   0  0  0  0  0  0  0  0  0  0  0  0
    2.3631    0.4677    0.4029 C   0  0  0  0  0  0  0  0  0  0  0  0
    0.9788    0.6376   -0.0591 C   0  0  0  0  0  0  0  0  0  0  0  0
   -0.0432    0.8254    0.8635 N   0  0  0  0  0  0  0  0  0  0  0  0
   -1.1895    0.9290    0.1011 N   0  0  0  0  0  0  0  0  0  0  0  0
   -2.4973    1.1356    0.6844 C   0  0  0  0  0  0  0  0  0  0  0  0
   -3.2384   -0.1649    0.8781 C   0  0  0  0  0  0  0  0  0  0  0  0
   -2.8213   -1.0846    1.8525 C   0  0  0  0  0  0  0  0  0  0  0  0
   -3.5085   -2.2853    2.0357 C   0  0  0  0  0  0  0  0  0  0  0  0
   -4.6194   -2.5802    1.2482 C   0  0  0  0  0  0  0  0  0  0  0  0
   -5.0421   -1.6768    0.2748 C   0  0  0  0  0  0  0  0  0  0  0  0
   -4.3553   -0.4756    0.0893 C   0  0  0  0  0  0  0  0  0  0  0  0
   -0.8605    0.8454   -1.2049 C   0  0  0  0  0  0  0  0  0  0  0  0
   -1.4635    0.8996   -2.4010 C   0  0  0  0  0  0  0  0  0  0  0  0
   -2.7580    1.0917   -2.6063 O   0  0  0  0  0  0  0  0  0  0  0  0
   -0.5242    0.7339   -3.4116 N   0  0  0  0  0  0  0  0  0  0  0  0
    0.7299    0.5817   -2.7825 C   0  0  0  0  0  0  0  0  0  0  0  0
    1.8545    0.4146   -3.4675 O   0  0  0  0  0  0  0  0  0  0  0  0
    0.4867    0.6539   -1.4376 C   0  0  0  0  0  0  0  0  0  0  0  0
    2.7325    0.8868    1.6933 C   0  0  0  0  0  0  0  0  0  0  0  0
    4.0444    0.7356    2.1552 C   0  0  0  0  0  0  0  0  0  0  0  0
    5.3874   -0.7337   -0.6287 H   0  0  0  0  0  0  0  0  0  0  0  0
    3.0881   -0.4708   -1.4133 H   0  0  0  0  0  0  0  0  0  0  0  0
   -3.0516    1.8283    0.0417 H   0  0  0  0  0  0  0  0  0  0  0  0
   -2.3612    1.6366    1.6502 H   0  0  0  0  0  0  0  0  0  0  0  0
   -1.9482   -0.8702    2.4675 H   0  0  0  0  0  0  0  0  0  0  0  0
   -3.1727   -2.9910    2.7909 H   0  0  0  0  0  0  0  0  0  0  0  0
   -5.1529   -3.5161    1.3908 H   0  0  0  0  0  0  0  0  0  0  0  0
   -5.9059   -1.9090   -0.3423 H   0  0  0  0  0  0  0  0  0  0  0  0
   -4.6934    0.2153   -0.6800 H   0  0  0  0  0  0  0  0  0  0  0  0
   -2.9508    1.0531   -3.5585 H   0  0  0  0  0  0  0  0  0  0  0  0
   -0.6955    0.7317   -4.4065 H   0  0  0  0  0  0  0  0  0  0  0  0
    1.6727    0.4338   -4.4217 H   0  0  0  0  0  0  0  0  0  0  0  0
    1.9902    1.3390    2.3502 H   0  0  0  0  0  0  0  0  0  0  0  0
    4.2927    1.0729    3.1590 H   0  0  0  0  0  0  0  0  0  0  0  0
  1  2  2  0
  2  3  1  0
  2  4  1  0
  4  5  2  0
  5  6  1  0
  6  7  2  0
  7  8  1  0
  8  9  2  0
  9 10  1  0
 10 11  1  0
 11 12  1  0
 12 13  2  0
 13 14  1  0
 14 15  2  0
 15 16  1  0
 16 17  2  0
 10 18  1  0
 18 19  2  0
 19 20  1  0
 19 21  1  0
 21 22  1  0
 22 23  1  0
 22 24  2  0
  7 25  1  0
 25 26  2  0
 26  4  1  0
 24  8  1  0
 17 12  1  0
 24 18  1  0
  5 27  1  0
  6 28  1  0
 11 29  1  0
 11 30  1  0
 13 31  1  0
 14 32  1  0
 15 33  1  0
 16 34  1  0
 17 35  1  0
 20 36  1  0
 21 37  1  0
 23 38  1  0
 25 39  1  0
 26 40  1  0
M  CHG  2   2   1   3  -1
M  END
$$$$
