
     RDKit          3D

 57 59  0  0  0  0  0  0  0  0999 V2000
   -0.2404   -4.0378    0.9803 C   0  0  0  0  0  0  0  0  0  0  0  0
   -0.7514   -3.4739   -0.3381 C   0  0  0  0  0  0  0  0  0  0  0  0
   -1.6617   -2.2629   -0.1420 C   0  0  0  0  0  0  0  0  0  0  0  0
   -0.9071   -1.2192    0.4836 O   0  0  0  0  0  0  0  0  0  0  0  0
   -1.4250    0.0430    0.3143 C   0  0  0  0  0  0  0  0  0  0  0  0
   -2.7995    0.3212    0.3997 C   0  0  0  0  0  0  0  0  0  0  0  0
   -3.3221    1.6215    0.2558 C   0  0  0  0  0  0  0  0  0  0  0  0
   -4.6871    1.8865    0.3300 N   0  0  0  0  0  0  0  0  0  0  0  0
   -5.2243    3.2535    0.2741 C   0  0  0  0  0  0  0  0  0  0  0  0
   -5.4379    3.7014   -1.1649 C   0  0  0  0  0  0  0  0  0  0  0  0
   -5.6896    0.8137    0.3979 C   0  0  0  0  0  0  0  0  0  0  0  0
   -5.9673    0.4224    1.8422 C   0  0  0  0  0  0  0  0  0  0  0  0
   -2.3717    2.6363    0.0431 C   0  0  0  0  0  0  0  0  0  0  0  0
   -0.9942    2.3820   -0.0227 C   0  0  0  0  0  0  0  0  0  0  0  0
   -0.5121    1.0832    0.1126 C   0  0  0  0  0  0  0  0  0  0  0  0
    0.9371    0.8483    0.0453 C   0  0  0  0  0  0  0  0  0  0  0  0
    1.5703    0.2212   -0.9676 C   0  0  0  0  0  0  0  0  0  0  0  0
    0.8875   -0.2254   -2.1424 C   0  0  0  0  0  0  0  0  0  0  0  0
    0.3114   -0.6140   -3.0738 N   0  0  0  0  0  0  0  0  0  0  0  0
    2.9713    0.0087   -0.8693 C   0  0  0  0  0  0  0  0  0  0  0  0
    3.9486    0.3295   -1.6940 N   0  0  0  0  0  0  0  0  0  0  0  0
    5.1009   -0.1466   -1.1169 C   0  0  0  0  0  0  0  0  0  0  0  0
    6.4274   -0.0708   -1.5659 C   0  0  0  0  0  0  0  0  0  0  0  0
    7.4480   -0.6381   -0.7822 C   0  0  0  0  0  0  0  0  0  0  0  0
    8.8704   -0.5969   -1.2611 C   0  0  0  0  0  0  0  0  0  0  0  0
    7.1263   -1.2913    0.4174 C   0  0  0  0  0  0  0  0  0  0  0  0
    5.8066   -1.3788    0.8800 C   0  0  0  0  0  0  0  0  0  0  0  0
    4.8252   -0.7899    0.0824 C   0  0  0  0  0  0  0  0  0  0  0  0
    3.4643   -0.6896    0.2122 N   0  0  0  0  0  0  0  0  0  0  0  0
    0.3645   -3.3030    1.5211 H   0  0  0  0  0  0  0  0  0  0  0  0
    0.3850   -4.9170    0.7968 H   0  0  0  0  0  0  0  0  0  0  0  0
   -1.0716   -4.3411    1.6246 H   0  0  0  0  0  0  0  0  0  0  0  0
   -1.2976   -4.2550   -0.8782 H   0  0  0  0  0  0  0  0  0  0  0  0
    0.1124   -3.1882   -0.9491 H   0  0  0  0  0  0  0  0  0  0  0  0
   -2.0339   -1.9416   -1.1231 H   0  0  0  0  0  0  0  0  0  0  0  0
   -2.5085   -2.5395    0.4964 H   0  0  0  0  0  0  0  0  0  0  0  0
   -3.4683   -0.5031    0.6137 H   0  0  0  0  0  0  0  0  0  0  0  0
   -4.5899    3.9633    0.8160 H   0  0  0  0  0  0  0  0  0  0  0  0
   -6.1897    3.2903    0.7947 H   0  0  0  0  0  0  0  0  0  0  0  0
   -6.1277    3.0311   -1.6888 H   0  0  0  0  0  0  0  0  0  0  0  0
   -4.4999    3.7175   -1.7284 H   0  0  0  0  0  0  0  0  0  0  0  0
   -5.8632    4.7097   -1.1874 H   0  0  0  0  0  0  0  0  0  0  0  0
   -6.6302    1.1556   -0.0526 H   0  0  0  0  0  0  0  0  0  0  0  0
   -5.3971   -0.0584   -0.1974 H   0  0  0  0  0  0  0  0  0  0  0  0
   -5.0673    0.0556    2.3443 H   0  0  0  0  0  0  0  0  0  0  0  0
   -6.3407    1.2777    2.4156 H   0  0  0  0  0  0  0  0  0  0  0  0
   -6.7237   -0.3674    1.8821 H   0  0  0  0  0  0  0  0  0  0  0  0
   -2.6765    3.6701   -0.0875 H   0  0  0  0  0  0  0  0  0  0  0  0
   -0.3129    3.2132   -0.1904 H   0  0  0  0  0  0  0  0  0  0  0  0
    1.4834    1.2261    0.9067 H   0  0  0  0  0  0  0  0  0  0  0  0
    6.6428    0.4231   -2.5075 H   0  0  0  0  0  0  0  0  0  0  0  0
    9.5635   -0.5316   -0.4145 H   0  0  0  0  0  0  0  0  0  0  0  0
    9.0459    0.2811   -1.8936 H   0  0  0  0  0  0  0  0  0  0  0  0
    9.0968   -1.4998   -1.8383 H   0  0  0  0  0  0  0  0  0  0  0  0
    7.9178   -1.7465    1.0117 H   0  0  0  0  0  0  0  0  0  0  0  0
    5.5697   -1.8832    1.8106 H   0  0  0  0  0  0  0  0  0  0  0  0
    2.9130   -1.0761    0.9650 H   0  0  0  0  0  0  0  0  0  0  0  0
  1  2  1  0
  2  3  1  0
  3  4  1  0
  4  5  1  0
  5  6  2  0
  6  7  1  0
  7  8  1  0
  8  9  1  0
  9 10  1  0
  8 11  1  0
 11 12  1  0
  7 13  2  0
 13 14  1  0
 14 15  2  0
 15 16  1  0
 16 17  2  3
 17 18  1  0
 18 19  3  0
 17 20  1  0
 20 21  2  0
 21 22  1  0
 22 23  2  0
 23 24  1  0
 24 25  1  0
 24 26  2  0
 26 27  1  0
 27 28  2  0
 28 29  1  0
 15  5  1  0
 29 20  1  0
 28 22  1  0
  1 30  1  0
  1 31  1  0
  1 32  1  0
  2 33  1  0
  2 34  1  0
  3 35  1  0
  3 36  1  0
  6 37  1  0
  9 38  1  0
  9 39  1  0
 10 40  1  0
 10 41  1  0
 10 42  1  0
 11 43  1  0
 11 44  1  0
 12 45  1  0
 12 46  1  0
 12 47  1  0
 13 48  1  0
 14 49  1  0
 16 50  1  0
 23 51  1  0
 25 52  1  0
 25 53  1  0
 25 54  1  0
 26 55  1  0
 27 56  1  0
 29 57  1  0
M  END
$$$$
