
     RDKit          3D

 53 56  0  0  0  0  0  0  0  0999 V2000
    6.3651    5.1744   -0.4879 C   0  0  0  0  0  0  0  0  0  0  0  0
    6.7775    4.0724    0.3094 O   0  0  0  0  0  0  0  0  0  0  0  0
    5.9453    2.9882    0.3451 C   0  0  0  0  0  0  0  0  0  0  0  0
    6.4205    1.9151    1.1014 C   0  0  0  0  0  0  0  0  0  0  0  0
    5.6761    0.7401    1.2200 C   0  0  0  0  0  0  0  0  0  0  0  0
    4.4339    0.6336    0.5904 C   0  0  0  0  0  0  0  0  0  0  0  0
    3.7083   -0.5292    0.6342 O   0  0  0  0  0  0  0  0  0  0  0  0
    3.5030   -1.0100    1.9601 C   0  0  0  0  0  0  0  0  0  0  0  0
    3.9535    1.6983   -0.1860 C   0  0  0  0  0  0  0  0  0  0  0  0
    2.6749    1.6142   -0.8681 C   0  0  0  0  0  0  0  0  0  0  0  0
    2.5583    1.6349   -2.2437 C   0  0  0  0  0  0  0  0  0  0  0  0
    0.9044    1.5346   -2.6750 S   0  0  0  0  0  0  0  0  0  0  0  0
    0.4838    1.4701   -1.0268 C   0  0  0  0  0  0  0  0  0  0  0  0
   -0.8105    1.3754   -0.5873 N   0  0  0  0  0  0  0  0  0  0  0  0
   -1.9452    1.2638   -1.3566 C   0  0  0  0  0  0  0  0  0  0  0  0
   -2.0196    1.1950   -2.5829 O   0  0  0  0  0  0  0  0  0  0  0  0
   -3.2126    1.1902   -0.5385 C   0  0  0  0  0  0  0  0  0  0  0  0
   -3.6024   -0.1907   -0.3344 N   0  0  0  0  0  0  0  0  0  0  0  0
   -4.0922   -1.0400   -1.3024 C   0  0  0  0  0  0  0  0  0  0  0  0
   -4.1644   -0.7294   -2.5927 O   0  0  0  0  0  0  0  0  0  0  0  0
   -4.4735   -2.2013   -0.6679 C   0  0  0  0  0  0  0  0  0  0  0  0
   -4.1363   -2.0771    0.7118 C   0  0  0  0  0  0  0  0  0  0  0  0
   -3.5750   -0.8303    0.8834 C   0  0  0  0  0  0  0  0  0  0  0  0
   -3.0772   -0.2301    1.9574 O   0  0  0  0  0  0  0  0  0  0  0  0
   -4.4026   -3.1563    1.7064 C   0  0  0  0  0  0  0  0  0  0  0  0
   -4.6792   -4.5030    1.0192 C   0  0  0  0  0  0  0  0  0  0  0  0
   -5.6434   -4.3547   -0.1688 C   0  0  0  0  0  0  0  0  0  0  0  0
   -5.0692   -3.4345   -1.2584 C   0  0  0  0  0  0  0  0  0  0  0  0
    1.4787    1.5391   -0.1750 N   0  0  0  0  0  0  0  0  0  0  0  0
    4.7115    2.8783   -0.2966 C   0  0  0  0  0  0  0  0  0  0  0  0
    5.4522    5.6248   -0.0883 H   0  0  0  0  0  0  0  0  0  0  0  0
    6.2372    4.8811   -1.5341 H   0  0  0  0  0  0  0  0  0  0  0  0
    7.1566    5.9303   -0.4500 H   0  0  0  0  0  0  0  0  0  0  0  0
    7.3882    1.9908    1.5924 H   0  0  0  0  0  0  0  0  0  0  0  0
    6.0903   -0.0893    1.7828 H   0  0  0  0  0  0  0  0  0  0  0  0
    2.6537   -1.6977    1.9372 H   0  0  0  0  0  0  0  0  0  0  0  0
    4.3777   -1.5715    2.3040 H   0  0  0  0  0  0  0  0  0  0  0  0
    3.2624   -0.1999    2.6579 H   0  0  0  0  0  0  0  0  0  0  0  0
    3.3364    1.6918   -2.9908 H   0  0  0  0  0  0  0  0  0  0  0  0
   -0.8800    1.3185    0.4217 H   0  0  0  0  0  0  0  0  0  0  0  0
   -3.0946    1.6949    0.4251 H   0  0  0  0  0  0  0  0  0  0  0  0
   -4.0240    1.6966   -1.0712 H   0  0  0  0  0  0  0  0  0  0  0  0
   -3.5027   -0.0455   -2.8224 H   0  0  0  0  0  0  0  0  0  0  0  0
   -3.1880   -0.8506    2.7011 H   0  0  0  0  0  0  0  0  0  0  0  0
   -3.5604   -3.2612    2.3977 H   0  0  0  0  0  0  0  0  0  0  0  0
   -5.2761   -2.8714    2.3065 H   0  0  0  0  0  0  0  0  0  0  0  0
   -3.7348   -4.9317    0.6617 H   0  0  0  0  0  0  0  0  0  0  0  0
   -5.0944   -5.2075    1.7493 H   0  0  0  0  0  0  0  0  0  0  0  0
   -6.5965   -3.9470    0.1918 H   0  0  0  0  0  0  0  0  0  0  0  0
   -5.8586   -5.3392   -0.5984 H   0  0  0  0  0  0  0  0  0  0  0  0
   -5.8577   -3.1764   -1.9730 H   0  0  0  0  0  0  0  0  0  0  0  0
   -4.2876   -3.9701   -1.8100 H   0  0  0  0  0  0  0  0  0  0  0  0
    4.3093    3.6995   -0.8808 H   0  0  0  0  0  0  0  0  0  0  0  0
  1  2  1  0
  2  3  1  0
  3  4  2  0
  4  5  1  0
  5  6  2  0
  6  7  1  0
  7  8  1  0
  6  9  1  0
  9 10  1  0
 10 11  2  0
 11 12  1  0
 12 13  1  0
 13 14  1  0
 14 15  1  0
 15 16  2  0
 15 17  1  0
 17 18  1  0
 18 19  1  0
 19 20  1  0
 19 21  2  0
 21 22  1  0
 22 23  2  0
 23 24  1  0
 22 25  1  0
 25 26  1  0
 26 27  1  0
 27 28  1  0
 13 29  2  0
  9 30  2  0
 30  3  1  0
 29 10  1  0
 23 18  1  0
 28 21  1  0
  1 31  1  0
  1 32  1  0
  1 33  1  0
  4 34  1  0
  5 35  1  0
  8 36  1  0
  8 37  1  0
  8 38  1  0
 11 39  1  0
 14 40  1  0
 17 41  1  0
 17 42  1  0
 20 43  1  0
 24 44  1  0
 25 45  1  0
 25 46  1  0
 26 47  1  0
 26 48  1  0
 27 49  1  0
 27 50  1  0
 28 51  1  0
 28 52  1  0
 30 53  1  0
M  END
$$$$
