
     RDKit          3D

 57 58  0  0  0  0  0  0  0  0999 V2000
    5.9174   -1.4347    0.9580 C   0  0  0  0  0  0  0  0  0  0  0  0
    5.2310   -0.6637   -0.1339 C   0  0  0  0  0  0  0  0  0  0  0  0
    4.8487   -1.3132   -1.3165 C   0  0  0  0  0  0  0  0  0  0  0  0
    4.2170   -0.6076   -2.3405 C   0  0  0  0  0  0  0  0  0  0  0  0
    3.9711    0.7560   -2.1973 C   0  0  0  0  0  0  0  0  0  0  0  0
    4.3396    1.4120   -1.0224 C   0  0  0  0  0  0  0  0  0  0  0  0
    4.9421    0.7020    0.0182 C   0  0  0  0  0  0  0  0  0  0  0  0
    5.3212    1.2992    1.1926 O   0  0  0  0  0  0  0  0  0  0  0  0
    4.3050    2.0727    1.8473 C   0  0  0  0  0  0  0  0  0  0  0  0
    3.3354    1.1871    2.6174 C   0  0  0  0  0  0  0  0  0  0  0  0
    2.2530    0.6850    1.7027 C   0  0  0  0  0  0  0  0  0  0  0  0
    1.5134    1.4096    1.0462 O   0  0  0  0  0  0  0  0  0  0  0  0
    2.2087   -0.6753    1.7041 O   0  0  0  0  0  0  0  0  0  0  0  0
    1.2395   -1.2227    0.8054 C   0  0  0  0  0  0  0  0  0  0  0  0
   -0.1951   -0.9156    1.2414 C   0  0  0  0  0  0  0  0  0  0  0  0
   -0.4750   -0.7358    2.4320 O   0  0  0  0  0  0  0  0  0  0  0  0
   -1.2343   -0.7475    0.1733 C   0  0  0  0  0  0  0  0  0  0  0  0
   -2.2439    0.1380    0.3297 C   0  0  0  0  0  0  0  0  0  0  0  0
   -2.4217    0.8623    1.5052 N   0  0  0  0  0  0  0  0  0  0  0  0
   -3.1497    0.3283   -0.7142 N   0  0  0  0  0  0  0  0  0  0  0  0
   -4.3336    1.1841   -0.5082 C   0  0  0  0  0  0  0  0  0  0  0  0
   -5.4591    0.5028    0.2989 C   0  0  0  0  0  0  0  0  0  0  0  0
   -6.5496    1.5248    0.6283 C   0  0  0  0  0  0  0  0  0  0  0  0
   -6.0698   -0.6844   -0.4478 C   0  0  0  0  0  0  0  0  0  0  0  0
   -3.0403   -0.3030   -1.9540 C   0  0  0  0  0  0  0  0  0  0  0  0
   -3.8692   -0.1470   -2.8530 O   0  0  0  0  0  0  0  0  0  0  0  0
   -1.9494   -1.1372   -2.1180 N   0  0  0  0  0  0  0  0  0  0  0  0
   -1.8208   -1.8407   -3.3809 C   0  0  0  0  0  0  0  0  0  0  0  0
   -1.1244   -1.5119   -1.0845 C   0  0  0  0  0  0  0  0  0  0  0  0
   -0.3235   -2.4432   -1.1641 O   0  0  0  0  0  0  0  0  0  0  0  0
    6.1111   -2.4705    0.6586 H   0  0  0  0  0  0  0  0  0  0  0  0
    6.8815   -0.9739    1.1978 H   0  0  0  0  0  0  0  0  0  0  0  0
    5.2915   -1.4591    1.8566 H   0  0  0  0  0  0  0  0  0  0  0  0
    5.0434   -2.3759   -1.4491 H   0  0  0  0  0  0  0  0  0  0  0  0
    3.9308   -1.1202   -3.2558 H   0  0  0  0  0  0  0  0  0  0  0  0
    3.4979    1.3105   -3.0031 H   0  0  0  0  0  0  0  0  0  0  0  0
    4.1604    2.4800   -0.9442 H   0  0  0  0  0  0  0  0  0  0  0  0
    4.8418    2.6932    2.5743 H   0  0  0  0  0  0  0  0  0  0  0  0
    3.8036    2.7721    1.1697 H   0  0  0  0  0  0  0  0  0  0  0  0
    3.8602    0.3439    3.0788 H   0  0  0  0  0  0  0  0  0  0  0  0
    2.8407    1.7528    3.4139 H   0  0  0  0  0  0  0  0  0  0  0  0
    1.3719   -2.3085    0.8107 H   0  0  0  0  0  0  0  0  0  0  0  0
    1.4428   -0.8488   -0.2039 H   0  0  0  0  0  0  0  0  0  0  0  0
   -1.7296    0.6171    2.2256 H   0  0  0  0  0  0  0  0  0  0  0  0
   -2.3791    1.8641    1.3347 H   0  0  0  0  0  0  0  0  0  0  0  0
   -4.7316    1.5065   -1.4783 H   0  0  0  0  0  0  0  0  0  0  0  0
   -4.0139    2.1117   -0.0178 H   0  0  0  0  0  0  0  0  0  0  0  0
   -5.0565    0.1291    1.2476 H   0  0  0  0  0  0  0  0  0  0  0  0
   -6.1382    2.3599    1.2059 H   0  0  0  0  0  0  0  0  0  0  0  0
   -7.0009    1.9321   -0.2829 H   0  0  0  0  0  0  0  0  0  0  0  0
   -7.3454    1.0672    1.2258 H   0  0  0  0  0  0  0  0  0  0  0  0
   -5.3303   -1.4757   -0.6061 H   0  0  0  0  0  0  0  0  0  0  0  0
   -6.4625   -0.3811   -1.4240 H   0  0  0  0  0  0  0  0  0  0  0  0
   -6.8948   -1.1204    0.1262 H   0  0  0  0  0  0  0  0  0  0  0  0
   -2.4384   -2.7439   -3.3392 H   0  0  0  0  0  0  0  0  0  0  0  0
   -0.7805   -2.1279   -3.5613 H   0  0  0  0  0  0  0  0  0  0  0  0
   -2.1595   -1.2147   -4.2122 H   0  0  0  0  0  0  0  0  0  0  0  0
  1  2  1  0
  2  3  2  0
  3  4  1  0
  4  5  2  0
  5  6  1  0
  6  7  2  0
  7  8  1  0
  8  9  1  0
  9 10  1  0
 10 11  1  0
 11 12  2  0
 11 13  1  0
 13 14  1  0
 14 15  1  0
 15 16  2  0
 15 17  1  0
 17 18  2  0
 18 19  1  0
 18 20  1  0
 20 21  1  0
 21 22  1  0
 22 23  1  0
 22 24  1  0
 20 25  1  0
 25 26  2  0
 25 27  1  0
 27 28  1  0
 27 29  1  0
 29 30  2  0
  7  2  1  0
 29 17  1  0
  1 31  1  0
  1 32  1  0
  1 33  1  0
  3 34  1  0
  4 35  1  0
  5 36  1  0
  6 37  1  0
  9 38  1  0
  9 39  1  0
 10 40  1  0
 10 41  1  0
 14 42  1  0
 14 43  1  0
 19 44  1  0
 19 45  1  0
 21 46  1  0
 21 47  1  0
 22 48  1  0
 23 49  1  0
 23 50  1  0
 23 51  1  0
 24 52  1  0
 24 53  1  0
 24 54  1  0
 28 55  1  0
 28 56  1  0
 28 57  1  0
M  END
$$$$
