
     RDKit          3D

 38 41  0  0  0  0  0  0  0  0999 V2000
    8.2600    1.5411    0.3718 C   0  0  0  0  0  0  0  0  0  0  0  0
    6.7873    1.7150    0.4125 C   0  0  0  0  0  0  0  0  0  0  0  0
    6.1651    2.8512    0.6455 N   0  0  0  0  0  0  0  0  0  0  0  0
    4.7931    2.7002    0.6194 N   0  0  0  0  0  0  0  0  0  0  0  0
    4.4324    1.4608    0.3689 C   0  0  0  0  0  0  0  0  0  0  0  0
    3.1145    1.0909    0.2977 N   0  0  0  0  0  0  0  0  0  0  0  0
    2.6028   -0.1631    0.0454 C   0  0  0  0  0  0  0  0  0  0  0  0
    3.2857   -1.1650   -0.1558 O   0  0  0  0  0  0  0  0  0  0  0  0
    1.1372   -0.2338    0.0324 C   0  0  0  0  0  0  0  0  0  0  0  0
    0.1711    1.1065    0.4851 S   0  0  0  0  0  0  0  0  0  0  0  0
   -1.2729    0.2486    0.2340 C   0  0  0  0  0  0  0  0  0  0  0  0
   -2.4510    0.8602    0.4494 N   0  0  0  0  0  0  0  0  0  0  0  0
   -3.5403    0.1122    0.2050 C   0  0  0  0  0  0  0  0  0  0  0  0
   -4.8328    0.7824    0.4213 C   0  0  0  0  0  0  0  0  0  0  0  0
   -6.0354    0.6014   -0.2438 C   0  0  0  0  0  0  0  0  0  0  0  0
   -7.0810    1.4285    0.2624 C   0  0  0  0  0  0  0  0  0  0  0  0
   -6.6518    2.2184    1.3029 C   0  0  0  0  0  0  0  0  0  0  0  0
   -5.0021    1.9629    1.6630 S   0  0  0  0  0  0  0  0  0  0  0  0
   -3.4805   -1.1995   -0.2466 C   0  0  0  0  0  0  0  0  0  0  0  0
   -2.2352   -1.8266   -0.4573 C   0  0  0  0  0  0  0  0  0  0  0  0
   -2.2023   -3.2364   -0.9815 C   0  0  0  0  0  0  0  0  0  0  0  0
   -1.8752   -3.2987   -2.3000 F   0  0  0  0  0  0  0  0  0  0  0  0
   -1.3109   -4.0363   -0.3299 F   0  0  0  0  0  0  0  0  0  0  0  0
   -3.4036   -3.8736   -0.8715 F   0  0  0  0  0  0  0  0  0  0  0  0
   -1.0704   -1.0566   -0.1979 C   0  0  0  0  0  0  0  0  0  0  0  0
    0.3422   -1.3212   -0.2965 C   0  0  0  0  0  0  0  0  0  0  0  0
    0.8601   -2.5117   -0.6846 N   0  0  0  0  0  0  0  0  0  0  0  0
    5.7346    0.3859    0.1466 S   0  0  0  0  0  0  0  0  0  0  0  0
    8.5831    1.1812   -0.6101 H   0  0  0  0  0  0  0  0  0  0  0  0
    8.5895    0.8273    1.1335 H   0  0  0  0  0  0  0  0  0  0  0  0
    8.7638    2.4939    0.5634 H   0  0  0  0  0  0  0  0  0  0  0  0
    2.4699    1.8545    0.4531 H   0  0  0  0  0  0  0  0  0  0  0  0
   -6.1660   -0.0861   -1.0707 H   0  0  0  0  0  0  0  0  0  0  0  0
   -8.0943    1.4452   -0.1203 H   0  0  0  0  0  0  0  0  0  0  0  0
   -7.2257    2.9378    1.8708 H   0  0  0  0  0  0  0  0  0  0  0  0
   -4.3991   -1.7530   -0.4308 H   0  0  0  0  0  0  0  0  0  0  0  0
    0.3639   -3.3908   -0.5375 H   0  0  0  0  0  0  0  0  0  0  0  0
    1.8742   -2.6535   -0.6085 H   0  0  0  0  0  0  0  0  0  0  0  0
  1  2  1  0
  2  3  2  0
  3  4  1  0
  4  5  2  0
  5  6  1  0
  6  7  1  0
  7  8  2  0
  7  9  1  0
  9 10  1  0
 10 11  1  0
 11 12  2  0
 12 13  1  0
 13 14  1  0
 14 15  2  0
 15 16  1  0
 16 17  2  0
 17 18  1  0
 13 19  2  0
 19 20  1  0
 20 21  1  0
 21 22  1  0
 21 23  1  0
 21 24  1  0
 20 25  2  0
 25 26  1  0
 26 27  1  0
  5 28  1  0
 28  2  1  0
 26  9  2  0
 25 11  1  0
 18 14  1  0
  1 29  1  0
  1 30  1  0
  1 31  1  0
  6 32  1  0
 15 33  1  0
 16 34  1  0
 17 35  1  0
 19 36  1  0
 27 37  1  0
 27 38  1  0
M  END
$$$$
