
     RDKit          3D

 62 65  0  0  0  0  0  0  0  0999 V2000
   -4.3502   -3.6487    2.4173 C   0  0  0  0  0  0  0  0  0  0  0  0
   -4.6777   -2.3727    3.1726 C   0  0  0  0  0  0  0  0  0  0  0  0
   -4.3170   -1.1381    2.3682 C   0  0  0  0  0  0  0  0  0  0  0  0
   -5.2076   -0.5281    1.7681 O   0  0  0  0  0  0  0  0  0  0  0  0
   -2.9865   -0.7504    2.3022 N   0  0  0  0  0  0  0  0  0  0  0  0
   -1.8745   -1.3829    2.9971 C   0  0  0  0  0  0  0  0  0  0  0  0
   -2.6384    0.4242    1.4957 C   0  0  0  0  0  0  0  0  0  0  0  0
   -2.7002    0.1434   -0.0110 C   0  0  0  0  0  0  0  0  0  0  0  0
   -2.1899    1.3112   -0.8276 C   0  0  0  0  0  0  0  0  0  0  0  0
   -3.0610    2.3994   -1.0408 C   0  0  0  0  0  0  0  0  0  0  0  0
   -2.6343    3.4422   -1.8397 C   0  0  0  0  0  0  0  0  0  0  0  0
   -1.3910    3.4503   -2.4252 C   0  0  0  0  0  0  0  0  0  0  0  0
   -0.4902    2.4238   -2.2109 C   0  0  0  0  0  0  0  0  0  0  0  0
    0.7357    2.4149   -2.8230 O   0  0  0  0  0  0  0  0  0  0  0  0
    1.6154    3.3716   -2.2183 C   0  0  0  0  0  0  0  0  0  0  0  0
   -0.8925    1.3444   -1.4066 C   0  0  0  0  0  0  0  0  0  0  0  0
    0.0907    0.2615   -1.2062 C   0  0  0  0  0  0  0  0  0  0  0  0
    0.3037   -0.2540   -0.0405 N   0  0  0  0  0  0  0  0  0  0  0  0
    1.2458   -1.2402   -0.0203 N   0  0  0  0  0  0  0  0  0  0  0  0
    1.7288   -1.7316    1.1749 C   0  0  0  0  0  0  0  0  0  0  0  0
    1.4458   -1.3305    2.2994 O   0  0  0  0  0  0  0  0  0  0  0  0
    2.6635   -2.8816    1.0147 C   0  0  0  0  0  0  0  0  0  0  0  0
    3.9470   -2.8759    1.8101 C   0  0  0  0  0  0  0  0  0  0  0  0
    4.0059   -2.7949    0.3071 C   0  0  0  0  0  0  0  0  0  0  0  0
    4.4172   -1.5455   -0.4396 C   0  0  0  0  0  0  0  0  0  0  0  0
    4.1893   -1.4543   -1.8263 C   0  0  0  0  0  0  0  0  0  0  0  0
    4.5511   -0.3202   -2.5576 C   0  0  0  0  0  0  0  0  0  0  0  0
    5.1569    0.7544   -1.9177 C   0  0  0  0  0  0  0  0  0  0  0  0
    5.4073    0.6864   -0.5520 C   0  0  0  0  0  0  0  0  0  0  0  0
    5.0465   -0.4537    0.1730 C   0  0  0  0  0  0  0  0  0  0  0  0
   -1.2043    4.5464   -3.2141 O   0  0  0  0  0  0  0  0  0  0  0  0
   -2.4589    5.2334   -3.0364 C   0  0  0  0  0  0  0  0  0  0  0  0
   -3.3654    4.5444   -2.1593 O   0  0  0  0  0  0  0  0  0  0  0  0
   -4.5895   -4.5197    3.0327 H   0  0  0  0  0  0  0  0  0  0  0  0
   -4.9340   -3.7159    1.4929 H   0  0  0  0  0  0  0  0  0  0  0  0
   -3.2956   -3.7013    2.1404 H   0  0  0  0  0  0  0  0  0  0  0  0
   -4.1912   -2.3404    4.1496 H   0  0  0  0  0  0  0  0  0  0  0  0
   -5.7564   -2.3422    3.3789 H   0  0  0  0  0  0  0  0  0  0  0  0
   -2.1712   -2.2554    3.5864 H   0  0  0  0  0  0  0  0  0  0  0  0
   -1.1298   -1.6939    2.2599 H   0  0  0  0  0  0  0  0  0  0  0  0
   -1.4303   -0.6463    3.6764 H   0  0  0  0  0  0  0  0  0  0  0  0
   -3.3353    1.2390    1.7527 H   0  0  0  0  0  0  0  0  0  0  0  0
   -1.6371    0.7678    1.7892 H   0  0  0  0  0  0  0  0  0  0  0  0
   -2.1632   -0.7797   -0.2576 H   0  0  0  0  0  0  0  0  0  0  0  0
   -3.7364   -0.0623   -0.3141 H   0  0  0  0  0  0  0  0  0  0  0  0
   -4.0600    2.4170   -0.6081 H   0  0  0  0  0  0  0  0  0  0  0  0
    1.8009    3.1244   -1.1649 H   0  0  0  0  0  0  0  0  0  0  0  0
    2.5698    3.3224   -2.7543 H   0  0  0  0  0  0  0  0  0  0  0  0
    1.2354    4.3960   -2.3113 H   0  0  0  0  0  0  0  0  0  0  0  0
    0.6841   -0.0339   -2.0941 H   0  0  0  0  0  0  0  0  0  0  0  0
    1.6553   -1.5548   -0.8890 H   0  0  0  0  0  0  0  0  0  0  0  0
    2.1451   -3.8345    0.9676 H   0  0  0  0  0  0  0  0  0  0  0  0
    4.1320   -2.0053    2.4287 H   0  0  0  0  0  0  0  0  0  0  0  0
    4.2563   -3.8052    2.2783 H   0  0  0  0  0  0  0  0  0  0  0  0
    4.3424   -3.7160   -0.1704 H   0  0  0  0  0  0  0  0  0  0  0  0
    3.7215   -2.2850   -2.3496 H   0  0  0  0  0  0  0  0  0  0  0  0
    4.3695   -0.2833   -3.6258 H   0  0  0  0  0  0  0  0  0  0  0  0
    5.4550    1.6367   -2.4826 H   0  0  0  0  0  0  0  0  0  0  0  0
    5.8857    1.5206   -0.0376 H   0  0  0  0  0  0  0  0  0  0  0  0
    5.2596   -0.4734    1.2422 H   0  0  0  0  0  0  0  0  0  0  0  0
   -2.9373    5.3486   -4.0149 H   0  0  0  0  0  0  0  0  0  0  0  0
   -2.2564    6.2272   -2.6288 H   0  0  0  0  0  0  0  0  0  0  0  0
  1  2  1  0
  2  3  1  0
  3  4  2  0
  3  5  1  0
  5  6  1  0
  5  7  1  0
  7  8  1  0
  8  9  1  0
  9 10  2  0
 10 11  1  0
 11 12  2  0
 12 13  1  0
 13 14  1  0
 14 15  1  0
 13 16  2  0
 16 17  1  0
 17 18  2  3
 18 19  1  0
 19 20  1  0
 20 21  2  0
 20 22  1  0
 22 23  1  0
 23 24  1  0
 24 25  1  0
 25 26  2  0
 26 27  1  0
 27 28  2  0
 28 29  1  0
 29 30  2  0
 12 31  1  0
 31 32  1  0
 32 33  1  0
 16  9  1  0
 24 22  1  0
 30 25  1  0
 33 11  1  0
  1 34  1  0
  1 35  1  0
  1 36  1  0
  2 37  1  0
  2 38  1  0
  6 39  1  0
  6 40  1  0
  6 41  1  0
  7 42  1  0
  7 43  1  0
  8 44  1  0
  8 45  1  0
 10 46  1  0
 15 47  1  0
 15 48  1  0
 15 49  1  0
 17 50  1  0
 19 51  1  0
 22 52  1  0
 23 53  1  0
 23 54  1  0
 24 55  1  0
 26 56  1  0
 27 57  1  0
 28 58  1  0
 29 59  1  0
 30 60  1  0
 32 61  1  0
 32 62  1  0
M  END
$$$$
