
     RDKit          3D

 52 54  0  0  0  0  0  0  0  0999 V2000
    2.9683   -0.8071   -0.9285 O   0  0  0  0  0  0  0  0  0  0  0  0
    2.2002   -0.9206    0.0183 C   0  0  0  0  0  0  0  0  0  0  0  0
    2.1835   -1.9257    0.9650 N   0  0  0  0  0  0  0  0  0  0  0  0
    3.0309   -3.0447    1.0593 C   0  0  0  0  0  0  0  0  0  0  0  0
    2.8109   -3.9258    2.1264 C   0  0  0  0  0  0  0  0  0  0  0  0
    3.6095   -5.0607    2.2910 C   0  0  0  0  0  0  0  0  0  0  0  0
    4.6365   -5.3250    1.3890 C   0  0  0  0  0  0  0  0  0  0  0  0
    4.8619   -4.4552    0.3247 C   0  0  0  0  0  0  0  0  0  0  0  0
    4.0623   -3.3193    0.1601 C   0  0  0  0  0  0  0  0  0  0  0  0
    1.1124    0.0942    0.2845 C   0  0  0  0  0  0  0  0  0  0  0  0
    0.9796    1.1351   -0.5545 C   0  0  0  0  0  0  0  0  0  0  0  0
   -0.0436    2.2155   -0.3456 C   0  0  0  0  0  0  0  0  0  0  0  0
    0.5020    3.6129   -0.5976 C   0  0  0  0  0  0  0  0  0  0  0  0
    1.6890    4.0618    0.0049 C   0  0  0  0  0  0  0  0  0  0  0  0
    2.1621    5.3543   -0.2289 C   0  0  0  0  0  0  0  0  0  0  0  0
    1.4545    6.2167   -1.0631 C   0  0  0  0  0  0  0  0  0  0  0  0
    0.2731    5.7881   -1.6639 C   0  0  0  0  0  0  0  0  0  0  0  0
   -0.2015    4.4955   -1.4320 C   0  0  0  0  0  0  0  0  0  0  0  0
   -0.6489    2.1211    1.0601 C   0  0  0  0  0  0  0  0  0  0  0  0
   -0.9069    0.6603    1.4118 C   0  0  0  0  0  0  0  0  0  0  0  0
   -1.9080    0.1375    0.5357 O   0  0  0  0  0  0  0  0  0  0  0  0
   -2.3557   -1.1577    0.9247 C   0  0  0  0  0  0  0  0  0  0  0  0
   -3.4367   -1.6321   -0.0427 C   0  0  0  0  0  0  0  0  0  0  0  0
   -4.6673   -0.7177   -0.0302 C   0  0  0  0  0  0  0  0  0  0  0  0
   -5.7950   -1.2576   -0.9019 C   0  0  0  0  0  0  0  0  0  0  0  0
   -5.3722   -1.3335   -2.2547 O   0  0  0  0  0  0  0  0  0  0  0  0
    0.3029   -0.1100    1.3919 O   0  0  0  0  0  0  0  0  0  0  0  0
    1.4671   -1.8299    1.6751 H   0  0  0  0  0  0  0  0  0  0  0  0
    2.0162   -3.7413    2.8441 H   0  0  0  0  0  0  0  0  0  0  0  0
    3.4299   -5.7363    3.1229 H   0  0  0  0  0  0  0  0  0  0  0  0
    5.2603   -6.2061    1.5132 H   0  0  0  0  0  0  0  0  0  0  0  0
    5.6621   -4.6558   -0.3834 H   0  0  0  0  0  0  0  0  0  0  0  0
    4.2719   -2.6683   -0.6829 H   0  0  0  0  0  0  0  0  0  0  0  0
    1.6266    1.2222   -1.4258 H   0  0  0  0  0  0  0  0  0  0  0  0
   -0.8373    2.0238   -1.0816 H   0  0  0  0  0  0  0  0  0  0  0  0
    2.2585    3.4045    0.6587 H   0  0  0  0  0  0  0  0  0  0  0  0
    3.0854    5.6864    0.2386 H   0  0  0  0  0  0  0  0  0  0  0  0
    1.8247    7.2218   -1.2464 H   0  0  0  0  0  0  0  0  0  0  0  0
   -0.2794    6.4596   -2.3156 H   0  0  0  0  0  0  0  0  0  0  0  0
   -1.1266    4.1811   -1.9109 H   0  0  0  0  0  0  0  0  0  0  0  0
    0.0352    2.5482    1.8052 H   0  0  0  0  0  0  0  0  0  0  0  0
   -1.5816    2.6973    1.0975 H   0  0  0  0  0  0  0  0  0  0  0  0
   -1.2931    0.6235    2.4378 H   0  0  0  0  0  0  0  0  0  0  0  0
   -2.7532   -1.1225    1.9456 H   0  0  0  0  0  0  0  0  0  0  0  0
   -1.5172   -1.8624    0.8981 H   0  0  0  0  0  0  0  0  0  0  0  0
   -3.7310   -2.6535    0.2252 H   0  0  0  0  0  0  0  0  0  0  0  0
   -3.0209   -1.6609   -1.0571 H   0  0  0  0  0  0  0  0  0  0  0  0
   -4.3793    0.2763   -0.3930 H   0  0  0  0  0  0  0  0  0  0  0  0
   -5.0337   -0.6034    0.9965 H   0  0  0  0  0  0  0  0  0  0  0  0
   -6.6615   -0.5909   -0.8475 H   0  0  0  0  0  0  0  0  0  0  0  0
   -6.1000   -2.2559   -0.5716 H   0  0  0  0  0  0  0  0  0  0  0  0
   -6.1268   -1.6580   -2.7747 H   0  0  0  0  0  0  0  0  0  0  0  0
  1  2  2  0
  2  3  1  0
  3  4  1  0
  4  5  2  0
  5  6  1  0
  6  7  2  0
  7  8  1  0
  8  9  2  0
  2 10  1  0
 10 11  2  0
 11 12  1  0
 12 13  1  0
 13 14  2  0
 14 15  1  0
 15 16  2  0
 16 17  1  0
 17 18  2  0
 12 19  1  0
 19 20  1  0
 20 21  1  0
 21 22  1  0
 22 23  1  0
 23 24  1  0
 24 25  1  0
 25 26  1  0
 20 27  1  0
  9  4  1  0
 27 10  1  0
 18 13  1  0
  3 28  1  0
  5 29  1  0
  6 30  1  0
  7 31  1  0
  8 32  1  0
  9 33  1  0
 11 34  1  0
 12 35  1  0
 14 36  1  0
 15 37  1  0
 16 38  1  0
 17 39  1  0
 18 40  1  0
 19 41  1  0
 19 42  1  0
 20 43  1  0
 22 44  1  0
 22 45  1  0
 23 46  1  0
 23 47  1  0
 24 48  1  0
 24 49  1  0
 25 50  1  0
 25 51  1  0
 26 52  1  0
M  END
$$$$
