
     RDKit          3D

 55 57  0  0  0  0  0  0  0  0999 V2000
    1.4192   -2.9316    1.3071 C   0  0  0  0  0  0  0  0  0  0  0  0
    2.0188   -2.5167   -0.0405 C   0  0  0  0  0  0  0  0  0  0  0  0
    0.9576   -2.3695   -1.1337 C   0  0  0  0  0  0  0  0  0  0  0  0
    1.0872   -2.9950   -2.1862 O   0  0  0  0  0  0  0  0  0  0  0  0
   -0.0912   -1.5305   -0.8128 N   0  0  0  0  0  0  0  0  0  0  0  0
   -1.2443   -1.2233   -1.5785 C   0  0  0  0  0  0  0  0  0  0  0  0
   -1.4215   -1.6833   -2.8876 C   0  0  0  0  0  0  0  0  0  0  0  0
   -2.6028   -1.4184   -3.5878 C   0  0  0  0  0  0  0  0  0  0  0  0
   -3.6314   -0.7006   -2.9868 C   0  0  0  0  0  0  0  0  0  0  0  0
   -3.4688   -0.2169   -1.6911 C   0  0  0  0  0  0  0  0  0  0  0  0
   -2.2665   -0.4351   -0.9990 C   0  0  0  0  0  0  0  0  0  0  0  0
   -2.1164    0.0985    0.3849 C   0  0  0  0  0  0  0  0  0  0  0  0
   -1.5856   -0.6275    1.2268 O   0  0  0  0  0  0  0  0  0  0  0  0
   -2.5476    1.3858    0.6863 N   0  0  0  0  0  0  0  0  0  0  0  0
   -2.7365    2.4655   -0.2915 C   0  0  0  0  0  0  0  0  0  0  0  0
   -2.3804    3.8311    0.3109 C   0  0  0  0  0  0  0  0  0  0  0  0
   -3.1506    4.1485    1.4761 O   0  0  0  0  0  0  0  0  0  0  0  0
   -3.4593    3.0142    2.3001 C   0  0  0  0  0  0  0  0  0  0  0  0
   -2.5343    1.8140    2.0864 C   0  0  0  0  0  0  0  0  0  0  0  0
    2.9991   -1.3880    0.0772 N   0  0  0  0  0  0  0  0  0  0  0  0
    2.6274   -0.2380    0.8667 C   0  0  0  0  0  0  0  0  0  0  0  0
    1.8500    0.8018    0.3460 C   0  0  0  0  0  0  0  0  0  0  0  0
    1.4728    1.8714    1.1599 C   0  0  0  0  0  0  0  0  0  0  0  0
    1.8604    1.8954    2.4972 C   0  0  0  0  0  0  0  0  0  0  0  0
    1.3806    3.2071    3.5003 Cl  0  0  0  0  0  0  0  0  0  0  0  0
    2.6290    0.8608    3.0266 C   0  0  0  0  0  0  0  0  0  0  0  0
    3.0112   -0.2066    2.2101 C   0  0  0  0  0  0  0  0  0  0  0  0
    3.8982   -0.9781   -1.3282 S   0  0  0  0  0  6  0  0  0  0  0  0
    4.6532   -2.5240   -1.7941 C   0  0  0  0  0  0  0  0  0  0  0  0
    4.9721   -0.0976   -0.9142 O   0  0  0  0  0  0  0  0  0  0  0  0
    2.9782   -0.5709   -2.3672 O   0  0  0  0  0  0  0  0  0  0  0  0
    2.2101   -3.2168    2.0106 H   0  0  0  0  0  0  0  0  0  0  0  0
    0.8295   -2.1390    1.7775 H   0  0  0  0  0  0  0  0  0  0  0  0
    0.7552   -3.7950    1.1810 H   0  0  0  0  0  0  0  0  0  0  0  0
    2.6088   -3.3970   -0.3307 H   0  0  0  0  0  0  0  0  0  0  0  0
   -0.1194   -1.1741    0.1437 H   0  0  0  0  0  0  0  0  0  0  0  0
   -0.6573   -2.2616   -3.3984 H   0  0  0  0  0  0  0  0  0  0  0  0
   -2.7196   -1.7949   -4.6017 H   0  0  0  0  0  0  0  0  0  0  0  0
   -4.5594   -0.5260   -3.5247 H   0  0  0  0  0  0  0  0  0  0  0  0
   -4.2935    0.3096   -1.2187 H   0  0  0  0  0  0  0  0  0  0  0  0
   -3.7978    2.4627   -0.5634 H   0  0  0  0  0  0  0  0  0  0  0  0
   -2.1331    2.2773   -1.1843 H   0  0  0  0  0  0  0  0  0  0  0  0
   -2.5520    4.6238   -0.4231 H   0  0  0  0  0  0  0  0  0  0  0  0
   -1.3204    3.8681    0.5889 H   0  0  0  0  0  0  0  0  0  0  0  0
   -4.4956    2.7284    2.0819 H   0  0  0  0  0  0  0  0  0  0  0  0
   -3.4230    3.3431    3.3428 H   0  0  0  0  0  0  0  0  0  0  0  0
   -1.5003    2.0806    2.3313 H   0  0  0  0  0  0  0  0  0  0  0  0
   -2.8315    0.9786    2.7295 H   0  0  0  0  0  0  0  0  0  0  0  0
    1.5419    0.8038   -0.6972 H   0  0  0  0  0  0  0  0  0  0  0  0
    0.8819    2.6794    0.7420 H   0  0  0  0  0  0  0  0  0  0  0  0
    2.9373    0.8805    4.0683 H   0  0  0  0  0  0  0  0  0  0  0  0
    3.6198   -1.0061    2.6233 H   0  0  0  0  0  0  0  0  0  0  0  0
    5.3642   -2.3195   -2.5982 H   0  0  0  0  0  0  0  0  0  0  0  0
    5.1837   -2.9322   -0.9325 H   0  0  0  0  0  0  0  0  0  0  0  0
    3.8923   -3.2163   -2.1566 H   0  0  0  0  0  0  0  0  0  0  0  0
  1  2  1  0
  2  3  1  0
  3  4  2  0
  3  5  1  0
  5  6  1  0
  6  7  2  0
  7  8  1  0
  8  9  2  0
  9 10  1  0
 10 11  2  0
 11 12  1  0
 12 13  2  0
 12 14  1  0
 14 15  1  0
 15 16  1  0
 16 17  1  0
 17 18  1  0
 18 19  1  0
  2 20  1  0
 20 21  1  0
 21 22  2  0
 22 23  1  0
 23 24  2  0
 24 25  1  0
 24 26  1  0
 26 27  2  0
 20 28  1  0
 28 29  1  0
 28 30  2  0
 28 31  2  0
 11  6  1  0
 19 14  1  0
 27 21  1  0
  1 32  1  0
  1 33  1  0
  1 34  1  0
  2 35  1  0
  5 36  1  0
  7 37  1  0
  8 38  1  0
  9 39  1  0
 10 40  1  0
 15 41  1  0
 15 42  1  0
 16 43  1  0
 16 44  1  0
 18 45  1  0
 18 46  1  0
 19 47  1  0
 19 48  1  0
 22 49  1  0
 23 50  1  0
 26 51  1  0
 27 52  1  0
 29 53  1  0
 29 54  1  0
 29 55  1  0
M  END
$$$$
