
     RDKit          3D

 46 49  0  0  0  0  0  0  0  0999 V2000
    0.1436    1.4159   -1.9325 O   0  0  0  0  0  0  0  0  0  0  0  0
    0.5769    1.0454   -0.8460 C   0  0  0  0  0  0  0  0  0  0  0  0
    2.0660    0.9619   -0.5610 C   0  0  0  0  0  0  0  0  0  0  0  0
    2.5437   -0.7851   -0.3475 S   0  0  0  0  0  0  0  0  0  0  0  0
    4.3083   -0.6072   -0.1152 C   0  0  0  0  0  0  0  0  0  0  0  0
    4.7362    0.6438    0.2061 N   0  0  0  0  0  0  0  0  0  0  0  0
    6.0669    0.8484    0.3367 C   0  0  0  0  0  0  0  0  0  0  0  0
    7.0178   -0.1396    0.1617 C   0  0  0  0  0  0  0  0  0  0  0  0
    6.5772   -1.4194   -0.1522 C   0  0  0  0  0  0  0  0  0  0  0  0
    5.2038   -1.6645   -0.2757 C   0  0  0  0  0  0  0  0  0  0  0  0
    4.7941   -3.0312   -0.6137 C   0  0  0  0  0  0  0  0  0  0  0  0
    5.2064   -3.6778   -1.5579 O   0  0  0  0  0  0  0  0  0  0  0  0
    3.9876   -3.5552    0.3238 O   0  0  0  0  0  0  0  0  0  0  0  0
   -0.2169    0.7045    0.2360 N   0  0  0  0  0  0  0  0  0  0  0  0
   -1.6784    0.5934    0.1929 C   0  0  0  0  0  0  0  0  0  0  0  0
   -2.3570    1.9248   -0.2200 C   0  0  0  0  0  0  0  0  0  0  0  0
   -3.8894    1.7789   -0.2079 C   0  0  0  0  0  0  0  0  0  0  0  0
   -4.3537    1.4096    1.2094 C   0  0  0  0  0  0  0  0  0  0  0  0
   -3.7108    0.0821    1.6418 C   0  0  0  0  0  0  0  0  0  0  0  0
   -4.1250   -1.0269    0.6616 C   0  0  0  0  0  0  0  0  0  0  0  0
   -3.6606   -0.6725   -0.7603 C   0  0  0  0  0  0  0  0  0  0  0  0
   -4.2988    0.6621   -1.1841 C   0  0  0  0  0  0  0  0  0  0  0  0
   -2.1288   -0.5284   -0.7748 C   0  0  0  0  0  0  0  0  0  0  0  0
   -2.1813    0.2306    1.6171 C   0  0  0  0  0  0  0  0  0  0  0  0
    2.6081    1.4017   -1.4043 H   0  0  0  0  0  0  0  0  0  0  0  0
    2.2804    1.5408    0.3433 H   0  0  0  0  0  0  0  0  0  0  0  0
    6.3561    1.8671    0.5844 H   0  0  0  0  0  0  0  0  0  0  0  0
    8.0744    0.0811    0.2645 H   0  0  0  0  0  0  0  0  0  0  0  0
    7.2950   -2.2224   -0.3026 H   0  0  0  0  0  0  0  0  0  0  0  0
    3.8057   -4.4672    0.0133 H   0  0  0  0  0  0  0  0  0  0  0  0
    0.2570    0.1827    0.9659 H   0  0  0  0  0  0  0  0  0  0  0  0
   -2.0434    2.2343   -1.2237 H   0  0  0  0  0  0  0  0  0  0  0  0
   -2.0521    2.7311    0.4599 H   0  0  0  0  0  0  0  0  0  0  0  0
   -4.3526    2.7241   -0.5138 H   0  0  0  0  0  0  0  0  0  0  0  0
   -4.0819    2.2048    1.9148 H   0  0  0  0  0  0  0  0  0  0  0  0
   -5.4468    1.3225    1.2346 H   0  0  0  0  0  0  0  0  0  0  0  0
   -4.0419   -0.1766    2.6546 H   0  0  0  0  0  0  0  0  0  0  0  0
   -5.2143   -1.1545    0.6789 H   0  0  0  0  0  0  0  0  0  0  0  0
   -3.6876   -1.9840    0.9713 H   0  0  0  0  0  0  0  0  0  0  0  0
   -3.9630   -1.4645   -1.4542 H   0  0  0  0  0  0  0  0  0  0  0  0
   -3.9850    0.9200   -2.2035 H   0  0  0  0  0  0  0  0  0  0  0  0
   -5.3911    0.5647   -1.2029 H   0  0  0  0  0  0  0  0  0  0  0  0
   -1.7964   -0.3158   -1.7983 H   0  0  0  0  0  0  0  0  0  0  0  0
   -1.6614   -1.4811   -0.4931 H   0  0  0  0  0  0  0  0  0  0  0  0
   -1.7158   -0.7054    1.9564 H   0  0  0  0  0  0  0  0  0  0  0  0
   -1.8713    1.0030    2.3345 H   0  0  0  0  0  0  0  0  0  0  0  0
  1  2  2  0
  2  3  1  0
  3  4  1  0
  4  5  1  0
  5  6  2  0
  6  7  1  0
  7  8  2  0
  8  9  1  0
  9 10  2  0
 10 11  1  0
 11 12  2  0
 11 13  1  0
  2 14  1  0
 14 15  1  0
 15 16  1  0
 16 17  1  0
 17 18  1  0
 18 19  1  0
 19 20  1  0
 20 21  1  0
 21 22  1  0
 21 23  1  0
 19 24  1  0
 10  5  1  0
 23 15  1  0
 24 15  1  0
 22 17  1  0
  3 25  1  0
  3 26  1  0
  7 27  1  0
  8 28  1  0
  9 29  1  0
 13 30  1  0
 14 31  1  0
 16 32  1  0
 16 33  1  0
 17 34  1  0
 18 35  1  0
 18 36  1  0
 19 37  1  0
 20 38  1  0
 20 39  1  0
 21 40  1  0
 22 41  1  0
 22 42  1  0
 23 43  1  0
 23 44  1  0
 24 45  1  0
 24 46  1  0
M  END
$$$$
