
     RDKit          3D

 57 58  0  0  0  0  0  0  0  0999 V2000
    5.3695    2.2125   -2.0453 C   0  0  0  0  0  0  0  0  0  0  0  0
    5.9731    0.8640   -1.7879 C   0  0  0  0  0  0  0  0  0  0  0  0
    7.3234    0.6264   -2.0751 C   0  0  0  0  0  0  0  0  0  0  0  0
    7.8867   -0.6309   -1.8502 C   0  0  0  0  0  0  0  0  0  0  0  0
    7.1063   -1.6655   -1.3427 C   0  0  0  0  0  0  0  0  0  0  0  0
    5.7614   -1.4429   -1.0543 C   0  0  0  0  0  0  0  0  0  0  0  0
    5.2031   -0.1788   -1.2587 C   0  0  0  0  0  0  0  0  0  0  0  0
    3.8733    0.0548   -1.0197 O   0  0  0  0  0  0  0  0  0  0  0  0
    3.5239   -0.1697    0.3528 C   0  0  0  0  0  0  0  0  0  0  0  0
    2.1230    0.3811    0.5596 C   0  0  0  0  0  0  0  0  0  0  0  0
    1.6483    0.1279    1.9626 C   0  0  0  0  0  0  0  0  0  0  0  0
    2.3660   -0.1391    2.9149 O   0  0  0  0  0  0  0  0  0  0  0  0
    0.2949    0.2705    2.0220 O   0  0  0  0  0  0  0  0  0  0  0  0
   -0.2596   -0.0055    3.3091 C   0  0  0  0  0  0  0  0  0  0  0  0
   -1.7811   -0.0418    3.2430 C   0  0  0  0  0  0  0  0  0  0  0  0
   -2.4709    0.3949    4.1713 O   0  0  0  0  0  0  0  0  0  0  0  0
   -2.4350   -0.6037    2.0185 C   0  0  0  0  0  0  0  0  0  0  0  0
   -3.5475   -0.0229    1.5146 C   0  0  0  0  0  0  0  0  0  0  0  0
   -4.1372    1.0750    2.1396 N   0  0  0  0  0  0  0  0  0  0  0  0
   -4.1039   -0.5349    0.3414 N   0  0  0  0  0  0  0  0  0  0  0  0
   -5.2671    0.1046   -0.2961 C   0  0  0  0  0  0  0  0  0  0  0  0
   -4.8983    1.0209   -1.4833 C   0  0  0  0  0  0  0  0  0  0  0  0
   -6.1706    1.4499   -2.2198 C   0  0  0  0  0  0  0  0  0  0  0  0
   -4.1151    2.2591   -1.0455 C   0  0  0  0  0  0  0  0  0  0  0  0
   -3.5592   -1.6155   -0.3595 C   0  0  0  0  0  0  0  0  0  0  0  0
   -4.0862   -2.0720   -1.3766 O   0  0  0  0  0  0  0  0  0  0  0  0
   -2.3926   -2.1533    0.1505 N   0  0  0  0  0  0  0  0  0  0  0  0
   -1.8178   -3.2921   -0.5402 C   0  0  0  0  0  0  0  0  0  0  0  0
   -1.8554   -1.7901    1.3610 C   0  0  0  0  0  0  0  0  0  0  0  0
   -0.9508   -2.4160    1.9129 O   0  0  0  0  0  0  0  0  0  0  0  0
    4.5836    2.1369   -2.8011 H   0  0  0  0  0  0  0  0  0  0  0  0
    6.1181    2.9218   -2.4121 H   0  0  0  0  0  0  0  0  0  0  0  0
    4.9472    2.6243   -1.1219 H   0  0  0  0  0  0  0  0  0  0  0  0
    7.9456    1.4189   -2.4825 H   0  0  0  0  0  0  0  0  0  0  0  0
    8.9336   -0.8040   -2.0808 H   0  0  0  0  0  0  0  0  0  0  0  0
    7.5413   -2.6491   -1.1828 H   0  0  0  0  0  0  0  0  0  0  0  0
    5.1522   -2.2660   -0.6917 H   0  0  0  0  0  0  0  0  0  0  0  0
    4.2320    0.3465    1.0162 H   0  0  0  0  0  0  0  0  0  0  0  0
    3.5362   -1.2424    0.5776 H   0  0  0  0  0  0  0  0  0  0  0  0
    1.4363   -0.1011   -0.1478 H   0  0  0  0  0  0  0  0  0  0  0  0
    2.1029    1.4590    0.3619 H   0  0  0  0  0  0  0  0  0  0  0  0
    0.0241    0.8091    3.9856 H   0  0  0  0  0  0  0  0  0  0  0  0
    0.0976   -0.9602    3.7131 H   0  0  0  0  0  0  0  0  0  0  0  0
   -5.1472    0.9860    2.1926 H   0  0  0  0  0  0  0  0  0  0  0  0
   -3.7879    1.2070    3.0992 H   0  0  0  0  0  0  0  0  0  0  0  0
   -5.8792    0.6481    0.4287 H   0  0  0  0  0  0  0  0  0  0  0  0
   -5.9205   -0.7000   -0.6606 H   0  0  0  0  0  0  0  0  0  0  0  0
   -4.2744    0.4649   -2.1924 H   0  0  0  0  0  0  0  0  0  0  0  0
   -5.9282    2.0760   -3.0854 H   0  0  0  0  0  0  0  0  0  0  0  0
   -6.7217    0.5766   -2.5863 H   0  0  0  0  0  0  0  0  0  0  0  0
   -6.8364    2.0214   -1.5647 H   0  0  0  0  0  0  0  0  0  0  0  0
   -4.6689    2.8388   -0.2992 H   0  0  0  0  0  0  0  0  0  0  0  0
   -3.1446    1.9846   -0.6197 H   0  0  0  0  0  0  0  0  0  0  0  0
   -3.9176    2.9155   -1.9010 H   0  0  0  0  0  0  0  0  0  0  0  0
   -1.9172   -3.1782   -1.6233 H   0  0  0  0  0  0  0  0  0  0  0  0
   -2.3547   -4.1940   -0.2286 H   0  0  0  0  0  0  0  0  0  0  0  0
   -0.7572   -3.4072   -0.2985 H   0  0  0  0  0  0  0  0  0  0  0  0
  1  2  1  0
  2  3  2  0
  3  4  1  0
  4  5  2  0
  5  6  1  0
  6  7  2  0
  7  8  1  0
  8  9  1  0
  9 10  1  0
 10 11  1  0
 11 12  2  0
 11 13  1  0
 13 14  1  0
 14 15  1  0
 15 16  2  0
 15 17  1  0
 17 18  2  0
 18 19  1  0
 18 20  1  0
 20 21  1  0
 21 22  1  0
 22 23  1  0
 22 24  1  0
 20 25  1  0
 25 26  2  0
 25 27  1  0
 27 28  1  0
 27 29  1  0
 29 30  2  0
  7  2  1  0
 29 17  1  0
  1 31  1  0
  1 32  1  0
  1 33  1  0
  3 34  1  0
  4 35  1  0
  5 36  1  0
  6 37  1  0
  9 38  1  0
  9 39  1  0
 10 40  1  0
 10 41  1  0
 14 42  1  0
 14 43  1  0
 19 44  1  0
 19 45  1  0
 21 46  1  0
 21 47  1  0
 22 48  1  0
 23 49  1  0
 23 50  1  0
 23 51  1  0
 24 52  1  0
 24 53  1  0
 24 54  1  0
 28 55  1  0
 28 56  1  0
 28 57  1  0
M  END
$$$$
