
     RDKit          3D

 45 47  0  0  0  0  0  0  0  0999 V2000
   -4.5803   -2.2345   -1.1214 C   0  0  0  0  0  0  0  0  0  0  0  0
   -3.5788   -1.4736   -0.3026 C   0  0  0  0  0  0  0  0  0  0  0  0
   -2.5561   -2.1475    0.3716 C   0  0  0  0  0  0  0  0  0  0  0  0
   -1.6205   -1.4365    1.1196 C   0  0  0  0  0  0  0  0  0  0  0  0
   -1.6852   -0.0446    1.1794 C   0  0  0  0  0  0  0  0  0  0  0  0
   -2.6749    0.6579    0.4767 C   0  0  0  0  0  0  0  0  0  0  0  0
   -2.7278    2.1618    0.5561 C   0  0  0  0  0  0  0  0  0  0  0  0
   -2.4799    2.9418   -1.0410 S   0  0  0  0  0  6  0  0  0  0  0  0
   -3.5851    2.5732   -1.9124 O   0  0  0  0  0  0  0  0  0  0  0  0
   -2.2372    4.3561   -0.7968 O   0  0  0  0  0  0  0  0  0  0  0  0
   -0.9930    2.2333   -1.7393 C   0  0  0  0  0  0  0  0  0  0  0  0
    0.1660    2.4784   -0.8524 C   0  0  0  0  0  0  0  0  0  0  0  0
    0.8617    3.6072   -0.4723 C   0  0  0  0  0  0  0  0  0  0  0  0
    1.9010    3.1692    0.3833 C   0  0  0  0  0  0  0  0  0  0  0  0
    1.7930    1.7956    0.4722 C   0  0  0  0  0  0  0  0  0  0  0  0
    2.5771    0.8183    1.1991 C   0  0  0  0  0  0  0  0  0  0  0  0
    3.5530    1.1069    1.8854 O   0  0  0  0  0  0  0  0  0  0  0  0
    2.1252   -0.4743    1.0539 N   0  0  0  0  0  0  0  0  0  0  0  0
    2.8789   -1.6073    1.5285 C   0  0  0  0  0  0  0  0  0  0  0  0
    3.6878   -2.1340    0.4039 C   0  0  0  0  0  0  0  0  0  0  0  0
    4.9792   -1.9030   -0.0229 C   0  0  0  0  0  0  0  0  0  0  0  0
    5.1675   -2.7035   -1.1747 C   0  0  0  0  0  0  0  0  0  0  0  0
    3.9807   -3.3674   -1.3788 C   0  0  0  0  0  0  0  0  0  0  0  0
    3.0740   -3.0264   -0.4270 O   0  0  0  0  0  0  0  0  0  0  0  0
    0.7354    1.3746   -0.2913 O   0  0  0  0  0  0  0  0  0  0  0  0
   -3.6292   -0.0736   -0.2468 C   0  0  0  0  0  0  0  0  0  0  0  0
   -4.2290   -2.3221   -2.1541 H   0  0  0  0  0  0  0  0  0  0  0  0
   -5.5516   -1.7288   -1.1183 H   0  0  0  0  0  0  0  0  0  0  0  0
   -4.7365   -3.2391   -0.7146 H   0  0  0  0  0  0  0  0  0  0  0  0
   -2.4912   -3.2326    0.3285 H   0  0  0  0  0  0  0  0  0  0  0  0
   -0.8433   -1.9691    1.6618 H   0  0  0  0  0  0  0  0  0  0  0  0
   -0.9500    0.4862    1.7819 H   0  0  0  0  0  0  0  0  0  0  0  0
   -3.7040    2.4866    0.9313 H   0  0  0  0  0  0  0  0  0  0  0  0
   -1.9618    2.5577    1.2310 H   0  0  0  0  0  0  0  0  0  0  0  0
   -1.1681    1.1684   -1.9134 H   0  0  0  0  0  0  0  0  0  0  0  0
   -0.8391    2.7158   -2.7097 H   0  0  0  0  0  0  0  0  0  0  0  0
    0.6426    4.6248   -0.7721 H   0  0  0  0  0  0  0  0  0  0  0  0
    2.6493    3.7730    0.8799 H   0  0  0  0  0  0  0  0  0  0  0  0
    1.4175   -0.6366    0.3466 H   0  0  0  0  0  0  0  0  0  0  0  0
    3.5168   -1.3237    2.3714 H   0  0  0  0  0  0  0  0  0  0  0  0
    2.1619   -2.3587    1.8740 H   0  0  0  0  0  0  0  0  0  0  0  0
    5.6897   -1.2322    0.4415 H   0  0  0  0  0  0  0  0  0  0  0  0
    6.0567   -2.7844   -1.7839 H   0  0  0  0  0  0  0  0  0  0  0  0
    3.6377   -4.0779   -2.1181 H   0  0  0  0  0  0  0  0  0  0  0  0
   -4.4298    0.4445   -0.7756 H   0  0  0  0  0  0  0  0  0  0  0  0
  1  2  1  0
  2  3  2  0
  3  4  1  0
  4  5  2  0
  5  6  1  0
  6  7  1  0
  7  8  1  0
  8  9  2  0
  8 10  2  0
  8 11  1  0
 11 12  1  0
 12 13  2  0
 13 14  1  0
 14 15  2  0
 15 16  1  0
 16 17  2  0
 16 18  1  0
 18 19  1  0
 19 20  1  0
 20 21  2  0
 21 22  1  0
 22 23  2  0
 23 24  1  0
 15 25  1  0
  6 26  2  0
 26  2  1  0
 25 12  1  0
 24 20  1  0
  1 27  1  0
  1 28  1  0
  1 29  1  0
  3 30  1  0
  4 31  1  0
  5 32  1  0
  7 33  1  0
  7 34  1  0
 11 35  1  0
 11 36  1  0
 13 37  1  0
 14 38  1  0
 18 39  1  0
 19 40  1  0
 19 41  1  0
 21 42  1  0
 22 43  1  0
 23 44  1  0
 26 45  1  0
M  END
$$$$
