
     RDKit          3D

 47 49  0  0  0  0  0  0  0  0999 V2000
    3.3033    3.7649   -3.9141 C   0  0  0  0  0  0  0  0  0  0  0  0
    2.6593    3.0883   -2.7350 C   0  0  0  0  0  0  0  0  0  0  0  0
    1.5524    3.6887   -2.1199 C   0  0  0  0  0  0  0  0  0  0  0  0
    0.9341    3.0928   -1.0194 C   0  0  0  0  0  0  0  0  0  0  0  0
    1.4113    1.8844   -0.4968 C   0  0  0  0  0  0  0  0  0  0  0  0
    0.6894    1.2427    0.6745 C   0  0  0  0  0  0  0  0  0  0  0  0
    1.6349    0.6799    1.7401 C   0  0  0  0  0  0  0  0  0  0  0  0
   -0.2025    0.2157    0.1670 N   0  0  0  0  0  0  0  0  0  0  0  0
   -1.2998   -0.2172    0.8752 C   0  0  0  0  0  0  0  0  0  0  0  0
   -1.6011    0.2372    1.9724 O   0  0  0  0  0  0  0  0  0  0  0  0
   -2.0523   -1.2738    0.2333 C   0  0  0  0  0  0  0  0  0  0  0  0
   -2.7288   -2.3877    0.8260 C   0  0  0  0  0  0  0  0  0  0  0  0
   -2.7993   -2.8052    2.2279 C   0  0  0  0  0  0  0  0  0  0  0  0
   -3.9931   -3.3370    2.7405 C   0  0  0  0  0  0  0  0  0  0  0  0
   -4.0758   -3.7533    4.0714 C   0  0  0  0  0  0  0  0  0  0  0  0
   -2.9648   -3.6467    4.9046 C   0  0  0  0  0  0  0  0  0  0  0  0
   -1.7705   -3.1295    4.4070 C   0  0  0  0  0  0  0  0  0  0  0  0
   -1.6862   -2.7139    3.0749 C   0  0  0  0  0  0  0  0  0  0  0  0
   -3.3442   -3.1155   -0.1227 N   0  0  0  0  0  0  0  0  0  0  0  0
   -3.0917   -2.4949   -1.3218 O   0  0  0  0  0  0  0  0  0  0  0  0
   -2.3344   -1.3900   -1.1147 C   0  0  0  0  0  0  0  0  0  0  0  0
   -2.0358   -0.5875   -2.3181 C   0  0  0  0  0  0  0  0  0  0  0  0
    2.5143    1.2788   -1.1204 C   0  0  0  0  0  0  0  0  0  0  0  0
    3.1505    1.8712   -2.2258 C   0  0  0  0  0  0  0  0  0  0  0  0
    4.3329    1.1813   -2.8508 C   0  0  0  0  0  0  0  0  0  0  0  0
    4.3185    4.0851   -3.6585 H   0  0  0  0  0  0  0  0  0  0  0  0
    3.3385    3.0869   -4.7728 H   0  0  0  0  0  0  0  0  0  0  0  0
    2.7420    4.6531   -4.2236 H   0  0  0  0  0  0  0  0  0  0  0  0
    1.1593    4.6311   -2.4960 H   0  0  0  0  0  0  0  0  0  0  0  0
    0.0715    3.5835   -0.5725 H   0  0  0  0  0  0  0  0  0  0  0  0
    0.0735    2.0050    1.1698 H   0  0  0  0  0  0  0  0  0  0  0  0
    2.1993   -0.1848    1.3744 H   0  0  0  0  0  0  0  0  0  0  0  0
    1.0734    0.3420    2.6180 H   0  0  0  0  0  0  0  0  0  0  0  0
    2.3502    1.4401    2.0722 H   0  0  0  0  0  0  0  0  0  0  0  0
    0.0905   -0.2925   -0.6551 H   0  0  0  0  0  0  0  0  0  0  0  0
   -4.8705   -3.4288    2.1028 H   0  0  0  0  0  0  0  0  0  0  0  0
   -5.0084   -4.1591    4.4549 H   0  0  0  0  0  0  0  0  0  0  0  0
   -3.0290   -3.9677    5.9410 H   0  0  0  0  0  0  0  0  0  0  0  0
   -0.9025   -3.0462    5.0560 H   0  0  0  0  0  0  0  0  0  0  0  0
   -0.7389   -2.3228    2.7143 H   0  0  0  0  0  0  0  0  0  0  0  0
   -2.0351    0.4819   -2.0862 H   0  0  0  0  0  0  0  0  0  0  0  0
   -2.7838   -0.7568   -3.0990 H   0  0  0  0  0  0  0  0  0  0  0  0
   -1.0552   -0.8566   -2.7219 H   0  0  0  0  0  0  0  0  0  0  0  0
    2.8911    0.3290   -0.7463 H   0  0  0  0  0  0  0  0  0  0  0  0
    5.1970    1.8527   -2.8799 H   0  0  0  0  0  0  0  0  0  0  0  0
    4.0873    0.8564   -3.8669 H   0  0  0  0  0  0  0  0  0  0  0  0
    4.6291    0.2949   -2.2799 H   0  0  0  0  0  0  0  0  0  0  0  0
  1  2  1  0
  2  3  2  0
  3  4  1  0
  4  5  2  0
  5  6  1  0
  6  7  1  0
  6  8  1  0
  8  9  1  0
  9 10  2  0
  9 11  1  0
 11 12  1  0
 12 13  1  0
 13 14  2  0
 14 15  1  0
 15 16  2  0
 16 17  1  0
 17 18  2  0
 12 19  2  0
 19 20  1  0
 20 21  1  0
 21 22  1  0
  5 23  1  0
 23 24  2  0
 24 25  1  0
 24  2  1  0
 21 11  2  0
 18 13  1  0
  1 26  1  0
  1 27  1  0
  1 28  1  0
  3 29  1  0
  4 30  1  0
  6 31  1  0
  7 32  1  0
  7 33  1  0
  7 34  1  0
  8 35  1  0
 14 36  1  0
 15 37  1  0
 16 38  1  0
 17 39  1  0
 18 40  1  0
 22 41  1  0
 22 42  1  0
 22 43  1  0
 23 44  1  0
 25 45  1  0
 25 46  1  0
 25 47  1  0
M  END
$$$$
