
     RDKit          3D

 39 41  0  0  0  0  0  0  0  0999 V2000
    4.8891   -1.0320    0.2917 C   0  0  0  0  0  0  0  0  0  0  0  0
    4.2764    0.3376    0.5838 C   0  0  0  0  0  0  0  0  0  0  0  0
    4.7483    1.3655   -0.4445 C   0  0  0  0  0  0  0  0  0  0  0  0
    2.7415    0.2814    0.6943 C   0  0  0  0  0  0  0  0  0  0  0  0
    2.0083   -0.1535   -0.5814 C   0  0  0  0  0  0  0  0  0  0  0  0
    0.5597   -0.1770   -0.3814 N   0  0  0  0  0  0  0  0  0  0  0  0
   -0.0035   -1.3469    0.1227 C   0  0  0  0  0  0  0  0  0  0  0  0
    0.6469   -2.3503    0.4059 O   0  0  0  0  0  0  0  0  0  0  0  0
   -1.4703   -1.3529    0.3312 C   0  0  0  0  0  0  0  0  0  0  0  0
   -2.0783   -2.5207    0.8071 C   0  0  0  0  0  0  0  0  0  0  0  0
   -3.4495   -2.5505    1.0176 C   0  0  0  0  0  0  0  0  0  0  0  0
   -4.2159   -1.4164    0.7470 C   0  0  0  0  0  0  0  0  0  0  0  0
   -3.6346   -0.2228    0.2579 C   0  0  0  0  0  0  0  0  0  0  0  0
   -4.3881    0.9451   -0.0431 C   0  0  0  0  0  0  0  0  0  0  0  0
   -5.7693    1.0573    0.2223 N   0  0  0  0  0  0  0  0  0  0  0  0
   -3.7295    2.1154   -0.4358 C   0  0  0  0  0  0  0  0  0  0  0  0
   -2.3527    2.1274   -0.6267 C   0  0  0  0  0  0  0  0  0  0  0  0
   -1.6071    0.9695   -0.3890 C   0  0  0  0  0  0  0  0  0  0  0  0
   -2.2259   -0.2034    0.0598 C   0  0  0  0  0  0  0  0  0  0  0  0
   -0.1414    1.0062   -0.6016 C   0  0  0  0  0  0  0  0  0  0  0  0
    0.3890    2.0593   -0.9471 O   0  0  0  0  0  0  0  0  0  0  0  0
    5.9814   -0.9854    0.3604 H   0  0  0  0  0  0  0  0  0  0  0  0
    4.5414   -1.7770    1.0149 H   0  0  0  0  0  0  0  0  0  0  0  0
    4.6370   -1.3856   -0.7130 H   0  0  0  0  0  0  0  0  0  0  0  0
    4.6522    0.6606    1.5638 H   0  0  0  0  0  0  0  0  0  0  0  0
    4.4930    1.0670   -1.4662 H   0  0  0  0  0  0  0  0  0  0  0  0
    4.2993    2.3452   -0.2510 H   0  0  0  0  0  0  0  0  0  0  0  0
    5.8364    1.4825   -0.3974 H   0  0  0  0  0  0  0  0  0  0  0  0
    2.4735   -0.3993    1.5130 H   0  0  0  0  0  0  0  0  0  0  0  0
    2.3755    1.2703    1.0003 H   0  0  0  0  0  0  0  0  0  0  0  0
    2.2385    0.5296   -1.4058 H   0  0  0  0  0  0  0  0  0  0  0  0
    2.3371   -1.1517   -0.8893 H   0  0  0  0  0  0  0  0  0  0  0  0
   -1.4829   -3.4076    1.0172 H   0  0  0  0  0  0  0  0  0  0  0  0
   -3.9242   -3.4550    1.3906 H   0  0  0  0  0  0  0  0  0  0  0  0
   -5.2853   -1.4833    0.9276 H   0  0  0  0  0  0  0  0  0  0  0  0
   -6.2670    0.1749    0.1828 H   0  0  0  0  0  0  0  0  0  0  0  0
   -5.9310    1.5103    1.1199 H   0  0  0  0  0  0  0  0  0  0  0  0
   -4.3017    3.0233   -0.6169 H   0  0  0  0  0  0  0  0  0  0  0  0
   -1.8660    3.0428   -0.9579 H   0  0  0  0  0  0  0  0  0  0  0  0
  1  2  1  0
  2  3  1  0
  2  4  1  0
  4  5  1  0
  5  6  1  0
  6  7  1  0
  7  8  2  0
  7  9  1  0
  9 10  1  0
 10 11  2  0
 11 12  1  0
 12 13  2  0
 13 14  1  0
 14 15  1  0
 14 16  2  0
 16 17  1  0
 17 18  2  0
 18 19  1  0
 18 20  1  0
 20 21  2  0
 20  6  1  0
 19  9  2  0
 19 13  1  0
  1 22  1  0
  1 23  1  0
  1 24  1  0
  2 25  1  0
  3 26  1  0
  3 27  1  0
  3 28  1  0
  4 29  1  0
  4 30  1  0
  5 31  1  0
  5 32  1  0
 10 33  1  0
 11 34  1  0
 12 35  1  0
 15 36  1  0
 15 37  1  0
 16 38  1  0
 17 39  1  0
M  END
$$$$
