
     RDKit          3D

 60 62  0  0  0  0  0  0  0  0999 V2000
    6.7988    3.3717   -2.5228 C   0  0  0  0  0  0  0  0  0  0  0  0
    6.6337    1.9864   -2.2446 O   0  0  0  0  0  0  0  0  0  0  0  0
    5.3521    1.5148   -2.1911 C   0  0  0  0  0  0  0  0  0  0  0  0
    4.1899    2.2781   -2.3099 C   0  0  0  0  0  0  0  0  0  0  0  0
    2.9308    1.6699   -2.2244 C   0  0  0  0  0  0  0  0  0  0  0  0
    2.8275    0.2900   -2.0150 C   0  0  0  0  0  0  0  0  0  0  0  0
    1.5140   -0.4058   -1.8994 C   0  0  0  0  0  0  0  0  0  0  0  0
    1.4424   -1.5983   -2.1938 O   0  0  0  0  0  0  0  0  0  0  0  0
    0.3126    0.3687   -1.4176 C   0  0  0  0  0  0  0  0  0  0  0  0
   -0.5672    0.7745   -2.5489 C   0  0  0  0  0  0  0  0  0  0  0  0
   -0.3606    1.6913   -3.3232 O   0  0  0  0  0  0  0  0  0  0  0  0
   -1.7612   -0.1616   -2.6240 C   0  0  0  0  0  0  0  0  0  0  0  0
   -2.5018   -0.2410   -3.5805 O   0  0  0  0  0  0  0  0  0  0  0  0
   -1.7730   -0.8837   -1.4447 N   0  0  0  0  0  0  0  0  0  0  0  0
   -2.3692   -2.2211   -1.4138 C   0  0  0  0  0  0  0  0  0  0  0  0
   -3.0933   -2.6016   -0.1028 C   0  0  0  0  0  0  0  0  0  0  0  0
   -4.5647   -2.4901   -0.1673 N   0  0  0  0  0  0  0  0  0  0  0  0
   -5.1731   -3.0578    1.0384 C   0  0  0  0  0  0  0  0  0  0  0  0
   -5.0185   -1.1125   -0.3514 C   0  0  0  0  0  0  0  0  0  0  0  0
   -0.6292   -0.5378   -0.5959 C   0  0  0  0  0  0  0  0  0  0  0  0
   -1.0254    0.1865    0.6865 C   0  0  0  0  0  0  0  0  0  0  0  0
   -2.1865    0.9674    0.7718 C   0  0  0  0  0  0  0  0  0  0  0  0
   -2.5045    1.6372    1.9516 C   0  0  0  0  0  0  0  0  0  0  0  0
   -1.6555    1.5640    3.0574 C   0  0  0  0  0  0  0  0  0  0  0  0
   -0.4724    0.8231    2.9947 C   0  0  0  0  0  0  0  0  0  0  0  0
    0.4457    0.7481    4.0083 O   0  0  0  0  0  0  0  0  0  0  0  0
    0.1656    1.4567    5.2094 C   0  0  0  0  0  0  0  0  0  0  0  0
   -0.1711    0.1258    1.8084 C   0  0  0  0  0  0  0  0  0  0  0  0
    1.0088   -0.5618    1.6295 O   0  0  0  0  0  0  0  0  0  0  0  0
    1.2030   -1.6016    2.5897 C   0  0  0  0  0  0  0  0  0  0  0  0
    3.9930   -0.4771   -1.9122 C   0  0  0  0  0  0  0  0  0  0  0  0
    5.2454    0.1361   -1.9942 C   0  0  0  0  0  0  0  0  0  0  0  0
    6.3746    3.6313   -3.4990 H   0  0  0  0  0  0  0  0  0  0  0  0
    6.3673    3.9887   -1.7260 H   0  0  0  0  0  0  0  0  0  0  0  0
    7.8727    3.5804   -2.5591 H   0  0  0  0  0  0  0  0  0  0  0  0
    4.2259    3.3510   -2.4739 H   0  0  0  0  0  0  0  0  0  0  0  0
    2.0501    2.2971   -2.3457 H   0  0  0  0  0  0  0  0  0  0  0  0
    0.6208    1.2504   -0.8460 H   0  0  0  0  0  0  0  0  0  0  0  0
   -3.0445   -2.3411   -2.2698 H   0  0  0  0  0  0  0  0  0  0  0  0
   -1.5462   -2.9264   -1.5900 H   0  0  0  0  0  0  0  0  0  0  0  0
   -2.6950   -2.0519    0.7562 H   0  0  0  0  0  0  0  0  0  0  0  0
   -2.8602   -3.6610    0.0728 H   0  0  0  0  0  0  0  0  0  0  0  0
   -4.9048   -4.1154    1.1459 H   0  0  0  0  0  0  0  0  0  0  0  0
   -6.2674   -3.0196    0.9712 H   0  0  0  0  0  0  0  0  0  0  0  0
   -4.8638   -2.5282    1.9470 H   0  0  0  0  0  0  0  0  0  0  0  0
   -4.6240   -0.6770   -1.2740 H   0  0  0  0  0  0  0  0  0  0  0  0
   -6.1099   -1.0829   -0.4451 H   0  0  0  0  0  0  0  0  0  0  0  0
   -4.7371   -0.4723    0.4906 H   0  0  0  0  0  0  0  0  0  0  0  0
   -0.1504   -1.4854   -0.3195 H   0  0  0  0  0  0  0  0  0  0  0  0
   -2.8603    1.0646   -0.0762 H   0  0  0  0  0  0  0  0  0  0  0  0
   -3.4145    2.2309    2.0072 H   0  0  0  0  0  0  0  0  0  0  0  0
   -1.9398    2.1167    3.9474 H   0  0  0  0  0  0  0  0  0  0  0  0
   -0.7495    1.0844    5.6834 H   0  0  0  0  0  0  0  0  0  0  0  0
    0.9950    1.2788    5.9016 H   0  0  0  0  0  0  0  0  0  0  0  0
    0.1097    2.5365    5.0290 H   0  0  0  0  0  0  0  0  0  0  0  0
    1.8128   -1.2394    3.4228 H   0  0  0  0  0  0  0  0  0  0  0  0
    1.7605   -2.4040    2.0978 H   0  0  0  0  0  0  0  0  0  0  0  0
    0.2597   -2.0242    2.9528 H   0  0  0  0  0  0  0  0  0  0  0  0
    3.9358   -1.5539   -1.7624 H   0  0  0  0  0  0  0  0  0  0  0  0
    6.1463   -0.4667   -1.9072 H   0  0  0  0  0  0  0  0  0  0  0  0
  1  2  1  0
  2  3  1  0
  3  4  2  0
  4  5  1  0
  5  6  2  0
  6  7  1  0
  7  8  2  0
  7  9  1  0
  9 10  1  0
 10 11  2  0
 10 12  1  0
 12 13  2  0
 12 14  1  0
 14 15  1  0
 15 16  1  0
 16 17  1  0
 17 18  1  0
 17 19  1  0
 14 20  1  0
 20 21  1  0
 21 22  2  0
 22 23  1  0
 23 24  2  0
 24 25  1  0
 25 26  1  0
 26 27  1  0
 25 28  2  0
 28 29  1  0
 29 30  1  0
  6 31  1  0
 31 32  2  0
 32  3  1  0
 20  9  1  0
 28 21  1  0
  1 33  1  0
  1 34  1  0
  1 35  1  0
  4 36  1  0
  5 37  1  0
  9 38  1  0
 15 39  1  0
 15 40  1  0
 16 41  1  0
 16 42  1  0
 18 43  1  0
 18 44  1  0
 18 45  1  0
 19 46  1  0
 19 47  1  0
 19 48  1  0
 20 49  1  0
 22 50  1  0
 23 51  1  0
 24 52  1  0
 27 53  1  0
 27 54  1  0
 27 55  1  0
 30 56  1  0
 30 57  1  0
 30 58  1  0
 31 59  1  0
 32 60  1  0
M  END
$$$$
