
     RDKit          3D

 51 53  0  0  0  0  0  0  0  0999 V2000
   -2.8902    6.0153   -0.9506 C   0  0  0  0  0  0  0  0  0  0  0  0
   -1.5867    5.6084   -1.6247 C   0  0  0  0  0  0  0  0  0  0  0  0
   -1.0446    4.2570   -1.1570 C   0  0  0  0  0  0  0  0  0  0  0  0
   -2.1018    2.8709   -1.7009 S   0  0  0  0  0  0  0  0  0  0  0  0
   -1.2150    1.4820   -1.0056 C   0  0  0  0  0  0  0  0  0  0  0  0
   -1.7353    0.2176   -1.1797 C   0  0  0  0  0  0  0  0  0  0  0  0
   -1.0338   -0.8419   -0.6408 C   0  0  0  0  0  0  0  0  0  0  0  0
   -1.5005   -2.1467   -0.7567 N   0  0  0  0  0  0  0  0  0  0  0  0
   -0.7533   -3.1823   -0.0231 C   0  0  0  0  0  0  0  0  0  0  0  0
   -1.5139   -4.5246   -0.1020 C   0  0  0  0  0  0  0  0  0  0  0  0
   -1.6783   -5.0467   -1.4781 N   0  0  0  0  0  0  0  0  0  0  0  0
   -2.9040   -5.8326   -1.5868 C   0  0  0  0  0  0  0  0  0  0  0  0
   -1.6269   -3.9622   -2.4788 C   0  0  0  0  0  0  0  0  0  0  0  0
   -2.1435   -2.5802   -2.0103 C   0  0  0  0  0  0  0  0  0  0  0  0
    0.0968   -0.6198    0.0504 N   0  0  0  0  0  0  0  0  0  0  0  0
    0.5408    0.6450    0.1734 C   0  0  0  0  0  0  0  0  0  0  0  0
    1.7944    0.8643    0.9246 C   0  0  0  0  0  0  0  0  0  0  0  0
    2.5166   -0.2078    1.4828 C   0  0  0  0  0  0  0  0  0  0  0  0
    3.7075   -0.0074    2.1967 C   0  0  0  0  0  0  0  0  0  0  0  0
    4.2102    1.2789    2.3720 C   0  0  0  0  0  0  0  0  0  0  0  0
    5.3533    1.6145    3.0421 O   0  0  0  0  0  0  0  0  0  0  0  0
    6.0995    0.5472    3.6130 C   0  0  0  0  0  0  0  0  0  0  0  0
    3.5123    2.3563    1.8283 C   0  0  0  0  0  0  0  0  0  0  0  0
    2.3240    2.1530    1.1162 C   0  0  0  0  0  0  0  0  0  0  0  0
   -0.0772    1.7180   -0.3406 N   0  0  0  0  0  0  0  0  0  0  0  0
   -3.1705    7.0278   -1.2588 H   0  0  0  0  0  0  0  0  0  0  0  0
   -3.7135    5.3478   -1.2211 H   0  0  0  0  0  0  0  0  0  0  0  0
   -2.7857    6.0115    0.1390 H   0  0  0  0  0  0  0  0  0  0  0  0
   -1.7152    5.6157   -2.7138 H   0  0  0  0  0  0  0  0  0  0  0  0
   -0.8346    6.3738   -1.3965 H   0  0  0  0  0  0  0  0  0  0  0  0
   -0.9622    4.2493   -0.0647 H   0  0  0  0  0  0  0  0  0  0  0  0
   -0.0431    4.1166   -1.5782 H   0  0  0  0  0  0  0  0  0  0  0  0
   -2.6720    0.0711   -1.6999 H   0  0  0  0  0  0  0  0  0  0  0  0
    0.2575   -3.2986   -0.4352 H   0  0  0  0  0  0  0  0  0  0  0  0
   -0.6614   -2.9073    1.0352 H   0  0  0  0  0  0  0  0  0  0  0  0
   -2.4951   -4.3737    0.3697 H   0  0  0  0  0  0  0  0  0  0  0  0
   -0.9833   -5.2766    0.4930 H   0  0  0  0  0  0  0  0  0  0  0  0
   -2.9072   -6.6443   -0.8507 H   0  0  0  0  0  0  0  0  0  0  0  0
   -2.9710   -6.3045   -2.5733 H   0  0  0  0  0  0  0  0  0  0  0  0
   -3.8023   -5.2234   -1.4353 H   0  0  0  0  0  0  0  0  0  0  0  0
   -0.5726   -3.8451   -2.7640 H   0  0  0  0  0  0  0  0  0  0  0  0
   -2.1429   -4.2536   -3.4023 H   0  0  0  0  0  0  0  0  0  0  0  0
   -1.9621   -1.8719   -2.8278 H   0  0  0  0  0  0  0  0  0  0  0  0
   -3.2266   -2.6279   -1.8470 H   0  0  0  0  0  0  0  0  0  0  0  0
    2.1504   -1.2269    1.3630 H   0  0  0  0  0  0  0  0  0  0  0  0
    4.2109   -0.8802    2.5986 H   0  0  0  0  0  0  0  0  0  0  0  0
    5.5146    0.0187    4.3730 H   0  0  0  0  0  0  0  0  0  0  0  0
    6.9751    0.9786    4.1076 H   0  0  0  0  0  0  0  0  0  0  0  0
    6.4589   -0.1408    2.8406 H   0  0  0  0  0  0  0  0  0  0  0  0
    3.8938    3.3662    1.9578 H   0  0  0  0  0  0  0  0  0  0  0  0
    1.8099    3.0214    0.7078 H   0  0  0  0  0  0  0  0  0  0  0  0
  1  2  1  0
  2  3  1  0
  3  4  1  0
  4  5  1  0
  5  6  2  0
  6  7  1  0
  7  8  1  0
  8  9  1  0
  9 10  1  0
 10 11  1  0
 11 12  1  0
 11 13  1  0
 13 14  1  0
  7 15  2  0
 15 16  1  0
 16 17  1  0
 17 18  2  0
 18 19  1  0
 19 20  2  0
 20 21  1  0
 21 22  1  0
 20 23  1  0
 23 24  2  0
 16 25  2  0
 25  5  1  0
 14  8  1  0
 24 17  1  0
  1 26  1  0
  1 27  1  0
  1 28  1  0
  2 29  1  0
  2 30  1  0
  3 31  1  0
  3 32  1  0
  6 33  1  0
  9 34  1  0
  9 35  1  0
 10 36  1  0
 10 37  1  0
 12 38  1  0
 12 39  1  0
 12 40  1  0
 13 41  1  0
 13 42  1  0
 14 43  1  0
 14 44  1  0
 18 45  1  0
 19 46  1  0
 22 47  1  0
 22 48  1  0
 22 49  1  0
 23 50  1  0
 24 51  1  0
M  END
$$$$
