
     RDKit          3D

 32 34  0  0  0  0  0  0  0  0999 V2000
    6.1296   -1.7129   -0.2354 C   0  0  0  0  0  0  0  0  0  0  0  0
    5.7144   -0.5165   -0.8834 O   0  0  0  0  0  0  0  0  0  0  0  0
    4.3789   -0.2167   -0.8398 C   0  0  0  0  0  0  0  0  0  0  0  0
    4.0339    0.9643   -1.4970 C   0  0  0  0  0  0  0  0  0  0  0  0
    2.7071    1.4078   -1.5418 C   0  0  0  0  0  0  0  0  0  0  0  0
    1.7018    0.6500   -0.9134 C   0  0  0  0  0  0  0  0  0  0  0  0
    0.3522    0.9599   -0.8724 N   0  0  0  0  0  0  0  0  0  0  0  0
   -0.2938    0.0305   -0.2112 C   0  0  0  0  0  0  0  0  0  0  0  0
   -1.6483    0.1261   -0.0277 N   0  0  0  0  0  0  0  0  0  0  0  0
   -2.4765   -0.7951    0.5643 C   0  0  0  0  0  0  0  0  0  0  0  0
   -2.1552   -1.9075    0.9634 O   0  0  0  0  0  0  0  0  0  0  0  0
   -3.8738   -0.3713    0.6458 C   0  0  0  0  0  0  0  0  0  0  0  0
   -5.0075   -1.2413    0.6875 C   0  0  0  0  0  0  0  0  0  0  0  0
   -6.1210   -0.4437    0.7649 C   0  0  0  0  0  0  0  0  0  0  0  0
   -5.7604    0.8612    0.7995 O   0  0  0  0  0  0  0  0  0  0  0  0
   -4.3979    0.9106    0.7513 C   0  0  0  0  0  0  0  0  0  0  0  0
   -3.8224    2.2708    0.8532 C   0  0  0  0  0  0  0  0  0  0  0  0
    0.6466   -1.2392    0.4133 S   0  0  0  0  0  0  0  0  0  0  0  0
    2.0627   -0.5285   -0.2596 C   0  0  0  0  0  0  0  0  0  0  0  0
    3.3942   -0.9833   -0.2085 C   0  0  0  0  0  0  0  0  0  0  0  0
    7.2123   -1.8046   -0.3649 H   0  0  0  0  0  0  0  0  0  0  0  0
    5.9251   -1.6705    0.8395 H   0  0  0  0  0  0  0  0  0  0  0  0
    5.6637   -2.5917   -0.6932 H   0  0  0  0  0  0  0  0  0  0  0  0
    4.8083    1.5530   -1.9847 H   0  0  0  0  0  0  0  0  0  0  0  0
    2.4493    2.3279   -2.0562 H   0  0  0  0  0  0  0  0  0  0  0  0
   -2.0433    0.9425   -0.4666 H   0  0  0  0  0  0  0  0  0  0  0  0
   -4.9947   -2.3227    0.6555 H   0  0  0  0  0  0  0  0  0  0  0  0
   -7.1834   -0.6394    0.8101 H   0  0  0  0  0  0  0  0  0  0  0  0
   -2.9109    2.2656    1.4583 H   0  0  0  0  0  0  0  0  0  0  0  0
   -3.5817    2.6584   -0.1412 H   0  0  0  0  0  0  0  0  0  0  0  0
   -4.5283    2.9622    1.3248 H   0  0  0  0  0  0  0  0  0  0  0  0
    3.6188   -1.9058    0.3132 H   0  0  0  0  0  0  0  0  0  0  0  0
  1  2  1  0
  2  3  1  0
  3  4  2  0
  4  5  1  0
  5  6  2  0
  6  7  1  0
  7  8  2  0
  8  9  1  0
  9 10  1  0
 10 11  2  0
 10 12  1  0
 12 13  1  0
 13 14  2  0
 14 15  1  0
 15 16  1  0
 16 17  1  0
  8 18  1  0
 18 19  1  0
 19 20  2  0
 20  3  1  0
 19  6  1  0
 16 12  2  0
  1 21  1  0
  1 22  1  0
  1 23  1  0
  4 24  1  0
  5 25  1  0
  9 26  1  0
 13 27  1  0
 14 28  1  0
 17 29  1  0
 17 30  1  0
 17 31  1  0
 20 32  1  0
M  END
$$$$
