
     RDKit          3D

 35 37  0  0  0  0  0  0  0  0999 V2000
   -5.6796    0.5751    0.2507 C   0  0  0  0  0  0  0  0  0  0  0  0
   -4.2549    0.0991    0.1875 C   0  0  0  0  0  0  0  0  0  0  0  0
   -3.2166    1.0458    0.1960 C   0  0  0  0  0  0  0  0  0  0  0  0
   -1.8820    0.6750    0.1020 C   0  0  0  0  0  0  0  0  0  0  0  0
   -0.9247    1.6200    0.1150 N   0  0  0  0  0  0  0  0  0  0  0  0
    0.3517    1.2078    0.0029 C   0  0  0  0  0  0  0  0  0  0  0  0
    1.3766    2.1359    0.0047 C   0  0  0  0  0  0  0  0  0  0  0  0
    2.7160    1.7417   -0.1089 C   0  0  0  0  0  0  0  0  0  0  0  0
    3.0830    0.3941   -0.2199 C   0  0  0  0  0  0  0  0  0  0  0  0
    4.4177   -0.0033   -0.3516 N   0  0  0  0  0  0  0  0  0  0  0  0
    4.7563   -1.4217   -0.2361 C   0  0  0  0  0  0  0  0  0  0  0  0
    5.4778    0.9314    0.0250 C   0  0  0  0  0  0  0  0  0  0  0  0
    2.0181   -0.5251   -0.2348 C   0  0  0  0  0  0  0  0  0  0  0  0
    0.6780   -0.1539   -0.1217 C   0  0  0  0  0  0  0  0  0  0  0  0
   -0.2828   -1.0985   -0.1318 N   0  0  0  0  0  0  0  0  0  0  0  0
   -1.5612   -0.6900   -0.0193 C   0  0  0  0  0  0  0  0  0  0  0  0
   -2.5885   -1.6260   -0.0239 C   0  0  0  0  0  0  0  0  0  0  0  0
   -3.9323   -1.2627    0.1308 C   0  0  0  0  0  0  0  0  0  0  0  0
   -4.9219   -2.2476    0.0059 N   0  0  0  0  0  0  0  0  0  0  0  0
   -6.1540    0.2271    1.1739 H   0  0  0  0  0  0  0  0  0  0  0  0
   -6.2439    0.2062   -0.6120 H   0  0  0  0  0  0  0  0  0  0  0  0
   -5.7406    1.6686    0.2377 H   0  0  0  0  0  0  0  0  0  0  0  0
   -3.4472    2.1070    0.2642 H   0  0  0  0  0  0  0  0  0  0  0  0
    1.1339    3.1919    0.0910 H   0  0  0  0  0  0  0  0  0  0  0  0
    3.4609    2.5316   -0.1147 H   0  0  0  0  0  0  0  0  0  0  0  0
    4.2537   -2.0135   -1.0087 H   0  0  0  0  0  0  0  0  0  0  0  0
    5.8296   -1.5868   -0.3835 H   0  0  0  0  0  0  0  0  0  0  0  0
    4.4944   -1.8089    0.7547 H   0  0  0  0  0  0  0  0  0  0  0  0
    6.4692    0.4811   -0.0985 H   0  0  0  0  0  0  0  0  0  0  0  0
    5.3814    1.2336    1.0737 H   0  0  0  0  0  0  0  0  0  0  0  0
    5.4694    1.8190   -0.6165 H   0  0  0  0  0  0  0  0  0  0  0  0
    2.2060   -1.5896   -0.3373 H   0  0  0  0  0  0  0  0  0  0  0  0
   -2.3217   -2.6727   -0.1475 H   0  0  0  0  0  0  0  0  0  0  0  0
   -5.8089   -2.0106    0.4378 H   0  0  0  0  0  0  0  0  0  0  0  0
   -4.6128   -3.1811    0.2605 H   0  0  0  0  0  0  0  0  0  0  0  0
  1  2  1  0
  2  3  2  0
  3  4  1  0
  4  5  2  0
  5  6  1  0
  6  7  2  0
  7  8  1  0
  8  9  2  0
  9 10  1  0
 10 11  1  0
 10 12  1  0
  9 13  1  0
 13 14  2  0
 14 15  1  0
 15 16  2  0
 16 17  1  0
 17 18  2  0
 18 19  1  0
 18  2  1  0
 16  4  1  0
 14  6  1  0
  1 20  1  0
  1 21  1  0
  1 22  1  0
  3 23  1  0
  7 24  1  0
  8 25  1  0
 11 26  1  0
 11 27  1  0
 11 28  1  0
 12 29  1  0
 12 30  1  0
 12 31  1  0
 13 32  1  0
 17 33  1  0
 19 34  1  0
 19 35  1  0
M  END
$$$$
