
     RDKit          3D

 52 55  0  0  0  0  0  0  0  0999 V2000
   -1.8306   -1.9934   -3.9168 C   0  0  0  0  0  0  0  0  0  0  0  0
   -0.4985   -2.1442   -3.2233 C   0  0  0  0  0  0  0  0  0  0  0  0
    0.3587   -2.8863   -3.6873 O   0  0  0  0  0  0  0  0  0  0  0  0
   -0.4420   -1.3850   -2.0713 N   0  0  0  0  0  0  0  0  0  0  0  0
    0.5944   -1.2947   -1.1570 C   0  0  0  0  0  0  0  0  0  0  0  0
    2.0182   -2.1908   -1.3446 S   0  0  0  0  0  0  0  0  0  0  0  0
    2.6568   -1.6121    0.1119 C   0  0  0  0  0  0  0  0  0  0  0  0
    1.8079   -0.7297    0.7525 C   0  0  0  0  0  0  0  0  0  0  0  0
    0.5884   -0.5053   -0.0072 C   0  0  0  0  0  0  0  0  0  0  0  0
   -0.5185    0.4601    0.4264 C   0  0  0  0  0  0  0  0  0  0  0  0
   -0.1094    1.7955   -0.2059 C   0  0  0  0  0  0  0  0  0  0  0  0
   -0.2470    2.0641   -1.5803 C   0  0  0  0  0  0  0  0  0  0  0  0
    0.1352    3.2980   -2.1152 C   0  0  0  0  0  0  0  0  0  0  0  0
    0.6556    4.2833   -1.2823 C   0  0  0  0  0  0  0  0  0  0  0  0
    1.1223    5.8027   -1.9396 Cl  0  0  0  0  0  0  0  0  0  0  0  0
    0.7956    4.0470    0.0818 C   0  0  0  0  0  0  0  0  0  0  0  0
    0.4144    2.8130    0.6160 C   0  0  0  0  0  0  0  0  0  0  0  0
   -1.8710   -0.0373    0.0429 N   0  0  0  0  0  0  0  0  0  0  0  0
   -2.1815   -1.2882    0.8060 C   0  0  0  0  0  0  0  0  0  0  0  0
   -3.6895   -1.5072    0.9960 C   0  0  0  0  0  0  0  0  0  0  0  0
   -4.2892   -0.4830    1.7979 O   0  0  0  0  0  0  0  0  0  0  0  0
   -3.6430    0.7879    1.6628 C   0  0  0  0  0  0  0  0  0  0  0  0
   -2.9416    0.9620    0.3071 C   0  0  0  0  0  0  0  0  0  0  0  0
    2.1990   -0.0882    2.0555 C   0  0  0  0  0  0  0  0  0  0  0  0
    3.3619   -0.8245    2.7382 C   0  0  0  0  0  0  0  0  0  0  0  0
    4.4838   -1.1481    1.7438 C   0  0  0  0  0  0  0  0  0  0  0  0
    3.9904   -2.0678    0.6183 C   0  0  0  0  0  0  0  0  0  0  0  0
   -2.5630   -2.6513   -3.4416 H   0  0  0  0  0  0  0  0  0  0  0  0
   -1.7259   -2.2677   -4.9705 H   0  0  0  0  0  0  0  0  0  0  0  0
   -2.1800   -0.9577   -3.8695 H   0  0  0  0  0  0  0  0  0  0  0  0
   -1.2716   -0.8634   -1.7958 H   0  0  0  0  0  0  0  0  0  0  0  0
   -0.4944    0.5778    1.5175 H   0  0  0  0  0  0  0  0  0  0  0  0
   -0.6537    1.3154   -2.2532 H   0  0  0  0  0  0  0  0  0  0  0  0
    0.0259    3.4792   -3.1813 H   0  0  0  0  0  0  0  0  0  0  0  0
    1.2017    4.8159    0.7337 H   0  0  0  0  0  0  0  0  0  0  0  0
    0.5330    2.6515    1.6855 H   0  0  0  0  0  0  0  0  0  0  0  0
   -1.7258   -1.2528    1.8046 H   0  0  0  0  0  0  0  0  0  0  0  0
   -1.7666   -2.1536    0.2801 H   0  0  0  0  0  0  0  0  0  0  0  0
   -3.8709   -2.4634    1.4974 H   0  0  0  0  0  0  0  0  0  0  0  0
   -4.2073   -1.5433    0.0303 H   0  0  0  0  0  0  0  0  0  0  0  0
   -4.4104    1.5582    1.7898 H   0  0  0  0  0  0  0  0  0  0  0  0
   -2.9299    0.9006    2.4875 H   0  0  0  0  0  0  0  0  0  0  0  0
   -2.5971    1.9953    0.2079 H   0  0  0  0  0  0  0  0  0  0  0  0
   -3.6908    0.8262   -0.4839 H   0  0  0  0  0  0  0  0  0  0  0  0
    1.3458   -0.0599    2.7417 H   0  0  0  0  0  0  0  0  0  0  0  0
    2.5004    0.9470    1.8567 H   0  0  0  0  0  0  0  0  0  0  0  0
    3.7527   -0.2095    3.5567 H   0  0  0  0  0  0  0  0  0  0  0  0
    2.9957   -1.7580    3.1845 H   0  0  0  0  0  0  0  0  0  0  0  0
    4.8636   -0.2121    1.3144 H   0  0  0  0  0  0  0  0  0  0  0  0
    5.3220   -1.6244    2.2646 H   0  0  0  0  0  0  0  0  0  0  0  0
    3.8922   -3.0904    1.0036 H   0  0  0  0  0  0  0  0  0  0  0  0
    4.7337   -2.0873   -0.1869 H   0  0  0  0  0  0  0  0  0  0  0  0
  1  2  1  0
  2  3  2  0
  2  4  1  0
  4  5  1  0
  5  6  1  0
  6  7  1  0
  7  8  2  0
  8  9  1  0
  9 10  1  0
 10 11  1  0
 11 12  2  0
 12 13  1  0
 13 14  2  0
 14 15  1  0
 14 16  1  0
 16 17  2  0
 10 18  1  0
 18 19  1  0
 19 20  1  0
 20 21  1  0
 21 22  1  0
 22 23  1  0
  8 24  1  0
 24 25  1  0
 25 26  1  0
 26 27  1  0
  9  5  2  0
 17 11  1  0
 23 18  1  0
 27  7  1  0
  1 28  1  0
  1 29  1  0
  1 30  1  0
  4 31  1  0
 10 32  1  0
 12 33  1  0
 13 34  1  0
 16 35  1  0
 17 36  1  0
 19 37  1  0
 19 38  1  0
 20 39  1  0
 20 40  1  0
 22 41  1  0
 22 42  1  0
 23 43  1  0
 23 44  1  0
 24 45  1  0
 24 46  1  0
 25 47  1  0
 25 48  1  0
 26 49  1  0
 26 50  1  0
 27 51  1  0
 27 52  1  0
M  END
$$$$
