
     RDKit          3D

 68 73  0  0  0  0  0  0  0  0999 V2000
   -1.6496    4.1020   -2.4604 C   0  0  0  0  0  0  0  0  0  0  0  0
   -2.6676    4.5331   -1.5617 O   0  0  0  0  0  0  0  0  0  0  0  0
   -2.8064    3.8247   -0.3996 C   0  0  0  0  0  0  0  0  0  0  0  0
   -3.7962    4.3256    0.4680 C   0  0  0  0  0  0  0  0  0  0  0  0
   -4.0706    3.7092    1.6902 C   0  0  0  0  0  0  0  0  0  0  0  0
   -3.3229    2.6002    2.0180 C   0  0  0  0  0  0  0  0  0  0  0  0
   -2.3184    2.0916    1.1888 C   0  0  0  0  0  0  0  0  0  0  0  0
   -2.0701    2.6898   -0.0429 C   0  0  0  0  0  0  0  0  0  0  0  0
   -1.7098    0.8756    1.8449 C   0  0  1  0  0  0  0  0  0  0  0  0
   -2.5721    0.7428    3.1481 C   0  0  0  0  0  0  0  0  0  0  0  0
   -2.5206   -0.1109    4.0219 O   0  0  0  0  0  0  0  0  0  0  0  0
   -3.4645    1.8169    3.1518 N   0  0  0  0  0  0  0  0  0  0  0  0
   -1.8712   -0.2807    0.9374 C   0  0  0  0  0  0  0  0  0  0  0  0
   -0.7127   -1.0544    0.9395 C   0  0  0  0  0  0  0  0  0  0  0  0
   -0.8738   -2.1001    0.0740 C   0  0  0  0  0  0  0  0  0  0  0  0
    0.0394   -2.9922   -0.3074 O   0  0  0  0  0  0  0  0  0  0  0  0
   -2.1975   -2.0425   -0.4079 N   0  0  0  0  0  0  0  0  0  0  0  0
   -2.8321   -3.0253   -1.2321 C   0  0  0  0  0  0  0  0  0  0  0  0
   -3.8105   -2.6585   -2.1645 C   0  0  0  0  0  0  0  0  0  0  0  0
   -4.4128   -3.6305   -2.9678 C   0  0  0  0  0  0  0  0  0  0  0  0
   -4.0483   -4.9698   -2.8441 C   0  0  0  0  0  0  0  0  0  0  0  0
   -3.0862   -5.3473   -1.9107 C   0  0  0  0  0  0  0  0  0  0  0  0
   -2.4847   -4.3806   -1.1007 C   0  0  0  0  0  0  0  0  0  0  0  0
   -2.7824   -0.8618    0.0887 C   0  0  0  0  0  0  0  0  0  0  0  0
   -4.0270   -0.5005   -0.2128 O   0  0  0  0  0  0  0  0  0  0  0  0
    0.3274   -0.4990    1.8413 C   0  0  1  0  0  0  0  0  0  0  0  0
    1.7688   -0.5764    1.2667 C   0  0  0  0  0  0  0  0  0  0  0  0
    2.5687    0.6525    1.3240 N   0  0  0  0  0  0  0  0  0  0  0  0
    3.8772    0.6860    0.8842 C   0  0  0  0  0  0  0  0  0  0  0  0
    4.6247    1.6408    1.0455 O   0  0  0  0  0  0  0  0  0  0  0  0
    4.2180   -0.4576    0.2402 O   0  0  0  0  0  0  0  0  0  0  0  0
    5.5375   -0.6380   -0.3399 C   0  0  0  0  0  0  0  0  0  0  0  0
    5.4829   -2.0307   -0.9875 C   0  0  0  0  0  0  0  0  0  0  0  0
    5.8158    0.3970   -1.4329 C   0  0  0  0  0  0  0  0  0  0  0  0
    6.6195   -0.6339    0.7441 C   0  0  0  0  0  0  0  0  0  0  0  0
    2.0350    1.7631    2.0935 C   0  0  0  0  0  0  0  0  0  0  0  0
    0.5560    1.9725    1.7581 C   0  0  0  0  0  0  0  0  0  0  0  0
   -0.2528    0.8474    2.2148 N   0  0  0  0  0  0  0  0  0  0  0  0
   -0.6604    4.1558   -1.9932 H   0  0  0  0  0  0  0  0  0  0  0  0
   -1.8560    3.0928   -2.8340 H   0  0  0  0  0  0  0  0  0  0  0  0
   -1.6477    4.7840   -3.3154 H   0  0  0  0  0  0  0  0  0  0  0  0
   -4.3621    5.2069    0.1735 H   0  0  0  0  0  0  0  0  0  0  0  0
   -4.8490    4.0912    2.3418 H   0  0  0  0  0  0  0  0  0  0  0  0
   -1.3224    2.2582   -0.6993 H   0  0  0  0  0  0  0  0  0  0  0  0
   -4.1295    1.9632    3.8969 H   0  0  0  0  0  0  0  0  0  0  0  0
   -0.2267   -3.3617   -1.1693 H   0  0  0  0  0  0  0  0  0  0  0  0
   -4.1070   -1.6221   -2.3037 H   0  0  0  0  0  0  0  0  0  0  0  0
   -5.1576   -3.3386   -3.7072 H   0  0  0  0  0  0  0  0  0  0  0  0
   -4.5234   -5.7195   -3.4731 H   0  0  0  0  0  0  0  0  0  0  0  0
   -2.8223   -6.3972   -1.7944 H   0  0  0  0  0  0  0  0  0  0  0  0
   -1.7979   -4.7159   -0.3236 H   0  0  0  0  0  0  0  0  0  0  0  0
   -4.2422    0.3094    0.2826 H   0  0  0  0  0  0  0  0  0  0  0  0
    0.3110   -1.0980    2.7608 H   0  0  0  0  0  0  0  0  0  0  0  0
    1.7714   -0.9117    0.2203 H   0  0  0  0  0  0  0  0  0  0  0  0
    2.3275   -1.3341    1.8388 H   0  0  0  0  0  0  0  0  0  0  0  0
    5.2586   -2.8002   -0.2410 H   0  0  0  0  0  0  0  0  0  0  0  0
    4.6812   -2.0798   -1.7337 H   0  0  0  0  0  0  0  0  0  0  0  0
    6.4274   -2.2916   -1.4791 H   0  0  0  0  0  0  0  0  0  0  0  0
    5.9435    1.4064   -1.0215 H   0  0  0  0  0  0  0  0  0  0  0  0
    6.7277    0.1521   -1.9901 H   0  0  0  0  0  0  0  0  0  0  0  0
    4.9811    0.4538   -2.1409 H   0  0  0  0  0  0  0  0  0  0  0  0
    6.7760    0.3670    1.1607 H   0  0  0  0  0  0  0  0  0  0  0  0
    7.5814   -0.9817    0.3537 H   0  0  0  0  0  0  0  0  0  0  0  0
    6.3396   -1.2817    1.5824 H   0  0  0  0  0  0  0  0  0  0  0  0
    2.5953    2.6780    1.8728 H   0  0  0  0  0  0  0  0  0  0  0  0
    2.1769    1.5378    3.1561 H   0  0  0  0  0  0  0  0  0  0  0  0
    0.4791    2.1059    0.6735 H   0  0  0  0  0  0  0  0  0  0  0  0
    0.2165    2.8915    2.2489 H   0  0  0  0  0  0  0  0  0  0  0  0
  1  2  1  0
  2  3  1  0
  3  4  2  0
  4  5  1  0
  5  6  2  0
  6  7  1  0
  7  8  2  0
  7  9  1  0
  9 10  1  0
 10 11  2  0
 10 12  1  0
  9 13  1  0
 13 14  1  0
 14 15  2  0
 15 16  1  0
 15 17  1  0
 17 18  1  0
 18 19  2  0
 19 20  1  0
 20 21  2  0
 21 22  1  0
 22 23  2  0
 17 24  1  0
 24 25  1  0
 14 26  1  0
 26 27  1  0
 27 28  1  0
 28 29  1  0
 29 30  2  0
 29 31  1  0
 31 32  1  0
 32 33  1  0
 32 34  1  0
 32 35  1  0
 28 36  1  0
 36 37  1  0
 37 38  1  0
  8  3  1  0
  9 38  1  1
 12  6  1  0
 24 13  2  0
 38 26  1  0
 23 18  1  0
  1 39  1  0
  1 40  1  0
  1 41  1  0
  4 42  1  0
  5 43  1  0
  8 44  1  0
 12 45  1  0
 16 46  1  0
 19 47  1  0
 20 48  1  0
 21 49  1  0
 22 50  1  0
 23 51  1  0
 25 52  1  0
 26 53  1  1
 27 54  1  0
 27 55  1  0
 33 56  1  0
 33 57  1  0
 33 58  1  0
 34 59  1  0
 34 60  1  0
 34 61  1  0
 35 62  1  0
 35 63  1  0
 35 64  1  0
 36 65  1  0
 36 66  1  0
 37 67  1  0
 37 68  1  0
M  END
$$$$
