
     RDKit          3D

 49 52  0  0  0  0  0  0  0  0999 V2000
   -1.6820    5.4633   -1.2998 C   0  0  0  0  0  0  0  0  0  0  0  0
   -1.3222    4.1614   -0.6476 C   0  0  0  0  0  0  0  0  0  0  0  0
   -1.3233    2.9750   -1.3877 C   0  0  0  0  0  0  0  0  0  0  0  0
   -1.0158    1.7572   -0.7764 C   0  0  0  0  0  0  0  0  0  0  0  0
   -0.7022    1.6980    0.5899 C   0  0  0  0  0  0  0  0  0  0  0  0
   -0.3875    0.3856    1.2920 C   0  0  0  0  0  0  0  0  0  0  0  0
   -1.6729   -0.3472    1.6809 C   0  0  0  0  0  0  0  0  0  0  0  0
   -1.6086   -1.5232    0.7460 C   0  0  0  0  0  0  0  0  0  0  0  0
   -2.7343   -2.4776    0.6133 C   0  0  0  0  0  0  0  0  0  0  0  0
   -3.8858   -2.3658    1.4007 C   0  0  0  0  0  0  0  0  0  0  0  0
   -4.9289   -3.2834    1.2487 C   0  0  0  0  0  0  0  0  0  0  0  0
   -4.8262   -4.3130    0.3139 C   0  0  0  0  0  0  0  0  0  0  0  0
   -3.6810   -4.4296   -0.4715 C   0  0  0  0  0  0  0  0  0  0  0  0
   -2.6368   -3.5150   -0.3227 C   0  0  0  0  0  0  0  0  0  0  0  0
   -0.4907   -1.6493    0.0969 N   0  0  0  0  0  0  0  0  0  0  0  0
    0.2989   -0.5888    0.4396 N   0  0  0  0  0  0  0  0  0  0  0  0
    1.6244   -0.5203    0.0150 C   0  0  0  0  0  0  0  0  0  0  0  0
    2.4813    0.5317    0.3815 C   0  0  0  0  0  0  0  0  0  0  0  0
    3.8123    0.5847   -0.0520 C   0  0  0  0  0  0  0  0  0  0  0  0
    4.3108   -0.4314   -0.8640 C   0  0  0  0  0  0  0  0  0  0  0  0
    5.9925   -0.3881   -1.4158 S   0  0  0  0  0  6  0  0  0  0  0  0
    6.7230   -1.4676   -0.3469 N   0  0  0  0  0  0  0  0  0  0  0  0
    6.0580   -0.9578   -2.7400 O   0  0  0  0  0  0  0  0  0  0  0  0
    6.5530    0.9049   -1.0950 O   0  0  0  0  0  0  0  0  0  0  0  0
    3.4888   -1.4826   -1.2618 C   0  0  0  0  0  0  0  0  0  0  0  0
    2.1631   -1.5200   -0.8179 C   0  0  0  0  0  0  0  0  0  0  0  0
   -0.7259    2.8897    1.3321 C   0  0  0  0  0  0  0  0  0  0  0  0
   -1.0349    4.1073    0.7199 C   0  0  0  0  0  0  0  0  0  0  0  0
   -1.3777    5.4705   -2.3517 H   0  0  0  0  0  0  0  0  0  0  0  0
   -2.7629    5.6241   -1.2427 H   0  0  0  0  0  0  0  0  0  0  0  0
   -1.1731    6.2997   -0.8092 H   0  0  0  0  0  0  0  0  0  0  0  0
   -1.5592    2.9885   -2.4496 H   0  0  0  0  0  0  0  0  0  0  0  0
   -1.0147    0.8505   -1.3801 H   0  0  0  0  0  0  0  0  0  0  0  0
    0.2050    0.5806    2.1952 H   0  0  0  0  0  0  0  0  0  0  0  0
   -1.6186   -0.7143    2.7114 H   0  0  0  0  0  0  0  0  0  0  0  0
   -2.5844    0.2403    1.5410 H   0  0  0  0  0  0  0  0  0  0  0  0
   -3.9955   -1.5779    2.1394 H   0  0  0  0  0  0  0  0  0  0  0  0
   -5.8237   -3.1958    1.8605 H   0  0  0  0  0  0  0  0  0  0  0  0
   -5.6393   -5.0255    0.1972 H   0  0  0  0  0  0  0  0  0  0  0  0
   -3.5988   -5.2316   -1.2009 H   0  0  0  0  0  0  0  0  0  0  0  0
   -1.7482   -3.6163   -0.9427 H   0  0  0  0  0  0  0  0  0  0  0  0
    2.1252    1.3452    1.0072 H   0  0  0  0  0  0  0  0  0  0  0  0
    4.4387    1.4228    0.2451 H   0  0  0  0  0  0  0  0  0  0  0  0
    7.3901   -0.9541    0.2311 H   0  0  0  0  0  0  0  0  0  0  0  0
    6.0506   -1.9871    0.2166 H   0  0  0  0  0  0  0  0  0  0  0  0
    3.8600   -2.2685   -1.9160 H   0  0  0  0  0  0  0  0  0  0  0  0
    1.5313   -2.3468   -1.1382 H   0  0  0  0  0  0  0  0  0  0  0  0
   -0.5037    2.8815    2.3971 H   0  0  0  0  0  0  0  0  0  0  0  0
   -1.0480    5.0160    1.3179 H   0  0  0  0  0  0  0  0  0  0  0  0
  1  2  1  0
  2  3  2  0
  3  4  1  0
  4  5  2  0
  5  6  1  0
  6  7  1  0
  7  8  1  0
  8  9  1  0
  9 10  2  0
 10 11  1  0
 11 12  2  0
 12 13  1  0
 13 14  2  0
  8 15  2  0
 15 16  1  0
 16 17  1  0
 17 18  2  0
 18 19  1  0
 19 20  2  0
 20 21  1  0
 21 22  1  0
 21 23  2  0
 21 24  2  0
 20 25  1  0
 25 26  2  0
  5 27  1  0
 27 28  2  0
 28  2  1  0
 16  6  1  0
 26 17  1  0
 14  9  1  0
  1 29  1  0
  1 30  1  0
  1 31  1  0
  3 32  1  0
  4 33  1  0
  6 34  1  0
  7 35  1  0
  7 36  1  0
 10 37  1  0
 11 38  1  0
 12 39  1  0
 13 40  1  0
 14 41  1  0
 18 42  1  0
 19 43  1  0
 22 44  1  0
 22 45  1  0
 25 46  1  0
 26 47  1  0
 27 48  1  0
 28 49  1  0
M  END
$$$$
