
     RDKit          3D

 43 45  0  0  0  0  0  0  0  0999 V2000
   -5.0058    1.9953    0.6003 C   0  0  0  0  0  0  0  0  0  0  0  0
   -4.0114    1.1405    1.3707 C   0  0  0  0  0  0  0  0  0  0  0  0
   -3.2982    0.1037    0.5015 C   0  0  0  0  0  0  0  0  0  0  0  0
   -2.3911    0.7288   -0.5591 C   0  0  0  0  0  0  0  0  0  0  0  0
   -1.6323   -0.2875   -1.2866 N   0  0  0  0  0  0  0  0  0  0  0  0
   -2.0263   -0.9120   -2.4730 C   0  0  0  0  0  0  0  0  0  0  0  0
   -3.4880   -0.8772   -3.2468 S   0  0  0  0  0  0  0  0  0  0  0  0
   -0.9477   -1.6327   -2.9578 N   0  0  0  0  0  0  0  0  0  0  0  0
    0.1399   -1.6464   -2.0174 C   0  0  0  0  0  0  0  0  0  0  0  0
   -0.2020   -0.5110   -1.0425 C   0  0  0  0  0  0  0  0  0  0  0  0
    0.1400   -0.8486    0.4158 C   0  0  0  0  0  0  0  0  0  0  0  0
    1.6284   -1.0246    0.6538 C   0  0  0  0  0  0  0  0  0  0  0  0
    2.1229   -2.3371    0.7628 C   0  0  0  0  0  0  0  0  0  0  0  0
    3.4796   -2.5745    0.9491 C   0  0  0  0  0  0  0  0  0  0  0  0
    4.3647   -1.5043    1.0308 C   0  0  0  0  0  0  0  0  0  0  0  0
    3.9073   -0.1824    0.9355 C   0  0  0  0  0  0  0  0  0  0  0  0
    4.8197    0.8817    1.0267 C   0  0  0  0  0  0  0  0  0  0  0  0
    4.3915    2.2047    0.9420 C   0  0  0  0  0  0  0  0  0  0  0  0
    3.0427    2.4805    0.7681 C   0  0  0  0  0  0  0  0  0  0  0  0
    2.1230    1.4327    0.6751 C   0  0  0  0  0  0  0  0  0  0  0  0
    2.5251    0.0783    0.7494 C   0  0  0  0  0  0  0  0  0  0  0  0
   -4.5034    2.6335   -0.1324 H   0  0  0  0  0  0  0  0  0  0  0  0
   -5.5518    2.6484    1.2887 H   0  0  0  0  0  0  0  0  0  0  0  0
   -5.7356    1.3717    0.0743 H   0  0  0  0  0  0  0  0  0  0  0  0
   -3.2745    1.7883    1.8594 H   0  0  0  0  0  0  0  0  0  0  0  0
   -4.5491    0.6143    2.1684 H   0  0  0  0  0  0  0  0  0  0  0  0
   -4.0387   -0.5506    0.0263 H   0  0  0  0  0  0  0  0  0  0  0  0
   -2.7014   -0.5415    1.1572 H   0  0  0  0  0  0  0  0  0  0  0  0
   -1.6825    1.4286   -0.1023 H   0  0  0  0  0  0  0  0  0  0  0  0
   -2.9850    1.2990   -1.2799 H   0  0  0  0  0  0  0  0  0  0  0  0
   -1.0543   -2.2652   -3.7414 H   0  0  0  0  0  0  0  0  0  0  0  0
    0.1403   -2.6323   -1.5420 H   0  0  0  0  0  0  0  0  0  0  0  0
    1.0876   -1.4902   -2.5395 H   0  0  0  0  0  0  0  0  0  0  0  0
    0.3076    0.4040   -1.3689 H   0  0  0  0  0  0  0  0  0  0  0  0
   -0.2341   -0.0752    1.0970 H   0  0  0  0  0  0  0  0  0  0  0  0
   -0.3969   -1.7581    0.7183 H   0  0  0  0  0  0  0  0  0  0  0  0
    1.4479   -3.1890    0.7027 H   0  0  0  0  0  0  0  0  0  0  0  0
    3.8495   -3.5932    1.0317 H   0  0  0  0  0  0  0  0  0  0  0  0
    5.4229   -1.7116    1.1762 H   0  0  0  0  0  0  0  0  0  0  0  0
    5.8808    0.6857    1.1679 H   0  0  0  0  0  0  0  0  0  0  0  0
    5.1107    3.0160    1.0157 H   0  0  0  0  0  0  0  0  0  0  0  0
    2.7010    3.5105    0.7066 H   0  0  0  0  0  0  0  0  0  0  0  0
    1.0771    1.6989    0.5481 H   0  0  0  0  0  0  0  0  0  0  0  0
  1  2  1  0
  2  3  1  0
  3  4  1  0
  4  5  1  0
  5  6  1  0
  6  7  2  0
  6  8  1  0
  8  9  1  0
  9 10  1  0
 10 11  1  0
 11 12  1  0
 12 13  2  0
 13 14  1  0
 14 15  2  0
 15 16  1  0
 16 17  2  0
 17 18  1  0
 18 19  2  0
 19 20  1  0
 20 21  2  0
 10  5  1  0
 21 12  1  0
 21 16  1  0
  1 22  1  0
  1 23  1  0
  1 24  1  0
  2 25  1  0
  2 26  1  0
  3 27  1  0
  3 28  1  0
  4 29  1  0
  4 30  1  0
  8 31  1  0
  9 32  1  0
  9 33  1  0
 10 34  1  0
 11 35  1  0
 11 36  1  0
 13 37  1  0
 14 38  1  0
 15 39  1  0
 17 40  1  0
 18 41  1  0
 19 42  1  0
 20 43  1  0
M  END
$$$$
