
     RDKit          3D

 63 67  0  0  0  0  0  0  0  0999 V2000
   -0.3952   -0.3075    6.6557 Cl  0  0  0  0  0  0  0  0  0  0  0  0
   -1.1430   -0.4115    5.1123 C   0  0  0  0  0  0  0  0  0  0  0  0
   -2.5303   -0.3913    5.0099 C   0  0  0  0  0  0  0  0  0  0  0  0
   -3.1368   -0.4849    3.7547 C   0  0  0  0  0  0  0  0  0  0  0  0
   -2.3640   -0.6040    2.5850 C   0  0  0  0  0  0  0  0  0  0  0  0
   -3.0709   -0.6890    1.2373 C   0  0  0  0  0  0  0  0  0  0  0  0
   -3.5356    0.6378    0.6490 C   0  0  0  0  0  0  0  0  0  0  0  0
   -2.8595    1.8490    0.8851 C   0  0  0  0  0  0  0  0  0  0  0  0
   -3.2863    3.0368    0.2843 C   0  0  0  0  0  0  0  0  0  0  0  0
   -4.3913    3.0300   -0.5610 C   0  0  0  0  0  0  0  0  0  0  0  0
   -4.9054    4.4891   -1.3078 Cl  0  0  0  0  0  0  0  0  0  0  0  0
   -5.0761    1.8440   -0.8092 C   0  0  0  0  0  0  0  0  0  0  0  0
   -4.6508    0.6545   -0.2099 C   0  0  0  0  0  0  0  0  0  0  0  0
   -2.2385   -1.4225    0.2557 N   0  0  0  0  0  0  0  0  0  0  0  0
   -1.9903   -2.7915    0.2852 C   0  0  0  0  0  0  0  0  0  0  0  0
   -1.1971   -3.0783   -0.7892 C   0  0  0  0  0  0  0  0  0  0  0  0
   -0.9989   -1.8882   -1.4642 N   0  0  0  0  0  4  0  0  0  0  0  0
   -0.2308   -1.7063   -2.7166 C   0  0  0  0  0  0  0  0  0  0  0  0
    1.0075   -0.7836   -2.5717 C   0  0  0  0  0  0  0  0  0  0  0  0
    0.5370    0.5097   -2.1396 O   0  0  0  0  0  0  0  0  0  0  0  0
    1.2519    1.6188   -2.6974 C   0  0  0  0  0  0  0  0  0  0  0  0
    2.4857    1.9514   -1.9009 C   0  0  0  0  0  0  0  0  0  0  0  0
    3.7514    1.6985   -2.4584 C   0  0  0  0  0  0  0  0  0  0  0  0
    4.9148    1.9825   -1.7405 C   0  0  0  0  0  0  0  0  0  0  0  0
    4.8258    2.5201   -0.4601 C   0  0  0  0  0  0  0  0  0  0  0  0
    6.2621    2.8544    0.4253 Cl  0  0  0  0  0  0  0  0  0  0  0  0
    3.5834    2.7816    0.1103 C   0  0  0  0  0  0  0  0  0  0  0  0
    2.4189    2.4970   -0.6068 C   0  0  0  0  0  0  0  0  0  0  0  0
    0.9037    2.8103    0.1678 Cl  0  0  0  0  0  0  0  0  0  0  0  0
    2.0243   -1.3792   -1.6082 C   0  0  0  0  0  0  0  0  0  0  0  0
    2.0192   -1.0184   -0.2487 C   0  0  0  0  0  0  0  0  0  0  0  0
    2.9479   -1.5557    0.6463 C   0  0  0  0  0  0  0  0  0  0  0  0
    3.8926   -2.4694    0.1952 C   0  0  0  0  0  0  0  0  0  0  0  0
    5.0349   -3.1261    1.2972 Cl  0  0  0  0  0  0  0  0  0  0  0  0
    3.9125   -2.8575   -1.1401 C   0  0  0  0  0  0  0  0  0  0  0  0
    2.9817   -2.3194   -2.0332 C   0  0  0  0  0  0  0  0  0  0  0  0
    3.0470   -2.8655   -3.6713 Cl  0  0  0  0  0  0  0  0  0  0  0  0
   -1.6331   -0.8919   -0.8202 C   0  0  0  0  0  0  0  0  0  0  0  0
   -0.9642   -0.6067    2.7130 C   0  0  0  0  0  0  0  0  0  0  0  0
   -0.3579   -0.5163    3.9688 C   0  0  0  0  0  0  0  0  0  0  0  0
   -3.1432   -0.2988    5.9041 H   0  0  0  0  0  0  0  0  0  0  0  0
   -4.2238   -0.4574    3.7026 H   0  0  0  0  0  0  0  0  0  0  0  0
   -3.9626   -1.3159    1.3869 H   0  0  0  0  0  0  0  0  0  0  0  0
   -1.9910    1.8971    1.5415 H   0  0  0  0  0  0  0  0  0  0  0  0
   -2.7525    3.9642    0.4834 H   0  0  0  0  0  0  0  0  0  0  0  0
   -5.9428    1.8427   -1.4658 H   0  0  0  0  0  0  0  0  0  0  0  0
   -5.2039   -0.2585   -0.4216 H   0  0  0  0  0  0  0  0  0  0  0  0
   -2.4057   -3.3845    1.0827 H   0  0  0  0  0  0  0  0  0  0  0  0
   -0.7506   -3.9832   -1.1648 H   0  0  0  0  0  0  0  0  0  0  0  0
   -0.9310   -1.2619   -3.4359 H   0  0  0  0  0  0  0  0  0  0  0  0
    0.0532   -2.6952   -3.0938 H   0  0  0  0  0  0  0  0  0  0  0  0
    1.4504   -0.6725   -3.5677 H   0  0  0  0  0  0  0  0  0  0  0  0
    1.4784    1.4435   -3.7553 H   0  0  0  0  0  0  0  0  0  0  0  0
    0.5769    2.4826   -2.6858 H   0  0  0  0  0  0  0  0  0  0  0  0
    3.8471    1.2786   -3.4581 H   0  0  0  0  0  0  0  0  0  0  0  0
    5.8877    1.7852   -2.1856 H   0  0  0  0  0  0  0  0  0  0  0  0
    3.5249    3.2043    1.1105 H   0  0  0  0  0  0  0  0  0  0  0  0
    1.3029   -0.2916    0.1267 H   0  0  0  0  0  0  0  0  0  0  0  0
    2.9358   -1.2492    1.6896 H   0  0  0  0  0  0  0  0  0  0  0  0
    4.6538   -3.5744   -1.4837 H   0  0  0  0  0  0  0  0  0  0  0  0
   -1.6512    0.1467   -1.1298 H   0  0  0  0  0  0  0  0  0  0  0  0
   -0.3251   -0.6779    1.8378 H   0  0  0  0  0  0  0  0  0  0  0  0
    0.7258   -0.5250    4.0518 H   0  0  0  0  0  0  0  0  0  0  0  0
  1  2  1  0
  2  3  2  0
  3  4  1  0
  4  5  2  0
  5  6  1  0
  6  7  1  0
  7  8  2  0
  8  9  1  0
  9 10  2  0
 10 11  1  0
 10 12  1  0
 12 13  2  0
  6 14  1  0
 14 15  1  0
 15 16  2  0
 16 17  1  0
 17 18  1  0
 18 19  1  0
 19 20  1  0
 20 21  1  0
 21 22  1  0
 22 23  2  0
 23 24  1  0
 24 25  2  0
 25 26  1  0
 25 27  1  0
 27 28  2  0
 28 29  1  0
 19 30  1  0
 30 31  2  0
 31 32  1  0
 32 33  2  0
 33 34  1  0
 33 35  1  0
 35 36  2  0
 36 37  1  0
 17 38  2  0
  5 39  1  0
 39 40  2  0
 40  2  1  0
 13  7  1  0
 38 14  1  0
 28 22  1  0
 36 30  1  0
  3 41  1  0
  4 42  1  0
  6 43  1  0
  8 44  1  0
  9 45  1  0
 12 46  1  0
 13 47  1  0
 15 48  1  0
 16 49  1  0
 18 50  1  0
 18 51  1  0
 19 52  1  0
 21 53  1  0
 21 54  1  0
 23 55  1  0
 24 56  1  0
 27 57  1  0
 31 58  1  0
 32 59  1  0
 35 60  1  0
 38 61  1  0
 39 62  1  0
 40 63  1  0
M  CHG  1  17   1
M  END
$$$$
