
     RDKit          3D

 48 49  0  0  0  0  0  0  0  0999 V2000
    0.5707    3.7111   -0.5644 C   0  0  0  0  0  0  0  0  0  0  0  0
    1.3996    2.5561   -0.5787 O   0  0  0  0  0  0  0  0  0  0  0  0
    0.8007    1.3435   -0.3537 C   0  0  0  0  0  0  0  0  0  0  0  0
   -0.5085    1.1878    0.1193 C   0  0  0  0  0  0  0  0  0  0  0  0
   -1.0620   -0.0900    0.3064 C   0  0  0  0  0  0  0  0  0  0  0  0
   -2.4832   -0.2524    0.7997 C   0  0  0  0  0  0  0  0  0  0  0  0
   -3.3589   -0.6212   -0.3085 N   0  0  0  0  0  0  0  0  0  0  0  0
   -4.7961   -0.7508    0.0174 C   0  0  0  0  0  0  0  0  0  0  0  0
   -5.4711   -1.2341   -1.2842 C   0  0  0  0  0  0  0  0  0  0  0  0
   -5.4101    0.6133    0.3869 C   0  0  0  0  0  0  0  0  0  0  0  0
   -5.0605   -1.7829    1.1501 C   0  0  0  0  0  0  0  0  0  0  0  0
   -6.4510   -1.9997    1.3796 O   0  0  0  0  0  0  0  0  0  0  0  0
   -0.2934   -1.2195   -0.0049 C   0  0  0  0  0  0  0  0  0  0  0  0
    1.0146   -1.0757   -0.4681 C   0  0  0  0  0  0  0  0  0  0  0  0
    2.0020   -2.6500   -0.8580 Br  0  0  0  0  0  0  0  0  0  0  0  0
    1.5741    0.1989   -0.6204 C   0  0  0  0  0  0  0  0  0  0  0  0
    2.8574    0.2892   -1.1057 O   0  0  0  0  0  0  0  0  0  0  0  0
    3.7486    0.9037   -0.1716 C   0  0  0  0  0  0  0  0  0  0  0  0
    5.1014    0.2485   -0.3207 C   0  0  0  0  0  0  0  0  0  0  0  0
    5.4475   -0.8567    0.4707 C   0  0  0  0  0  0  0  0  0  0  0  0
    6.6902   -1.4752    0.3173 C   0  0  0  0  0  0  0  0  0  0  0  0
    7.5887   -0.9970   -0.6341 C   0  0  0  0  0  0  0  0  0  0  0  0
    9.1201   -1.7591   -0.8230 Cl  0  0  0  0  0  0  0  0  0  0  0  0
    7.2538    0.0908   -1.4371 C   0  0  0  0  0  0  0  0  0  0  0  0
    6.0110    0.7093   -1.2840 C   0  0  0  0  0  0  0  0  0  0  0  0
   -0.2626    3.6145   -1.2686 H   0  0  0  0  0  0  0  0  0  0  0  0
    0.2118    3.9214    0.4483 H   0  0  0  0  0  0  0  0  0  0  0  0
    1.1793    4.5624   -0.8844 H   0  0  0  0  0  0  0  0  0  0  0  0
   -1.1243    2.0515    0.3505 H   0  0  0  0  0  0  0  0  0  0  0  0
   -2.4794   -1.0242    1.5778 H   0  0  0  0  0  0  0  0  0  0  0  0
   -2.8054    0.6812    1.2734 H   0  0  0  0  0  0  0  0  0  0  0  0
   -3.2424    0.0610   -1.0590 H   0  0  0  0  0  0  0  0  0  0  0  0
   -5.1013   -2.2231   -1.5798 H   0  0  0  0  0  0  0  0  0  0  0  0
   -6.5590   -1.3048   -1.1745 H   0  0  0  0  0  0  0  0  0  0  0  0
   -5.2799   -0.5443   -2.1155 H   0  0  0  0  0  0  0  0  0  0  0  0
   -5.0363    0.9808    1.3484 H   0  0  0  0  0  0  0  0  0  0  0  0
   -6.5013    0.5484    0.4675 H   0  0  0  0  0  0  0  0  0  0  0  0
   -5.1853    1.3705   -0.3732 H   0  0  0  0  0  0  0  0  0  0  0  0
   -4.5975   -2.7499    0.9213 H   0  0  0  0  0  0  0  0  0  0  0  0
   -4.6415   -1.4331    2.0989 H   0  0  0  0  0  0  0  0  0  0  0  0
   -6.7705   -2.5921    0.6771 H   0  0  0  0  0  0  0  0  0  0  0  0
   -0.7280   -2.2108    0.1090 H   0  0  0  0  0  0  0  0  0  0  0  0
    3.4072    0.8038    0.8683 H   0  0  0  0  0  0  0  0  0  0  0  0
    3.8396    1.9727   -0.3975 H   0  0  0  0  0  0  0  0  0  0  0  0
    4.7456   -1.2474    1.2043 H   0  0  0  0  0  0  0  0  0  0  0  0
    6.9464   -2.3307    0.9363 H   0  0  0  0  0  0  0  0  0  0  0  0
    7.9496    0.4568   -2.1872 H   0  0  0  0  0  0  0  0  0  0  0  0
    5.7493    1.5477   -1.9261 H   0  0  0  0  0  0  0  0  0  0  0  0
  1  2  1  0
  2  3  1  0
  3  4  2  0
  4  5  1  0
  5  6  1  0
  6  7  1  0
  7  8  1  0
  8  9  1  0
  8 10  1  0
  8 11  1  0
 11 12  1  0
  5 13  2  0
 13 14  1  0
 14 15  1  0
 14 16  2  0
 16 17  1  0
 17 18  1  0
 18 19  1  0
 19 20  2  0
 20 21  1  0
 21 22  2  0
 22 23  1  0
 22 24  1  0
 24 25  2  0
 16  3  1  0
 25 19  1  0
  1 26  1  0
  1 27  1  0
  1 28  1  0
  4 29  1  0
  6 30  1  0
  6 31  1  0
  7 32  1  0
  9 33  1  0
  9 34  1  0
  9 35  1  0
 10 36  1  0
 10 37  1  0
 10 38  1  0
 11 39  1  0
 11 40  1  0
 12 41  1  0
 13 42  1  0
 18 43  1  0
 18 44  1  0
 20 45  1  0
 21 46  1  0
 24 47  1  0
 25 48  1  0
M  END
$$$$
