
     RDKit          3D

 61 64  0  0  0  0  0  0  0  0999 V2000
    9.7673    0.8486   -0.3248 C   0  0  0  0  0  0  0  0  0  0  0  0
    8.3318    0.4181   -0.2638 C   0  0  0  0  0  0  0  0  0  0  0  0
    7.6071    0.5006    0.9295 C   0  0  0  0  0  0  0  0  0  0  0  0
    6.2655    0.1131    0.9731 C   0  0  0  0  0  0  0  0  0  0  0  0
    5.6233   -0.3590   -0.1791 C   0  0  0  0  0  0  0  0  0  0  0  0
    4.1710   -0.7628   -0.1406 C   0  0  0  0  0  0  0  0  0  0  0  0
    3.2946    0.2339   -0.7357 N   0  0  0  0  0  0  0  0  0  0  0  0
    3.1345    1.5508   -0.1635 C   0  0  0  0  0  0  0  0  0  0  0  0
    2.0850    2.1957   -1.0476 C   0  0  0  0  0  0  0  0  0  0  0  0
    0.6771    2.0559   -0.4756 C   0  0  0  0  0  0  0  0  0  0  0  0
   -0.0054    3.0622   -0.3035 O   0  0  0  0  0  0  0  0  0  0  0  0
    0.2895    0.7558   -0.2072 N   0  0  0  0  0  0  0  0  0  0  0  0
   -0.9333    0.3148    0.3401 C   0  0  0  0  0  0  0  0  0  0  0  0
   -1.9696    1.1665    0.7308 C   0  0  0  0  0  0  0  0  0  0  0  0
   -3.1472    0.6469    1.2787 C   0  0  0  0  0  0  0  0  0  0  0  0
   -3.2906   -0.7334    1.4285 C   0  0  0  0  0  0  0  0  0  0  0  0
   -4.7946   -1.3765    2.1177 S   0  0  0  0  0  6  0  0  0  0  0  0
   -4.7931   -2.8152    1.9553 O   0  0  0  0  0  0  0  0  0  0  0  0
   -4.9538   -0.7659    3.4199 O   0  0  0  0  0  0  0  0  0  0  0  0
   -5.9968   -0.7538    1.0783 N   0  0  0  0  0  0  0  0  0  0  0  0
   -5.9232   -1.1963   -0.3371 C   0  0  0  0  0  0  0  0  0  0  0  0
   -6.9868   -0.4653   -1.1482 C   0  0  0  0  0  0  0  0  0  0  0  0
   -8.3981   -0.7582   -0.6440 C   0  0  0  0  0  0  0  0  0  0  0  0
   -8.4032   -1.3873    0.7452 C   0  0  0  0  0  0  0  0  0  0  0  0
   -7.3691   -0.7497    1.6648 C   0  0  0  0  0  0  0  0  0  0  0  0
   -2.2673   -1.5984    1.0441 C   0  0  0  0  0  0  0  0  0  0  0  0
   -1.0926   -1.0700    0.5015 C   0  0  0  0  0  0  0  0  0  0  0  0
    2.2375    1.5064   -2.4021 C   0  0  0  0  0  0  0  0  0  0  0  0
    2.9133    0.1990   -2.0685 C   0  0  0  0  0  0  0  0  0  0  0  0
    3.0800   -0.7232   -2.8480 O   0  0  0  0  0  0  0  0  0  0  0  0
    6.3482   -0.4296   -1.3756 C   0  0  0  0  0  0  0  0  0  0  0  0
    7.6894   -0.0427   -1.4176 C   0  0  0  0  0  0  0  0  0  0  0  0
    9.8509    1.8023   -0.8549 H   0  0  0  0  0  0  0  0  0  0  0  0
   10.3700    0.0956   -0.8421 H   0  0  0  0  0  0  0  0  0  0  0  0
   10.1887    0.9744    0.6775 H   0  0  0  0  0  0  0  0  0  0  0  0
    8.0833    0.8638    1.8364 H   0  0  0  0  0  0  0  0  0  0  0  0
    5.7268    0.1840    1.9154 H   0  0  0  0  0  0  0  0  0  0  0  0
    3.8377   -0.9229    0.8913 H   0  0  0  0  0  0  0  0  0  0  0  0
    4.0469   -1.7168   -0.6667 H   0  0  0  0  0  0  0  0  0  0  0  0
    2.8433    1.4707    0.8879 H   0  0  0  0  0  0  0  0  0  0  0  0
    4.0879    2.0839   -0.2443 H   0  0  0  0  0  0  0  0  0  0  0  0
    2.2746    3.2721   -1.1394 H   0  0  0  0  0  0  0  0  0  0  0  0
    0.9635    0.0240   -0.4043 H   0  0  0  0  0  0  0  0  0  0  0  0
   -1.8940    2.2446    0.6298 H   0  0  0  0  0  0  0  0  0  0  0  0
   -3.9446    1.3207    1.5836 H   0  0  0  0  0  0  0  0  0  0  0  0
   -6.0572   -2.2808   -0.4123 H   0  0  0  0  0  0  0  0  0  0  0  0
   -4.9437   -0.9465   -0.7557 H   0  0  0  0  0  0  0  0  0  0  0  0
   -6.8049    0.6157   -1.0896 H   0  0  0  0  0  0  0  0  0  0  0  0
   -6.9087   -0.7377   -2.2068 H   0  0  0  0  0  0  0  0  0  0  0  0
   -8.9737    0.1748   -0.6331 H   0  0  0  0  0  0  0  0  0  0  0  0
   -8.9131   -1.4285   -1.3419 H   0  0  0  0  0  0  0  0  0  0  0  0
   -8.1965   -2.4624    0.6567 H   0  0  0  0  0  0  0  0  0  0  0  0
   -9.4029   -1.2999    1.1870 H   0  0  0  0  0  0  0  0  0  0  0  0
   -7.3929   -1.2768    2.6247 H   0  0  0  0  0  0  0  0  0  0  0  0
   -7.6377    0.2942    1.8647 H   0  0  0  0  0  0  0  0  0  0  0  0
   -2.3729   -2.6751    1.1621 H   0  0  0  0  0  0  0  0  0  0  0  0
   -0.3062   -1.7590    0.2025 H   0  0  0  0  0  0  0  0  0  0  0  0
    2.9028    2.0748   -3.0596 H   0  0  0  0  0  0  0  0  0  0  0  0
    1.2821    1.3242   -2.9018 H   0  0  0  0  0  0  0  0  0  0  0  0
    5.8687   -0.7874   -2.2851 H   0  0  0  0  0  0  0  0  0  0  0  0
    8.2313   -0.1066   -2.3586 H   0  0  0  0  0  0  0  0  0  0  0  0
  1  2  1  0
  2  3  2  0
  3  4  1  0
  4  5  2  0
  5  6  1  0
  6  7  1  0
  7  8  1  0
  8  9  1  0
  9 10  1  0
 10 11  2  0
 10 12  1  0
 12 13  1  0
 13 14  2  0
 14 15  1  0
 15 16  2  0
 16 17  1  0
 17 18  2  0
 17 19  2  0
 17 20  1  0
 20 21  1  0
 21 22  1  0
 22 23  1  0
 23 24  1  0
 24 25  1  0
 16 26  1  0
 26 27  2  0
  9 28  1  0
 28 29  1  0
 29 30  2  0
  5 31  1  0
 31 32  2  0
 32  2  1  0
 29  7  1  0
 27 13  1  0
 25 20  1  0
  1 33  1  0
  1 34  1  0
  1 35  1  0
  3 36  1  0
  4 37  1  0
  6 38  1  0
  6 39  1  0
  8 40  1  0
  8 41  1  0
  9 42  1  0
 12 43  1  0
 14 44  1  0
 15 45  1  0
 21 46  1  0
 21 47  1  0
 22 48  1  0
 22 49  1  0
 23 50  1  0
 23 51  1  0
 24 52  1  0
 24 53  1  0
 25 54  1  0
 25 55  1  0
 26 56  1  0
 27 57  1  0
 28 58  1  0
 28 59  1  0
 31 60  1  0
 32 61  1  0
M  END
$$$$
