
     RDKit          3D

 39 41  0  0  0  0  0  0  0  0999 V2000
   -2.0939   -0.5746   -2.3480 F   0  0  0  0  0  0  0  0  0  0  0  0
   -3.1237   -0.1481   -1.6022 C   0  0  0  0  0  0  0  0  0  0  0  0
   -4.2282    0.4057   -2.2444 C   0  0  0  0  0  0  0  0  0  0  0  0
   -5.3101    0.8585   -1.4916 C   0  0  0  0  0  0  0  0  0  0  0  0
   -5.2797    0.7541   -0.1010 C   0  0  0  0  0  0  0  0  0  0  0  0
   -4.1685    0.1967    0.5369 C   0  0  0  0  0  0  0  0  0  0  0  0
   -3.0715   -0.2591   -0.2102 C   0  0  0  0  0  0  0  0  0  0  0  0
   -1.8725   -0.8789    0.4680 C   0  0  0  0  0  0  0  0  0  0  0  0
   -1.2613   -0.0014    1.4821 N   0  0  0  0  0  0  0  0  0  0  0  0
   -0.5870    1.1739    0.8787 C   0  0  0  0  0  0  0  0  0  0  0  0
    0.7188    0.8756    0.1012 C   0  0  0  0  0  0  0  0  0  0  0  0
    1.6631    0.0911    0.9340 N   0  0  0  0  0  0  0  0  0  0  0  0
    2.9516   -0.0279    0.3911 C   0  0  0  0  0  0  0  0  0  0  0  0
    3.5754   -1.2608    0.1423 C   0  0  0  0  0  0  0  0  0  0  0  0
    4.8692   -1.3347   -0.3910 C   0  0  0  0  0  0  0  0  0  0  0  0
    5.5699   -0.1687   -0.6745 C   0  0  0  0  0  0  0  0  0  0  0  0
    7.1584   -0.2577   -1.3271 Cl  0  0  0  0  0  0  0  0  0  0  0  0
    4.9901    1.0679   -0.4242 C   0  0  0  0  0  0  0  0  0  0  0  0
    3.6967    1.1312    0.1068 C   0  0  0  0  0  0  0  0  0  0  0  0
    1.0488   -1.1044    1.5453 C   0  0  0  0  0  0  0  0  0  0  0  0
   -0.2581   -0.7357    2.2883 C   0  0  0  0  0  0  0  0  0  0  0  0
   -4.2373    0.4802   -3.3271 H   0  0  0  0  0  0  0  0  0  0  0  0
   -6.1750    1.2926   -1.9863 H   0  0  0  0  0  0  0  0  0  0  0  0
   -6.1210    1.1084    0.4899 H   0  0  0  0  0  0  0  0  0  0  0  0
   -4.1516    0.1250    1.6230 H   0  0  0  0  0  0  0  0  0  0  0  0
   -2.2387   -1.7938    0.9536 H   0  0  0  0  0  0  0  0  0  0  0  0
   -1.1398   -1.2101   -0.2763 H   0  0  0  0  0  0  0  0  0  0  0  0
   -0.3456    1.8666    1.6966 H   0  0  0  0  0  0  0  0  0  0  0  0
   -1.2766    1.7277    0.2313 H   0  0  0  0  0  0  0  0  0  0  0  0
    1.1462    1.8403   -0.1933 H   0  0  0  0  0  0  0  0  0  0  0  0
    0.4937    0.3245   -0.8204 H   0  0  0  0  0  0  0  0  0  0  0  0
    3.0653   -2.1981    0.3409 H   0  0  0  0  0  0  0  0  0  0  0  0
    5.3174   -2.3063   -0.5795 H   0  0  0  0  0  0  0  0  0  0  0  0
    5.5340    1.9860   -0.6266 H   0  0  0  0  0  0  0  0  0  0  0  0
    3.2817    2.1112    0.3298 H   0  0  0  0  0  0  0  0  0  0  0  0
    0.8333   -1.8594    0.7794 H   0  0  0  0  0  0  0  0  0  0  0  0
    1.7355   -1.5467    2.2777 H   0  0  0  0  0  0  0  0  0  0  0  0
   -0.7079   -1.6432    2.7096 H   0  0  0  0  0  0  0  0  0  0  0  0
   -0.0009   -0.1081    3.1523 H   0  0  0  0  0  0  0  0  0  0  0  0
  1  2  1  0
  2  3  2  0
  3  4  1  0
  4  5  2  0
  5  6  1  0
  6  7  2  0
  7  8  1  0
  8  9  1  0
  9 10  1  0
 10 11  1  0
 11 12  1  0
 12 13  1  0
 13 14  2  0
 14 15  1  0
 15 16  2  0
 16 17  1  0
 16 18  1  0
 18 19  2  0
 12 20  1  0
 20 21  1  0
  7  2  1  0
 21  9  1  0
 19 13  1  0
  3 22  1  0
  4 23  1  0
  5 24  1  0
  6 25  1  0
  8 26  1  0
  8 27  1  0
 10 28  1  0
 10 29  1  0
 11 30  1  0
 11 31  1  0
 14 32  1  0
 15 33  1  0
 18 34  1  0
 19 35  1  0
 20 36  1  0
 20 37  1  0
 21 38  1  0
 21 39  1  0
M  END
$$$$
