
     RDKit          3D

 44 46  0  0  0  0  0  0  0  0999 V2000
    5.5314    0.0657   -3.1684 C   0  0  0  0  0  0  0  0  0  0  0  0
    4.5761   -0.9370   -2.8454 O   0  0  0  0  0  0  0  0  0  0  0  0
    3.8382   -0.7431   -1.7113 C   0  0  0  0  0  0  0  0  0  0  0  0
    3.8302    0.4046   -0.9229 C   0  0  0  0  0  0  0  0  0  0  0  0
    3.0132    0.4705    0.2134 C   0  0  0  0  0  0  0  0  0  0  0  0
    2.1964   -0.6063    0.5768 C   0  0  0  0  0  0  0  0  0  0  0  0
    1.4014   -0.4489    1.7278 N   0  0  0  0  0  0  0  0  0  0  0  0
    0.4392   -1.3158    2.2199 C   0  0  0  0  0  0  0  0  0  0  0  0
    0.1123   -2.3953    1.7368 O   0  0  0  0  0  0  0  0  0  0  0  0
   -0.2640   -0.7674    3.4698 C   0  0  0  0  0  0  0  0  0  0  0  0
   -1.4654   -0.0637    3.1856 O   0  0  0  0  0  0  0  0  0  0  0  0
   -1.2873    1.0736    2.4659 C   0  0  0  0  0  0  0  0  0  0  0  0
   -0.2551    1.8569    2.7975 N   0  0  0  0  0  0  0  0  0  0  0  0
   -0.4438    3.2023    1.8255 S   0  0  0  0  0  0  0  0  0  0  0  0
   -1.7918    2.7655    0.9595 N   0  0  0  0  0  0  0  0  0  0  0  0
   -2.1582    1.5496    1.3920 C   0  0  0  0  0  0  0  0  0  0  0  0
   -3.2379    0.8599    0.8748 N   0  0  0  0  0  0  0  0  0  0  0  0
   -3.1760   -0.6000    0.6951 C   0  0  0  0  0  0  0  0  0  0  0  0
   -2.5224   -0.9295   -0.6486 C   0  0  0  0  0  0  0  0  0  0  0  0
   -3.2750   -0.2581   -1.7986 C   0  0  0  0  0  0  0  0  0  0  0  0
   -3.4441    1.2424   -1.5543 C   0  0  0  0  0  0  0  0  0  0  0  0
   -4.0443    1.5146   -0.1713 C   0  0  0  0  0  0  0  0  0  0  0  0
    2.2100   -1.7533   -0.2137 C   0  0  0  0  0  0  0  0  0  0  0  0
    3.0212   -1.8159   -1.3527 C   0  0  0  0  0  0  0  0  0  0  0  0
    6.0757   -0.2666   -4.0581 H   0  0  0  0  0  0  0  0  0  0  0  0
    6.2605    0.1944   -2.3606 H   0  0  0  0  0  0  0  0  0  0  0  0
    5.0432    1.0145   -3.4120 H   0  0  0  0  0  0  0  0  0  0  0  0
    4.4360    1.2707   -1.1687 H   0  0  0  0  0  0  0  0  0  0  0  0
    3.0239    1.3829    0.8048 H   0  0  0  0  0  0  0  0  0  0  0  0
    1.4551    0.4575    2.1867 H   0  0  0  0  0  0  0  0  0  0  0  0
    0.4240   -0.1754    4.0865 H   0  0  0  0  0  0  0  0  0  0  0  0
   -0.5330   -1.6333    4.0872 H   0  0  0  0  0  0  0  0  0  0  0  0
   -2.6531   -1.1171    1.5000 H   0  0  0  0  0  0  0  0  0  0  0  0
   -4.1979   -0.9985    0.7079 H   0  0  0  0  0  0  0  0  0  0  0  0
   -2.5117   -2.0147   -0.7998 H   0  0  0  0  0  0  0  0  0  0  0  0
   -1.4783   -0.5913   -0.6488 H   0  0  0  0  0  0  0  0  0  0  0  0
   -2.7450   -0.4251   -2.7408 H   0  0  0  0  0  0  0  0  0  0  0  0
   -4.2638   -0.7218   -1.9002 H   0  0  0  0  0  0  0  0  0  0  0  0
   -2.4658    1.7295   -1.6385 H   0  0  0  0  0  0  0  0  0  0  0  0
   -4.0834    1.6739   -2.3309 H   0  0  0  0  0  0  0  0  0  0  0  0
   -4.1440    2.5931    0.0014 H   0  0  0  0  0  0  0  0  0  0  0  0
   -5.0657    1.1118   -0.1292 H   0  0  0  0  0  0  0  0  0  0  0  0
    1.6028   -2.6206    0.0230 H   0  0  0  0  0  0  0  0  0  0  0  0
    3.0162   -2.7164   -1.9632 H   0  0  0  0  0  0  0  0  0  0  0  0
  1  2  1  0
  2  3  1  0
  3  4  2  0
  4  5  1  0
  5  6  2  0
  6  7  1  0
  7  8  1  0
  8  9  2  0
  8 10  1  0
 10 11  1  0
 11 12  1  0
 12 13  2  0
 13 14  1  0
 14 15  1  0
 15 16  2  0
 16 17  1  0
 17 18  1  0
 18 19  1  0
 19 20  1  0
 20 21  1  0
 21 22  1  0
  6 23  1  0
 23 24  2  0
 24  3  1  0
 16 12  1  0
 22 17  1  0
  1 25  1  0
  1 26  1  0
  1 27  1  0
  4 28  1  0
  5 29  1  0
  7 30  1  0
 10 31  1  0
 10 32  1  0
 18 33  1  0
 18 34  1  0
 19 35  1  0
 19 36  1  0
 20 37  1  0
 20 38  1  0
 21 39  1  0
 21 40  1  0
 22 41  1  0
 22 42  1  0
 23 43  1  0
 24 44  1  0
M  END
$$$$
