
     RDKit          3D

 57 60  0  0  0  0  0  0  0  0999 V2000
   -6.9525   -1.1449   -3.6723 C   0  0  0  0  0  0  0  0  0  0  0  0
   -5.7390   -0.9113   -2.8219 C   0  0  0  0  0  0  0  0  0  0  0  0
   -4.9585    0.2362   -3.0027 C   0  0  0  0  0  0  0  0  0  0  0  0
   -3.8459    0.4736   -2.1913 C   0  0  0  0  0  0  0  0  0  0  0  0
   -3.5091   -0.4321   -1.1797 C   0  0  0  0  0  0  0  0  0  0  0  0
   -2.3738   -0.1873   -0.3521 N   0  0  0  0  0  0  0  0  0  0  0  0
   -2.3335   -0.3120    1.0368 C   0  0  0  0  0  0  0  0  0  0  0  0
   -3.5092   -0.6283    1.8971 C   0  0  0  0  0  0  0  0  0  0  0  0
   -1.0688    0.0452    1.4620 C   0  0  0  0  0  0  0  0  0  0  0  0
   -0.2972    0.3731    0.3238 C   0  0  0  0  0  0  0  0  0  0  0  0
    1.0973    0.7682    0.3268 C   0  0  0  0  0  0  0  0  0  0  0  0
    1.1813    1.9983    0.0457 O   0  0  0  0  0  1  0  0  0  0  0  0
    2.0725   -0.1239    0.6697 C   0  0  0  0  0  0  0  0  0  0  0  0
    3.5625    0.2990    0.7839 C   0  0  0  0  0  0  0  0  0  0  0  0
    4.7840   -0.8732    0.7893 S   0  0  0  0  0  0  0  0  0  0  0  0
    3.7471    1.6739    0.8390 N   0  0  0  0  0  0  0  0  0  0  0  0
    4.8559    2.5216    1.0405 C   0  0  0  0  0  0  0  0  0  0  0  0
    4.6371    3.8837    0.7681 C   0  0  0  0  0  0  0  0  0  0  0  0
    5.6520    4.8283    0.9368 C   0  0  0  0  0  0  0  0  0  0  0  0
    6.8958    4.4168    1.3926 C   0  0  0  0  0  0  0  0  0  0  0  0
    7.8619    5.3328    1.5540 F   0  0  0  0  0  0  0  0  0  0  0  0
    7.1262    3.0759    1.6851 C   0  0  0  0  0  0  0  0  0  0  0  0
    8.6631    2.5643    2.2761 Cl  0  0  0  0  0  0  0  0  0  0  0  0
    6.1083    2.1295    1.5144 C   0  0  0  0  0  0  0  0  0  0  0  0
    1.6773   -1.5582    0.9528 N   0  0  0  0  0  4  0  0  0  0  0  0
    1.8692   -2.0634    2.1903 C   0  0  0  0  0  0  0  0  0  0  0  0
    1.5168   -3.3773    2.4804 C   0  0  0  0  0  0  0  0  0  0  0  0
    0.9636   -4.1696    1.4820 C   0  0  0  0  0  0  0  0  0  0  0  0
    0.7747   -3.6344    0.2140 C   0  0  0  0  0  0  0  0  0  0  0  0
    1.1439   -2.3163   -0.0303 C   0  0  0  0  0  0  0  0  0  0  0  0
   -1.1085    0.2067   -0.7920 C   0  0  0  0  0  0  0  0  0  0  0  0
   -0.7354    0.3776   -2.2299 C   0  0  0  0  0  0  0  0  0  0  0  0
   -4.2967   -1.5714   -0.9814 C   0  0  0  0  0  0  0  0  0  0  0  0
   -5.4069   -1.8058   -1.7978 C   0  0  0  0  0  0  0  0  0  0  0  0
   -7.8277   -0.6758   -3.2122 H   0  0  0  0  0  0  0  0  0  0  0  0
   -6.8127   -0.7276   -4.6751 H   0  0  0  0  0  0  0  0  0  0  0  0
   -7.1461   -2.2162   -3.7909 H   0  0  0  0  0  0  0  0  0  0  0  0
   -5.2165    0.9613   -3.7717 H   0  0  0  0  0  0  0  0  0  0  0  0
   -3.2832    1.3933   -2.3317 H   0  0  0  0  0  0  0  0  0  0  0  0
   -4.4226   -0.1493    1.5319 H   0  0  0  0  0  0  0  0  0  0  0  0
   -3.6646   -1.7093    1.9587 H   0  0  0  0  0  0  0  0  0  0  0  0
   -3.3441   -0.2643    2.9174 H   0  0  0  0  0  0  0  0  0  0  0  0
   -0.7502    0.1087    2.4940 H   0  0  0  0  0  0  0  0  0  0  0  0
    2.8720    2.1829    0.6047 H   0  0  0  0  0  0  0  0  0  0  0  0
    3.6650    4.2219    0.4072 H   0  0  0  0  0  0  0  0  0  0  0  0
    5.4747    5.8758    0.7152 H   0  0  0  0  0  0  0  0  0  0  0  0
    6.3249    1.1068    1.7893 H   0  0  0  0  0  0  0  0  0  0  0  0
    2.2860   -1.3980    2.9398 H   0  0  0  0  0  0  0  0  0  0  0  0
    1.6694   -3.7752    3.4801 H   0  0  0  0  0  0  0  0  0  0  0  0
    0.6792   -5.1989    1.6912 H   0  0  0  0  0  0  0  0  0  0  0  0
    0.3427   -4.2343   -0.5825 H   0  0  0  0  0  0  0  0  0  0  0  0
    1.0298   -1.8551   -1.0061 H   0  0  0  0  0  0  0  0  0  0  0  0
    0.3392    0.2283   -2.3792 H   0  0  0  0  0  0  0  0  0  0  0  0
   -1.2376   -0.3543   -2.8697 H   0  0  0  0  0  0  0  0  0  0  0  0
   -0.9788    1.3870   -2.5745 H   0  0  0  0  0  0  0  0  0  0  0  0
   -4.0443   -2.3070   -0.2241 H   0  0  0  0  0  0  0  0  0  0  0  0
   -6.0095   -2.6962   -1.6324 H   0  0  0  0  0  0  0  0  0  0  0  0
  1  2  1  0
  2  3  2  0
  3  4  1  0
  4  5  2  0
  5  6  1  0
  6  7  1  0
  7  8  1  0
  7  9  2  0
  9 10  1  0
 10 11  1  0
 11 12  1  0
 11 13  2  3
 13 14  1  0
 14 15  2  0
 14 16  1  0
 16 17  1  0
 17 18  2  0
 18 19  1  0
 19 20  2  0
 20 21  1  0
 20 22  1  0
 22 23  1  0
 22 24  2  0
 13 25  1  0
 25 26  2  0
 26 27  1  0
 27 28  2  0
 28 29  1  0
 29 30  2  0
 10 31  2  0
 31 32  1  0
  5 33  1  0
 33 34  2  0
 34  2  1  0
 31  6  1  0
 24 17  1  0
 30 25  1  0
  1 35  1  0
  1 36  1  0
  1 37  1  0
  3 38  1  0
  4 39  1  0
  8 40  1  0
  8 41  1  0
  8 42  1  0
  9 43  1  0
 16 44  1  0
 18 45  1  0
 19 46  1  0
 24 47  1  0
 26 48  1  0
 27 49  1  0
 28 50  1  0
 29 51  1  0
 30 52  1  0
 32 53  1  0
 32 54  1  0
 32 55  1  0
 33 56  1  0
 34 57  1  0
M  CHG  2  12  -1  25   1
M  END
$$$$
