
     RDKit          3D

 49 52  0  0  0  0  0  0  0  0999 V2000
   -0.3069    0.9788    4.7049 C   0  0  0  0  0  0  0  0  0  0  0  0
   -0.2895    0.4213    3.2908 C   0  0  0  0  0  0  0  0  0  0  0  0
   -0.3800    1.5362    2.2502 C   0  0  0  0  0  0  0  0  0  0  0  0
   -0.3625    0.9741    0.8553 C   0  0  0  0  0  0  0  0  0  0  0  0
    0.8382    0.7838    0.2759 N   0  0  0  0  0  0  0  0  0  0  0  0
    0.8802    0.2326   -0.9548 C   0  0  0  0  0  0  0  0  0  0  0  0
    2.1375   -0.0004   -1.5552 N   0  0  0  0  0  0  0  0  0  0  0  0
    2.4762   -1.4487   -1.5189 C   0  0  0  0  0  0  0  0  0  0  0  0
    4.0053   -1.6715   -1.5536 C   0  0  0  0  0  0  0  0  0  0  0  0
    4.7044   -1.0902   -0.3860 N   0  0  0  0  0  0  0  0  0  0  0  0
    6.1242   -0.9109   -0.6762 C   0  0  0  0  0  0  0  0  0  0  0  0
    4.0652    0.1745    0.0485 C   0  0  0  0  0  0  0  0  0  0  0  0
    3.2195    0.8729   -1.0392 C   0  0  0  0  0  0  0  0  0  0  0  0
   -0.2967   -0.1001   -1.6035 C   0  0  0  0  0  0  0  0  0  0  0  0
   -0.5750   -0.8100   -3.1910 S   0  0  0  0  0  0  0  0  0  0  0  0
   -2.3366   -0.7611   -2.9646 C   0  0  0  0  0  0  0  0  0  0  0  0
   -3.3567   -1.2197   -4.2090 S   0  0  0  0  0  0  0  0  0  0  0  0
   -2.6326   -0.2349   -1.7011 N   0  0  0  0  0  0  0  0  0  0  0  0
   -3.9298   -0.0869   -1.1276 C   0  0  0  0  0  0  0  0  0  0  0  0
   -4.2991    1.0885   -0.4540 C   0  0  0  0  0  0  0  0  0  0  0  0
   -5.5749    1.2344    0.0996 C   0  0  0  0  0  0  0  0  0  0  0  0
   -6.5040    0.2046   -0.0087 C   0  0  0  0  0  0  0  0  0  0  0  0
   -6.1564   -0.9705   -0.6677 C   0  0  0  0  0  0  0  0  0  0  0  0
   -4.8800   -1.1144   -1.2218 C   0  0  0  0  0  0  0  0  0  0  0  0
   -1.4842    0.1528   -0.9458 C   0  0  0  0  0  0  0  0  0  0  0  0
   -1.5399    0.6661    0.2935 N   0  0  0  0  0  0  0  0  0  0  0  0
   -0.2404    0.1652    5.4340 H   0  0  0  0  0  0  0  0  0  0  0  0
   -1.2317    1.5322    4.8969 H   0  0  0  0  0  0  0  0  0  0  0  0
    0.5389    1.6538    4.8709 H   0  0  0  0  0  0  0  0  0  0  0  0
   -1.1266   -0.2770    3.1688 H   0  0  0  0  0  0  0  0  0  0  0  0
    0.6301   -0.1584    3.1436 H   0  0  0  0  0  0  0  0  0  0  0  0
    0.4584    2.2333    2.3669 H   0  0  0  0  0  0  0  0  0  0  0  0
   -1.3002    2.1153    2.3936 H   0  0  0  0  0  0  0  0  0  0  0  0
    2.0729   -1.9305   -0.6169 H   0  0  0  0  0  0  0  0  0  0  0  0
    2.0386   -1.9494   -2.3888 H   0  0  0  0  0  0  0  0  0  0  0  0
    4.2086   -2.7483   -1.5836 H   0  0  0  0  0  0  0  0  0  0  0  0
    4.3911   -1.2427   -2.4889 H   0  0  0  0  0  0  0  0  0  0  0  0
    6.5791   -1.8617   -0.9756 H   0  0  0  0  0  0  0  0  0  0  0  0
    6.2944   -0.1791   -1.4741 H   0  0  0  0  0  0  0  0  0  0  0  0
    6.6591   -0.5756    0.2192 H   0  0  0  0  0  0  0  0  0  0  0  0
    4.8094    0.8793    0.4396 H   0  0  0  0  0  0  0  0  0  0  0  0
    3.4157   -0.0713    0.8978 H   0  0  0  0  0  0  0  0  0  0  0  0
    2.8421    1.8367   -0.6746 H   0  0  0  0  0  0  0  0  0  0  0  0
    3.8715    1.1248   -1.8860 H   0  0  0  0  0  0  0  0  0  0  0  0
   -3.6082    1.9241   -0.3729 H   0  0  0  0  0  0  0  0  0  0  0  0
   -5.8406    2.1562    0.6106 H   0  0  0  0  0  0  0  0  0  0  0  0
   -7.4959    0.3166    0.4210 H   0  0  0  0  0  0  0  0  0  0  0  0
   -6.8754   -1.7820   -0.7481 H   0  0  0  0  0  0  0  0  0  0  0  0
   -4.6368   -2.0628   -1.6931 H   0  0  0  0  0  0  0  0  0  0  0  0
  1  2  1  0
  2  3  1  0
  3  4  1  0
  4  5  2  0
  5  6  1  0
  6  7  1  0
  7  8  1  0
  8  9  1  0
  9 10  1  0
 10 11  1  0
 10 12  1  0
 12 13  1  0
  6 14  2  0
 14 15  1  0
 15 16  1  0
 16 17  2  0
 16 18  1  0
 18 19  1  0
 19 20  2  0
 20 21  1  0
 21 22  2  0
 22 23  1  0
 23 24  2  0
 18 25  1  0
 25 26  2  0
 26  4  1  0
 13  7  1  0
 25 14  1  0
 24 19  1  0
  1 27  1  0
  1 28  1  0
  1 29  1  0
  2 30  1  0
  2 31  1  0
  3 32  1  0
  3 33  1  0
  8 34  1  0
  8 35  1  0
  9 36  1  0
  9 37  1  0
 11 38  1  0
 11 39  1  0
 11 40  1  0
 12 41  1  0
 12 42  1  0
 13 43  1  0
 13 44  1  0
 20 45  1  0
 21 46  1  0
 22 47  1  0
 23 48  1  0
 24 49  1  0
M  END
$$$$
