
     RDKit          3D

 47 49  0  0  0  0  0  0  0  0999 V2000
    8.1745   -0.0207    0.0814 C   0  0  0  0  0  0  0  0  0  0  0  0
    7.1369    0.7780   -0.6923 C   0  0  0  0  0  0  0  0  0  0  0  0
    5.7441    0.7384   -0.0616 C   0  0  0  0  0  0  0  0  0  0  0  0
    5.1070   -0.6546   -0.0889 C   0  0  0  0  0  0  0  0  0  0  0  0
    3.7409   -0.6297    0.4376 N   0  0  0  0  0  0  0  0  0  0  0  0
    2.7016   -0.3380   -0.4298 C   0  0  0  0  0  0  0  0  0  0  0  0
    2.8076   -0.1030   -1.6261 O   0  0  0  0  0  0  0  0  0  0  0  0
    1.4038   -0.3334    0.2991 C   0  0  0  0  0  0  0  0  0  0  0  0
    0.2445   -0.0901   -0.3313 C   0  0  0  0  0  0  0  0  0  0  0  0
   -1.0804   -0.0634    0.2755 C   0  0  0  0  0  0  0  0  0  0  0  0
   -2.2841    0.1979   -0.2939 C   0  0  0  0  0  0  0  0  0  0  0  0
   -2.3677    0.5260   -1.7189 C   0  0  0  0  0  0  0  0  0  0  0  0
   -3.5272    0.6889   -2.3656 C   0  0  0  0  0  0  0  0  0  0  0  0
   -4.7863    0.5253   -1.6460 C   0  0  0  0  0  0  0  0  0  0  0  0
   -5.9938    0.6311   -2.3549 C   0  0  0  0  0  0  0  0  0  0  0  0
   -7.2097    0.4753   -1.6987 C   0  0  0  0  0  0  0  0  0  0  0  0
   -7.2205    0.2097   -0.3360 C   0  0  0  0  0  0  0  0  0  0  0  0
   -6.0166    0.1067    0.3734 C   0  0  0  0  0  0  0  0  0  0  0  0
   -4.7670    0.2708   -0.2548 C   0  0  0  0  0  0  0  0  0  0  0  0
   -3.5106    0.1762    0.4284 N   0  0  0  0  0  0  0  0  0  0  0  0
   -3.5612    0.1221    1.9031 C   0  0  0  0  0  0  0  0  0  0  0  0
   -3.6254   -1.3150    2.4051 C   0  0  0  0  0  0  0  0  0  0  0  0
    1.6638   -0.6648    1.9637 S   0  0  0  0  0  0  0  0  0  0  0  0
    3.4057   -0.8131    1.7631 C   0  0  0  0  0  0  0  0  0  0  0  0
    4.4181   -1.1311    3.0507 S   0  0  0  0  0  0  0  0  0  0  0  0
    9.1657    0.1249   -0.3600 H   0  0  0  0  0  0  0  0  0  0  0  0
    7.9563   -1.0922    0.0575 H   0  0  0  0  0  0  0  0  0  0  0  0
    8.2188    0.3009    1.1267 H   0  0  0  0  0  0  0  0  0  0  0  0
    7.4668    1.8227   -0.7400 H   0  0  0  0  0  0  0  0  0  0  0  0
    7.0903    0.4132   -1.7250 H   0  0  0  0  0  0  0  0  0  0  0  0
    5.7955    1.1101    0.9687 H   0  0  0  0  0  0  0  0  0  0  0  0
    5.0998    1.4400   -0.6064 H   0  0  0  0  0  0  0  0  0  0  0  0
    5.7036   -1.3666    0.4880 H   0  0  0  0  0  0  0  0  0  0  0  0
    5.0781   -1.0234   -1.1213 H   0  0  0  0  0  0  0  0  0  0  0  0
    0.3027    0.0969   -1.4004 H   0  0  0  0  0  0  0  0  0  0  0  0
   -1.0702   -0.3164    1.3308 H   0  0  0  0  0  0  0  0  0  0  0  0
   -1.4620    0.6556   -2.2978 H   0  0  0  0  0  0  0  0  0  0  0  0
   -3.5487    0.9339   -3.4209 H   0  0  0  0  0  0  0  0  0  0  0  0
   -5.9909    0.8324   -3.4231 H   0  0  0  0  0  0  0  0  0  0  0  0
   -8.1427    0.5549   -2.2495 H   0  0  0  0  0  0  0  0  0  0  0  0
   -8.1662    0.0763    0.1835 H   0  0  0  0  0  0  0  0  0  0  0  0
   -6.0996   -0.1223    1.4300 H   0  0  0  0  0  0  0  0  0  0  0  0
   -2.6817    0.6153    2.3351 H   0  0  0  0  0  0  0  0  0  0  0  0
   -4.3925    0.7103    2.3088 H   0  0  0  0  0  0  0  0  0  0  0  0
   -3.6526   -1.3301    3.4992 H   0  0  0  0  0  0  0  0  0  0  0  0
   -4.5157   -1.8342    2.0377 H   0  0  0  0  0  0  0  0  0  0  0  0
   -2.7532   -1.8916    2.0816 H   0  0  0  0  0  0  0  0  0  0  0  0
  1  2  1  0
  2  3  1  0
  3  4  1  0
  4  5  1  0
  5  6  1  0
  6  7  2  0
  6  8  1  0
  8  9  2  3
  9 10  1  0
 10 11  2  3
 11 12  1  0
 12 13  2  0
 13 14  1  0
 14 15  2  0
 15 16  1  0
 16 17  2  0
 17 18  1  0
 18 19  2  0
 19 20  1  0
 20 21  1  0
 21 22  1  0
  8 23  1  0
 23 24  1  0
 24 25  2  0
 24  5  1  0
 20 11  1  0
 19 14  1  0
  1 26  1  0
  1 27  1  0
  1 28  1  0
  2 29  1  0
  2 30  1  0
  3 31  1  0
  3 32  1  0
  4 33  1  0
  4 34  1  0
  9 35  1  0
 10 36  1  0
 12 37  1  0
 13 38  1  0
 15 39  1  0
 16 40  1  0
 17 41  1  0
 18 42  1  0
 21 43  1  0
 21 44  1  0
 22 45  1  0
 22 46  1  0
 22 47  1  0
M  END
$$$$
