
     RDKit          3D

 53 58  0  0  0  0  0  0  0  0999 V2000
    1.1230   -1.8094   -0.5689 C   0  0  0  0  0  0  0  0  0  0  0  0
    0.4145   -0.5920    0.0547 C   0  0  0  0  0  0  0  0  0  0  0  0
    1.0977   -0.1669    1.3669 C   0  0  0  0  0  0  0  0  0  0  0  0
    0.6070   -0.3837    2.4787 O   0  0  0  0  0  0  0  0  0  0  0  0
    2.3648    0.3380    1.3561 N   0  0  0  0  0  0  0  0  0  0  0  0
    3.2321    0.6299    0.2954 C   0  0  0  0  0  0  0  0  0  0  0  0
    4.5954    0.6584    0.6482 C   0  0  0  0  0  0  0  0  0  0  0  0
    5.5893    0.8839   -0.3057 C   0  0  0  0  0  0  0  0  0  0  0  0
    5.2298    1.1027   -1.6269 C   0  0  0  0  0  0  0  0  0  0  0  0
    6.4452    1.3779   -2.8106 Cl  0  0  0  0  0  0  0  0  0  0  0  0
    3.8869    1.1175   -1.9900 C   0  0  0  0  0  0  0  0  0  0  0  0
    2.8722    0.8915   -1.0346 C   0  0  0  0  0  0  0  0  0  0  0  0
    1.4861    1.1097   -1.5213 C   0  0  0  0  0  0  0  0  0  0  0  0
    1.3348    1.8189   -2.5167 O   0  0  0  0  0  0  0  0  0  0  0  0
    0.4055    0.5706   -0.8595 N   0  0  0  0  0  0  0  0  0  0  0  0
   -0.9553    0.9587   -1.2459 C   0  0  0  0  0  0  0  0  0  0  0  0
   -1.4716    2.1582   -0.4751 C   0  0  0  0  0  0  0  0  0  0  0  0
   -0.7549    3.3675   -0.4419 C   0  0  0  0  0  0  0  0  0  0  0  0
   -1.2307    4.4588    0.2871 C   0  0  0  0  0  0  0  0  0  0  0  0
   -0.3244    5.9211    0.3266 Cl  0  0  0  0  0  0  0  0  0  0  0  0
   -2.4302    4.3721    0.9856 C   0  0  0  0  0  0  0  0  0  0  0  0
   -3.1640    3.1886    0.9413 C   0  0  0  0  0  0  0  0  0  0  0  0
   -2.6977    2.0992    0.2011 C   0  0  0  0  0  0  0  0  0  0  0  0
   -3.4952    0.9877    0.2289 O   0  0  0  0  0  0  0  0  0  0  0  0
   -3.2479    0.0570   -0.8232 C   0  0  0  0  0  0  0  0  0  0  0  0
   -1.7787   -0.2950   -0.9708 C   0  0  0  0  0  0  0  0  0  0  0  0
   -1.1163   -0.8698    0.3054 C   0  0  0  0  0  0  0  0  0  0  0  0
   -1.5261   -2.2929    0.6616 C   0  0  0  0  0  0  0  0  0  0  0  0
   -1.8064   -3.2795   -0.2972 C   0  0  0  0  0  0  0  0  0  0  0  0
   -2.1743   -4.5721    0.0878 C   0  0  0  0  0  0  0  0  0  0  0  0
   -2.2679   -4.9019    1.4364 C   0  0  0  0  0  0  0  0  0  0  0  0
   -1.9932   -3.9393    2.4019 C   0  0  0  0  0  0  0  0  0  0  0  0
   -1.6261   -2.6481    2.0174 C   0  0  0  0  0  0  0  0  0  0  0  0
    0.6469   -2.1077   -1.5092 H   0  0  0  0  0  0  0  0  0  0  0  0
    2.1746   -1.6297   -0.8020 H   0  0  0  0  0  0  0  0  0  0  0  0
    1.1186   -2.6645    0.1158 H   0  0  0  0  0  0  0  0  0  0  0  0
    2.7373    0.3924    2.2982 H   0  0  0  0  0  0  0  0  0  0  0  0
    4.9069    0.4755    1.6756 H   0  0  0  0  0  0  0  0  0  0  0  0
    6.6354    0.8843   -0.0094 H   0  0  0  0  0  0  0  0  0  0  0  0
    3.6217    1.3329   -3.0244 H   0  0  0  0  0  0  0  0  0  0  0  0
   -0.9988    1.2041   -2.3145 H   0  0  0  0  0  0  0  0  0  0  0  0
    0.1796    3.4683   -0.9877 H   0  0  0  0  0  0  0  0  0  0  0  0
   -2.8006    5.2176    1.5583 H   0  0  0  0  0  0  0  0  0  0  0  0
   -4.1056    3.1136    1.4793 H   0  0  0  0  0  0  0  0  0  0  0  0
   -3.8328   -0.8423   -0.6023 H   0  0  0  0  0  0  0  0  0  0  0  0
   -3.6469    0.4697   -1.7588 H   0  0  0  0  0  0  0  0  0  0  0  0
   -1.6507   -0.9813   -1.8163 H   0  0  0  0  0  0  0  0  0  0  0  0
   -1.4471   -0.2436    1.1462 H   0  0  0  0  0  0  0  0  0  0  0  0
   -1.7359   -3.0736   -1.3611 H   0  0  0  0  0  0  0  0  0  0  0  0
   -2.3866   -5.3235   -0.6687 H   0  0  0  0  0  0  0  0  0  0  0  0
   -2.5542   -5.9068    1.7348 H   0  0  0  0  0  0  0  0  0  0  0  0
   -2.0647   -4.1889    3.4575 H   0  0  0  0  0  0  0  0  0  0  0  0
   -1.4205   -1.9141    2.7961 H   0  0  0  0  0  0  0  0  0  0  0  0
  1  2  1  0
  2  3  1  0
  3  4  2  0
  3  5  1  0
  5  6  1  0
  6  7  2  0
  7  8  1  0
  8  9  2  0
  9 10  1  0
  9 11  1  0
 11 12  2  0
 12 13  1  0
 13 14  2  0
 13 15  1  0
 15 16  1  0
 16 17  1  0
 17 18  2  0
 18 19  1  0
 19 20  1  0
 19 21  2  0
 21 22  1  0
 22 23  2  0
 23 24  1  0
 24 25  1  0
 25 26  1  0
 26 27  1  0
 27 28  1  0
 28 29  2  0
 29 30  1  0
 30 31  2  0
 31 32  1  0
 32 33  2  0
 15  2  1  0
 26 16  1  0
 33 28  1  0
 27  2  1  0
 12  6  1  0
 23 17  1  0
  1 34  1  0
  1 35  1  0
  1 36  1  0
  5 37  1  0
  7 38  1  0
  8 39  1  0
 11 40  1  0
 16 41  1  0
 18 42  1  0
 21 43  1  0
 22 44  1  0
 25 45  1  0
 25 46  1  0
 26 47  1  0
 27 48  1  0
 29 49  1  0
 30 50  1  0
 31 51  1  0
 32 52  1  0
 33 53  1  0
M  END
$$$$
