
     RDKit          3D

 39 41  0  0  0  0  0  0  0  0999 V2000
   -3.6736   -2.2306   -0.0927 F   0  0  0  0  0  0  0  0  0  0  0  0
   -4.0912   -1.0091    0.2708 C   0  0  0  0  0  0  0  0  0  0  0  0
   -5.1506   -0.9077    1.1690 C   0  0  0  0  0  0  0  0  0  0  0  0
   -5.6163    0.3491    1.5503 C   0  0  0  0  0  0  0  0  0  0  0  0
   -5.0202    1.4973    1.0289 C   0  0  0  0  0  0  0  0  0  0  0  0
   -3.9574    1.3899    0.1276 C   0  0  0  0  0  0  0  0  0  0  0  0
   -3.4784    0.1293   -0.2617 C   0  0  0  0  0  0  0  0  0  0  0  0
   -2.3255   -0.0014   -1.2269 C   0  0  0  0  0  0  0  0  0  0  0  0
   -1.0471   -0.3235   -0.5731 N   0  0  0  0  0  0  0  0  0  0  0  0
   -0.0432   -0.7124   -1.5899 C   0  0  0  0  0  0  0  0  0  0  0  0
    1.3454   -1.0323   -0.9879 C   0  0  0  0  0  0  0  0  0  0  0  0
    1.8365    0.1106   -0.1799 N   0  0  0  0  0  0  0  0  0  0  0  0
    3.1838   -0.0040    0.1965 C   0  0  0  0  0  0  0  0  0  0  0  0
    4.1759   -0.0386   -0.8003 C   0  0  0  0  0  0  0  0  0  0  0  0
    5.5353   -0.1400   -0.4852 C   0  0  0  0  0  0  0  0  0  0  0  0
    5.9287   -0.2022    0.8454 C   0  0  0  0  0  0  0  0  0  0  0  0
    7.5970   -0.3272    1.2435 Cl  0  0  0  0  0  0  0  0  0  0  0  0
    4.9752   -0.1578    1.8558 C   0  0  0  0  0  0  0  0  0  0  0  0
    3.6163   -0.0542    1.5306 C   0  0  0  0  0  0  0  0  0  0  0  0
    0.8567    0.5081    0.8529 C   0  0  0  0  0  0  0  0  0  0  0  0
   -0.5164    0.8153    0.2098 C   0  0  0  0  0  0  0  0  0  0  0  0
   -5.6050   -1.8110    1.5630 H   0  0  0  0  0  0  0  0  0  0  0  0
   -6.4425    0.4337    2.2514 H   0  0  0  0  0  0  0  0  0  0  0  0
   -5.3827    2.4788    1.3255 H   0  0  0  0  0  0  0  0  0  0  0  0
   -3.5015    2.2953   -0.2668 H   0  0  0  0  0  0  0  0  0  0  0  0
   -2.5917   -0.7988   -1.9344 H   0  0  0  0  0  0  0  0  0  0  0  0
   -2.2383    0.9102   -1.8338 H   0  0  0  0  0  0  0  0  0  0  0  0
    0.0712    0.0901   -2.3314 H   0  0  0  0  0  0  0  0  0  0  0  0
   -0.3918   -1.6048   -2.1237 H   0  0  0  0  0  0  0  0  0  0  0  0
    1.2776   -1.9291   -0.3577 H   0  0  0  0  0  0  0  0  0  0  0  0
    2.0214   -1.2621   -1.8192 H   0  0  0  0  0  0  0  0  0  0  0  0
    3.8920    0.0424   -1.8469 H   0  0  0  0  0  0  0  0  0  0  0  0
    6.2725   -0.1604   -1.2825 H   0  0  0  0  0  0  0  0  0  0  0  0
    5.2751   -0.2032    2.8990 H   0  0  0  0  0  0  0  0  0  0  0  0
    2.9058   -0.0317    2.3512 H   0  0  0  0  0  0  0  0  0  0  0  0
    0.7342   -0.2919    1.5948 H   0  0  0  0  0  0  0  0  0  0  0  0
    1.1974    1.4133    1.3703 H   0  0  0  0  0  0  0  0  0  0  0  0
   -0.4189    1.7027   -0.4300 H   0  0  0  0  0  0  0  0  0  0  0  0
   -1.2057    1.0679    1.0229 H   0  0  0  0  0  0  0  0  0  0  0  0
  1  2  1  0
  2  3  2  0
  3  4  1  0
  4  5  2  0
  5  6  1  0
  6  7  2  0
  7  8  1  0
  8  9  1  0
  9 10  1  0
 10 11  1  0
 11 12  1  0
 12 13  1  0
 13 14  2  0
 14 15  1  0
 15 16  2  0
 16 17  1  0
 16 18  1  0
 18 19  2  0
 12 20  1  0
 20 21  1  0
  7  2  1  0
 21  9  1  0
 19 13  1  0
  3 22  1  0
  4 23  1  0
  5 24  1  0
  6 25  1  0
  8 26  1  0
  8 27  1  0
 10 28  1  0
 10 29  1  0
 11 30  1  0
 11 31  1  0
 14 32  1  0
 15 33  1  0
 18 34  1  0
 19 35  1  0
 20 36  1  0
 20 37  1  0
 21 38  1  0
 21 39  1  0
M  END
$$$$
