
     RDKit          3D

 58 61  0  0  0  0  0  0  0  0999 V2000
    4.9659   -0.0728   -6.3737 C   0  0  0  0  0  0  0  0  0  0  0  0
    4.0730    1.0040   -6.1136 O   0  0  0  0  0  0  0  0  0  0  0  0
    3.8385    1.3057   -4.8003 C   0  0  0  0  0  0  0  0  0  0  0  0
    4.3871    0.6520   -3.6966 C   0  0  0  0  0  0  0  0  0  0  0  0
    4.0577    1.0661   -2.4008 C   0  0  0  0  0  0  0  0  0  0  0  0
    3.1791    2.1395   -2.1901 C   0  0  0  0  0  0  0  0  0  0  0  0
    2.8055    2.5511   -0.7893 C   0  0  0  0  0  0  0  0  0  0  0  0
    1.7692    1.6898   -0.2728 N   0  0  0  0  0  0  0  0  0  0  0  0
    2.0156    0.6370    0.5732 C   0  0  0  0  0  0  0  0  0  0  0  0
    3.1461    0.4276    1.0251 O   0  0  0  0  0  0  0  0  0  0  0  0
    0.8657   -0.3110    0.9009 C   0  0  0  0  0  0  0  0  0  0  0  0
    0.9786   -1.5018    0.0436 C   0  0  0  0  0  0  0  0  0  0  0  0
    1.0450   -2.4617   -0.6130 N   0  0  0  0  0  0  0  0  0  0  0  0
   -0.5433    0.2575    0.8516 C   0  0  0  0  0  0  0  0  0  0  0  0
   -0.8387    1.2386   -0.0551 N   0  0  0  0  0  0  0  0  0  0  0  0
   -2.1110    1.6774   -0.0976 C   0  0  0  0  0  0  0  0  0  0  0  0
   -2.4660    2.6831   -0.9898 C   0  0  0  0  0  0  0  0  0  0  0  0
   -3.7766    3.1669   -1.0565 C   0  0  0  0  0  0  0  0  0  0  0  0
   -4.7447    2.6372   -0.2150 C   0  0  0  0  0  0  0  0  0  0  0  0
   -4.3956    1.6256    0.6824 C   0  0  0  0  0  0  0  0  0  0  0  0
   -3.0978    1.1352    0.7539 C   0  0  0  0  0  0  0  0  0  0  0  0
   -2.8052    0.1566    1.6303 N   0  0  0  0  0  0  0  0  0  0  0  0
   -1.5323   -0.2913    1.6832 C   0  0  0  0  0  0  0  0  0  0  0  0
   -1.2146   -1.3595    2.5479 N   0  0  0  0  0  0  0  0  0  0  0  0
   -1.8675   -2.6176    2.0852 C   0  0  0  0  0  0  0  0  0  0  0  0
   -3.0361   -3.0591    2.9966 C   0  0  0  0  0  0  0  0  0  0  0  0
   -2.6901   -3.2133    4.4282 N   0  0  0  0  0  0  0  0  0  0  0  0
   -2.3489   -4.5939    4.7618 C   0  0  0  0  0  0  0  0  0  0  0  0
   -1.5936   -2.2962    4.8178 C   0  0  0  0  0  0  0  0  0  0  0  0
   -1.5430   -1.0138    3.9556 C   0  0  0  0  0  0  0  0  0  0  0  0
    2.6256    2.7887   -3.3019 C   0  0  0  0  0  0  0  0  0  0  0  0
    2.9576    2.3737   -4.5949 C   0  0  0  0  0  0  0  0  0  0  0  0
    4.5710   -1.0201   -5.9822 H   0  0  0  0  0  0  0  0  0  0  0  0
    5.0544   -0.1728   -7.4603 H   0  0  0  0  0  0  0  0  0  0  0  0
    5.9647    0.1377   -5.9744 H   0  0  0  0  0  0  0  0  0  0  0  0
    5.0650   -0.1897   -3.8063 H   0  0  0  0  0  0  0  0  0  0  0  0
    4.4859    0.5394   -1.5482 H   0  0  0  0  0  0  0  0  0  0  0  0
    2.4145    3.5769   -0.7786 H   0  0  0  0  0  0  0  0  0  0  0  0
    3.6893    2.5342   -0.1393 H   0  0  0  0  0  0  0  0  0  0  0  0
    0.8240    1.7874   -0.6507 H   0  0  0  0  0  0  0  0  0  0  0  0
    1.0705   -0.6010    1.9419 H   0  0  0  0  0  0  0  0  0  0  0  0
   -1.7072    3.1025   -1.6484 H   0  0  0  0  0  0  0  0  0  0  0  0
   -4.0333    3.9542   -1.7626 H   0  0  0  0  0  0  0  0  0  0  0  0
   -5.7676    3.0042   -0.2543 H   0  0  0  0  0  0  0  0  0  0  0  0
   -5.1519    1.2096    1.3421 H   0  0  0  0  0  0  0  0  0  0  0  0
   -1.0998   -3.4027    2.0896 H   0  0  0  0  0  0  0  0  0  0  0  0
   -2.2188   -2.5434    1.0462 H   0  0  0  0  0  0  0  0  0  0  0  0
   -3.4829   -3.9797    2.6014 H   0  0  0  0  0  0  0  0  0  0  0  0
   -3.8280   -2.3018    2.9347 H   0  0  0  0  0  0  0  0  0  0  0  0
   -1.4951   -4.9626    4.1809 H   0  0  0  0  0  0  0  0  0  0  0  0
   -3.2039   -5.2539    4.5759 H   0  0  0  0  0  0  0  0  0  0  0  0
   -2.1073   -4.6854    5.8277 H   0  0  0  0  0  0  0  0  0  0  0  0
   -0.6187   -2.7999    4.7314 H   0  0  0  0  0  0  0  0  0  0  0  0
   -1.7259   -2.0214    5.8721 H   0  0  0  0  0  0  0  0  0  0  0  0
   -2.5007   -0.4842    4.0508 H   0  0  0  0  0  0  0  0  0  0  0  0
   -0.7595   -0.3518    4.3453 H   0  0  0  0  0  0  0  0  0  0  0  0
    1.9337    3.6186   -3.1723 H   0  0  0  0  0  0  0  0  0  0  0  0
    2.5222    2.8843   -5.4521 H   0  0  0  0  0  0  0  0  0  0  0  0
  1  2  1  0
  2  3  1  0
  3  4  2  0
  4  5  1  0
  5  6  2  0
  6  7  1  0
  7  8  1  0
  8  9  1  0
  9 10  2  0
  9 11  1  0
 11 12  1  0
 12 13  3  0
 11 14  1  0
 14 15  2  0
 15 16  1  0
 16 17  2  0
 17 18  1  0
 18 19  2  0
 19 20  1  0
 20 21  2  0
 21 22  1  0
 22 23  2  0
 23 24  1  0
 24 25  1  0
 25 26  1  0
 26 27  1  0
 27 28  1  0
 27 29  1  0
 29 30  1  0
  6 31  1  0
 31 32  2  0
 32  3  1  0
 23 14  1  0
 30 24  1  0
 21 16  1  0
  1 33  1  0
  1 34  1  0
  1 35  1  0
  4 36  1  0
  5 37  1  0
  7 38  1  0
  7 39  1  0
  8 40  1  0
 11 41  1  0
 17 42  1  0
 18 43  1  0
 19 44  1  0
 20 45  1  0
 25 46  1  0
 25 47  1  0
 26 48  1  0
 26 49  1  0
 28 50  1  0
 28 51  1  0
 28 52  1  0
 29 53  1  0
 29 54  1  0
 30 55  1  0
 30 56  1  0
 31 57  1  0
 32 58  1  0
M  END
$$$$
