
     RDKit          3D

 62 65  0  0  0  0  0  0  0  0999 V2000
   -5.1002   -4.4723   -1.8636 C   0  0  0  0  0  0  0  0  0  0  0  0
   -5.1877   -2.9668   -1.7060 C   0  0  0  0  0  0  0  0  0  0  0  0
   -3.9009   -2.3740   -1.9362 O   0  0  0  0  0  0  0  0  0  0  0  0
   -3.0977   -2.2611   -0.8468 C   0  0  0  0  0  0  0  0  0  0  0  0
   -3.3684   -2.6090    0.2927 O   0  0  0  0  0  0  0  0  0  0  0  0
   -1.8272   -1.5900   -1.2211 C   0  0  0  0  0  0  0  0  0  0  0  0
   -0.9720   -2.2024   -2.0878 C   0  0  0  0  0  0  0  0  0  0  0  0
   -1.2737   -3.4987   -2.8060 C   0  0  0  0  0  0  0  0  0  0  0  0
    0.3344   -1.7667   -2.3201 N   0  0  0  0  0  0  0  0  0  0  0  0
    0.8233   -0.9655   -1.4306 C   0  0  0  0  0  0  0  0  0  0  0  0
    2.5046   -0.5340   -1.3340 S   0  0  0  0  0  0  0  0  0  0  0  0
    2.3298   -0.1163    0.3581 C   0  0  0  0  0  0  0  0  0  0  0  0
    3.3572    0.0078    1.2254 C   0  0  0  0  0  0  0  0  0  0  0  0
    3.1597    0.1733    2.5890 O   0  0  0  0  0  0  0  0  0  0  0  0
    4.7835   -0.0908    0.8703 C   0  0  0  0  0  0  0  0  0  0  0  0
    5.3973    0.8635    0.0492 C   0  0  0  0  0  0  0  0  0  0  0  0
    6.7576    0.7631   -0.2724 C   0  0  0  0  0  0  0  0  0  0  0  0
    7.5227   -0.2878    0.2369 C   0  0  0  0  0  0  0  0  0  0  0  0
    8.8540   -0.5007    0.0067 O   0  0  0  0  0  0  0  0  0  0  0  0
    9.5360    0.4775   -0.7714 C   0  0  0  0  0  0  0  0  0  0  0  0
    6.9146   -1.2363    1.0616 C   0  0  0  0  0  0  0  0  0  0  0  0
    5.5571   -1.1386    1.3799 C   0  0  0  0  0  0  0  0  0  0  0  0
    0.9000    0.0031    0.6986 C   0  0  0  0  0  0  0  0  0  0  0  0
    0.5307    0.4680    1.9601 N   0  0  0  0  0  0  0  0  0  0  0  0
    0.0750   -0.3605   -0.3042 C   0  0  0  0  0  0  0  0  0  0  0  0
   -1.3752   -0.3615   -0.5123 C   0  0  0  0  0  0  0  0  0  0  0  0
   -2.1717    0.7255   -0.2637 C   0  0  0  0  0  0  0  0  0  0  0  0
   -3.6154    0.7588   -0.5847 C   0  0  0  0  0  0  0  0  0  0  0  0
   -4.4109    1.7428   -0.1257 C   0  0  0  0  0  0  0  0  0  0  0  0
   -3.8542    2.8453    0.6604 C   0  0  0  0  0  0  0  0  0  0  0  0
   -4.6604    3.7507    1.2608 C   0  0  0  0  0  0  0  0  0  0  0  0
   -6.0329    3.6713    1.1567 O   0  0  0  0  0  0  0  0  0  0  0  0
   -4.1538    4.8396    1.9447 O   0  0  0  0  0  0  0  0  0  0  0  0
   -4.3937    4.6911    3.3465 C   0  0  0  0  0  0  0  0  0  0  0  0
   -2.3974    2.9998    0.6716 C   0  0  0  0  0  0  0  0  0  0  0  0
   -1.6067    2.0142    0.2097 C   0  0  0  0  0  0  0  0  0  0  0  0
   -4.4056   -4.9034   -1.1353 H   0  0  0  0  0  0  0  0  0  0  0  0
   -4.7199   -4.7306   -2.8553 H   0  0  0  0  0  0  0  0  0  0  0  0
   -6.0826   -4.9347   -1.7311 H   0  0  0  0  0  0  0  0  0  0  0  0
   -5.8704   -2.5555   -2.4587 H   0  0  0  0  0  0  0  0  0  0  0  0
   -5.5873   -2.6878   -0.7242 H   0  0  0  0  0  0  0  0  0  0  0  0
   -1.5995   -3.2904   -3.8314 H   0  0  0  0  0  0  0  0  0  0  0  0
   -2.0358   -4.1051   -2.3071 H   0  0  0  0  0  0  0  0  0  0  0  0
   -0.3740   -4.1235   -2.8565 H   0  0  0  0  0  0  0  0  0  0  0  0
    2.2075    0.0126    2.7599 H   0  0  0  0  0  0  0  0  0  0  0  0
    4.8218    1.6963   -0.3488 H   0  0  0  0  0  0  0  0  0  0  0  0
    7.1845    1.5221   -0.9212 H   0  0  0  0  0  0  0  0  0  0  0  0
    9.1336    0.5263   -1.7900 H   0  0  0  0  0  0  0  0  0  0  0  0
   10.5845    0.1732   -0.8447 H   0  0  0  0  0  0  0  0  0  0  0  0
    9.5059    1.4600   -0.2859 H   0  0  0  0  0  0  0  0  0  0  0  0
    7.5035   -2.0570    1.4644 H   0  0  0  0  0  0  0  0  0  0  0  0
    5.1068   -1.8846    2.0277 H   0  0  0  0  0  0  0  0  0  0  0  0
   -0.4865    0.5058    2.0623 H   0  0  0  0  0  0  0  0  0  0  0  0
    0.9005    1.4108    2.1134 H   0  0  0  0  0  0  0  0  0  0  0  0
   -4.0653    0.0136   -1.2234 H   0  0  0  0  0  0  0  0  0  0  0  0
   -5.4680    1.7558   -0.3735 H   0  0  0  0  0  0  0  0  0  0  0  0
   -6.3441    4.5647    1.3854 H   0  0  0  0  0  0  0  0  0  0  0  0
   -3.9446    5.5500    3.8561 H   0  0  0  0  0  0  0  0  0  0  0  0
   -3.9218    3.7786    3.7326 H   0  0  0  0  0  0  0  0  0  0  0  0
   -5.4669    4.6886    3.5668 H   0  0  0  0  0  0  0  0  0  0  0  0
   -1.9718    3.9473    0.9921 H   0  0  0  0  0  0  0  0  0  0  0  0
   -0.5420    2.2045    0.1342 H   0  0  0  0  0  0  0  0  0  0  0  0
  1  2  1  0
  2  3  1  0
  3  4  1  0
  4  5  2  0
  4  6  1  0
  6  7  2  0
  7  8  1  0
  7  9  1  0
  9 10  2  0
 10 11  1  0
 11 12  1  0
 12 13  2  3
 13 14  1  0
 13 15  1  0
 15 16  2  0
 16 17  1  0
 17 18  2  0
 18 19  1  0
 19 20  1  0
 18 21  1  0
 21 22  2  0
 12 23  1  0
 23 24  1  0
 23 25  2  0
 25 26  1  0
 26 27  2  3
 27 28  1  0
 28 29  2  0
 29 30  1  0
 30 31  2  3
 31 32  1  0
 31 33  1  0
 33 34  1  0
 30 35  1  0
 35 36  2  0
 26  6  1  0
 36 27  1  0
 25 10  1  0
 22 15  1  0
  1 37  1  0
  1 38  1  0
  1 39  1  0
  2 40  1  0
  2 41  1  0
  8 42  1  0
  8 43  1  0
  8 44  1  0
 14 45  1  0
 16 46  1  0
 17 47  1  0
 20 48  1  0
 20 49  1  0
 20 50  1  0
 21 51  1  0
 22 52  1  0
 24 53  1  0
 24 54  1  0
 28 55  1  0
 29 56  1  0
 32 57  1  0
 34 58  1  0
 34 59  1  0
 34 60  1  0
 35 61  1  0
 36 62  1  0
M  END
$$$$
