
     RDKit          3D

 37 39  0  0  0  0  0  0  0  0999 V2000
    0.4244   -1.7896    0.8964 O   0  0  0  0  0  0  0  0  0  0  0  0
    1.2597   -0.9115    1.1251 C   0  0  0  0  0  0  0  0  0  0  0  0
    2.5341   -1.2578    1.8912 C   0  0  0  0  0  0  0  0  0  0  0  0
    3.3889   -2.1594    1.0529 C   0  0  0  0  0  0  0  0  0  0  0  0
    3.4287   -3.5417    1.0540 C   0  0  0  0  0  0  0  0  0  0  0  0
    4.3756   -4.0514    0.1192 C   0  0  0  0  0  0  0  0  0  0  0  0
    5.0273   -3.0448   -0.5645 C   0  0  0  0  0  0  0  0  0  0  0  0
    4.4957   -1.4939   -0.0778 S   0  0  0  0  0  0  0  0  0  0  0  0
    1.0549    0.4233    0.7979 N   0  0  0  0  0  0  0  0  0  0  0  0
    1.7730    1.5383    1.3527 C   0  0  0  0  0  0  0  0  0  0  0  0
    0.9784    2.7395    0.8734 C   0  0  0  0  0  0  0  0  0  0  0  0
    0.2018    2.2567   -0.2846 N   0  0  0  0  0  0  0  0  0  0  0  0
    0.2800    0.9619   -0.2281 C   0  0  0  0  0  0  0  0  0  0  0  0
   -0.4662   -0.0283   -1.4281 S   0  0  0  0  0  0  0  0  0  0  0  0
   -2.0262   -0.3935   -0.5777 C   0  0  0  0  0  0  0  0  0  0  0  0
   -3.1375    0.5531   -0.9698 C   0  0  0  0  0  0  0  0  0  0  0  0
   -3.3669    1.6978   -0.1804 C   0  0  0  0  0  0  0  0  0  0  0  0
   -4.3847    2.6007   -0.5002 C   0  0  0  0  0  0  0  0  0  0  0  0
   -5.1843    2.3844   -1.6197 C   0  0  0  0  0  0  0  0  0  0  0  0
   -4.9622    1.2640   -2.4219 C   0  0  0  0  0  0  0  0  0  0  0  0
   -3.9461    0.3541   -2.1021 C   0  0  0  0  0  0  0  0  0  0  0  0
   -3.7391   -1.0037   -3.1511 Cl  0  0  0  0  0  0  0  0  0  0  0  0
    3.1086   -0.3797    2.2006 H   0  0  0  0  0  0  0  0  0  0  0  0
    2.2330   -1.7635    2.8196 H   0  0  0  0  0  0  0  0  0  0  0  0
    2.7998   -4.1613    1.6887 H   0  0  0  0  0  0  0  0  0  0  0  0
    4.5660   -5.1057   -0.0497 H   0  0  0  0  0  0  0  0  0  0  0  0
    5.7855   -3.1495   -1.3279 H   0  0  0  0  0  0  0  0  0  0  0  0
    2.7869    1.5440    0.9327 H   0  0  0  0  0  0  0  0  0  0  0  0
    1.8324    1.4808    2.4455 H   0  0  0  0  0  0  0  0  0  0  0  0
    1.6341    3.5716    0.5890 H   0  0  0  0  0  0  0  0  0  0  0  0
    0.2842    3.0925    1.6493 H   0  0  0  0  0  0  0  0  0  0  0  0
   -1.8850   -0.3668    0.5098 H   0  0  0  0  0  0  0  0  0  0  0  0
   -2.3099   -1.4268   -0.7982 H   0  0  0  0  0  0  0  0  0  0  0  0
   -2.7422    1.8958    0.6901 H   0  0  0  0  0  0  0  0  0  0  0  0
   -4.5457    3.4759    0.1207 H   0  0  0  0  0  0  0  0  0  0  0  0
   -5.9729    3.0889   -1.8724 H   0  0  0  0  0  0  0  0  0  0  0  0
   -5.5842    1.1058   -3.2999 H   0  0  0  0  0  0  0  0  0  0  0  0
  1  2  2  0
  2  3  1  0
  3  4  1  0
  4  5  2  0
  5  6  1  0
  6  7  2  0
  7  8  1  0
  2  9  1  0
  9 10  1  0
 10 11  1  0
 11 12  1  0
 12 13  2  0
 13 14  1  0
 14 15  1  0
 15 16  1  0
 16 17  2  0
 17 18  1  0
 18 19  2  0
 19 20  1  0
 20 21  2  0
 21 22  1  0
  8  4  1  0
 13  9  1  0
 21 16  1  0
  3 23  1  0
  3 24  1  0
  5 25  1  0
  6 26  1  0
  7 27  1  0
 10 28  1  0
 10 29  1  0
 11 30  1  0
 11 31  1  0
 15 32  1  0
 15 33  1  0
 17 34  1  0
 18 35  1  0
 19 36  1  0
 20 37  1  0
M  END
$$$$
