
     RDKit          3D

 53 54  0  0  0  0  0  0  0  0999 V2000
    6.4278    0.8818    2.1641 C   0  0  0  0  0  0  0  0  0  0  0  0
    5.6855   -0.2363    1.4399 C   0  0  0  0  0  0  0  0  0  0  0  0
    4.2628    0.0630    1.2449 N   0  0  0  0  0  0  0  0  0  0  0  0
    3.5221    0.1855    2.5160 C   0  0  0  0  0  0  0  0  0  0  0  0
    1.9931   -0.0555    2.3928 C   0  0  0  0  0  0  0  0  0  0  0  0
    1.4062    0.2270    1.0678 N   0  0  0  0  0  0  0  0  0  0  0  0
    1.4998    1.6860    0.7681 C   0  0  0  0  0  0  0  0  0  0  0  0
    0.5048    2.0981   -0.3320 C   0  0  0  0  0  0  0  0  0  0  0  0
    0.6511    3.1416   -0.9635 O   0  0  0  0  0  0  0  0  0  0  0  0
   -0.5443    1.2103   -0.4562 N   0  0  0  0  0  0  0  0  0  0  0  0
   -1.6443    1.2429   -1.3299 C   0  0  0  0  0  0  0  0  0  0  0  0
   -1.8704    2.2704   -2.2487 C   0  0  0  0  0  0  0  0  0  0  0  0
   -2.9861    2.2372   -3.1042 C   0  0  0  0  0  0  0  0  0  0  0  0
   -3.2002    3.3452   -4.1070 C   0  0  0  0  0  0  0  0  0  0  0  0
   -2.9563    4.5842   -3.5971 F   0  0  0  0  0  0  0  0  0  0  0  0
   -2.3970    3.2186   -5.1996 F   0  0  0  0  0  0  0  0  0  0  0  0
   -4.4763    3.3900   -4.5891 F   0  0  0  0  0  0  0  0  0  0  0  0
   -3.8654    1.1456   -3.0379 C   0  0  0  0  0  0  0  0  0  0  0  0
   -3.6504    0.1164   -2.1199 C   0  0  0  0  0  0  0  0  0  0  0  0
   -2.5568    0.1748   -1.2534 C   0  0  0  0  0  0  0  0  0  0  0  0
   -2.2765   -0.8260   -0.3534 O   0  0  0  0  0  0  0  0  0  0  0  0
   -3.3935   -1.2524    0.4350 C   0  0  0  0  0  0  0  0  0  0  0  0
   -3.6749   -2.7280    0.1723 C   0  0  0  0  0  0  0  0  0  0  0  0
   -4.7873   -3.1458    0.9630 O   0  0  0  0  0  0  0  0  0  0  0  0
   -5.0748   -4.5256    0.7734 C   0  0  0  0  0  0  0  0  0  0  0  0
    2.1423   -0.5625    0.0434 C   0  0  0  0  0  0  0  0  0  0  0  0
    3.6157   -0.9287    0.3748 C   0  0  0  0  0  0  0  0  0  0  0  0
    6.0866    0.9926    3.1986 H   0  0  0  0  0  0  0  0  0  0  0  0
    6.2947    1.8410    1.6509 H   0  0  0  0  0  0  0  0  0  0  0  0
    7.5005    0.6615    2.1916 H   0  0  0  0  0  0  0  0  0  0  0  0
    6.1641   -0.3600    0.4601 H   0  0  0  0  0  0  0  0  0  0  0  0
    5.8198   -1.1804    1.9827 H   0  0  0  0  0  0  0  0  0  0  0  0
    3.6802    1.1992    2.9029 H   0  0  0  0  0  0  0  0  0  0  0  0
    3.9067   -0.5173    3.2661 H   0  0  0  0  0  0  0  0  0  0  0  0
    1.4665    0.5118    3.1705 H   0  0  0  0  0  0  0  0  0  0  0  0
    1.7912   -1.1116    2.6207 H   0  0  0  0  0  0  0  0  0  0  0  0
    2.5071    1.9863    0.4603 H   0  0  0  0  0  0  0  0  0  0  0  0
    1.2157    2.2710    1.6515 H   0  0  0  0  0  0  0  0  0  0  0  0
   -0.4713    0.3890    0.1457 H   0  0  0  0  0  0  0  0  0  0  0  0
   -1.1881    3.1138   -2.3220 H   0  0  0  0  0  0  0  0  0  0  0  0
   -4.7218    1.0906   -3.7091 H   0  0  0  0  0  0  0  0  0  0  0  0
   -4.3331   -0.7276   -2.1054 H   0  0  0  0  0  0  0  0  0  0  0  0
   -3.1169   -1.1231    1.4888 H   0  0  0  0  0  0  0  0  0  0  0  0
   -4.2968   -0.6440    0.2960 H   0  0  0  0  0  0  0  0  0  0  0  0
   -3.8923   -2.8877   -0.8906 H   0  0  0  0  0  0  0  0  0  0  0  0
   -2.7887   -3.3233    0.4235 H   0  0  0  0  0  0  0  0  0  0  0  0
   -5.9255   -4.7903    1.4072 H   0  0  0  0  0  0  0  0  0  0  0  0
   -4.2167   -5.1386    1.0650 H   0  0  0  0  0  0  0  0  0  0  0  0
   -5.3408   -4.7207   -0.2705 H   0  0  0  0  0  0  0  0  0  0  0  0
    2.1096   -0.0536   -0.9287 H   0  0  0  0  0  0  0  0  0  0  0  0
    1.5920   -1.5008   -0.1022 H   0  0  0  0  0  0  0  0  0  0  0  0
    4.1610   -1.0187   -0.5723 H   0  0  0  0  0  0  0  0  0  0  0  0
    3.6400   -1.9165    0.8549 H   0  0  0  0  0  0  0  0  0  0  0  0
  1  2  1  0
  2  3  1  0
  3  4  1  0
  4  5  1  0
  5  6  1  0
  6  7  1  0
  7  8  1  0
  8  9  2  0
  8 10  1  0
 10 11  1  0
 11 12  2  0
 12 13  1  0
 13 14  1  0
 14 15  1  0
 14 16  1  0
 14 17  1  0
 13 18  2  0
 18 19  1  0
 19 20  2  0
 20 21  1  0
 21 22  1  0
 22 23  1  0
 23 24  1  0
 24 25  1  0
  6 26  1  0
 26 27  1  0
 27  3  1  0
 20 11  1  0
  1 28  1  0
  1 29  1  0
  1 30  1  0
  2 31  1  0
  2 32  1  0
  4 33  1  0
  4 34  1  0
  5 35  1  0
  5 36  1  0
  7 37  1  0
  7 38  1  0
 10 39  1  0
 12 40  1  0
 18 41  1  0
 19 42  1  0
 22 43  1  0
 22 44  1  0
 23 45  1  0
 23 46  1  0
 25 47  1  0
 25 48  1  0
 25 49  1  0
 26 50  1  0
 26 51  1  0
 27 52  1  0
 27 53  1  0
M  END
$$$$
