
     RDKit          3D

 38 39  0  0  0  0  0  0  0  0999 V2000
    6.0707   -1.5933    0.0096 C   0  0  0  0  0  0  0  0  0  0  0  0
    4.8346   -0.7358    0.2292 C   0  0  0  0  0  0  0  0  0  0  0  0
    4.2160   -0.2959   -1.0962 C   0  0  0  0  0  0  0  0  0  0  0  0
    3.0170    0.5440   -0.8762 C   0  0  0  0  0  0  0  0  0  0  0  0
    2.9088    1.8535   -0.8249 N   0  0  0  0  0  0  0  0  0  0  0  0
    1.5755    2.1213   -0.5930 N   0  0  0  0  0  0  0  0  0  0  0  0
    0.9629    0.9562   -0.5184 C   0  0  0  0  0  0  0  0  0  0  0  0
   -0.4445    0.6512   -0.2869 C   0  0  0  0  0  0  0  0  0  0  0  0
   -1.3561    1.7087   -0.1191 C   0  0  0  0  0  0  0  0  0  0  0  0
   -2.7115    1.4602    0.1071 C   0  0  0  0  0  0  0  0  0  0  0  0
   -3.6672    2.4276    0.2795 O   0  0  0  0  0  0  0  0  0  0  0  0
   -3.2806    3.7777    0.0605 C   0  0  0  0  0  0  0  0  0  0  0  0
   -3.1511    0.1286    0.1831 C   0  0  0  0  0  0  0  0  0  0  0  0
   -4.4924   -0.1310    0.3630 O   0  0  0  0  0  0  0  0  0  0  0  0
   -4.7833   -0.2298    1.7560 C   0  0  0  0  0  0  0  0  0  0  0  0
   -2.2642   -0.9450   -0.0026 C   0  0  0  0  0  0  0  0  0  0  0  0
   -2.8078   -2.2013    0.0728 O   0  0  0  0  0  0  0  0  0  0  0  0
   -1.9826   -3.2975   -0.2962 C   0  0  0  0  0  0  0  0  0  0  0  0
   -0.9123   -0.6729   -0.2276 C   0  0  0  0  0  0  0  0  0  0  0  0
    1.8231   -0.0994   -0.6905 O   0  0  0  0  0  0  0  0  0  0  0  0
    5.8246   -2.4990   -0.5540 H   0  0  0  0  0  0  0  0  0  0  0  0
    6.4971   -1.8969    0.9708 H   0  0  0  0  0  0  0  0  0  0  0  0
    6.8377   -1.0416   -0.5432 H   0  0  0  0  0  0  0  0  0  0  0  0
    4.1026   -1.3036    0.8168 H   0  0  0  0  0  0  0  0  0  0  0  0
    5.1071    0.1426    0.8273 H   0  0  0  0  0  0  0  0  0  0  0  0
    4.9496    0.2729   -1.6795 H   0  0  0  0  0  0  0  0  0  0  0  0
    3.9440   -1.1736   -1.6944 H   0  0  0  0  0  0  0  0  0  0  0  0
   -0.9768    2.7262   -0.1683 H   0  0  0  0  0  0  0  0  0  0  0  0
   -2.8906    3.9205   -0.9528 H   0  0  0  0  0  0  0  0  0  0  0  0
   -2.5571    4.1054    0.8139 H   0  0  0  0  0  0  0  0  0  0  0  0
   -4.1734    4.4019    0.1641 H   0  0  0  0  0  0  0  0  0  0  0  0
   -4.2281   -1.0507    2.2231 H   0  0  0  0  0  0  0  0  0  0  0  0
   -4.5755    0.7116    2.2761 H   0  0  0  0  0  0  0  0  0  0  0  0
   -5.8513   -0.4434    1.8601 H   0  0  0  0  0  0  0  0  0  0  0  0
   -1.1664   -3.4317    0.4209 H   0  0  0  0  0  0  0  0  0  0  0  0
   -2.5977   -4.2022   -0.2721 H   0  0  0  0  0  0  0  0  0  0  0  0
   -1.5994   -3.1824   -1.3156 H   0  0  0  0  0  0  0  0  0  0  0  0
   -0.2015   -1.4832   -0.3561 H   0  0  0  0  0  0  0  0  0  0  0  0
  1  2  1  0
  2  3  1  0
  3  4  1  0
  4  5  2  0
  5  6  1  0
  6  7  2  0
  7  8  1  0
  8  9  2  0
  9 10  1  0
 10 11  1  0
 11 12  1  0
 10 13  2  0
 13 14  1  0
 14 15  1  0
 13 16  1  0
 16 17  1  0
 17 18  1  0
 16 19  2  0
  7 20  1  0
 20  4  1  0
 19  8  1  0
  1 21  1  0
  1 22  1  0
  1 23  1  0
  2 24  1  0
  2 25  1  0
  3 26  1  0
  3 27  1  0
  9 28  1  0
 12 29  1  0
 12 30  1  0
 12 31  1  0
 15 32  1  0
 15 33  1  0
 15 34  1  0
 18 35  1  0
 18 36  1  0
 18 37  1  0
 19 38  1  0
M  END
$$$$
