
     RDKit          3D

 46 48  0  0  0  0  0  0  0  0999 V2000
    4.9118    2.1637   -5.1744 C   0  0  0  0  0  0  0  0  0  0  0  0
    4.6243    1.0747   -4.3069 O   0  0  0  0  0  0  0  0  0  0  0  0
    3.7149    1.4513   -3.2744 C   0  0  0  0  0  0  0  0  0  0  0  0
    3.4748    0.2560   -2.3568 C   0  0  0  0  0  0  0  0  0  0  0  0
    2.4602    0.5373   -1.3810 O   0  0  0  0  0  0  0  0  0  0  0  0
    2.8685    1.2401   -0.2864 C   0  0  0  0  0  0  0  0  0  0  0  0
    4.0078    1.6638   -0.1333 O   0  0  0  0  0  0  0  0  0  0  0  0
    1.8007    1.4531    0.6756 C   0  0  0  0  0  0  0  0  0  0  0  0
    1.9440    2.1673    1.8572 C   0  0  0  0  0  0  0  0  0  0  0  0
    3.0820    2.8750    2.4863 C   0  0  0  0  0  0  0  0  0  0  0  0
    0.7724    2.1968    2.5485 O   0  0  0  0  0  0  0  0  0  0  0  0
   -0.1390    1.4984    1.8259 C   0  0  0  0  0  0  0  0  0  0  0  0
   -1.4643    1.2892    2.2019 C   0  0  0  0  0  0  0  0  0  0  0  0
   -2.2525    0.5367    1.3268 C   0  0  0  0  0  0  0  0  0  0  0  0
   -1.7213    0.0359    0.1377 C   0  0  0  0  0  0  0  0  0  0  0  0
   -2.5454   -0.7582   -0.7063 N   0  0  0  0  0  0  0  0  0  0  0  0
   -2.5159   -2.4362   -0.4860 S   0  0  0  0  0  6  0  0  0  0  0  0
   -3.1790   -3.0016   -1.6421 O   0  0  0  0  0  0  0  0  0  0  0  0
   -1.1807   -2.8512   -0.1151 O   0  0  0  0  0  0  0  0  0  0  0  0
   -3.5965   -2.6615    0.9058 C   0  0  0  0  0  0  0  0  0  0  0  0
   -3.0548   -2.9075    2.1734 C   0  0  0  0  0  0  0  0  0  0  0  0
   -3.9115   -3.0940    3.2587 C   0  0  0  0  0  0  0  0  0  0  0  0
   -5.2892   -3.0438    3.0643 C   0  0  0  0  0  0  0  0  0  0  0  0
   -6.1078   -3.2220    4.1090 F   0  0  0  0  0  0  0  0  0  0  0  0
   -5.8315   -2.8133    1.8027 C   0  0  0  0  0  0  0  0  0  0  0  0
   -4.9827   -2.6246    0.7116 C   0  0  0  0  0  0  0  0  0  0  0  0
   -0.3823    0.2596   -0.2134 C   0  0  0  0  0  0  0  0  0  0  0  0
    0.4343    1.0152    0.6548 C   0  0  0  0  0  0  0  0  0  0  0  0
    3.9977    2.5168   -5.6612 H   0  0  0  0  0  0  0  0  0  0  0  0
    5.3838    2.9809   -4.6204 H   0  0  0  0  0  0  0  0  0  0  0  0
    5.6061    1.8164   -5.9442 H   0  0  0  0  0  0  0  0  0  0  0  0
    2.7648    1.7763   -3.7150 H   0  0  0  0  0  0  0  0  0  0  0  0
    4.1238    2.2943   -2.7061 H   0  0  0  0  0  0  0  0  0  0  0  0
    3.1252   -0.5971   -2.9495 H   0  0  0  0  0  0  0  0  0  0  0  0
    4.4045   -0.0764   -1.8782 H   0  0  0  0  0  0  0  0  0  0  0  0
    2.7928    3.3212    3.4432 H   0  0  0  0  0  0  0  0  0  0  0  0
    3.9078    2.1819    2.6740 H   0  0  0  0  0  0  0  0  0  0  0  0
    3.4408    3.6778    1.8350 H   0  0  0  0  0  0  0  0  0  0  0  0
   -1.8561    1.6906    3.1290 H   0  0  0  0  0  0  0  0  0  0  0  0
   -3.2938    0.3543    1.5819 H   0  0  0  0  0  0  0  0  0  0  0  0
   -2.5574   -0.5309   -1.7006 H   0  0  0  0  0  0  0  0  0  0  0  0
   -1.9777   -2.9508    2.3216 H   0  0  0  0  0  0  0  0  0  0  0  0
   -3.5158   -3.2819    4.2523 H   0  0  0  0  0  0  0  0  0  0  0  0
   -6.9099   -2.7871    1.6790 H   0  0  0  0  0  0  0  0  0  0  0  0
   -5.4013   -2.4520   -0.2776 H   0  0  0  0  0  0  0  0  0  0  0  0
    0.0232   -0.1624   -1.1276 H   0  0  0  0  0  0  0  0  0  0  0  0
  1  2  1  0
  2  3  1  0
  3  4  1  0
  4  5  1  0
  5  6  1  0
  6  7  2  0
  6  8  1  0
  8  9  2  0
  9 10  1  0
  9 11  1  0
 11 12  1  0
 12 13  2  0
 13 14  1  0
 14 15  2  0
 15 16  1  0
 16 17  1  0
 17 18  2  0
 17 19  2  0
 17 20  1  0
 20 21  2  0
 21 22  1  0
 22 23  2  0
 23 24  1  0
 23 25  1  0
 25 26  2  0
 15 27  1  0
 27 28  2  0
 28  8  1  0
 28 12  1  0
 26 20  1  0
  1 29  1  0
  1 30  1  0
  1 31  1  0
  3 32  1  0
  3 33  1  0
  4 34  1  0
  4 35  1  0
 10 36  1  0
 10 37  1  0
 10 38  1  0
 13 39  1  0
 14 40  1  0
 16 41  1  0
 21 42  1  0
 22 43  1  0
 25 44  1  0
 26 45  1  0
 27 46  1  0
M  END
$$$$
