
     RDKit          3D

 69 72  0  0  0  0  0  0  0  0999 V2000
    9.8535    2.0683    2.2449 C   0  0  0  0  0  0  0  0  0  0  0  0
    9.4775    1.1540    1.2251 O   0  0  0  0  0  0  0  0  0  0  0  0
    8.1401    1.0338    0.9389 C   0  0  0  0  0  0  0  0  0  0  0  0
    7.1224    1.7181    1.6132 C   0  0  0  0  0  0  0  0  0  0  0  0
    5.7848    1.5376    1.2511 C   0  0  0  0  0  0  0  0  0  0  0  0
    5.4453    0.6716    0.2085 C   0  0  0  0  0  0  0  0  0  0  0  0
    4.0034    0.4610   -0.1804 C   0  0  0  0  0  0  0  0  0  0  0  0
    3.3693   -0.6988    0.5920 C   0  0  0  0  0  0  0  0  0  0  0  0
    2.0007   -0.9522    0.1734 N   0  0  0  0  0  0  0  0  0  0  0  0
    1.7320   -1.6557   -0.9786 C   0  0  0  0  0  0  0  0  0  0  0  0
    2.6154   -2.1459   -1.6778 O   0  0  0  0  0  0  0  0  0  0  0  0
    0.2619   -1.8075   -1.3454 C   0  0  0  0  0  0  0  0  0  0  0  0
   -0.3866   -0.4547   -1.6500 C   0  0  0  0  0  0  0  0  0  0  0  0
   -1.9012   -0.5698   -1.6099 C   0  0  0  0  0  0  0  0  0  0  0  0
   -2.3874   -0.9820   -0.2663 N   0  0  0  0  0  0  0  0  0  0  0  0
   -3.2471    0.1942    0.5974 S   0  0  0  0  0  6  0  0  0  0  0  0
   -3.7739   -0.4113    1.7959 O   0  0  0  0  0  0  0  0  0  0  0  0
   -2.4062    1.3675    0.6595 O   0  0  0  0  0  0  0  0  0  0  0  0
   -4.5193    0.4790   -0.4643 N   0  0  0  0  0  0  0  0  0  0  0  0
   -5.2200    1.7786   -0.3380 C   0  0  0  0  0  0  0  0  0  0  0  0
   -6.3360    1.7097    0.6915 C   0  0  0  0  0  0  0  0  0  0  0  0
   -7.3177    0.5939    0.3466 C   0  0  0  0  0  0  0  0  0  0  0  0
   -6.5894   -0.7401    0.2160 C   0  0  0  0  0  0  0  0  0  0  0  0
   -5.4362   -0.6455   -0.7731 C   0  0  0  0  0  0  0  0  0  0  0  0
   -8.3016    0.5033    1.3927 O   0  0  0  0  0  0  0  0  0  0  0  0
   -9.5528    0.4228    0.7130 C   0  0  0  0  0  0  0  0  0  0  0  0
   -9.3178    1.2328   -0.5310 C   0  0  0  0  0  0  0  0  0  0  0  0
   -7.9804    0.8931   -0.8969 O   0  0  0  0  0  0  0  0  0  0  0  0
   -1.4101   -1.7272    0.5678 C   0  0  0  0  0  0  0  0  0  0  0  0
   -0.5152   -2.6107   -0.2924 C   0  0  0  0  0  0  0  0  0  0  0  0
    6.4636   -0.0247   -0.4614 C   0  0  0  0  0  0  0  0  0  0  0  0
    7.8074    0.1507   -0.1070 C   0  0  0  0  0  0  0  0  0  0  0  0
    8.8599   -0.4846   -0.7184 O   0  0  0  0  0  0  0  0  0  0  0  0
    8.5576   -1.4313   -1.7327 C   0  0  0  0  0  0  0  0  0  0  0  0
   10.9456    2.0699    2.3069 H   0  0  0  0  0  0  0  0  0  0  0  0
    9.5348    3.0884    2.0037 H   0  0  0  0  0  0  0  0  0  0  0  0
    9.4670    1.7492    3.2182 H   0  0  0  0  0  0  0  0  0  0  0  0
    7.3358    2.3987    2.4300 H   0  0  0  0  0  0  0  0  0  0  0  0
    5.0132    2.0842    1.7891 H   0  0  0  0  0  0  0  0  0  0  0  0
    3.9426    0.2859   -1.2624 H   0  0  0  0  0  0  0  0  0  0  0  0
    3.4336    1.3830   -0.0054 H   0  0  0  0  0  0  0  0  0  0  0  0
    3.3423   -0.4806    1.6650 H   0  0  0  0  0  0  0  0  0  0  0  0
    3.9507   -1.6187    0.4552 H   0  0  0  0  0  0  0  0  0  0  0  0
    1.2673   -0.4209    0.6232 H   0  0  0  0  0  0  0  0  0  0  0  0
    0.2506   -2.4017   -2.2710 H   0  0  0  0  0  0  0  0  0  0  0  0
   -0.0647   -0.1160   -2.6427 H   0  0  0  0  0  0  0  0  0  0  0  0
   -0.0619    0.3209   -0.9463 H   0  0  0  0  0  0  0  0  0  0  0  0
   -2.2472   -1.3192   -2.3311 H   0  0  0  0  0  0  0  0  0  0  0  0
   -2.3406    0.3814   -1.9251 H   0  0  0  0  0  0  0  0  0  0  0  0
   -4.5186    2.5760   -0.0743 H   0  0  0  0  0  0  0  0  0  0  0  0
   -5.6173    2.0489   -1.3247 H   0  0  0  0  0  0  0  0  0  0  0  0
   -6.8580    2.6740    0.7246 H   0  0  0  0  0  0  0  0  0  0  0  0
   -5.9256    1.5475    1.6953 H   0  0  0  0  0  0  0  0  0  0  0  0
   -7.2835   -1.5171   -0.1267 H   0  0  0  0  0  0  0  0  0  0  0  0
   -6.2330   -1.0664    1.2000 H   0  0  0  0  0  0  0  0  0  0  0  0
   -4.8909   -1.5950   -0.7976 H   0  0  0  0  0  0  0  0  0  0  0  0
   -5.8171   -0.4968   -1.7913 H   0  0  0  0  0  0  0  0  0  0  0  0
   -9.7478   -0.6296    0.4797 H   0  0  0  0  0  0  0  0  0  0  0  0
  -10.3591    0.8123    1.3395 H   0  0  0  0  0  0  0  0  0  0  0  0
   -9.3529    2.3063   -0.3216 H   0  0  0  0  0  0  0  0  0  0  0  0
  -10.0126    0.9973   -1.3410 H   0  0  0  0  0  0  0  0  0  0  0  0
   -0.8027   -1.0303    1.1559 H   0  0  0  0  0  0  0  0  0  0  0  0
   -1.9618   -2.3661    1.2678 H   0  0  0  0  0  0  0  0  0  0  0  0
    0.1623   -3.1873    0.3486 H   0  0  0  0  0  0  0  0  0  0  0  0
   -1.1488   -3.3433   -0.8110 H   0  0  0  0  0  0  0  0  0  0  0  0
    6.1798   -0.6989   -1.2644 H   0  0  0  0  0  0  0  0  0  0  0  0
    8.0737   -0.9523   -2.5910 H   0  0  0  0  0  0  0  0  0  0  0  0
    7.9477   -2.2514   -1.3405 H   0  0  0  0  0  0  0  0  0  0  0  0
    9.5012   -1.8604   -2.0828 H   0  0  0  0  0  0  0  0  0  0  0  0
  1  2  1  0
  2  3  1  0
  3  4  2  0
  4  5  1  0
  5  6  2  0
  6  7  1  0
  7  8  1  0
  8  9  1  0
  9 10  1  0
 10 11  2  0
 10 12  1  0
 12 13  1  0
 13 14  1  0
 14 15  1  0
 15 16  1  0
 16 17  2  0
 16 18  2  0
 16 19  1  0
 19 20  1  0
 20 21  1  0
 21 22  1  0
 22 23  1  0
 23 24  1  0
 22 25  1  0
 25 26  1  0
 26 27  1  0
 27 28  1  0
 15 29  1  0
 29 30  1  0
  6 31  1  0
 31 32  2  0
 32 33  1  0
 33 34  1  0
 32  3  1  0
 30 12  1  0
 24 19  1  0
 28 22  1  0
  1 35  1  0
  1 36  1  0
  1 37  1  0
  4 38  1  0
  5 39  1  0
  7 40  1  0
  7 41  1  0
  8 42  1  0
  8 43  1  0
  9 44  1  0
 12 45  1  0
 13 46  1  0
 13 47  1  0
 14 48  1  0
 14 49  1  0
 20 50  1  0
 20 51  1  0
 21 52  1  0
 21 53  1  0
 23 54  1  0
 23 55  1  0
 24 56  1  0
 24 57  1  0
 26 58  1  0
 26 59  1  0
 27 60  1  0
 27 61  1  0
 29 62  1  0
 29 63  1  0
 30 64  1  0
 30 65  1  0
 31 66  1  0
 34 67  1  0
 34 68  1  0
 34 69  1  0
M  END
$$$$
