
     RDKit          3D

 52 55  0  0  0  0  0  0  0  0999 V2000
   -3.9653   -2.2124    0.8613 C   0  0  0  0  0  0  0  0  0  0  0  0
   -3.9129   -1.1519   -0.2040 C   0  0  0  0  0  0  0  0  0  0  0  0
   -3.5145   -1.5353   -1.4979 C   0  0  0  0  0  0  0  0  0  0  0  0
   -3.4578   -0.6089   -2.5423 C   0  0  0  0  0  0  0  0  0  0  0  0
   -3.8145    0.7221   -2.3059 C   0  0  0  0  0  0  0  0  0  0  0  0
   -3.7531    1.6968   -3.4033 N   0  0  0  0  0  4  0  0  0  0  0  0
   -4.0392    2.8737   -3.1458 O   0  0  0  0  0  0  0  0  0  0  0  0
   -3.4158    1.2822   -4.5213 O   0  0  0  0  0  1  0  0  0  0  0  0
   -4.2287    1.1296   -1.0342 C   0  0  0  0  0  0  0  0  0  0  0  0
   -4.2718    0.1950    0.0155 C   0  0  0  0  0  0  0  0  0  0  0  0
   -4.8044    0.7945    1.6213 S   0  0  0  0  0  6  0  0  0  0  0  0
   -5.3646    2.1160    1.4387 O   0  0  0  0  0  0  0  0  0  0  0  0
   -5.5722   -0.2510    2.2614 O   0  0  0  0  0  0  0  0  0  0  0  0
   -3.3542    0.9258    2.4752 N   0  0  0  0  0  0  0  0  0  0  0  0
   -2.2657    1.6305    1.8916 C   0  0  0  0  0  0  0  0  0  0  0  0
   -2.3509    2.9975    1.6472 C   0  0  0  0  0  0  0  0  0  0  0  0
   -1.2926    3.6536    1.0261 C   0  0  0  0  0  0  0  0  0  0  0  0
   -0.1554    2.9379    0.6428 C   0  0  0  0  0  0  0  0  0  0  0  0
   -0.0482    1.5525    0.8675 C   0  0  0  0  0  0  0  0  0  0  0  0
    1.1519    0.8130    0.4403 C   0  0  0  0  0  0  0  0  0  0  0  0
    1.1339   -0.4943   -0.0200 C   0  0  0  0  0  0  0  0  0  0  0  0
    2.3314   -1.1039   -0.4068 C   0  0  0  0  0  0  0  0  0  0  0  0
    3.5332   -0.4129   -0.3297 C   0  0  0  0  0  0  0  0  0  0  0  0
    4.7264   -0.9797   -0.7222 N   0  0  0  0  0  0  0  0  0  0  0  0
    5.9543   -0.2074   -0.5595 C   0  0  0  0  0  0  0  0  0  0  0  0
    7.0387   -1.2074   -0.9472 C   0  0  0  0  0  0  0  0  0  0  0  0
    6.4904   -2.5158   -0.4000 C   0  0  0  0  0  0  0  0  0  0  0  0
    4.9854   -2.4136   -0.6553 C   0  0  0  0  0  0  0  0  0  0  0  0
    3.5031    0.8641    0.1040 N   0  0  0  0  0  0  0  0  0  0  0  0
    2.3212    1.4782    0.4941 N   0  0  0  0  0  0  0  0  0  0  0  0
   -1.1256    0.9151    1.5103 C   0  0  0  0  0  0  0  0  0  0  0  0
   -3.4424   -3.1209    0.5415 H   0  0  0  0  0  0  0  0  0  0  0  0
   -5.0025   -2.4880    1.0733 H   0  0  0  0  0  0  0  0  0  0  0  0
   -3.4681   -1.8786    1.7762 H   0  0  0  0  0  0  0  0  0  0  0  0
   -3.2471   -2.5711   -1.7067 H   0  0  0  0  0  0  0  0  0  0  0  0
   -3.1419   -0.9425   -3.5295 H   0  0  0  0  0  0  0  0  0  0  0  0
   -4.5094    2.1669   -0.8537 H   0  0  0  0  0  0  0  0  0  0  0  0
   -3.1551    0.1075    3.0471 H   0  0  0  0  0  0  0  0  0  0  0  0
   -3.2307    3.5635    1.9449 H   0  0  0  0  0  0  0  0  0  0  0  0
   -1.3496    4.7234    0.8383 H   0  0  0  0  0  0  0  0  0  0  0  0
    0.6594    3.4748    0.1557 H   0  0  0  0  0  0  0  0  0  0  0  0
    0.2058   -1.0468   -0.1117 H   0  0  0  0  0  0  0  0  0  0  0  0
    2.3031   -2.1174   -0.7910 H   0  0  0  0  0  0  0  0  0  0  0  0
    6.0881    0.1039    0.4840 H   0  0  0  0  0  0  0  0  0  0  0  0
    5.9798    0.6743   -1.2084 H   0  0  0  0  0  0  0  0  0  0  0  0
    8.0167   -0.9488   -0.5322 H   0  0  0  0  0  0  0  0  0  0  0  0
    7.1291   -1.2660   -2.0385 H   0  0  0  0  0  0  0  0  0  0  0  0
    6.9357   -3.3955   -0.8731 H   0  0  0  0  0  0  0  0  0  0  0  0
    6.6816   -2.5765    0.6784 H   0  0  0  0  0  0  0  0  0  0  0  0
    4.4366   -2.9162    0.1491 H   0  0  0  0  0  0  0  0  0  0  0  0
    4.7230   -2.8798   -1.6114 H   0  0  0  0  0  0  0  0  0  0  0  0
   -1.0752   -0.1498    1.7214 H   0  0  0  0  0  0  0  0  0  0  0  0
  1  2  1  0
  2  3  2  0
  3  4  1  0
  4  5  2  0
  5  6  1  0
  6  7  2  0
  6  8  1  0
  5  9  1  0
  9 10  2  0
 10 11  1  0
 11 12  2  0
 11 13  2  0
 11 14  1  0
 14 15  1  0
 15 16  2  0
 16 17  1  0
 17 18  2  0
 18 19  1  0
 19 20  1  0
 20 21  2  0
 21 22  1  0
 22 23  2  0
 23 24  1  0
 24 25  1  0
 25 26  1  0
 26 27  1  0
 27 28  1  0
 23 29  1  0
 29 30  2  0
 19 31  2  0
 10  2  1  0
 31 15  1  0
 30 20  1  0
 28 24  1  0
  1 32  1  0
  1 33  1  0
  1 34  1  0
  3 35  1  0
  4 36  1  0
  9 37  1  0
 14 38  1  0
 16 39  1  0
 17 40  1  0
 18 41  1  0
 21 42  1  0
 22 43  1  0
 25 44  1  0
 25 45  1  0
 26 46  1  0
 26 47  1  0
 27 48  1  0
 27 49  1  0
 28 50  1  0
 28 51  1  0
 31 52  1  0
M  CHG  2   6   1   8  -1
M  END
$$$$
