
     RDKit          3D

 39 41  0  0  0  0  0  0  0  0999 V2000
   -1.7041   -2.0745   -1.0211 O   0  0  0  0  0  0  0  0  0  0  0  0
   -2.9147   -1.9377   -1.0330 C   0  0  0  0  0  0  0  0  0  0  0  0
   -3.7448   -2.9631   -1.3048 O   0  0  0  0  0  0  0  0  0  0  0  0
   -3.6394   -0.6681   -0.8121 C   0  0  0  0  0  0  0  0  0  0  0  0
   -4.6784   -0.3872   -1.6590 N   0  0  0  0  0  0  0  0  0  0  0  0
   -5.2365    0.8358   -1.5093 C   0  0  0  0  0  0  0  0  0  0  0  0
   -4.7735    1.7574   -0.5830 C   0  0  0  0  0  0  0  0  0  0  0  0
   -3.7398    1.4954    0.2496 N   0  0  0  0  0  0  0  0  0  0  0  0
   -3.1853    0.2495    0.1218 C   0  0  0  0  0  0  0  0  0  0  0  0
   -2.1603   -0.1261    1.1246 C   0  0  0  0  0  0  0  0  0  0  0  0
   -2.3481   -1.1589    1.7669 O   0  0  0  0  0  0  0  0  0  0  0  0
   -1.0674    0.7168    1.3310 N   0  0  0  0  0  0  0  0  0  0  0  0
   -0.5445    1.6293    0.3041 C   0  0  0  0  0  0  0  0  0  0  0  0
    0.6409    0.9781   -0.4452 C   0  0  0  0  0  0  0  0  0  0  0  0
    1.6809    0.5405    0.5160 N   0  0  0  0  0  0  0  0  0  0  0  0
    2.9132    0.1119   -0.0074 C   0  0  0  0  0  0  0  0  0  0  0  0
    3.1022   -0.2651   -1.3447 C   0  0  0  0  0  0  0  0  0  0  0  0
    4.3543   -0.6781   -1.8168 C   0  0  0  0  0  0  0  0  0  0  0  0
    5.4493   -0.7143   -0.9597 C   0  0  0  0  0  0  0  0  0  0  0  0
    5.2925   -0.3348    0.3682 C   0  0  0  0  0  0  0  0  0  0  0  0
    4.0389    0.0744    0.8336 C   0  0  0  0  0  0  0  0  0  0  0  0
    1.1481   -0.3715    1.5694 C   0  0  0  0  0  0  0  0  0  0  0  0
   -0.0435    0.2929    2.2894 C   0  0  0  0  0  0  0  0  0  0  0  0
   -3.1564   -3.7347   -1.4343 H   0  0  0  0  0  0  0  0  0  0  0  0
   -6.0709    1.0614   -2.1651 H   0  0  0  0  0  0  0  0  0  0  0  0
   -5.2306    2.7362   -0.4813 H   0  0  0  0  0  0  0  0  0  0  0  0
   -1.3123    1.9127   -0.4181 H   0  0  0  0  0  0  0  0  0  0  0  0
   -0.2118    2.5391    0.8175 H   0  0  0  0  0  0  0  0  0  0  0  0
    0.2701    0.1188   -1.0182 H   0  0  0  0  0  0  0  0  0  0  0  0
    1.0531    1.7162   -1.1436 H   0  0  0  0  0  0  0  0  0  0  0  0
    2.2758   -0.2682   -2.0482 H   0  0  0  0  0  0  0  0  0  0  0  0
    4.4681   -0.9737   -2.8563 H   0  0  0  0  0  0  0  0  0  0  0  0
    6.4207   -1.0334   -1.3264 H   0  0  0  0  0  0  0  0  0  0  0  0
    6.1425   -0.3485    1.0445 H   0  0  0  0  0  0  0  0  0  0  0  0
    3.9483    0.3938    1.8689 H   0  0  0  0  0  0  0  0  0  0  0  0
    1.9074   -0.6083    2.3229 H   0  0  0  0  0  0  0  0  0  0  0  0
    0.8254   -1.3130    1.1059 H   0  0  0  0  0  0  0  0  0  0  0  0
    0.2942    1.1913    2.8201 H   0  0  0  0  0  0  0  0  0  0  0  0
   -0.4635   -0.3922    3.0328 H   0  0  0  0  0  0  0  0  0  0  0  0
  1  2  2  0
  2  3  1  0
  2  4  1  0
  4  5  2  0
  5  6  1  0
  6  7  2  0
  7  8  1  0
  8  9  2  0
  9 10  1  0
 10 11  2  0
 10 12  1  0
 12 13  1  0
 13 14  1  0
 14 15  1  0
 15 16  1  0
 16 17  2  0
 17 18  1  0
 18 19  2  0
 19 20  1  0
 20 21  2  0
 15 22  1  0
 22 23  1  0
  9  4  1  0
 23 12  1  0
 21 16  1  0
  3 24  1  0
  6 25  1  0
  7 26  1  0
 13 27  1  0
 13 28  1  0
 14 29  1  0
 14 30  1  0
 17 31  1  0
 18 32  1  0
 19 33  1  0
 20 34  1  0
 21 35  1  0
 22 36  1  0
 22 37  1  0
 23 38  1  0
 23 39  1  0
M  END
$$$$
