
     RDKit          3D

 38 39  0  0  0  0  0  0  0  0999 V2000
   -5.7344   -0.7457    2.2370 C   0  0  0  0  0  0  0  0  0  0  0  0
   -5.2723    0.1965    1.2784 O   0  0  0  0  0  0  0  0  0  0  0  0
   -3.9176    0.4067    1.2057 C   0  0  0  0  0  0  0  0  0  0  0  0
   -3.0073    0.0202    2.1960 C   0  0  0  0  0  0  0  0  0  0  0  0
   -1.6483    0.3106    2.0544 C   0  0  0  0  0  0  0  0  0  0  0  0
   -1.1915    0.9882    0.9199 C   0  0  0  0  0  0  0  0  0  0  0  0
    0.2660    1.2905    0.7753 C   0  0  0  0  0  0  0  0  0  0  0  0
    0.6537    2.4163    0.2532 N   0  0  0  0  0  0  0  0  0  0  0  0
    1.1629    0.3397    1.2230 N   0  0  0  0  0  0  0  0  0  0  0  0
    2.4657    0.5603    0.7353 O   0  0  0  0  0  0  0  0  0  0  0  0
    2.8199   -0.3621   -0.2140 C   0  0  0  0  0  0  0  0  0  0  0  0
    2.1241   -1.3291   -0.5147 O   0  0  0  0  0  0  0  0  0  0  0  0
    4.1456    0.0118   -0.8309 C   0  0  0  0  0  0  0  0  0  0  0  0
    5.0410   -1.1869   -0.9031 C   0  0  0  0  0  0  0  0  0  0  0  0
    5.1510   -2.1157   -1.9194 C   0  0  0  0  0  0  0  0  0  0  0  0
    6.1188   -3.1214   -1.6307 C   0  0  0  0  0  0  0  0  0  0  0  0
    6.7163   -2.9262   -0.4062 C   0  0  0  0  0  0  0  0  0  0  0  0
    6.1109   -1.5399    0.3903 S   0  0  0  0  0  0  0  0  0  0  0  0
   -2.0901    1.3612   -0.0842 C   0  0  0  0  0  0  0  0  0  0  0  0
   -3.4546    1.0863    0.0608 C   0  0  0  0  0  0  0  0  0  0  0  0
   -4.4000    1.3968   -0.8864 O   0  0  0  0  0  0  0  0  0  0  0  0
   -4.0701    2.4220   -1.8134 C   0  0  0  0  0  0  0  0  0  0  0  0
   -6.8159   -0.8571    2.1011 H   0  0  0  0  0  0  0  0  0  0  0  0
   -5.2753   -1.7271    2.0756 H   0  0  0  0  0  0  0  0  0  0  0  0
   -5.5645   -0.3912    3.2606 H   0  0  0  0  0  0  0  0  0  0  0  0
   -3.3272   -0.4884    3.0982 H   0  0  0  0  0  0  0  0  0  0  0  0
   -0.9603    0.0229    2.8456 H   0  0  0  0  0  0  0  0  0  0  0  0
   -0.1406    3.0236    0.0354 H   0  0  0  0  0  0  0  0  0  0  0  0
    0.8666   -0.6308    1.0936 H   0  0  0  0  0  0  0  0  0  0  0  0
    4.6185    0.8146   -0.2523 H   0  0  0  0  0  0  0  0  0  0  0  0
    3.9496    0.4113   -1.8338 H   0  0  0  0  0  0  0  0  0  0  0  0
    4.5581   -2.0854   -2.8259 H   0  0  0  0  0  0  0  0  0  0  0  0
    6.3611   -3.9480   -2.2860 H   0  0  0  0  0  0  0  0  0  0  0  0
    7.4800   -3.5321    0.0632 H   0  0  0  0  0  0  0  0  0  0  0  0
   -1.7079    1.8281   -0.9856 H   0  0  0  0  0  0  0  0  0  0  0  0
   -4.9851    2.6999   -2.3439 H   0  0  0  0  0  0  0  0  0  0  0  0
   -3.6957    3.3186   -1.3062 H   0  0  0  0  0  0  0  0  0  0  0  0
   -3.3513    2.0609   -2.5580 H   0  0  0  0  0  0  0  0  0  0  0  0
  1  2  1  0
  2  3  1  0
  3  4  2  0
  4  5  1  0
  5  6  2  0
  6  7  1  0
  7  8  2  3
  7  9  1  0
  9 10  1  0
 10 11  1  0
 11 12  2  0
 11 13  1  0
 13 14  1  0
 14 15  2  0
 15 16  1  0
 16 17  2  0
 17 18  1  0
  6 19  1  0
 19 20  2  0
 20 21  1  0
 21 22  1  0
 20  3  1  0
 18 14  1  0
  1 23  1  0
  1 24  1  0
  1 25  1  0
  4 26  1  0
  5 27  1  0
  8 28  1  0
  9 29  1  0
 13 30  1  0
 13 31  1  0
 15 32  1  0
 16 33  1  0
 17 34  1  0
 19 35  1  0
 22 36  1  0
 22 37  1  0
 22 38  1  0
M  END
$$$$
