
     RDKit          3D

 70 75  0  0  0  0  0  0  0  0999 V2000
   -2.4880   -1.4132   -5.8452 C   0  0  0  0  0  0  0  0  0  0  0  0
   -1.9706   -0.6564   -4.6587 C   0  0  0  0  0  0  0  0  0  0  0  0
   -1.0748   -1.2565   -3.7683 C   0  0  0  0  0  0  0  0  0  0  0  0
   -0.6158   -0.5602   -2.6464 C   0  0  0  0  0  0  0  0  0  0  0  0
   -1.0479    0.7459   -2.3862 C   0  0  0  0  0  0  0  0  0  0  0  0
   -0.5605    1.5098   -1.1677 C   0  0  0  0  0  0  0  0  0  0  0  0
   -1.1636    1.0320    0.0693 N   0  0  0  0  0  0  0  0  0  0  0  0
   -2.5003    1.4235    0.2794 C   0  0  0  0  0  0  0  0  0  0  0  0
   -3.0356    2.3381   -0.3531 O   0  0  0  0  0  0  0  0  0  0  0  0
   -3.3003    0.5466    1.2612 C   0  0  0  0  0  0  0  0  0  0  0  0
   -4.5913    1.2641    1.6965 C   0  0  0  0  0  0  0  0  0  0  0  0
   -5.5182    0.3766    2.4997 C   0  0  0  0  0  0  0  0  0  0  0  0
   -6.3348   -0.5636    1.8559 C   0  0  0  0  0  0  0  0  0  0  0  0
   -7.1681   -1.4009    2.5991 C   0  0  0  0  0  0  0  0  0  0  0  0
   -7.1912   -1.3078    3.9899 C   0  0  0  0  0  0  0  0  0  0  0  0
   -6.3852   -0.3747    4.6389 C   0  0  0  0  0  0  0  0  0  0  0  0
   -5.5525    0.4647    3.8982 C   0  0  0  0  0  0  0  0  0  0  0  0
   -2.4878    0.2091    2.4269 N   0  0  0  0  0  0  0  0  0  0  0  0
   -1.2694   -0.3758    2.0710 C   0  0  0  0  0  0  0  0  0  0  0  0
   -0.8591   -1.3331    2.9159 N   0  0  0  0  0  0  0  0  0  0  0  0
    0.3428   -1.8460    2.6696 C   0  0  0  0  0  0  0  0  0  0  0  0
    1.1725   -1.4594    1.6981 N   0  0  0  0  0  0  0  0  0  0  0  0
    0.7526   -0.4736    0.8693 C   0  0  0  0  0  0  0  0  0  0  0  0
    1.7294    0.0322   -0.0178 N   0  0  0  0  0  0  0  0  0  0  0  0
    2.6201   -1.0262   -0.5682 C   0  0  0  0  0  0  0  0  0  0  0  0
    3.9949   -1.1149    0.1307 C   0  0  0  0  0  0  0  0  0  0  0  0
    4.7050    0.1782    0.0699 N   0  0  0  0  0  0  0  0  0  0  0  0
    6.0868    0.2549    0.0426 C   0  0  0  0  0  0  0  0  0  0  0  0
    6.7581    1.4050   -0.4058 C   0  0  0  0  0  0  0  0  0  0  0  0
    8.1564    1.4861   -0.4392 C   0  0  0  0  0  0  0  0  0  0  0  0
    8.9278    0.4100   -0.0206 C   0  0  0  0  0  0  0  0  0  0  0  0
    8.2979   -0.7420    0.4316 C   0  0  0  0  0  0  0  0  0  0  0  0
    6.8991   -0.8123    0.4620 C   0  0  0  0  0  0  0  0  0  0  0  0
    3.8573    1.3834    0.0309 C   0  0  0  0  0  0  0  0  0  0  0  0
    2.4799    1.1182    0.6806 C   0  0  0  0  0  0  0  0  0  0  0  0
   -0.5371    0.0790    0.9622 C   0  0  0  0  0  0  0  0  0  0  0  0
   -1.9629    1.3346   -3.2716 C   0  0  0  0  0  0  0  0  0  0  0  0
   -2.4226    0.6397   -4.3934 C   0  0  0  0  0  0  0  0  0  0  0  0
   -2.6968   -0.7335   -6.6794 H   0  0  0  0  0  0  0  0  0  0  0  0
   -1.7483   -2.1409   -6.1970 H   0  0  0  0  0  0  0  0  0  0  0  0
   -3.4080   -1.9442   -5.5793 H   0  0  0  0  0  0  0  0  0  0  0  0
   -0.7260   -2.2721   -3.9416 H   0  0  0  0  0  0  0  0  0  0  0  0
    0.0800   -1.0523   -1.9744 H   0  0  0  0  0  0  0  0  0  0  0  0
   -0.8325    2.5685   -1.2851 H   0  0  0  0  0  0  0  0  0  0  0  0
    0.5246    1.5365   -1.1586 H   0  0  0  0  0  0  0  0  0  0  0  0
   -3.5655   -0.3721    0.7182 H   0  0  0  0  0  0  0  0  0  0  0  0
   -5.1471    1.6234    0.8201 H   0  0  0  0  0  0  0  0  0  0  0  0
   -4.3458    2.1641    2.2771 H   0  0  0  0  0  0  0  0  0  0  0  0
   -6.3295   -0.6484    0.7709 H   0  0  0  0  0  0  0  0  0  0  0  0
   -7.7995   -2.1269    2.0936 H   0  0  0  0  0  0  0  0  0  0  0  0
   -7.8395   -1.9609    4.5679 H   0  0  0  0  0  0  0  0  0  0  0  0
   -6.4033   -0.3010    5.7237 H   0  0  0  0  0  0  0  0  0  0  0  0
   -4.9260    1.1859    4.4195 H   0  0  0  0  0  0  0  0  0  0  0  0
   -2.9348   -0.3968    3.1120 H   0  0  0  0  0  0  0  0  0  0  0  0
    0.6867   -2.6367    3.3269 H   0  0  0  0  0  0  0  0  0  0  0  0
    2.1331   -2.0100   -0.5803 H   0  0  0  0  0  0  0  0  0  0  0  0
    2.7899   -0.7726   -1.6230 H   0  0  0  0  0  0  0  0  0  0  0  0
    3.8784   -1.4128    1.1787 H   0  0  0  0  0  0  0  0  0  0  0  0
    4.5641   -1.8974   -0.3841 H   0  0  0  0  0  0  0  0  0  0  0  0
    6.2013    2.2654   -0.7655 H   0  0  0  0  0  0  0  0  0  0  0  0
    8.6367    2.3922   -0.7988 H   0  0  0  0  0  0  0  0  0  0  0  0
   10.0118    0.4693   -0.0463 H   0  0  0  0  0  0  0  0  0  0  0  0
    8.8890   -1.5900    0.7675 H   0  0  0  0  0  0  0  0  0  0  0  0
    6.4549   -1.7255    0.8485 H   0  0  0  0  0  0  0  0  0  0  0  0
    4.3259    2.2072    0.5820 H   0  0  0  0  0  0  0  0  0  0  0  0
    3.7228    1.6977   -1.0108 H   0  0  0  0  0  0  0  0  0  0  0  0
    1.8907    2.0421    0.6536 H   0  0  0  0  0  0  0  0  0  0  0  0
    2.6464    0.8673    1.7377 H   0  0  0  0  0  0  0  0  0  0  0  0
   -2.3376    2.3400   -3.0840 H   0  0  0  0  0  0  0  0  0  0  0  0
   -3.1391    1.1194   -5.0563 H   0  0  0  0  0  0  0  0  0  0  0  0
  1  2  1  0
  2  3  2  0
  3  4  1  0
  4  5  2  0
  5  6  1  0
  6  7  1  0
  7  8  1  0
  8  9  2  0
  8 10  1  0
 10 11  1  0
 11 12  1  0
 12 13  2  0
 13 14  1  0
 14 15  2  0
 15 16  1  0
 16 17  2  0
 10 18  1  0
 18 19  1  0
 19 20  2  0
 20 21  1  0
 21 22  2  0
 22 23  1  0
 23 24  1  0
 24 25  1  0
 25 26  1  0
 26 27  1  0
 27 28  1  0
 28 29  2  0
 29 30  1  0
 30 31  2  0
 31 32  1  0
 32 33  2  0
 27 34  1  0
 34 35  1  0
 23 36  2  0
  5 37  1  0
 37 38  2  0
 38  2  1  0
 36  7  1  0
 17 12  1  0
 36 19  1  0
 35 24  1  0
 33 28  1  0
  1 39  1  0
  1 40  1  0
  1 41  1  0
  3 42  1  0
  4 43  1  0
  6 44  1  0
  6 45  1  0
 10 46  1  0
 11 47  1  0
 11 48  1  0
 13 49  1  0
 14 50  1  0
 15 51  1  0
 16 52  1  0
 17 53  1  0
 18 54  1  0
 21 55  1  0
 25 56  1  0
 25 57  1  0
 26 58  1  0
 26 59  1  0
 29 60  1  0
 30 61  1  0
 31 62  1  0
 32 63  1  0
 33 64  1  0
 34 65  1  0
 34 66  1  0
 35 67  1  0
 35 68  1  0
 37 69  1  0
 38 70  1  0
M  END
$$$$
