
     RDKit          3D

 55 57  0  0  0  0  0  0  0  0999 V2000
    1.1912   -0.7133   -1.5306 O   0  0  0  0  0  0  0  0  0  0  0  0
    1.6492    0.0874   -0.7197 C   0  0  0  0  0  0  0  0  0  0  0  0
    0.7743    0.8197    0.3000 C   0  0  0  0  0  0  0  0  0  0  0  0
   -0.4975    0.1963    0.4703 O   0  0  0  0  0  0  0  0  0  0  0  0
   -0.4584   -0.9431    1.2267 C   0  0  0  0  0  0  0  0  0  0  0  0
    0.5393   -1.3498    1.8116 O   0  0  0  0  0  0  0  0  0  0  0  0
   -1.8354   -1.6181    1.2950 C   0  0  0  0  0  0  0  0  0  0  0  0
   -2.3133   -1.6820    2.7578 C   0  0  0  0  0  0  0  0  0  0  0  0
   -2.5647   -0.3272    3.3875 C   0  0  0  0  0  0  0  0  0  0  0  0
   -3.8168    0.2910    3.2662 C   0  0  0  0  0  0  0  0  0  0  0  0
   -4.0416    1.5502    3.8239 C   0  0  0  0  0  0  0  0  0  0  0  0
   -3.0193    2.2020    4.5105 C   0  0  0  0  0  0  0  0  0  0  0  0
   -1.7725    1.5940    4.6435 C   0  0  0  0  0  0  0  0  0  0  0  0
   -1.5452    0.3349    4.0859 C   0  0  0  0  0  0  0  0  0  0  0  0
   -2.8064   -0.9722    0.4075 N   0  0  0  0  0  0  0  0  0  0  0  0
   -3.9623   -1.5979   -0.0040 C   0  0  0  0  0  0  0  0  0  0  0  0
   -4.2295   -2.7309    0.3917 O   0  0  0  0  0  0  0  0  0  0  0  0
   -4.8057   -0.8178   -0.9033 C   0  0  0  0  0  0  0  0  0  0  0  0
   -4.7001    0.4981   -1.3241 C   0  0  0  0  0  0  0  0  0  0  0  0
   -5.7463    0.8780   -2.2173 C   0  0  0  0  0  0  0  0  0  0  0  0
   -6.6231   -0.1550   -2.4516 C   0  0  0  0  0  0  0  0  0  0  0  0
   -6.1903   -1.5675   -1.5957 S   0  0  0  0  0  0  0  0  0  0  0  0
    2.9872    0.4238   -0.6542 N   0  0  0  0  0  0  0  0  0  0  0  0
    3.9565   -0.1105   -1.6001 C   0  0  0  0  0  0  0  0  0  0  0  0
    5.3667   -0.0664   -1.0109 C   0  0  0  0  0  0  0  0  0  0  0  0
    6.3946   -0.7139   -1.9414 C   0  0  0  0  0  0  0  0  0  0  0  0
    6.0292   -0.6113   -3.4231 C   0  0  0  0  0  0  0  0  0  0  0  0
    5.2056    0.6343   -3.7172 C   0  0  0  0  0  0  0  0  0  0  0  0
    3.8877    0.6456   -2.9387 C   0  0  0  0  0  0  0  0  0  0  0  0
    1.2930    0.9246    1.2603 H   0  0  0  0  0  0  0  0  0  0  0  0
    0.5927    1.8278   -0.0878 H   0  0  0  0  0  0  0  0  0  0  0  0
   -1.6953   -2.6387    0.9172 H   0  0  0  0  0  0  0  0  0  0  0  0
   -1.5745   -2.2206    3.3660 H   0  0  0  0  0  0  0  0  0  0  0  0
   -3.2342   -2.2746    2.8285 H   0  0  0  0  0  0  0  0  0  0  0  0
   -4.6281   -0.2091    2.7407 H   0  0  0  0  0  0  0  0  0  0  0  0
   -5.0177    2.0187    3.7279 H   0  0  0  0  0  0  0  0  0  0  0  0
   -3.1974    3.1799    4.9500 H   0  0  0  0  0  0  0  0  0  0  0  0
   -0.9781    2.0974    5.1883 H   0  0  0  0  0  0  0  0  0  0  0  0
   -0.5674   -0.1283    4.2063 H   0  0  0  0  0  0  0  0  0  0  0  0
   -2.5470   -0.0679    0.0391 H   0  0  0  0  0  0  0  0  0  0  0  0
   -3.9179    1.1779   -1.0117 H   0  0  0  0  0  0  0  0  0  0  0  0
   -5.8499    1.8601   -2.6629 H   0  0  0  0  0  0  0  0  0  0  0  0
   -7.5016   -0.1502   -3.0824 H   0  0  0  0  0  0  0  0  0  0  0  0
    3.2746    1.1850   -0.0527 H   0  0  0  0  0  0  0  0  0  0  0  0
    3.6911   -1.1608   -1.7811 H   0  0  0  0  0  0  0  0  0  0  0  0
    5.3951   -0.5636   -0.0334 H   0  0  0  0  0  0  0  0  0  0  0  0
    5.6526    0.9779   -0.8258 H   0  0  0  0  0  0  0  0  0  0  0  0
    6.5151   -1.7728   -1.6821 H   0  0  0  0  0  0  0  0  0  0  0  0
    7.3704   -0.2447   -1.7664 H   0  0  0  0  0  0  0  0  0  0  0  0
    6.9429   -0.6153   -4.0281 H   0  0  0  0  0  0  0  0  0  0  0  0
    5.4559   -1.4990   -3.7187 H   0  0  0  0  0  0  0  0  0  0  0  0
    5.7916    1.5230   -3.4506 H   0  0  0  0  0  0  0  0  0  0  0  0
    4.9986    0.7086   -4.7908 H   0  0  0  0  0  0  0  0  0  0  0  0
    3.5853    1.6895   -2.7839 H   0  0  0  0  0  0  0  0  0  0  0  0
    3.0971    0.1965   -3.5537 H   0  0  0  0  0  0  0  0  0  0  0  0
  1  2  2  0
  2  3  1  0
  3  4  1  0
  4  5  1  0
  5  6  2  0
  5  7  1  0
  7  8  1  0
  8  9  1  0
  9 10  2  0
 10 11  1  0
 11 12  2  0
 12 13  1  0
 13 14  2  0
  7 15  1  0
 15 16  1  0
 16 17  2  0
 16 18  1  0
 18 19  2  0
 19 20  1  0
 20 21  2  0
 21 22  1  0
  2 23  1  0
 23 24  1  0
 24 25  1  0
 25 26  1  0
 26 27  1  0
 27 28  1  0
 28 29  1  0
 14  9  1  0
 22 18  1  0
 29 24  1  0
  3 30  1  0
  3 31  1  0
  7 32  1  0
  8 33  1  0
  8 34  1  0
 10 35  1  0
 11 36  1  0
 12 37  1  0
 13 38  1  0
 14 39  1  0
 15 40  1  0
 19 41  1  0
 20 42  1  0
 21 43  1  0
 23 44  1  0
 24 45  1  0
 25 46  1  0
 25 47  1  0
 26 48  1  0
 26 49  1  0
 27 50  1  0
 27 51  1  0
 28 52  1  0
 28 53  1  0
 29 54  1  0
 29 55  1  0
M  END
$$$$
