
     RDKit          3D

 50 53  0  0  0  0  0  0  0  0999 V2000
   -5.9596    2.0005    0.0540 C   0  0  0  0  0  0  0  0  0  0  0  0
   -4.8390    0.9643   -0.0085 C   0  0  0  0  0  0  0  0  0  0  0  0
   -5.0518   -0.0082   -1.1714 C   0  0  0  0  0  0  0  0  0  0  0  0
   -3.9464   -1.0798   -1.2380 C   0  0  0  0  0  0  0  0  0  0  0  0
   -4.4749   -2.4450   -0.7939 C   0  0  0  0  0  0  0  0  0  0  0  0
   -2.6935   -0.7104   -0.4198 C   0  0  0  0  0  0  0  0  0  0  0  0
   -2.4257    0.7140   -0.5446 N   0  0  0  0  0  0  0  0  0  0  0  0
   -1.1244    1.1457   -0.3314 C   0  0  0  0  0  0  0  0  0  0  0  0
   -0.8923    2.4660   -0.2084 N   0  0  0  0  0  0  0  0  0  0  0  0
    0.3828    2.8746   -0.0340 C   0  0  0  0  0  0  0  0  0  0  0  0
    1.4451    2.0097    0.0273 C   0  0  0  0  0  0  0  0  0  0  0  0
    1.1386    0.6739   -0.0961 C   0  0  0  0  0  0  0  0  0  0  0  0
   -0.1290    0.2393   -0.2803 N   0  0  0  0  0  0  0  0  0  0  0  0
    2.2176   -0.3742   -0.0742 C   0  0  0  0  0  0  0  0  0  0  0  0
    3.4181    0.0954    0.7610 C   0  0  0  0  0  0  0  0  0  0  0  0
    4.5211   -0.9480    0.8038 C   0  0  0  0  0  0  0  0  0  0  0  0
    5.1918   -1.3626   -0.3582 C   0  0  0  0  0  0  0  0  0  0  0  0
    6.2025   -2.3256   -0.2924 C   0  0  0  0  0  0  0  0  0  0  0  0
    6.5512   -2.8823    0.9349 C   0  0  0  0  0  0  0  0  0  0  0  0
    7.7950   -4.0678    1.0149 Cl  0  0  0  0  0  0  0  0  0  0  0  0
    5.8977   -2.4841    2.0975 C   0  0  0  0  0  0  0  0  0  0  0  0
    4.8871   -1.5213    2.0322 C   0  0  0  0  0  0  0  0  0  0  0  0
    3.9290    1.4459    0.2438 C   0  0  0  0  0  0  0  0  0  0  0  0
    2.8254    2.4804    0.2159 C   0  0  0  0  0  0  0  0  0  0  0  0
    3.0561    3.6827    0.2969 O   0  0  0  0  0  0  0  0  0  0  0  0
   -3.4673    1.6524   -0.1268 C   0  0  0  0  0  0  0  0  0  0  0  0
   -6.9313    1.5131    0.1857 H   0  0  0  0  0  0  0  0  0  0  0  0
   -6.0029    2.5978   -0.8631 H   0  0  0  0  0  0  0  0  0  0  0  0
   -5.8095    2.6832    0.8970 H   0  0  0  0  0  0  0  0  0  0  0  0
   -4.8649    0.3909    0.9281 H   0  0  0  0  0  0  0  0  0  0  0  0
   -6.0441   -0.4709   -1.1070 H   0  0  0  0  0  0  0  0  0  0  0  0
   -5.0438    0.5584   -2.1127 H   0  0  0  0  0  0  0  0  0  0  0  0
   -3.6507   -1.1739   -2.2920 H   0  0  0  0  0  0  0  0  0  0  0  0
   -4.8244   -2.4166    0.2438 H   0  0  0  0  0  0  0  0  0  0  0  0
   -3.6930   -3.2080   -0.8692 H   0  0  0  0  0  0  0  0  0  0  0  0
   -5.3119   -2.7619   -1.4251 H   0  0  0  0  0  0  0  0  0  0  0  0
   -2.8234   -0.9678    0.6398 H   0  0  0  0  0  0  0  0  0  0  0  0
   -1.8693   -1.3278   -0.7991 H   0  0  0  0  0  0  0  0  0  0  0  0
    0.5154    3.9496    0.0531 H   0  0  0  0  0  0  0  0  0  0  0  0
    1.8149   -1.3060    0.3426 H   0  0  0  0  0  0  0  0  0  0  0  0
    2.5092   -0.5819   -1.1111 H   0  0  0  0  0  0  0  0  0  0  0  0
    3.0590    0.2563    1.7890 H   0  0  0  0  0  0  0  0  0  0  0  0
    4.9385   -0.9432   -1.3296 H   0  0  0  0  0  0  0  0  0  0  0  0
    6.7123   -2.6356   -1.2009 H   0  0  0  0  0  0  0  0  0  0  0  0
    6.1687   -2.9174    3.0568 H   0  0  0  0  0  0  0  0  0  0  0  0
    4.3892   -1.2245    2.9535 H   0  0  0  0  0  0  0  0  0  0  0  0
    4.3389    1.3708   -0.7701 H   0  0  0  0  0  0  0  0  0  0  0  0
    4.7240    1.8140    0.9038 H   0  0  0  0  0  0  0  0  0  0  0  0
   -3.2324    2.1002    0.8485 H   0  0  0  0  0  0  0  0  0  0  0  0
   -3.5237    2.4657   -0.8620 H   0  0  0  0  0  0  0  0  0  0  0  0
  1  2  1  0
  2  3  1  0
  3  4  1  0
  4  5  1  0
  4  6  1  0
  6  7  1  0
  7  8  1  0
  8  9  2  0
  9 10  1  0
 10 11  2  0
 11 12  1  0
 12 13  2  0
 12 14  1  0
 14 15  1  0
 15 16  1  0
 16 17  2  0
 17 18  1  0
 18 19  2  0
 19 20  1  0
 19 21  1  0
 21 22  2  0
 15 23  1  0
 23 24  1  0
 24 25  2  0
  7 26  1  0
 26  2  1  0
 13  8  1  0
 22 16  1  0
 24 11  1  0
  1 27  1  0
  1 28  1  0
  1 29  1  0
  2 30  1  0
  3 31  1  0
  3 32  1  0
  4 33  1  0
  5 34  1  0
  5 35  1  0
  5 36  1  0
  6 37  1  0
  6 38  1  0
 10 39  1  0
 14 40  1  0
 14 41  1  0
 15 42  1  0
 17 43  1  0
 18 44  1  0
 21 45  1  0
 22 46  1  0
 23 47  1  0
 23 48  1  0
 26 49  1  0
 26 50  1  0
M  END
$$$$
