
     RDKit          3D

 60 64  0  0  0  0  0  0  0  0999 V2000
   -6.0403   -1.9499   -0.5124 C   0  0  0  0  0  0  0  0  0  0  0  0
   -4.9458   -1.1240    0.1492 C   0  0  0  0  0  0  0  0  0  0  0  0
   -3.9422   -1.9803    0.9383 C   0  0  0  0  0  0  0  0  0  0  0  0
   -3.1568   -2.8373    0.0647 N   0  0  0  0  0  0  0  0  0  0  0  0
   -2.1101   -2.2163   -0.6050 C   0  0  0  0  0  0  0  0  0  0  0  0
   -1.8297   -2.7618   -1.7980 N   0  0  0  0  0  0  0  0  0  0  0  0
   -0.7723   -2.2614   -2.4309 C   0  0  0  0  0  0  0  0  0  0  0  0
    0.0479   -1.3210   -1.9579 N   0  0  0  0  0  0  0  0  0  0  0  0
   -0.2326   -0.8027   -0.7399 C   0  0  0  0  0  0  0  0  0  0  0  0
    0.7748    0.0105   -0.1709 N   0  0  0  0  0  0  0  0  0  0  0  0
    1.5443    0.7976   -1.1713 C   0  0  0  0  0  0  0  0  0  0  0  0
    2.9125    0.1765   -1.5297 C   0  0  0  0  0  0  0  0  0  0  0  0
    3.7471    0.0100   -0.3237 N   0  0  0  0  0  0  0  0  0  0  0  0
    5.1295    0.0129   -0.3829 C   0  0  0  0  0  0  0  0  0  0  0  0
    5.8218   -0.2338   -1.5795 C   0  0  0  0  0  0  0  0  0  0  0  0
    7.2215   -0.2327   -1.6426 C   0  0  0  0  0  0  0  0  0  0  0  0
    7.9711    0.0206   -0.5007 C   0  0  0  0  0  0  0  0  0  0  0  0
    7.3182    0.2718    0.6994 C   0  0  0  0  0  0  0  0  0  0  0  0
    5.9184    0.2659    0.7520 C   0  0  0  0  0  0  0  0  0  0  0  0
    3.0270   -0.2110    0.9431 C   0  0  0  0  0  0  0  0  0  0  0  0
    1.6409   -0.8473    0.6922 C   0  0  0  0  0  0  0  0  0  0  0  0
   -1.3911   -1.1613   -0.0277 C   0  0  0  0  0  0  0  0  0  0  0  0
   -1.8836   -0.5756    1.2001 N   0  0  0  0  0  0  0  0  0  0  0  0
   -1.3786    0.6786    1.7495 C   0  0  0  0  0  0  0  0  0  0  0  0
   -2.1581    1.8801    1.2439 C   0  0  0  0  0  0  0  0  0  0  0  0
   -3.1841    2.4382    2.0226 C   0  0  0  0  0  0  0  0  0  0  0  0
   -3.9182    3.5296    1.5572 C   0  0  0  0  0  0  0  0  0  0  0  0
   -3.6392    4.0751    0.3059 C   0  0  0  0  0  0  0  0  0  0  0  0
   -2.6280    3.5290   -0.4798 C   0  0  0  0  0  0  0  0  0  0  0  0
   -1.8925    2.4383   -0.0139 C   0  0  0  0  0  0  0  0  0  0  0  0
   -3.0583   -1.0611    1.7947 C   0  0  0  0  0  0  0  0  0  0  0  0
   -3.4486   -0.6981    2.9095 O   0  0  0  0  0  0  0  0  0  0  0  0
   -6.5664   -2.5649    0.2241 H   0  0  0  0  0  0  0  0  0  0  0  0
   -5.6339   -2.6077   -1.2866 H   0  0  0  0  0  0  0  0  0  0  0  0
   -6.7743   -1.2903   -0.9884 H   0  0  0  0  0  0  0  0  0  0  0  0
   -5.4214   -0.4067    0.8298 H   0  0  0  0  0  0  0  0  0  0  0  0
   -4.4371   -0.5256   -0.6163 H   0  0  0  0  0  0  0  0  0  0  0  0
   -4.4836   -2.6319    1.6351 H   0  0  0  0  0  0  0  0  0  0  0  0
   -3.6553   -3.4517   -0.5694 H   0  0  0  0  0  0  0  0  0  0  0  0
   -0.5445   -2.6685   -3.4094 H   0  0  0  0  0  0  0  0  0  0  0  0
    1.7237    1.7828   -0.7201 H   0  0  0  0  0  0  0  0  0  0  0  0
    0.9621    0.9964   -2.0801 H   0  0  0  0  0  0  0  0  0  0  0  0
    2.7795   -0.7966   -2.0155 H   0  0  0  0  0  0  0  0  0  0  0  0
    3.3969    0.8519   -2.2445 H   0  0  0  0  0  0  0  0  0  0  0  0
    5.2800   -0.4599   -2.4936 H   0  0  0  0  0  0  0  0  0  0  0  0
    7.7193   -0.4358   -2.5868 H   0  0  0  0  0  0  0  0  0  0  0  0
    9.0568    0.0225   -0.5454 H   0  0  0  0  0  0  0  0  0  0  0  0
    7.8921    0.4784    1.5988 H   0  0  0  0  0  0  0  0  0  0  0  0
    5.4532    0.4915    1.7073 H   0  0  0  0  0  0  0  0  0  0  0  0
    3.5855   -0.8915    1.5967 H   0  0  0  0  0  0  0  0  0  0  0  0
    2.9095    0.7469    1.4639 H   0  0  0  0  0  0  0  0  0  0  0  0
    1.1477   -1.0130    1.6572 H   0  0  0  0  0  0  0  0  0  0  0  0
    1.7990   -1.8329    0.2303 H   0  0  0  0  0  0  0  0  0  0  0  0
   -1.4731    0.6389    2.8433 H   0  0  0  0  0  0  0  0  0  0  0  0
   -0.3147    0.8377    1.6013 H   0  0  0  0  0  0  0  0  0  0  0  0
   -3.4231    2.0169    2.9986 H   0  0  0  0  0  0  0  0  0  0  0  0
   -4.7100    3.9508    2.1718 H   0  0  0  0  0  0  0  0  0  0  0  0
   -4.2113    4.9239   -0.0570 H   0  0  0  0  0  0  0  0  0  0  0  0
   -2.4110    3.9520   -1.4577 H   0  0  0  0  0  0  0  0  0  0  0  0
   -1.1106    2.0272   -0.6432 H   0  0  0  0  0  0  0  0  0  0  0  0
  1  2  1  0
  2  3  1  0
  3  4  1  0
  4  5  1  0
  5  6  2  0
  6  7  1  0
  7  8  2  0
  8  9  1  0
  9 10  1  0
 10 11  1  0
 11 12  1  0
 12 13  1  0
 13 14  1  0
 14 15  2  0
 15 16  1  0
 16 17  2  0
 17 18  1  0
 18 19  2  0
 13 20  1  0
 20 21  1  0
  9 22  2  0
 22 23  1  0
 23 24  1  0
 24 25  1  0
 25 26  2  0
 26 27  1  0
 27 28  2  0
 28 29  1  0
 29 30  2  0
 23 31  1  0
 31 32  2  0
 31  3  1  0
 22  5  1  0
 30 25  1  0
 21 10  1  0
 19 14  1  0
  1 33  1  0
  1 34  1  0
  1 35  1  0
  2 36  1  0
  2 37  1  0
  3 38  1  0
  4 39  1  0
  7 40  1  0
 11 41  1  0
 11 42  1  0
 12 43  1  0
 12 44  1  0
 15 45  1  0
 16 46  1  0
 17 47  1  0
 18 48  1  0
 19 49  1  0
 20 50  1  0
 20 51  1  0
 21 52  1  0
 21 53  1  0
 24 54  1  0
 24 55  1  0
 26 56  1  0
 27 57  1  0
 28 58  1  0
 29 59  1  0
 30 60  1  0
M  END
$$$$
