
     RDKit          3D

 49 52  0  0  0  0  0  0  0  0999 V2000
    0.8876    2.4592   -3.3777 N   0  0  0  0  0  0  0  0  0  0  0  0
    0.7554    1.6117   -2.5926 C   0  0  0  0  0  0  0  0  0  0  0  0
    0.5970    0.6160   -1.5217 C   0  0  0  0  0  0  0  0  0  0  0  0
    0.8536   -0.7989   -2.0328 C   0  0  0  0  0  0  0  0  0  0  0  0
    1.2334   -1.0499   -3.1758 O   0  0  0  0  0  0  0  0  0  0  0  0
    0.7252   -1.7953   -1.0782 N   0  0  0  0  0  0  0  0  0  0  0  0
    1.0293   -3.1799   -1.3589 C   0  0  0  0  0  0  0  0  0  0  0  0
    2.3178   -3.5761   -0.6876 C   0  0  0  0  0  0  0  0  0  0  0  0
    2.3121   -4.2240    0.5556 C   0  0  0  0  0  0  0  0  0  0  0  0
    3.5134   -4.5648    1.1800 C   0  0  0  0  0  0  0  0  0  0  0  0
    4.7293   -4.2559    0.5721 C   0  0  0  0  0  0  0  0  0  0  0  0
    4.7467   -3.6041   -0.6595 C   0  0  0  0  0  0  0  0  0  0  0  0
    3.5473   -3.2630   -1.2856 C   0  0  0  0  0  0  0  0  0  0  0  0
   -0.7593    0.7676   -0.8661 C   0  0  0  0  0  0  0  0  0  0  0  0
   -1.8116    0.1010   -1.4202 N   0  0  0  0  0  0  0  0  0  0  0  0
   -3.0120    0.2437   -0.8338 C   0  0  0  0  0  0  0  0  0  0  0  0
   -4.1188   -0.4100   -1.3614 C   0  0  0  0  0  0  0  0  0  0  0  0
   -5.3795   -0.2891   -0.7755 C   0  0  0  0  0  0  0  0  0  0  0  0
   -5.5346    0.4989    0.3573 C   0  0  0  0  0  0  0  0  0  0  0  0
   -4.4275    1.1592    0.8928 C   0  0  0  0  0  0  0  0  0  0  0  0
   -3.1680    1.0459    0.3162 C   0  0  0  0  0  0  0  0  0  0  0  0
   -2.1248    1.6998    0.8609 N   0  0  0  0  0  0  0  0  0  0  0  0
   -0.9149    1.5773    0.2699 C   0  0  0  0  0  0  0  0  0  0  0  0
    0.1847    2.2891    0.7958 N   0  0  0  0  0  0  0  0  0  0  0  0
    0.1525    2.3975    2.2727 C   0  0  0  0  0  0  0  0  0  0  0  0
   -0.1720    3.8546    2.5733 C   0  0  0  0  0  0  0  0  0  0  0  0
    0.5083    4.5735    1.4268 C   0  0  0  0  0  0  0  0  0  0  0  0
    0.1951    3.6682    0.2403 C   0  0  0  0  0  0  0  0  0  0  0  0
    1.3918    0.7802   -0.7819 H   0  0  0  0  0  0  0  0  0  0  0  0
    0.4465   -1.5639   -0.1342 H   0  0  0  0  0  0  0  0  0  0  0  0
    0.1964   -3.7798   -0.9757 H   0  0  0  0  0  0  0  0  0  0  0  0
    1.0896   -3.3638   -2.4371 H   0  0  0  0  0  0  0  0  0  0  0  0
    1.3726   -4.4706    1.0446 H   0  0  0  0  0  0  0  0  0  0  0  0
    3.5017   -5.0722    2.1411 H   0  0  0  0  0  0  0  0  0  0  0  0
    5.6641   -4.5224    1.0584 H   0  0  0  0  0  0  0  0  0  0  0  0
    5.6938   -3.3602   -1.1338 H   0  0  0  0  0  0  0  0  0  0  0  0
    3.5713   -2.7488   -2.2456 H   0  0  0  0  0  0  0  0  0  0  0  0
   -3.9948   -1.0243   -2.2503 H   0  0  0  0  0  0  0  0  0  0  0  0
   -6.2327   -0.8072   -1.2065 H   0  0  0  0  0  0  0  0  0  0  0  0
   -6.5109    0.6045    0.8237 H   0  0  0  0  0  0  0  0  0  0  0  0
   -4.5480    1.7791    1.7779 H   0  0  0  0  0  0  0  0  0  0  0  0
   -0.5322    1.7046    2.7752 H   0  0  0  0  0  0  0  0  0  0  0  0
    1.1600    2.1653    2.6398 H   0  0  0  0  0  0  0  0  0  0  0  0
   -1.2549    4.0220    2.5391 H   0  0  0  0  0  0  0  0  0  0  0  0
    0.1968    4.1722    3.5524 H   0  0  0  0  0  0  0  0  0  0  0  0
    1.5910    4.6177    1.5953 H   0  0  0  0  0  0  0  0  0  0  0  0
    0.1404    5.5932    1.2838 H   0  0  0  0  0  0  0  0  0  0  0  0
   -0.7716    3.9573   -0.1941 H   0  0  0  0  0  0  0  0  0  0  0  0
    0.9633    3.7650   -0.5330 H   0  0  0  0  0  0  0  0  0  0  0  0
  1  2  3  0
  2  3  1  0
  3  4  1  0
  4  5  2  0
  4  6  1  0
  6  7  1  0
  7  8  1  0
  8  9  2  0
  9 10  1  0
 10 11  2  0
 11 12  1  0
 12 13  2  0
  3 14  1  0
 14 15  2  0
 15 16  1  0
 16 17  2  0
 17 18  1  0
 18 19  2  0
 19 20  1  0
 20 21  2  0
 21 22  1  0
 22 23  2  0
 23 24  1  0
 24 25  1  0
 25 26  1  0
 26 27  1  0
 27 28  1  0
 13  8  1  0
 23 14  1  0
 28 24  1  0
 21 16  1  0
  3 29  1  0
  6 30  1  0
  7 31  1  0
  7 32  1  0
  9 33  1  0
 10 34  1  0
 11 35  1  0
 12 36  1  0
 13 37  1  0
 17 38  1  0
 18 39  1  0
 19 40  1  0
 20 41  1  0
 25 42  1  0
 25 43  1  0
 26 44  1  0
 26 45  1  0
 27 46  1  0
 27 47  1  0
 28 48  1  0
 28 49  1  0
M  END
$$$$
