
     RDKit          3D

 40 42  0  0  0  0  0  0  0  0999 V2000
   -2.1516    0.2952   -1.6675 O   0  0  0  0  0  0  0  0  0  0  0  0
   -1.6375   -0.2287   -0.6788 C   0  0  0  0  0  0  0  0  0  0  0  0
   -2.4593   -0.9804    0.3659 C   0  0  0  0  0  0  0  0  0  0  0  0
   -3.9506   -0.7486    0.2694 C   0  0  0  0  0  0  0  0  0  0  0  0
   -4.5526    0.3053    0.9724 C   0  0  0  0  0  0  0  0  0  0  0  0
   -5.9286    0.5250    0.8774 C   0  0  0  0  0  0  0  0  0  0  0  0
   -6.7071   -0.3046    0.0733 C   0  0  0  0  0  0  0  0  0  0  0  0
   -8.5696   -0.0068   -0.0561 Br  0  0  0  0  0  0  0  0  0  0  0  0
   -6.1227   -1.3491   -0.6394 C   0  0  0  0  0  0  0  0  0  0  0  0
   -4.7468   -1.5685   -0.5436 C   0  0  0  0  0  0  0  0  0  0  0  0
   -0.2646   -0.1796   -0.4655 N   0  0  0  0  0  0  0  0  0  0  0  0
    0.4325   -0.8617    0.6329 C   0  0  0  0  0  0  0  0  0  0  0  0
    1.9597   -0.9160    0.4466 C   0  0  0  0  0  0  0  0  0  0  0  0
    2.4917    0.4354    0.2208 N   0  0  0  0  0  0  0  0  0  0  0  0
    3.8829    0.5403    0.2300 C   0  0  0  0  0  0  0  0  0  0  0  0
    4.5058    1.7891    0.1666 C   0  0  0  0  0  0  0  0  0  0  0  0
    5.8973    1.8823    0.1923 C   0  0  0  0  0  0  0  0  0  0  0  0
    6.6501    0.7241    0.2904 C   0  0  0  0  0  0  0  0  0  0  0  0
    5.9712   -0.4760    0.3664 C   0  0  0  0  0  0  0  0  0  0  0  0
    4.6233   -0.5852    0.3439 N   0  0  0  0  0  0  0  0  0  0  0  0
    1.7508    1.2884   -0.7293 C   0  0  0  0  0  0  0  0  0  0  0  0
    0.5845    0.5479   -1.4123 C   0  0  0  0  0  0  0  0  0  0  0  0
   -2.1318   -0.6873    1.3700 H   0  0  0  0  0  0  0  0  0  0  0  0
   -2.2548   -2.0524    0.2578 H   0  0  0  0  0  0  0  0  0  0  0  0
   -3.9530    0.9667    1.5939 H   0  0  0  0  0  0  0  0  0  0  0  0
   -6.3797    1.3464    1.4273 H   0  0  0  0  0  0  0  0  0  0  0  0
   -6.7245   -1.9913   -1.2765 H   0  0  0  0  0  0  0  0  0  0  0  0
   -4.2979   -2.3766   -1.1172 H   0  0  0  0  0  0  0  0  0  0  0  0
    0.0355   -1.8766    0.7361 H   0  0  0  0  0  0  0  0  0  0  0  0
    0.1921   -0.3101    1.5497 H   0  0  0  0  0  0  0  0  0  0  0  0
    2.3925   -1.3604    1.3516 H   0  0  0  0  0  0  0  0  0  0  0  0
    2.2020   -1.5655   -0.4048 H   0  0  0  0  0  0  0  0  0  0  0  0
    3.9168    2.6986    0.1201 H   0  0  0  0  0  0  0  0  0  0  0  0
    6.3814    2.8531    0.1447 H   0  0  0  0  0  0  0  0  0  0  0  0
    7.7329    0.7548    0.3157 H   0  0  0  0  0  0  0  0  0  0  0  0
    6.5069   -1.4168    0.4524 H   0  0  0  0  0  0  0  0  0  0  0  0
    2.3997    1.6823   -1.5214 H   0  0  0  0  0  0  0  0  0  0  0  0
    1.3519    2.1432   -0.1699 H   0  0  0  0  0  0  0  0  0  0  0  0
   -0.0065    1.2615   -1.9959 H   0  0  0  0  0  0  0  0  0  0  0  0
    0.9776   -0.1972   -2.1150 H   0  0  0  0  0  0  0  0  0  0  0  0
  1  2  2  0
  2  3  1  0
  3  4  1  0
  4  5  2  0
  5  6  1  0
  6  7  2  0
  7  8  1  0
  7  9  1  0
  9 10  2  0
  2 11  1  0
 11 12  1  0
 12 13  1  0
 13 14  1  0
 14 15  1  0
 15 16  2  0
 16 17  1  0
 17 18  2  0
 18 19  1  0
 19 20  2  0
 14 21  1  0
 21 22  1  0
 10  4  1  0
 22 11  1  0
 20 15  1  0
  3 23  1  0
  3 24  1  0
  5 25  1  0
  6 26  1  0
  9 27  1  0
 10 28  1  0
 12 29  1  0
 12 30  1  0
 13 31  1  0
 13 32  1  0
 16 33  1  0
 17 34  1  0
 18 35  1  0
 19 36  1  0
 21 37  1  0
 21 38  1  0
 22 39  1  0
 22 40  1  0
M  END
$$$$
