
     RDKit          3D

 33 34  0  0  0  0  0  0  0  0999 V2000
   -5.4332    0.7775    2.0445 C   0  0  0  0  0  0  0  0  0  0  0  0
   -4.6780   -0.0055    1.1279 O   0  0  0  0  0  0  0  0  0  0  0  0
   -3.3775    0.3614    0.9231 C   0  0  0  0  0  0  0  0  0  0  0  0
   -2.7276    1.4436    1.5130 C   0  0  0  0  0  0  0  0  0  0  0  0
   -1.3912    1.7153    1.1961 C   0  0  0  0  0  0  0  0  0  0  0  0
   -0.6868    0.9110    0.2860 C   0  0  0  0  0  0  0  0  0  0  0  0
    0.7255    1.2912    0.0029 C   0  0  0  0  0  0  0  0  0  0  0  0
    1.3715    1.8305    0.9050 O   0  0  0  0  0  0  0  0  0  0  0  0
    1.3053    1.1088   -1.3827 C   0  0  0  0  0  0  0  0  0  0  0  0
    2.4947    0.2180   -1.3007 C   0  0  0  0  0  0  0  0  0  0  0  0
    2.4599   -1.0959   -1.3872 N   0  0  0  0  0  0  0  0  0  0  0  0
    3.7112   -1.6647   -1.2793 N   0  0  0  0  0  0  0  0  0  0  0  0
    4.6554   -0.7609   -1.1260 C   0  0  0  0  0  0  0  0  0  0  0  0
    6.1010   -1.0592   -0.9746 C   0  0  0  0  0  0  0  0  0  0  0  0
    4.0816    0.8572   -1.1082 S   0  0  0  0  0  0  0  0  0  0  0  0
   -1.3298   -0.1991   -0.2667 C   0  0  0  0  0  0  0  0  0  0  0  0
   -0.6873   -1.0296   -1.1426 O   0  0  0  0  0  0  0  0  0  0  0  0
   -0.3763   -2.2843   -0.5293 C   0  0  0  0  0  0  0  0  0  0  0  0
   -2.6746   -0.4523    0.0311 C   0  0  0  0  0  0  0  0  0  0  0  0
   -5.5201    1.8136    1.7010 H   0  0  0  0  0  0  0  0  0  0  0  0
   -6.4424    0.3567    2.0900 H   0  0  0  0  0  0  0  0  0  0  0  0
   -5.0050    0.7263    3.0508 H   0  0  0  0  0  0  0  0  0  0  0  0
   -3.2273    2.0987    2.2194 H   0  0  0  0  0  0  0  0  0  0  0  0
   -0.9007    2.5690    1.6629 H   0  0  0  0  0  0  0  0  0  0  0  0
    1.5756    2.1046   -1.7554 H   0  0  0  0  0  0  0  0  0  0  0  0
    0.5761    0.7229   -2.0977 H   0  0  0  0  0  0  0  0  0  0  0  0
    6.7093   -0.4236   -1.6260 H   0  0  0  0  0  0  0  0  0  0  0  0
    6.3058   -2.1019   -1.2381 H   0  0  0  0  0  0  0  0  0  0  0  0
    6.4182   -0.9042    0.0617 H   0  0  0  0  0  0  0  0  0  0  0  0
   -1.2844   -2.8595   -0.3228 H   0  0  0  0  0  0  0  0  0  0  0  0
    0.2032   -2.1426    0.3897 H   0  0  0  0  0  0  0  0  0  0  0  0
    0.2321   -2.8603   -1.2328 H   0  0  0  0  0  0  0  0  0  0  0  0
   -3.1841   -1.2925   -0.4351 H   0  0  0  0  0  0  0  0  0  0  0  0
  1  2  1  0
  2  3  1  0
  3  4  2  0
  4  5  1  0
  5  6  2  0
  6  7  1  0
  7  8  2  0
  7  9  1  0
  9 10  1  0
 10 11  2  0
 11 12  1  0
 12 13  2  0
 13 14  1  0
 13 15  1  0
  6 16  1  0
 16 17  1  0
 17 18  1  0
 16 19  2  0
 19  3  1  0
 15 10  1  0
  1 20  1  0
  1 21  1  0
  1 22  1  0
  4 23  1  0
  5 24  1  0
  9 25  1  0
  9 26  1  0
 14 27  1  0
 14 28  1  0
 14 29  1  0
 18 30  1  0
 18 31  1  0
 18 32  1  0
 19 33  1  0
M  END
$$$$
