
     RDKit          3D

 43 45  0  0  0  0  0  0  0  0999 V2000
   -3.5758   -1.0743    2.7874 C   0  0  0  0  0  0  0  0  0  0  0  0
   -4.2982   -0.9515    1.4764 C   0  0  0  0  0  0  0  0  0  0  0  0
   -5.6946   -1.0587    1.4446 C   0  0  0  0  0  0  0  0  0  0  0  0
   -6.3862   -0.9539    0.2382 C   0  0  0  0  0  0  0  0  0  0  0  0
   -5.6903   -0.7513   -0.9532 C   0  0  0  0  0  0  0  0  0  0  0  0
   -4.2938   -0.6407   -0.9525 C   0  0  0  0  0  0  0  0  0  0  0  0
   -3.5685   -0.4302   -2.2508 C   0  0  0  0  0  0  0  0  0  0  0  0
   -3.6150   -0.6933    0.2762 C   0  0  0  0  0  0  0  0  0  0  0  0
   -2.2481   -0.5634    0.2971 O   0  0  0  0  0  0  0  0  0  0  0  0
   -1.8851    0.8131    0.4676 C   0  0  0  0  0  0  0  0  0  0  0  0
   -0.4070    0.8663    0.5435 C   0  0  0  0  0  0  0  0  0  0  0  0
    0.5839   -0.0381    0.8361 C   0  0  0  0  0  0  0  0  0  0  0  0
    1.7946    0.6951    0.7240 C   0  0  0  0  0  0  0  0  0  0  0  0
    3.1485    0.1808    0.9766 C   0  0  0  0  0  0  0  0  0  0  0  0
    3.3062   -0.8432    1.6444 O   0  0  0  0  0  0  0  0  0  0  0  0
    4.2497    0.8911    0.4825 N   0  0  0  0  0  0  0  0  0  0  0  0
    5.5783    0.4793    0.9226 C   0  0  0  0  0  0  0  0  0  0  0  0
    6.1568   -0.5140   -0.0812 C   0  0  0  0  0  0  0  0  0  0  0  0
    6.1327    0.0259   -1.4284 N   0  0  0  0  0  0  0  0  0  0  0  0
    5.1293    0.8483   -1.8821 C   0  0  0  0  0  0  0  0  0  0  0  0
    5.0445    1.0929   -3.0845 O   0  0  0  0  0  0  0  0  0  0  0  0
    4.2328    1.5444   -0.8348 C   0  0  0  0  0  0  0  0  0  0  0  0
    1.5333    1.9795    0.4215 N   0  0  0  0  0  0  0  0  0  0  0  0
    0.1615    2.0757    0.2947 O   0  0  0  0  0  0  0  0  0  0  0  0
   -2.6211   -1.5955    2.6637 H   0  0  0  0  0  0  0  0  0  0  0  0
   -4.1636   -1.6548    3.5068 H   0  0  0  0  0  0  0  0  0  0  0  0
   -3.3924   -0.0822    3.2109 H   0  0  0  0  0  0  0  0  0  0  0  0
   -6.2536   -1.2333    2.3615 H   0  0  0  0  0  0  0  0  0  0  0  0
   -7.4697   -1.0428    0.2248 H   0  0  0  0  0  0  0  0  0  0  0  0
   -6.2459   -0.6884   -1.8864 H   0  0  0  0  0  0  0  0  0  0  0  0
   -2.6039   -0.9479   -2.2527 H   0  0  0  0  0  0  0  0  0  0  0  0
   -3.4041    0.6378   -2.4217 H   0  0  0  0  0  0  0  0  0  0  0  0
   -4.1453   -0.8311   -3.0913 H   0  0  0  0  0  0  0  0  0  0  0  0
   -2.3080    1.2195    1.3938 H   0  0  0  0  0  0  0  0  0  0  0  0
   -2.2341    1.4103   -0.3828 H   0  0  0  0  0  0  0  0  0  0  0  0
    0.4630   -1.0809    1.0922 H   0  0  0  0  0  0  0  0  0  0  0  0
    5.5408    0.0398    1.9248 H   0  0  0  0  0  0  0  0  0  0  0  0
    6.2002    1.3809    0.9756 H   0  0  0  0  0  0  0  0  0  0  0  0
    5.5717   -1.4398   -0.0971 H   0  0  0  0  0  0  0  0  0  0  0  0
    7.1938   -0.7613    0.1641 H   0  0  0  0  0  0  0  0  0  0  0  0
    6.6498   -0.4423   -2.1632 H   0  0  0  0  0  0  0  0  0  0  0  0
    3.2304    1.5659   -1.2645 H   0  0  0  0  0  0  0  0  0  0  0  0
    4.6021    2.5664   -0.7018 H   0  0  0  0  0  0  0  0  0  0  0  0
  1  2  1  0
  2  3  2  0
  3  4  1  0
  4  5  2  0
  5  6  1  0
  6  7  1  0
  6  8  2  0
  8  9  1  0
  9 10  1  0
 10 11  1  0
 11 12  2  0
 12 13  1  0
 13 14  1  0
 14 15  2  0
 14 16  1  0
 16 17  1  0
 17 18  1  0
 18 19  1  0
 19 20  1  0
 20 21  2  0
 20 22  1  0
 13 23  2  0
 23 24  1  0
  8  2  1  0
 24 11  1  0
 22 16  1  0
  1 25  1  0
  1 26  1  0
  1 27  1  0
  3 28  1  0
  4 29  1  0
  5 30  1  0
  7 31  1  0
  7 32  1  0
  7 33  1  0
 10 34  1  0
 10 35  1  0
 12 36  1  0
 17 37  1  0
 17 38  1  0
 18 39  1  0
 18 40  1  0
 19 41  1  0
 22 42  1  0
 22 43  1  0
M  END
$$$$
