
     RDKit          3D

 67 72  0  0  0  0  0  0  0  0999 V2000
    6.4851   -0.0061    1.6219 C   0  0  0  0  0  0  0  0  0  0  0  0
    5.5812    1.1082    1.0788 C   0  0  0  0  0  0  0  0  0  0  0  0
    5.2171    2.0589    2.2323 C   0  0  0  0  0  0  0  0  0  0  0  0
    6.2667    1.9198   -0.0268 C   0  0  0  0  0  0  0  0  0  0  0  0
    4.3055    0.5829    0.6229 O   0  0  0  0  0  0  0  0  0  0  0  0
    4.2296   -0.2974   -0.4079 C   0  0  0  0  0  0  0  0  0  0  0  0
    5.1966   -0.7518   -1.0067 O   0  0  0  0  0  0  0  0  0  0  0  0
    2.9240   -0.6296   -0.7087 N   0  0  0  0  0  0  0  0  0  0  0  0
    2.6563   -1.5893   -1.7825 C   0  0  0  0  0  0  0  0  0  0  0  0
    1.2416   -2.1966   -1.6922 C   0  0  0  0  0  0  0  0  0  0  0  0
    0.2019   -1.1697   -1.7017 N   0  0  0  0  0  0  0  0  0  0  0  0
    0.5457    0.0807   -0.9473 C   0  0  2  0  0  0  0  0  0  0  0  0
    1.7630   -0.0631   -0.0156 C   0  0  0  0  0  0  0  0  0  0  0  0
   -0.7128    0.3976   -0.2398 C   0  0  0  0  0  0  0  0  0  0  0  0
   -1.7159   -0.5388   -0.5278 C   0  0  0  0  0  0  0  0  0  0  0  0
   -2.8463   -0.1888    0.1678 C   0  0  0  0  0  0  0  0  0  0  0  0
   -4.0473   -0.7485    0.2613 O   0  0  0  0  0  0  0  0  0  0  0  0
   -2.5352    0.9698    0.8643 N   0  0  0  0  0  0  0  0  0  0  0  0
   -3.4429    1.6730    1.7632 C   0  0  0  0  0  0  0  0  0  0  0  0
   -4.2315    2.7419    1.0481 C   0  0  0  0  0  0  0  0  0  0  0  0
   -5.4834    2.4525    0.4860 C   0  0  0  0  0  0  0  0  0  0  0  0
   -6.2112    3.4438   -0.1739 C   0  0  0  0  0  0  0  0  0  0  0  0
   -5.6931    4.7326   -0.2852 C   0  0  0  0  0  0  0  0  0  0  0  0
   -4.4458    5.0313    0.2607 C   0  0  0  0  0  0  0  0  0  0  0  0
   -3.7183    4.0409    0.9223 C   0  0  0  0  0  0  0  0  0  0  0  0
   -1.2165    1.3285    0.6291 C   0  0  0  0  0  0  0  0  0  0  0  0
   -0.6780    2.3960    1.2042 O   0  0  0  0  0  0  0  0  0  0  0  0
   -1.2083   -1.5862   -1.4425 C   0  0  1  0  0  0  0  0  0  0  0  0
   -1.9986   -1.6929   -2.7837 C   0  0  0  0  0  0  0  0  0  0  0  0
   -2.1142   -0.8694   -3.6797 O   0  0  0  0  0  0  0  0  0  0  0  0
   -2.5873   -2.9613   -2.8028 N   0  0  0  0  0  0  0  0  0  0  0  0
   -2.2927   -3.6777   -1.6508 C   0  0  0  0  0  0  0  0  0  0  0  0
   -2.7222   -4.9524   -1.3407 C   0  0  0  0  0  0  0  0  0  0  0  0
   -2.3340   -5.4783   -0.1060 C   0  0  0  0  0  0  0  0  0  0  0  0
   -1.5412   -4.7260    0.7799 C   0  0  0  0  0  0  0  0  0  0  0  0
   -1.1185   -3.4349    0.4444 C   0  0  0  0  0  0  0  0  0  0  0  0
   -1.4905   -2.9185   -0.7910 C   0  0  0  0  0  0  0  0  0  0  0  0
    6.8541   -0.6604    0.8230 H   0  0  0  0  0  0  0  0  0  0  0  0
    5.9409   -0.6511    2.3263 H   0  0  0  0  0  0  0  0  0  0  0  0
    7.3618    0.4081    2.1340 H   0  0  0  0  0  0  0  0  0  0  0  0
    6.1025    2.5408    2.6632 H   0  0  0  0  0  0  0  0  0  0  0  0
    4.6919    1.5194    3.0304 H   0  0  0  0  0  0  0  0  0  0  0  0
    4.5319    2.8440    1.8893 H   0  0  0  0  0  0  0  0  0  0  0  0
    5.5688    2.6465   -0.4618 H   0  0  0  0  0  0  0  0  0  0  0  0
    6.6050    1.2810   -0.8477 H   0  0  0  0  0  0  0  0  0  0  0  0
    7.1419    2.4578    0.3530 H   0  0  0  0  0  0  0  0  0  0  0  0
    2.7872   -1.0586   -2.7342 H   0  0  0  0  0  0  0  0  0  0  0  0
    3.4066   -2.3885   -1.7462 H   0  0  0  0  0  0  0  0  0  0  0  0
    1.2098   -2.7889   -0.7709 H   0  0  0  0  0  0  0  0  0  0  0  0
    1.0909   -2.8819   -2.5346 H   0  0  0  0  0  0  0  0  0  0  0  0
    0.7543    0.8571   -1.6932 H   0  0  0  0  0  0  0  0  0  0  0  0
    1.5387   -0.7351    0.8240 H   0  0  0  0  0  0  0  0  0  0  0  0
    2.0130    0.9127    0.4181 H   0  0  0  0  0  0  0  0  0  0  0  0
   -4.0532   -1.5266   -0.3245 H   0  0  0  0  0  0  0  0  0  0  0  0
   -4.1076    0.9344    2.2283 H   0  0  0  0  0  0  0  0  0  0  0  0
   -2.8514    2.1066    2.5787 H   0  0  0  0  0  0  0  0  0  0  0  0
   -5.8933    1.4473    0.5521 H   0  0  0  0  0  0  0  0  0  0  0  0
   -7.1800    3.2084   -0.6077 H   0  0  0  0  0  0  0  0  0  0  0  0
   -6.2573    5.5015   -0.8060 H   0  0  0  0  0  0  0  0  0  0  0  0
   -4.0368    6.0337    0.1658 H   0  0  0  0  0  0  0  0  0  0  0  0
   -2.7397    4.2816    1.3347 H   0  0  0  0  0  0  0  0  0  0  0  0
    0.2026    2.5314    0.8123 H   0  0  0  0  0  0  0  0  0  0  0  0
   -3.1492   -3.2825   -3.5775 H   0  0  0  0  0  0  0  0  0  0  0  0
   -3.3390   -5.5312   -2.0203 H   0  0  0  0  0  0  0  0  0  0  0  0
   -2.6510   -6.4803    0.1771 H   0  0  0  0  0  0  0  0  0  0  0  0
   -1.2566   -5.1553    1.7390 H   0  0  0  0  0  0  0  0  0  0  0  0
   -0.5157   -2.8532    1.1367 H   0  0  0  0  0  0  0  0  0  0  0  0
  1  2  1  0
  2  3  1  0
  2  4  1  0
  2  5  1  0
  5  6  1  0
  6  7  2  0
  6  8  1  0
  8  9  1  0
  9 10  1  0
 10 11  1  0
 11 12  1  0
 12 13  1  0
 12 14  1  0
 14 15  1  0
 15 16  2  0
 16 17  1  0
 16 18  1  0
 18 19  1  0
 19 20  1  0
 20 21  2  0
 21 22  1  0
 22 23  2  0
 23 24  1  0
 24 25  2  0
 18 26  1  0
 26 27  1  0
 15 28  1  0
 28 29  1  0
 29 30  2  0
 29 31  1  0
 31 32  1  0
 32 33  2  0
 33 34  1  0
 34 35  2  0
 35 36  1  0
 36 37  2  0
 13  8  1  0
 26 14  2  0
 37 28  1  0
 28 11  1  6
 37 32  1  0
 25 20  1  0
  1 38  1  0
  1 39  1  0
  1 40  1  0
  3 41  1  0
  3 42  1  0
  3 43  1  0
  4 44  1  0
  4 45  1  0
  4 46  1  0
  9 47  1  0
  9 48  1  0
 10 49  1  0
 10 50  1  0
 12 51  1  6
 13 52  1  0
 13 53  1  0
 17 54  1  0
 19 55  1  0
 19 56  1  0
 21 57  1  0
 22 58  1  0
 23 59  1  0
 24 60  1  0
 25 61  1  0
 27 62  1  0
 31 63  1  0
 33 64  1  0
 34 65  1  0
 35 66  1  0
 36 67  1  0
M  END
$$$$
