
     RDKit          3D

 46 48  0  0  0  0  0  0  0  0999 V2000
   -2.1216    2.4101   -2.6819 C   0  0  0  0  0  0  0  0  0  0  0  0
   -1.5796    2.4302   -1.2560 C   0  0  0  0  0  0  0  0  0  0  0  0
   -1.2742    1.0699   -0.6035 C   0  0  0  0  0  0  0  0  0  0  0  0
   -2.6495   -0.1385   -0.6796 S   0  0  0  0  0  0  0  0  0  0  0  0
   -3.6485    0.4354    0.6003 C   0  0  0  0  0  0  0  0  0  0  0  0
   -3.3091    1.2404    1.5767 N   0  0  0  0  0  0  0  0  0  0  0  0
   -4.4554    1.3742    2.3267 C   0  0  0  0  0  0  0  0  0  0  0  0
   -4.6809    2.1157    3.4941 C   0  0  0  0  0  0  0  0  0  0  0  0
   -5.9560    2.0852    4.0773 C   0  0  0  0  0  0  0  0  0  0  0  0
   -6.9848    1.3311    3.5097 C   0  0  0  0  0  0  0  0  0  0  0  0
   -6.7785    0.5754    2.3496 C   0  0  0  0  0  0  0  0  0  0  0  0
   -5.4991    0.6225    1.7899 C   0  0  0  0  0  0  0  0  0  0  0  0
   -4.9442    0.0215    0.6892 N   0  0  0  0  0  0  0  0  0  0  0  0
   -0.0219    0.4085   -1.2074 C   0  0  0  0  0  0  0  0  0  0  0  0
    0.0945    0.2136   -2.4138 O   0  0  0  0  0  0  0  0  0  0  0  0
    0.9209    0.0685   -0.2413 N   0  0  0  0  0  0  0  0  0  0  0  0
    2.1873   -0.5179   -0.4438 C   0  0  0  0  0  0  0  0  0  0  0  0
    2.9828   -0.7191    0.6892 C   0  0  0  0  0  0  0  0  0  0  0  0
    4.2597   -1.2806    0.5755 C   0  0  0  0  0  0  0  0  0  0  0  0
    4.7637   -1.6624   -0.6712 C   0  0  0  0  0  0  0  0  0  0  0  0
    6.0606   -2.2152   -0.7013 N   0  0  0  0  0  0  0  0  0  0  0  0
    6.7407   -2.7061   -1.8020 C   0  0  0  0  0  0  0  0  0  0  0  0
    8.1292   -3.1722   -1.4424 C   0  0  0  0  0  0  0  0  0  0  0  0
    6.3301   -2.7779   -2.9549 O   0  0  0  0  0  0  0  0  0  0  0  0
    3.9675   -1.4686   -1.7990 C   0  0  0  0  0  0  0  0  0  0  0  0
    2.6908   -0.8968   -1.6866 C   0  0  0  0  0  0  0  0  0  0  0  0
   -3.0845    1.8929   -2.7449 H   0  0  0  0  0  0  0  0  0  0  0  0
   -2.2805    3.4336   -3.0361 H   0  0  0  0  0  0  0  0  0  0  0  0
   -1.4245    1.9362   -3.3776 H   0  0  0  0  0  0  0  0  0  0  0  0
   -2.3040    2.9678   -0.6308 H   0  0  0  0  0  0  0  0  0  0  0  0
   -0.6608    3.0331   -1.2443 H   0  0  0  0  0  0  0  0  0  0  0  0
   -1.0591    1.2675    0.4534 H   0  0  0  0  0  0  0  0  0  0  0  0
   -3.8737    2.6838    3.9416 H   0  0  0  0  0  0  0  0  0  0  0  0
   -6.1388    2.6521    4.9871 H   0  0  0  0  0  0  0  0  0  0  0  0
   -7.9663    1.3272    3.9810 H   0  0  0  0  0  0  0  0  0  0  0  0
   -7.5797   -0.0147    1.9136 H   0  0  0  0  0  0  0  0  0  0  0  0
   -5.3871   -0.6360    0.0656 H   0  0  0  0  0  0  0  0  0  0  0  0
    0.6775    0.2581    0.7237 H   0  0  0  0  0  0  0  0  0  0  0  0
    2.6275   -0.4361    1.6763 H   0  0  0  0  0  0  0  0  0  0  0  0
    4.8476   -1.4144    1.4796 H   0  0  0  0  0  0  0  0  0  0  0  0
    6.5395   -2.2676    0.1895 H   0  0  0  0  0  0  0  0  0  0  0  0
    8.0944   -3.8392   -0.5759 H   0  0  0  0  0  0  0  0  0  0  0  0
    8.5635   -3.7208   -2.2835 H   0  0  0  0  0  0  0  0  0  0  0  0
    8.7592   -2.3056   -1.2200 H   0  0  0  0  0  0  0  0  0  0  0  0
    4.3060   -1.7458   -2.7923 H   0  0  0  0  0  0  0  0  0  0  0  0
    2.1192   -0.7720   -2.5999 H   0  0  0  0  0  0  0  0  0  0  0  0
  1  2  1  0
  2  3  1  0
  3  4  1  0
  4  5  1  0
  5  6  2  0
  6  7  1  0
  7  8  2  0
  8  9  1  0
  9 10  2  0
 10 11  1  0
 11 12  2  0
 12 13  1  0
  3 14  1  0
 14 15  2  0
 14 16  1  0
 16 17  1  0
 17 18  2  0
 18 19  1  0
 19 20  2  0
 20 21  1  0
 21 22  1  0
 22 23  1  0
 22 24  2  0
 20 25  1  0
 25 26  2  0
 13  5  1  0
 26 17  1  0
 12  7  1  0
  1 27  1  0
  1 28  1  0
  1 29  1  0
  2 30  1  0
  2 31  1  0
  3 32  1  0
  8 33  1  0
  9 34  1  0
 10 35  1  0
 11 36  1  0
 13 37  1  0
 16 38  1  0
 18 39  1  0
 19 40  1  0
 21 41  1  0
 23 42  1  0
 23 43  1  0
 23 44  1  0
 25 45  1  0
 26 46  1  0
M  END
$$$$
