
     RDKit          3D

 45 47  0  0  0  0  0  0  0  0999 V2000
   -4.3251   -0.7241    2.8436 C   0  0  0  0  0  0  0  0  0  0  0  0
   -4.1604    0.8905    2.0365 S   0  0  0  0  0  0  0  0  0  0  0  0
   -4.2926    0.3698    0.3301 C   0  0  0  0  0  0  0  0  0  0  0  0
   -5.4065    0.8069   -0.3989 C   0  0  0  0  0  0  0  0  0  0  0  0
   -5.5894    0.4114   -1.7269 C   0  0  0  0  0  0  0  0  0  0  0  0
   -4.6619   -0.4285   -2.3397 C   0  0  0  0  0  0  0  0  0  0  0  0
   -3.5419   -0.8600   -1.6312 C   0  0  0  0  0  0  0  0  0  0  0  0
   -3.3434   -0.4402   -0.3131 C   0  0  0  0  0  0  0  0  0  0  0  0
   -2.2226   -0.9021    0.3310 O   0  0  0  0  0  0  0  0  0  0  0  0
   -1.1459    0.0571    0.2767 C   0  0  0  0  0  0  0  0  0  0  0  0
   -0.2311   -0.2807   -0.9075 C   0  0  0  0  0  0  0  0  0  0  0  0
    1.2013    0.1587   -0.6271 C   0  0  0  0  0  0  0  0  0  0  0  0
    1.7873   -0.5716    0.5092 N   0  0  0  0  0  0  0  0  0  0  0  0
    2.9292    0.1518    1.0944 C   0  0  0  0  0  0  0  0  0  0  0  0
    4.0846    0.3427    0.1333 C   0  0  0  0  0  0  0  0  0  0  0  0
    4.7269   -0.7676   -0.4353 C   0  0  0  0  0  0  0  0  0  0  0  0
    5.7982   -0.5958   -1.3129 C   0  0  0  0  0  0  0  0  0  0  0  0
    6.2410    0.6870   -1.6292 C   0  0  0  0  0  0  0  0  0  0  0  0
    5.6130    1.7983   -1.0692 C   0  0  0  0  0  0  0  0  0  0  0  0
    4.5406    1.6283   -0.1913 C   0  0  0  0  0  0  0  0  0  0  0  0
    0.8000   -0.9508    1.5315 C   0  0  0  0  0  0  0  0  0  0  0  0
   -0.3905    0.0010    1.6115 C   0  0  0  0  0  0  0  0  0  0  0  0
   -3.4729   -1.3693    2.6181 H   0  0  0  0  0  0  0  0  0  0  0  0
   -5.2481   -1.2180    2.5275 H   0  0  0  0  0  0  0  0  0  0  0  0
   -4.3651   -0.5769    3.9263 H   0  0  0  0  0  0  0  0  0  0  0  0
   -6.1492    1.4516    0.0661 H   0  0  0  0  0  0  0  0  0  0  0  0
   -6.4622    0.7524   -2.2781 H   0  0  0  0  0  0  0  0  0  0  0  0
   -4.8110   -0.7477   -3.3681 H   0  0  0  0  0  0  0  0  0  0  0  0
   -2.8209   -1.5198   -2.1060 H   0  0  0  0  0  0  0  0  0  0  0  0
   -1.5343    1.0790    0.1616 H   0  0  0  0  0  0  0  0  0  0  0  0
   -0.2606   -1.3557   -1.1299 H   0  0  0  0  0  0  0  0  0  0  0  0
   -0.6036    0.2203   -1.8091 H   0  0  0  0  0  0  0  0  0  0  0  0
    1.2012    1.2420   -0.4455 H   0  0  0  0  0  0  0  0  0  0  0  0
    1.8057   -0.0207   -1.5235 H   0  0  0  0  0  0  0  0  0  0  0  0
    2.6024    1.1200    1.4961 H   0  0  0  0  0  0  0  0  0  0  0  0
    3.3314   -0.4134    1.9462 H   0  0  0  0  0  0  0  0  0  0  0  0
    4.3815   -1.7720   -0.1985 H   0  0  0  0  0  0  0  0  0  0  0  0
    6.2843   -1.4636   -1.7504 H   0  0  0  0  0  0  0  0  0  0  0  0
    7.0749    0.8204   -2.3129 H   0  0  0  0  0  0  0  0  0  0  0  0
    5.9589    2.7985   -1.3163 H   0  0  0  0  0  0  0  0  0  0  0  0
    4.0623    2.5061    0.2363 H   0  0  0  0  0  0  0  0  0  0  0  0
    0.4328   -1.9561    1.2871 H   0  0  0  0  0  0  0  0  0  0  0  0
    1.2628   -1.0476    2.5213 H   0  0  0  0  0  0  0  0  0  0  0  0
   -0.0255    1.0039    1.8675 H   0  0  0  0  0  0  0  0  0  0  0  0
   -1.0555   -0.3152    2.4229 H   0  0  0  0  0  0  0  0  0  0  0  0
  1  2  1  0
  2  3  1  0
  3  4  2  0
  4  5  1  0
  5  6  2  0
  6  7  1  0
  7  8  2  0
  8  9  1  0
  9 10  1  0
 10 11  1  0
 11 12  1  0
 12 13  1  0
 13 14  1  0
 14 15  1  0
 15 16  2  0
 16 17  1  0
 17 18  2  0
 18 19  1  0
 19 20  2  0
 13 21  1  0
 21 22  1  0
  8  3  1  0
 22 10  1  0
 20 15  1  0
  1 23  1  0
  1 24  1  0
  1 25  1  0
  4 26  1  0
  5 27  1  0
  6 28  1  0
  7 29  1  0
 10 30  1  0
 11 31  1  0
 11 32  1  0
 12 33  1  0
 12 34  1  0
 14 35  1  0
 14 36  1  0
 16 37  1  0
 17 38  1  0
 18 39  1  0
 19 40  1  0
 20 41  1  0
 21 42  1  0
 21 43  1  0
 22 44  1  0
 22 45  1  0
M  END
$$$$
