
     RDKit          3D

 39 40  0  0  0  0  0  0  0  0999 V2000
   -6.9693   -1.4468    1.8573 N   0  0  0  0  0  0  0  0  0  0  0  0
   -6.6731   -1.0889    0.2379 S   0  0  0  0  0  6  0  0  0  0  0  0
   -6.7853   -2.3455   -0.4662 O   0  0  0  0  0  0  0  0  0  0  0  0
   -7.4578    0.0709   -0.1119 O   0  0  0  0  0  0  0  0  0  0  0  0
   -4.9647   -0.6193    0.2884 C   0  0  0  0  0  0  0  0  0  0  0  0
   -3.9743   -1.5761    0.0585 C   0  0  0  0  0  0  0  0  0  0  0  0
   -2.6324   -1.1957    0.0981 C   0  0  0  0  0  0  0  0  0  0  0  0
   -2.2767    0.1367    0.3587 C   0  0  0  0  0  0  0  0  0  0  0  0
   -0.8224    0.5405    0.3751 C   0  0  0  0  0  0  0  0  0  0  0  0
   -0.2792    0.7668   -1.0392 C   0  0  0  0  0  0  0  0  0  0  0  0
    1.1124    1.1856   -1.0424 N   0  0  0  0  0  0  0  0  0  0  0  0
    2.1173    0.2725   -0.7891 C   0  0  0  0  0  0  0  0  0  0  0  0
    1.8924   -0.9118   -0.5828 O   0  0  0  0  0  0  0  0  0  0  0  0
    3.3511    0.8842   -0.8216 N   0  0  0  0  0  0  0  0  0  0  0  0
    4.6014    0.3056   -0.5250 C   0  0  0  0  0  0  0  0  0  0  0  0
    5.7413    1.0694   -0.8035 C   0  0  0  0  0  0  0  0  0  0  0  0
    7.0179    0.5700   -0.5294 C   0  0  0  0  0  0  0  0  0  0  0  0
    7.1686   -0.6987    0.0326 C   0  0  0  0  0  0  0  0  0  0  0  0
    8.7738   -1.2528    0.3479 Cl  0  0  0  0  0  0  0  0  0  0  0  0
    6.0355   -1.4652    0.3210 C   0  0  0  0  0  0  0  0  0  0  0  0
    6.1453   -3.0399    1.0273 Cl  0  0  0  0  0  0  0  0  0  0  0  0
    4.7574   -0.9614    0.0436 C   0  0  0  0  0  0  0  0  0  0  0  0
   -3.2841    1.0888    0.5707 C   0  0  0  0  0  0  0  0  0  0  0  0
   -4.6279    0.7141    0.5349 C   0  0  0  0  0  0  0  0  0  0  0  0
   -7.1918   -2.4406    1.9378 H   0  0  0  0  0  0  0  0  0  0  0  0
   -6.2026   -1.1787    2.4732 H   0  0  0  0  0  0  0  0  0  0  0  0
   -4.2337   -2.6108   -0.1559 H   0  0  0  0  0  0  0  0  0  0  0  0
   -1.8601   -1.9430   -0.0823 H   0  0  0  0  0  0  0  0  0  0  0  0
   -0.2432   -0.2309    0.8976 H   0  0  0  0  0  0  0  0  0  0  0  0
   -0.6963    1.4533    0.9717 H   0  0  0  0  0  0  0  0  0  0  0  0
   -0.3660   -0.1477   -1.6380 H   0  0  0  0  0  0  0  0  0  0  0  0
   -0.8474    1.5531   -1.5488 H   0  0  0  0  0  0  0  0  0  0  0  0
    1.2992    2.1428   -0.7843 H   0  0  0  0  0  0  0  0  0  0  0  0
    3.3627    1.7952   -1.2555 H   0  0  0  0  0  0  0  0  0  0  0  0
    5.6553    2.0612   -1.2413 H   0  0  0  0  0  0  0  0  0  0  0  0
    7.8911    1.1770   -0.7570 H   0  0  0  0  0  0  0  0  0  0  0  0
    3.8966   -1.5771    0.2876 H   0  0  0  0  0  0  0  0  0  0  0  0
   -3.0289    2.1295    0.7607 H   0  0  0  0  0  0  0  0  0  0  0  0
   -5.4022    1.4627    0.6932 H   0  0  0  0  0  0  0  0  0  0  0  0
  1  2  1  0
  2  3  2  0
  2  4  2  0
  2  5  1  0
  5  6  2  0
  6  7  1  0
  7  8  2  0
  8  9  1  0
  9 10  1  0
 10 11  1  0
 11 12  1  0
 12 13  2  0
 12 14  1  0
 14 15  1  0
 15 16  2  0
 16 17  1  0
 17 18  2  0
 18 19  1  0
 18 20  1  0
 20 21  1  0
 20 22  2  0
  8 23  1  0
 23 24  2  0
 24  5  1  0
 22 15  1  0
  1 25  1  0
  1 26  1  0
  6 27  1  0
  7 28  1  0
  9 29  1  0
  9 30  1  0
 10 31  1  0
 10 32  1  0
 11 33  1  0
 14 34  1  0
 16 35  1  0
 17 36  1  0
 22 37  1  0
 23 38  1  0
 24 39  1  0
M  END
$$$$
