
     RDKit          3D

 45 49  0  0  0  0  0  0  0  0999 V2000
    0.5010   -0.3122   -0.3081 O   0  0  0  0  0  0  0  0  0  0  0  0
    0.5262    0.3147    0.7428 C   0  0  0  0  0  0  0  0  0  0  0  0
   -0.6409    0.6306    1.6425 C   0  0  0  0  0  0  0  0  0  0  0  0
   -1.9179    0.3814    0.9985 N   0  0  0  0  0  0  0  0  0  0  0  0
   -2.5400    1.2685    0.1302 C   0  0  0  0  0  0  0  0  0  0  0  0
   -1.9895    2.4322   -0.1842 O   0  0  0  0  0  0  0  0  0  0  0  0
   -3.6998    0.6642   -0.2532 C   0  0  0  0  0  0  0  0  0  0  0  0
   -3.7901   -0.5899    0.3914 C   0  0  0  0  0  0  0  0  0  0  0  0
   -2.6867   -0.7600    1.1735 C   0  0  0  0  0  0  0  0  0  0  0  0
   -2.2969   -1.7483    1.9654 O   0  0  0  0  0  0  0  0  0  0  0  0
   -5.0680   -1.2250   -0.0561 C   0  0  0  0  0  0  0  0  0  0  0  0
   -4.9164   -1.5944   -1.5546 C   0  0  0  0  0  0  0  0  0  0  0  0
   -4.8168   -0.2059   -2.2683 C   0  0  0  0  0  0  0  0  0  0  0  0
   -4.9210    0.8126   -1.1034 C   0  0  0  0  0  0  0  0  0  0  0  0
   -5.9549    0.0553   -0.2058 C   0  0  0  0  0  0  0  0  0  0  0  0
    1.6743    0.8394    1.3506 O   0  0  0  0  0  0  0  0  0  0  0  0
    2.8710    0.6740    0.6424 C   0  0  0  0  0  0  0  0  0  0  0  0
    3.0587    1.2744   -0.5986 C   0  0  0  0  0  0  0  0  0  0  0  0
    4.2864    1.1310   -1.2457 C   0  0  0  0  0  0  0  0  0  0  0  0
    5.3325    0.4051   -0.6499 C   0  0  0  0  0  0  0  0  0  0  0  0
    6.5728    0.2536   -1.2900 C   0  0  0  0  0  0  0  0  0  0  0  0
    7.6050   -0.4661   -0.6856 C   0  0  0  0  0  0  0  0  0  0  0  0
    7.4116   -1.0431    0.5660 C   0  0  0  0  0  0  0  0  0  0  0  0
    6.1849   -0.9031    1.2170 C   0  0  0  0  0  0  0  0  0  0  0  0
    5.1353   -0.1837    0.6229 C   0  0  0  0  0  0  0  0  0  0  0  0
    3.8965   -0.0356    1.2649 C   0  0  0  0  0  0  0  0  0  0  0  0
   -0.6191    1.6884    1.9255 H   0  0  0  0  0  0  0  0  0  0  0  0
   -0.5773    0.0208    2.5485 H   0  0  0  0  0  0  0  0  0  0  0  0
   -2.5795    2.8484   -0.8382 H   0  0  0  0  0  0  0  0  0  0  0  0
   -2.9646   -2.4518    1.8783 H   0  0  0  0  0  0  0  0  0  0  0  0
   -5.4670   -2.0058    0.5909 H   0  0  0  0  0  0  0  0  0  0  0  0
   -5.7984   -2.1355   -1.9156 H   0  0  0  0  0  0  0  0  0  0  0  0
   -4.0283   -2.2060   -1.7486 H   0  0  0  0  0  0  0  0  0  0  0  0
   -5.6520   -0.0871   -2.9677 H   0  0  0  0  0  0  0  0  0  0  0  0
   -3.8787   -0.1116   -2.8261 H   0  0  0  0  0  0  0  0  0  0  0  0
   -5.1904    1.8313   -1.3812 H   0  0  0  0  0  0  0  0  0  0  0  0
   -6.9112   -0.1330   -0.7062 H   0  0  0  0  0  0  0  0  0  0  0  0
   -6.1301    0.5606    0.7523 H   0  0  0  0  0  0  0  0  0  0  0  0
    2.2603    1.8406   -1.0686 H   0  0  0  0  0  0  0  0  0  0  0  0
    4.4218    1.5904   -2.2223 H   0  0  0  0  0  0  0  0  0  0  0  0
    6.7439    0.6967   -2.2682 H   0  0  0  0  0  0  0  0  0  0  0  0
    8.5595   -0.5760   -1.1937 H   0  0  0  0  0  0  0  0  0  0  0  0
    8.2147   -1.6042    1.0364 H   0  0  0  0  0  0  0  0  0  0  0  0
    6.0528   -1.3632    2.1937 H   0  0  0  0  0  0  0  0  0  0  0  0
    3.7261   -0.4728    2.2449 H   0  0  0  0  0  0  0  0  0  0  0  0
  1  2  2  0
  2  3  1  0
  3  4  1  0
  4  5  1  0
  5  6  1  0
  5  7  2  0
  7  8  1  0
  8  9  2  0
  9 10  1  0
  8 11  1  0
 11 12  1  0
 12 13  1  0
 13 14  1  0
 14 15  1  0
  2 16  1  0
 16 17  1  0
 17 18  2  0
 18 19  1  0
 19 20  2  0
 20 21  1  0
 21 22  2  0
 22 23  1  0
 23 24  2  0
 24 25  1  0
 25 26  2  0
  9  4  1  0
 15 11  1  0
 26 17  1  0
 14  7  1  0
 25 20  1  0
  3 27  1  0
  3 28  1  0
  6 29  1  0
 10 30  1  0
 11 31  1  0
 12 32  1  0
 12 33  1  0
 13 34  1  0
 13 35  1  0
 14 36  1  0
 15 37  1  0
 15 38  1  0
 18 39  1  0
 19 40  1  0
 21 41  1  0
 22 42  1  0
 23 43  1  0
 24 44  1  0
 26 45  1  0
M  END
$$$$
