
     RDKit          3D

 42 44  0  0  0  0  0  0  0  0999 V2000
   -1.1006    1.5778    2.9621 C   0  0  0  0  0  0  0  0  0  0  0  0
   -1.7669    2.1156    1.8278 O   0  0  0  0  0  0  0  0  0  0  0  0
   -1.7797    1.3478    0.6939 C   0  0  0  0  0  0  0  0  0  0  0  0
   -1.4888   -0.0172    0.6525 C   0  0  0  0  0  0  0  0  0  0  0  0
   -1.5152   -0.7126   -0.5653 C   0  0  0  0  0  0  0  0  0  0  0  0
   -1.1557   -2.1361   -0.5868 C   0  0  0  0  0  0  0  0  0  0  0  0
   -0.0349   -2.6389   -1.1423 C   0  0  0  0  0  0  0  0  0  0  0  0
    0.1981   -4.0388   -1.1783 C   0  0  0  0  0  0  0  0  0  0  0  0
    0.3685   -5.1864   -1.1579 N   0  0  0  0  0  0  0  0  0  0  0  0
    0.9713   -1.7764   -1.8068 C   0  0  0  0  0  0  0  0  0  0  0  0
    1.1139   -1.8145   -3.0262 O   0  0  0  0  0  0  0  0  0  0  0  0
    1.7061   -0.8611   -0.9370 C   0  0  0  0  0  0  0  0  0  0  0  0
    2.2437    0.3282   -1.4019 C   0  0  0  0  0  0  0  0  0  0  0  0
    2.8063    0.9968   -0.3534 N   0  0  0  0  0  0  0  0  0  0  0  0
    2.6930    0.2534    0.7966 C   0  0  0  0  0  0  0  0  0  0  0  0
    3.1366    0.5463    2.0924 C   0  0  0  0  0  0  0  0  0  0  0  0
    2.9085   -0.4031    3.0896 C   0  0  0  0  0  0  0  0  0  0  0  0
    2.2674   -1.6014    2.7974 C   0  0  0  0  0  0  0  0  0  0  0  0
    1.8276   -1.8781    1.4965 C   0  0  0  0  0  0  0  0  0  0  0  0
    2.0275   -0.9311    0.4655 C   0  0  0  0  0  0  0  0  0  0  0  0
   -1.8582   -0.0476   -1.7516 C   0  0  0  0  0  0  0  0  0  0  0  0
   -2.1635    1.3118   -1.7235 C   0  0  0  0  0  0  0  0  0  0  0  0
   -2.5068    2.0828   -2.8060 O   0  0  0  0  0  0  0  0  0  0  0  0
   -2.4500    1.4546   -4.0824 C   0  0  0  0  0  0  0  0  0  0  0  0
   -2.1263    1.9937   -0.4982 C   0  0  0  0  0  0  0  0  0  0  0  0
   -2.4260    3.3354   -0.4815 O   0  0  0  0  0  0  0  0  0  0  0  0
   -1.6693    0.7467    3.3911 H   0  0  0  0  0  0  0  0  0  0  0  0
   -1.0413    2.3652    3.7196 H   0  0  0  0  0  0  0  0  0  0  0  0
   -0.0776    1.2728    2.7187 H   0  0  0  0  0  0  0  0  0  0  0  0
   -1.2243   -0.5555    1.5574 H   0  0  0  0  0  0  0  0  0  0  0  0
   -1.8809   -2.7951   -0.1117 H   0  0  0  0  0  0  0  0  0  0  0  0
    2.2404    0.7605   -2.3948 H   0  0  0  0  0  0  0  0  0  0  0  0
    3.2487    1.9045   -0.4093 H   0  0  0  0  0  0  0  0  0  0  0  0
    3.6480    1.4766    2.3195 H   0  0  0  0  0  0  0  0  0  0  0  0
    3.2479   -0.2064    4.1042 H   0  0  0  0  0  0  0  0  0  0  0  0
    2.1137   -2.3366    3.5842 H   0  0  0  0  0  0  0  0  0  0  0  0
    1.3491   -2.8333    1.3066 H   0  0  0  0  0  0  0  0  0  0  0  0
   -1.8762   -0.6073   -2.6819 H   0  0  0  0  0  0  0  0  0  0  0  0
   -3.1878    0.6491   -4.1565 H   0  0  0  0  0  0  0  0  0  0  0  0
   -1.4404    1.0901   -4.2998 H   0  0  0  0  0  0  0  0  0  0  0  0
   -2.7020    2.2071   -4.8358 H   0  0  0  0  0  0  0  0  0  0  0  0
   -2.6440    3.5609   -1.4053 H   0  0  0  0  0  0  0  0  0  0  0  0
  1  2  1  0
  2  3  1  0
  3  4  2  0
  4  5  1  0
  5  6  1  0
  6  7  2  3
  7  8  1  0
  8  9  3  0
  7 10  1  0
 10 11  2  0
 10 12  1  0
 12 13  2  0
 13 14  1  0
 14 15  1  0
 15 16  2  0
 16 17  1  0
 17 18  2  0
 18 19  1  0
 19 20  2  0
  5 21  2  0
 21 22  1  0
 22 23  1  0
 23 24  1  0
 22 25  2  0
 25 26  1  0
 25  3  1  0
 20 12  1  0
 20 15  1  0
  1 27  1  0
  1 28  1  0
  1 29  1  0
  4 30  1  0
  6 31  1  0
 13 32  1  0
 14 33  1  0
 16 34  1  0
 17 35  1  0
 18 36  1  0
 19 37  1  0
 21 38  1  0
 24 39  1  0
 24 40  1  0
 24 41  1  0
 26 42  1  0
M  END
$$$$
