
     RDKit          3D

 40 41  0  0  0  0  0  0  0  0999 V2000
   -6.6009   -0.3737    0.5480 C   0  0  0  0  0  0  0  0  0  0  0  0
   -5.1684   -0.1204    0.1858 C   0  0  0  0  0  0  0  0  0  0  0  0
   -4.2517    0.2933    1.1535 C   0  0  0  0  0  0  0  0  0  0  0  0
   -2.9100    0.4957    0.8137 C   0  0  0  0  0  0  0  0  0  0  0  0
   -2.4497    0.2745   -0.4923 C   0  0  0  0  0  0  0  0  0  0  0  0
   -1.0825    0.5162   -0.7177 N   0  0  0  0  0  0  0  0  0  0  0  0
   -0.2285    0.3183   -1.7790 C   0  0  0  0  0  0  0  0  0  0  0  0
   -0.4901   -0.3868   -3.2651 S   0  0  0  0  0  0  0  0  0  0  0  0
    1.0471    0.8003   -1.5189 N   0  0  0  0  0  0  0  0  0  0  0  0
    1.4342    1.0883   -0.1694 N   0  0  0  0  0  0  0  0  0  0  0  0
    1.8418    2.4993   -0.0560 C   0  0  0  0  0  0  0  0  0  0  0  0
    2.5599    0.2733    0.1754 C   0  0  0  0  0  0  0  0  0  0  0  0
    3.4277   -0.0915   -0.8091 N   0  0  0  0  0  0  0  0  0  0  0  0
    4.4792   -0.8654   -0.4456 C   0  0  0  0  0  0  0  0  0  0  0  0
    5.4429   -1.2832   -1.5109 C   0  0  0  0  0  0  0  0  0  0  0  0
    4.6664   -1.2613    0.8711 C   0  0  0  0  0  0  0  0  0  0  0  0
    3.8206   -0.9176    1.8666 N   0  0  0  0  0  0  0  0  0  0  0  0
    2.7536   -0.1563    1.5020 C   0  0  0  0  0  0  0  0  0  0  0  0
    1.7755    0.1791    2.5875 C   0  0  0  0  0  0  0  0  0  0  0  0
   -3.3674   -0.1441   -1.4523 C   0  0  0  0  0  0  0  0  0  0  0  0
   -4.7129   -0.3472   -1.1156 C   0  0  0  0  0  0  0  0  0  0  0  0
   -6.9247    0.2971    1.3508 H   0  0  0  0  0  0  0  0  0  0  0  0
   -7.2587   -0.1947   -0.3090 H   0  0  0  0  0  0  0  0  0  0  0  0
   -6.7258   -1.4091    0.8795 H   0  0  0  0  0  0  0  0  0  0  0  0
   -4.5726    0.4613    2.1788 H   0  0  0  0  0  0  0  0  0  0  0  0
   -2.2256    0.8215    1.5929 H   0  0  0  0  0  0  0  0  0  0  0  0
   -0.5534    0.8619    0.0754 H   0  0  0  0  0  0  0  0  0  0  0  0
    1.8082    0.4767   -2.1213 H   0  0  0  0  0  0  0  0  0  0  0  0
    2.6686    2.7456   -0.7342 H   0  0  0  0  0  0  0  0  0  0  0  0
    0.9934    3.1458   -0.3078 H   0  0  0  0  0  0  0  0  0  0  0  0
    2.1402    2.7488    0.9680 H   0  0  0  0  0  0  0  0  0  0  0  0
    6.4436   -0.9007   -1.2873 H   0  0  0  0  0  0  0  0  0  0  0  0
    5.1383   -0.8911   -2.4867 H   0  0  0  0  0  0  0  0  0  0  0  0
    5.4821   -2.3747   -1.5799 H   0  0  0  0  0  0  0  0  0  0  0  0
    5.5091   -1.8774    1.1668 H   0  0  0  0  0  0  0  0  0  0  0  0
    2.0377   -0.3375    3.5170 H   0  0  0  0  0  0  0  0  0  0  0  0
    1.7777    1.2536    2.7904 H   0  0  0  0  0  0  0  0  0  0  0  0
    0.7658   -0.1366    2.3064 H   0  0  0  0  0  0  0  0  0  0  0  0
   -3.0885   -0.3160   -2.4833 H   0  0  0  0  0  0  0  0  0  0  0  0
   -5.4021   -0.6823   -1.8881 H   0  0  0  0  0  0  0  0  0  0  0  0
  1  2  1  0
  2  3  2  0
  3  4  1  0
  4  5  2  0
  5  6  1  0
  6  7  1  0
  7  8  2  0
  7  9  1  0
  9 10  1  0
 10 11  1  0
 10 12  1  0
 12 13  2  0
 13 14  1  0
 14 15  1  0
 14 16  2  0
 16 17  1  0
 17 18  2  0
 18 19  1  0
  5 20  1  0
 20 21  2  0
 21  2  1  0
 18 12  1  0
  1 22  1  0
  1 23  1  0
  1 24  1  0
  3 25  1  0
  4 26  1  0
  6 27  1  0
  9 28  1  0
 11 29  1  0
 11 30  1  0
 11 31  1  0
 15 32  1  0
 15 33  1  0
 15 34  1  0
 16 35  1  0
 19 36  1  0
 19 37  1  0
 19 38  1  0
 20 39  1  0
 21 40  1  0
M  END
$$$$
