
     RDKit          3D

 43 44  0  0  0  0  0  0  0  0999 V2000
   -2.7551   -0.5401    2.4420 O   0  0  0  0  0  0  0  0  0  0  0  0
   -2.1529    0.1650    1.6351 C   0  0  0  0  0  0  0  0  0  0  0  0
   -0.7412    0.6820    1.9216 C   0  0  0  0  0  0  0  0  0  0  0  0
   -0.4151    1.8109    1.1075 O   0  0  0  0  0  0  0  0  0  0  0  0
    0.9006    2.2915    1.3455 C   0  0  0  0  0  0  0  0  0  0  0  0
    2.0536    1.4607    0.7550 C   0  0  0  0  0  0  0  0  0  0  0  0
    1.8674    0.3958    0.1718 O   0  0  0  0  0  0  0  0  0  0  0  0
    3.2921    2.0682    0.9760 N   0  0  0  0  0  0  0  0  0  0  0  0
    4.5078    1.4933    0.7053 N   0  0  0  0  0  0  0  0  0  0  0  0
    4.6151    0.7684   -0.3641 C   0  0  0  0  0  0  0  0  0  0  0  0
    5.8741    0.0731   -0.7054 C   0  0  0  0  0  0  0  0  0  0  0  0
    7.0027    0.1810    0.1163 C   0  0  0  0  0  0  0  0  0  0  0  0
    8.1787   -0.4859   -0.2316 C   0  0  0  0  0  0  0  0  0  0  0  0
    8.2154   -1.2523   -1.3921 C   0  0  0  0  0  0  0  0  0  0  0  0
    9.3445   -1.8912   -1.7242 F   0  0  0  0  0  0  0  0  0  0  0  0
    7.0979   -1.3664   -2.2135 C   0  0  0  0  0  0  0  0  0  0  0  0
    5.9190   -0.7014   -1.8709 C   0  0  0  0  0  0  0  0  0  0  0  0
   -2.6107    0.5693    0.3836 N   0  0  0  0  0  0  0  0  0  0  0  0
   -3.8961    0.4306   -0.0726 N   0  0  0  0  0  0  0  0  0  0  0  0
   -4.5178   -0.6700    0.2124 C   0  0  0  0  0  0  0  0  0  0  0  0
   -5.9206   -0.8945   -0.1951 C   0  0  0  0  0  0  0  0  0  0  0  0
   -6.5363   -2.1029    0.1521 C   0  0  0  0  0  0  0  0  0  0  0  0
   -7.8607   -2.3363   -0.2233 C   0  0  0  0  0  0  0  0  0  0  0  0
   -8.5542   -1.3644   -0.9384 C   0  0  0  0  0  0  0  0  0  0  0  0
   -9.8243   -1.5922   -1.2968 F   0  0  0  0  0  0  0  0  0  0  0  0
   -7.9502   -0.1605   -1.2863 C   0  0  0  0  0  0  0  0  0  0  0  0
   -6.6264    0.0784   -0.9134 C   0  0  0  0  0  0  0  0  0  0  0  0
   -0.7043    0.9799    2.9753 H   0  0  0  0  0  0  0  0  0  0  0  0
   -0.0458   -0.1434    1.7435 H   0  0  0  0  0  0  0  0  0  0  0  0
    1.0638    2.4173    2.4226 H   0  0  0  0  0  0  0  0  0  0  0  0
    0.9559    3.2848    0.8856 H   0  0  0  0  0  0  0  0  0  0  0  0
    3.3481    2.7783    1.7008 H   0  0  0  0  0  0  0  0  0  0  0  0
    3.7931    0.6528   -1.0913 H   0  0  0  0  0  0  0  0  0  0  0  0
    6.9715    0.7790    1.0238 H   0  0  0  0  0  0  0  0  0  0  0  0
    9.0630   -0.4137    0.3937 H   0  0  0  0  0  0  0  0  0  0  0  0
    7.1526   -1.9731   -3.1121 H   0  0  0  0  0  0  0  0  0  0  0  0
    5.0460   -0.7962   -2.5120 H   0  0  0  0  0  0  0  0  0  0  0  0
   -2.1013    1.3572   -0.0176 H   0  0  0  0  0  0  0  0  0  0  0  0
   -4.0332   -1.5067    0.7444 H   0  0  0  0  0  0  0  0  0  0  0  0
   -5.9974   -2.8615    0.7143 H   0  0  0  0  0  0  0  0  0  0  0  0
   -8.3563   -3.2663    0.0374 H   0  0  0  0  0  0  0  0  0  0  0  0
   -8.5117    0.5828   -1.8432 H   0  0  0  0  0  0  0  0  0  0  0  0
   -6.1514    1.0189   -1.1826 H   0  0  0  0  0  0  0  0  0  0  0  0
  1  2  2  0
  2  3  1  0
  3  4  1  0
  4  5  1  0
  5  6  1  0
  6  7  2  0
  6  8  1  0
  8  9  1  0
  9 10  2  3
 10 11  1  0
 11 12  2  0
 12 13  1  0
 13 14  2  0
 14 15  1  0
 14 16  1  0
 16 17  2  0
  2 18  1  0
 18 19  1  0
 19 20  2  3
 20 21  1  0
 21 22  2  0
 22 23  1  0
 23 24  2  0
 24 25  1  0
 24 26  1  0
 26 27  2  0
 17 11  1  0
 27 21  1  0
  3 28  1  0
  3 29  1  0
  5 30  1  0
  5 31  1  0
  8 32  1  0
 10 33  1  0
 12 34  1  0
 13 35  1  0
 16 36  1  0
 17 37  1  0
 18 38  1  0
 20 39  1  0
 22 40  1  0
 23 41  1  0
 26 42  1  0
 27 43  1  0
M  END
$$$$
