
     RDKit          3D

 57 60  0  0  0  0  0  0  0  0999 V2000
    4.7977    4.0369   -0.2497 O   0  0  0  0  0  0  0  0  0  0  0  0
    4.5073    2.7094   -0.7424 S   0  0  0  0  0  6  0  0  0  0  0  0
    5.2078    2.1392   -1.8698 O   0  0  0  0  0  0  0  0  0  0  0  0
    4.6760    1.6721    0.5652 N   0  0  0  0  0  0  0  0  0  0  0  0
    4.7669    0.2314    0.3325 C   0  0  0  0  0  0  0  0  0  0  0  0
    4.2693   -0.5241    1.5652 C   0  0  0  0  0  0  0  0  0  0  0  0
    5.1189   -1.7830    1.5871 C   0  0  0  0  0  0  0  0  0  0  0  0
    6.4942   -1.2652    1.2035 C   0  0  0  0  0  0  0  0  0  0  0  0
    6.2223   -0.2101    0.1346 C   0  0  0  0  0  0  0  0  0  0  0  0
    2.7591    2.6180   -1.0430 C   0  0  0  0  0  0  0  0  0  0  0  0
    1.8831    3.2922   -0.1823 C   0  0  0  0  0  0  0  0  0  0  0  0
    0.5075    3.2219   -0.4055 C   0  0  0  0  0  0  0  0  0  0  0  0
    0.0256    2.4767   -1.4869 C   0  0  0  0  0  0  0  0  0  0  0  0
   -1.7232    2.3544   -1.7813 S   0  0  0  0  0  6  0  0  0  0  0  0
   -2.4202    3.0768   -0.7384 O   0  0  0  0  0  0  0  0  0  0  0  0
   -1.9419    2.6437   -3.1817 O   0  0  0  0  0  0  0  0  0  0  0  0
   -2.0157    0.6944   -1.5277 N   0  0  0  0  0  0  0  0  0  0  0  0
   -1.8418    0.2167   -0.1141 C   0  0  0  0  0  0  0  0  0  0  0  0
   -3.1805   -0.0685    0.5912 C   0  0  0  0  0  0  0  0  0  0  0  0
   -3.9432   -1.0932   -0.1385 N   0  0  0  0  0  0  0  0  0  0  0  0
   -4.8750   -1.9000    0.4939 C   0  0  0  0  0  0  0  0  0  0  0  0
   -5.4274   -1.5643    1.7413 C   0  0  0  0  0  0  0  0  0  0  0  0
   -6.3672   -2.3817    2.3827 C   0  0  0  0  0  0  0  0  0  0  0  0
   -6.7788   -3.5684    1.7893 C   0  0  0  0  0  0  0  0  0  0  0  0
   -6.2501   -3.9328    0.5574 C   0  0  0  0  0  0  0  0  0  0  0  0
   -5.3127   -3.1073   -0.0764 C   0  0  0  0  0  0  0  0  0  0  0  0
   -3.7611   -1.1341   -1.5995 C   0  0  0  0  0  0  0  0  0  0  0  0
   -3.3051    0.2318   -2.1442 C   0  0  0  0  0  0  0  0  0  0  0  0
    0.9021    1.8225   -2.3620 C   0  0  0  0  0  0  0  0  0  0  0  0
    2.2773    1.8954   -2.1402 C   0  0  0  0  0  0  0  0  0  0  0  0
    5.1886    2.0849    1.3438 H   0  0  0  0  0  0  0  0  0  0  0  0
    4.1625   -0.0627   -0.5333 H   0  0  0  0  0  0  0  0  0  0  0  0
    3.2001   -0.7503    1.5028 H   0  0  0  0  0  0  0  0  0  0  0  0
    4.4318    0.0529    2.4846 H   0  0  0  0  0  0  0  0  0  0  0  0
    4.7580   -2.4998    0.8401 H   0  0  0  0  0  0  0  0  0  0  0  0
    5.1153   -2.2724    2.5647 H   0  0  0  0  0  0  0  0  0  0  0  0
    7.1541   -2.0608    0.8441 H   0  0  0  0  0  0  0  0  0  0  0  0
    6.9735   -0.7975    2.0722 H   0  0  0  0  0  0  0  0  0  0  0  0
    6.9444    0.6114    0.2053 H   0  0  0  0  0  0  0  0  0  0  0  0
    6.3348   -0.6529   -0.8625 H   0  0  0  0  0  0  0  0  0  0  0  0
    2.2687    3.8698    0.6559 H   0  0  0  0  0  0  0  0  0  0  0  0
   -0.1749    3.7468    0.2603 H   0  0  0  0  0  0  0  0  0  0  0  0
   -1.2392   -0.6995   -0.1575 H   0  0  0  0  0  0  0  0  0  0  0  0
   -1.2676    0.9333    0.4812 H   0  0  0  0  0  0  0  0  0  0  0  0
   -2.9466   -0.4082    1.6079 H   0  0  0  0  0  0  0  0  0  0  0  0
   -3.7760    0.8497    0.6640 H   0  0  0  0  0  0  0  0  0  0  0  0
   -5.1558   -0.6357    2.2348 H   0  0  0  0  0  0  0  0  0  0  0  0
   -6.7768   -2.0824    3.3439 H   0  0  0  0  0  0  0  0  0  0  0  0
   -7.5072   -4.2050    2.2837 H   0  0  0  0  0  0  0  0  0  0  0  0
   -6.5589   -4.8614    0.0851 H   0  0  0  0  0  0  0  0  0  0  0  0
   -4.9092   -3.4462   -1.0267 H   0  0  0  0  0  0  0  0  0  0  0  0
   -3.0167   -1.9008   -1.8456 H   0  0  0  0  0  0  0  0  0  0  0  0
   -4.6989   -1.3920   -2.1064 H   0  0  0  0  0  0  0  0  0  0  0  0
   -4.0915    0.9719   -1.9532 H   0  0  0  0  0  0  0  0  0  0  0  0
   -3.1609    0.1519   -3.2266 H   0  0  0  0  0  0  0  0  0  0  0  0
    0.5159    1.2629   -3.2123 H   0  0  0  0  0  0  0  0  0  0  0  0
    2.9613    1.3915   -2.8209 H   0  0  0  0  0  0  0  0  0  0  0  0
  1  2  2  0
  2  3  2  0
  2  4  1  0
  4  5  1  0
  5  6  1  0
  6  7  1  0
  7  8  1  0
  8  9  1  0
  2 10  1  0
 10 11  2  0
 11 12  1  0
 12 13  2  0
 13 14  1  0
 14 15  2  0
 14 16  2  0
 14 17  1  0
 17 18  1  0
 18 19  1  0
 19 20  1  0
 20 21  1  0
 21 22  2  0
 22 23  1  0
 23 24  2  0
 24 25  1  0
 25 26  2  0
 20 27  1  0
 27 28  1  0
 13 29  1  0
 29 30  2  0
  9  5  1  0
 30 10  1  0
 28 17  1  0
 26 21  1  0
  4 31  1  0
  5 32  1  0
  6 33  1  0
  6 34  1  0
  7 35  1  0
  7 36  1  0
  8 37  1  0
  8 38  1  0
  9 39  1  0
  9 40  1  0
 11 41  1  0
 12 42  1  0
 18 43  1  0
 18 44  1  0
 19 45  1  0
 19 46  1  0
 22 47  1  0
 23 48  1  0
 24 49  1  0
 25 50  1  0
 26 51  1  0
 27 52  1  0
 27 53  1  0
 28 54  1  0
 28 55  1  0
 29 56  1  0
 30 57  1  0
M  END
$$$$
