
     RDKit          3D

 41 42  0  0  0  0  0  0  0  0999 V2000
   -5.1182   -0.2904    0.0491 C   0  0  0  0  0  0  0  0  0  0  0  0
   -3.6125   -0.3763    0.0467 C   0  0  0  0  0  0  0  0  0  0  0  0
   -2.8707   -0.8898   -0.9621 C   0  0  0  0  0  0  0  0  0  0  0  0
   -3.4255   -1.3756   -2.2776 C   0  0  0  0  0  0  0  0  0  0  0  0
   -1.3620   -1.0328   -0.8669 C   0  0  0  0  0  0  0  0  0  0  0  0
   -0.8110   -0.7810    0.5404 C   0  0  0  0  0  0  0  0  0  0  0  0
    0.7168   -0.7609    0.6062 C   0  0  0  0  0  0  0  0  0  0  0  0
    1.2932   -1.4880    1.4121 O   0  0  0  0  0  0  0  0  0  0  0  0
    1.3366    0.1267   -0.2466 N   0  0  0  0  0  0  0  0  0  0  0  0
    2.7203    0.3146   -0.4434 C   0  0  0  0  0  0  0  0  0  0  0  0
    3.0993    1.3798   -1.2749 C   0  0  0  0  0  0  0  0  0  0  0  0
    4.4457    1.6471   -1.5357 C   0  0  0  0  0  0  0  0  0  0  0  0
    5.4341    0.8451   -0.9720 C   0  0  0  0  0  0  0  0  0  0  0  0
    5.0614   -0.2248   -0.1480 C   0  0  0  0  0  0  0  0  0  0  0  0
    6.1038   -1.0757    0.4397 N   0  0  0  0  0  4  0  0  0  0  0  0
    5.7516   -2.1123    1.0188 O   0  0  0  0  0  0  0  0  0  0  0  0
    7.2816   -0.7076    0.3158 O   0  0  0  0  0  1  0  0  0  0  0  0
    3.7099   -0.4948    0.1185 C   0  0  0  0  0  0  0  0  0  0  0  0
   -1.4732    0.4195    1.2280 C   0  0  0  0  0  0  0  0  0  0  0  0
   -1.2221    1.7460    0.5401 C   0  0  0  0  0  0  0  0  0  0  0  0
   -0.6090    1.9300   -0.5005 O   0  0  0  0  0  0  0  0  0  0  0  0
   -1.7049    2.7929    1.2363 O   0  0  0  0  0  0  0  0  0  0  0  0
   -2.9840    0.1626    1.3220 C   0  0  0  0  0  0  0  0  0  0  0  0
   -5.4356    0.7477   -0.0917 H   0  0  0  0  0  0  0  0  0  0  0  0
   -5.5926   -0.9040   -0.7197 H   0  0  0  0  0  0  0  0  0  0  0  0
   -5.5123   -0.6426    1.0089 H   0  0  0  0  0  0  0  0  0  0  0  0
   -3.3850   -2.4687   -2.3223 H   0  0  0  0  0  0  0  0  0  0  0  0
   -4.4550   -1.0607   -2.4608 H   0  0  0  0  0  0  0  0  0  0  0  0
   -2.8306   -0.9754   -3.1065 H   0  0  0  0  0  0  0  0  0  0  0  0
   -1.0785   -2.0509   -1.1664 H   0  0  0  0  0  0  0  0  0  0  0  0
   -0.9066   -0.3663   -1.6077 H   0  0  0  0  0  0  0  0  0  0  0  0
   -1.0904   -1.6681    1.1331 H   0  0  0  0  0  0  0  0  0  0  0  0
    0.7315    0.7896   -0.7334 H   0  0  0  0  0  0  0  0  0  0  0  0
    2.3455    2.0222   -1.7270 H   0  0  0  0  0  0  0  0  0  0  0  0
    4.7199    2.4799   -2.1792 H   0  0  0  0  0  0  0  0  0  0  0  0
    6.4796    1.0606   -1.1833 H   0  0  0  0  0  0  0  0  0  0  0  0
    3.4500   -1.3358    0.7546 H   0  0  0  0  0  0  0  0  0  0  0  0
   -1.0544    0.5194    2.2386 H   0  0  0  0  0  0  0  0  0  0  0  0
   -1.4710    3.5855    0.7090 H   0  0  0  0  0  0  0  0  0  0  0  0
   -3.5053    1.0819    1.6168 H   0  0  0  0  0  0  0  0  0  0  0  0
   -3.1704   -0.5687    2.1200 H   0  0  0  0  0  0  0  0  0  0  0  0
  1  2  1  0
  2  3  2  0
  3  4  1  0
  3  5  1  0
  5  6  1  0
  6  7  1  0
  7  8  2  0
  7  9  1  0
  9 10  1  0
 10 11  2  0
 11 12  1  0
 12 13  2  0
 13 14  1  0
 14 15  1  0
 15 16  2  0
 15 17  1  0
 14 18  2  0
  6 19  1  0
 19 20  1  0
 20 21  2  0
 20 22  1  0
 19 23  1  0
 23  2  1  0
 18 10  1  0
  1 24  1  0
  1 25  1  0
  1 26  1  0
  4 27  1  0
  4 28  1  0
  4 29  1  0
  5 30  1  0
  5 31  1  0
  6 32  1  0
  9 33  1  0
 11 34  1  0
 12 35  1  0
 13 36  1  0
 18 37  1  0
 19 38  1  0
 22 39  1  0
 23 40  1  0
 23 41  1  0
M  CHG  2  15   1  17  -1
M  END
$$$$
