
     RDKit          3D

 50 53  0  0  0  0  0  0  0  0999 V2000
    7.0770    2.0068   -0.9011 C   0  0  0  0  0  0  0  0  0  0  0  0
    5.9641    1.0413   -0.6382 C   0  0  0  0  0  0  0  0  0  0  0  0
    4.6404    1.3996   -0.8873 C   0  0  0  0  0  0  0  0  0  0  0  0
    3.5940    0.5661   -0.6730 N   0  0  0  0  0  0  0  0  0  0  0  0
    3.9347   -0.6651   -0.1936 C   0  0  0  0  0  0  0  0  0  0  0  0
    2.8250   -1.6237    0.0654 C   0  0  0  0  0  0  0  0  0  0  0  0
    3.0357   -2.7395    0.5252 O   0  0  0  0  0  0  0  0  0  0  0  0
    1.5741   -1.1407   -0.2458 N   0  0  0  0  0  0  0  0  0  0  0  0
    0.3603   -1.8753    0.0289 C   0  0  0  0  0  0  0  0  0  0  0  0
   -0.0255   -1.8344    1.5273 C   0  0  0  0  0  0  0  0  0  0  0  0
   -0.7811   -0.5457    1.9831 C   0  0  0  0  0  0  0  0  0  0  0  0
    0.1279    0.6975    1.9079 C   0  0  0  0  0  0  0  0  0  0  0  0
   -1.2003   -0.7264    3.4566 C   0  0  0  0  0  0  0  0  0  0  0  0
   -2.0648   -0.3204    1.1245 C   0  0  0  0  0  0  0  0  0  0  0  0
   -1.8190   -0.6007   -0.3214 C   0  0  0  0  0  0  0  0  0  0  0  0
   -0.7244   -1.2946   -0.8075 C   0  0  0  0  0  0  0  0  0  0  0  0
   -0.8756   -1.2738   -2.1968 C   0  0  0  0  0  0  0  0  0  0  0  0
   -1.9639   -0.6108   -2.5766 N   0  0  0  0  0  0  0  0  0  0  0  0
   -2.5917   -0.2390   -1.4203 N   0  0  0  0  0  0  0  0  0  0  0  0
   -3.8602    0.4174   -1.5087 C   0  0  0  0  0  0  0  0  0  0  0  0
   -4.6932    0.6178   -0.4025 C   0  0  0  0  0  0  0  0  0  0  0  0
   -5.9235    1.2709   -0.5489 C   0  0  0  0  0  0  0  0  0  0  0  0
   -6.3384    1.7234   -1.7988 C   0  0  0  0  0  0  0  0  0  0  0  0
   -5.5290    1.5159   -2.9108 C   0  0  0  0  0  0  0  0  0  0  0  0
   -4.3011    0.8642   -2.7686 C   0  0  0  0  0  0  0  0  0  0  0  0
    5.2464   -1.0325    0.0571 C   0  0  0  0  0  0  0  0  0  0  0  0
    6.2871   -0.1870   -0.1597 N   0  0  0  0  0  0  0  0  0  0  0  0
    6.9291    2.9237   -0.3224 H   0  0  0  0  0  0  0  0  0  0  0  0
    7.1167    2.2559   -1.9661 H   0  0  0  0  0  0  0  0  0  0  0  0
    8.0419    1.5757   -0.6155 H   0  0  0  0  0  0  0  0  0  0  0  0
    4.3838    2.3818   -1.2721 H   0  0  0  0  0  0  0  0  0  0  0  0
    1.5266   -0.1784   -0.5724 H   0  0  0  0  0  0  0  0  0  0  0  0
    0.5336   -2.9205   -0.2561 H   0  0  0  0  0  0  0  0  0  0  0  0
    0.8616   -1.9911    2.1542 H   0  0  0  0  0  0  0  0  0  0  0  0
   -0.6871   -2.6919    1.7184 H   0  0  0  0  0  0  0  0  0  0  0  0
   -0.3468    1.5590    2.3922 H   0  0  0  0  0  0  0  0  0  0  0  0
    0.3415    0.9975    0.8782 H   0  0  0  0  0  0  0  0  0  0  0  0
    1.0826    0.5200    2.4150 H   0  0  0  0  0  0  0  0  0  0  0  0
   -0.3253   -0.8604    4.1029 H   0  0  0  0  0  0  0  0  0  0  0  0
   -1.7555    0.1455    3.8200 H   0  0  0  0  0  0  0  0  0  0  0  0
   -1.8437   -1.6047    3.5818 H   0  0  0  0  0  0  0  0  0  0  0  0
   -2.8505   -1.0036    1.4708 H   0  0  0  0  0  0  0  0  0  0  0  0
   -2.4133    0.7082    1.2700 H   0  0  0  0  0  0  0  0  0  0  0  0
   -0.2259   -1.6953   -2.9535 H   0  0  0  0  0  0  0  0  0  0  0  0
   -4.4518    0.2541    0.5865 H   0  0  0  0  0  0  0  0  0  0  0  0
   -6.5639    1.4190    0.3178 H   0  0  0  0  0  0  0  0  0  0  0  0
   -7.2946    2.2283   -1.9072 H   0  0  0  0  0  0  0  0  0  0  0  0
   -5.8486    1.8591   -3.8912 H   0  0  0  0  0  0  0  0  0  0  0  0
   -3.6887    0.7214   -3.6579 H   0  0  0  0  0  0  0  0  0  0  0  0
    5.5033   -2.0144    0.4400 H   0  0  0  0  0  0  0  0  0  0  0  0
  1  2  1  0
  2  3  2  0
  3  4  1  0
  4  5  2  0
  5  6  1  0
  6  7  2  0
  6  8  1  0
  8  9  1  0
  9 10  1  0
 10 11  1  0
 11 12  1  0
 11 13  1  0
 11 14  1  0
 14 15  1  0
 15 16  2  0
 16 17  1  0
 17 18  2  0
 18 19  1  0
 19 20  1  0
 20 21  2  0
 21 22  1  0
 22 23  2  0
 23 24  1  0
 24 25  2  0
  5 26  1  0
 26 27  2  0
 27  2  1  0
 16  9  1  0
 25 20  1  0
 19 15  1  0
  1 28  1  0
  1 29  1  0
  1 30  1  0
  3 31  1  0
  8 32  1  0
  9 33  1  0
 10 34  1  0
 10 35  1  0
 12 36  1  0
 12 37  1  0
 12 38  1  0
 13 39  1  0
 13 40  1  0
 13 41  1  0
 14 42  1  0
 14 43  1  0
 17 44  1  0
 21 45  1  0
 22 46  1  0
 23 47  1  0
 24 48  1  0
 25 49  1  0
 26 50  1  0
M  END
$$$$
