
     RDKit          3D

 30 32  0  0  0  0  0  0  0  0999 V2000
    2.7685    1.3956   -1.3220 O   0  0  0  0  0  0  0  0  0  0  0  0
    2.1302    1.1198   -0.3090 C   0  0  0  0  0  0  0  0  0  0  0  0
    1.0568    2.0555    0.2210 C   0  0  0  0  0  0  0  0  0  0  0  0
   -0.2576    1.4207    0.2331 N   0  0  0  0  0  0  0  0  0  0  0  0
   -0.7225    0.4660    1.1557 C   0  0  0  0  0  0  0  0  0  0  0  0
   -0.0749    0.0567    2.0997 O   0  0  0  0  0  0  0  0  0  0  0  0
   -2.0763    0.0336    0.7671 C   0  0  0  0  0  0  0  0  0  0  0  0
   -2.8832   -0.8622    1.4494 C   0  0  0  0  0  0  0  0  0  0  0  0
   -4.1457   -1.1442    0.9156 C   0  0  0  0  0  0  0  0  0  0  0  0
   -4.5781   -0.5354   -0.2787 C   0  0  0  0  0  0  0  0  0  0  0  0
   -3.7557    0.3639   -0.9611 C   0  0  0  0  0  0  0  0  0  0  0  0
   -2.5138    0.6236   -0.4126 C   0  0  0  0  0  0  0  0  0  0  0  0
   -1.2953    1.6862   -1.0580 S   0  0  0  0  0  6  0  0  0  0  0  0
   -1.7809    3.0432   -0.9952 O   0  0  0  0  0  0  0  0  0  0  0  0
   -0.7408    1.0805   -2.2427 O   0  0  0  0  0  0  0  0  0  0  0  0
    2.3161   -0.0000    0.4727 N   0  0  0  0  0  0  0  0  0  0  0  0
    3.2088   -1.0141    0.2086 C   0  0  0  0  0  0  0  0  0  0  0  0
    4.1167   -1.1555   -0.8640 C   0  0  0  0  0  0  0  0  0  0  0  0
    4.7459   -2.3483   -0.6255 C   0  0  0  0  0  0  0  0  0  0  0  0
    4.2556   -2.8953    0.5118 O   0  0  0  0  0  0  0  0  0  0  0  0
    3.2878   -2.0601    1.0395 N   0  0  0  0  0  0  0  0  0  0  0  0
    1.3283    2.3716    1.2346 H   0  0  0  0  0  0  0  0  0  0  0  0
    1.0454    2.9630   -0.3928 H   0  0  0  0  0  0  0  0  0  0  0  0
   -2.5482   -1.3324    2.3698 H   0  0  0  0  0  0  0  0  0  0  0  0
   -4.8040   -1.8443    1.4281 H   0  0  0  0  0  0  0  0  0  0  0  0
   -5.5649   -0.7723   -0.6739 H   0  0  0  0  0  0  0  0  0  0  0  0
   -4.0784    0.8355   -1.8844 H   0  0  0  0  0  0  0  0  0  0  0  0
    1.7562   -0.1453    1.3100 H   0  0  0  0  0  0  0  0  0  0  0  0
    4.2910   -0.4894   -1.6954 H   0  0  0  0  0  0  0  0  0  0  0  0
    5.5128   -2.9166   -1.1300 H   0  0  0  0  0  0  0  0  0  0  0  0
  1  2  2  0
  2  3  1  0
  3  4  1  0
  4  5  1  0
  5  6  2  0
  5  7  1  0
  7  8  2  0
  8  9  1  0
  9 10  2  0
 10 11  1  0
 11 12  2  0
 12 13  1  0
 13 14  2  0
 13 15  2  0
  2 16  1  0
 16 17  1  0
 17 18  1  0
 18 19  2  0
 19 20  1  0
 20 21  1  0
 13  4  1  0
 21 17  2  0
 12  7  1  0
  3 22  1  0
  3 23  1  0
  8 24  1  0
  9 25  1  0
 10 26  1  0
 11 27  1  0
 16 28  1  0
 18 29  1  0
 19 30  1  0
M  END
$$$$
