
     RDKit          3D

 57 60  0  0  0  0  0  0  0  0999 V2000
   -2.0464    6.3783   -0.5753 C   0  0  0  0  0  0  0  0  0  0  0  0
   -1.8787    4.8632   -0.6791 C   0  0  0  0  0  0  0  0  0  0  0  0
   -0.4020    4.4631   -0.4811 C   0  0  0  0  0  0  0  0  0  0  0  0
   -0.1790    2.9546   -0.6739 C   0  0  0  0  0  0  0  0  0  0  0  0
   -1.2413    2.1329   -0.0029 C   0  0  0  0  0  0  0  0  0  0  0  0
   -2.4249    2.6963    0.4377 C   0  0  0  0  0  0  0  0  0  0  0  0
   -3.4697    1.5574    1.1437 S   0  0  0  0  0  0  0  0  0  0  0  0
   -2.3787    0.2841    0.8393 C   0  0  0  0  0  0  0  0  0  0  0  0
   -2.6943   -0.9710    1.1900 N   0  0  0  0  0  0  0  0  0  0  0  0
   -1.7489   -1.8671    0.8873 C   0  0  0  0  0  0  0  0  0  0  0  0
   -2.0312   -3.3377    1.1983 C   0  0  0  0  0  0  0  0  0  0  0  0
   -2.5318   -4.0181   -0.0858 C   0  0  0  0  0  0  0  0  0  0  0  0
   -3.1013   -3.4897    2.2978 C   0  0  0  0  0  0  0  0  0  0  0  0
   -0.7482   -4.0387    1.6846 C   0  0  0  0  0  0  0  0  0  0  0  0
   -0.5833   -1.5846    0.2703 N   0  0  0  0  0  0  0  0  0  0  0  0
   -0.2797   -0.3076   -0.0650 C   0  0  0  0  0  0  0  0  0  0  0  0
    0.9586   -0.0358   -0.6854 N   0  0  0  0  0  0  0  0  0  0  0  0
    1.1583   -0.9155   -1.8656 C   0  0  0  0  0  0  0  0  0  0  0  0
    2.1727   -2.0444   -1.6191 C   0  0  0  0  0  0  0  0  0  0  0  0
    3.4655   -1.5301   -1.1462 N   0  0  0  0  0  0  0  0  0  0  0  0
    4.6285   -2.2202   -1.4761 C   0  0  0  0  0  0  0  0  0  0  0  0
    4.5826   -3.2831   -2.0960 O   0  0  0  0  0  0  0  0  0  0  0  0
    5.9379   -1.5986   -1.0076 C   0  0  0  0  0  0  0  0  0  0  0  0
    7.3256   -2.2377   -1.9123 Cl  0  0  0  0  0  0  0  0  0  0  0  0
    3.4088   -0.3244   -0.3087 C   0  0  0  0  0  0  0  0  0  0  0  0
    2.0265   -0.1243    0.3383 C   0  0  0  0  0  0  0  0  0  0  0  0
   -1.2130    0.7061    0.2221 C   0  0  0  0  0  0  0  0  0  0  0  0
   -2.7853    4.1469    0.3464 C   0  0  0  0  0  0  0  0  0  0  0  0
   -1.7216    6.7471    0.4022 H   0  0  0  0  0  0  0  0  0  0  0  0
   -1.4559    6.8857   -1.3451 H   0  0  0  0  0  0  0  0  0  0  0  0
   -3.0944    6.6642   -0.7161 H   0  0  0  0  0  0  0  0  0  0  0  0
   -2.1832    4.5559   -1.6900 H   0  0  0  0  0  0  0  0  0  0  0  0
    0.2399    5.0119   -1.1799 H   0  0  0  0  0  0  0  0  0  0  0  0
   -0.0831    4.7481    0.5300 H   0  0  0  0  0  0  0  0  0  0  0  0
   -0.1808    2.7207   -1.7447 H   0  0  0  0  0  0  0  0  0  0  0  0
    0.8100    2.6979   -0.2814 H   0  0  0  0  0  0  0  0  0  0  0  0
   -1.7871   -3.9610   -0.8884 H   0  0  0  0  0  0  0  0  0  0  0  0
   -3.4478   -3.5442   -0.4571 H   0  0  0  0  0  0  0  0  0  0  0  0
   -2.7516   -5.0774    0.0875 H   0  0  0  0  0  0  0  0  0  0  0  0
   -4.0659   -3.0725    1.9863 H   0  0  0  0  0  0  0  0  0  0  0  0
   -3.2691   -4.5446    2.5452 H   0  0  0  0  0  0  0  0  0  0  0  0
   -2.7988   -2.9776    3.2192 H   0  0  0  0  0  0  0  0  0  0  0  0
    0.0311   -4.0458    0.9130 H   0  0  0  0  0  0  0  0  0  0  0  0
   -0.3337   -3.5355    2.5664 H   0  0  0  0  0  0  0  0  0  0  0  0
   -0.9436   -5.0825    1.9556 H   0  0  0  0  0  0  0  0  0  0  0  0
    1.5460   -0.2760   -2.6693 H   0  0  0  0  0  0  0  0  0  0  0  0
    0.2153   -1.3303   -2.2442 H   0  0  0  0  0  0  0  0  0  0  0  0
    1.8028   -2.7376   -0.8548 H   0  0  0  0  0  0  0  0  0  0  0  0
    2.3131   -2.6160   -2.5430 H   0  0  0  0  0  0  0  0  0  0  0  0
    6.0866   -1.8229    0.0521 H   0  0  0  0  0  0  0  0  0  0  0  0
    5.9337   -0.5174   -1.1662 H   0  0  0  0  0  0  0  0  0  0  0  0
    4.1748   -0.3821    0.4710 H   0  0  0  0  0  0  0  0  0  0  0  0
    3.6482    0.5258   -0.9578 H   0  0  0  0  0  0  0  0  0  0  0  0
    1.8541   -0.9581    1.0343 H   0  0  0  0  0  0  0  0  0  0  0  0
    2.0370    0.8001    0.9289 H   0  0  0  0  0  0  0  0  0  0  0  0
   -3.8356    4.2673    0.0497 H   0  0  0  0  0  0  0  0  0  0  0  0
   -2.6679    4.6023    1.3382 H   0  0  0  0  0  0  0  0  0  0  0  0
  1  2  1  0
  2  3  1  0
  3  4  1  0
  4  5  1  0
  5  6  2  0
  6  7  1  0
  7  8  1  0
  8  9  2  0
  9 10  1  0
 10 11  1  0
 11 12  1  0
 11 13  1  0
 11 14  1  0
 10 15  2  0
 15 16  1  0
 16 17  1  0
 17 18  1  0
 18 19  1  0
 19 20  1  0
 20 21  1  0
 21 22  2  0
 21 23  1  0
 23 24  1  0
 20 25  1  0
 25 26  1  0
 16 27  2  0
  6 28  1  0
 28  2  1  0
 27  5  1  0
 27  8  1  0
 26 17  1  0
  1 29  1  0
  1 30  1  0
  1 31  1  0
  2 32  1  0
  3 33  1  0
  3 34  1  0
  4 35  1  0
  4 36  1  0
 12 37  1  0
 12 38  1  0
 12 39  1  0
 13 40  1  0
 13 41  1  0
 13 42  1  0
 14 43  1  0
 14 44  1  0
 14 45  1  0
 18 46  1  0
 18 47  1  0
 19 48  1  0
 19 49  1  0
 23 50  1  0
 23 51  1  0
 25 52  1  0
 25 53  1  0
 26 54  1  0
 26 55  1  0
 28 56  1  0
 28 57  1  0
M  END
$$$$
