
     RDKit          3D

 46 50  0  0  0  0  0  0  0  0999 V2000
   -0.0983    1.9864    1.4242 O   0  0  0  0  0  0  0  0  0  0  0  0
   -0.7172    1.4257    0.5230 C   0  0  0  0  0  0  0  0  0  0  0  0
   -2.0373    1.9303    0.1258 C   0  0  0  0  0  0  0  0  0  0  0  0
   -2.4506    3.2121    0.5039 C   0  0  0  0  0  0  0  0  0  0  0  0
   -3.6992    3.6714    0.0943 C   0  0  0  0  0  0  0  0  0  0  0  0
   -4.2223    5.2463    0.5454 Cl  0  0  0  0  0  0  0  0  0  0  0  0
   -4.5288    2.8635   -0.6829 C   0  0  0  0  0  0  0  0  0  0  0  0
   -4.1088    1.5814   -1.0457 C   0  0  0  0  0  0  0  0  0  0  0  0
   -2.8642    1.1075   -0.6298 C   0  0  0  0  0  0  0  0  0  0  0  0
   -2.5488   -0.1612   -1.0128 O   0  0  0  0  0  0  0  0  0  0  0  0
   -1.3990   -0.8010   -0.3804 C   0  0  0  0  0  0  0  0  0  0  0  0
   -1.0434   -1.9383   -1.3741 C   0  0  0  0  0  0  0  0  0  0  0  0
   -1.8806   -3.1817   -1.0978 C   0  0  0  0  0  0  0  0  0  0  0  0
   -1.5695   -3.7522    0.2110 N   0  0  0  0  0  0  0  0  0  0  0  0
   -1.3373   -2.7742    1.2665 C   0  0  0  0  0  0  0  0  0  0  0  0
   -1.8994   -1.3893    0.9674 C   0  0  0  0  0  0  0  0  0  0  0  0
   -0.2163    0.1956   -0.2282 C   0  0  0  0  0  0  0  0  0  0  0  0
    1.0408   -0.3619    0.4235 C   0  0  0  0  0  0  0  0  0  0  0  0
    2.0572    0.3656   -0.3917 C   0  0  0  0  0  0  0  0  0  0  0  0
    3.4832    0.4376    0.0050 C   0  0  0  0  0  0  0  0  0  0  0  0
    3.9723   -0.2619    1.1147 C   0  0  0  0  0  0  0  0  0  0  0  0
    5.3258   -0.1727    1.4578 C   0  0  0  0  0  0  0  0  0  0  0  0
    6.1884    0.6119    0.6935 C   0  0  0  0  0  0  0  0  0  0  0  0
    7.8513    0.7166    1.1199 Cl  0  0  0  0  0  0  0  0  0  0  0  0
    5.7112    1.3093   -0.4135 C   0  0  0  0  0  0  0  0  0  0  0  0
    4.3596    1.2216   -0.7582 C   0  0  0  0  0  0  0  0  0  0  0  0
    1.5995    0.8945   -1.4821 N   0  0  0  0  0  0  0  0  0  0  0  0
    0.2114    0.6386   -1.5282 O   0  0  0  0  0  0  0  0  0  0  0  0
   -1.7988    3.8456    1.1011 H   0  0  0  0  0  0  0  0  0  0  0  0
   -5.5016    3.2242   -1.0083 H   0  0  0  0  0  0  0  0  0  0  0  0
   -4.7570    0.9501   -1.6492 H   0  0  0  0  0  0  0  0  0  0  0  0
   -1.2268   -1.6132   -2.4064 H   0  0  0  0  0  0  0  0  0  0  0  0
    0.0141   -2.2176   -1.3215 H   0  0  0  0  0  0  0  0  0  0  0  0
   -1.6795   -3.9382   -1.8638 H   0  0  0  0  0  0  0  0  0  0  0  0
   -2.9493   -2.9430   -1.1596 H   0  0  0  0  0  0  0  0  0  0  0  0
   -2.3089   -4.4028    0.4795 H   0  0  0  0  0  0  0  0  0  0  0  0
   -1.7732   -3.1477    2.2006 H   0  0  0  0  0  0  0  0  0  0  0  0
   -0.2599   -2.7096    1.4477 H   0  0  0  0  0  0  0  0  0  0  0  0
   -1.6585   -0.7212    1.8025 H   0  0  0  0  0  0  0  0  0  0  0  0
   -2.9965   -1.4568    0.9604 H   0  0  0  0  0  0  0  0  0  0  0  0
    1.1929   -1.4298    0.2538 H   0  0  0  0  0  0  0  0  0  0  0  0
    1.1207   -0.1532    1.4926 H   0  0  0  0  0  0  0  0  0  0  0  0
    3.3259   -0.8845    1.7259 H   0  0  0  0  0  0  0  0  0  0  0  0
    5.7005   -0.7173    2.3210 H   0  0  0  0  0  0  0  0  0  0  0  0
    6.3804    1.9220   -1.0120 H   0  0  0  0  0  0  0  0  0  0  0  0
    3.9958    1.7715   -1.6246 H   0  0  0  0  0  0  0  0  0  0  0  0
  1  2  2  0
  2  3  1  0
  3  4  2  0
  4  5  1  0
  5  6  1  0
  5  7  2  0
  7  8  1  0
  8  9  2  0
  9 10  1  0
 10 11  1  0
 11 12  1  0
 12 13  1  0
 13 14  1  0
 14 15  1  0
 15 16  1  0
 11 17  1  0
 17 18  1  0
 18 19  1  0
 19 20  1  0
 20 21  2  0
 21 22  1  0
 22 23  2  0
 23 24  1  0
 23 25  1  0
 25 26  2  0
 19 27  2  0
 27 28  1  0
 17  2  1  0
 26 20  1  0
  9  3  1  0
 16 11  1  0
 28 17  1  0
  4 29  1  0
  7 30  1  0
  8 31  1  0
 12 32  1  0
 12 33  1  0
 13 34  1  0
 13 35  1  0
 14 36  1  0
 15 37  1  0
 15 38  1  0
 16 39  1  0
 16 40  1  0
 18 41  1  0
 18 42  1  0
 21 43  1  0
 22 44  1  0
 25 45  1  0
 26 46  1  0
M  END
$$$$
