
     RDKit          3D

 53 55  0  0  0  0  0  0  0  0999 V2000
   -6.8132    0.5502   -1.8325 C   0  0  0  0  0  0  0  0  0  0  0  0
   -5.6240   -0.0742   -1.1181 C   0  0  0  0  0  0  0  0  0  0  0  0
   -5.2327    0.7312    0.1227 C   0  0  0  0  0  0  0  0  0  0  0  0
   -4.1041    0.0864    0.9337 C   0  0  0  0  0  0  0  0  0  0  0  0
   -2.8411    0.1237    0.2306 N   0  0  0  0  0  0  0  0  0  0  0  0
   -1.9970    1.2225    0.0584 C   0  0  0  0  0  0  0  0  0  0  0  0
   -2.1399    2.4172    0.5189 N   0  0  0  0  0  0  0  0  0  0  0  0
   -0.9207    0.8002   -0.7184 N   0  0  0  0  0  0  0  0  0  0  0  0
    0.1998    1.6267   -1.1052 C   0  0  0  0  0  0  0  0  0  0  0  0
    1.1410    1.9244    0.0721 C   0  0  0  0  0  0  0  0  0  0  0  0
    2.0681    2.9508   -0.3379 O   0  0  0  0  0  0  0  0  0  0  0  0
    1.9378    0.6838    0.4943 C   0  0  0  0  0  0  0  0  0  0  0  0
    2.6511    0.9811    1.7105 O   0  0  0  0  0  0  0  0  0  0  0  0
    3.8955    0.4146    1.7076 C   0  0  0  0  0  0  0  0  0  0  0  0
    4.1334   -0.6804    2.5334 C   0  0  0  0  0  0  0  0  0  0  0  0
    5.4064   -1.2531    2.5708 C   0  0  0  0  0  0  0  0  0  0  0  0
    6.4493   -0.7163    1.8016 C   0  0  0  0  0  0  0  0  0  0  0  0
    7.8087   -1.3508    1.8210 C   0  0  0  0  0  0  0  0  0  0  0  0
    6.1952    0.3931    0.9823 C   0  0  0  0  0  0  0  0  0  0  0  0
    4.9231    0.9672    0.9457 C   0  0  0  0  0  0  0  0  0  0  0  0
   -1.0802   -0.5465   -1.0315 C   0  0  0  0  0  0  0  0  0  0  0  0
   -0.2956   -1.4137   -1.7638 C   0  0  0  0  0  0  0  0  0  0  0  0
   -0.7328   -2.7346   -1.9032 C   0  0  0  0  0  0  0  0  0  0  0  0
   -1.9356   -3.1622   -1.3146 C   0  0  0  0  0  0  0  0  0  0  0  0
   -2.7258   -2.2783   -0.5727 C   0  0  0  0  0  0  0  0  0  0  0  0
   -2.2895   -0.9755   -0.4371 C   0  0  0  0  0  0  0  0  0  0  0  0
   -6.5836    1.5697   -2.1598 H   0  0  0  0  0  0  0  0  0  0  0  0
   -7.0762   -0.0398   -2.7165 H   0  0  0  0  0  0  0  0  0  0  0  0
   -7.6892    0.5883   -1.1769 H   0  0  0  0  0  0  0  0  0  0  0  0
   -4.7834   -0.1255   -1.8183 H   0  0  0  0  0  0  0  0  0  0  0  0
   -5.8771   -1.1017   -0.8316 H   0  0  0  0  0  0  0  0  0  0  0  0
   -4.9521    1.7487   -0.1761 H   0  0  0  0  0  0  0  0  0  0  0  0
   -6.1097    0.8252    0.7754 H   0  0  0  0  0  0  0  0  0  0  0  0
   -4.3841   -0.9337    1.2217 H   0  0  0  0  0  0  0  0  0  0  0  0
   -3.9977    0.6337    1.8786 H   0  0  0  0  0  0  0  0  0  0  0  0
   -3.0053    2.4644    1.0572 H   0  0  0  0  0  0  0  0  0  0  0  0
   -0.1792    2.5769   -1.5043 H   0  0  0  0  0  0  0  0  0  0  0  0
    0.7671    1.1922   -1.9373 H   0  0  0  0  0  0  0  0  0  0  0  0
    0.5964    2.3161    0.9387 H   0  0  0  0  0  0  0  0  0  0  0  0
    1.6143    3.7999   -0.1867 H   0  0  0  0  0  0  0  0  0  0  0  0
    2.6100    0.3815   -0.3199 H   0  0  0  0  0  0  0  0  0  0  0  0
    1.2687   -0.1530    0.7205 H   0  0  0  0  0  0  0  0  0  0  0  0
    3.3318   -1.0865    3.1436 H   0  0  0  0  0  0  0  0  0  0  0  0
    5.5829   -2.1153    3.2113 H   0  0  0  0  0  0  0  0  0  0  0  0
    7.8580   -2.1510    1.0759 H   0  0  0  0  0  0  0  0  0  0  0  0
    8.0291   -1.7715    2.8087 H   0  0  0  0  0  0  0  0  0  0  0  0
    8.5890   -0.6137    1.6009 H   0  0  0  0  0  0  0  0  0  0  0  0
    6.9883    0.8234    0.3747 H   0  0  0  0  0  0  0  0  0  0  0  0
    4.7329    1.8422    0.3286 H   0  0  0  0  0  0  0  0  0  0  0  0
    0.6326   -1.0976   -2.2243 H   0  0  0  0  0  0  0  0  0  0  0  0
   -0.1355   -3.4418   -2.4753 H   0  0  0  0  0  0  0  0  0  0  0  0
   -2.2548   -4.1951   -1.4392 H   0  0  0  0  0  0  0  0  0  0  0  0
   -3.6502   -2.6239   -0.1269 H   0  0  0  0  0  0  0  0  0  0  0  0
  1  2  1  0
  2  3  1  0
  3  4  1  0
  4  5  1  0
  5  6  1  0
  6  7  2  3
  6  8  1  0
  8  9  1  0
  9 10  1  0
 10 11  1  0
 10 12  1  0
 12 13  1  0
 13 14  1  0
 14 15  2  0
 15 16  1  0
 16 17  2  0
 17 18  1  0
 17 19  1  0
 19 20  2  0
  8 21  1  0
 21 22  2  0
 22 23  1  0
 23 24  2  0
 24 25  1  0
 25 26  2  0
 26  5  1  0
 20 14  1  0
 26 21  1  0
  1 27  1  0
  1 28  1  0
  1 29  1  0
  2 30  1  0
  2 31  1  0
  3 32  1  0
  3 33  1  0
  4 34  1  0
  4 35  1  0
  7 36  1  0
  9 37  1  0
  9 38  1  0
 10 39  1  0
 11 40  1  0
 12 41  1  0
 12 42  1  0
 15 43  1  0
 16 44  1  0
 18 45  1  0
 18 46  1  0
 18 47  1  0
 19 48  1  0
 20 49  1  0
 22 50  1  0
 23 51  1  0
 24 52  1  0
 25 53  1  0
M  END
$$$$
