
     RDKit          3D

 23 24  0  0  0  0  0  0  0  0999 V2000
   -5.0883    0.1701    0.1115 C   0  0  0  0  0  0  0  0  0  0  0  0
   -4.2726    1.6631   -0.4934 S   0  0  0  0  0  0  0  0  0  0  0  0
   -2.5924    1.1739   -0.4139 C   0  0  0  0  0  0  0  0  0  0  0  0
   -2.2331   -0.0222   -0.0107 N   0  0  0  0  0  0  0  0  0  0  0  0
   -0.8544   -0.1333   -0.0479 C   0  0  0  0  0  0  0  0  0  0  0  0
   -0.1090   -1.2733    0.3193 C   0  0  0  0  0  0  0  0  0  0  0  0
    1.2872   -1.2525    0.2324 C   0  0  0  0  0  0  0  0  0  0  0  0
    1.9379   -0.1069   -0.2249 C   0  0  0  0  0  0  0  0  0  0  0  0
    3.7076   -0.0822   -0.3040 S   0  0  0  0  0  6  0  0  0  0  0  0
    3.9857   -0.5556   -1.8895 N   0  0  0  0  0  0  0  0  0  0  0  0
    4.2348   -1.1391    0.5264 O   0  0  0  0  0  0  0  0  0  0  0  0
    4.1646    1.2838   -0.2070 O   0  0  0  0  0  0  0  0  0  0  0  0
    1.2277    1.0464   -0.5847 C   0  0  0  0  0  0  0  0  0  0  0  0
   -0.1732    1.0035   -0.4906 C   0  0  0  0  0  0  0  0  0  0  0  0
   -1.3227    2.2313   -0.8603 S   0  0  0  0  0  0  0  0  0  0  0  0
   -6.1697    0.3317    0.1206 H   0  0  0  0  0  0  0  0  0  0  0  0
   -4.7670   -0.0612    1.1309 H   0  0  0  0  0  0  0  0  0  0  0  0
   -4.8737   -0.6805   -0.5415 H   0  0  0  0  0  0  0  0  0  0  0  0
   -0.6279   -2.1604    0.6709 H   0  0  0  0  0  0  0  0  0  0  0  0
    1.8523   -2.1356    0.5246 H   0  0  0  0  0  0  0  0  0  0  0  0
    4.4954   -1.4398   -1.9031 H   0  0  0  0  0  0  0  0  0  0  0  0
    4.4548    0.1945   -2.3987 H   0  0  0  0  0  0  0  0  0  0  0  0
    1.7359    1.9444   -0.9250 H   0  0  0  0  0  0  0  0  0  0  0  0
  1  2  1  0
  2  3  1  0
  3  4  2  0
  4  5  1  0
  5  6  2  0
  6  7  1  0
  7  8  2  0
  8  9  1  0
  9 10  1  0
  9 11  2  0
  9 12  2  0
  8 13  1  0
 13 14  2  0
 14 15  1  0
 15  3  1  0
 14  5  1  0
  1 16  1  0
  1 17  1  0
  1 18  1  0
  6 19  1  0
  7 20  1  0
 10 21  1  0
 10 22  1  0
 13 23  1  0
M  END
$$$$
