
     RDKit          3D

 46 49  0  0  0  0  0  0  0  0999 V2000
   -3.3021   -2.0772    1.9507 O   0  0  0  0  0  0  0  0  0  0  0  0
   -2.6851   -1.6905    0.9518 C   0  0  0  0  0  0  0  0  0  0  0  0
   -1.4704   -1.0958    1.1462 N   0  0  0  0  0  0  0  0  0  0  0  0
   -0.5600   -0.6964    0.1623 C   0  0  0  0  0  0  0  0  0  0  0  0
    0.5606    0.0309    0.5754 C   0  0  0  0  0  0  0  0  0  0  0  0
    1.5142    0.4409   -0.3620 C   0  0  0  0  0  0  0  0  0  0  0  0
    2.6642    1.2461    0.1070 C   0  0  0  0  0  0  0  0  0  0  0  0
    2.4237    2.2139    0.8244 O   0  0  0  0  0  0  0  0  0  0  0  0
    3.9480    0.8801   -0.2732 N   0  0  0  0  0  0  0  0  0  0  0  0
    4.3323   -0.4262   -0.8239 C   0  0  0  0  0  0  0  0  0  0  0  0
    5.7317   -0.8338   -0.3490 C   0  0  0  0  0  0  0  0  0  0  0  0
    6.7493    0.1113   -0.7035 O   0  0  0  0  0  0  0  0  0  0  0  0
    6.2980    1.4739   -0.7376 C   0  0  0  0  0  0  0  0  0  0  0  0
    5.0630    1.7402    0.1262 C   0  0  0  0  0  0  0  0  0  0  0  0
    1.3382    0.1517   -1.7162 C   0  0  0  0  0  0  0  0  0  0  0  0
    0.2290   -0.5924   -2.1227 C   0  0  0  0  0  0  0  0  0  0  0  0
   -0.7241   -1.0234   -1.1886 C   0  0  0  0  0  0  0  0  0  0  0  0
   -2.0651   -2.0265   -1.7772 S   0  0  0  0  0  0  0  0  0  0  0  0
   -3.2918   -1.7889   -0.4516 C   0  0  0  0  0  0  0  0  0  0  0  0
   -4.2810   -0.7440   -0.7821 N   0  0  0  0  0  0  0  0  0  0  0  0
   -5.5826   -0.8970   -0.1060 C   0  0  0  0  0  0  0  0  0  0  0  0
   -5.7547   -0.1056    1.2027 C   0  0  0  0  0  0  0  0  0  0  0  0
   -5.3948    1.2699    1.0356 O   0  0  0  0  0  0  0  0  0  0  0  0
   -4.0398    1.3773    0.5899 C   0  0  0  0  0  0  0  0  0  0  0  0
   -3.8448    0.6589   -0.7542 C   0  0  0  0  0  0  0  0  0  0  0  0
   -1.2275   -0.9713    2.1221 H   0  0  0  0  0  0  0  0  0  0  0  0
    0.6996    0.2977    1.6212 H   0  0  0  0  0  0  0  0  0  0  0  0
    3.6036   -1.1902   -0.5386 H   0  0  0  0  0  0  0  0  0  0  0  0
    4.3307   -0.3190   -1.9142 H   0  0  0  0  0  0  0  0  0  0  0  0
    6.0121   -1.7987   -0.7830 H   0  0  0  0  0  0  0  0  0  0  0  0
    5.7473   -0.9479    0.7413 H   0  0  0  0  0  0  0  0  0  0  0  0
    6.0856    1.7196   -1.7846 H   0  0  0  0  0  0  0  0  0  0  0  0
    7.1314    2.1060   -0.4154 H   0  0  0  0  0  0  0  0  0  0  0  0
    5.2778    1.5154    1.1776 H   0  0  0  0  0  0  0  0  0  0  0  0
    4.7626    2.7911    0.0567 H   0  0  0  0  0  0  0  0  0  0  0  0
    2.0486    0.5085   -2.4575 H   0  0  0  0  0  0  0  0  0  0  0  0
    0.1092   -0.8293   -3.1788 H   0  0  0  0  0  0  0  0  0  0  0  0
   -3.8157   -2.7532   -0.4645 H   0  0  0  0  0  0  0  0  0  0  0  0
   -5.8337   -1.9516    0.0570 H   0  0  0  0  0  0  0  0  0  0  0  0
   -6.3357   -0.5219   -0.8118 H   0  0  0  0  0  0  0  0  0  0  0  0
   -6.8063   -0.1323    1.5069 H   0  0  0  0  0  0  0  0  0  0  0  0
   -5.1728   -0.5280    2.0253 H   0  0  0  0  0  0  0  0  0  0  0  0
   -3.3714    0.9928    1.3664 H   0  0  0  0  0  0  0  0  0  0  0  0
   -3.8193    2.4430    0.4691 H   0  0  0  0  0  0  0  0  0  0  0  0
   -4.4644    1.1840   -1.4938 H   0  0  0  0  0  0  0  0  0  0  0  0
   -2.8171    0.7879   -1.1016 H   0  0  0  0  0  0  0  0  0  0  0  0
  1  2  2  0
  2  3  1  0
  3  4  1  0
  4  5  2  0
  5  6  1  0
  6  7  1  0
  7  8  2  0
  7  9  1  0
  9 10  1  0
 10 11  1  0
 11 12  1  0
 12 13  1  0
 13 14  1  0
  6 15  2  0
 15 16  1  0
 16 17  2  0
 17 18  1  0
 18 19  1  0
 19 20  1  0
 20 21  1  0
 21 22  1  0
 22 23  1  0
 23 24  1  0
 24 25  1  0
 19  2  1  0
 25 20  1  0
 17  4  1  0
 14  9  1  0
  3 26  1  0
  5 27  1  0
 10 28  1  0
 10 29  1  0
 11 30  1  0
 11 31  1  0
 13 32  1  0
 13 33  1  0
 14 34  1  0
 14 35  1  0
 15 36  1  0
 16 37  1  0
 19 38  1  0
 21 39  1  0
 21 40  1  0
 22 41  1  0
 22 42  1  0
 24 43  1  0
 24 44  1  0
 25 45  1  0
 25 46  1  0
M  END
$$$$
