
     RDKit          3D

 54 59  0  0  0  0  0  0  0  0999 V2000
    5.1103   -2.1734   -1.0773 C   0  0  0  0  0  0  0  0  0  0  0  0
    5.2970   -0.7592   -0.5995 C   0  0  0  0  0  0  0  0  0  0  0  0
    6.1643    0.0987   -1.2933 C   0  0  0  0  0  0  0  0  0  0  0  0
    6.3472    1.4130   -0.8697 C   0  0  0  0  0  0  0  0  0  0  0  0
    5.6651    1.8798    0.2492 C   0  0  0  0  0  0  0  0  0  0  0  0
    4.7991    1.0348    0.9491 C   0  0  0  0  0  0  0  0  0  0  0  0
    4.6076   -0.2859    0.5335 C   0  0  0  0  0  0  0  0  0  0  0  0
    3.7895   -1.1988    1.1437 O   0  0  0  0  0  0  0  0  0  0  0  0
    3.0026   -0.7926    2.2711 C   0  0  0  0  0  0  0  0  0  0  0  0
    1.7565   -0.0527    1.9004 C   0  0  0  0  0  0  0  0  0  0  0  0
    0.7356   -0.6418    1.1860 N   0  0  0  0  0  0  0  0  0  0  0  0
   -0.1462    0.3245    1.0408 C   0  0  0  0  0  0  0  0  0  0  0  0
   -1.4261    0.4293    0.4018 C   0  0  0  0  0  0  0  0  0  0  0  0
   -2.0596    1.6333    0.5526 C   0  0  0  0  0  0  0  0  0  0  0  0
   -1.5376    2.7343    1.2301 N   0  0  0  0  0  0  0  0  0  0  0  0
   -0.3666    2.6175    1.7764 C   0  0  0  0  0  0  0  0  0  0  0  0
    0.3229    1.4302    1.6878 N   0  0  0  0  0  0  0  0  0  0  0  0
    1.5265    1.2228    2.2559 N   0  0  0  0  0  0  0  0  0  0  0  0
   -3.4279    1.8195   -0.0078 C   0  0  0  0  0  0  0  0  0  0  0  0
   -4.2526    2.8745    0.4169 C   0  0  0  0  0  0  0  0  0  0  0  0
   -5.5298    3.0533   -0.1200 C   0  0  0  0  0  0  0  0  0  0  0  0
   -6.0001    2.1831   -1.0977 C   0  0  0  0  0  0  0  0  0  0  0  0
   -5.1950    1.1345   -1.5360 C   0  0  0  0  0  0  0  0  0  0  0  0
   -3.9176    0.9443   -0.9870 C   0  0  0  0  0  0  0  0  0  0  0  0
   -3.0325   -0.1612   -1.4866 C   0  0  0  0  0  0  0  0  0  0  0  0
   -2.0969   -0.7236   -0.3789 C   0  0  0  0  0  0  0  0  0  0  0  0
   -2.8575   -1.6586    0.5879 C   0  0  0  0  0  0  0  0  0  0  0  0
   -3.0288   -2.9826   -0.1587 C   0  0  0  0  0  0  0  0  0  0  0  0
   -1.9726   -2.9964   -1.2618 C   0  0  0  0  0  0  0  0  0  0  0  0
   -1.1349   -1.7368   -1.0480 C   0  0  0  0  0  0  0  0  0  0  0  0
    5.7126   -2.3796   -1.9684 H   0  0  0  0  0  0  0  0  0  0  0  0
    4.0616   -2.3500   -1.3381 H   0  0  0  0  0  0  0  0  0  0  0  0
    5.4167   -2.8801   -0.2993 H   0  0  0  0  0  0  0  0  0  0  0  0
    6.7017   -0.2546   -2.1704 H   0  0  0  0  0  0  0  0  0  0  0  0
    7.0198    2.0715   -1.4130 H   0  0  0  0  0  0  0  0  0  0  0  0
    5.8044    2.9057    0.5806 H   0  0  0  0  0  0  0  0  0  0  0  0
    4.2903    1.4495    1.8125 H   0  0  0  0  0  0  0  0  0  0  0  0
    2.6956   -1.7184    2.7728 H   0  0  0  0  0  0  0  0  0  0  0  0
    3.6093   -0.2527    3.0076 H   0  0  0  0  0  0  0  0  0  0  0  0
    0.0941    3.4553    2.3222 H   0  0  0  0  0  0  0  0  0  0  0  0
   -3.9035    3.5720    1.1756 H   0  0  0  0  0  0  0  0  0  0  0  0
   -6.1509    3.8762    0.2236 H   0  0  0  0  0  0  0  0  0  0  0  0
   -6.9904    2.3247   -1.5223 H   0  0  0  0  0  0  0  0  0  0  0  0
   -5.5670    0.4662   -2.3092 H   0  0  0  0  0  0  0  0  0  0  0  0
   -2.4320    0.2475   -2.3111 H   0  0  0  0  0  0  0  0  0  0  0  0
   -3.6562   -0.9544   -1.9152 H   0  0  0  0  0  0  0  0  0  0  0  0
   -2.2672   -1.8402    1.4959 H   0  0  0  0  0  0  0  0  0  0  0  0
   -3.8239   -1.2563    0.9098 H   0  0  0  0  0  0  0  0  0  0  0  0
   -2.9096   -3.8317    0.5223 H   0  0  0  0  0  0  0  0  0  0  0  0
   -4.0309   -3.0554   -0.5960 H   0  0  0  0  0  0  0  0  0  0  0  0
   -2.4539   -2.9776   -2.2463 H   0  0  0  0  0  0  0  0  0  0  0  0
   -1.3551   -3.8996   -1.2217 H   0  0  0  0  0  0  0  0  0  0  0  0
   -0.7078   -1.3679   -1.9866 H   0  0  0  0  0  0  0  0  0  0  0  0
   -0.2997   -2.0144   -0.4010 H   0  0  0  0  0  0  0  0  0  0  0  0
  1  2  1  0
  2  3  2  0
  3  4  1  0
  4  5  2  0
  5  6  1  0
  6  7  2  0
  7  8  1  0
  8  9  1  0
  9 10  1  0
 10 11  1  0
 11 12  2  0
 12 13  1  0
 13 14  2  0
 14 15  1  0
 15 16  2  0
 16 17  1  0
 17 18  1  0
 14 19  1  0
 19 20  2  0
 20 21  1  0
 21 22  2  0
 22 23  1  0
 23 24  2  0
 24 25  1  0
 25 26  1  0
 26 27  1  0
 27 28  1  0
 28 29  1  0
 29 30  1  0
  7  2  1  0
 18 10  2  0
 24 19  1  0
 30 26  1  0
 17 12  1  0
 26 13  1  0
  1 31  1  0
  1 32  1  0
  1 33  1  0
  3 34  1  0
  4 35  1  0
  5 36  1  0
  6 37  1  0
  9 38  1  0
  9 39  1  0
 16 40  1  0
 20 41  1  0
 21 42  1  0
 22 43  1  0
 23 44  1  0
 25 45  1  0
 25 46  1  0
 27 47  1  0
 27 48  1  0
 28 49  1  0
 28 50  1  0
 29 51  1  0
 29 52  1  0
 30 53  1  0
 30 54  1  0
M  END
$$$$
