
     RDKit          3D

 52 56  0  0  0  0  0  0  0  0999 V2000
   -2.9378    0.7696   -2.3949 O   0  0  0  0  0  0  0  0  0  0  0  0
   -2.9491    1.8450   -1.8191 C   0  0  0  0  0  0  0  0  0  0  0  0
   -3.9997    2.7248   -1.9044 O   0  0  0  0  0  0  0  0  0  0  0  0
   -3.7059    3.8270   -1.0411 C   0  0  0  0  0  0  0  0  0  0  0  0
   -2.2109    3.7726   -0.9011 C   0  0  0  0  0  0  0  0  0  0  0  0
   -1.9553    2.3698   -1.0109 N   0  0  0  0  0  0  0  0  0  0  0  0
   -0.6585    1.8912   -1.0020 C   0  0  0  0  0  0  0  0  0  0  0  0
    0.2972    2.6500   -1.1980 O   0  0  0  0  0  0  0  0  0  0  0  0
   -0.4781    0.3878   -0.6860 C   0  0  0  0  0  0  0  0  0  0  0  0
    0.9926   -0.0286   -0.8888 C   0  0  0  0  0  0  0  0  0  0  0  0
    1.1126   -1.4428   -1.4430 C   0  0  0  0  0  0  0  0  0  0  0  0
    1.4128   -1.6222   -2.8052 C   0  0  0  0  0  0  0  0  0  0  0  0
    1.4998   -2.9047   -3.3478 C   0  0  0  0  0  0  0  0  0  0  0  0
    1.2831   -4.0106   -2.5359 C   0  0  0  0  0  0  0  0  0  0  0  0
    1.3659   -5.2403   -3.0611 F   0  0  0  0  0  0  0  0  0  0  0  0
    0.9758   -3.8587   -1.1901 C   0  0  0  0  0  0  0  0  0  0  0  0
    0.8837   -2.5780   -0.6448 C   0  0  0  0  0  0  0  0  0  0  0  0
    1.4768    0.1054    0.5429 C   0  0  0  0  0  0  0  0  0  0  0  0
    2.9173    0.0977    0.9080 C   0  0  0  0  0  0  0  0  0  0  0  0
    3.2620    0.1675    2.2661 C   0  0  0  0  0  0  0  0  0  0  0  0
    4.6021    0.1624    2.6589 C   0  0  0  0  0  0  0  0  0  0  0  0
    5.6063    0.0902    1.6957 C   0  0  0  0  0  0  0  0  0  0  0  0
    5.2654    0.0228    0.3458 C   0  0  0  0  0  0  0  0  0  0  0  0
    6.5121   -0.0589   -0.8412 Cl  0  0  0  0  0  0  0  0  0  0  0  0
    3.9285    0.0256   -0.0559 C   0  0  0  0  0  0  0  0  0  0  0  0
    0.5316    0.1942    1.4340 N   0  0  0  0  0  0  0  0  0  0  0  0
   -0.6582    0.2033    0.7618 N   0  0  0  0  0  0  0  0  0  0  0  0
   -1.8320   -0.1503    1.4185 C   0  0  0  0  0  0  0  0  0  0  0  0
   -2.9858   -0.5755    0.7450 C   0  0  0  0  0  0  0  0  0  0  0  0
   -4.1566   -0.9246    1.4327 C   0  0  0  0  0  0  0  0  0  0  0  0
   -4.1981   -0.8635    2.8213 C   0  0  0  0  0  0  0  0  0  0  0  0
   -3.0671   -0.4572    3.5192 C   0  0  0  0  0  0  0  0  0  0  0  0
   -1.9032   -0.1085    2.8229 C   0  0  0  0  0  0  0  0  0  0  0  0
   -4.2190    3.6687   -0.0871 H   0  0  0  0  0  0  0  0  0  0  0  0
   -4.0528    4.7626   -1.4886 H   0  0  0  0  0  0  0  0  0  0  0  0
   -1.7186    4.2862   -1.7359 H   0  0  0  0  0  0  0  0  0  0  0  0
   -1.8313    4.1813    0.0399 H   0  0  0  0  0  0  0  0  0  0  0  0
   -1.1347   -0.2296   -1.2989 H   0  0  0  0  0  0  0  0  0  0  0  0
    1.5459    0.6609   -1.5343 H   0  0  0  0  0  0  0  0  0  0  0  0
    1.5765   -0.7657   -3.4568 H   0  0  0  0  0  0  0  0  0  0  0  0
    1.7308   -3.0486   -4.3979 H   0  0  0  0  0  0  0  0  0  0  0  0
    0.8021   -4.7355   -0.5746 H   0  0  0  0  0  0  0  0  0  0  0  0
    0.6220   -2.4799    0.4088 H   0  0  0  0  0  0  0  0  0  0  0  0
    2.4863    0.2256    3.0293 H   0  0  0  0  0  0  0  0  0  0  0  0
    4.8588    0.2168    3.7137 H   0  0  0  0  0  0  0  0  0  0  0  0
    6.6487    0.0884    2.0018 H   0  0  0  0  0  0  0  0  0  0  0  0
    3.7037   -0.0288   -1.1157 H   0  0  0  0  0  0  0  0  0  0  0  0
   -3.0005   -0.6813   -0.3349 H   0  0  0  0  0  0  0  0  0  0  0  0
   -5.0296   -1.2572    0.8758 H   0  0  0  0  0  0  0  0  0  0  0  0
   -5.1041   -1.1420    3.3561 H   0  0  0  0  0  0  0  0  0  0  0  0
   -3.0810   -0.4127    4.6049 H   0  0  0  0  0  0  0  0  0  0  0  0
   -1.0322    0.2085    3.3933 H   0  0  0  0  0  0  0  0  0  0  0  0
  1  2  2  0
  2  3  1  0
  3  4  1  0
  4  5  1  0
  5  6  1  0
  6  7  1  0
  7  8  2  0
  7  9  1  0
  9 10  1  0
 10 11  1  0
 11 12  2  0
 12 13  1  0
 13 14  2  0
 14 15  1  0
 14 16  1  0
 16 17  2  0
 10 18  1  0
 18 19  1  0
 19 20  2  0
 20 21  1  0
 21 22  2  0
 22 23  1  0
 23 24  1  0
 23 25  2  0
 18 26  2  0
 26 27  1  0
 27 28  1  0
 28 29  2  0
 29 30  1  0
 30 31  2  0
 31 32  1  0
 32 33  2  0
  6  2  1  0
 27  9  1  0
 33 28  1  0
 17 11  1  0
 25 19  1  0
  4 34  1  0
  4 35  1  0
  5 36  1  0
  5 37  1  0
  9 38  1  0
 10 39  1  0
 12 40  1  0
 13 41  1  0
 16 42  1  0
 17 43  1  0
 20 44  1  0
 21 45  1  0
 22 46  1  0
 25 47  1  0
 29 48  1  0
 30 49  1  0
 31 50  1  0
 32 51  1  0
 33 52  1  0
M  END
$$$$
