
     RDKit          3D

 45 47  0  0  0  0  0  0  0  0999 V2000
    7.2009   -0.1874   -0.1267 C   0  0  0  0  0  0  0  0  0  0  0  0
    5.7686   -0.3495    0.2344 C   0  0  0  0  0  0  0  0  0  0  0  0
    5.3330   -0.1919    1.5265 N   0  0  0  0  0  0  0  0  0  0  0  0
    3.9754   -0.3902    1.6080 C   0  0  0  0  0  0  0  0  0  0  0  0
    3.1247   -0.3398    2.7178 C   0  0  0  0  0  0  0  0  0  0  0  0
    1.7662   -0.5911    2.5018 C   0  0  0  0  0  0  0  0  0  0  0  0
    1.2771   -0.8718    1.2222 C   0  0  0  0  0  0  0  0  0  0  0  0
   -0.1827   -1.1226    1.0669 C   0  0  0  0  0  0  0  0  0  0  0  0
   -0.8367   -1.5653    2.0037 O   0  0  0  0  0  0  0  0  0  0  0  0
   -0.7333   -0.7870   -0.1529 N   0  0  0  0  0  0  0  0  0  0  0  0
   -2.1592   -0.9174   -0.4038 C   0  0  0  0  0  0  0  0  0  0  0  0
   -2.9784    0.2167    0.2448 C   0  0  0  0  0  0  0  0  0  0  0  0
   -4.4169    0.1733   -0.0770 N   0  0  0  0  0  0  0  0  0  0  0  0
   -4.6741    0.3781   -1.5196 C   0  0  0  0  0  0  0  0  0  0  0  0
   -6.0751    0.9513   -1.7828 C   0  0  0  0  0  0  0  0  0  0  0  0
   -6.2461    2.2587   -1.2189 O   0  0  0  0  0  0  0  0  0  0  0  0
   -5.4902    2.4545   -0.0154 C   0  0  0  0  0  0  0  0  0  0  0  0
   -5.1846    1.1468    0.7315 C   0  0  0  0  0  0  0  0  0  0  0  0
    2.1529   -0.9350    0.1255 C   0  0  0  0  0  0  0  0  0  0  0  0
    3.5280   -0.6840    0.3218 C   0  0  0  0  0  0  0  0  0  0  0  0
    4.6676   -0.6646   -0.5461 C   0  0  0  0  0  0  0  0  0  0  0  0
    4.6546   -0.9296   -2.0105 C   0  0  0  0  0  0  0  0  0  0  0  0
    7.6003   -1.1247   -0.5268 H   0  0  0  0  0  0  0  0  0  0  0  0
    7.3156    0.5905   -0.8881 H   0  0  0  0  0  0  0  0  0  0  0  0
    7.8072    0.0960    0.7395 H   0  0  0  0  0  0  0  0  0  0  0  0
    5.9226    0.0342    2.3155 H   0  0  0  0  0  0  0  0  0  0  0  0
    3.4976   -0.1197    3.7129 H   0  0  0  0  0  0  0  0  0  0  0  0
    1.0815   -0.5648    3.3484 H   0  0  0  0  0  0  0  0  0  0  0  0
   -0.1880   -0.2390   -0.8039 H   0  0  0  0  0  0  0  0  0  0  0  0
   -2.2742   -0.9178   -1.4921 H   0  0  0  0  0  0  0  0  0  0  0  0
   -2.4956   -1.8887   -0.0234 H   0  0  0  0  0  0  0  0  0  0  0  0
   -2.8543    0.1312    1.3318 H   0  0  0  0  0  0  0  0  0  0  0  0
   -2.5515    1.1884   -0.0375 H   0  0  0  0  0  0  0  0  0  0  0  0
   -3.9405    1.0773   -1.9421 H   0  0  0  0  0  0  0  0  0  0  0  0
   -4.5724   -0.5789   -2.0423 H   0  0  0  0  0  0  0  0  0  0  0  0
   -6.8531    0.2936   -1.3774 H   0  0  0  0  0  0  0  0  0  0  0  0
   -6.2505    1.0350   -2.8602 H   0  0  0  0  0  0  0  0  0  0  0  0
   -4.5622    2.9748   -0.2794 H   0  0  0  0  0  0  0  0  0  0  0  0
   -6.0681    3.1274    0.6264 H   0  0  0  0  0  0  0  0  0  0  0  0
   -4.6894    1.3644    1.6852 H   0  0  0  0  0  0  0  0  0  0  0  0
   -6.1373    0.6660    0.9877 H   0  0  0  0  0  0  0  0  0  0  0  0
    1.7989   -1.2008   -0.8643 H   0  0  0  0  0  0  0  0  0  0  0  0
    5.6672   -1.0370   -2.4115 H   0  0  0  0  0  0  0  0  0  0  0  0
    4.1101   -1.8540   -2.2289 H   0  0  0  0  0  0  0  0  0  0  0  0
    4.1646   -0.1058   -2.5391 H   0  0  0  0  0  0  0  0  0  0  0  0
  1  2  1  0
  2  3  1  0
  3  4  1  0
  4  5  2  0
  5  6  1  0
  6  7  2  0
  7  8  1  0
  8  9  2  0
  8 10  1  0
 10 11  1  0
 11 12  1  0
 12 13  1  0
 13 14  1  0
 14 15  1  0
 15 16  1  0
 16 17  1  0
 17 18  1  0
  7 19  1  0
 19 20  2  0
 20 21  1  0
 21 22  1  0
 21  2  2  0
 20  4  1  0
 18 13  1  0
  1 23  1  0
  1 24  1  0
  1 25  1  0
  3 26  1  0
  5 27  1  0
  6 28  1  0
 10 29  1  0
 11 30  1  0
 11 31  1  0
 12 32  1  0
 12 33  1  0
 14 34  1  0
 14 35  1  0
 15 36  1  0
 15 37  1  0
 17 38  1  0
 17 39  1  0
 18 40  1  0
 18 41  1  0
 19 42  1  0
 22 43  1  0
 22 44  1  0
 22 45  1  0
M  END
$$$$
