
     RDKit          3D

 67 72  0  0  0  0  0  0  0  0999 V2000
   -3.2285    0.2252    2.1747 O   0  0  0  0  0  0  0  0  0  0  0  0
   -2.8934    0.8845    1.1876 C   0  0  0  0  0  0  0  0  0  0  0  0
   -3.9560    1.4475    0.2257 C   0  0  0  0  0  0  0  0  0  0  0  0
   -4.2509    0.4580   -0.9187 C   0  0  0  0  0  0  0  0  0  0  0  0
   -5.2394   -0.6184   -0.5340 C   0  0  0  0  0  0  0  0  0  0  0  0
   -4.8120   -1.7864    0.1118 C   0  0  0  0  0  0  0  0  0  0  0  0
   -5.7339   -2.7653    0.4871 C   0  0  0  0  0  0  0  0  0  0  0  0
   -7.0896   -2.5896    0.2186 C   0  0  0  0  0  0  0  0  0  0  0  0
   -7.5255   -1.4329   -0.4248 C   0  0  0  0  0  0  0  0  0  0  0  0
   -6.6057   -0.4508   -0.7990 C   0  0  0  0  0  0  0  0  0  0  0  0
   -3.5312    2.7465   -0.3019 N   0  0  0  0  0  0  0  0  0  0  0  0
   -2.2370    2.7663   -0.8170 C   0  0  0  0  0  0  0  0  0  0  0  0
   -2.0678    3.6130   -1.8424 N   0  0  0  0  0  0  0  0  0  0  0  0
   -0.8269    3.7095   -2.3157 C   0  0  0  0  0  0  0  0  0  0  0  0
    0.2377    3.0432   -1.8628 N   0  0  0  0  0  0  0  0  0  0  0  0
    0.0499    2.1881   -0.8317 C   0  0  0  0  0  0  0  0  0  0  0  0
    1.1903    1.4880   -0.3833 N   0  0  0  0  0  0  0  0  0  0  0  0
    2.1862    2.4371    0.1844 C   0  0  0  0  0  0  0  0  0  0  0  0
    3.4012    1.6541    0.7377 C   0  0  0  0  0  0  0  0  0  0  0  0
    4.0212    0.8279   -0.3249 N   0  0  0  0  0  0  0  0  0  0  0  0
    5.2397    0.1934   -0.0382 C   0  0  0  0  0  0  0  0  0  0  0  0
    6.0447   -0.2547   -1.1000 C   0  0  0  0  0  0  0  0  0  0  0  0
    7.2768   -0.8775   -0.8785 C   0  0  0  0  0  0  0  0  0  0  0  0
    7.7353   -1.0653    0.4197 C   0  0  0  0  0  0  0  0  0  0  0  0
    6.9618   -0.6263    1.4897 C   0  0  0  0  0  0  0  0  0  0  0  0
    5.7306    0.0005    1.2604 C   0  0  0  0  0  0  0  0  0  0  0  0
    3.0364   -0.0779   -0.9816 C   0  0  0  0  0  0  0  0  0  0  0  0
    1.8121    0.7183   -1.4942 C   0  0  0  0  0  0  0  0  0  0  0  0
   -1.2144    1.9917   -0.2504 C   0  0  0  0  0  0  0  0  0  0  0  0
   -1.5529    1.0941    0.8310 N   0  0  0  0  0  0  0  0  0  0  0  0
   -0.5440    0.4317    1.6473 C   0  0  0  0  0  0  0  0  0  0  0  0
   -0.1507   -0.9695    1.2139 C   0  0  0  0  0  0  0  0  0  0  0  0
   -0.5649   -1.5553    0.0091 C   0  0  0  0  0  0  0  0  0  0  0  0
   -0.1651   -2.8494   -0.3346 C   0  0  0  0  0  0  0  0  0  0  0  0
    0.6550   -3.5774    0.5221 C   0  0  0  0  0  0  0  0  0  0  0  0
    1.0786   -3.0121    1.7212 C   0  0  0  0  0  0  0  0  0  0  0  0
    0.6800   -1.7185    2.0638 C   0  0  0  0  0  0  0  0  0  0  0  0
   -4.8614    1.6332    0.8165 H   0  0  0  0  0  0  0  0  0  0  0  0
   -3.3327   -0.0215   -1.2807 H   0  0  0  0  0  0  0  0  0  0  0  0
   -4.6557    0.9970   -1.7868 H   0  0  0  0  0  0  0  0  0  0  0  0
   -3.7608   -1.9397    0.3484 H   0  0  0  0  0  0  0  0  0  0  0  0
   -5.3925   -3.6605    1.0000 H   0  0  0  0  0  0  0  0  0  0  0  0
   -7.8063   -3.3506    0.5182 H   0  0  0  0  0  0  0  0  0  0  0  0
   -8.5834   -1.2933   -0.6313 H   0  0  0  0  0  0  0  0  0  0  0  0
   -6.9666    0.4470   -1.2957 H   0  0  0  0  0  0  0  0  0  0  0  0
   -4.1610    3.2181   -0.9426 H   0  0  0  0  0  0  0  0  0  0  0  0
   -0.6651    4.3901   -3.1443 H   0  0  0  0  0  0  0  0  0  0  0  0
    2.5343    3.1502   -0.5758 H   0  0  0  0  0  0  0  0  0  0  0  0
    1.7329    3.0080    1.0048 H   0  0  0  0  0  0  0  0  0  0  0  0
    3.0626    1.0161    1.5643 H   0  0  0  0  0  0  0  0  0  0  0  0
    4.1278    2.3774    1.1263 H   0  0  0  0  0  0  0  0  0  0  0  0
    5.7232   -0.0895   -2.1248 H   0  0  0  0  0  0  0  0  0  0  0  0
    7.8793   -1.2016   -1.7230 H   0  0  0  0  0  0  0  0  0  0  0  0
    8.6955   -1.5424    0.5978 H   0  0  0  0  0  0  0  0  0  0  0  0
    7.3159   -0.7656    2.5079 H   0  0  0  0  0  0  0  0  0  0  0  0
    5.1621    0.3198    2.1271 H   0  0  0  0  0  0  0  0  0  0  0  0
    2.7097   -0.8391   -0.2628 H   0  0  0  0  0  0  0  0  0  0  0  0
    3.4787   -0.5969   -1.8395 H   0  0  0  0  0  0  0  0  0  0  0  0
    2.1456    1.3881   -2.2990 H   0  0  0  0  0  0  0  0  0  0  0  0
    1.0863    0.0161   -1.9214 H   0  0  0  0  0  0  0  0  0  0  0  0
    0.3321    1.0703    1.7769 H   0  0  0  0  0  0  0  0  0  0  0  0
   -0.9483    0.3383    2.6647 H   0  0  0  0  0  0  0  0  0  0  0  0
   -1.1986   -1.0118   -0.6841 H   0  0  0  0  0  0  0  0  0  0  0  0
   -0.4997   -3.2896   -1.2709 H   0  0  0  0  0  0  0  0  0  0  0  0
    0.9619   -4.5853    0.2566 H   0  0  0  0  0  0  0  0  0  0  0  0
    1.7171   -3.5779    2.3941 H   0  0  0  0  0  0  0  0  0  0  0  0
    1.0196   -1.2957    3.0070 H   0  0  0  0  0  0  0  0  0  0  0  0
  1  2  2  0
  2  3  1  0
  3  4  1  0
  4  5  1  0
  5  6  2  0
  6  7  1  0
  7  8  2  0
  8  9  1  0
  9 10  2  0
  3 11  1  0
 11 12  1  0
 12 13  2  0
 13 14  1  0
 14 15  2  0
 15 16  1  0
 16 17  1  0
 17 18  1  0
 18 19  1  0
 19 20  1  0
 20 21  1  0
 21 22  2  0
 22 23  1  0
 23 24  2  0
 24 25  1  0
 25 26  2  0
 20 27  1  0
 27 28  1  0
 16 29  2  0
 29 30  1  0
 30 31  1  0
 31 32  1  0
 32 33  2  0
 33 34  1  0
 34 35  2  0
 35 36  1  0
 36 37  2  0
 30  2  1  0
 37 32  1  0
 10  5  1  0
 29 12  1  0
 28 17  1  0
 26 21  1  0
  3 38  1  0
  4 39  1  0
  4 40  1  0
  6 41  1  0
  7 42  1  0
  8 43  1  0
  9 44  1  0
 10 45  1  0
 11 46  1  0
 14 47  1  0
 18 48  1  0
 18 49  1  0
 19 50  1  0
 19 51  1  0
 22 52  1  0
 23 53  1  0
 24 54  1  0
 25 55  1  0
 26 56  1  0
 27 57  1  0
 27 58  1  0
 28 59  1  0
 28 60  1  0
 31 61  1  0
 31 62  1  0
 33 63  1  0
 34 64  1  0
 35 65  1  0
 36 66  1  0
 37 67  1  0
M  END
$$$$
