
     RDKit          3D

 71 76  0  0  0  0  0  0  0  0999 V2000
   -5.1143   -4.2364    1.5739 C   0  0  0  0  0  0  0  0  0  0  0  0
   -4.0231   -3.3523    1.3548 O   0  0  0  0  0  0  0  0  0  0  0  0
   -3.7457   -3.0157    0.0568 C   0  0  0  0  0  0  0  0  0  0  0  0
   -4.4287   -3.4947   -1.0783 C   0  0  0  0  0  0  0  0  0  0  0  0
   -4.0584   -3.0889   -2.3669 C   0  0  0  0  0  0  0  0  0  0  0  0
   -3.0073   -2.2050   -2.4802 C   0  0  0  0  0  0  0  0  0  0  0  0
   -2.3221   -1.7119   -1.3682 C   0  0  0  0  0  0  0  0  0  0  0  0
   -2.6805   -2.1185   -0.0918 C   0  0  0  0  0  0  0  0  0  0  0  0
   -1.2448   -0.7853   -1.8419 C   0  0  1  0  0  0  0  0  0  0  0  0
   -1.4011   -0.8285   -3.3869 C   0  0  0  0  0  0  0  0  0  0  0  0
   -0.7306   -0.2651   -4.2404 O   0  0  0  0  0  0  0  0  0  0  0  0
   -2.4685   -1.6920   -3.6541 N   0  0  0  0  0  0  0  0  0  0  0  0
   -1.4478    0.5699   -1.2684 C   0  0  0  0  0  0  0  0  0  0  0  0
   -0.2095    1.1248   -0.8860 C   0  0  0  0  0  0  0  0  0  0  0  0
   -0.4340    2.3713   -0.3733 C   0  0  0  0  0  0  0  0  0  0  0  0
    0.3848    3.3099    0.0842 O   0  0  0  0  0  0  0  0  0  0  0  0
   -1.8126    2.5666   -0.4009 N   0  0  0  0  0  0  0  0  0  0  0  0
   -2.4555    3.7773    0.0971 C   0  0  0  0  0  0  0  0  0  0  0  0
   -2.7184    3.7054    1.5819 C   0  0  0  0  0  0  0  0  0  0  0  0
   -3.7397    2.8966    2.1028 C   0  0  0  0  0  0  0  0  0  0  0  0
   -3.9687    2.8411    3.4791 C   0  0  0  0  0  0  0  0  0  0  0  0
   -3.1802    3.5897    4.3501 C   0  0  0  0  0  0  0  0  0  0  0  0
   -2.1580    4.3911    3.8472 C   0  0  0  0  0  0  0  0  0  0  0  0
   -1.9266    4.4471    2.4719 C   0  0  0  0  0  0  0  0  0  0  0  0
   -2.4389    1.4779   -1.0044 C   0  0  0  0  0  0  0  0  0  0  0  0
   -3.7409    1.3789   -1.2464 O   0  0  0  0  0  0  0  0  0  0  0  0
    0.8810    0.1919   -1.2363 C   0  0  1  0  0  0  0  0  0  0  0  0
    2.0327   -0.0069   -0.2574 C   0  0  0  0  0  0  0  0  0  0  0  0
    2.8858   -1.1356   -0.6832 N   0  0  0  0  0  0  0  0  0  0  0  0
    4.1974   -1.2553   -0.2555 C   0  0  0  0  0  0  0  0  0  0  0  0
    4.8619   -2.2749   -0.3888 O   0  0  0  0  0  0  0  0  0  0  0  0
    4.6526   -0.1120    0.3193 O   0  0  0  0  0  0  0  0  0  0  0  0
    6.0053   -0.0201    0.8347 C   0  0  0  0  0  0  0  0  0  0  0  0
    7.0418   -0.1928   -0.2810 C   0  0  0  0  0  0  0  0  0  0  0  0
    6.2317   -1.0042    1.9874 C   0  0  0  0  0  0  0  0  0  0  0  0
    6.1126    1.4107    1.3848 C   0  0  0  0  0  0  0  0  0  0  0  0
    2.1904   -2.3631   -1.1079 C   0  0  0  0  0  0  0  0  0  0  0  0
    0.9275   -2.1150   -1.9724 C   0  0  0  0  0  0  0  0  0  0  0  0
    0.1169   -1.0895   -1.3396 N   0  0  0  0  0  0  0  0  0  0  0  0
   -4.9307   -5.2122    1.1126 H   0  0  0  0  0  0  0  0  0  0  0  0
   -6.0536   -3.8004    1.2179 H   0  0  0  0  0  0  0  0  0  0  0  0
   -5.2077   -4.3914    2.6530 H   0  0  0  0  0  0  0  0  0  0  0  0
   -5.2563   -4.1907   -0.9869 H   0  0  0  0  0  0  0  0  0  0  0  0
   -4.5844   -3.4632   -3.2374 H   0  0  0  0  0  0  0  0  0  0  0  0
   -2.1482   -1.7416    0.7766 H   0  0  0  0  0  0  0  0  0  0  0  0
   -2.7868   -1.8930   -4.5891 H   0  0  0  0  0  0  0  0  0  0  0  0
    1.2932    2.9680    0.0165 H   0  0  0  0  0  0  0  0  0  0  0  0
   -1.8106    4.6275   -0.1553 H   0  0  0  0  0  0  0  0  0  0  0  0
   -3.3899    3.9389   -0.4495 H   0  0  0  0  0  0  0  0  0  0  0  0
   -4.3586    2.2892    1.4472 H   0  0  0  0  0  0  0  0  0  0  0  0
   -4.7580    2.2052    3.8722 H   0  0  0  0  0  0  0  0  0  0  0  0
   -3.3563    3.5409    5.4213 H   0  0  0  0  0  0  0  0  0  0  0  0
   -1.5347    4.9673    4.5259 H   0  0  0  0  0  0  0  0  0  0  0  0
   -1.1132    5.0655    2.0969 H   0  0  0  0  0  0  0  0  0  0  0  0
   -4.2071    2.1791   -0.9628 H   0  0  0  0  0  0  0  0  0  0  0  0
    1.2776    0.4743   -2.2224 H   0  0  0  0  0  0  0  0  0  0  0  0
    1.6722   -0.2333    0.7542 H   0  0  0  0  0  0  0  0  0  0  0  0
    2.6242    0.9124   -0.1912 H   0  0  0  0  0  0  0  0  0  0  0  0
    6.8069    0.4545   -1.1334 H   0  0  0  0  0  0  0  0  0  0  0  0
    8.0505    0.0478    0.0719 H   0  0  0  0  0  0  0  0  0  0  0  0
    7.0661   -1.2177   -0.6626 H   0  0  0  0  0  0  0  0  0  0  0  0
    6.2346   -2.0431    1.6443 H   0  0  0  0  0  0  0  0  0  0  0  0
    5.4319   -0.9216    2.7322 H   0  0  0  0  0  0  0  0  0  0  0  0
    7.1907   -0.8213    2.4845 H   0  0  0  0  0  0  0  0  0  0  0  0
    5.3619    1.5860    2.1646 H   0  0  0  0  0  0  0  0  0  0  0  0
    5.9164    2.1470    0.5963 H   0  0  0  0  0  0  0  0  0  0  0  0
    7.1032    1.6116    1.8070 H   0  0  0  0  0  0  0  0  0  0  0  0
    2.8857   -3.0091   -1.6558 H   0  0  0  0  0  0  0  0  0  0  0  0
    1.9078   -2.8938   -0.1895 H   0  0  0  0  0  0  0  0  0  0  0  0
    0.3737   -3.0564   -2.0590 H   0  0  0  0  0  0  0  0  0  0  0  0
    1.2327   -1.8134   -2.9815 H   0  0  0  0  0  0  0  0  0  0  0  0
  1  2  1  0
  2  3  1  0
  3  4  2  0
  4  5  1  0
  5  6  2  0
  6  7  1  0
  7  8  2  0
  7  9  1  0
  9 10  1  0
 10 11  2  0
 10 12  1  0
  9 13  1  0
 13 14  1  0
 14 15  2  0
 15 16  1  0
 15 17  1  0
 17 18  1  0
 18 19  1  0
 19 20  2  0
 20 21  1  0
 21 22  2  0
 22 23  1  0
 23 24  2  0
 17 25  1  0
 25 26  1  0
 14 27  1  0
 27 28  1  0
 28 29  1  0
 29 30  1  0
 30 31  2  0
 30 32  1  0
 32 33  1  0
 33 34  1  0
 33 35  1  0
 33 36  1  0
 29 37  1  0
 37 38  1  0
 38 39  1  0
  8  3  1  0
  9 39  1  6
 12  6  1  0
 25 13  2  0
 39 27  1  0
 24 19  1  0
  1 40  1  0
  1 41  1  0
  1 42  1  0
  4 43  1  0
  5 44  1  0
  8 45  1  0
 12 46  1  0
 16 47  1  0
 18 48  1  0
 18 49  1  0
 20 50  1  0
 21 51  1  0
 22 52  1  0
 23 53  1  0
 24 54  1  0
 26 55  1  0
 27 56  1  6
 28 57  1  0
 28 58  1  0
 34 59  1  0
 34 60  1  0
 34 61  1  0
 35 62  1  0
 35 63  1  0
 35 64  1  0
 36 65  1  0
 36 66  1  0
 36 67  1  0
 37 68  1  0
 37 69  1  0
 38 70  1  0
 38 71  1  0
M  END
$$$$
