
     RDKit          3D

 40 42  0  0  0  0  0  0  0  0999 V2000
    2.1581    5.0873    1.8090 C   0  0  0  0  0  0  0  0  0  0  0  0
    1.8363    3.7058    1.2660 C   0  0  0  0  0  0  0  0  0  0  0  0
    0.0581    3.3623    1.4679 S   0  0  0  0  0  0  0  0  0  0  0  0
   -0.0433    1.7147    0.7810 C   0  0  0  0  0  0  0  0  0  0  0  0
   -1.2622    1.0730    0.7912 C   0  0  0  0  0  0  0  0  0  0  0  0
   -1.3168   -0.1959    0.2491 C   0  0  0  0  0  0  0  0  0  0  0  0
   -2.5355   -0.9047    0.2504 N   0  0  0  0  0  0  0  0  0  0  0  0
   -2.3902   -2.3194   -0.1647 C   0  0  0  0  0  0  0  0  0  0  0  0
   -3.7438   -3.0364   -0.0466 C   0  0  0  0  0  0  0  0  0  0  0  0
   -4.7529   -2.3810   -0.8326 O   0  0  0  0  0  0  0  0  0  0  0  0
   -4.9192   -1.0254   -0.3894 C   0  0  0  0  0  0  0  0  0  0  0  0
   -3.6112   -0.2245   -0.5078 C   0  0  0  0  0  0  0  0  0  0  0  0
   -0.2082   -0.7776   -0.2372 N   0  0  0  0  0  0  0  0  0  0  0  0
    0.9431   -0.0812   -0.2118 C   0  0  0  0  0  0  0  0  0  0  0  0
    2.1518   -0.7296   -0.7641 C   0  0  0  0  0  0  0  0  0  0  0  0
    2.1053   -2.0275   -1.3127 C   0  0  0  0  0  0  0  0  0  0  0  0
    3.2477   -2.6443   -1.8367 C   0  0  0  0  0  0  0  0  0  0  0  0
    4.4645   -1.9712   -1.8218 C   0  0  0  0  0  0  0  0  0  0  0  0
    5.8699   -2.7256   -2.4646 Cl  0  0  0  0  0  0  0  0  0  0  0  0
    4.5478   -0.6895   -1.2886 C   0  0  0  0  0  0  0  0  0  0  0  0
    3.4019   -0.0778   -0.7660 C   0  0  0  0  0  0  0  0  0  0  0  0
    1.0682    1.1609    0.2781 N   0  0  0  0  0  0  0  0  0  0  0  0
    1.6073    5.8684    1.2740 H   0  0  0  0  0  0  0  0  0  0  0  0
    1.9251    5.1645    2.8765 H   0  0  0  0  0  0  0  0  0  0  0  0
    3.2266    5.2947    1.6881 H   0  0  0  0  0  0  0  0  0  0  0  0
    2.1024    3.6599    0.2050 H   0  0  0  0  0  0  0  0  0  0  0  0
    2.4204    2.9554    1.8086 H   0  0  0  0  0  0  0  0  0  0  0  0
   -2.1348    1.5364    1.2313 H   0  0  0  0  0  0  0  0  0  0  0  0
   -2.0530   -2.3715   -1.2085 H   0  0  0  0  0  0  0  0  0  0  0  0
   -1.6636   -2.8383    0.4722 H   0  0  0  0  0  0  0  0  0  0  0  0
   -4.0779   -3.0811    0.9969 H   0  0  0  0  0  0  0  0  0  0  0  0
   -3.6537   -4.0637   -0.4135 H   0  0  0  0  0  0  0  0  0  0  0  0
   -5.2833   -1.0317    0.6450 H   0  0  0  0  0  0  0  0  0  0  0  0
   -5.6927   -0.5658   -1.0127 H   0  0  0  0  0  0  0  0  0  0  0  0
   -3.7959    0.7875   -0.1320 H   0  0  0  0  0  0  0  0  0  0  0  0
   -3.3234   -0.1550   -1.5650 H   0  0  0  0  0  0  0  0  0  0  0  0
    1.1635   -2.5744   -1.3358 H   0  0  0  0  0  0  0  0  0  0  0  0
    3.1755   -3.6459   -2.2521 H   0  0  0  0  0  0  0  0  0  0  0  0
    5.4955   -0.1581   -1.2738 H   0  0  0  0  0  0  0  0  0  0  0  0
    3.4927    0.9264   -0.3538 H   0  0  0  0  0  0  0  0  0  0  0  0
  1  2  1  0
  2  3  1  0
  3  4  1  0
  4  5  2  0
  5  6  1  0
  6  7  1  0
  7  8  1  0
  8  9  1  0
  9 10  1  0
 10 11  1  0
 11 12  1  0
  6 13  2  0
 13 14  1  0
 14 15  1  0
 15 16  2  0
 16 17  1  0
 17 18  2  0
 18 19  1  0
 18 20  1  0
 20 21  2  0
 14 22  2  0
 22  4  1  0
 12  7  1  0
 21 15  1  0
  1 23  1  0
  1 24  1  0
  1 25  1  0
  2 26  1  0
  2 27  1  0
  5 28  1  0
  8 29  1  0
  8 30  1  0
  9 31  1  0
  9 32  1  0
 11 33  1  0
 11 34  1  0
 12 35  1  0
 12 36  1  0
 16 37  1  0
 17 38  1  0
 20 39  1  0
 21 40  1  0
M  END
$$$$
