
     RDKit          3D

 45 47  0  0  0  0  0  0  0  0999 V2000
   -3.9960    0.0130    3.0162 C   0  0  0  0  0  0  0  0  0  0  0  0
   -3.9879    1.3498    1.7924 S   0  0  0  0  0  0  0  0  0  0  0  0
   -4.2478    0.3894    0.3056 C   0  0  0  0  0  0  0  0  0  0  0  0
   -5.4112    0.6478   -0.4324 C   0  0  0  0  0  0  0  0  0  0  0  0
   -5.7047   -0.0872   -1.5843 C   0  0  0  0  0  0  0  0  0  0  0  0
   -4.8396   -1.0926   -2.0098 C   0  0  0  0  0  0  0  0  0  0  0  0
   -3.6714   -1.3506   -1.2948 C   0  0  0  0  0  0  0  0  0  0  0  0
   -3.3610   -0.5935   -0.1612 C   0  0  0  0  0  0  0  0  0  0  0  0
   -2.1963   -0.9013    0.4959 O   0  0  0  0  0  0  0  0  0  0  0  0
   -1.1169   -0.0260    0.1113 C   0  0  0  0  0  0  0  0  0  0  0  0
   -0.3329    0.3443    1.3801 C   0  0  0  0  0  0  0  0  0  0  0  0
    1.1699    0.5098    1.1361 C   0  0  0  0  0  0  0  0  0  0  0  0
    1.4039    1.0491   -0.1964 N   0  0  0  0  0  0  0  0  0  0  0  0
    2.7263    1.6532   -0.3958 C   0  0  0  0  0  0  0  0  0  0  0  0
    3.9239    0.7315   -0.2888 C   0  0  0  0  0  0  0  0  0  0  0  0
    4.4844    0.1520   -1.4374 C   0  0  0  0  0  0  0  0  0  0  0  0
    5.5906   -0.6944   -1.3414 C   0  0  0  0  0  0  0  0  0  0  0  0
    6.1534   -0.9684   -0.0968 C   0  0  0  0  0  0  0  0  0  0  0  0
    5.6129   -0.3943    1.0517 C   0  0  0  0  0  0  0  0  0  0  0  0
    4.5067    0.4523    0.9565 C   0  0  0  0  0  0  0  0  0  0  0  0
    0.9971    0.1294   -1.2613 C   0  0  0  0  0  0  0  0  0  0  0  0
   -0.2016   -0.7445   -0.8777 C   0  0  0  0  0  0  0  0  0  0  0  0
   -3.9857    0.4509    4.0181 H   0  0  0  0  0  0  0  0  0  0  0  0
   -3.1145   -0.6238    2.9150 H   0  0  0  0  0  0  0  0  0  0  0  0
   -4.8989   -0.5957    2.9149 H   0  0  0  0  0  0  0  0  0  0  0  0
   -6.1075    1.4182   -0.1078 H   0  0  0  0  0  0  0  0  0  0  0  0
   -6.6149    0.1201   -2.1416 H   0  0  0  0  0  0  0  0  0  0  0  0
   -5.0745   -1.6754   -2.8966 H   0  0  0  0  0  0  0  0  0  0  0  0
   -2.9998   -2.1393   -1.6215 H   0  0  0  0  0  0  0  0  0  0  0  0
   -1.4915    0.8987   -0.3523 H   0  0  0  0  0  0  0  0  0  0  0  0
   -0.7424    1.2834    1.7736 H   0  0  0  0  0  0  0  0  0  0  0  0
   -0.4883   -0.4015    2.1696 H   0  0  0  0  0  0  0  0  0  0  0  0
    1.5613    1.1811    1.9102 H   0  0  0  0  0  0  0  0  0  0  0  0
    1.6752   -0.4560    1.2639 H   0  0  0  0  0  0  0  0  0  0  0  0
    2.7459    2.1517   -1.3745 H   0  0  0  0  0  0  0  0  0  0  0  0
    2.8550    2.4751    0.3217 H   0  0  0  0  0  0  0  0  0  0  0  0
    4.0590    0.3582   -2.4171 H   0  0  0  0  0  0  0  0  0  0  0  0
    6.0136   -1.1386   -2.2385 H   0  0  0  0  0  0  0  0  0  0  0  0
    7.0146   -1.6269   -0.0222 H   0  0  0  0  0  0  0  0  0  0  0  0
    6.0536   -0.6039    2.0229 H   0  0  0  0  0  0  0  0  0  0  0  0
    4.1017    0.8972    1.8625 H   0  0  0  0  0  0  0  0  0  0  0  0
    0.7357    0.7232   -2.1453 H   0  0  0  0  0  0  0  0  0  0  0  0
    1.8049   -0.5471   -1.5588 H   0  0  0  0  0  0  0  0  0  0  0  0
   -0.7509   -1.0337   -1.7804 H   0  0  0  0  0  0  0  0  0  0  0  0
    0.1464   -1.6849   -0.4292 H   0  0  0  0  0  0  0  0  0  0  0  0
  1  2  1  0
  2  3  1  0
  3  4  2  0
  4  5  1  0
  5  6  2  0
  6  7  1  0
  7  8  2  0
  8  9  1  0
  9 10  1  0
 10 11  1  0
 11 12  1  0
 12 13  1  0
 13 14  1  0
 14 15  1  0
 15 16  2  0
 16 17  1  0
 17 18  2  0
 18 19  1  0
 19 20  2  0
 13 21  1  0
 21 22  1  0
  8  3  1  0
 22 10  1  0
 20 15  1  0
  1 23  1  0
  1 24  1  0
  1 25  1  0
  4 26  1  0
  5 27  1  0
  6 28  1  0
  7 29  1  0
 10 30  1  0
 11 31  1  0
 11 32  1  0
 12 33  1  0
 12 34  1  0
 14 35  1  0
 14 36  1  0
 16 37  1  0
 17 38  1  0
 18 39  1  0
 19 40  1  0
 20 41  1  0
 21 42  1  0
 21 43  1  0
 22 44  1  0
 22 45  1  0
M  END
$$$$
