
     RDKit          3D

 47 50  0  0  0  0  0  0  0  0999 V2000
    1.0134   -1.5236   -1.8736 C   0  0  0  0  0  0  0  0  0  0  0  0
    1.9242   -1.3582   -0.7949 O   0  0  0  0  0  0  0  0  0  0  0  0
    1.4959   -0.6112    0.2760 C   0  0  0  0  0  0  0  0  0  0  0  0
    0.3449    0.1868    0.2748 C   0  0  0  0  0  0  0  0  0  0  0  0
   -0.0224    0.9250    1.4086 C   0  0  0  0  0  0  0  0  0  0  0  0
   -1.2062    1.7987    1.4387 C   0  0  0  0  0  0  0  0  0  0  0  0
   -2.3866    1.5624    0.8507 C   0  0  0  0  0  0  0  0  0  0  0  0
   -2.7628    0.4772    0.1038 N   0  0  0  0  0  0  0  0  0  0  0  0
   -3.9928    0.7513   -0.1958 C   0  0  0  0  0  0  0  0  0  0  0  0
   -4.9101   -0.0775   -0.9933 C   0  0  0  0  0  0  0  0  0  0  0  0
   -6.2035    0.3579   -1.3069 C   0  0  0  0  0  0  0  0  0  0  0  0
   -7.0476   -0.4548   -2.0670 C   0  0  0  0  0  0  0  0  0  0  0  0
   -6.6046   -1.6996   -2.5142 C   0  0  0  0  0  0  0  0  0  0  0  0
   -5.3174   -2.1368   -2.2039 C   0  0  0  0  0  0  0  0  0  0  0  0
   -4.4698   -1.3282   -1.4447 C   0  0  0  0  0  0  0  0  0  0  0  0
   -4.5085    1.9162    0.2637 O   0  0  0  0  0  0  0  0  0  0  0  0
   -3.5172    2.5223    0.9721 C   0  0  0  0  0  0  0  0  0  0  0  0
   -3.5684    3.5873    1.5530 O   0  0  0  0  0  0  0  0  0  0  0  0
    0.8010    0.8761    2.5390 C   0  0  0  0  0  0  0  0  0  0  0  0
    1.9571    0.0903    2.5503 C   0  0  0  0  0  0  0  0  0  0  0  0
    2.3155   -0.6450    1.4186 C   0  0  0  0  0  0  0  0  0  0  0  0
    3.4261   -1.4501    1.3488 O   0  0  0  0  0  0  0  0  0  0  0  0
    4.5788   -1.0555    2.1009 C   0  0  0  0  0  0  0  0  0  0  0  0
    5.2083    0.1698    1.5950 C   0  0  0  0  0  0  0  0  0  0  0  0
    5.5441    0.6127    0.3022 C   0  0  0  0  0  0  0  0  0  0  0  0
    5.3276   -0.0668   -0.9970 C   0  0  0  0  0  0  0  0  0  0  0  0
    6.1180    1.8202    0.3426 N   0  0  0  0  0  0  0  0  0  0  0  0
    6.1567    2.1895    1.6869 O   0  0  0  0  0  0  0  0  0  0  0  0
    5.5642    1.1283    2.4447 N   0  0  0  0  0  4  0  0  0  0  0  0
    5.5082    1.2746    3.6863 O   0  0  0  0  0  1  0  0  0  0  0  0
    1.4534   -2.2399   -2.5742 H   0  0  0  0  0  0  0  0  0  0  0  0
    0.0583   -1.9369   -1.5321 H   0  0  0  0  0  0  0  0  0  0  0  0
    0.8689   -0.5809   -2.4110 H   0  0  0  0  0  0  0  0  0  0  0  0
   -0.2766    0.2546   -0.6117 H   0  0  0  0  0  0  0  0  0  0  0  0
   -1.0890    2.7109    2.0224 H   0  0  0  0  0  0  0  0  0  0  0  0
   -6.5697    1.3244   -0.9693 H   0  0  0  0  0  0  0  0  0  0  0  0
   -8.0523   -0.1172   -2.3106 H   0  0  0  0  0  0  0  0  0  0  0  0
   -7.2647   -2.3310   -3.1049 H   0  0  0  0  0  0  0  0  0  0  0  0
   -4.9744   -3.1084   -2.5515 H   0  0  0  0  0  0  0  0  0  0  0  0
   -3.4687   -1.6815   -1.2056 H   0  0  0  0  0  0  0  0  0  0  0  0
    0.5448    1.4413    3.4336 H   0  0  0  0  0  0  0  0  0  0  0  0
    2.5406    0.0643    3.4647 H   0  0  0  0  0  0  0  0  0  0  0  0
    5.3017   -1.8731    1.9862 H   0  0  0  0  0  0  0  0  0  0  0  0
    4.3503   -1.0333    3.1719 H   0  0  0  0  0  0  0  0  0  0  0  0
    4.3649    0.2309   -1.4241 H   0  0  0  0  0  0  0  0  0  0  0  0
    6.1149    0.1915   -1.7130 H   0  0  0  0  0  0  0  0  0  0  0  0
    5.3316   -1.1552   -0.8786 H   0  0  0  0  0  0  0  0  0  0  0  0
  1  2  1  0
  2  3  1  0
  3  4  2  0
  4  5  1  0
  5  6  1  0
  6  7  2  3
  7  8  1  0
  8  9  2  0
  9 10  1  0
 10 11  2  0
 11 12  1  0
 12 13  2  0
 13 14  1  0
 14 15  2  0
  9 16  1  0
 16 17  1  0
 17 18  2  0
  5 19  2  0
 19 20  1  0
 20 21  2  0
 21 22  1  0
 22 23  1  0
 23 24  1  0
 24 25  1  0
 25 26  1  0
 25 27  2  0
 27 28  1  0
 28 29  1  0
 29 30  1  0
 21  3  1  0
 29 24  2  0
 17  7  1  0
 15 10  1  0
  1 31  1  0
  1 32  1  0
  1 33  1  0
  4 34  1  0
  6 35  1  0
 11 36  1  0
 12 37  1  0
 13 38  1  0
 14 39  1  0
 15 40  1  0
 19 41  1  0
 20 42  1  0
 23 43  1  0
 23 44  1  0
 26 45  1  0
 26 46  1  0
 26 47  1  0
M  CHG  2  29   1  30  -1
M  END
$$$$
