
     RDKit          3D

 32 33  0  0  0  0  0  0  0  0999 V2000
   -0.3046   -1.4791    1.0343 O   0  0  0  0  0  0  0  0  0  0  0  0
   -0.1246   -0.7804    0.0476 C   0  0  0  0  0  0  0  0  0  0  0  0
   -1.0340   -0.6700   -0.9843 N   0  0  0  0  0  0  0  0  0  0  0  0
   -2.3432   -1.2827   -0.8699 C   0  0  0  0  0  0  0  0  0  0  0  0
   -3.3580   -0.2957   -0.3521 C   0  0  0  0  0  0  0  0  0  0  0  0
   -3.4598   -0.0383    1.0235 C   0  0  0  0  0  0  0  0  0  0  0  0
   -4.3796    0.8941    1.5070 C   0  0  0  0  0  0  0  0  0  0  0  0
   -5.2055    1.5840    0.6205 C   0  0  0  0  0  0  0  0  0  0  0  0
   -5.1054    1.3392   -0.7470 C   0  0  0  0  0  0  0  0  0  0  0  0
   -6.1173    2.1951   -1.8450 Cl  0  0  0  0  0  0  0  0  0  0  0  0
   -4.1877    0.4088   -1.2369 C   0  0  0  0  0  0  0  0  0  0  0  0
    1.0161   -0.0709   -0.2273 N   0  0  0  0  0  0  0  0  0  0  0  0
    2.0170    0.0104    0.7133 C   0  0  0  0  0  0  0  0  0  0  0  0
    1.8351    0.3938    1.8640 O   0  0  0  0  0  0  0  0  0  0  0  0
    3.3799   -0.2017    0.2043 C   0  0  0  0  0  0  0  0  0  0  0  0
    3.7243   -0.8806   -0.9543 C   0  0  0  0  0  0  0  0  0  0  0  0
    5.4185   -0.9335   -1.2202 S   0  0  0  0  0  0  0  0  0  0  0  0
    5.7240   -0.0865    0.2175 C   0  0  0  0  0  0  0  0  0  0  0  0
    7.0732    0.2179    0.6203 N   0  0  0  0  0  4  0  0  0  0  0  0
    7.2002    0.8658    1.6677 O   0  0  0  0  0  0  0  0  0  0  0  0
    8.0022   -0.1758   -0.0963 O   0  0  0  0  0  1  0  0  0  0  0  0
    4.5689    0.2424    0.8914 C   0  0  0  0  0  0  0  0  0  0  0  0
   -1.0187    0.2130   -1.4748 H   0  0  0  0  0  0  0  0  0  0  0  0
   -2.6249   -1.6226   -1.8727 H   0  0  0  0  0  0  0  0  0  0  0  0
   -2.3069   -2.1691   -0.2267 H   0  0  0  0  0  0  0  0  0  0  0  0
   -2.8145   -0.5637    1.7282 H   0  0  0  0  0  0  0  0  0  0  0  0
   -4.4476    1.0833    2.5758 H   0  0  0  0  0  0  0  0  0  0  0  0
   -5.9193    2.3093    1.0014 H   0  0  0  0  0  0  0  0  0  0  0  0
   -4.1232    0.2323   -2.3078 H   0  0  0  0  0  0  0  0  0  0  0  0
    1.2836   -0.1419   -1.1930 H   0  0  0  0  0  0  0  0  0  0  0  0
    3.0804   -1.3758   -1.6685 H   0  0  0  0  0  0  0  0  0  0  0  0
    4.5513    0.7790    1.8359 H   0  0  0  0  0  0  0  0  0  0  0  0
  1  2  2  0
  2  3  1  0
  3  4  1  0
  4  5  1  0
  5  6  2  0
  6  7  1  0
  7  8  2  0
  8  9  1  0
  9 10  1  0
  9 11  2  0
  2 12  1  0
 12 13  1  0
 13 14  2  0
 13 15  1  0
 15 16  2  0
 16 17  1  0
 17 18  1  0
 18 19  1  0
 19 20  2  0
 19 21  1  0
 18 22  2  0
 11  5  1  0
 22 15  1  0
  3 23  1  0
  4 24  1  0
  4 25  1  0
  6 26  1  0
  7 27  1  0
  8 28  1  0
 11 29  1  0
 12 30  1  0
 16 31  1  0
 22 32  1  0
M  CHG  2  19   1  21  -1
M  END
$$$$
