
     RDKit          3D

 63 67  0  0  0  0  0  0  0  0999 V2000
   -7.4833    4.8754    1.5801 C   0  0  0  0  0  0  0  0  0  0  0  0
   -6.1558    5.1860    1.1748 O   0  0  0  0  0  0  0  0  0  0  0  0
   -5.3056    4.1315    0.9753 C   0  0  0  0  0  0  0  0  0  0  0  0
   -4.0223    4.4924    0.5827 C   0  0  0  0  0  0  0  0  0  0  0  0
   -3.0447    3.5217    0.3417 C   0  0  0  0  0  0  0  0  0  0  0  0
   -3.3449    2.1441    0.4887 C   0  0  0  0  0  0  0  0  0  0  0  0
   -2.5211    0.9690    0.2991 C   0  0  0  0  0  0  0  0  0  0  0  0
   -1.1270    0.9654   -0.1353 C   0  0  0  0  0  0  0  0  0  0  0  0
   -0.1110    0.5357    0.7239 C   0  0  0  0  0  0  0  0  0  0  0  0
    1.2224    0.5253    0.2969 C   0  0  0  0  0  0  0  0  0  0  0  0
    1.5514    0.9508   -0.9904 C   0  0  0  0  0  0  0  0  0  0  0  0
    2.8019    0.9845   -1.5408 O   0  0  0  0  0  0  0  0  0  0  0  0
    3.9136    0.5455   -0.7536 C   0  0  0  0  0  0  0  0  0  0  0  0
    4.0832   -0.9829   -0.8503 C   0  0  0  0  0  0  0  0  0  0  0  0
    5.1792   -1.6067   -0.0945 N   0  0  0  0  0  0  0  0  0  0  0  0
    6.5133   -1.1153   -0.4839 C   0  0  0  0  0  0  0  0  0  0  0  0
    7.6156   -1.8527    0.2952 C   0  0  0  0  0  0  0  0  0  0  0  0
    7.4362   -1.7021    1.7112 O   0  0  0  0  0  0  0  0  0  0  0  0
    6.1555   -2.2181    2.1016 C   0  0  0  0  0  0  0  0  0  0  0  0
    5.0172   -1.4907    1.3659 C   0  0  0  0  0  0  0  0  0  0  0  0
    0.5350    1.3893   -1.8435 C   0  0  0  0  0  0  0  0  0  0  0  0
   -0.7966    1.3986   -1.4223 C   0  0  0  0  0  0  0  0  0  0  0  0
   -3.2072   -0.2062    0.5672 C   0  0  0  0  0  0  0  0  0  0  0  0
   -2.7567   -1.6056    0.4973 C   0  0  0  0  0  0  0  0  0  0  0  0
   -2.5817   -2.3258    1.6921 C   0  0  0  0  0  0  0  0  0  0  0  0
   -2.1284   -3.6443    1.6695 C   0  0  0  0  0  0  0  0  0  0  0  0
   -1.8466   -4.2583    0.4530 C   0  0  0  0  0  0  0  0  0  0  0  0
   -2.0149   -3.5563   -0.7430 C   0  0  0  0  0  0  0  0  0  0  0  0
   -2.4591   -2.2281   -0.7314 C   0  0  0  0  0  0  0  0  0  0  0  0
   -2.6760   -1.4973   -1.8734 O   0  0  0  0  0  0  0  0  0  0  0  0
   -1.8700   -1.8404   -2.9946 C   0  0  0  0  0  0  0  0  0  0  0  0
   -4.8248    0.1017    1.0301 S   0  0  0  0  0  0  0  0  0  0  0  0
   -4.6376    1.8043    0.8891 C   0  0  0  0  0  0  0  0  0  0  0  0
   -5.6282    2.7823    1.1351 C   0  0  0  0  0  0  0  0  0  0  0  0
   -7.4910    4.3700    2.5515 H   0  0  0  0  0  0  0  0  0  0  0  0
   -7.9997    4.2805    0.8199 H   0  0  0  0  0  0  0  0  0  0  0  0
   -8.0277    5.8178    1.6910 H   0  0  0  0  0  0  0  0  0  0  0  0
   -3.7710    5.5437    0.4613 H   0  0  0  0  0  0  0  0  0  0  0  0
   -2.0474    3.8332    0.0413 H   0  0  0  0  0  0  0  0  0  0  0  0
   -0.3498    0.2007    1.7306 H   0  0  0  0  0  0  0  0  0  0  0  0
    1.9700    0.1718    0.9976 H   0  0  0  0  0  0  0  0  0  0  0  0
    3.8492    0.9152    0.2748 H   0  0  0  0  0  0  0  0  0  0  0  0
    4.7929    1.0317   -1.1904 H   0  0  0  0  0  0  0  0  0  0  0  0
    3.1453   -1.4753   -0.5647 H   0  0  0  0  0  0  0  0  0  0  0  0
    4.1991   -1.2457   -1.9109 H   0  0  0  0  0  0  0  0  0  0  0  0
    6.6738   -1.2692   -1.5569 H   0  0  0  0  0  0  0  0  0  0  0  0
    6.6010   -0.0422   -0.2741 H   0  0  0  0  0  0  0  0  0  0  0  0
    8.5938   -1.4327    0.0401 H   0  0  0  0  0  0  0  0  0  0  0  0
    7.6352   -2.9202    0.0444 H   0  0  0  0  0  0  0  0  0  0  0  0
    6.1267   -3.2980    1.9112 H   0  0  0  0  0  0  0  0  0  0  0  0
    6.0542   -2.0680    3.1815 H   0  0  0  0  0  0  0  0  0  0  0  0
    5.0255   -0.4368    1.6691 H   0  0  0  0  0  0  0  0  0  0  0  0
    4.0606   -1.9272    1.6752 H   0  0  0  0  0  0  0  0  0  0  0  0
    0.7810    1.7222   -2.8489 H   0  0  0  0  0  0  0  0  0  0  0  0
   -1.5732    1.7298   -2.1078 H   0  0  0  0  0  0  0  0  0  0  0  0
   -2.7971   -1.8559    2.6496 H   0  0  0  0  0  0  0  0  0  0  0  0
   -2.0006   -4.1915    2.5998 H   0  0  0  0  0  0  0  0  0  0  0  0
   -1.5031   -5.2895    0.4318 H   0  0  0  0  0  0  0  0  0  0  0  0
   -1.8094   -4.0756   -1.6733 H   0  0  0  0  0  0  0  0  0  0  0  0
   -0.8137   -1.9381   -2.7204 H   0  0  0  0  0  0  0  0  0  0  0  0
   -2.2391   -2.7533   -3.4722 H   0  0  0  0  0  0  0  0  0  0  0  0
   -1.9509   -1.0289   -3.7238 H   0  0  0  0  0  0  0  0  0  0  0  0
   -6.6160    2.4588    1.4424 H   0  0  0  0  0  0  0  0  0  0  0  0
  1  2  1  0
  2  3  1  0
  3  4  2  0
  4  5  1  0
  5  6  2  0
  6  7  1  0
  7  8  1  0
  8  9  2  0
  9 10  1  0
 10 11  2  0
 11 12  1  0
 12 13  1  0
 13 14  1  0
 14 15  1  0
 15 16  1  0
 16 17  1  0
 17 18  1  0
 18 19  1  0
 19 20  1  0
 11 21  1  0
 21 22  2  0
  7 23  2  0
 23 24  1  0
 24 25  2  0
 25 26  1  0
 26 27  2  0
 27 28  1  0
 28 29  2  0
 29 30  1  0
 30 31  1  0
 23 32  1  0
 32 33  1  0
 33 34  2  0
 34  3  1  0
 33  6  1  0
 22  8  1  0
 29 24  1  0
 20 15  1  0
  1 35  1  0
  1 36  1  0
  1 37  1  0
  4 38  1  0
  5 39  1  0
  9 40  1  0
 10 41  1  0
 13 42  1  0
 13 43  1  0
 14 44  1  0
 14 45  1  0
 16 46  1  0
 16 47  1  0
 17 48  1  0
 17 49  1  0
 19 50  1  0
 19 51  1  0
 20 52  1  0
 20 53  1  0
 21 54  1  0
 22 55  1  0
 25 56  1  0
 26 57  1  0
 27 58  1  0
 28 59  1  0
 31 60  1  0
 31 61  1  0
 31 62  1  0
 34 63  1  0
M  END
$$$$
