
     RDKit          3D

 53 56  0  0  0  0  0  0  0  0999 V2000
    7.6183    0.5191    1.0448 C   0  0  0  0  0  0  0  0  0  0  0  0
    7.0115    0.2077   -0.2033 O   0  0  0  0  0  0  0  0  0  0  0  0
    5.7722    0.7393   -0.4403 C   0  0  0  0  0  0  0  0  0  0  0  0
    5.1729    0.3197   -1.6291 C   0  0  0  0  0  0  0  0  0  0  0  0
    3.9101    0.7914   -1.9968 C   0  0  0  0  0  0  0  0  0  0  0  0
    3.2289    1.7040   -1.1816 C   0  0  0  0  0  0  0  0  0  0  0  0
    1.8602    2.1981   -1.5728 C   0  0  0  0  0  0  0  0  0  0  0  0
    0.8427    1.2606   -1.1626 N   0  0  0  0  0  0  0  0  0  0  0  0
    0.2921    0.3307   -2.0115 C   0  0  0  0  0  0  0  0  0  0  0  0
    0.5717    0.3123   -3.2131 O   0  0  0  0  0  0  0  0  0  0  0  0
   -0.6487   -0.7136   -1.4174 C   0  0  0  0  0  0  0  0  0  0  0  0
    0.0990   -1.9555   -1.1807 C   0  0  0  0  0  0  0  0  0  0  0  0
    0.6490   -2.9591   -0.9713 N   0  0  0  0  0  0  0  0  0  0  0  0
   -1.4025   -0.3018   -0.1645 C   0  0  0  0  0  0  0  0  0  0  0  0
   -0.7100    0.3478    0.8241 N   0  0  0  0  0  0  0  0  0  0  0  0
   -1.3887    0.6797    1.9372 C   0  0  0  0  0  0  0  0  0  0  0  0
   -0.7380    1.3438    2.9704 C   0  0  0  0  0  0  0  0  0  0  0  0
   -1.4135    1.7124    4.1343 C   0  0  0  0  0  0  0  0  0  0  0  0
   -2.7621    1.4104    4.2679 C   0  0  0  0  0  0  0  0  0  0  0  0
   -3.4213    0.7391    3.2374 C   0  0  0  0  0  0  0  0  0  0  0  0
   -2.7576    0.3680    2.0744 C   0  0  0  0  0  0  0  0  0  0  0  0
   -3.4290   -0.2834    1.1068 N   0  0  0  0  0  0  0  0  0  0  0  0
   -2.7589   -0.6357   -0.0137 C   0  0  0  0  0  0  0  0  0  0  0  0
   -3.4281   -1.3888   -1.0014 N   0  0  0  0  0  0  0  0  0  0  0  0
   -3.3730   -2.8320   -0.6563 C   0  0  0  0  0  0  0  0  0  0  0  0
   -4.7750   -3.3629   -0.9330 C   0  0  0  0  0  0  0  0  0  0  0  0
   -5.6478   -2.1769   -0.5794 C   0  0  0  0  0  0  0  0  0  0  0  0
   -4.8520   -1.0120   -1.1531 C   0  0  0  0  0  0  0  0  0  0  0  0
    3.8282    2.1146    0.0161 C   0  0  0  0  0  0  0  0  0  0  0  0
    5.0936    1.6386    0.3829 C   0  0  0  0  0  0  0  0  0  0  0  0
    8.5827    0.0022    1.0864 H   0  0  0  0  0  0  0  0  0  0  0  0
    7.0095    0.1570    1.8808 H   0  0  0  0  0  0  0  0  0  0  0  0
    7.8117    1.5922    1.1303 H   0  0  0  0  0  0  0  0  0  0  0  0
    5.6901   -0.3853   -2.2743 H   0  0  0  0  0  0  0  0  0  0  0  0
    3.4589    0.4387   -2.9224 H   0  0  0  0  0  0  0  0  0  0  0  0
    1.6431    3.1525   -1.0779 H   0  0  0  0  0  0  0  0  0  0  0  0
    1.8129    2.3757   -2.6543 H   0  0  0  0  0  0  0  0  0  0  0  0
    0.6527    1.1638   -0.1663 H   0  0  0  0  0  0  0  0  0  0  0  0
   -1.3740   -0.8878   -2.2215 H   0  0  0  0  0  0  0  0  0  0  0  0
    0.3188    1.5780    2.8688 H   0  0  0  0  0  0  0  0  0  0  0  0
   -0.8865    2.2310    4.9298 H   0  0  0  0  0  0  0  0  0  0  0  0
   -3.3035    1.6911    5.1680 H   0  0  0  0  0  0  0  0  0  0  0  0
   -4.4766    0.4967    3.3413 H   0  0  0  0  0  0  0  0  0  0  0  0
   -2.6348   -3.3454   -1.2782 H   0  0  0  0  0  0  0  0  0  0  0  0
   -3.1175   -3.0061    0.3965 H   0  0  0  0  0  0  0  0  0  0  0  0
   -4.8836   -3.6115   -1.9952 H   0  0  0  0  0  0  0  0  0  0  0  0
   -5.0087   -4.2555   -0.3459 H   0  0  0  0  0  0  0  0  0  0  0  0
   -5.7373   -2.0815    0.5086 H   0  0  0  0  0  0  0  0  0  0  0  0
   -6.6523   -2.2475   -1.0042 H   0  0  0  0  0  0  0  0  0  0  0  0
   -5.1300   -0.0520   -0.7015 H   0  0  0  0  0  0  0  0  0  0  0  0
   -5.0566   -0.9252   -2.2279 H   0  0  0  0  0  0  0  0  0  0  0  0
    3.3159    2.8117    0.6746 H   0  0  0  0  0  0  0  0  0  0  0  0
    5.5208    1.9915    1.3162 H   0  0  0  0  0  0  0  0  0  0  0  0
  1  2  1  0
  2  3  1  0
  3  4  2  0
  4  5  1  0
  5  6  2  0
  6  7  1  0
  7  8  1  0
  8  9  1  0
  9 10  2  0
  9 11  1  0
 11 12  1  0
 12 13  3  0
 11 14  1  0
 14 15  2  0
 15 16  1  0
 16 17  2  0
 17 18  1  0
 18 19  2  0
 19 20  1  0
 20 21  2  0
 21 22  1  0
 22 23  2  0
 23 24  1  0
 24 25  1  0
 25 26  1  0
 26 27  1  0
 27 28  1  0
  6 29  1  0
 29 30  2  0
 30  3  1  0
 23 14  1  0
 28 24  1  0
 21 16  1  0
  1 31  1  0
  1 32  1  0
  1 33  1  0
  4 34  1  0
  5 35  1  0
  7 36  1  0
  7 37  1  0
  8 38  1  0
 11 39  1  0
 17 40  1  0
 18 41  1  0
 19 42  1  0
 20 43  1  0
 25 44  1  0
 25 45  1  0
 26 46  1  0
 26 47  1  0
 27 48  1  0
 27 49  1  0
 28 50  1  0
 28 51  1  0
 29 52  1  0
 30 53  1  0
M  END
$$$$
