
     RDKit          3D

 34 36  0  0  0  0  0  0  0  0999 V2000
   -0.6295    2.0908    2.6200 C   0  0  0  0  0  0  0  0  0  0  0  0
   -0.9646    1.0227    1.7305 O   0  0  0  0  0  0  0  0  0  0  0  0
   -2.2764    0.9875    1.3790 C   0  0  0  0  0  0  0  0  0  0  0  0
   -3.1349    1.7433    1.8106 O   0  0  0  0  0  0  0  0  0  0  0  0
   -2.5648   -0.1039    0.3969 C   0  0  0  0  0  0  0  0  0  0  0  0
   -3.9179   -0.2449    0.0294 C   0  0  0  0  0  0  0  0  0  0  0  0
   -4.3201   -1.2197   -0.8835 C   0  0  0  0  0  0  0  0  0  0  0  0
   -3.3761   -2.0711   -1.4427 C   0  0  0  0  0  0  0  0  0  0  0  0
   -2.0314   -1.9439   -1.0926 C   0  0  0  0  0  0  0  0  0  0  0  0
   -1.5997   -0.9659   -0.1759 C   0  0  0  0  0  0  0  0  0  0  0  0
   -0.2108   -0.8916    0.1014 N   0  0  0  0  0  0  0  0  0  0  0  0
    0.5659   -0.3445   -1.0017 C   0  0  0  0  0  0  0  0  0  0  0  0
    0.3246    1.0675   -1.1342 O   0  0  0  0  0  0  0  0  0  0  0  0
    1.4659    1.7972   -0.9783 C   0  0  0  0  0  0  0  0  0  0  0  0
    1.5701    3.0049   -1.0515 O   0  0  0  0  0  0  0  0  0  0  0  0
    2.5378    0.8561   -0.6946 C   0  0  0  0  0  0  0  0  0  0  0  0
    3.8741    1.1163   -0.4464 C   0  0  0  0  0  0  0  0  0  0  0  0
    4.7044    0.0259   -0.1838 C   0  0  0  0  0  0  0  0  0  0  0  0
    4.1828   -1.2794   -0.1736 C   0  0  0  0  0  0  0  0  0  0  0  0
    2.8266   -1.5093   -0.4286 C   0  0  0  0  0  0  0  0  0  0  0  0
    2.0133   -0.4181   -0.6900 C   0  0  0  0  0  0  0  0  0  0  0  0
   -1.0892    1.9242    3.5991 H   0  0  0  0  0  0  0  0  0  0  0  0
   -0.9362    3.0559    2.2038 H   0  0  0  0  0  0  0  0  0  0  0  0
    0.4575    2.0990    2.7413 H   0  0  0  0  0  0  0  0  0  0  0  0
   -4.6729    0.4136    0.4578 H   0  0  0  0  0  0  0  0  0  0  0  0
   -5.3696   -1.3130   -1.1522 H   0  0  0  0  0  0  0  0  0  0  0  0
   -3.6840   -2.8383   -2.1487 H   0  0  0  0  0  0  0  0  0  0  0  0
   -1.3115   -2.6335   -1.5281 H   0  0  0  0  0  0  0  0  0  0  0  0
   -0.0780   -0.2761    0.9086 H   0  0  0  0  0  0  0  0  0  0  0  0
    0.3620   -0.8323   -1.9624 H   0  0  0  0  0  0  0  0  0  0  0  0
    4.2576    2.1316   -0.4538 H   0  0  0  0  0  0  0  0  0  0  0  0
    5.7614    0.1855    0.0184 H   0  0  0  0  0  0  0  0  0  0  0  0
    4.8418   -2.1191    0.0383 H   0  0  0  0  0  0  0  0  0  0  0  0
    2.4218   -2.5176   -0.4123 H   0  0  0  0  0  0  0  0  0  0  0  0
  1  2  1  0
  2  3  1  0
  3  4  2  0
  3  5  1  0
  5  6  2  0
  6  7  1  0
  7  8  2  0
  8  9  1  0
  9 10  2  0
 10 11  1  0
 11 12  1  0
 12 13  1  0
 13 14  1  0
 14 15  2  0
 14 16  1  0
 16 17  2  0
 17 18  1  0
 18 19  2  0
 19 20  1  0
 20 21  2  0
 10  5  1  0
 21 12  1  0
 21 16  1  0
  1 22  1  0
  1 23  1  0
  1 24  1  0
  6 25  1  0
  7 26  1  0
  8 27  1  0
  9 28  1  0
 11 29  1  0
 12 30  1  0
 17 31  1  0
 18 32  1  0
 19 33  1  0
 20 34  1  0
M  END
$$$$
