
     RDKit          3D

 34 35  0  0  0  0  0  0  0  0999 V2000
   -1.8204    2.4415    0.2299 O   0  0  0  0  0  0  0  0  0  0  0  0
   -0.9674    1.5967    0.4795 C   0  0  0  0  0  0  0  0  0  0  0  0
    0.3870    1.9621    1.0779 C   0  0  0  0  0  0  0  0  0  0  0  0
    1.4004    1.0909    0.5573 O   0  0  0  0  0  0  0  0  0  0  0  0
    2.6197    1.2877    1.1166 C   0  0  0  0  0  0  0  0  0  0  0  0
    2.8789    2.0842    2.0020 O   0  0  0  0  0  0  0  0  0  0  0  0
    3.6195    0.3769    0.5194 C   0  0  0  0  0  0  0  0  0  0  0  0
    3.3760   -0.4107   -0.6102 C   0  0  0  0  0  0  0  0  0  0  0  0
    4.3864   -1.2415   -1.0961 C   0  0  0  0  0  0  0  0  0  0  0  0
    5.6024   -1.2478   -0.4327 C   0  0  0  0  0  0  0  0  0  0  0  0
    6.8918   -2.2421   -0.9659 Cl  0  0  0  0  0  0  0  0  0  0  0  0
    5.8765   -0.4992    0.6549 N   0  0  0  0  0  0  0  0  0  0  0  0
    4.8781    0.3003    1.1058 C   0  0  0  0  0  0  0  0  0  0  0  0
   -1.1131    0.2359    0.2632 N   0  0  0  0  0  0  0  0  0  0  0  0
   -2.2484   -0.3669   -0.3336 C   0  0  0  0  0  0  0  0  0  0  0  0
   -1.9998   -1.3741   -1.2945 C   0  0  0  0  0  0  0  0  0  0  0  0
   -0.3783   -1.8591   -1.6785 Cl  0  0  0  0  0  0  0  0  0  0  0  0
   -3.0399   -1.9908   -1.9909 C   0  0  0  0  0  0  0  0  0  0  0  0
   -4.3531   -1.6239   -1.7302 C   0  0  0  0  0  0  0  0  0  0  0  0
   -4.6190   -0.6712   -0.7480 C   0  0  0  0  0  0  0  0  0  0  0  0
   -3.5818   -0.0509   -0.0108 C   0  0  0  0  0  0  0  0  0  0  0  0
   -4.0127    0.8339    1.1398 C   0  0  0  0  0  0  0  0  0  0  0  0
   -4.4180    2.0728    0.7536 F   0  0  0  0  0  0  0  0  0  0  0  0
   -5.0980    0.3011    1.7874 F   0  0  0  0  0  0  0  0  0  0  0  0
   -3.0860    0.9944    2.1255 F   0  0  0  0  0  0  0  0  0  0  0  0
    0.3115    1.8632    2.1665 H   0  0  0  0  0  0  0  0  0  0  0  0
    0.6201    2.9948    0.7969 H   0  0  0  0  0  0  0  0  0  0  0  0
    2.4196   -0.3838   -1.1239 H   0  0  0  0  0  0  0  0  0  0  0  0
    4.2243   -1.8630   -1.9702 H   0  0  0  0  0  0  0  0  0  0  0  0
    5.1327    0.8927    1.9827 H   0  0  0  0  0  0  0  0  0  0  0  0
   -0.2267   -0.2371    0.0975 H   0  0  0  0  0  0  0  0  0  0  0  0
   -2.8316   -2.7487   -2.7418 H   0  0  0  0  0  0  0  0  0  0  0  0
   -5.1715   -2.0922   -2.2727 H   0  0  0  0  0  0  0  0  0  0  0  0
   -5.6593   -0.4261   -0.5261 H   0  0  0  0  0  0  0  0  0  0  0  0
  1  2  2  0
  2  3  1  0
  3  4  1  0
  4  5  1  0
  5  6  2  0
  5  7  1  0
  7  8  2  0
  8  9  1  0
  9 10  2  0
 10 11  1  0
 10 12  1  0
 12 13  2  0
  2 14  1  0
 14 15  1  0
 15 16  2  0
 16 17  1  0
 16 18  1  0
 18 19  2  0
 19 20  1  0
 20 21  2  0
 21 22  1  0
 22 23  1  0
 22 24  1  0
 22 25  1  0
 13  7  1  0
 21 15  1  0
  3 26  1  0
  3 27  1  0
  8 28  1  0
  9 29  1  0
 13 30  1  0
 14 31  1  0
 18 32  1  0
 19 33  1  0
 20 34  1  0
M  END
$$$$
