
     RDKit          3D

 52 55  0  0  0  0  0  0  0  0999 V2000
    6.6087    3.3069   -1.7738 C   0  0  0  0  0  0  0  0  0  0  0  0
    5.9490    2.2346   -2.6272 C   0  0  0  0  0  0  0  0  0  0  0  0
    4.7380    1.6452   -1.9495 C   0  0  0  0  0  0  0  0  0  0  0  0
    3.4725    2.2132   -2.1389 C   0  0  0  0  0  0  0  0  0  0  0  0
    2.3529    1.6769   -1.4984 C   0  0  0  0  0  0  0  0  0  0  0  0
    2.4842    0.5672   -0.6562 C   0  0  0  0  0  0  0  0  0  0  0  0
    1.2761    0.0228    0.0068 C   0  0  0  0  0  0  0  0  0  0  0  0
    0.1044    0.5748   -0.0876 N   0  0  0  0  0  0  0  0  0  0  0  0
   -0.7677   -0.2010    0.6221 N   0  0  0  0  0  0  0  0  0  0  0  0
   -2.0750    0.2233    0.8536 C   0  0  0  0  0  0  0  0  0  0  0  0
   -2.9889   -0.5268    1.6134 C   0  0  0  0  0  0  0  0  0  0  0  0
   -4.3004   -0.0864    1.8349 C   0  0  0  0  0  0  0  0  0  0  0  0
   -4.7186    1.1303    1.2997 C   0  0  0  0  0  0  0  0  0  0  0  0
   -6.3788    1.6798    1.5467 S   0  0  0  0  0  6  0  0  0  0  0  0
   -6.2189    2.6803    2.8859 N   0  0  0  0  0  0  0  0  0  0  0  0
   -6.7669    2.5397    0.4531 O   0  0  0  0  0  0  0  0  0  0  0  0
   -7.1921    0.5684    1.9836 O   0  0  0  0  0  0  0  0  0  0  0  0
   -3.8457    1.8950    0.5304 C   0  0  0  0  0  0  0  0  0  0  0  0
   -2.5394    1.4404    0.3192 C   0  0  0  0  0  0  0  0  0  0  0  0
   -0.1590   -1.4341    1.1245 C   0  0  0  0  0  0  0  0  0  0  0  0
   -0.6446   -2.6865    0.4052 C   0  0  0  0  0  0  0  0  0  0  0  0
   -0.9887   -2.6767   -0.9589 C   0  0  0  0  0  0  0  0  0  0  0  0
   -1.4087   -3.8453   -1.5961 C   0  0  0  0  0  0  0  0  0  0  0  0
   -1.4787   -5.0304   -0.8762 C   0  0  0  0  0  0  0  0  0  0  0  0
   -1.8791   -6.1529   -1.4876 F   0  0  0  0  0  0  0  0  0  0  0  0
   -1.1366   -5.0700    0.4698 C   0  0  0  0  0  0  0  0  0  0  0  0
   -0.7176   -3.9022    1.1100 C   0  0  0  0  0  0  0  0  0  0  0  0
    1.3328   -1.2043    0.8744 C   0  0  0  0  0  0  0  0  0  0  0  0
    3.7470    0.0011   -0.4564 C   0  0  0  0  0  0  0  0  0  0  0  0
    4.8664    0.5396   -1.0990 C   0  0  0  0  0  0  0  0  0  0  0  0
    7.4834    3.7158   -2.2894 H   0  0  0  0  0  0  0  0  0  0  0  0
    5.9183    4.1325   -1.5697 H   0  0  0  0  0  0  0  0  0  0  0  0
    6.9405    2.9012   -0.8121 H   0  0  0  0  0  0  0  0  0  0  0  0
    6.6716    1.4394   -2.8474 H   0  0  0  0  0  0  0  0  0  0  0  0
    5.6598    2.6581   -3.5967 H   0  0  0  0  0  0  0  0  0  0  0  0
    3.3485    3.0786   -2.7867 H   0  0  0  0  0  0  0  0  0  0  0  0
    1.3783    2.1327   -1.6618 H   0  0  0  0  0  0  0  0  0  0  0  0
   -2.7023   -1.4813    2.0446 H   0  0  0  0  0  0  0  0  0  0  0  0
   -4.9807   -0.7011    2.4198 H   0  0  0  0  0  0  0  0  0  0  0  0
   -6.7602    2.3042    3.6643 H   0  0  0  0  0  0  0  0  0  0  0  0
   -6.4661    3.6370    2.6325 H   0  0  0  0  0  0  0  0  0  0  0  0
   -4.1637    2.8369    0.0904 H   0  0  0  0  0  0  0  0  0  0  0  0
   -1.8689    2.0508   -0.2831 H   0  0  0  0  0  0  0  0  0  0  0  0
   -0.3339   -1.5336    2.2035 H   0  0  0  0  0  0  0  0  0  0  0  0
   -0.9423   -1.7506   -1.5314 H   0  0  0  0  0  0  0  0  0  0  0  0
   -1.6827   -3.8346   -2.6462 H   0  0  0  0  0  0  0  0  0  0  0  0
   -1.1995   -6.0090    1.0103 H   0  0  0  0  0  0  0  0  0  0  0  0
   -0.4503   -3.9476    2.1639 H   0  0  0  0  0  0  0  0  0  0  0  0
    1.8380   -2.0375    0.3785 H   0  0  0  0  0  0  0  0  0  0  0  0
    1.8520   -0.9516    1.8052 H   0  0  0  0  0  0  0  0  0  0  0  0
    3.8902   -0.8545    0.1961 H   0  0  0  0  0  0  0  0  0  0  0  0
    5.8434    0.0909   -0.9308 H   0  0  0  0  0  0  0  0  0  0  0  0
  1  2  1  0
  2  3  1  0
  3  4  2  0
  4  5  1  0
  5  6  2  0
  6  7  1  0
  7  8  2  0
  8  9  1  0
  9 10  1  0
 10 11  2  0
 11 12  1  0
 12 13  2  0
 13 14  1  0
 14 15  1  0
 14 16  2  0
 14 17  2  0
 13 18  1  0
 18 19  2  0
  9 20  1  0
 20 21  1  0
 21 22  2  0
 22 23  1  0
 23 24  2  0
 24 25  1  0
 24 26  1  0
 26 27  2  0
 20 28  1  0
  6 29  1  0
 29 30  2  0
 30  3  1  0
 28  7  1  0
 19 10  1  0
 27 21  1  0
  1 31  1  0
  1 32  1  0
  1 33  1  0
  2 34  1  0
  2 35  1  0
  4 36  1  0
  5 37  1  0
 11 38  1  0
 12 39  1  0
 15 40  1  0
 15 41  1  0
 18 42  1  0
 19 43  1  0
 20 44  1  0
 22 45  1  0
 23 46  1  0
 26 47  1  0
 27 48  1  0
 28 49  1  0
 28 50  1  0
 29 51  1  0
 30 52  1  0
M  END
$$$$
