
     RDKit          3D

 46 49  0  0  0  0  0  0  0  0999 V2000
   -3.3271    1.9960   -2.7436 O   0  0  0  0  0  0  0  0  0  0  0  0
   -2.6903    1.1185   -2.1490 C   0  0  0  0  0  0  0  0  0  0  0  0
   -1.4344    1.4352   -1.7089 N   0  0  0  0  0  0  0  0  0  0  0  0
   -0.5211    0.5825   -1.0810 C   0  0  0  0  0  0  0  0  0  0  0  0
    0.6366    1.1551   -0.5449 C   0  0  0  0  0  0  0  0  0  0  0  0
    1.5912    0.3475    0.0815 C   0  0  0  0  0  0  0  0  0  0  0  0
    2.7836    0.9934    0.6744 C   0  0  0  0  0  0  0  0  0  0  0  0
    2.5991    1.9593    1.4107 O   0  0  0  0  0  0  0  0  0  0  0  0
    4.0433    0.4914    0.3775 N   0  0  0  0  0  0  0  0  0  0  0  0
    4.3570   -0.4146   -0.7349 C   0  0  0  0  0  0  0  0  0  0  0  0
    5.7429   -0.1131   -1.3167 C   0  0  0  0  0  0  0  0  0  0  0  0
    6.7981   -0.2164   -0.3521 O   0  0  0  0  0  0  0  0  0  0  0  0
    6.4113    0.1485    0.9816 C   0  0  0  0  0  0  0  0  0  0  0  0
    5.2033    1.0862    1.0430 C   0  0  0  0  0  0  0  0  0  0  0  0
    1.3805   -1.0275    0.2001 C   0  0  0  0  0  0  0  0  0  0  0  0
    0.2338   -1.5987   -0.3548 C   0  0  0  0  0  0  0  0  0  0  0  0
   -0.7213   -0.8001   -1.0001 C   0  0  0  0  0  0  0  0  0  0  0  0
   -2.1084   -1.6113   -1.7545 S   0  0  0  0  0  0  0  0  0  0  0  0
   -3.3120   -0.2530   -1.8181 C   0  0  0  0  0  0  0  0  0  0  0  0
   -4.2460   -0.1365   -0.6742 N   0  0  0  0  0  0  0  0  0  0  0  0
   -5.1724   -1.2782   -0.5695 C   0  0  0  0  0  0  0  0  0  0  0  0
   -6.2035   -1.0540    0.5485 C   0  0  0  0  0  0  0  0  0  0  0  0
   -5.5582   -0.8287    1.8085 O   0  0  0  0  0  0  0  0  0  0  0  0
   -4.7029    0.3185    1.7219 C   0  0  0  0  0  0  0  0  0  0  0  0
   -3.6295    0.1327    0.6346 C   0  0  0  0  0  0  0  0  0  0  0  0
   -1.1843    2.4047   -1.8630 H   0  0  0  0  0  0  0  0  0  0  0  0
    0.8032    2.2292   -0.5947 H   0  0  0  0  0  0  0  0  0  0  0  0
    3.5976   -0.3353   -1.5180 H   0  0  0  0  0  0  0  0  0  0  0  0
    4.3434   -1.4304   -0.3247 H   0  0  0  0  0  0  0  0  0  0  0  0
    5.9707   -0.8085   -2.1305 H   0  0  0  0  0  0  0  0  0  0  0  0
    5.7701    0.9003   -1.7341 H   0  0  0  0  0  0  0  0  0  0  0  0
    7.2784    0.6127    1.4617 H   0  0  0  0  0  0  0  0  0  0  0  0
    6.1951   -0.7802    1.5224 H   0  0  0  0  0  0  0  0  0  0  0  0
    4.9519    1.3243    2.0820 H   0  0  0  0  0  0  0  0  0  0  0  0
    5.4230    2.0252    0.5212 H   0  0  0  0  0  0  0  0  0  0  0  0
    2.0944   -1.6550    0.7276 H   0  0  0  0  0  0  0  0  0  0  0  0
    0.0881   -2.6748   -0.2757 H   0  0  0  0  0  0  0  0  0  0  0  0
   -3.9172   -0.4784   -2.7065 H   0  0  0  0  0  0  0  0  0  0  0  0
   -4.6206   -2.2002   -0.3500 H   0  0  0  0  0  0  0  0  0  0  0  0
   -5.7103   -1.4198   -1.5138 H   0  0  0  0  0  0  0  0  0  0  0  0
   -6.8599   -0.2054    0.3205 H   0  0  0  0  0  0  0  0  0  0  0  0
   -6.8342   -1.9425    0.6542 H   0  0  0  0  0  0  0  0  0  0  0  0
   -5.3115    1.2109    1.5315 H   0  0  0  0  0  0  0  0  0  0  0  0
   -4.2224    0.4465    2.6972 H   0  0  0  0  0  0  0  0  0  0  0  0
   -3.0253    1.0445    0.6023 H   0  0  0  0  0  0  0  0  0  0  0  0
   -2.9836   -0.7007    0.9342 H   0  0  0  0  0  0  0  0  0  0  0  0
  1  2  2  0
  2  3  1  0
  3  4  1  0
  4  5  2  0
  5  6  1  0
  6  7  1  0
  7  8  2  0
  7  9  1  0
  9 10  1  0
 10 11  1  0
 11 12  1  0
 12 13  1  0
 13 14  1  0
  6 15  2  0
 15 16  1  0
 16 17  2  0
 17 18  1  0
 18 19  1  0
 19 20  1  0
 20 21  1  0
 21 22  1  0
 22 23  1  0
 23 24  1  0
 24 25  1  0
 19  2  1  0
 25 20  1  0
 17  4  1  0
 14  9  1  0
  3 26  1  0
  5 27  1  0
 10 28  1  0
 10 29  1  0
 11 30  1  0
 11 31  1  0
 13 32  1  0
 13 33  1  0
 14 34  1  0
 14 35  1  0
 15 36  1  0
 16 37  1  0
 19 38  1  0
 21 39  1  0
 21 40  1  0
 22 41  1  0
 22 42  1  0
 24 43  1  0
 24 44  1  0
 25 45  1  0
 25 46  1  0
M  END
$$$$
