
     RDKit          3D

 63 65  0  0  0  0  0  0  0  0999 V2000
   -1.5577   -3.4125   -1.8425 C   0  0  0  0  0  0  0  0  0  0  0  0
   -0.0725   -3.3359   -1.4885 C   0  0  0  0  0  0  0  0  0  0  0  0
    0.3906   -2.1388   -0.7751 N   0  0  0  0  0  0  0  0  0  0  0  0
   -0.0475   -0.8625   -1.3748 C   0  0  0  0  0  0  0  0  0  0  0  0
    1.0060    0.2418   -1.1641 C   0  0  0  0  0  0  0  0  0  0  0  0
    0.6986    1.4304   -1.2013 O   0  0  0  0  0  0  0  0  0  0  0  0
    2.2809   -0.2796   -1.0088 N   0  0  0  0  0  0  0  0  0  0  0  0
    3.4930    0.4055   -0.8239 C   0  0  0  0  0  0  0  0  0  0  0  0
    3.6118    1.7949   -0.8048 C   0  0  0  0  0  0  0  0  0  0  0  0
    4.8662    2.3945   -0.6255 C   0  0  0  0  0  0  0  0  0  0  0  0
    6.0196    1.6169   -0.4559 C   0  0  0  0  0  0  0  0  0  0  0  0
    7.2434    2.3016   -0.2934 N   0  0  0  0  0  0  0  0  0  0  0  0
    8.4931    1.7463   -0.0775 C   0  0  0  0  0  0  0  0  0  0  0  0
    9.5879    2.7812    0.0046 C   0  0  0  0  0  0  0  0  0  0  0  0
    8.7568    0.5580    0.0687 O   0  0  0  0  0  0  0  0  0  0  0  0
    5.8974    0.2278   -0.4666 C   0  0  0  0  0  0  0  0  0  0  0  0
    4.6437   -0.3718   -0.6517 C   0  0  0  0  0  0  0  0  0  0  0  0
    0.2937   -2.2020    0.6995 C   0  0  0  0  0  0  0  0  0  0  0  0
   -1.0742   -2.6250    1.2471 C   0  0  0  0  0  0  0  0  0  0  0  0
   -1.3124   -3.8059    1.4935 O   0  0  0  0  0  0  0  0  0  0  0  0
   -1.9567   -1.5707    1.3908 N   0  0  0  0  0  0  0  0  0  0  0  0
   -3.2920   -1.5941    1.8679 C   0  0  0  0  0  0  0  0  0  0  0  0
   -3.8689   -2.7357    2.4384 C   0  0  0  0  0  0  0  0  0  0  0  0
   -5.1768   -2.7067    2.9391 C   0  0  0  0  0  0  0  0  0  0  0  0
   -5.9260   -1.5332    2.8844 C   0  0  0  0  0  0  0  0  0  0  0  0
   -5.3767   -0.3875    2.3085 C   0  0  0  0  0  0  0  0  0  0  0  0
   -4.0741   -0.4177    1.7789 C   0  0  0  0  0  0  0  0  0  0  0  0
   -3.5199    0.8017    1.1220 C   0  0  0  0  0  0  0  0  0  0  0  0
   -2.3151    1.0419    1.2321 O   0  0  0  0  0  0  0  0  0  0  0  0
   -4.3697    1.7084    0.3007 C   0  0  0  0  0  0  0  0  0  0  0  0
   -5.4127    1.2139   -0.4931 C   0  0  0  0  0  0  0  0  0  0  0  0
   -6.1778    2.0970   -1.2634 C   0  0  0  0  0  0  0  0  0  0  0  0
   -5.8962    3.4669   -1.2540 C   0  0  0  0  0  0  0  0  0  0  0  0
   -4.8409    3.9586   -0.4854 C   0  0  0  0  0  0  0  0  0  0  0  0
   -4.0713    3.0809    0.2846 C   0  0  0  0  0  0  0  0  0  0  0  0
   -2.1906   -3.4773   -0.9585 H   0  0  0  0  0  0  0  0  0  0  0  0
   -1.7439   -4.3133   -2.4387 H   0  0  0  0  0  0  0  0  0  0  0  0
   -1.8881   -2.5523   -2.4294 H   0  0  0  0  0  0  0  0  0  0  0  0
    0.4850   -3.3782   -2.4314 H   0  0  0  0  0  0  0  0  0  0  0  0
    0.2247   -4.2406   -0.9450 H   0  0  0  0  0  0  0  0  0  0  0  0
   -0.1304   -0.9605   -2.4647 H   0  0  0  0  0  0  0  0  0  0  0  0
   -1.0140   -0.5305   -0.9839 H   0  0  0  0  0  0  0  0  0  0  0  0
    2.3013   -1.2978   -0.9910 H   0  0  0  0  0  0  0  0  0  0  0  0
    2.7504    2.4437   -0.9317 H   0  0  0  0  0  0  0  0  0  0  0  0
    4.9170    3.4815   -0.6213 H   0  0  0  0  0  0  0  0  0  0  0  0
    7.1890    3.3113   -0.3346 H   0  0  0  0  0  0  0  0  0  0  0  0
    9.2848    3.7340   -0.4399 H   0  0  0  0  0  0  0  0  0  0  0  0
    9.8524    2.9423    1.0539 H   0  0  0  0  0  0  0  0  0  0  0  0
   10.4595    2.4123   -0.5430 H   0  0  0  0  0  0  0  0  0  0  0  0
    6.7556   -0.4253   -0.3379 H   0  0  0  0  0  0  0  0  0  0  0  0
    4.5892   -1.4600   -0.6631 H   0  0  0  0  0  0  0  0  0  0  0  0
    1.0249   -2.9351    1.0605 H   0  0  0  0  0  0  0  0  0  0  0  0
    0.5930   -1.2516    1.1607 H   0  0  0  0  0  0  0  0  0  0  0  0
   -1.6135   -0.6387    1.1399 H   0  0  0  0  0  0  0  0  0  0  0  0
   -3.3178   -3.6686    2.5281 H   0  0  0  0  0  0  0  0  0  0  0  0
   -5.6005   -3.6058    3.3845 H   0  0  0  0  0  0  0  0  0  0  0  0
   -6.9377   -1.5091    3.2885 H   0  0  0  0  0  0  0  0  0  0  0  0
   -5.9712    0.5248    2.2866 H   0  0  0  0  0  0  0  0  0  0  0  0
   -5.6338    0.1466   -0.5383 H   0  0  0  0  0  0  0  0  0  0  0  0
   -6.9873    1.7165   -1.8816 H   0  0  0  0  0  0  0  0  0  0  0  0
   -6.4945    4.1487   -1.8567 H   0  0  0  0  0  0  0  0  0  0  0  0
   -4.6082    5.0248   -0.4906 H   0  0  0  0  0  0  0  0  0  0  0  0
   -3.2390    3.4696    0.8682 H   0  0  0  0  0  0  0  0  0  0  0  0
  1  2  1  0
  2  3  1  0
  3  4  1  0
  4  5  1  0
  5  6  2  0
  5  7  1  0
  7  8  1  0
  8  9  2  0
  9 10  1  0
 10 11  2  0
 11 12  1  0
 12 13  1  0
 13 14  1  0
 13 15  2  0
 11 16  1  0
 16 17  2  0
  3 18  1  0
 18 19  1  0
 19 20  2  0
 19 21  1  0
 21 22  1  0
 22 23  2  0
 23 24  1  0
 24 25  2  0
 25 26  1  0
 26 27  2  0
 27 28  1  0
 28 29  2  0
 28 30  1  0
 30 31  2  0
 31 32  1  0
 32 33  2  0
 33 34  1  0
 34 35  2  0
 17  8  1  0
 27 22  1  0
 35 30  1  0
  1 36  1  0
  1 37  1  0
  1 38  1  0
  2 39  1  0
  2 40  1  0
  4 41  1  0
  4 42  1  0
  7 43  1  0
  9 44  1  0
 10 45  1  0
 12 46  1  0
 14 47  1  0
 14 48  1  0
 14 49  1  0
 16 50  1  0
 17 51  1  0
 18 52  1  0
 18 53  1  0
 21 54  1  0
 23 55  1  0
 24 56  1  0
 25 57  1  0
 26 58  1  0
 31 59  1  0
 32 60  1  0
 33 61  1  0
 34 62  1  0
 35 63  1  0
M  END
$$$$
