
     RDKit          3D

 32 33  0  0  0  0  0  0  0  0999 V2000
   -3.3387    0.7388    2.4136 C   0  0  0  0  0  0  0  0  0  0  0  0
   -4.0534    0.5352    1.1995 O   0  0  0  0  0  0  0  0  0  0  0  0
   -3.3047    0.5380    0.0496 C   0  0  0  0  0  0  0  0  0  0  0  0
   -1.9679    0.9247   -0.0606 C   0  0  0  0  0  0  0  0  0  0  0  0
   -1.3124    0.8614   -1.3003 C   0  0  0  0  0  0  0  0  0  0  0  0
    0.0799    1.2954   -1.4541 C   0  0  0  0  0  0  0  0  0  0  0  0
    1.1861    0.7841   -0.8889 C   0  0  0  0  0  0  0  0  0  0  0  0
    1.2862   -0.3792    0.0536 C   0  0  0  0  0  0  0  0  0  0  0  0
    0.2853   -0.9071    0.5281 O   0  0  0  0  0  0  0  0  0  0  0  0
    2.6207   -0.8450    0.3936 C   0  0  0  0  0  0  0  0  0  0  0  0
    3.0229   -1.8854    1.2186 C   0  0  0  0  0  0  0  0  0  0  0  0
    4.4406   -1.9128    1.2010 C   0  0  0  0  0  0  0  0  0  0  0  0
    4.8103   -0.8866    0.3666 C   0  0  0  0  0  0  0  0  0  0  0  0
    6.0918   -0.4110   -0.0499 N   0  0  0  0  0  4  0  0  0  0  0  0
    6.1233    0.5568   -0.8206 O   0  0  0  0  0  0  0  0  0  0  0  0
    7.0741   -1.0135    0.4026 O   0  0  0  0  0  1  0  0  0  0  0  0
    3.7292   -0.2288   -0.1316 O   0  0  0  0  0  0  0  0  0  0  0  0
   -2.0168    0.4396   -2.4366 C   0  0  0  0  0  0  0  0  0  0  0  0
   -3.3567    0.0670   -2.3368 C   0  0  0  0  0  0  0  0  0  0  0  0
   -3.9843    0.1205   -1.1000 C   0  0  0  0  0  0  0  0  0  0  0  0
   -5.2994   -0.2511   -1.0252 O   0  0  0  0  0  0  0  0  0  0  0  0
   -4.0427    0.6062    3.2408 H   0  0  0  0  0  0  0  0  0  0  0  0
   -2.5393   -0.0001    2.5351 H   0  0  0  0  0  0  0  0  0  0  0  0
   -2.9476    1.7598    2.4708 H   0  0  0  0  0  0  0  0  0  0  0  0
   -1.4110    1.2701    0.8036 H   0  0  0  0  0  0  0  0  0  0  0  0
    0.2002    2.1279   -2.1471 H   0  0  0  0  0  0  0  0  0  0  0  0
    2.1345    1.2431   -1.1551 H   0  0  0  0  0  0  0  0  0  0  0  0
    2.3548   -2.5422    1.7623 H   0  0  0  0  0  0  0  0  0  0  0  0
    5.1017   -2.5898    1.7253 H   0  0  0  0  0  0  0  0  0  0  0  0
   -1.5279    0.3961   -3.4069 H   0  0  0  0  0  0  0  0  0  0  0  0
   -3.9062   -0.2631   -3.2129 H   0  0  0  0  0  0  0  0  0  0  0  0
   -5.5325   -0.1490   -0.0819 H   0  0  0  0  0  0  0  0  0  0  0  0
  1  2  1  0
  2  3  1  0
  3  4  2  0
  4  5  1  0
  5  6  1  0
  6  7  2  3
  7  8  1  0
  8  9  2  0
  8 10  1  0
 10 11  2  0
 11 12  1  0
 12 13  2  0
 13 14  1  0
 14 15  2  0
 14 16  1  0
 13 17  1  0
  5 18  2  0
 18 19  1  0
 19 20  2  0
 20 21  1  0
 20  3  1  0
 17 10  1  0
  1 22  1  0
  1 23  1  0
  1 24  1  0
  4 25  1  0
  6 26  1  0
  7 27  1  0
 11 28  1  0
 12 29  1  0
 18 30  1  0
 19 31  1  0
 21 32  1  0
M  CHG  2  14   1  16  -1
M  END
$$$$
