
     RDKit          3D

 34 36  0  0  0  0  0  0  0  0999 V2000
    0.7957   -0.8095   -1.1986 O   0  0  0  0  0  0  0  0  0  0  0  0
    0.7591   -1.4179   -0.1374 C   0  0  0  0  0  0  0  0  0  0  0  0
    1.8916   -1.5864    0.8188 C   0  0  0  0  0  0  0  0  0  0  0  0
    3.1311   -1.0852    0.7326 C   0  0  0  0  0  0  0  0  0  0  0  0
    3.6857   -0.2253   -0.3120 C   0  0  0  0  0  0  0  0  0  0  0  0
    3.1084    0.9833   -0.6853 C   0  0  0  0  0  0  0  0  0  0  0  0
    3.7482    1.7626   -1.6464 C   0  0  0  0  0  0  0  0  0  0  0  0
    4.9487    1.3238   -2.1900 C   0  0  0  0  0  0  0  0  0  0  0  0
    5.4655    0.1208   -1.7414 C   0  0  0  0  0  0  0  0  0  0  0  0
    4.8688   -0.6538   -0.8084 N   0  0  0  0  0  0  0  0  0  0  0  0
    1.4062   -2.6157    2.1340 S   0  0  0  0  0  0  0  0  0  0  0  0
   -0.2303   -2.8307    1.5140 C   0  0  0  0  0  0  0  0  0  0  0  0
   -1.3683   -3.7966    2.2594 S   0  0  0  0  0  0  0  0  0  0  0  0
   -0.3445   -2.0977    0.3524 N   0  0  0  0  0  0  0  0  0  0  0  0
   -1.5548   -2.0292   -0.3820 N   0  0  0  0  0  0  0  0  0  0  0  0
   -2.3378   -0.8911   -0.0204 C   0  0  0  0  0  0  0  0  0  0  0  0
   -2.0187   -0.1880    1.0985 N   0  0  0  0  0  0  0  0  0  0  0  0
   -2.8096    0.8540    1.4495 C   0  0  0  0  0  0  0  0  0  0  0  0
   -3.9249    1.2583    0.7328 C   0  0  0  0  0  0  0  0  0  0  0  0
   -4.7500    2.4119    1.2124 C   0  0  0  0  0  0  0  0  0  0  0  0
   -5.6669    2.0397    2.1445 F   0  0  0  0  0  0  0  0  0  0  0  0
   -4.0029    3.3927    1.7891 F   0  0  0  0  0  0  0  0  0  0  0  0
   -5.4509    3.0163    0.2143 F   0  0  0  0  0  0  0  0  0  0  0  0
   -4.2542    0.5276   -0.4117 C   0  0  0  0  0  0  0  0  0  0  0  0
   -3.4599   -0.5541   -0.7926 C   0  0  0  0  0  0  0  0  0  0  0  0
   -3.8819   -1.4297   -2.2189 Cl  0  0  0  0  0  0  0  0  0  0  0  0
    3.8723   -1.3533    1.4831 H   0  0  0  0  0  0  0  0  0  0  0  0
    2.1751    1.3219   -0.2486 H   0  0  0  0  0  0  0  0  0  0  0  0
    3.3104    2.7035   -1.9670 H   0  0  0  0  0  0  0  0  0  0  0  0
    5.4701    1.9054   -2.9417 H   0  0  0  0  0  0  0  0  0  0  0  0
    6.4040   -0.2643   -2.1300 H   0  0  0  0  0  0  0  0  0  0  0  0
   -1.3546   -1.9597   -1.3841 H   0  0  0  0  0  0  0  0  0  0  0  0
   -2.5034    1.3677    2.3597 H   0  0  0  0  0  0  0  0  0  0  0  0
   -5.1273    0.7987   -1.0026 H   0  0  0  0  0  0  0  0  0  0  0  0
  1  2  2  0
  2  3  1  0
  3  4  2  3
  4  5  1  0
  5  6  2  0
  6  7  1  0
  7  8  2  0
  8  9  1  0
  9 10  2  0
  3 11  1  0
 11 12  1  0
 12 13  2  0
 12 14  1  0
 14 15  1  0
 15 16  1  0
 16 17  2  0
 17 18  1  0
 18 19  2  0
 19 20  1  0
 20 21  1  0
 20 22  1  0
 20 23  1  0
 19 24  1  0
 24 25  2  0
 25 26  1  0
 14  2  1  0
 25 16  1  0
 10  5  1  0
  4 27  1  0
  6 28  1  0
  7 29  1  0
  8 30  1  0
  9 31  1  0
 15 32  1  0
 18 33  1  0
 24 34  1  0
M  END
$$$$
