
     RDKit          3D

 46 48  0  0  0  0  0  0  0  0999 V2000
    5.3281    1.6649   -2.4198 C   0  0  0  0  0  0  0  0  0  0  0  0
    4.9874    0.3037   -2.1949 O   0  0  0  0  0  0  0  0  0  0  0  0
    3.9429    0.0643   -1.3448 C   0  0  0  0  0  0  0  0  0  0  0  0
    3.0922    1.0219   -0.7976 C   0  0  0  0  0  0  0  0  0  0  0  0
    2.0460    0.6313    0.0457 C   0  0  0  0  0  0  0  0  0  0  0  0
    1.8139   -0.7232    0.3506 C   0  0  0  0  0  0  0  0  0  0  0  0
    0.6629   -1.0973    1.2810 C   0  0  0  0  0  0  0  0  0  0  0  0
    0.4960   -2.5786    1.6449 C   0  0  0  0  0  0  0  0  0  0  0  0
   -0.6382   -0.5222    0.8462 N   0  0  0  0  0  0  0  0  0  0  0  0
   -1.4706    0.2332    1.6870 C   0  0  0  0  0  0  0  0  0  0  0  0
   -1.1274    0.4632    3.1223 C   0  0  0  0  0  0  0  0  0  0  0  0
   -2.5352    0.6615    0.9136 C   0  0  0  0  0  0  0  0  0  0  0  0
   -3.6230    1.4802    1.2898 C   0  0  0  0  0  0  0  0  0  0  0  0
   -3.9616    2.1029    2.5972 C   0  0  0  0  0  0  0  0  0  0  0  0
   -4.4771    1.7043    0.2395 N   0  0  0  0  0  0  0  0  0  0  0  0
   -4.2903    1.1709   -1.1099 N   0  0  0  0  0  0  0  0  0  0  0  0
   -3.2398    0.3770   -1.4864 C   0  0  0  0  0  0  0  0  0  0  0  0
   -3.1823   -0.0758   -2.9040 C   0  0  0  0  0  0  0  0  0  0  0  0
   -2.3606    0.1288   -0.4100 C   0  0  0  0  0  0  0  0  0  0  0  0
   -1.2160   -0.6483   -0.4191 C   0  0  0  0  0  0  0  0  0  0  0  0
   -0.6236   -1.4554   -1.5257 C   0  0  0  0  0  0  0  0  0  0  0  0
    2.6838   -1.6734   -0.2012 C   0  0  0  0  0  0  0  0  0  0  0  0
    3.7338   -1.2812   -1.0397 C   0  0  0  0  0  0  0  0  0  0  0  0
    4.5208    2.1934   -2.9362 H   0  0  0  0  0  0  0  0  0  0  0  0
    5.5946    2.1642   -1.4825 H   0  0  0  0  0  0  0  0  0  0  0  0
    6.2101    1.6861   -3.0694 H   0  0  0  0  0  0  0  0  0  0  0  0
    3.2037    2.0793   -1.0169 H   0  0  0  0  0  0  0  0  0  0  0  0
    1.3940    1.4040    0.4522 H   0  0  0  0  0  0  0  0  0  0  0  0
    0.9241   -0.5958    2.2218 H   0  0  0  0  0  0  0  0  0  0  0  0
    0.2882   -3.2035    0.7721 H   0  0  0  0  0  0  0  0  0  0  0  0
   -0.3353   -2.7202    2.3469 H   0  0  0  0  0  0  0  0  0  0  0  0
    1.4034   -2.9629    2.1263 H   0  0  0  0  0  0  0  0  0  0  0  0
   -0.9645   -0.4942    3.6353 H   0  0  0  0  0  0  0  0  0  0  0  0
   -1.9044    0.9909    3.6754 H   0  0  0  0  0  0  0  0  0  0  0  0
   -0.2147    1.0662    3.2018 H   0  0  0  0  0  0  0  0  0  0  0  0
   -4.8815    2.6893    2.5209 H   0  0  0  0  0  0  0  0  0  0  0  0
   -4.1212    1.3293    3.3536 H   0  0  0  0  0  0  0  0  0  0  0  0
   -3.1635    2.7768    2.9195 H   0  0  0  0  0  0  0  0  0  0  0  0
   -3.3852   -1.1509   -2.9692 H   0  0  0  0  0  0  0  0  0  0  0  0
   -2.2030    0.1396   -3.3402 H   0  0  0  0  0  0  0  0  0  0  0  0
   -3.9342    0.4477   -3.5052 H   0  0  0  0  0  0  0  0  0  0  0  0
   -0.0666   -0.8088   -2.2102 H   0  0  0  0  0  0  0  0  0  0  0  0
    0.0468   -2.2405   -1.1786 H   0  0  0  0  0  0  0  0  0  0  0  0
   -1.4072   -1.9708   -2.0936 H   0  0  0  0  0  0  0  0  0  0  0  0
    2.5616   -2.7367   -0.0104 H   0  0  0  0  0  0  0  0  0  0  0  0
    4.3926   -2.0352   -1.4633 H   0  0  0  0  0  0  0  0  0  0  0  0
  1  2  1  0
  2  3  1  0
  3  4  2  0
  4  5  1  0
  5  6  2  0
  6  7  1  0
  7  8  1  0
  7  9  1  0
  9 10  1  0
 10 11  1  0
 10 12  2  0
 12 13  1  0
 13 14  1  0
 13 15  2  0
 15 16  1  0
 16 17  2  0
 17 18  1  0
 17 19  1  0
 19 20  2  0
 20 21  1  0
  6 22  1  0
 22 23  2  0
 23  3  1  0
 20  9  1  0
 19 12  1  0
  1 24  1  0
  1 25  1  0
  1 26  1  0
  4 27  1  0
  5 28  1  0
  7 29  1  0
  8 30  1  0
  8 31  1  0
  8 32  1  0
 11 33  1  0
 11 34  1  0
 11 35  1  0
 14 36  1  0
 14 37  1  0
 14 38  1  0
 18 39  1  0
 18 40  1  0
 18 41  1  0
 21 42  1  0
 21 43  1  0
 21 44  1  0
 22 45  1  0
 23 46  1  0
M  END
$$$$
