
     RDKit          3D

 45 46  0  0  0  0  0  0  0  0999 V2000
   -3.3616   -2.9775    3.7085 C   0  0  0  0  0  0  0  0  0  0  0  0
   -3.2841   -1.8222    2.8727 O   0  0  0  0  0  0  0  0  0  0  0  0
   -2.4465   -1.9655    1.8068 C   0  0  0  0  0  0  0  0  0  0  0  0
   -1.8430   -2.9932    1.5176 O   0  0  0  0  0  0  0  0  0  0  0  0
   -2.4120   -0.6835    0.9738 C   0  0  0  0  0  0  0  0  0  0  0  0
   -3.5635   -0.7446   -0.0377 C   0  0  0  0  0  0  0  0  0  0  0  0
   -3.7281    0.5310   -0.8306 C   0  0  0  0  0  0  0  0  0  0  0  0
   -4.2835    1.6712   -0.2336 C   0  0  0  0  0  0  0  0  0  0  0  0
   -4.4279    2.8523   -0.9631 C   0  0  0  0  0  0  0  0  0  0  0  0
   -4.0199    2.9053   -2.2943 C   0  0  0  0  0  0  0  0  0  0  0  0
   -3.4664    1.7778   -2.8974 C   0  0  0  0  0  0  0  0  0  0  0  0
   -3.3201    0.5956   -2.1698 C   0  0  0  0  0  0  0  0  0  0  0  0
   -1.1043   -0.5971    0.3122 N   0  0  0  0  0  0  0  0  0  0  0  0
   -0.0384   -0.0056    0.9573 C   0  0  0  0  0  0  0  0  0  0  0  0
   -0.1431    0.5812    2.0285 O   0  0  0  0  0  0  0  0  0  0  0  0
    1.2574   -0.1205    0.1862 C   0  0  0  0  0  0  0  0  0  0  0  0
    2.4270    0.4280    0.9937 C   0  0  0  0  0  0  0  0  0  0  0  0
    3.6610    0.4624    0.2281 N   0  0  0  0  0  0  0  0  0  0  0  0
    4.3858   -0.6845   -0.0476 C   0  0  0  0  0  0  0  0  0  0  0  0
    3.9823   -1.7896    0.3080 O   0  0  0  0  0  0  0  0  0  0  0  0
    5.6217   -0.4720   -0.7811 C   0  0  0  0  0  0  0  0  0  0  0  0
    6.2650    0.6578   -1.2618 C   0  0  0  0  0  0  0  0  0  0  0  0
    7.4505    0.2193   -1.9032 C   0  0  0  0  0  0  0  0  0  0  0  0
    7.4660   -1.1479   -1.7800 C   0  0  0  0  0  0  0  0  0  0  0  0
    6.3698   -1.5752   -1.1069 O   0  0  0  0  0  0  0  0  0  0  0  0
   -3.7821   -3.8222    3.1540 H   0  0  0  0  0  0  0  0  0  0  0  0
   -2.3750   -3.2288    4.1104 H   0  0  0  0  0  0  0  0  0  0  0  0
   -4.0271   -2.7465    4.5449 H   0  0  0  0  0  0  0  0  0  0  0  0
   -2.5189    0.1739    1.6487 H   0  0  0  0  0  0  0  0  0  0  0  0
   -3.4173   -1.5891   -0.7250 H   0  0  0  0  0  0  0  0  0  0  0  0
   -4.5112   -0.9515    0.4776 H   0  0  0  0  0  0  0  0  0  0  0  0
   -4.6067    1.6492    0.8049 H   0  0  0  0  0  0  0  0  0  0  0  0
   -4.8583    3.7320   -0.4915 H   0  0  0  0  0  0  0  0  0  0  0  0
   -4.1330    3.8255   -2.8612 H   0  0  0  0  0  0  0  0  0  0  0  0
   -3.1480    1.8191   -3.9358 H   0  0  0  0  0  0  0  0  0  0  0  0
   -2.8842   -0.2734   -2.6570 H   0  0  0  0  0  0  0  0  0  0  0  0
   -0.8786   -1.3473   -0.3317 H   0  0  0  0  0  0  0  0  0  0  0  0
    1.1497    0.4401   -0.7500 H   0  0  0  0  0  0  0  0  0  0  0  0
    1.4261   -1.1723   -0.0698 H   0  0  0  0  0  0  0  0  0  0  0  0
    2.2304    1.4559    1.3180 H   0  0  0  0  0  0  0  0  0  0  0  0
    2.5905   -0.1793    1.8917 H   0  0  0  0  0  0  0  0  0  0  0  0
    4.0188    1.3614   -0.0572 H   0  0  0  0  0  0  0  0  0  0  0  0
    5.9304    1.6803   -1.1660 H   0  0  0  0  0  0  0  0  0  0  0  0
    8.2008    0.8238   -2.3933 H   0  0  0  0  0  0  0  0  0  0  0  0
    8.1491   -1.9234   -2.0981 H   0  0  0  0  0  0  0  0  0  0  0  0
  1  2  1  0
  2  3  1  0
  3  4  2  0
  3  5  1  0
  5  6  1  0
  6  7  1  0
  7  8  2  0
  8  9  1  0
  9 10  2  0
 10 11  1  0
 11 12  2  0
  5 13  1  0
 13 14  1  0
 14 15  2  0
 14 16  1  0
 16 17  1  0
 17 18  1  0
 18 19  1  0
 19 20  2  0
 19 21  1  0
 21 22  2  0
 22 23  1  0
 23 24  2  0
 24 25  1  0
 12  7  1  0
 25 21  1  0
  1 26  1  0
  1 27  1  0
  1 28  1  0
  5 29  1  0
  6 30  1  0
  6 31  1  0
  8 32  1  0
  9 33  1  0
 10 34  1  0
 11 35  1  0
 12 36  1  0
 13 37  1  0
 16 38  1  0
 16 39  1  0
 17 40  1  0
 17 41  1  0
 18 42  1  0
 22 43  1  0
 23 44  1  0
 24 45  1  0
M  END
$$$$
