
     RDKit          3D

 48 51  0  0  0  0  0  0  0  0999 V2000
    7.8374    4.2556    0.9068 C   0  0  0  0  0  0  0  0  0  0  0  0
    7.2234    2.9044    0.8775 C   0  0  0  0  0  0  0  0  0  0  0  0
    7.0731    2.1725   -0.2065 N   0  0  0  0  0  0  0  0  0  0  0  0
    6.5014    0.9484    0.0713 N   0  0  0  0  0  0  0  0  0  0  0  0
    6.2176    0.8077    1.3474 C   0  0  0  0  0  0  0  0  0  0  0  0
    5.5160   -0.6477    2.0110 S   0  0  0  0  0  0  0  0  0  0  0  0
    4.9709   -1.4979    0.4988 C   0  0  0  0  0  0  0  0  0  0  0  0
    3.6150   -0.9983    0.0499 C   0  0  0  0  0  0  0  0  0  0  0  0
    3.5025   -0.1437   -0.9775 C   0  0  0  0  0  0  0  0  0  0  0  0
    2.1575    0.2733   -1.3876 C   0  0  0  0  0  0  0  0  0  0  0  0
    1.9802    1.0289   -2.3360 O   0  0  0  0  0  0  0  0  0  0  0  0
    1.1464   -0.2570   -0.6479 N   0  0  0  0  0  0  0  0  0  0  0  0
    1.3368   -1.1516    0.3685 C   0  0  0  0  0  0  0  0  0  0  0  0
    0.2664   -1.6703    1.0224 N   0  0  0  0  0  0  0  0  0  0  0  0
   -1.0835   -1.4893    0.7844 C   0  0  0  0  0  0  0  0  0  0  0  0
   -1.9163   -2.1998    1.5531 N   0  0  0  0  0  0  0  0  0  0  0  0
   -3.2442   -2.0624    1.3407 C   0  0  0  0  0  0  0  0  0  0  0  0
   -4.1282   -2.8863    2.2331 C   0  0  0  0  0  0  0  0  0  0  0  0
   -3.7685   -1.2148    0.3597 C   0  0  0  0  0  0  0  0  0  0  0  0
   -5.1457   -1.0345    0.0800 C   0  0  0  0  0  0  0  0  0  0  0  0
   -5.5781   -0.1628   -0.9300 C   0  0  0  0  0  0  0  0  0  0  0  0
   -7.0508   -0.0072   -1.1931 C   0  0  0  0  0  0  0  0  0  0  0  0
   -4.6175    0.5592   -1.6534 C   0  0  0  0  0  0  0  0  0  0  0  0
   -5.0029    1.5128   -2.7512 C   0  0  0  0  0  0  0  0  0  0  0  0
   -3.2539    0.3552   -1.3704 C   0  0  0  0  0  0  0  0  0  0  0  0
   -2.8143   -0.5144   -0.3798 C   0  0  0  0  0  0  0  0  0  0  0  0
   -1.4972   -0.6461   -0.1749 N   0  0  0  0  0  0  0  0  0  0  0  0
    2.5323   -1.5240    0.7237 N   0  0  0  0  0  0  0  0  0  0  0  0
    6.6409    2.1601    2.3109 S   0  0  0  0  0  0  0  0  0  0  0  0
    8.9044    4.1799    1.1348 H   0  0  0  0  0  0  0  0  0  0  0  0
    7.7352    4.7402   -0.0689 H   0  0  0  0  0  0  0  0  0  0  0  0
    7.3677    4.9011    1.6525 H   0  0  0  0  0  0  0  0  0  0  0  0
    4.8990   -2.5680    0.7246 H   0  0  0  0  0  0  0  0  0  0  0  0
    5.7235   -1.4143   -0.2925 H   0  0  0  0  0  0  0  0  0  0  0  0
    4.3425    0.2622   -1.5256 H   0  0  0  0  0  0  0  0  0  0  0  0
    0.1963   -0.0125   -0.9033 H   0  0  0  0  0  0  0  0  0  0  0  0
    0.4473   -2.3416    1.7499 H   0  0  0  0  0  0  0  0  0  0  0  0
   -4.7788   -2.2406    2.8302 H   0  0  0  0  0  0  0  0  0  0  0  0
   -4.7385   -3.5740    1.6402 H   0  0  0  0  0  0  0  0  0  0  0  0
   -3.5288   -3.4864    2.9228 H   0  0  0  0  0  0  0  0  0  0  0  0
   -5.8905   -1.5844    0.6539 H   0  0  0  0  0  0  0  0  0  0  0  0
   -7.6389   -0.7482   -0.6394 H   0  0  0  0  0  0  0  0  0  0  0  0
   -7.3869    0.9877   -0.8831 H   0  0  0  0  0  0  0  0  0  0  0  0
   -7.2671   -0.1513   -2.2559 H   0  0  0  0  0  0  0  0  0  0  0  0
   -4.1691    2.1697   -3.0217 H   0  0  0  0  0  0  0  0  0  0  0  0
   -5.8255    2.1574   -2.4322 H   0  0  0  0  0  0  0  0  0  0  0  0
   -5.3048    0.9554   -3.6423 H   0  0  0  0  0  0  0  0  0  0  0  0
   -2.5034    0.8978   -1.9440 H   0  0  0  0  0  0  0  0  0  0  0  0
  1  2  1  0
  2  3  2  0
  3  4  1  0
  4  5  2  0
  5  6  1  0
  6  7  1  0
  7  8  1  0
  8  9  2  0
  9 10  1  0
 10 11  2  0
 10 12  1  0
 12 13  1  0
 13 14  1  0
 14 15  1  0
 15 16  2  0
 16 17  1  0
 17 18  1  0
 17 19  2  0
 19 20  1  0
 20 21  2  0
 21 22  1  0
 21 23  1  0
 23 24  1  0
 23 25  2  0
 25 26  1  0
 26 27  2  0
 13 28  2  0
  5 29  1  0
 29  2  1  0
 28  8  1  0
 27 15  1  0
 26 19  1  0
  1 30  1  0
  1 31  1  0
  1 32  1  0
  7 33  1  0
  7 34  1  0
  9 35  1  0
 12 36  1  0
 14 37  1  0
 18 38  1  0
 18 39  1  0
 18 40  1  0
 20 41  1  0
 22 42  1  0
 22 43  1  0
 22 44  1  0
 24 45  1  0
 24 46  1  0
 24 47  1  0
 25 48  1  0
M  END
$$$$
