
     RDKit          3D

 43 45  0  0  0  0  0  0  0  0999 V2000
    3.0036   -1.4603    3.6127 C   0  0  0  0  0  0  0  0  0  0  0  0
    2.6645   -0.7375    2.3925 N   0  0  0  0  0  0  0  0  0  0  0  0
    1.3046   -0.1604    2.4528 C   0  0  0  0  0  0  0  0  0  0  0  0
    0.4126   -0.4215    1.2203 C   0  0  0  0  0  0  0  0  0  0  0  0
    1.1362   -0.2421   -0.0390 N   0  0  0  0  0  0  0  0  0  0  0  0
    0.6111    0.2827   -1.2066 C   0  0  0  0  0  0  0  0  0  0  0  0
    1.1838    0.2962   -2.2909 O   0  0  0  0  0  0  0  0  0  0  0  0
   -0.7674    0.9072   -1.1724 C   0  0  0  0  0  0  0  0  0  0  0  0
   -0.7875    2.4119   -1.0424 C   0  0  0  0  0  0  0  0  0  0  0  0
   -1.0259    2.8187    0.3782 C   0  0  0  0  0  0  0  0  0  0  0  0
   -2.1772    2.6746    1.1297 C   0  0  0  0  0  0  0  0  0  0  0  0
   -2.0284    3.1834    2.4517 C   0  0  0  0  0  0  0  0  0  0  0  0
   -0.7736    3.7093    2.6626 C   0  0  0  0  0  0  0  0  0  0  0  0
    0.2128    3.5960    1.2709 S   0  0  0  0  0  0  0  0  0  0  0  0
   -1.8781    0.2445   -1.3228 N   0  0  0  0  0  0  0  0  0  0  0  0
   -1.7673   -1.1014   -1.5669 C   0  0  0  0  0  0  0  0  0  0  0  0
   -1.5079   -1.9270   -0.6988 O   0  0  0  0  0  0  0  0  0  0  0  0
   -2.0392   -1.4404   -2.9509 C   0  0  0  0  0  0  0  0  0  0  0  0
   -2.0875   -2.6713   -3.5819 C   0  0  0  0  0  0  0  0  0  0  0  0
   -2.3911   -2.4252   -4.9425 C   0  0  0  0  0  0  0  0  0  0  0  0
   -2.5058   -1.0617   -5.0668 C   0  0  0  0  0  0  0  0  0  0  0  0
   -2.2969   -0.4548   -3.8710 O   0  0  0  0  0  0  0  0  0  0  0  0
    2.4761   -0.8227   -0.0925 C   0  0  0  0  0  0  0  0  0  0  0  0
    2.8737   -1.5659    1.1957 C   0  0  0  0  0  0  0  0  0  0  0  0
    2.3535   -2.3283    3.7700 H   0  0  0  0  0  0  0  0  0  0  0  0
    2.9224   -0.8006    4.4840 H   0  0  0  0  0  0  0  0  0  0  0  0
    4.0416   -1.8087    3.5792 H   0  0  0  0  0  0  0  0  0  0  0  0
    0.7569   -0.4999    3.3410 H   0  0  0  0  0  0  0  0  0  0  0  0
    1.4330    0.9222    2.5656 H   0  0  0  0  0  0  0  0  0  0  0  0
   -0.4806    0.2010    1.2613 H   0  0  0  0  0  0  0  0  0  0  0  0
    0.0744   -1.4638    1.2433 H   0  0  0  0  0  0  0  0  0  0  0  0
    0.1479    2.8244   -1.4371 H   0  0  0  0  0  0  0  0  0  0  0  0
   -1.5959    2.8028   -1.6729 H   0  0  0  0  0  0  0  0  0  0  0  0
   -3.0842    2.2170    0.7495 H   0  0  0  0  0  0  0  0  0  0  0  0
   -2.8037    3.1689    3.2080 H   0  0  0  0  0  0  0  0  0  0  0  0
   -0.3883    4.1629    3.5657 H   0  0  0  0  0  0  0  0  0  0  0  0
   -1.9228   -3.6283   -3.1042 H   0  0  0  0  0  0  0  0  0  0  0  0
   -2.5101   -3.1510   -5.7341 H   0  0  0  0  0  0  0  0  0  0  0  0
   -2.7188   -0.3994   -5.8950 H   0  0  0  0  0  0  0  0  0  0  0  0
    2.5302   -1.5063   -0.9482 H   0  0  0  0  0  0  0  0  0  0  0  0
    3.1761   -0.0005   -0.2870 H   0  0  0  0  0  0  0  0  0  0  0  0
    3.9300   -1.8491    1.1190 H   0  0  0  0  0  0  0  0  0  0  0  0
    2.2931   -2.4954    1.2706 H   0  0  0  0  0  0  0  0  0  0  0  0
  1  2  1  0
  2  3  1  0
  3  4  1  0
  4  5  1  0
  5  6  1  0
  6  7  2  0
  6  8  1  0
  8  9  1  0
  9 10  1  0
 10 11  2  0
 11 12  1  0
 12 13  2  0
 13 14  1  0
  8 15  2  3
 15 16  1  0
 16 17  2  0
 16 18  1  0
 18 19  2  0
 19 20  1  0
 20 21  2  0
 21 22  1  0
  5 23  1  0
 23 24  1  0
 24  2  1  0
 14 10  1  0
 22 18  1  0
  1 25  1  0
  1 26  1  0
  1 27  1  0
  3 28  1  0
  3 29  1  0
  4 30  1  0
  4 31  1  0
  9 32  1  0
  9 33  1  0
 11 34  1  0
 12 35  1  0
 13 36  1  0
 19 37  1  0
 20 38  1  0
 21 39  1  0
 23 40  1  0
 23 41  1  0
 24 42  1  0
 24 43  1  0
M  END
$$$$
