
     RDKit          3D

 44 47  0  0  0  0  0  0  0  0999 V2000
    3.4586   -0.9358    0.6408 C   0  0  0  0  0  0  0  0  0  0  0  0
    3.2075    0.5504    0.3360 C   0  0  0  0  0  0  0  0  0  0  0  0
    4.5503    1.1892   -0.0601 C   0  0  0  0  0  0  0  0  0  0  0  0
    2.2013    0.7689   -0.8080 C   0  0  0  0  0  0  0  0  0  0  0  0
    0.7557    0.4310   -0.3869 C   0  0  0  0  0  0  0  0  0  0  0  0
   -0.1869    0.9892   -1.4693 C   0  0  0  0  0  0  0  0  0  0  0  0
   -1.6390    0.5185   -1.3288 C   0  0  0  0  0  0  0  0  0  0  0  0
   -2.4622    1.3821   -0.3858 C   0  0  0  0  0  0  0  0  0  0  0  0
   -2.9508    1.1065    0.8810 C   0  0  0  0  0  0  0  0  0  0  0  0
   -3.6812    2.1947    1.4390 C   0  0  0  0  0  0  0  0  0  0  0  0
   -3.7523    3.2635    0.5768 C   0  0  0  0  0  0  0  0  0  0  0  0
   -2.9495    2.9529   -0.8971 S   0  0  0  0  0  0  0  0  0  0  0  0
   -1.6713   -0.9516   -0.9857 C   0  0  0  0  0  0  0  0  0  0  0  0
   -2.8538   -1.6931   -1.1760 C   0  0  0  0  0  0  0  0  0  0  0  0
   -2.8928   -3.0510   -0.8630 C   0  0  0  0  0  0  0  0  0  0  0  0
   -4.3514   -3.9373   -1.0991 Cl  0  0  0  0  0  0  0  0  0  0  0  0
   -1.7539   -3.6802   -0.3643 C   0  0  0  0  0  0  0  0  0  0  0  0
   -1.7377   -5.0098   -0.0450 O   0  0  0  0  0  0  0  0  0  0  0  0
   -0.5800   -2.9596   -0.1768 C   0  0  0  0  0  0  0  0  0  0  0  0
   -0.5392   -1.5968   -0.4825 C   0  0  0  0  0  0  0  0  0  0  0  0
    0.6657   -0.9931   -0.2842 O   0  0  0  0  0  0  0  0  0  0  0  0
    0.4846    1.0000    0.9190 N   0  0  0  0  0  0  0  0  0  0  0  0
    1.4012    1.2670    1.8729 C   0  0  0  0  0  0  0  0  0  0  0  0
    0.9323    1.6960    3.4064 S   0  0  0  0  0  0  0  0  0  0  0  0
    2.7093    1.2143    1.5339 N   0  0  0  0  0  0  0  0  0  0  0  0
    2.5960   -1.4203    1.1076 H   0  0  0  0  0  0  0  0  0  0  0  0
    4.2870   -1.0520    1.3503 H   0  0  0  0  0  0  0  0  0  0  0  0
    3.7185   -1.4896   -0.2677 H   0  0  0  0  0  0  0  0  0  0  0  0
    5.2933    1.0814    0.7388 H   0  0  0  0  0  0  0  0  0  0  0  0
    4.9579    0.7267   -0.9659 H   0  0  0  0  0  0  0  0  0  0  0  0
    4.4385    2.2633   -0.2489 H   0  0  0  0  0  0  0  0  0  0  0  0
    2.2408    1.8263   -1.1075 H   0  0  0  0  0  0  0  0  0  0  0  0
    2.4957    0.1738   -1.6823 H   0  0  0  0  0  0  0  0  0  0  0  0
    0.1707    0.6225   -2.4436 H   0  0  0  0  0  0  0  0  0  0  0  0
   -0.1239    2.0837   -1.5102 H   0  0  0  0  0  0  0  0  0  0  0  0
   -2.0936    0.6155   -2.3269 H   0  0  0  0  0  0  0  0  0  0  0  0
   -2.7885    0.1687    1.4010 H   0  0  0  0  0  0  0  0  0  0  0  0
   -4.1333    2.1917    2.4236 H   0  0  0  0  0  0  0  0  0  0  0  0
   -4.2428    4.2134    0.7402 H   0  0  0  0  0  0  0  0  0  0  0  0
   -3.7447   -1.2036   -1.5651 H   0  0  0  0  0  0  0  0  0  0  0  0
   -2.6291   -5.3625   -0.2256 H   0  0  0  0  0  0  0  0  0  0  0  0
    0.3047   -3.4585    0.2101 H   0  0  0  0  0  0  0  0  0  0  0  0
   -0.4606    0.9517    1.2696 H   0  0  0  0  0  0  0  0  0  0  0  0
    3.3490    1.3520    2.3093 H   0  0  0  0  0  0  0  0  0  0  0  0
  1  2  1  0
  2  3  1  0
  2  4  1  0
  4  5  1  0
  5  6  1  0
  6  7  1  0
  7  8  1  0
  8  9  2  0
  9 10  1  0
 10 11  2  0
 11 12  1  0
  7 13  1  0
 13 14  2  0
 14 15  1  0
 15 16  1  0
 15 17  2  0
 17 18  1  0
 17 19  1  0
 19 20  2  0
 20 21  1  0
  5 22  1  0
 22 23  1  0
 23 24  2  0
 23 25  1  0
 25  2  1  0
 21  5  1  0
 12  8  1  0
 20 13  1  0
  1 26  1  0
  1 27  1  0
  1 28  1  0
  3 29  1  0
  3 30  1  0
  3 31  1  0
  4 32  1  0
  4 33  1  0
  6 34  1  0
  6 35  1  0
  7 36  1  0
  9 37  1  0
 10 38  1  0
 11 39  1  0
 14 40  1  0
 18 41  1  0
 19 42  1  0
 22 43  1  0
 25 44  1  0
M  END
$$$$
