
     RDKit          3D

 29 31  0  0  0  0  0  0  0  0999 V2000
   -0.1636   -0.9965    1.0360 O   0  0  0  0  0  0  0  0  0  0  0  0
    0.1167   -0.2386    0.1135 C   0  0  0  0  0  0  0  0  0  0  0  0
   -0.7622    0.6342   -0.5197 N   0  0  0  0  0  0  0  0  0  0  0  0
   -2.0639    0.8520   -0.1378 N   0  0  0  0  0  0  0  0  0  0  0  0
   -2.7504   -0.1517    0.3171 C   0  0  0  0  0  0  0  0  0  0  0  0
   -4.1093    0.0460    0.7648 C   0  0  0  0  0  0  0  0  0  0  0  0
   -4.8439    1.2137    0.8276 C   0  0  0  0  0  0  0  0  0  0  0  0
   -6.1604    0.9989    1.3299 C   0  0  0  0  0  0  0  0  0  0  0  0
   -6.3849   -0.3255    1.6329 C   0  0  0  0  0  0  0  0  0  0  0  0
   -5.0146   -1.2982    1.3118 S   0  0  0  0  0  0  0  0  0  0  0  0
    1.5226   -0.1850   -0.3780 C   0  0  0  0  0  0  0  0  0  0  0  0
    1.8248    0.1236   -1.7246 C   0  0  0  0  0  0  0  0  0  0  0  0
    3.1532    0.1638   -2.1626 C   0  0  0  0  0  0  0  0  0  0  0  0
    4.1412   -0.1143   -1.2424 C   0  0  0  0  0  0  0  0  0  0  0  0
    3.8489   -0.4288    0.0642 C   0  0  0  0  0  0  0  0  0  0  0  0
    2.5522   -0.4784    0.5283 C   0  0  0  0  0  0  0  0  0  0  0  0
    4.9660   -0.6737    0.7996 O   0  0  0  0  0  0  0  0  0  0  0  0
    5.9950   -0.4851   -0.1939 C   0  0  0  0  0  0  0  0  0  0  0  0
    5.4774   -0.1235   -1.4919 O   0  0  0  0  0  0  0  0  0  0  0  0
   -0.3627    1.4235   -1.0189 H   0  0  0  0  0  0  0  0  0  0  0  0
   -2.3544   -1.1814    0.3467 H   0  0  0  0  0  0  0  0  0  0  0  0
   -4.4499    2.1779    0.5277 H   0  0  0  0  0  0  0  0  0  0  0  0
   -6.9026    1.7764    1.4631 H   0  0  0  0  0  0  0  0  0  0  0  0
   -7.2870   -0.7713    2.0289 H   0  0  0  0  0  0  0  0  0  0  0  0
    1.0335    0.3061   -2.4480 H   0  0  0  0  0  0  0  0  0  0  0  0
    3.4014    0.3945   -3.1930 H   0  0  0  0  0  0  0  0  0  0  0  0
    2.3413   -0.7344    1.5620 H   0  0  0  0  0  0  0  0  0  0  0  0
    6.6708    0.3076    0.1471 H   0  0  0  0  0  0  0  0  0  0  0  0
    6.5649   -1.4164   -0.2905 H   0  0  0  0  0  0  0  0  0  0  0  0
  1  2  2  0
  2  3  1  0
  3  4  1  0
  4  5  2  3
  5  6  1  0
  6  7  2  0
  7  8  1  0
  8  9  2  0
  9 10  1  0
  2 11  1  0
 11 12  2  0
 12 13  1  0
 13 14  2  0
 14 15  1  0
 15 16  2  0
 15 17  1  0
 17 18  1  0
 18 19  1  0
 10  6  1  0
 16 11  1  0
 19 14  1  0
  3 20  1  0
  5 21  1  0
  7 22  1  0
  8 23  1  0
  9 24  1  0
 12 25  1  0
 13 26  1  0
 16 27  1  0
 18 28  1  0
 18 29  1  0
M  END
$$$$
