
     RDKit          3D

 45 47  0  0  0  0  0  0  0  0999 V2000
    5.5702    2.8991    3.9030 C   0  0  0  0  0  0  0  0  0  0  0  0
    4.7395    2.3529    2.7784 C   0  0  0  0  0  0  0  0  0  0  0  0
    4.5167    3.1102    1.6208 C   0  0  0  0  0  0  0  0  0  0  0  0
    3.7733    2.5865    0.5580 C   0  0  0  0  0  0  0  0  0  0  0  0
    3.2550    1.2895    0.6381 C   0  0  0  0  0  0  0  0  0  0  0  0
    2.4733    0.6881   -0.4803 C   0  0  0  0  0  0  0  0  0  0  0  0
    1.5917   -0.2302   -0.2203 N   0  0  0  0  0  0  0  0  0  0  0  0
    0.8997   -0.7882   -1.2717 N   0  0  0  0  0  0  0  0  0  0  0  0
   -0.3064   -1.5328   -0.9386 C   0  0  0  0  0  0  0  0  0  0  0  0
   -1.5577   -0.6897   -1.1926 C   0  0  0  0  0  0  0  0  0  0  0  0
   -1.5641    0.4007   -1.7606 O   0  0  0  0  0  0  0  0  0  0  0  0
   -2.7184   -1.2926   -0.7547 N   0  0  0  0  0  0  0  0  0  0  0  0
   -3.9920   -0.6144   -0.8792 C   0  0  0  0  0  0  0  0  0  0  0  0
   -5.1171   -1.4286   -0.2800 C   0  0  0  0  0  0  0  0  0  0  0  0
   -6.4086   -1.3151   -0.7881 C   0  0  0  0  0  0  0  0  0  0  0  0
   -7.4350   -2.0254   -0.1722 C   0  0  0  0  0  0  0  0  0  0  0  0
   -7.1484   -2.8190    0.9338 C   0  0  0  0  0  0  0  0  0  0  0  0
   -5.8393   -2.8825    1.3740 C   0  0  0  0  0  0  0  0  0  0  0  0
   -4.8216   -2.2065    0.7977 N   0  0  0  0  0  0  0  0  0  0  0  0
    1.3182   -0.7389   -2.5976 C   0  0  0  0  0  0  0  0  0  0  0  0
    0.7516   -1.3246   -3.5209 O   0  0  0  0  0  0  0  0  0  0  0  0
    2.6003    0.0133   -2.8303 C   0  0  0  0  0  0  0  0  0  0  0  0
    2.7044    1.1863   -1.8858 C   0  0  0  0  0  0  0  0  0  0  0  0
    3.4737    0.5305    1.7947 C   0  0  0  0  0  0  0  0  0  0  0  0
    4.2189    1.0562    2.8542 C   0  0  0  0  0  0  0  0  0  0  0  0
    5.5772    3.9925    3.8951 H   0  0  0  0  0  0  0  0  0  0  0  0
    6.6002    2.5376    3.8160 H   0  0  0  0  0  0  0  0  0  0  0  0
    5.1654    2.5836    4.8679 H   0  0  0  0  0  0  0  0  0  0  0  0
    4.9180    4.1178    1.5437 H   0  0  0  0  0  0  0  0  0  0  0  0
    3.5995    3.2135   -0.3121 H   0  0  0  0  0  0  0  0  0  0  0  0
   -0.2713   -1.8303    0.1165 H   0  0  0  0  0  0  0  0  0  0  0  0
   -0.3656   -2.4367   -1.5597 H   0  0  0  0  0  0  0  0  0  0  0  0
   -2.6837   -2.0285   -0.0570 H   0  0  0  0  0  0  0  0  0  0  0  0
   -3.9288    0.3489   -0.3583 H   0  0  0  0  0  0  0  0  0  0  0  0
   -4.1669   -0.4259   -1.9451 H   0  0  0  0  0  0  0  0  0  0  0  0
   -6.6204   -0.6920   -1.6570 H   0  0  0  0  0  0  0  0  0  0  0  0
   -8.4526   -1.9622   -0.5541 H   0  0  0  0  0  0  0  0  0  0  0  0
   -7.9291   -3.3818    1.4366 H   0  0  0  0  0  0  0  0  0  0  0  0
   -5.5681   -3.4975    2.2266 H   0  0  0  0  0  0  0  0  0  0  0  0
    3.4323   -0.6853   -2.6855 H   0  0  0  0  0  0  0  0  0  0  0  0
    2.6229    0.3686   -3.8658 H   0  0  0  0  0  0  0  0  0  0  0  0
    3.6906    1.6469   -1.9956 H   0  0  0  0  0  0  0  0  0  0  0  0
    1.9391    1.9381   -2.1046 H   0  0  0  0  0  0  0  0  0  0  0  0
    3.0733   -0.4785    1.8742 H   0  0  0  0  0  0  0  0  0  0  0  0
    4.3901    0.4465    3.7408 H   0  0  0  0  0  0  0  0  0  0  0  0
  1  2  1  0
  2  3  2  0
  3  4  1  0
  4  5  2  0
  5  6  1  0
  6  7  2  0
  7  8  1  0
  8  9  1  0
  9 10  1  0
 10 11  2  0
 10 12  1  0
 12 13  1  0
 13 14  1  0
 14 15  2  0
 15 16  1  0
 16 17  2  0
 17 18  1  0
 18 19  2  0
  8 20  1  0
 20 21  2  0
 20 22  1  0
 22 23  1  0
  5 24  1  0
 24 25  2  0
 25  2  1  0
 23  6  1  0
 19 14  1  0
  1 26  1  0
  1 27  1  0
  1 28  1  0
  3 29  1  0
  4 30  1  0
  9 31  1  0
  9 32  1  0
 12 33  1  0
 13 34  1  0
 13 35  1  0
 15 36  1  0
 16 37  1  0
 17 38  1  0
 18 39  1  0
 22 40  1  0
 22 41  1  0
 23 42  1  0
 23 43  1  0
 24 44  1  0
 25 45  1  0
M  END
$$$$
