
     RDKit          3D

 59 62  0  0  0  0  0  0  0  0999 V2000
    6.8162    3.3451   -4.0114 C   0  0  0  0  0  0  0  0  0  0  0  0
    6.4815    1.9855   -3.4735 C   0  0  0  0  0  0  0  0  0  0  0  0
    5.8444    1.8506   -2.2353 C   0  0  0  0  0  0  0  0  0  0  0  0
    5.5614    0.5841   -1.7194 C   0  0  0  0  0  0  0  0  0  0  0  0
    5.9247   -0.5710   -2.4248 C   0  0  0  0  0  0  0  0  0  0  0  0
    5.5887   -1.9326   -1.8738 C   0  0  0  0  0  0  0  0  0  0  0  0
    4.2238   -2.2870   -2.1934 N   0  0  0  0  0  0  0  0  0  0  0  0
    3.2011   -2.1030   -1.2887 C   0  0  0  0  0  0  0  0  0  0  0  0
    3.3763   -1.7558   -0.1276 O   0  0  0  0  0  0  0  0  0  0  0  0
    1.8364   -2.3849   -1.8857 C   0  0  0  0  0  0  0  0  0  0  0  0
    0.6724   -2.1203   -0.9330 C   0  0  0  0  0  0  0  0  0  0  0  0
    0.5101   -0.6369   -0.5901 C   0  0  0  0  0  0  0  0  0  0  0  0
   -0.8216   -0.3569   -0.0594 N   0  0  0  0  0  0  0  0  0  0  0  0
   -1.7843    0.0017   -1.0119 N   0  0  0  0  0  0  0  0  0  0  0  0
   -3.0162    0.2472   -0.6633 C   0  0  0  0  0  0  0  0  0  0  0  0
   -3.9931    0.6437   -1.7334 C   0  0  0  0  0  0  0  0  0  0  0  0
   -3.3995    0.1256    0.7216 C   0  0  0  0  0  0  0  0  0  0  0  0
   -4.5977    0.2477    1.4064 C   0  0  0  0  0  0  0  0  0  0  0  0
   -5.9778    0.4287    0.8871 C   0  0  0  0  0  0  0  0  0  0  0  0
   -4.2678    0.0977    2.7596 N   0  0  0  0  0  0  0  0  0  0  0  0
   -5.0430    0.3275    3.9393 C   0  0  0  0  0  0  0  0  0  0  0  0
   -6.2019    1.1130    3.9363 C   0  0  0  0  0  0  0  0  0  0  0  0
   -6.9227    1.3137    5.1191 C   0  0  0  0  0  0  0  0  0  0  0  0
   -6.4878    0.7455    6.3143 C   0  0  0  0  0  0  0  0  0  0  0  0
   -5.3225   -0.0146    6.3354 C   0  0  0  0  0  0  0  0  0  0  0  0
   -4.5991   -0.2168    5.1577 C   0  0  0  0  0  0  0  0  0  0  0  0
   -2.9866   -0.3370    2.8999 N   0  0  0  0  0  0  0  0  0  0  0  0
   -2.4521   -0.2483    1.6801 C   0  0  0  0  0  0  0  0  0  0  0  0
   -1.0684   -0.5324    1.3190 C   0  0  0  0  0  0  0  0  0  0  0  0
   -0.2158   -0.8899    2.1280 O   0  0  0  0  0  0  0  0  0  0  0  0
    6.5688   -0.4343   -3.6613 C   0  0  0  0  0  0  0  0  0  0  0  0
    6.8522    0.8334   -4.1764 C   0  0  0  0  0  0  0  0  0  0  0  0
    6.7951    3.3472   -5.1064 H   0  0  0  0  0  0  0  0  0  0  0  0
    7.8135    3.6456   -3.6755 H   0  0  0  0  0  0  0  0  0  0  0  0
    6.0891    4.0900   -3.6716 H   0  0  0  0  0  0  0  0  0  0  0  0
    5.5607    2.7307   -1.6625 H   0  0  0  0  0  0  0  0  0  0  0  0
    5.0531    0.4992   -0.7593 H   0  0  0  0  0  0  0  0  0  0  0  0
    5.7566   -1.9586   -0.7912 H   0  0  0  0  0  0  0  0  0  0  0  0
    6.2354   -2.6957   -2.3209 H   0  0  0  0  0  0  0  0  0  0  0  0
    3.9929   -2.3948   -3.1712 H   0  0  0  0  0  0  0  0  0  0  0  0
    1.7181   -1.7826   -2.7943 H   0  0  0  0  0  0  0  0  0  0  0  0
    1.8181   -3.4413   -2.1800 H   0  0  0  0  0  0  0  0  0  0  0  0
   -0.2444   -2.4861   -1.4129 H   0  0  0  0  0  0  0  0  0  0  0  0
    0.7916   -2.7006   -0.0100 H   0  0  0  0  0  0  0  0  0  0  0  0
    1.2558   -0.3271    0.1492 H   0  0  0  0  0  0  0  0  0  0  0  0
    0.6528   -0.0128   -1.4803 H   0  0  0  0  0  0  0  0  0  0  0  0
   -3.4640    0.8851   -2.6602 H   0  0  0  0  0  0  0  0  0  0  0  0
   -4.5626    1.5226   -1.4205 H   0  0  0  0  0  0  0  0  0  0  0  0
   -4.6747   -0.1880   -1.9308 H   0  0  0  0  0  0  0  0  0  0  0  0
   -6.2220    1.4911    0.7949 H   0  0  0  0  0  0  0  0  0  0  0  0
   -6.7215   -0.0663    1.5184 H   0  0  0  0  0  0  0  0  0  0  0  0
   -6.0871   -0.0269   -0.1009 H   0  0  0  0  0  0  0  0  0  0  0  0
   -6.5539    1.6269    3.0505 H   0  0  0  0  0  0  0  0  0  0  0  0
   -7.8193    1.9291    5.1099 H   0  0  0  0  0  0  0  0  0  0  0  0
   -7.0484    0.9065    7.2315 H   0  0  0  0  0  0  0  0  0  0  0  0
   -4.9701   -0.4501    7.2672 H   0  0  0  0  0  0  0  0  0  0  0  0
   -3.6896   -0.8150    5.2050 H   0  0  0  0  0  0  0  0  0  0  0  0
    6.8602   -1.3136   -4.2309 H   0  0  0  0  0  0  0  0  0  0  0  0
    7.3644    0.9167   -5.1324 H   0  0  0  0  0  0  0  0  0  0  0  0
  1  2  1  0
  2  3  2  0
  3  4  1  0
  4  5  2  0
  5  6  1  0
  6  7  1  0
  7  8  1  0
  8  9  2  0
  8 10  1  0
 10 11  1  0
 11 12  1  0
 12 13  1  0
 13 14  1  0
 14 15  2  0
 15 16  1  0
 15 17  1  0
 17 18  2  0
 18 19  1  0
 18 20  1  0
 20 21  1  0
 21 22  2  0
 22 23  1  0
 23 24  2  0
 24 25  1  0
 25 26  2  0
 20 27  1  0
 27 28  2  0
 28 29  1  0
 29 30  2  0
  5 31  1  0
 31 32  2  0
 32  2  1  0
 29 13  1  0
 28 17  1  0
 26 21  1  0
  1 33  1  0
  1 34  1  0
  1 35  1  0
  3 36  1  0
  4 37  1  0
  6 38  1  0
  6 39  1  0
  7 40  1  0
 10 41  1  0
 10 42  1  0
 11 43  1  0
 11 44  1  0
 12 45  1  0
 12 46  1  0
 16 47  1  0
 16 48  1  0
 16 49  1  0
 19 50  1  0
 19 51  1  0
 19 52  1  0
 22 53  1  0
 23 54  1  0
 24 55  1  0
 25 56  1  0
 26 57  1  0
 31 58  1  0
 32 59  1  0
M  END
$$$$
