
     RDKit          3D

 42 43  0  0  0  0  0  0  0  0999 V2000
   -1.9543    3.7271    0.7072 C   0  0  0  0  0  0  0  0  0  0  0  0
   -0.7271    2.9109    0.4159 C   0  0  0  0  0  0  0  0  0  0  0  0
    0.5100    3.3728    0.9072 C   0  0  0  0  0  0  0  0  0  0  0  0
    1.6955    2.6718    0.6692 C   0  0  0  0  0  0  0  0  0  0  0  0
    1.6578    1.4954   -0.0754 C   0  0  0  0  0  0  0  0  0  0  0  0
    3.1459    0.5675   -0.3650 S   0  0  0  0  0  6  0  0  0  0  0  0
    3.3174    0.4823   -1.8023 O   0  0  0  0  0  0  0  0  0  0  0  0
    4.1870    1.1380    0.4715 O   0  0  0  0  0  0  0  0  0  0  0  0
    2.8443   -1.0762    0.2542 C   0  0  0  0  0  0  0  0  0  0  0  0
    2.4049   -2.0770   -0.6182 C   0  0  0  0  0  0  0  0  0  0  0  0
    2.1583   -3.3593   -0.1239 C   0  0  0  0  0  0  0  0  0  0  0  0
    2.3666   -3.6348    1.2281 C   0  0  0  0  0  0  0  0  0  0  0  0
    2.0543   -5.2140    1.8352 Cl  0  0  0  0  0  0  0  0  0  0  0  0
    2.8247   -2.6396    2.0935 C   0  0  0  0  0  0  0  0  0  0  0  0
    3.0685   -1.3532    1.6071 C   0  0  0  0  0  0  0  0  0  0  0  0
    0.4501    1.0177   -0.5814 C   0  0  0  0  0  0  0  0  0  0  0  0
   -0.7434    1.7116   -0.3193 C   0  0  0  0  0  0  0  0  0  0  0  0
   -2.2272    0.9543   -0.9650 S   0  0  0  0  0  6  0  0  0  0  0  0
   -2.0493    0.8341   -2.3952 O   0  0  0  0  0  0  0  0  0  0  0  0
   -3.4053    1.5792   -0.4065 O   0  0  0  0  0  0  0  0  0  0  0  0
   -2.1401   -0.6059   -0.2745 N   0  0  0  0  0  0  0  0  0  0  0  0
   -2.4549   -0.6906    1.1627 C   0  0  0  0  0  0  0  0  0  0  0  0
   -2.8058   -1.6586   -1.0875 C   0  0  0  0  0  0  0  0  0  0  0  0
   -1.9102   -2.1039   -2.2283 C   0  0  0  0  0  0  0  0  0  0  0  0
   -0.6886   -2.0635   -2.2657 O   0  0  0  0  0  0  0  0  0  0  0  0
   -2.6051   -2.6439   -3.2517 O   0  0  0  0  0  0  0  0  0  0  0  0
   -2.4886    3.9650   -0.2176 H   0  0  0  0  0  0  0  0  0  0  0  0
   -2.6097    3.1965    1.4042 H   0  0  0  0  0  0  0  0  0  0  0  0
   -1.6956    4.6849    1.1724 H   0  0  0  0  0  0  0  0  0  0  0  0
    0.5604    4.2967    1.4833 H   0  0  0  0  0  0  0  0  0  0  0  0
    2.6350    3.0568    1.0616 H   0  0  0  0  0  0  0  0  0  0  0  0
    2.2383   -1.8699   -1.6744 H   0  0  0  0  0  0  0  0  0  0  0  0
    1.8034   -4.1345   -0.7985 H   0  0  0  0  0  0  0  0  0  0  0  0
    2.9968   -2.8611    3.1441 H   0  0  0  0  0  0  0  0  0  0  0  0
    3.4338   -0.5825    2.2825 H   0  0  0  0  0  0  0  0  0  0  0  0
    0.4260    0.1096   -1.1824 H   0  0  0  0  0  0  0  0  0  0  0  0
   -3.5340   -0.6253    1.3310 H   0  0  0  0  0  0  0  0  0  0  0  0
   -1.9520    0.1008    1.7249 H   0  0  0  0  0  0  0  0  0  0  0  0
   -2.0942   -1.6447    1.5600 H   0  0  0  0  0  0  0  0  0  0  0  0
   -3.7586   -1.2842   -1.4777 H   0  0  0  0  0  0  0  0  0  0  0  0
   -3.0136   -2.5437   -0.4760 H   0  0  0  0  0  0  0  0  0  0  0  0
   -1.9212   -2.8326   -3.9292 H   0  0  0  0  0  0  0  0  0  0  0  0
  1  2  1  0
  2  3  2  0
  3  4  1  0
  4  5  2  0
  5  6  1  0
  6  7  2  0
  6  8  2  0
  6  9  1  0
  9 10  2  0
 10 11  1  0
 11 12  2  0
 12 13  1  0
 12 14  1  0
 14 15  2  0
  5 16  1  0
 16 17  2  0
 17 18  1  0
 18 19  2  0
 18 20  2  0
 18 21  1  0
 21 22  1  0
 21 23  1  0
 23 24  1  0
 24 25  2  0
 24 26  1  0
 17  2  1  0
 15  9  1  0
  1 27  1  0
  1 28  1  0
  1 29  1  0
  3 30  1  0
  4 31  1  0
 10 32  1  0
 11 33  1  0
 14 34  1  0
 15 35  1  0
 16 36  1  0
 22 37  1  0
 22 38  1  0
 22 39  1  0
 23 40  1  0
 23 41  1  0
 26 42  1  0
M  END
$$$$
