
     RDKit          3D

 41 42  0  0  0  0  0  0  0  0999 V2000
   -0.6505    1.2540    1.8913 O   0  0  0  0  0  0  0  0  0  0  0  0
   -0.7630    1.5704    0.4953 C   0  0  0  0  0  0  0  0  0  0  0  0
    0.0993    0.5983   -0.3089 C   0  0  0  0  0  0  0  0  0  0  0  0
    1.4634    0.7912    0.0978 O   0  0  0  0  0  0  0  0  0  0  0  0
    2.3463   -0.0892   -0.5977 C   0  0  0  0  0  0  0  0  0  0  0  0
    3.7621    0.1566   -0.1390 C   0  0  0  0  0  0  0  0  0  0  0  0
    4.2675    1.4627   -0.0434 C   0  0  0  0  0  0  0  0  0  0  0  0
    5.5877    1.6885    0.3531 C   0  0  0  0  0  0  0  0  0  0  0  0
    6.4144    0.6077    0.6489 C   0  0  0  0  0  0  0  0  0  0  0  0
    8.0416    0.8831    1.1357 Cl  0  0  0  0  0  0  0  0  0  0  0  0
    5.9327   -0.6957    0.5499 C   0  0  0  0  0  0  0  0  0  0  0  0
    4.6117   -0.9208    0.1535 C   0  0  0  0  0  0  0  0  0  0  0  0
   -2.2456    1.6528    0.0573 C   0  0  0  0  0  0  0  0  0  0  0  0
   -3.1107    0.4623    0.0082 N   0  0  0  0  0  0  0  0  0  0  0  0
   -2.9713   -0.3481   -1.1993 C   0  0  0  0  0  0  0  0  0  0  0  0
   -4.0793   -1.4011   -1.2781 C   0  0  0  0  0  0  0  0  0  0  0  0
   -4.1149   -2.2648   -0.0219 C   0  0  0  0  0  0  0  0  0  0  0  0
   -4.1933   -1.3892    1.2241 C   0  0  0  0  0  0  0  0  0  0  0  0
   -3.0839   -0.3349    1.2365 C   0  0  0  0  0  0  0  0  0  0  0  0
    0.3084    1.1580    2.0539 H   0  0  0  0  0  0  0  0  0  0  0  0
   -0.3360    2.5765    0.3949 H   0  0  0  0  0  0  0  0  0  0  0  0
   -0.1704   -0.4375   -0.0819 H   0  0  0  0  0  0  0  0  0  0  0  0
    0.0073    0.7916   -1.3828 H   0  0  0  0  0  0  0  0  0  0  0  0
    2.0527   -1.1249   -0.3906 H   0  0  0  0  0  0  0  0  0  0  0  0
    2.2834    0.0906   -1.6773 H   0  0  0  0  0  0  0  0  0  0  0  0
    3.6264    2.3124   -0.2713 H   0  0  0  0  0  0  0  0  0  0  0  0
    5.9611    2.7059    0.4291 H   0  0  0  0  0  0  0  0  0  0  0  0
    6.5785   -1.5391    0.7788 H   0  0  0  0  0  0  0  0  0  0  0  0
    4.2509   -1.9445    0.0788 H   0  0  0  0  0  0  0  0  0  0  0  0
   -2.7381    2.3511    0.7479 H   0  0  0  0  0  0  0  0  0  0  0  0
   -2.2846    2.1491   -0.9213 H   0  0  0  0  0  0  0  0  0  0  0  0
   -2.0013   -0.8525   -1.2389 H   0  0  0  0  0  0  0  0  0  0  0  0
   -3.0443    0.2861   -2.0908 H   0  0  0  0  0  0  0  0  0  0  0  0
   -5.0495   -0.9048   -1.4078 H   0  0  0  0  0  0  0  0  0  0  0  0
   -3.9250   -2.0353   -2.1584 H   0  0  0  0  0  0  0  0  0  0  0  0
   -4.9728   -2.9451   -0.0577 H   0  0  0  0  0  0  0  0  0  0  0  0
   -3.2116   -2.8855    0.0222 H   0  0  0  0  0  0  0  0  0  0  0  0
   -4.1190   -2.0148    2.1208 H   0  0  0  0  0  0  0  0  0  0  0  0
   -5.1716   -0.8932    1.2604 H   0  0  0  0  0  0  0  0  0  0  0  0
   -3.2411    0.3095    2.1097 H   0  0  0  0  0  0  0  0  0  0  0  0
   -2.1175   -0.8374    1.3608 H   0  0  0  0  0  0  0  0  0  0  0  0
  1  2  1  0
  2  3  1  0
  3  4  1  0
  4  5  1  0
  5  6  1  0
  6  7  2  0
  7  8  1  0
  8  9  2  0
  9 10  1  0
  9 11  1  0
 11 12  2  0
  2 13  1  0
 13 14  1  0
 14 15  1  0
 15 16  1  0
 16 17  1  0
 17 18  1  0
 18 19  1  0
 12  6  1  0
 19 14  1  0
  1 20  1  0
  2 21  1  0
  3 22  1  0
  3 23  1  0
  5 24  1  0
  5 25  1  0
  7 26  1  0
  8 27  1  0
 11 28  1  0
 12 29  1  0
 13 30  1  0
 13 31  1  0
 15 32  1  0
 15 33  1  0
 16 34  1  0
 16 35  1  0
 17 36  1  0
 17 37  1  0
 18 38  1  0
 18 39  1  0
 19 40  1  0
 19 41  1  0
M  END
$$$$
