
     RDKit          3D

 52 54  0  0  0  0  0  0  0  0999 V2000
    7.0693    3.2664    2.6433 C   0  0  0  0  0  0  0  0  0  0  0  0
    6.8838    1.7587    2.5760 C   0  0  0  0  0  0  0  0  0  0  0  0
    5.4973    1.4297    2.4340 O   0  0  0  0  0  0  0  0  0  0  0  0
    5.0209    1.3451    1.1596 C   0  0  0  0  0  0  0  0  0  0  0  0
    5.6986    1.5560    0.1593 O   0  0  0  0  0  0  0  0  0  0  0  0
    3.6851    0.9832    1.1140 N   0  0  0  0  0  0  0  0  0  0  0  0
    3.0602    0.8162   -0.1949 C   0  0  0  0  0  0  0  0  0  0  0  0
    1.5748    0.4928   -0.1126 C   0  0  0  0  0  0  0  0  0  0  0  0
    1.3193   -0.6802    0.8400 C   0  0  0  0  0  0  0  0  0  0  0  0
   -0.1097   -0.8205    1.0998 N   0  0  0  0  0  0  0  0  0  0  0  0
   -0.9351   -1.5298    0.2407 C   0  0  0  0  0  0  0  0  0  0  0  0
   -0.5217   -2.1555   -0.7367 O   0  0  0  0  0  0  0  0  0  0  0  0
   -2.4216   -1.4499    0.6077 C   0  0  0  0  0  0  0  0  0  0  0  0
   -3.1827   -0.8231   -0.4718 N   0  0  0  0  0  0  0  0  0  0  0  0
   -3.0215    0.5525   -0.6214 C   0  0  0  0  0  0  0  0  0  0  0  0
   -2.3588    1.2322    0.1697 O   0  0  0  0  0  0  0  0  0  0  0  0
   -3.6249    1.1868   -1.8522 C   0  0  0  0  0  0  0  0  0  0  0  0
   -5.0741    1.5866   -1.6557 C   0  0  0  0  0  0  0  0  0  0  0  0
   -6.1348    0.3281   -0.8692 S   0  0  0  0  0  0  0  0  0  0  0  0
   -5.4209   -1.1771   -1.5167 C   0  0  0  0  0  0  0  0  0  0  0  0
   -6.2935   -2.0177   -2.2300 C   0  0  0  0  0  0  0  0  0  0  0  0
   -5.8826   -3.2802   -2.6581 C   0  0  0  0  0  0  0  0  0  0  0  0
   -4.6018   -3.7241   -2.3551 C   0  0  0  0  0  0  0  0  0  0  0  0
   -3.7288   -2.9060   -1.6289 C   0  0  0  0  0  0  0  0  0  0  0  0
   -4.1142   -1.6196   -1.2108 C   0  0  0  0  0  0  0  0  0  0  0  0
    2.0936   -0.5644    2.1647 C   0  0  0  0  0  0  0  0  0  0  0  0
    2.8658    0.7401    2.2964 C   0  0  0  0  0  0  0  0  0  0  0  0
    8.1240    3.5156    2.7735 H   0  0  0  0  0  0  0  0  0  0  0  0
    6.6988    3.7674    1.7394 H   0  0  0  0  0  0  0  0  0  0  0  0
    6.5093    3.6762    3.4891 H   0  0  0  0  0  0  0  0  0  0  0  0
    7.4882    1.3092    1.7833 H   0  0  0  0  0  0  0  0  0  0  0  0
    7.2210    1.3138    3.5247 H   0  0  0  0  0  0  0  0  0  0  0  0
    3.5931    0.0084   -0.7126 H   0  0  0  0  0  0  0  0  0  0  0  0
    3.2154    1.7319   -0.7760 H   0  0  0  0  0  0  0  0  0  0  0  0
    1.0244    1.3783    0.2277 H   0  0  0  0  0  0  0  0  0  0  0  0
    1.1886    0.2604   -1.1114 H   0  0  0  0  0  0  0  0  0  0  0  0
    1.6510   -1.6035    0.3430 H   0  0  0  0  0  0  0  0  0  0  0  0
   -0.5568   -0.0905    1.6297 H   0  0  0  0  0  0  0  0  0  0  0  0
   -2.5586   -0.8614    1.5214 H   0  0  0  0  0  0  0  0  0  0  0  0
   -2.7819   -2.4593    0.8304 H   0  0  0  0  0  0  0  0  0  0  0  0
   -3.0314    2.0773   -2.0987 H   0  0  0  0  0  0  0  0  0  0  0  0
   -3.5081    0.5187   -2.7160 H   0  0  0  0  0  0  0  0  0  0  0  0
   -5.5189    1.8470   -2.6317 H   0  0  0  0  0  0  0  0  0  0  0  0
   -5.1257    2.4947   -1.0305 H   0  0  0  0  0  0  0  0  0  0  0  0
   -7.3124   -1.7018   -2.4411 H   0  0  0  0  0  0  0  0  0  0  0  0
   -6.5696   -3.9249   -3.2076 H   0  0  0  0  0  0  0  0  0  0  0  0
   -4.2746   -4.7074   -2.6781 H   0  0  0  0  0  0  0  0  0  0  0  0
   -2.7253   -3.2812   -1.4322 H   0  0  0  0  0  0  0  0  0  0  0  0
    2.8127   -1.3912    2.2123 H   0  0  0  0  0  0  0  0  0  0  0  0
    1.4328   -0.6876    3.0298 H   0  0  0  0  0  0  0  0  0  0  0  0
    2.1851    1.5898    2.4066 H   0  0  0  0  0  0  0  0  0  0  0  0
    3.4766    0.6937    3.2011 H   0  0  0  0  0  0  0  0  0  0  0  0
  1  2  1  0
  2  3  1  0
  3  4  1  0
  4  5  2  0
  4  6  1  0
  6  7  1  0
  7  8  1  0
  8  9  1  0
  9 10  1  0
 10 11  1  0
 11 12  2  0
 11 13  1  0
 13 14  1  0
 14 15  1  0
 15 16  2  0
 15 17  1  0
 17 18  1  0
 18 19  1  0
 19 20  1  0
 20 21  2  0
 21 22  1  0
 22 23  2  0
 23 24  1  0
 24 25  2  0
  9 26  1  0
 26 27  1  0
 27  6  1  0
 25 14  1  0
 25 20  1  0
  1 28  1  0
  1 29  1  0
  1 30  1  0
  2 31  1  0
  2 32  1  0
  7 33  1  0
  7 34  1  0
  8 35  1  0
  8 36  1  0
  9 37  1  0
 10 38  1  0
 13 39  1  0
 13 40  1  0
 17 41  1  0
 17 42  1  0
 18 43  1  0
 18 44  1  0
 21 45  1  0
 22 46  1  0
 23 47  1  0
 24 48  1  0
 26 49  1  0
 26 50  1  0
 27 51  1  0
 27 52  1  0
M  END
$$$$
