
     RDKit          3D

 46 48  0  0  0  0  0  0  0  0999 V2000
   -2.2814   -2.3732   -4.1649 C   0  0  0  0  0  0  0  0  0  0  0  0
   -1.7409   -1.7026   -3.0319 O   0  0  0  0  0  0  0  0  0  0  0  0
   -2.6175   -1.3893   -2.0167 C   0  0  0  0  0  0  0  0  0  0  0  0
   -3.9870   -1.6626   -2.0284 C   0  0  0  0  0  0  0  0  0  0  0  0
   -4.7833   -1.3010   -0.9388 C   0  0  0  0  0  0  0  0  0  0  0  0
   -4.2203   -0.6738    0.1766 C   0  0  0  0  0  0  0  0  0  0  0  0
   -5.0823   -0.2573    1.3326 C   0  0  0  0  0  0  0  0  0  0  0  0
   -2.8480   -0.3854    0.1817 C   0  0  0  0  0  0  0  0  0  0  0  0
   -2.0424   -0.7400   -0.9031 C   0  0  0  0  0  0  0  0  0  0  0  0
   -0.6512   -0.4931   -0.9647 N   0  0  0  0  0  0  0  0  0  0  0  0
    0.1494    0.1473   -0.0398 C   0  0  0  0  0  0  0  0  0  0  0  0
   -0.2367    0.6817    0.9923 O   0  0  0  0  0  0  0  0  0  0  0  0
    1.6068    0.1973   -0.4713 C   0  0  0  0  0  0  0  0  0  0  0  0
    2.1965   -1.1645   -0.7859 C   0  0  0  0  0  0  0  0  0  0  0  0
    3.6615   -0.9042   -0.6354 C   0  0  0  0  0  0  0  0  0  0  0  0
    4.5525   -1.6284   -1.0459 O   0  0  0  0  0  0  0  0  0  0  0  0
    3.8636    0.2694    0.0290 O   0  0  0  0  0  0  0  0  0  0  0  0
    2.6010    0.7554    0.5554 C   0  0  0  0  0  0  0  0  0  0  0  0
    2.6460    2.2921    0.5273 C   0  0  0  0  0  0  0  0  0  0  0  0
    3.5815    2.8452    1.6002 C   0  0  0  0  0  0  0  0  0  0  0  0
    3.2009    2.3995    3.0117 C   0  0  0  0  0  0  0  0  0  0  0  0
    2.1935    1.2542    3.0448 C   0  0  0  0  0  0  0  0  0  0  0  0
    2.5017    0.1872    1.9965 C   0  0  0  0  0  0  0  0  0  0  0  0
   -1.4614   -2.5560   -4.8660 H   0  0  0  0  0  0  0  0  0  0  0  0
   -3.0226   -1.7498   -4.6756 H   0  0  0  0  0  0  0  0  0  0  0  0
   -2.7024   -3.3445   -3.8853 H   0  0  0  0  0  0  0  0  0  0  0  0
   -4.4701   -2.1520   -2.8671 H   0  0  0  0  0  0  0  0  0  0  0  0
   -5.8501   -1.5142   -0.9661 H   0  0  0  0  0  0  0  0  0  0  0  0
   -5.4239    0.7728    1.1921 H   0  0  0  0  0  0  0  0  0  0  0  0
   -4.5285   -0.3231    2.2750 H   0  0  0  0  0  0  0  0  0  0  0  0
   -5.9569   -0.9099    1.4245 H   0  0  0  0  0  0  0  0  0  0  0  0
   -2.4311    0.1171    1.0491 H   0  0  0  0  0  0  0  0  0  0  0  0
   -0.2381   -0.8174   -1.8343 H   0  0  0  0  0  0  0  0  0  0  0  0
    1.6507    0.8103   -1.3841 H   0  0  0  0  0  0  0  0  0  0  0  0
    1.9734   -1.4715   -1.8114 H   0  0  0  0  0  0  0  0  0  0  0  0
    1.8828   -1.9399   -0.0811 H   0  0  0  0  0  0  0  0  0  0  0  0
    1.6427    2.7100    0.6729 H   0  0  0  0  0  0  0  0  0  0  0  0
    3.0031    2.6403   -0.4500 H   0  0  0  0  0  0  0  0  0  0  0  0
    3.5949    3.9404    1.5521 H   0  0  0  0  0  0  0  0  0  0  0  0
    4.6079    2.5205    1.3874 H   0  0  0  0  0  0  0  0  0  0  0  0
    2.7878    3.2494    3.5684 H   0  0  0  0  0  0  0  0  0  0  0  0
    4.1121    2.1033    3.5460 H   0  0  0  0  0  0  0  0  0  0  0  0
    1.1866    1.6555    2.8837 H   0  0  0  0  0  0  0  0  0  0  0  0
    2.1866    0.8025    4.0436 H   0  0  0  0  0  0  0  0  0  0  0  0
    3.4481   -0.2954    2.2768 H   0  0  0  0  0  0  0  0  0  0  0  0
    1.7448   -0.6024    2.0624 H   0  0  0  0  0  0  0  0  0  0  0  0
  1  2  1  0
  2  3  1  0
  3  4  2  0
  4  5  1  0
  5  6  2  0
  6  7  1  0
  6  8  1  0
  8  9  2  0
  9 10  1  0
 10 11  1  0
 11 12  2  0
 11 13  1  0
 13 14  1  0
 14 15  1  0
 15 16  2  0
 15 17  1  0
 17 18  1  0
 18 19  1  0
 19 20  1  0
 20 21  1  0
 21 22  1  0
 22 23  1  0
  9  3  1  0
 18 13  1  0
 23 18  1  0
  1 24  1  0
  1 25  1  0
  1 26  1  0
  4 27  1  0
  5 28  1  0
  7 29  1  0
  7 30  1  0
  7 31  1  0
  8 32  1  0
 10 33  1  0
 13 34  1  0
 14 35  1  0
 14 36  1  0
 19 37  1  0
 19 38  1  0
 20 39  1  0
 20 40  1  0
 21 41  1  0
 21 42  1  0
 22 43  1  0
 22 44  1  0
 23 45  1  0
 23 46  1  0
M  END
$$$$
