
     RDKit          3D

 34 36  0  0  0  0  0  0  0  0999 V2000
    1.3202    3.4663    0.9397 S   0  0  0  0  0  0  0  0  0  0  0  0
    1.8012    1.8931    0.6011 C   0  0  0  0  0  0  0  0  0  0  0  0
    0.9539    0.8451    0.3882 N   0  0  0  0  0  0  0  0  0  0  0  0
    0.5981    0.5454   -0.8188 C   0  0  0  0  0  0  0  0  0  0  0  0
    1.1530    1.3726   -2.3163 S   0  0  0  0  0  0  0  0  0  0  0  0
    0.1782    0.3203   -3.3086 C   0  0  0  0  0  0  0  0  0  0  0  0
   -0.4847   -0.5683   -2.5595 C   0  0  0  0  0  0  0  0  0  0  0  0
   -0.2667   -0.4782   -1.1926 N   0  0  0  0  0  0  0  0  0  0  0  0
   -0.9513   -1.2964   -0.2019 C   0  0  0  0  0  0  0  0  0  0  0  0
   -2.3656   -0.8125    0.0303 C   0  0  0  0  0  0  0  0  0  0  0  0
   -2.6044    0.3442    0.7879 C   0  0  0  0  0  0  0  0  0  0  0  0
   -3.9069    0.8002    0.9950 C   0  0  0  0  0  0  0  0  0  0  0  0
   -4.9843    0.1067    0.4477 C   0  0  0  0  0  0  0  0  0  0  0  0
   -4.7609   -1.0420   -0.3090 C   0  0  0  0  0  0  0  0  0  0  0  0
   -3.4587   -1.4996   -0.5190 C   0  0  0  0  0  0  0  0  0  0  0  0
    3.1467    1.6124    0.6332 N   0  0  0  0  0  0  0  0  0  0  0  0
    3.7324    0.3235    0.4632 C   0  0  0  0  0  0  0  0  0  0  0  0
    3.7109   -0.6901    1.5733 C   0  0  0  0  0  0  0  0  0  0  0  0
    5.0026   -0.0333    1.1869 C   0  0  0  0  0  0  0  0  0  0  0  0
    0.1267    0.4073   -4.3845 H   0  0  0  0  0  0  0  0  0  0  0  0
   -1.1684   -1.3215   -2.9292 H   0  0  0  0  0  0  0  0  0  0  0  0
   -0.4135   -1.3120    0.7546 H   0  0  0  0  0  0  0  0  0  0  0  0
   -0.9654   -2.3416   -0.5375 H   0  0  0  0  0  0  0  0  0  0  0  0
   -1.7733    0.9012    1.2180 H   0  0  0  0  0  0  0  0  0  0  0  0
   -4.0781    1.6996    1.5812 H   0  0  0  0  0  0  0  0  0  0  0  0
   -5.9978    0.4643    0.6090 H   0  0  0  0  0  0  0  0  0  0  0  0
   -5.6025   -1.5801   -0.7375 H   0  0  0  0  0  0  0  0  0  0  0  0
   -3.3046   -2.3957   -1.1154 H   0  0  0  0  0  0  0  0  0  0  0  0
    3.7471    2.4045    0.8285 H   0  0  0  0  0  0  0  0  0  0  0  0
    3.6367   -0.0542   -0.5520 H   0  0  0  0  0  0  0  0  0  0  0  0
    3.2530   -0.4071    2.5141 H   0  0  0  0  0  0  0  0  0  0  0  0
    3.5616   -1.7284    1.3023 H   0  0  0  0  0  0  0  0  0  0  0  0
    5.7363   -0.6289    0.6563 H   0  0  0  0  0  0  0  0  0  0  0  0
    5.4286    0.6832    1.8791 H   0  0  0  0  0  0  0  0  0  0  0  0
  1  2  2  0
  2  3  1  0
  3  4  2  3
  4  5  1  0
  5  6  1  0
  6  7  2  0
  7  8  1  0
  8  9  1  0
  9 10  1  0
 10 11  2  0
 11 12  1  0
 12 13  2  0
 13 14  1  0
 14 15  2  0
  2 16  1  0
 16 17  1  0
 17 18  1  0
 18 19  1  0
  8  4  1  0
 15 10  1  0
 19 17  1  0
  6 20  1  0
  7 21  1  0
  9 22  1  0
  9 23  1  0
 11 24  1  0
 12 25  1  0
 13 26  1  0
 14 27  1  0
 15 28  1  0
 16 29  1  0
 17 30  1  0
 18 31  1  0
 18 32  1  0
 19 33  1  0
 19 34  1  0
M  END
$$$$
