
     RDKit          3D

 73 78  0  0  0  0  0  0  0  0999 V2000
    9.7258    1.6294   -1.4826 C   0  0  0  0  0  0  0  0  0  0  0  0
    8.5168    0.8581   -1.0456 C   0  0  0  0  0  0  0  0  0  0  0  0
    7.4889    1.4908   -0.3447 C   0  0  0  0  0  0  0  0  0  0  0  0
    6.3747    0.7649    0.0835 C   0  0  0  0  0  0  0  0  0  0  0  0
    6.2617   -0.6110   -0.1712 C   0  0  0  0  0  0  0  0  0  0  0  0
    5.1304   -1.3477    0.2220 N   0  0  0  0  0  0  0  0  0  0  0  0
    4.8869   -1.4088    1.6807 C   0  0  0  0  0  0  0  0  0  0  0  0
    3.7152   -0.5343    2.1568 C   0  0  0  0  0  0  0  0  0  0  0  0
    2.5089   -0.6205    1.3232 N   0  0  0  0  0  0  0  0  0  0  0  0
    1.3598    0.0039    1.7884 C   0  0  0  0  0  0  0  0  0  0  0  0
    1.3478    0.5622    2.8878 O   0  0  0  0  0  0  0  0  0  0  0  0
    0.1303    0.0267    0.8825 C   0  0  0  0  0  0  0  0  0  0  0  0
    0.3482    0.9857   -0.3097 C   0  0  0  0  0  0  0  0  0  0  0  0
   -0.7642    2.0216   -0.4533 C   0  0  0  0  0  0  0  0  0  0  0  0
   -2.1507    1.3831   -0.3672 C   0  0  0  0  0  0  0  0  0  0  0  0
   -2.2585    0.4891    0.7873 N   0  0  0  0  0  0  0  0  0  0  0  0
   -3.5352    0.3425    1.3349 C   0  0  0  0  0  0  0  0  0  0  0  0
   -3.6696    0.1259    2.6777 N   0  0  0  0  0  0  0  0  0  0  0  0
   -4.9023    0.0049    3.2148 C   0  0  0  0  0  0  0  0  0  0  0  0
   -6.0939    0.0591    2.5930 N   0  0  0  0  0  0  0  0  0  0  0  0
   -5.9301    0.2452    1.2716 C   0  0  0  0  0  0  0  0  0  0  0  0
   -4.7382    0.3884    0.5809 C   0  0  0  0  0  0  0  0  0  0  0  0
   -4.9942    0.5632   -0.7669 N   0  0  0  0  0  0  0  0  0  0  0  0
   -6.3064    0.5125   -0.8993 C   0  0  0  0  0  0  0  0  0  0  0  0
   -6.9175    0.3331    0.3209 N   0  0  0  0  0  0  0  0  0  0  0  0
   -8.3236    0.2047    0.6378 C   0  0  0  0  0  0  0  0  0  0  0  0
   -9.3222    0.1449   -0.5165 C   0  0  0  0  0  0  0  0  0  0  0  0
   -8.9710   -0.9283   -1.5478 C   0  0  0  0  0  0  0  0  0  0  0  0
   -7.8888   -0.5293   -2.5599 C   0  0  0  0  0  0  0  0  0  0  0  0
   -7.0294    0.6768   -2.1908 C   0  0  0  0  0  0  0  0  0  0  0  0
   -1.1167    0.4022    1.6993 C   0  0  0  0  0  0  0  0  0  0  0  0
    2.6431   -1.4081    0.0905 C   0  0  0  0  0  0  0  0  0  0  0  0
    3.9550   -1.0724   -0.6320 C   0  0  0  0  0  0  0  0  0  0  0  0
    7.3050   -1.2574   -0.8616 C   0  0  0  0  0  0  0  0  0  0  0  0
    7.2386   -2.7349   -1.1476 C   0  0  0  0  0  0  0  0  0  0  0  0
    8.4229   -0.5186   -1.2863 C   0  0  0  0  0  0  0  0  0  0  0  0
    9.4611    2.6626   -1.7241 H   0  0  0  0  0  0  0  0  0  0  0  0
   10.4732    1.6383   -0.6850 H   0  0  0  0  0  0  0  0  0  0  0  0
   10.1720    1.1871   -2.3784 H   0  0  0  0  0  0  0  0  0  0  0  0
    7.5418    2.5563   -0.1324 H   0  0  0  0  0  0  0  0  0  0  0  0
    5.5812    1.2932    0.6056 H   0  0  0  0  0  0  0  0  0  0  0  0
    5.7899   -1.1763    2.2599 H   0  0  0  0  0  0  0  0  0  0  0  0
    4.6483   -2.4566    1.9115 H   0  0  0  0  0  0  0  0  0  0  0  0
    4.0113    0.5212    2.1832 H   0  0  0  0  0  0  0  0  0  0  0  0
    3.4487   -0.8174    3.1835 H   0  0  0  0  0  0  0  0  0  0  0  0
   -0.0315   -0.9915    0.5034 H   0  0  0  0  0  0  0  0  0  0  0  0
    0.3992    0.3997   -1.2378 H   0  0  0  0  0  0  0  0  0  0  0  0
    1.3087    1.5107   -0.2291 H   0  0  0  0  0  0  0  0  0  0  0  0
   -0.6577    2.7730    0.3382 H   0  0  0  0  0  0  0  0  0  0  0  0
   -0.6561    2.5584   -1.4012 H   0  0  0  0  0  0  0  0  0  0  0  0
   -2.3390    0.8100   -1.2810 H   0  0  0  0  0  0  0  0  0  0  0  0
   -2.8808    2.2005   -0.3196 H   0  0  0  0  0  0  0  0  0  0  0  0
   -4.9362   -0.1537    4.2894 H   0  0  0  0  0  0  0  0  0  0  0  0
   -8.5791    1.0417    1.2982 H   0  0  0  0  0  0  0  0  0  0  0  0
   -8.4194   -0.7194    1.2206 H   0  0  0  0  0  0  0  0  0  0  0  0
  -10.3046   -0.0907   -0.0876 H   0  0  0  0  0  0  0  0  0  0  0  0
   -9.4335    1.1249   -0.9926 H   0  0  0  0  0  0  0  0  0  0  0  0
   -9.8781   -1.2012   -2.1039 H   0  0  0  0  0  0  0  0  0  0  0  0
   -8.6627   -1.8454   -1.0266 H   0  0  0  0  0  0  0  0  0  0  0  0
   -7.2487   -1.4012   -2.7536 H   0  0  0  0  0  0  0  0  0  0  0  0
   -8.3773   -0.3027   -3.5157 H   0  0  0  0  0  0  0  0  0  0  0  0
   -6.2892    0.8260   -2.9913 H   0  0  0  0  0  0  0  0  0  0  0  0
   -7.6245    1.5982   -2.1673 H   0  0  0  0  0  0  0  0  0  0  0  0
   -1.2627   -0.3728    2.4612 H   0  0  0  0  0  0  0  0  0  0  0  0
   -0.9887    1.3539    2.2277 H   0  0  0  0  0  0  0  0  0  0  0  0
    2.6264   -2.4649    0.3833 H   0  0  0  0  0  0  0  0  0  0  0  0
    1.8037   -1.2495   -0.5874 H   0  0  0  0  0  0  0  0  0  0  0  0
    4.0311   -1.6772   -1.5434 H   0  0  0  0  0  0  0  0  0  0  0  0
    3.9202   -0.0163   -0.9324 H   0  0  0  0  0  0  0  0  0  0  0  0
    7.1394   -3.2977   -0.2113 H   0  0  0  0  0  0  0  0  0  0  0  0
    8.1484   -3.0854   -1.6479 H   0  0  0  0  0  0  0  0  0  0  0  0
    6.3870   -2.9592   -1.8011 H   0  0  0  0  0  0  0  0  0  0  0  0
    9.2306   -1.0246   -1.8137 H   0  0  0  0  0  0  0  0  0  0  0  0
  1  2  1  0
  2  3  2  0
  3  4  1  0
  4  5  2  0
  5  6  1  0
  6  7  1  0
  7  8  1  0
  8  9  1  0
  9 10  1  0
 10 11  2  0
 10 12  1  0
 12 13  1  0
 13 14  1  0
 14 15  1  0
 15 16  1  0
 16 17  1  0
 17 18  2  0
 18 19  1  0
 19 20  2  0
 20 21  1  0
 21 22  2  0
 22 23  1  0
 23 24  2  0
 24 25  1  0
 25 26  1  0
 26 27  1  0
 27 28  1  0
 28 29  1  0
 29 30  1  0
 16 31  1  0
  9 32  1  0
 32 33  1  0
  5 34  1  0
 34 35  1  0
 34 36  2  0
 36  2  1  0
 33  6  1  0
 31 12  1  0
 22 17  1  0
 30 24  1  0
 25 21  1  0
  1 37  1  0
  1 38  1  0
  1 39  1  0
  3 40  1  0
  4 41  1  0
  7 42  1  0
  7 43  1  0
  8 44  1  0
  8 45  1  0
 12 46  1  0
 13 47  1  0
 13 48  1  0
 14 49  1  0
 14 50  1  0
 15 51  1  0
 15 52  1  0
 19 53  1  0
 26 54  1  0
 26 55  1  0
 27 56  1  0
 27 57  1  0
 28 58  1  0
 28 59  1  0
 29 60  1  0
 29 61  1  0
 30 62  1  0
 30 63  1  0
 31 64  1  0
 31 65  1  0
 32 66  1  0
 32 67  1  0
 33 68  1  0
 33 69  1  0
 35 70  1  0
 35 71  1  0
 35 72  1  0
 36 73  1  0
M  END
$$$$
