
     RDKit          3D

 44 46  0  0  0  0  0  0  0  0999 V2000
    9.0028    0.2295    0.2404 C   0  0  0  0  0  0  0  0  0  0  0  0
    8.0803   -0.8472    0.3525 O   0  0  0  0  0  0  0  0  0  0  0  0
    6.7513   -0.5398    0.2681 C   0  0  0  0  0  0  0  0  0  0  0  0
    6.2133    0.7334    0.0860 C   0  0  0  0  0  0  0  0  0  0  0  0
    4.8244    0.9156    0.0157 C   0  0  0  0  0  0  0  0  0  0  0  0
    3.9572   -0.1752    0.1266 C   0  0  0  0  0  0  0  0  0  0  0  0
    2.5912   -0.0954    0.0717 O   0  0  0  0  0  0  0  0  0  0  0  0
    2.0039    1.1827   -0.1572 C   0  0  0  0  0  0  0  0  0  0  0  0
    0.5372    0.9844   -0.2091 C   0  0  0  0  0  0  0  0  0  0  0  0
   -0.2905   -0.0752   -0.4875 C   0  0  0  0  0  0  0  0  0  0  0  0
   -1.6072    0.4427   -0.3586 C   0  0  0  0  0  0  0  0  0  0  0  0
   -2.8556   -0.2980   -0.6010 C   0  0  0  0  0  0  0  0  0  0  0  0
   -2.8368   -1.3144   -1.2989 O   0  0  0  0  0  0  0  0  0  0  0  0
   -4.0636    0.1733   -0.0562 N   0  0  0  0  0  0  0  0  0  0  0  0
   -4.1192    1.0111    1.1379 C   0  0  0  0  0  0  0  0  0  0  0  0
   -5.3007   -0.4383   -0.5487 C   0  0  0  0  0  0  0  0  0  0  0  0
   -6.5604    0.4038   -0.4632 C   0  0  0  0  0  0  0  0  0  0  0  0
   -7.6348   -0.6537   -0.5839 C   0  0  0  0  0  0  0  0  0  0  0  0
   -7.1477   -1.8018    0.1223 O   0  0  0  0  0  0  0  0  0  0  0  0
   -5.7116   -1.7169    0.1829 C   0  0  0  0  0  0  0  0  0  0  0  0
   -1.5610    1.7537   -0.0595 N   0  0  0  0  0  0  0  0  0  0  0  0
   -0.2240    2.0804    0.0481 O   0  0  0  0  0  0  0  0  0  0  0  0
    4.5074   -1.4529    0.3110 C   0  0  0  0  0  0  0  0  0  0  0  0
    3.4997   -2.8520    0.4567 Cl  0  0  0  0  0  0  0  0  0  0  0  0
    5.8912   -1.6318    0.3805 C   0  0  0  0  0  0  0  0  0  0  0  0
    8.8680    0.9504    1.0534 H   0  0  0  0  0  0  0  0  0  0  0  0
   10.0121   -0.1846    0.3262 H   0  0  0  0  0  0  0  0  0  0  0  0
    8.9241    0.7161   -0.7374 H   0  0  0  0  0  0  0  0  0  0  0  0
    6.8460    1.6109   -0.0051 H   0  0  0  0  0  0  0  0  0  0  0  0
    4.4602    1.9283   -0.1248 H   0  0  0  0  0  0  0  0  0  0  0  0
    2.2537    1.8655    0.6632 H   0  0  0  0  0  0  0  0  0  0  0  0
    2.3420    1.5955   -1.1146 H   0  0  0  0  0  0  0  0  0  0  0  0
    0.0006   -1.0835   -0.7463 H   0  0  0  0  0  0  0  0  0  0  0  0
   -4.4122    2.0225    0.8438 H   0  0  0  0  0  0  0  0  0  0  0  0
   -3.1670    1.0340    1.6710 H   0  0  0  0  0  0  0  0  0  0  0  0
   -4.8556    0.6037    1.8370 H   0  0  0  0  0  0  0  0  0  0  0  0
   -5.1520   -0.6937   -1.6075 H   0  0  0  0  0  0  0  0  0  0  0  0
   -6.6242    1.1682   -1.2429 H   0  0  0  0  0  0  0  0  0  0  0  0
   -6.6588    0.9030    0.5062 H   0  0  0  0  0  0  0  0  0  0  0  0
   -7.7971   -0.9409   -1.6286 H   0  0  0  0  0  0  0  0  0  0  0  0
   -8.5896   -0.3358   -0.1560 H   0  0  0  0  0  0  0  0  0  0  0  0
   -5.2782   -2.6107   -0.2767 H   0  0  0  0  0  0  0  0  0  0  0  0
   -5.4253   -1.7055    1.2396 H   0  0  0  0  0  0  0  0  0  0  0  0
    6.3065   -2.6265    0.5228 H   0  0  0  0  0  0  0  0  0  0  0  0
  1  2  1  0
  2  3  1  0
  3  4  2  0
  4  5  1  0
  5  6  2  0
  6  7  1  0
  7  8  1  0
  8  9  1  0
  9 10  2  0
 10 11  1  0
 11 12  1  0
 12 13  2  0
 12 14  1  0
 14 15  1  0
 14 16  1  0
 16 17  1  0
 17 18  1  0
 18 19  1  0
 19 20  1  0
 11 21  2  0
 21 22  1  0
  6 23  1  0
 23 24  1  0
 23 25  2  0
 25  3  1  0
 22  9  1  0
 20 16  1  0
  1 26  1  0
  1 27  1  0
  1 28  1  0
  4 29  1  0
  5 30  1  0
  8 31  1  0
  8 32  1  0
 10 33  1  0
 15 34  1  0
 15 35  1  0
 15 36  1  0
 16 37  1  0
 17 38  1  0
 17 39  1  0
 18 40  1  0
 18 41  1  0
 20 42  1  0
 20 43  1  0
 25 44  1  0
M  END
$$$$
