
     RDKit          3D

 69 71  0  0  0  0  0  0  0  0999 V2000
    8.6835   -1.0256   -0.6678 C   0  0  0  0  0  0  0  0  0  0  0  0
    8.8677   -0.4332    0.7209 C   0  0  0  0  0  0  0  0  0  0  0  0
    7.5562   -0.2295    1.4841 C   0  0  0  0  0  0  0  0  0  0  0  0
    6.9412    1.1664    1.3423 C   0  0  0  0  0  0  0  0  0  0  0  0
    6.3776    1.5286   -0.0322 C   0  0  0  0  0  0  0  0  0  0  0  0
    5.2759    0.6085   -0.5699 C   0  0  0  0  0  0  0  0  0  0  0  0
    4.0706    0.4906    0.3676 C   0  0  0  0  0  0  0  0  0  0  0  0
    2.8753   -0.2220   -0.2768 C   0  0  0  0  0  0  0  0  0  0  0  0
    2.1052    0.6836   -1.2441 C   0  0  0  0  0  0  0  0  0  0  0  0
    0.8827   -0.0017   -1.8525 C   0  0  0  0  0  0  0  0  0  0  0  0
   -0.0331   -0.3629   -0.8035 O   0  0  0  0  0  0  0  0  0  0  0  0
   -1.3438   -0.4512   -1.1656 C   0  0  0  0  0  0  0  0  0  0  0  0
   -1.7922   -0.2311   -2.2853 O   0  0  0  0  0  0  0  0  0  0  0  0
   -2.1930   -0.8582    0.0326 C   0  0  0  0  0  0  0  0  0  0  0  0
   -3.6024   -1.1334   -0.3564 N   0  0  0  0  0  0  0  0  0  0  0  0
   -4.4539   -0.2141   -0.8783 C   0  0  0  0  0  0  0  0  0  0  0  0
   -4.2271    1.2832   -1.0426 C   0  0  0  0  0  0  0  0  0  0  0  0
   -3.4207    1.8551   -0.0163 O   0  0  0  0  0  0  0  0  0  0  0  0
   -4.0545    2.2900    1.1148 C   0  0  0  0  0  0  0  0  0  0  0  0
   -3.3354    3.2301    1.8620 C   0  0  0  0  0  0  0  0  0  0  0  0
   -3.8550    3.7418    3.0526 C   0  0  0  0  0  0  0  0  0  0  0  0
   -5.0973    3.3039    3.5032 C   0  0  0  0  0  0  0  0  0  0  0  0
   -5.7377    3.9194    4.9734 Cl  0  0  0  0  0  0  0  0  0  0  0  0
   -5.8184    2.3609    2.7723 C   0  0  0  0  0  0  0  0  0  0  0  0
   -5.2948    1.8480    1.5786 C   0  0  0  0  0  0  0  0  0  0  0  0
   -5.5841   -0.8767   -1.2305 N   0  0  0  0  0  4  0  0  0  0  0  0
   -6.7232   -0.2648   -1.9117 C   0  0  0  0  0  0  0  0  0  0  0  0
   -5.4883   -2.2153   -0.8664 C   0  0  0  0  0  0  0  0  0  0  0  0
   -6.3916   -3.2702   -0.9851 C   0  0  0  0  0  0  0  0  0  0  0  0
   -5.9547   -4.5158   -0.5184 C   0  0  0  0  0  0  0  0  0  0  0  0
   -4.6746   -4.6866    0.0376 C   0  0  0  0  0  0  0  0  0  0  0  0
   -3.7727   -3.6201    0.1535 C   0  0  0  0  0  0  0  0  0  0  0  0
   -4.2164   -2.3824   -0.3107 C   0  0  0  0  0  0  0  0  0  0  0  0
    8.1367   -1.9730   -0.6210 H   0  0  0  0  0  0  0  0  0  0  0  0
    9.6607   -1.2251   -1.1206 H   0  0  0  0  0  0  0  0  0  0  0  0
    8.1423   -0.3533   -1.3354 H   0  0  0  0  0  0  0  0  0  0  0  0
    9.4335    0.5045    0.6562 H   0  0  0  0  0  0  0  0  0  0  0  0
    9.4904   -1.1294    1.2962 H   0  0  0  0  0  0  0  0  0  0  0  0
    7.7763   -0.3631    2.5523 H   0  0  0  0  0  0  0  0  0  0  0  0
    6.8296   -1.0087    1.2295 H   0  0  0  0  0  0  0  0  0  0  0  0
    6.1472    1.2681    2.0914 H   0  0  0  0  0  0  0  0  0  0  0  0
    7.6976    1.9149    1.6128 H   0  0  0  0  0  0  0  0  0  0  0  0
    5.9758    2.5487    0.0228 H   0  0  0  0  0  0  0  0  0  0  0  0
    7.1924    1.5766   -0.7625 H   0  0  0  0  0  0  0  0  0  0  0  0
    5.6812   -0.3895   -0.7648 H   0  0  0  0  0  0  0  0  0  0  0  0
    4.9602    1.0036   -1.5405 H   0  0  0  0  0  0  0  0  0  0  0  0
    3.7640    1.4831    0.7186 H   0  0  0  0  0  0  0  0  0  0  0  0
    4.3661   -0.0820    1.2548 H   0  0  0  0  0  0  0  0  0  0  0  0
    3.2124   -1.1273   -0.7942 H   0  0  0  0  0  0  0  0  0  0  0  0
    2.2004   -0.5442    0.5254 H   0  0  0  0  0  0  0  0  0  0  0  0
    1.7738    1.5749   -0.6983 H   0  0  0  0  0  0  0  0  0  0  0  0
    2.7597    1.0172   -2.0543 H   0  0  0  0  0  0  0  0  0  0  0  0
    0.4132    0.6881   -2.5625 H   0  0  0  0  0  0  0  0  0  0  0  0
    1.1792   -0.9131   -2.3829 H   0  0  0  0  0  0  0  0  0  0  0  0
   -2.1773   -0.0768    0.7958 H   0  0  0  0  0  0  0  0  0  0  0  0
   -1.7579   -1.7655    0.4615 H   0  0  0  0  0  0  0  0  0  0  0  0
   -5.2007    1.7770   -1.1297 H   0  0  0  0  0  0  0  0  0  0  0  0
   -3.7092    1.3897   -1.9994 H   0  0  0  0  0  0  0  0  0  0  0  0
   -2.3647    3.5724    1.5133 H   0  0  0  0  0  0  0  0  0  0  0  0
   -3.2881    4.4766    3.6209 H   0  0  0  0  0  0  0  0  0  0  0  0
   -6.7848    2.0139    3.1320 H   0  0  0  0  0  0  0  0  0  0  0  0
   -5.8831    1.1003    1.0596 H   0  0  0  0  0  0  0  0  0  0  0  0
   -7.2917    0.3256   -1.1855 H   0  0  0  0  0  0  0  0  0  0  0  0
   -6.3601    0.3795   -2.7178 H   0  0  0  0  0  0  0  0  0  0  0  0
   -7.3805   -1.0194   -2.3447 H   0  0  0  0  0  0  0  0  0  0  0  0
   -7.3772   -3.1432   -1.4139 H   0  0  0  0  0  0  0  0  0  0  0  0
   -6.6205   -5.3768   -0.5887 H   0  0  0  0  0  0  0  0  0  0  0  0
   -4.3785   -5.6776    0.3844 H   0  0  0  0  0  0  0  0  0  0  0  0
   -2.7891   -3.7618    0.5842 H   0  0  0  0  0  0  0  0  0  0  0  0
  1  2  1  0
  2  3  1  0
  3  4  1  0
  4  5  1  0
  5  6  1  0
  6  7  1  0
  7  8  1  0
  8  9  1  0
  9 10  1  0
 10 11  1  0
 11 12  1  0
 12 13  2  0
 12 14  1  0
 14 15  1  0
 15 16  1  0
 16 17  1  0
 17 18  1  0
 18 19  1  0
 19 20  2  0
 20 21  1  0
 21 22  2  0
 22 23  1  0
 22 24  1  0
 24 25  2  0
 16 26  2  0
 26 27  1  0
 26 28  1  0
 28 29  2  0
 29 30  1  0
 30 31  2  0
 31 32  1  0
 32 33  2  0
 33 15  1  0
 25 19  1  0
 33 28  1  0
  1 34  1  0
  1 35  1  0
  1 36  1  0
  2 37  1  0
  2 38  1  0
  3 39  1  0
  3 40  1  0
  4 41  1  0
  4 42  1  0
  5 43  1  0
  5 44  1  0
  6 45  1  0
  6 46  1  0
  7 47  1  0
  7 48  1  0
  8 49  1  0
  8 50  1  0
  9 51  1  0
  9 52  1  0
 10 53  1  0
 10 54  1  0
 14 55  1  0
 14 56  1  0
 17 57  1  0
 17 58  1  0
 20 59  1  0
 21 60  1  0
 24 61  1  0
 25 62  1  0
 27 63  1  0
 27 64  1  0
 27 65  1  0
 29 66  1  0
 30 67  1  0
 31 68  1  0
 32 69  1  0
M  CHG  1  26   1
M  END
$$$$
