
     RDKit          3D

 32 33  0  0  0  0  0  0  0  0999 V2000
   -0.5977    0.7157   -1.9174 C   0  0  0  0  0  0  0  0  0  0  0  0
   -0.1117    0.0577   -0.6238 C   0  0  0  0  0  0  0  0  0  0  0  0
   -0.9572   -1.1656   -0.2235 C   0  0  0  0  0  0  0  0  0  0  0  0
   -2.3563   -0.8087    0.2105 C   0  0  0  0  0  0  0  0  0  0  0  0
   -3.4403   -0.9977   -0.6578 C   0  0  0  0  0  0  0  0  0  0  0  0
   -4.7312   -0.6445   -0.2626 C   0  0  0  0  0  0  0  0  0  0  0  0
   -4.9512   -0.1025    1.0016 C   0  0  0  0  0  0  0  0  0  0  0  0
   -3.8817    0.0837    1.8746 C   0  0  0  0  0  0  0  0  0  0  0  0
   -2.5892   -0.2681    1.4832 C   0  0  0  0  0  0  0  0  0  0  0  0
    1.2921   -0.3253   -0.7485 N   0  0  0  0  0  4  0  0  0  0  0  0
    2.2788    0.1928    0.0419 C   0  0  0  0  0  0  0  0  0  0  0  0
    3.4564   -0.3667   -0.4188 C   0  0  0  0  0  0  0  0  0  0  0  0
    4.7480   -0.2068   -0.0452 N   0  0  0  0  0  0  0  0  0  0  0  0
    5.0676    0.9606    0.4234 C   0  0  0  0  0  0  0  0  0  0  0  0
    6.3189    1.2192    0.8429 N   0  0  0  0  0  0  0  0  0  0  0  0
    4.4691    2.0303    0.5809 O   0  0  0  0  0  1  0  0  0  0  0  0
    3.1003   -1.2417   -1.4392 O   0  0  0  0  0  0  0  0  0  0  0  0
    1.7122   -1.1932   -1.6423 N   0  0  0  0  0  0  0  0  0  0  0  0
   -0.6229   -0.0015   -2.7447 H   0  0  0  0  0  0  0  0  0  0  0  0
   -1.6003    1.1374   -1.7992 H   0  0  0  0  0  0  0  0  0  0  0  0
    0.0750    1.5302   -2.2075 H   0  0  0  0  0  0  0  0  0  0  0  0
   -0.1770    0.8125    0.1718 H   0  0  0  0  0  0  0  0  0  0  0  0
   -0.4666   -1.6973    0.6031 H   0  0  0  0  0  0  0  0  0  0  0  0
   -0.9937   -1.8887   -1.0488 H   0  0  0  0  0  0  0  0  0  0  0  0
   -3.2956   -1.4235   -1.6488 H   0  0  0  0  0  0  0  0  0  0  0  0
   -5.5688   -0.7952   -0.9397 H   0  0  0  0  0  0  0  0  0  0  0  0
   -5.9581    0.1693    1.3095 H   0  0  0  0  0  0  0  0  0  0  0  0
   -4.0575    0.4992    2.8643 H   0  0  0  0  0  0  0  0  0  0  0  0
   -1.7741   -0.1225    2.1893 H   0  0  0  0  0  0  0  0  0  0  0  0
    2.1412    0.9111    0.8353 H   0  0  0  0  0  0  0  0  0  0  0  0
    7.0168    0.7077    0.3260 H   0  0  0  0  0  0  0  0  0  0  0  0
    6.4546    2.2222    0.8507 H   0  0  0  0  0  0  0  0  0  0  0  0
  1  2  1  0
  2  3  1  0
  3  4  1  0
  4  5  2  0
  5  6  1  0
  6  7  2  0
  7  8  1  0
  8  9  2  0
  2 10  1  0
 10 11  1  0
 11 12  2  0
 12 13  1  0
 13 14  2  3
 14 15  1  0
 14 16  1  0
 12 17  1  0
 17 18  1  0
  9  4  1  0
 18 10  2  0
  1 19  1  0
  1 20  1  0
  1 21  1  0
  2 22  1  0
  3 23  1  0
  3 24  1  0
  5 25  1  0
  6 26  1  0
  7 27  1  0
  8 28  1  0
  9 29  1  0
 11 30  1  0
 15 31  1  0
 15 32  1  0
M  CHG  2  10   1  16  -1
M  END
$$$$
