
     RDKit          3D

 72 76  0  0  0  0  0  0  0  0999 V2000
    7.5179    1.2402   -0.8620 C   0  0  0  0  0  0  0  0  0  0  0  0
    7.5254    0.1040    0.1671 C   0  0  0  0  0  0  0  0  0  0  0  0
    8.3239    0.4716    1.4224 C   0  0  0  0  0  0  0  0  0  0  0  0
    8.1638   -1.1356   -0.4775 C   0  0  0  0  0  0  0  0  0  0  0  0
    6.1761   -0.3114    0.5003 O   0  0  0  0  0  0  0  0  0  0  0  0
    5.3211    0.5410    1.1080 C   0  0  0  0  0  0  0  0  0  0  0  0
    5.5525    1.6971    1.4206 O   0  0  0  0  0  0  0  0  0  0  0  0
    4.1344   -0.1047    1.2926 N   0  0  0  0  0  0  0  0  0  0  0  0
    2.9353    0.6093    1.6651 C   0  0  0  0  0  0  0  0  0  0  0  0
    1.8422   -0.3196    2.1952 C   0  0  0  0  0  0  0  0  0  0  0  0
    1.3679   -1.3980    1.2121 C   0  0  0  0  0  0  0  0  0  0  0  0
    0.8763   -0.8954   -0.1493 C   0  0  0  0  0  0  0  0  0  0  0  0
   -0.2517    0.1457   -0.1252 C   0  0  1  0  0  0  0  0  0  0  0  0
   -0.3641    0.7320   -1.5183 N   0  0  0  0  0  0  0  0  0  0  0  0
   -1.8091    1.0309   -1.7702 C   0  0  0  0  0  0  0  0  0  0  0  0
   -2.1355    2.5344   -1.5293 C   0  0  0  0  0  0  0  0  0  0  0  0
   -1.9491    3.2102   -0.5287 O   0  0  0  0  0  0  0  0  0  0  0  0
   -2.7083    3.0111   -2.7127 N   0  0  0  0  0  0  0  0  0  0  0  0
   -2.7872    2.0151   -3.6759 C   0  0  0  0  0  0  0  0  0  0  0  0
   -3.3001    2.1349   -4.9500 C   0  0  0  0  0  0  0  0  0  0  0  0
   -3.2940    0.9932   -5.7542 C   0  0  0  0  0  0  0  0  0  0  0  0
   -2.7806   -0.2247   -5.2723 C   0  0  0  0  0  0  0  0  0  0  0  0
   -2.2627   -0.3228   -3.9778 C   0  0  0  0  0  0  0  0  0  0  0  0
   -2.2728    0.8124   -3.1809 C   0  0  0  0  0  0  0  0  0  0  0  0
   -2.5128    0.1124   -0.8637 C   0  0  0  0  0  0  0  0  0  0  0  0
   -1.6218   -0.3828    0.1044 C   0  0  0  0  0  0  0  0  0  0  0  0
   -2.3389   -1.1639    0.9748 C   0  0  0  0  0  0  0  0  0  0  0  0
   -2.0163   -1.7852    2.1006 O   0  0  0  0  0  0  0  0  0  0  0  0
   -3.6335   -1.2245    0.4818 N   0  0  0  0  0  0  0  0  0  0  0  0
   -4.7023   -2.0416    1.0439 C   0  0  0  0  0  0  0  0  0  0  0  0
   -5.4475   -1.3323    2.1467 C   0  0  0  0  0  0  0  0  0  0  0  0
   -5.1059   -1.5489    3.4893 C   0  0  0  0  0  0  0  0  0  0  0  0
   -5.7955   -0.8953    4.5111 C   0  0  0  0  0  0  0  0  0  0  0  0
   -6.8313   -0.0157    4.2019 C   0  0  0  0  0  0  0  0  0  0  0  0
   -7.1756    0.2142    2.8714 C   0  0  0  0  0  0  0  0  0  0  0  0
   -6.4866   -0.4389    1.8486 C   0  0  0  0  0  0  0  0  0  0  0  0
   -3.7502   -0.4358   -0.6502 C   0  0  0  0  0  0  0  0  0  0  0  0
   -4.8998   -0.3301   -1.3042 O   0  0  0  0  0  0  0  0  0  0  0  0
    7.1214    2.1701   -0.4429 H   0  0  0  0  0  0  0  0  0  0  0  0
    8.5277    1.4496   -1.2310 H   0  0  0  0  0  0  0  0  0  0  0  0
    6.8794    0.9867   -1.7156 H   0  0  0  0  0  0  0  0  0  0  0  0
    9.3855    0.6121    1.1921 H   0  0  0  0  0  0  0  0  0  0  0  0
    8.2331   -0.3109    2.1841 H   0  0  0  0  0  0  0  0  0  0  0  0
    7.9638    1.3984    1.8791 H   0  0  0  0  0  0  0  0  0  0  0  0
    7.5987   -1.4466   -1.3639 H   0  0  0  0  0  0  0  0  0  0  0  0
    9.2019   -0.9522   -0.7764 H   0  0  0  0  0  0  0  0  0  0  0  0
    8.1474   -1.9860    0.2135 H   0  0  0  0  0  0  0  0  0  0  0  0
    4.0714   -0.9689    0.7765 H   0  0  0  0  0  0  0  0  0  0  0  0
    3.1943    1.3438    2.4349 H   0  0  0  0  0  0  0  0  0  0  0  0
    2.5939    1.1707    0.7903 H   0  0  0  0  0  0  0  0  0  0  0  0
    0.9864    0.2857    2.5147 H   0  0  0  0  0  0  0  0  0  0  0  0
    2.2132   -0.8226    3.0977 H   0  0  0  0  0  0  0  0  0  0  0  0
    0.5894   -1.9958    1.6921 H   0  0  0  0  0  0  0  0  0  0  0  0
    2.1884   -2.1038    1.0339 H   0  0  0  0  0  0  0  0  0  0  0  0
    1.7414   -0.4772   -0.6800 H   0  0  0  0  0  0  0  0  0  0  0  0
    0.5618   -1.7687   -0.7366 H   0  0  0  0  0  0  0  0  0  0  0  0
   -0.0369    0.9681    0.5643 H   0  0  0  0  0  0  0  0  0  0  0  0
   -0.1141   -0.0069   -2.1723 H   0  0  0  0  0  0  0  0  0  0  0  0
   -2.9997    3.9706   -2.8209 H   0  0  0  0  0  0  0  0  0  0  0  0
   -3.6947    3.0733   -5.3219 H   0  0  0  0  0  0  0  0  0  0  0  0
   -3.6895    1.0443   -6.7666 H   0  0  0  0  0  0  0  0  0  0  0  0
   -2.7873   -1.1013   -5.9168 H   0  0  0  0  0  0  0  0  0  0  0  0
   -1.8764   -1.2675   -3.6075 H   0  0  0  0  0  0  0  0  0  0  0  0
   -1.1985   -1.3771    2.4296 H   0  0  0  0  0  0  0  0  0  0  0  0
   -5.3865   -2.3231    0.2349 H   0  0  0  0  0  0  0  0  0  0  0  0
   -4.2566   -2.9758    1.4049 H   0  0  0  0  0  0  0  0  0  0  0  0
   -4.2923   -2.2254    3.7439 H   0  0  0  0  0  0  0  0  0  0  0  0
   -5.5204   -1.0683    5.5486 H   0  0  0  0  0  0  0  0  0  0  0  0
   -7.3649    0.4960    4.9982 H   0  0  0  0  0  0  0  0  0  0  0  0
   -7.9772    0.9070    2.6288 H   0  0  0  0  0  0  0  0  0  0  0  0
   -6.7574   -0.2432    0.8134 H   0  0  0  0  0  0  0  0  0  0  0  0
   -4.7503    0.2424   -2.0785 H   0  0  0  0  0  0  0  0  0  0  0  0
  1  2  1  0
  2  3  1  0
  2  4  1  0
  2  5  1  0
  5  6  1  0
  6  7  2  0
  6  8  1  0
  8  9  1  0
  9 10  1  0
 10 11  1  0
 11 12  1  0
 12 13  1  0
 13 14  1  0
 14 15  1  0
 15 16  1  0
 16 17  2  0
 16 18  1  0
 18 19  1  0
 19 20  2  0
 20 21  1  0
 21 22  2  0
 22 23  1  0
 23 24  2  0
 15 25  1  0
 25 26  1  0
 26 27  2  0
 27 28  1  0
 27 29  1  0
 29 30  1  0
 30 31  1  0
 31 32  2  0
 32 33  1  0
 33 34  2  0
 34 35  1  0
 35 36  2  0
 29 37  1  0
 37 38  1  0
 26 13  1  0
 36 31  1  0
 24 15  1  0
 37 25  2  0
 24 19  1  0
  1 39  1  0
  1 40  1  0
  1 41  1  0
  3 42  1  0
  3 43  1  0
  3 44  1  0
  4 45  1  0
  4 46  1  0
  4 47  1  0
  8 48  1  0
  9 49  1  0
  9 50  1  0
 10 51  1  0
 10 52  1  0
 11 53  1  0
 11 54  1  0
 12 55  1  0
 12 56  1  0
 13 57  1  1
 14 58  1  0
 18 59  1  0
 20 60  1  0
 21 61  1  0
 22 62  1  0
 23 63  1  0
 28 64  1  0
 30 65  1  0
 30 66  1  0
 32 67  1  0
 33 68  1  0
 34 69  1  0
 35 70  1  0
 36 71  1  0
 38 72  1  0
M  END
$$$$
