
     RDKit          3D

 42 44  0  0  0  0  0  0  0  0999 V2000
   -2.1229    4.7308    0.5815 C   0  0  0  0  0  0  0  0  0  0  0  0
   -2.5880    4.2442   -0.6732 O   0  0  0  0  0  0  0  0  0  0  0  0
   -1.9341    3.1536   -1.1902 C   0  0  0  0  0  0  0  0  0  0  0  0
   -0.7500    2.6035   -0.7012 C   0  0  0  0  0  0  0  0  0  0  0  0
   -0.1931    1.4717   -1.3153 C   0  0  0  0  0  0  0  0  0  0  0  0
    1.0592    0.8676   -0.8338 C   0  0  0  0  0  0  0  0  0  0  0  0
    1.3070    0.4291    0.4166 C   0  0  0  0  0  0  0  0  0  0  0  0
    0.3903    0.5381    1.4975 C   0  0  0  0  0  0  0  0  0  0  0  0
   -0.3605    0.6651    2.3734 N   0  0  0  0  0  0  0  0  0  0  0  0
    2.6604   -0.1402    0.6584 C   0  0  0  0  0  0  0  0  0  0  0  0
    3.6630    0.3755    0.1701 O   0  0  0  0  0  0  0  0  0  0  0  0
    2.7207   -1.3138    1.5215 C   0  0  0  0  0  0  0  0  0  0  0  0
    3.7703   -1.5528    2.3924 C   0  0  0  0  0  0  0  0  0  0  0  0
    3.5281   -2.7195    3.0603 N   0  0  0  0  0  0  0  0  0  0  0  0
    2.3575   -3.2854    2.6144 C   0  0  0  0  0  0  0  0  0  0  0  0
    1.7417   -4.4824    3.0000 C   0  0  0  0  0  0  0  0  0  0  0  0
    0.5534   -4.8386    2.3596 C   0  0  0  0  0  0  0  0  0  0  0  0
    0.0092   -4.0317    1.3661 C   0  0  0  0  0  0  0  0  0  0  0  0
    0.6374   -2.8377    0.9912 C   0  0  0  0  0  0  0  0  0  0  0  0
    1.8306   -2.4381    1.6355 C   0  0  0  0  0  0  0  0  0  0  0  0
   -0.8101    0.9167   -2.4491 C   0  0  0  0  0  0  0  0  0  0  0  0
   -1.9888    1.4653   -2.9607 C   0  0  0  0  0  0  0  0  0  0  0  0
   -2.6672    0.9977   -4.0540 O   0  0  0  0  0  0  0  0  0  0  0  0
   -2.1250   -0.1213   -4.7392 C   0  0  0  0  0  0  0  0  0  0  0  0
   -2.5376    2.5809   -2.3187 C   0  0  0  0  0  0  0  0  0  0  0  0
   -3.6988    3.1382   -2.7993 O   0  0  0  0  0  0  0  0  0  0  0  0
   -2.1439    3.9464    1.3456 H   0  0  0  0  0  0  0  0  0  0  0  0
   -1.1223    5.1646    0.4856 H   0  0  0  0  0  0  0  0  0  0  0  0
   -2.8014    5.5270    0.9025 H   0  0  0  0  0  0  0  0  0  0  0  0
   -0.2437    3.0492    0.1489 H   0  0  0  0  0  0  0  0  0  0  0  0
    1.8235    0.7573   -1.6046 H   0  0  0  0  0  0  0  0  0  0  0  0
    4.6638   -0.9752    2.5951 H   0  0  0  0  0  0  0  0  0  0  0  0
    4.1290   -3.1259    3.7648 H   0  0  0  0  0  0  0  0  0  0  0  0
    2.1694   -5.1196    3.7676 H   0  0  0  0  0  0  0  0  0  0  0  0
    0.0504   -5.7619    2.6384 H   0  0  0  0  0  0  0  0  0  0  0  0
   -0.9139   -4.3306    0.8746 H   0  0  0  0  0  0  0  0  0  0  0  0
    0.1909   -2.2399    0.2026 H   0  0  0  0  0  0  0  0  0  0  0  0
   -0.3540    0.0507   -2.9187 H   0  0  0  0  0  0  0  0  0  0  0  0
   -1.1334    0.1058   -5.1443 H   0  0  0  0  0  0  0  0  0  0  0  0
   -2.7841   -0.3496   -5.5823 H   0  0  0  0  0  0  0  0  0  0  0  0
   -2.0953   -1.0039   -4.0919 H   0  0  0  0  0  0  0  0  0  0  0  0
   -3.8879    3.8893   -2.2061 H   0  0  0  0  0  0  0  0  0  0  0  0
  1  2  1  0
  2  3  1  0
  3  4  2  0
  4  5  1  0
  5  6  1  0
  6  7  2  3
  7  8  1  0
  8  9  3  0
  7 10  1  0
 10 11  2  0
 10 12  1  0
 12 13  2  0
 13 14  1  0
 14 15  1  0
 15 16  2  0
 16 17  1  0
 17 18  2  0
 18 19  1  0
 19 20  2  0
  5 21  2  0
 21 22  1  0
 22 23  1  0
 23 24  1  0
 22 25  2  0
 25 26  1  0
 25  3  1  0
 20 12  1  0
 20 15  1  0
  1 27  1  0
  1 28  1  0
  1 29  1  0
  4 30  1  0
  6 31  1  0
 13 32  1  0
 14 33  1  0
 16 34  1  0
 17 35  1  0
 18 36  1  0
 19 37  1  0
 21 38  1  0
 24 39  1  0
 24 40  1  0
 24 41  1  0
 26 42  1  0
M  END
$$$$
