
     RDKit          3D

 41 43  0  0  0  0  0  0  0  0999 V2000
    4.8286   -0.7146    2.2757 C   0  0  0  0  0  0  0  0  0  0  0  0
    5.5181   -0.4016    1.0710 O   0  0  0  0  0  0  0  0  0  0  0  0
    4.7794   -0.4622   -0.0852 C   0  0  0  0  0  0  0  0  0  0  0  0
    3.5029   -1.0118   -0.2169 C   0  0  0  0  0  0  0  0  0  0  0  0
    2.8483   -0.9911   -1.4593 C   0  0  0  0  0  0  0  0  0  0  0  0
    1.5189   -1.5845   -1.6413 C   0  0  0  0  0  0  0  0  0  0  0  0
    0.3821   -1.2342   -1.0227 C   0  0  0  0  0  0  0  0  0  0  0  0
   -1.1361   -1.9970   -1.3855 S   0  0  0  0  0  0  0  0  0  0  0  0
   -2.0166   -0.9442   -0.3090 C   0  0  0  0  0  0  0  0  0  0  0  0
   -3.2953   -1.0316   -0.1738 N   0  0  0  0  0  0  0  0  0  0  0  0
   -3.9600   -0.1577    0.7037 C   0  0  0  0  0  0  0  0  0  0  0  0
   -4.5219   -0.6887    1.8692 C   0  0  0  0  0  0  0  0  0  0  0  0
   -5.1683    0.1383    2.7920 C   0  0  0  0  0  0  0  0  0  0  0  0
   -5.2601    1.5100    2.5571 C   0  0  0  0  0  0  0  0  0  0  0  0
   -4.7200    2.0534    1.3929 C   0  0  0  0  0  0  0  0  0  0  0  0
   -4.0991    1.2205    0.4597 C   0  0  0  0  0  0  0  0  0  0  0  0
   -3.5614    1.8295   -0.6459 O   0  0  0  0  0  0  0  0  0  0  0  0
   -4.2752    1.4619   -1.8283 C   0  0  0  0  0  0  0  0  0  0  0  0
   -1.1639   -0.0914    0.3124 N   0  0  0  0  0  0  0  0  0  0  0  0
    0.1632   -0.1681   -0.0006 C   0  0  0  0  0  0  0  0  0  0  0  0
    1.0182    0.5360    0.5110 O   0  0  0  0  0  0  0  0  0  0  0  0
    3.4973   -0.4458   -2.5769 C   0  0  0  0  0  0  0  0  0  0  0  0
    4.7788    0.0895   -2.4564 C   0  0  0  0  0  0  0  0  0  0  0  0
    5.4045    0.0750   -1.2170 C   0  0  0  0  0  0  0  0  0  0  0  0
    6.6614    0.6077   -1.1216 O   0  0  0  0  0  0  0  0  0  0  0  0
    4.5693   -1.7774    2.3132 H   0  0  0  0  0  0  0  0  0  0  0  0
    5.5064   -0.5087    3.1101 H   0  0  0  0  0  0  0  0  0  0  0  0
    3.9413   -0.0852    2.4051 H   0  0  0  0  0  0  0  0  0  0  0  0
    2.9960   -1.4546    0.6345 H   0  0  0  0  0  0  0  0  0  0  0  0
    1.4943   -2.3700   -2.3952 H   0  0  0  0  0  0  0  0  0  0  0  0
   -4.4497   -1.7570    2.0599 H   0  0  0  0  0  0  0  0  0  0  0  0
   -5.5966   -0.2891    3.6954 H   0  0  0  0  0  0  0  0  0  0  0  0
   -5.7558    2.1550    3.2786 H   0  0  0  0  0  0  0  0  0  0  0  0
   -4.7878    3.1225    1.2074 H   0  0  0  0  0  0  0  0  0  0  0  0
   -4.1207    2.2539   -2.5669 H   0  0  0  0  0  0  0  0  0  0  0  0
   -3.8784    0.5316   -2.2436 H   0  0  0  0  0  0  0  0  0  0  0  0
   -5.3540    1.3736   -1.6550 H   0  0  0  0  0  0  0  0  0  0  0  0
   -1.4835    0.6127    0.9575 H   0  0  0  0  0  0  0  0  0  0  0  0
    3.0098   -0.4312   -3.5500 H   0  0  0  0  0  0  0  0  0  0  0  0
    5.2844    0.5165   -3.3191 H   0  0  0  0  0  0  0  0  0  0  0  0
    6.9012    0.5103   -0.1787 H   0  0  0  0  0  0  0  0  0  0  0  0
  1  2  1  0
  2  3  1  0
  3  4  2  0
  4  5  1  0
  5  6  1  0
  6  7  2  3
  7  8  1  0
  8  9  1  0
  9 10  2  3
 10 11  1  0
 11 12  2  0
 12 13  1  0
 13 14  2  0
 14 15  1  0
 15 16  2  0
 16 17  1  0
 17 18  1  0
  9 19  1  0
 19 20  1  0
 20 21  2  0
  5 22  2  0
 22 23  1  0
 23 24  2  0
 24 25  1  0
 24  3  1  0
 20  7  1  0
 16 11  1  0
  1 26  1  0
  1 27  1  0
  1 28  1  0
  4 29  1  0
  6 30  1  0
 12 31  1  0
 13 32  1  0
 14 33  1  0
 15 34  1  0
 18 35  1  0
 18 36  1  0
 18 37  1  0
 19 38  1  0
 22 39  1  0
 23 40  1  0
 25 41  1  0
M  END
$$$$
