
     RDKit          3D

 48 50  0  0  0  0  0  0  0  0999 V2000
    4.3063   -2.5474    1.7456 C   0  0  0  0  0  0  0  0  0  0  0  0
    4.0498   -2.0720    0.3220 C   0  0  0  0  0  0  0  0  0  0  0  0
    4.0101   -0.6044    0.2586 N   0  0  0  0  0  0  0  0  0  0  0  0
    5.2837    0.0575   -0.0482 C   0  0  0  0  0  0  0  0  0  0  0  0
    5.4638    0.2356   -1.5492 C   0  0  0  0  0  0  0  0  0  0  0  0
    2.8256    0.1072    0.4224 C   0  0  0  0  0  0  0  0  0  0  0  0
    2.7402    1.4920    0.1919 C   0  0  0  0  0  0  0  0  0  0  0  0
    1.5467    2.2139    0.3535 C   0  0  0  0  0  0  0  0  0  0  0  0
    0.3778    1.5685    0.7504 C   0  0  0  0  0  0  0  0  0  0  0  0
   -0.8447    2.3499    0.9621 C   0  0  0  0  0  0  0  0  0  0  0  0
   -2.0401    2.2101    0.3538 C   0  0  0  0  0  0  0  0  0  0  0  0
   -3.1196    3.1121    0.8170 C   0  0  0  0  0  0  0  0  0  0  0  0
   -2.9871    3.9414    1.7134 O   0  0  0  0  0  0  0  0  0  0  0  0
   -4.3157    2.9473    0.1868 N   0  0  0  0  0  0  0  0  0  0  0  0
   -4.6904    1.8628   -0.5479 C   0  0  0  0  0  0  0  0  0  0  0  0
   -5.8833    1.6893   -0.7895 O   0  0  0  0  0  0  0  0  0  0  0  0
   -3.6839    1.0234   -0.9744 N   0  0  0  0  0  0  0  0  0  0  0  0
   -4.0579   -0.1146   -1.8030 C   0  0  0  0  0  0  0  0  0  0  0  0
   -4.4373   -1.2493   -0.9133 C   0  0  0  0  0  0  0  0  0  0  0  0
   -5.6488   -1.7478   -0.4801 C   0  0  0  0  0  0  0  0  0  0  0  0
   -5.3502   -2.8392    0.3698 C   0  0  0  0  0  0  0  0  0  0  0  0
   -3.9793   -2.9360    0.4027 C   0  0  0  0  0  0  0  0  0  0  0  0
   -3.4163   -1.9726   -0.3700 O   0  0  0  0  0  0  0  0  0  0  0  0
   -2.3351    1.2274   -0.7249 C   0  0  0  0  0  0  0  0  0  0  0  0
   -1.4488    0.6699   -1.3652 O   0  0  0  0  0  0  0  0  0  0  0  0
    0.4301    0.2016    1.0039 C   0  0  0  0  0  0  0  0  0  0  0  0
    1.6305   -0.5077    0.8366 C   0  0  0  0  0  0  0  0  0  0  0  0
    4.3375   -3.6399    1.7787 H   0  0  0  0  0  0  0  0  0  0  0  0
    3.5272   -2.2073    2.4350 H   0  0  0  0  0  0  0  0  0  0  0  0
    5.2638   -2.1693    2.1159 H   0  0  0  0  0  0  0  0  0  0  0  0
    3.1380   -2.5259   -0.0864 H   0  0  0  0  0  0  0  0  0  0  0  0
    4.8583   -2.4477   -0.3184 H   0  0  0  0  0  0  0  0  0  0  0  0
    5.3816    1.0161    0.4741 H   0  0  0  0  0  0  0  0  0  0  0  0
    6.1143   -0.5530    0.3302 H   0  0  0  0  0  0  0  0  0  0  0  0
    4.6784    0.8631   -1.9823 H   0  0  0  0  0  0  0  0  0  0  0  0
    5.4393   -0.7297   -2.0652 H   0  0  0  0  0  0  0  0  0  0  0  0
    6.4293    0.7079   -1.7586 H   0  0  0  0  0  0  0  0  0  0  0  0
    3.6055    2.0589   -0.1371 H   0  0  0  0  0  0  0  0  0  0  0  0
    1.5501    3.2840    0.1560 H   0  0  0  0  0  0  0  0  0  0  0  0
   -0.7166    3.1178    1.7264 H   0  0  0  0  0  0  0  0  0  0  0  0
   -5.0744    3.5142    0.5395 H   0  0  0  0  0  0  0  0  0  0  0  0
   -4.9037    0.1544   -2.4478 H   0  0  0  0  0  0  0  0  0  0  0  0
   -3.2347   -0.4164   -2.4594 H   0  0  0  0  0  0  0  0  0  0  0  0
   -6.6246   -1.3606   -0.7413 H   0  0  0  0  0  0  0  0  0  0  0  0
   -6.0468   -3.4758    0.8956 H   0  0  0  0  0  0  0  0  0  0  0  0
   -3.2858   -3.5985    0.9024 H   0  0  0  0  0  0  0  0  0  0  0  0
   -0.4564   -0.3395    1.3258 H   0  0  0  0  0  0  0  0  0  0  0  0
    1.5937   -1.5714    1.0542 H   0  0  0  0  0  0  0  0  0  0  0  0
  1  2  1  0
  2  3  1  0
  3  4  1  0
  4  5  1  0
  3  6  1  0
  6  7  2  0
  7  8  1  0
  8  9  2  0
  9 10  1  0
 10 11  2  3
 11 12  1  0
 12 13  2  0
 12 14  1  0
 14 15  1  0
 15 16  2  0
 15 17  1  0
 17 18  1  0
 18 19  1  0
 19 20  2  0
 20 21  1  0
 21 22  2  0
 22 23  1  0
 17 24  1  0
 24 25  2  0
  9 26  1  0
 26 27  2  0
 27  6  1  0
 24 11  1  0
 23 19  1  0
  1 28  1  0
  1 29  1  0
  1 30  1  0
  2 31  1  0
  2 32  1  0
  4 33  1  0
  4 34  1  0
  5 35  1  0
  5 36  1  0
  5 37  1  0
  7 38  1  0
  8 39  1  0
 10 40  1  0
 14 41  1  0
 18 42  1  0
 18 43  1  0
 20 44  1  0
 21 45  1  0
 22 46  1  0
 26 47  1  0
 27 48  1  0
M  END
$$$$
