
     RDKit          3D

 62 65  0  0  0  0  0  0  0  0999 V2000
   -1.9593   -0.4496   -3.7654 O   0  0  0  0  0  0  0  0  0  0  0  0
   -2.0421   -0.7453   -2.5777 C   0  0  0  0  0  0  0  0  0  0  0  0
   -3.2071   -0.6067   -1.8540 N   0  0  0  0  0  0  0  0  0  0  0  0
   -4.3660    0.0497   -2.4316 C   0  0  0  0  0  0  0  0  0  0  0  0
   -5.6069   -0.0642   -1.5385 C   0  0  0  0  0  0  0  0  0  0  0  0
   -5.5793    0.6224   -0.1809 C   0  0  0  0  0  0  0  0  0  0  0  0
   -4.6471    1.5081    0.2207 C   0  0  0  0  0  0  0  0  0  0  0  0
   -4.6270    2.1525    1.5783 C   0  0  0  0  0  0  0  0  0  0  0  0
   -5.5645    1.4817    2.5804 C   0  0  0  0  0  0  0  0  0  0  0  0
   -6.9064    1.1624    1.9362 C   0  0  0  0  0  0  0  0  0  0  0  0
   -6.7315    0.2398    0.7274 C   0  0  0  0  0  0  0  0  0  0  0  0
   -0.8769   -1.3193   -1.7718 C   0  0  0  0  0  0  0  0  0  0  0  0
    0.3033   -1.6623   -2.6902 C   0  0  0  0  0  0  0  0  0  0  0  0
    1.4965   -2.2009   -1.9059 C   0  0  0  0  0  0  0  0  0  0  0  0
    1.9475   -1.2232   -0.8084 C   0  0  0  0  0  0  0  0  0  0  0  0
    3.1299   -1.8275   -0.0339 C   0  0  0  0  0  0  0  0  0  0  0  0
    3.6021   -0.9777    1.0675 N   0  0  0  0  0  0  0  0  0  0  0  0
    4.5034    0.0618    0.8534 C   0  0  0  0  0  0  0  0  0  0  0  0
    4.0332    1.1729    0.2126 N   0  0  0  0  0  0  0  0  0  0  0  0
    4.7480    2.3091   -0.0536 C   0  0  0  0  0  0  0  0  0  0  0  0
    3.9556    3.5724   -0.8206 S   0  0  0  0  0  0  0  0  0  0  0  0
    6.0606    2.3557    0.3238 N   0  0  0  0  0  0  0  0  0  0  0  0
    6.5430    1.3256    0.9410 C   0  0  0  0  0  0  0  0  0  0  0  0
    7.9678    1.3607    1.3770 C   0  0  0  0  0  0  0  0  0  0  0  0
    8.5158    0.3210    2.0192 C   0  0  0  0  0  0  0  0  0  0  0  0
    7.7709   -0.8783    2.3128 C   0  0  0  0  0  0  0  0  0  0  0  0
    6.4831   -1.0032    1.9613 C   0  0  0  0  0  0  0  0  0  0  0  0
    5.7880    0.0703    1.2715 C   0  0  0  0  0  0  0  0  0  0  0  0
    0.7661   -0.8773    0.1113 C   0  0  0  0  0  0  0  0  0  0  0  0
   -0.4327   -0.3447   -0.6734 C   0  0  0  0  0  0  0  0  0  0  0  0
   -3.1644   -0.6725   -0.8451 H   0  0  0  0  0  0  0  0  0  0  0  0
   -4.5689   -0.4214   -3.4006 H   0  0  0  0  0  0  0  0  0  0  0  0
   -4.1070    1.0954   -2.6316 H   0  0  0  0  0  0  0  0  0  0  0  0
   -5.8018   -1.1320   -1.3721 H   0  0  0  0  0  0  0  0  0  0  0  0
   -6.4652    0.3322   -2.0953 H   0  0  0  0  0  0  0  0  0  0  0  0
   -3.8445    1.8182   -0.4435 H   0  0  0  0  0  0  0  0  0  0  0  0
   -4.9025    3.2075    1.4622 H   0  0  0  0  0  0  0  0  0  0  0  0
   -3.6058    2.1299    1.9750 H   0  0  0  0  0  0  0  0  0  0  0  0
   -5.7065    2.1348    3.4489 H   0  0  0  0  0  0  0  0  0  0  0  0
   -5.1074    0.5547    2.9497 H   0  0  0  0  0  0  0  0  0  0  0  0
   -7.5734    0.6900    2.6666 H   0  0  0  0  0  0  0  0  0  0  0  0
   -7.3909    2.0949    1.6188 H   0  0  0  0  0  0  0  0  0  0  0  0
   -7.6689    0.2404    0.1580 H   0  0  0  0  0  0  0  0  0  0  0  0
   -6.5672   -0.7875    1.0770 H   0  0  0  0  0  0  0  0  0  0  0  0
   -1.2327   -2.2483   -1.3054 H   0  0  0  0  0  0  0  0  0  0  0  0
    0.6141   -0.7719   -3.2521 H   0  0  0  0  0  0  0  0  0  0  0  0
   -0.0062   -2.4058   -3.4350 H   0  0  0  0  0  0  0  0  0  0  0  0
    2.3254   -2.3903   -2.5984 H   0  0  0  0  0  0  0  0  0  0  0  0
    1.2279   -3.1673   -1.4601 H   0  0  0  0  0  0  0  0  0  0  0  0
    2.2782   -0.3040   -1.3070 H   0  0  0  0  0  0  0  0  0  0  0  0
    3.9621   -2.0459   -0.7151 H   0  0  0  0  0  0  0  0  0  0  0  0
    2.8220   -2.7880    0.3983 H   0  0  0  0  0  0  0  0  0  0  0  0
    3.9323   -1.5768    1.8209 H   0  0  0  0  0  0  0  0  0  0  0  0
    3.0542    1.1936   -0.0303 H   0  0  0  0  0  0  0  0  0  0  0  0
    8.5261    2.2616    1.1525 H   0  0  0  0  0  0  0  0  0  0  0  0
    9.5548    0.3588    2.3341 H   0  0  0  0  0  0  0  0  0  0  0  0
    8.2903   -1.6849    2.8230 H   0  0  0  0  0  0  0  0  0  0  0  0
    5.9616   -1.9255    2.1860 H   0  0  0  0  0  0  0  0  0  0  0  0
    0.4602   -1.7671    0.6758 H   0  0  0  0  0  0  0  0  0  0  0  0
    1.0639   -0.1220    0.8475 H   0  0  0  0  0  0  0  0  0  0  0  0
   -0.1759    0.6250   -1.1191 H   0  0  0  0  0  0  0  0  0  0  0  0
   -1.2520   -0.1511    0.0280 H   0  0  0  0  0  0  0  0  0  0  0  0
  1  2  2  0
  2  3  1  0
  3  4  1  0
  4  5  1  0
  5  6  1  0
  6  7  2  0
  7  8  1  0
  8  9  1  0
  9 10  1  0
 10 11  1  0
  2 12  1  0
 12 13  1  0
 13 14  1  0
 14 15  1  0
 15 16  1  0
 16 17  1  0
 17 18  1  0
 18 19  1  0
 19 20  1  0
 20 21  2  0
 20 22  1  0
 22 23  2  0
 23 24  1  0
 24 25  2  0
 25 26  1  0
 26 27  2  0
 27 28  1  0
 15 29  1  0
 29 30  1  0
 11  6  1  0
 30 12  1  0
 28 18  2  0
 28 23  1  0
  3 31  1  0
  4 32  1  0
  4 33  1  0
  5 34  1  0
  5 35  1  0
  7 36  1  0
  8 37  1  0
  8 38  1  0
  9 39  1  0
  9 40  1  0
 10 41  1  0
 10 42  1  0
 11 43  1  0
 11 44  1  0
 12 45  1  0
 13 46  1  0
 13 47  1  0
 14 48  1  0
 14 49  1  0
 15 50  1  0
 16 51  1  0
 16 52  1  0
 17 53  1  0
 19 54  1  0
 24 55  1  0
 25 56  1  0
 26 57  1  0
 27 58  1  0
 29 59  1  0
 29 60  1  0
 30 61  1  0
 30 62  1  0
M  END
$$$$
