
     RDKit          3D

 41 42  0  0  0  0  0  0  0  0999 V2000
    0.3061   -0.5749   -1.5525 O   0  0  0  0  0  0  0  0  0  0  0  0
   -0.3083    0.4255   -0.7243 C   0  0  0  0  0  0  0  0  0  0  0  0
    0.7680    1.1741    0.0756 C   0  0  0  0  0  0  0  0  0  0  0  0
    1.3126    0.3388    1.1031 O   0  0  0  0  0  0  0  0  0  0  0  0
    2.4552    0.9132    1.7372 C   0  0  0  0  0  0  0  0  0  0  0  0
    3.7328    0.7068    0.9548 C   0  0  0  0  0  0  0  0  0  0  0  0
    4.8050    1.5960    1.1252 C   0  0  0  0  0  0  0  0  0  0  0  0
    6.0040    1.4035    0.4337 C   0  0  0  0  0  0  0  0  0  0  0  0
    6.1416    0.3156   -0.4257 C   0  0  0  0  0  0  0  0  0  0  0  0
    7.6187    0.0810   -1.2767 Cl  0  0  0  0  0  0  0  0  0  0  0  0
    5.0928   -0.5837   -0.5965 C   0  0  0  0  0  0  0  0  0  0  0  0
    3.8954   -0.3920    0.0966 C   0  0  0  0  0  0  0  0  0  0  0  0
   -1.3626   -0.2529    0.1789 C   0  0  0  0  0  0  0  0  0  0  0  0
   -2.3165   -1.0722   -0.6113 N   0  0  0  0  0  0  0  0  0  0  0  0
   -3.2681   -0.2742   -1.4028 C   0  0  0  0  0  0  0  0  0  0  0  0
   -4.3335    0.4437   -0.5698 C   0  0  0  0  0  0  0  0  0  0  0  0
   -5.0716   -0.5285    0.3440 C   0  0  0  0  0  0  0  0  0  0  0  0
   -4.0906   -1.3702    1.1528 C   0  0  0  0  0  0  0  0  0  0  0  0
   -3.0448   -2.0242    0.2466 C   0  0  0  0  0  0  0  0  0  0  0  0
   -0.4023   -1.2346   -1.7018 H   0  0  0  0  0  0  0  0  0  0  0  0
   -0.7815    1.1442   -1.4011 H   0  0  0  0  0  0  0  0  0  0  0  0
    0.3258    2.0578    0.5493 H   0  0  0  0  0  0  0  0  0  0  0  0
    1.5647    1.4942   -0.6053 H   0  0  0  0  0  0  0  0  0  0  0  0
    2.2755    1.9774    1.9322 H   0  0  0  0  0  0  0  0  0  0  0  0
    2.5709    0.4135    2.7054 H   0  0  0  0  0  0  0  0  0  0  0  0
    4.7136    2.4457    1.7983 H   0  0  0  0  0  0  0  0  0  0  0  0
    6.8246    2.1023    0.5712 H   0  0  0  0  0  0  0  0  0  0  0  0
    5.1953   -1.4340   -1.2651 H   0  0  0  0  0  0  0  0  0  0  0  0
    3.0795   -1.1002   -0.0457 H   0  0  0  0  0  0  0  0  0  0  0  0
   -0.8296   -0.9335    0.8547 H   0  0  0  0  0  0  0  0  0  0  0  0
   -1.8667    0.4934    0.8019 H   0  0  0  0  0  0  0  0  0  0  0  0
   -2.7452    0.4508   -2.0349 H   0  0  0  0  0  0  0  0  0  0  0  0
   -3.7712   -0.9497   -2.1076 H   0  0  0  0  0  0  0  0  0  0  0  0
   -3.8744    1.2381    0.0300 H   0  0  0  0  0  0  0  0  0  0  0  0
   -5.0521    0.9324   -1.2379 H   0  0  0  0  0  0  0  0  0  0  0  0
   -5.7403    0.0204    1.0161 H   0  0  0  0  0  0  0  0  0  0  0  0
   -5.7011   -1.1901   -0.2639 H   0  0  0  0  0  0  0  0  0  0  0  0
   -4.6389   -2.1459    1.6995 H   0  0  0  0  0  0  0  0  0  0  0  0
   -3.5989   -0.7425    1.9055 H   0  0  0  0  0  0  0  0  0  0  0  0
   -3.5435   -2.7580   -0.4004 H   0  0  0  0  0  0  0  0  0  0  0  0
   -2.3405   -2.6071    0.8529 H   0  0  0  0  0  0  0  0  0  0  0  0
  1  2  1  0
  2  3  1  0
  3  4  1  0
  4  5  1  0
  5  6  1  0
  6  7  2  0
  7  8  1  0
  8  9  2  0
  9 10  1  0
  9 11  1  0
 11 12  2  0
  2 13  1  0
 13 14  1  0
 14 15  1  0
 15 16  1  0
 16 17  1  0
 17 18  1  0
 18 19  1  0
 12  6  1  0
 19 14  1  0
  1 20  1  0
  2 21  1  0
  3 22  1  0
  3 23  1  0
  5 24  1  0
  5 25  1  0
  7 26  1  0
  8 27  1  0
 11 28  1  0
 12 29  1  0
 13 30  1  0
 13 31  1  0
 15 32  1  0
 15 33  1  0
 16 34  1  0
 16 35  1  0
 17 36  1  0
 17 37  1  0
 18 38  1  0
 18 39  1  0
 19 40  1  0
 19 41  1  0
M  END
$$$$
