
     RDKit          3D

 55 57  0  0  0  0  0  0  0  0999 V2000
    1.6016    0.8774   -3.7897 O   0  0  0  0  0  0  0  0  0  0  0  0
    1.3822    0.2599   -2.7518 C   0  0  0  0  0  0  0  0  0  0  0  0
   -0.0329   -0.0299   -2.2598 C   0  0  0  0  0  0  0  0  0  0  0  0
   -0.0509   -0.1744   -0.8349 O   0  0  0  0  0  0  0  0  0  0  0  0
   -1.2961   -0.4146   -0.3305 C   0  0  0  0  0  0  0  0  0  0  0  0
   -2.3135   -0.5095   -1.0057 O   0  0  0  0  0  0  0  0  0  0  0  0
   -1.2380   -0.5295    1.1972 C   0  0  0  0  0  0  0  0  0  0  0  0
   -0.9569    0.8319    1.8527 C   0  0  0  0  0  0  0  0  0  0  0  0
   -2.0598    1.8546    1.6979 C   0  0  0  0  0  0  0  0  0  0  0  0
   -2.0973    2.7040    0.5840 C   0  0  0  0  0  0  0  0  0  0  0  0
   -3.1327    3.6278    0.4349 C   0  0  0  0  0  0  0  0  0  0  0  0
   -4.1372    3.7143    1.3967 C   0  0  0  0  0  0  0  0  0  0  0  0
   -4.1067    2.8794    2.5111 C   0  0  0  0  0  0  0  0  0  0  0  0
   -3.0727    1.9550    2.6628 C   0  0  0  0  0  0  0  0  0  0  0  0
   -2.4700   -1.1423    1.6909 N   0  0  0  0  0  0  0  0  0  0  0  0
   -2.6193   -2.5140    1.7193 C   0  0  0  0  0  0  0  0  0  0  0  0
   -1.6566   -3.2594    1.5466 O   0  0  0  0  0  0  0  0  0  0  0  0
   -3.9716   -3.0040    1.9533 C   0  0  0  0  0  0  0  0  0  0  0  0
   -4.3747   -4.3270    1.9996 C   0  0  0  0  0  0  0  0  0  0  0  0
   -5.7703   -4.4701    2.2488 C   0  0  0  0  0  0  0  0  0  0  0  0
   -6.3936   -3.2509    2.3867 C   0  0  0  0  0  0  0  0  0  0  0  0
   -5.2992   -1.9488    2.2166 S   0  0  0  0  0  0  0  0  0  0  0  0
    2.3761   -0.2689   -1.9524 N   0  0  0  0  0  0  0  0  0  0  0  0
    3.7849    0.0045   -2.1914 C   0  0  0  0  0  0  0  0  0  0  0  0
    4.1819    1.3774   -1.6416 C   0  0  0  0  0  0  0  0  0  0  0  0
    5.6362    1.7242   -1.9701 C   0  0  0  0  0  0  0  0  0  0  0  0
    6.5418    0.4993   -2.1089 C   0  0  0  0  0  0  0  0  0  0  0  0
    6.0739   -0.6516   -1.2295 C   0  0  0  0  0  0  0  0  0  0  0  0
    4.6573   -1.1085   -1.5882 C   0  0  0  0  0  0  0  0  0  0  0  0
   -0.3739   -0.9537   -2.7396 H   0  0  0  0  0  0  0  0  0  0  0  0
   -0.6672    0.8160   -2.5483 H   0  0  0  0  0  0  0  0  0  0  0  0
   -0.4077   -1.2071    1.4319 H   0  0  0  0  0  0  0  0  0  0  0  0
   -0.7740    0.6803    2.9250 H   0  0  0  0  0  0  0  0  0  0  0  0
   -0.0259    1.2566    1.4553 H   0  0  0  0  0  0  0  0  0  0  0  0
   -1.3237    2.6572   -0.1792 H   0  0  0  0  0  0  0  0  0  0  0  0
   -3.1566    4.2807   -0.4340 H   0  0  0  0  0  0  0  0  0  0  0  0
   -4.9428    4.4344    1.2779 H   0  0  0  0  0  0  0  0  0  0  0  0
   -4.8887    2.9491    3.2629 H   0  0  0  0  0  0  0  0  0  0  0  0
   -3.0648    1.3113    3.5405 H   0  0  0  0  0  0  0  0  0  0  0  0
   -3.3283   -0.6178    1.5499 H   0  0  0  0  0  0  0  0  0  0  0  0
   -3.6882   -5.1545    1.8568 H   0  0  0  0  0  0  0  0  0  0  0  0
   -6.2891   -5.4185    2.3211 H   0  0  0  0  0  0  0  0  0  0  0  0
   -7.4410   -3.0607    2.5786 H   0  0  0  0  0  0  0  0  0  0  0  0
    2.0906   -0.5785   -1.0300 H   0  0  0  0  0  0  0  0  0  0  0  0
    3.9360    0.0157   -3.2792 H   0  0  0  0  0  0  0  0  0  0  0  0
    3.5254    2.1651   -2.0312 H   0  0  0  0  0  0  0  0  0  0  0  0
    4.0440    1.3847   -0.5519 H   0  0  0  0  0  0  0  0  0  0  0  0
    6.0241    2.3866   -1.1869 H   0  0  0  0  0  0  0  0  0  0  0  0
    5.6785    2.2984   -2.9035 H   0  0  0  0  0  0  0  0  0  0  0  0
    6.5511    0.1706   -3.1558 H   0  0  0  0  0  0  0  0  0  0  0  0
    7.5728    0.7746   -1.8596 H   0  0  0  0  0  0  0  0  0  0  0  0
    6.7649   -1.4984   -1.3118 H   0  0  0  0  0  0  0  0  0  0  0  0
    6.0961   -0.3322   -0.1797 H   0  0  0  0  0  0  0  0  0  0  0  0
    4.1930   -1.5301   -0.6873 H   0  0  0  0  0  0  0  0  0  0  0  0
    4.7094   -1.9364   -2.3077 H   0  0  0  0  0  0  0  0  0  0  0  0
  1  2  2  0
  2  3  1  0
  3  4  1  0
  4  5  1  0
  5  6  2  0
  5  7  1  0
  7  8  1  0
  8  9  1  0
  9 10  2  0
 10 11  1  0
 11 12  2  0
 12 13  1  0
 13 14  2  0
  7 15  1  0
 15 16  1  0
 16 17  2  0
 16 18  1  0
 18 19  2  0
 19 20  1  0
 20 21  2  0
 21 22  1  0
  2 23  1  0
 23 24  1  0
 24 25  1  0
 25 26  1  0
 26 27  1  0
 27 28  1  0
 28 29  1  0
 14  9  1  0
 22 18  1  0
 29 24  1  0
  3 30  1  0
  3 31  1  0
  7 32  1  0
  8 33  1  0
  8 34  1  0
 10 35  1  0
 11 36  1  0
 12 37  1  0
 13 38  1  0
 14 39  1  0
 15 40  1  0
 19 41  1  0
 20 42  1  0
 21 43  1  0
 23 44  1  0
 24 45  1  0
 25 46  1  0
 25 47  1  0
 26 48  1  0
 26 49  1  0
 27 50  1  0
 27 51  1  0
 28 52  1  0
 28 53  1  0
 29 54  1  0
 29 55  1  0
M  END
$$$$
