
     RDKit          3D

 51 54  0  0  0  0  0  0  0  0999 V2000
   -5.0247   -2.6372    2.3418 C   0  0  0  0  0  0  0  0  0  0  0  0
   -3.9988   -1.9215    1.6687 O   0  0  0  0  0  0  0  0  0  0  0  0
   -4.3425   -0.7543    1.0379 C   0  0  0  0  0  0  0  0  0  0  0  0
   -5.6492   -0.2526    0.9745 C   0  0  0  0  0  0  0  0  0  0  0  0
   -5.9203    0.9483    0.3150 C   0  0  0  0  0  0  0  0  0  0  0  0
   -4.8892    1.6619   -0.2828 C   0  0  0  0  0  0  0  0  0  0  0  0
   -3.5852    1.1724   -0.2273 C   0  0  0  0  0  0  0  0  0  0  0  0
   -3.2904   -0.0421    0.4235 C   0  0  0  0  0  0  0  0  0  0  0  0
   -1.8518   -0.5480    0.4682 C   0  0  0  0  0  0  0  0  0  0  0  0
   -0.9710    0.3141    1.3946 C   0  0  0  0  0  0  0  0  0  0  0  0
    0.5005    0.3582    0.9588 C   0  0  0  0  0  0  0  0  0  0  0  0
    0.9059   -0.9230    0.3997 N   0  0  0  0  0  0  0  0  0  0  0  0
    2.3533   -1.1626    0.3634 C   0  0  0  0  0  0  0  0  0  0  0  0
    3.1210   -0.2300   -0.5361 C   0  0  0  0  0  0  0  0  0  0  0  0
    3.4732   -0.4396   -1.8658 C   0  0  0  0  0  0  0  0  0  0  0  0
    3.2265   -1.5787   -2.7884 C   0  0  0  0  0  0  0  0  0  0  0  0
    4.1629    0.6656   -2.2979 N   0  0  0  0  0  0  0  0  0  0  0  0
    4.3392    1.5611   -1.2734 C   0  0  0  0  0  0  0  0  0  0  0  0
    5.0093    2.7908   -1.2599 C   0  0  0  0  0  0  0  0  0  0  0  0
    5.0517    3.4940   -0.0533 C   0  0  0  0  0  0  0  0  0  0  0  0
    4.4503    2.9826    1.0925 C   0  0  0  0  0  0  0  0  0  0  0  0
    3.7835    1.7523    1.0580 C   0  0  0  0  0  0  0  0  0  0  0  0
    3.7138    1.0243   -0.1498 C   0  0  0  0  0  0  0  0  0  0  0  0
    0.1958   -1.2697   -0.8321 C   0  0  0  0  0  0  0  0  0  0  0  0
   -1.2131   -0.6645   -0.9216 C   0  0  0  0  0  0  0  0  0  0  0  0
   -5.7888   -2.9856    1.6394 H   0  0  0  0  0  0  0  0  0  0  0  0
   -5.4658   -2.0365    3.1436 H   0  0  0  0  0  0  0  0  0  0  0  0
   -4.5701   -3.5205    2.8009 H   0  0  0  0  0  0  0  0  0  0  0  0
   -6.4846   -0.7743    1.4294 H   0  0  0  0  0  0  0  0  0  0  0  0
   -6.9384    1.3264    0.2735 H   0  0  0  0  0  0  0  0  0  0  0  0
   -5.0968    2.5998   -0.7909 H   0  0  0  0  0  0  0  0  0  0  0  0
   -2.7926    1.7542   -0.6925 H   0  0  0  0  0  0  0  0  0  0  0  0
   -1.8455   -1.5654    0.8802 H   0  0  0  0  0  0  0  0  0  0  0  0
   -1.0423   -0.0921    2.4123 H   0  0  0  0  0  0  0  0  0  0  0  0
   -1.3355    1.3464    1.4598 H   0  0  0  0  0  0  0  0  0  0  0  0
    1.0914    0.6037    1.8480 H   0  0  0  0  0  0  0  0  0  0  0  0
    0.6503    1.1693    0.2353 H   0  0  0  0  0  0  0  0  0  0  0  0
    2.5393   -2.2019    0.0651 H   0  0  0  0  0  0  0  0  0  0  0  0
    2.7531   -1.0925    1.3832 H   0  0  0  0  0  0  0  0  0  0  0  0
    2.8833   -2.4675   -2.2505 H   0  0  0  0  0  0  0  0  0  0  0  0
    4.1443   -1.8482   -3.3222 H   0  0  0  0  0  0  0  0  0  0  0  0
    2.4656   -1.3108   -3.5285 H   0  0  0  0  0  0  0  0  0  0  0  0
    4.5284    0.7926   -3.2311 H   0  0  0  0  0  0  0  0  0  0  0  0
    5.4857    3.1867   -2.1506 H   0  0  0  0  0  0  0  0  0  0  0  0
    5.5666    4.4505   -0.0089 H   0  0  0  0  0  0  0  0  0  0  0  0
    4.4991    3.5399    2.0244 H   0  0  0  0  0  0  0  0  0  0  0  0
    3.3276    1.3634    1.9629 H   0  0  0  0  0  0  0  0  0  0  0  0
    0.7316   -0.9434   -1.7278 H   0  0  0  0  0  0  0  0  0  0  0  0
    0.1177   -2.3624   -0.8864 H   0  0  0  0  0  0  0  0  0  0  0  0
   -1.1400    0.3238   -1.3935 H   0  0  0  0  0  0  0  0  0  0  0  0
   -1.8342   -1.2810   -1.5832 H   0  0  0  0  0  0  0  0  0  0  0  0
  1  2  1  0
  2  3  1  0
  3  4  2  0
  4  5  1  0
  5  6  2  0
  6  7  1  0
  7  8  2  0
  8  9  1  0
  9 10  1  0
 10 11  1  0
 11 12  1  0
 12 13  1  0
 13 14  1  0
 14 15  2  0
 15 16  1  0
 15 17  1  0
 17 18  1  0
 18 19  2  0
 19 20  1  0
 20 21  2  0
 21 22  1  0
 22 23  2  0
 12 24  1  0
 24 25  1  0
  8  3  1  0
 25  9  1  0
 23 14  1  0
 23 18  1  0
  1 26  1  0
  1 27  1  0
  1 28  1  0
  4 29  1  0
  5 30  1  0
  6 31  1  0
  7 32  1  0
  9 33  1  0
 10 34  1  0
 10 35  1  0
 11 36  1  0
 11 37  1  0
 13 38  1  0
 13 39  1  0
 16 40  1  0
 16 41  1  0
 16 42  1  0
 17 43  1  0
 19 44  1  0
 20 45  1  0
 21 46  1  0
 22 47  1  0
 24 48  1  0
 24 49  1  0
 25 50  1  0
 25 51  1  0
M  END
$$$$
