
     RDKit          3D

 54 56  0  0  0  0  0  0  0  0999 V2000
   -8.1792    2.5624   -0.9736 C   0  0  0  0  0  0  0  0  0  0  0  0
   -7.5023    1.2029   -1.0520 C   0  0  0  0  0  0  0  0  0  0  0  0
   -6.0071    1.3058   -0.7555 C   0  0  0  0  0  0  0  0  0  0  0  0
   -5.3258   -0.0556   -0.8590 C   0  0  0  0  0  0  0  0  0  0  0  0
   -3.9039    0.0428   -0.5953 N   0  0  0  0  0  0  0  0  0  0  0  0
   -3.3989    0.0056    0.6886 C   0  0  0  0  0  0  0  0  0  0  0  0
   -4.1024   -0.1523    1.6804 O   0  0  0  0  0  0  0  0  0  0  0  0
   -1.8843    0.2008    0.7579 C   0  0  0  0  0  0  0  0  0  0  0  0
   -1.1518   -0.9043   -0.0234 C   0  0  0  0  0  0  0  0  0  0  0  0
    0.2422   -1.2295    0.5219 C   0  0  0  0  0  0  0  0  0  0  0  0
    0.9186    0.0103    1.1198 C   0  0  0  0  0  0  0  0  0  0  0  0
    2.3683   -0.2755    1.5513 C   0  0  0  0  0  0  0  0  0  0  0  0
    3.2134   -0.4799    0.3792 N   0  0  0  0  0  0  0  0  0  0  0  0
    4.5442   -0.8834    0.4014 C   0  0  0  0  0  0  0  0  0  0  0  0
    5.0065   -1.5856    1.4825 N   0  0  0  0  0  0  0  0  0  0  0  0
    6.2776   -2.0674    1.6479 C   0  0  0  0  0  0  0  0  0  0  0  0
    6.5995   -2.9607    3.0316 S   0  0  0  0  0  0  0  0  0  0  0  0
    7.2085   -1.7965    0.6866 N   0  0  0  0  0  0  0  0  0  0  0  0
    6.8155   -1.1349   -0.3549 C   0  0  0  0  0  0  0  0  0  0  0  0
    7.8156   -0.8252   -1.4155 C   0  0  0  0  0  0  0  0  0  0  0  0
    7.4607   -0.1602   -2.5227 C   0  0  0  0  0  0  0  0  0  0  0  0
    6.1060    0.2756   -2.7520 C   0  0  0  0  0  0  0  0  0  0  0  0
    5.1391    0.0541   -1.8498 C   0  0  0  0  0  0  0  0  0  0  0  0
    5.4205   -0.6338   -0.5996 C   0  0  0  0  0  0  0  0  0  0  0  0
    0.1018    0.5490    2.3095 C   0  0  0  0  0  0  0  0  0  0  0  0
   -1.3985    0.2626    2.2088 C   0  0  0  0  0  0  0  0  0  0  0  0
   -7.7526    3.2544   -1.7070 H   0  0  0  0  0  0  0  0  0  0  0  0
   -8.0623    3.0020    0.0226 H   0  0  0  0  0  0  0  0  0  0  0  0
   -9.2499    2.4654   -1.1796 H   0  0  0  0  0  0  0  0  0  0  0  0
   -7.9782    0.5223   -0.3365 H   0  0  0  0  0  0  0  0  0  0  0  0
   -7.6569    0.7824   -2.0524 H   0  0  0  0  0  0  0  0  0  0  0  0
   -5.8564    1.7231    0.2480 H   0  0  0  0  0  0  0  0  0  0  0  0
   -5.5365    2.0051   -1.4577 H   0  0  0  0  0  0  0  0  0  0  0  0
   -5.7731   -0.7641   -0.1534 H   0  0  0  0  0  0  0  0  0  0  0  0
   -5.4368   -0.4641   -1.8686 H   0  0  0  0  0  0  0  0  0  0  0  0
   -3.2952    0.3094   -1.3580 H   0  0  0  0  0  0  0  0  0  0  0  0
   -1.6701    1.1718    0.2895 H   0  0  0  0  0  0  0  0  0  0  0  0
   -1.0561   -0.5823   -1.0693 H   0  0  0  0  0  0  0  0  0  0  0  0
   -1.7417   -1.8301   -0.0495 H   0  0  0  0  0  0  0  0  0  0  0  0
    0.8460   -1.6587   -0.2860 H   0  0  0  0  0  0  0  0  0  0  0  0
    0.1571   -2.0077    1.2920 H   0  0  0  0  0  0  0  0  0  0  0  0
    0.9350    0.7907    0.3448 H   0  0  0  0  0  0  0  0  0  0  0  0
    2.7615    0.5748    2.1211 H   0  0  0  0  0  0  0  0  0  0  0  0
    2.3836   -1.1561    2.2042 H   0  0  0  0  0  0  0  0  0  0  0  0
    3.0252    0.1974   -0.3526 H   0  0  0  0  0  0  0  0  0  0  0  0
    4.3567   -1.8354    2.2111 H   0  0  0  0  0  0  0  0  0  0  0  0
    8.8313   -1.1606   -1.2435 H   0  0  0  0  0  0  0  0  0  0  0  0
    8.1996    0.0614   -3.2879 H   0  0  0  0  0  0  0  0  0  0  0  0
    5.8902    0.7861   -3.6864 H   0  0  0  0  0  0  0  0  0  0  0  0
    4.1309    0.3830   -2.0684 H   0  0  0  0  0  0  0  0  0  0  0  0
    0.4688    0.1355    3.2583 H   0  0  0  0  0  0  0  0  0  0  0  0
    0.2601    1.6343    2.3716 H   0  0  0  0  0  0  0  0  0  0  0  0
   -1.6145   -0.6926    2.7069 H   0  0  0  0  0  0  0  0  0  0  0  0
   -1.9497    1.0257    2.7724 H   0  0  0  0  0  0  0  0  0  0  0  0
  1  2  1  0
  2  3  1  0
  3  4  1  0
  4  5  1  0
  5  6  1  0
  6  7  2  0
  6  8  1  0
  8  9  1  0
  9 10  1  0
 10 11  1  0
 11 12  1  0
 12 13  1  0
 13 14  1  0
 14 15  1  0
 15 16  1  0
 16 17  2  0
 16 18  1  0
 18 19  2  0
 19 20  1  0
 20 21  2  0
 21 22  1  0
 22 23  2  0
 23 24  1  0
 11 25  1  0
 25 26  1  0
 26  8  1  0
 24 14  2  0
 24 19  1  0
  1 27  1  0
  1 28  1  0
  1 29  1  0
  2 30  1  0
  2 31  1  0
  3 32  1  0
  3 33  1  0
  4 34  1  0
  4 35  1  0
  5 36  1  0
  8 37  1  0
  9 38  1  0
  9 39  1  0
 10 40  1  0
 10 41  1  0
 11 42  1  0
 12 43  1  0
 12 44  1  0
 13 45  1  0
 15 46  1  0
 20 47  1  0
 21 48  1  0
 22 49  1  0
 23 50  1  0
 25 51  1  0
 25 52  1  0
 26 53  1  0
 26 54  1  0
M  END
$$$$
