
     RDKit          3D

 71 76  0  0  0  0  0  0  0  0999 V2000
   10.0590   -1.0386    0.4197 C   0  0  0  0  0  0  0  0  0  0  0  0
   10.1184    0.0879   -0.4449 O   0  0  0  0  0  0  0  0  0  0  0  0
    8.9255    0.6529   -0.8098 C   0  0  0  0  0  0  0  0  0  0  0  0
    9.0402    1.7480   -1.6610 C   0  0  0  0  0  0  0  0  0  0  0  0
    7.9003    2.4033   -2.1109 C   0  0  0  0  0  0  0  0  0  0  0  0
    6.6367    1.9665   -1.7017 C   0  0  0  0  0  0  0  0  0  0  0  0
    6.4760    0.8765   -0.8318 C   0  0  0  0  0  0  0  0  0  0  0  0
    5.2222    0.4377   -0.4178 N   0  0  0  0  0  0  0  0  0  0  0  0
    3.9949    0.8906   -1.0893 C   0  0  0  0  0  0  0  0  0  0  0  0
    2.7994   -0.0194   -0.7456 C   0  0  0  0  0  0  0  0  0  0  0  0
    2.5625   -0.1494    0.6984 N   0  0  0  0  0  0  0  0  0  0  0  0
    1.3999   -0.6312    1.2845 C   0  0  0  0  0  0  0  0  0  0  0  0
    1.3187   -0.7869    2.5046 O   0  0  0  0  0  0  0  0  0  0  0  0
    0.2017   -0.9245    0.3775 C   0  0  0  0  0  0  0  0  0  0  0  0
   -0.7575   -1.9343    1.0386 C   0  0  0  0  0  0  0  0  0  0  0  0
   -1.7033   -1.3379    2.0918 C   0  0  0  0  0  0  0  0  0  0  0  0
   -1.9918    0.1483    1.8823 C   0  0  0  0  0  0  0  0  0  0  0  0
   -1.8595    0.4927    0.4662 N   0  0  0  0  0  0  0  0  0  0  0  0
   -2.8712    0.0769   -0.4100 C   0  0  0  0  0  0  0  0  0  0  0  0
   -2.5436   -0.1972   -1.7127 N   0  0  0  0  0  0  0  0  0  0  0  0
   -3.4989   -0.5873   -2.5807 C   0  0  0  0  0  0  0  0  0  0  0  0
   -4.8091   -0.7618   -2.3512 N   0  0  0  0  0  0  0  0  0  0  0  0
   -5.1097   -0.4807   -1.0737 C   0  0  0  0  0  0  0  0  0  0  0  0
   -4.2441   -0.0701   -0.0699 C   0  0  0  0  0  0  0  0  0  0  0  0
   -4.9507    0.1184    1.1066 N   0  0  0  0  0  0  0  0  0  0  0  0
   -6.2094   -0.1550    0.8254 C   0  0  0  0  0  0  0  0  0  0  0  0
   -6.3449   -0.5334   -0.4879 N   0  0  0  0  0  0  0  0  0  0  0  0
   -7.5820   -0.8998   -1.1413 C   0  0  0  0  0  0  0  0  0  0  0  0
   -8.6085    0.2302   -1.1527 C   0  0  0  0  0  0  0  0  0  0  0  0
   -9.3074    0.4463    0.1914 C   0  0  0  0  0  0  0  0  0  0  0  0
   -8.4036    0.9531    1.3179 C   0  0  0  0  0  0  0  0  0  0  0  0
   -7.3551   -0.0601    1.7726 C   0  0  0  0  0  0  0  0  0  0  0  0
   -0.4763    0.4036   -0.0143 C   0  0  0  0  0  0  0  0  0  0  0  0
    3.7129    0.1505    1.5593 C   0  0  0  0  0  0  0  0  0  0  0  0
    5.0658   -0.1927    0.9086 C   0  0  0  0  0  0  0  0  0  0  0  0
    7.6529    0.2264   -0.4086 C   0  0  0  0  0  0  0  0  0  0  0  0
    9.6065   -0.7738    1.3811 H   0  0  0  0  0  0  0  0  0  0  0  0
   11.0846   -1.3662    0.6134 H   0  0  0  0  0  0  0  0  0  0  0  0
    9.5274   -1.8706   -0.0532 H   0  0  0  0  0  0  0  0  0  0  0  0
   10.0227    2.0886   -1.9764 H   0  0  0  0  0  0  0  0  0  0  0  0
    7.9914    3.2567   -2.7766 H   0  0  0  0  0  0  0  0  0  0  0  0
    5.7769    2.5204   -2.0662 H   0  0  0  0  0  0  0  0  0  0  0  0
    4.1220    0.8737   -2.1792 H   0  0  0  0  0  0  0  0  0  0  0  0
    3.7695    1.9202   -0.7832 H   0  0  0  0  0  0  0  0  0  0  0  0
    1.9046    0.3650   -1.2387 H   0  0  0  0  0  0  0  0  0  0  0  0
    2.9805   -1.0321   -1.1259 H   0  0  0  0  0  0  0  0  0  0  0  0
    0.5904   -1.4138   -0.5241 H   0  0  0  0  0  0  0  0  0  0  0  0
   -0.2015   -2.7695    1.4826 H   0  0  0  0  0  0  0  0  0  0  0  0
   -1.3736   -2.3806    0.2460 H   0  0  0  0  0  0  0  0  0  0  0  0
   -2.6424   -1.9050    2.0742 H   0  0  0  0  0  0  0  0  0  0  0  0
   -1.2876   -1.4814    3.0961 H   0  0  0  0  0  0  0  0  0  0  0  0
   -1.2474    0.7300    2.4435 H   0  0  0  0  0  0  0  0  0  0  0  0
   -2.9482    0.4425    2.3218 H   0  0  0  0  0  0  0  0  0  0  0  0
   -3.1622   -0.7873   -3.5932 H   0  0  0  0  0  0  0  0  0  0  0  0
   -7.3495   -1.1835   -2.1737 H   0  0  0  0  0  0  0  0  0  0  0  0
   -7.9692   -1.7930   -0.6383 H   0  0  0  0  0  0  0  0  0  0  0  0
   -9.3809   -0.0193   -1.8909 H   0  0  0  0  0  0  0  0  0  0  0  0
   -8.1446    1.1667   -1.4853 H   0  0  0  0  0  0  0  0  0  0  0  0
   -9.8010   -0.4821    0.5038 H   0  0  0  0  0  0  0  0  0  0  0  0
  -10.1059    1.1837    0.0418 H   0  0  0  0  0  0  0  0  0  0  0  0
   -9.0456    1.1854    2.1767 H   0  0  0  0  0  0  0  0  0  0  0  0
   -7.9271    1.8940    1.0172 H   0  0  0  0  0  0  0  0  0  0  0  0
   -6.9664    0.2546    2.7496 H   0  0  0  0  0  0  0  0  0  0  0  0
   -7.8057   -1.0487    1.9186 H   0  0  0  0  0  0  0  0  0  0  0  0
   -0.4028    0.5592   -1.0977 H   0  0  0  0  0  0  0  0  0  0  0  0
    0.0701    1.2553    0.4133 H   0  0  0  0  0  0  0  0  0  0  0  0
    3.6669    1.2260    1.7720 H   0  0  0  0  0  0  0  0  0  0  0  0
    3.6299   -0.3740    2.5169 H   0  0  0  0  0  0  0  0  0  0  0  0
    5.1476   -1.2794    0.7868 H   0  0  0  0  0  0  0  0  0  0  0  0
    5.8512    0.1333    1.6013 H   0  0  0  0  0  0  0  0  0  0  0  0
    7.5586   -0.6446    0.2282 H   0  0  0  0  0  0  0  0  0  0  0  0
  1  2  1  0
  2  3  1  0
  3  4  2  0
  4  5  1  0
  5  6  2  0
  6  7  1  0
  7  8  1  0
  8  9  1  0
  9 10  1  0
 10 11  1  0
 11 12  1  0
 12 13  2  0
 12 14  1  0
 14 15  1  0
 15 16  1  0
 16 17  1  0
 17 18  1  0
 18 19  1  0
 19 20  2  0
 20 21  1  0
 21 22  2  0
 22 23  1  0
 23 24  2  0
 24 25  1  0
 25 26  2  0
 26 27  1  0
 27 28  1  0
 28 29  1  0
 29 30  1  0
 30 31  1  0
 31 32  1  0
 18 33  1  0
 11 34  1  0
 34 35  1  0
  7 36  2  0
 36  3  1  0
 35  8  1  0
 33 14  1  0
 24 19  1  0
 32 26  1  0
 27 23  1  0
  1 37  1  0
  1 38  1  0
  1 39  1  0
  4 40  1  0
  5 41  1  0
  6 42  1  0
  9 43  1  0
  9 44  1  0
 10 45  1  0
 10 46  1  0
 14 47  1  0
 15 48  1  0
 15 49  1  0
 16 50  1  0
 16 51  1  0
 17 52  1  0
 17 53  1  0
 21 54  1  0
 28 55  1  0
 28 56  1  0
 29 57  1  0
 29 58  1  0
 30 59  1  0
 30 60  1  0
 31 61  1  0
 31 62  1  0
 32 63  1  0
 32 64  1  0
 33 65  1  0
 33 66  1  0
 34 67  1  0
 34 68  1  0
 35 69  1  0
 35 70  1  0
 36 71  1  0
M  END
$$$$
