
     RDKit          3D

 47 50  0  0  0  0  0  0  0  0999 V2000
    3.5607   -1.8710    1.0876 C   0  0  0  0  0  0  0  0  0  0  0  0
    3.0870   -0.5203    0.8881 N   0  0  0  0  0  0  0  0  0  0  0  0
    3.8536    0.6308    0.9237 C   0  0  0  0  0  0  0  0  0  0  0  0
    5.2781    0.7092    1.2232 C   0  0  0  0  0  0  0  0  0  0  0  0
    5.7777    0.2634    2.4534 C   0  0  0  0  0  0  0  0  0  0  0  0
    7.1434    0.3481    2.7349 C   0  0  0  0  0  0  0  0  0  0  0  0
    8.0177    0.8847    1.7909 C   0  0  0  0  0  0  0  0  0  0  0  0
    7.5281    1.3409    0.5683 C   0  0  0  0  0  0  0  0  0  0  0  0
    6.1627    1.2566    0.2863 C   0  0  0  0  0  0  0  0  0  0  0  0
    2.9622    1.6373    0.5973 C   0  0  0  0  0  0  0  0  0  0  0  0
    1.6965    1.1509    0.4080 N   0  0  0  0  0  0  0  0  0  0  0  0
    1.7979   -0.1424    0.6060 C   0  0  0  0  0  0  0  0  0  0  0  0
    0.4766   -1.2604    0.5360 S   0  0  0  0  0  0  0  0  0  0  0  0
   -0.9028   -0.0997    0.2951 C   0  0  0  0  0  0  0  0  0  0  0  0
   -2.2516   -0.8207    0.2361 C   0  0  0  0  0  0  0  0  0  0  0  0
   -2.4211   -1.8837    0.8375 O   0  0  0  0  0  0  0  0  0  0  0  0
   -3.2605   -0.1659   -0.5063 N   0  0  0  0  0  0  0  0  0  0  0  0
   -3.1508    1.2681   -0.8075 C   0  0  0  0  0  0  0  0  0  0  0  0
   -4.4867    1.9851   -0.7559 C   0  0  0  0  0  0  0  0  0  0  0  0
   -5.4169    1.3752   -1.7816 C   0  0  0  0  0  0  0  0  0  0  0  0
   -5.4642   -0.1226   -1.6423 C   0  0  0  0  0  0  0  0  0  0  0  0
   -6.5776   -0.7902   -2.1883 C   0  0  0  0  0  0  0  0  0  0  0  0
   -6.6812   -2.1744   -2.1200 C   0  0  0  0  0  0  0  0  0  0  0  0
   -5.6652   -2.9039   -1.5206 C   0  0  0  0  0  0  0  0  0  0  0  0
   -4.5478   -2.2503   -0.9879 C   0  0  0  0  0  0  0  0  0  0  0  0
   -4.4217   -0.8525   -1.0266 C   0  0  0  0  0  0  0  0  0  0  0  0
    3.0644   -2.5416    0.3818 H   0  0  0  0  0  0  0  0  0  0  0  0
    4.6356   -1.9230    0.9007 H   0  0  0  0  0  0  0  0  0  0  0  0
    3.3405   -2.1610    2.1180 H   0  0  0  0  0  0  0  0  0  0  0  0
    5.1063   -0.1414    3.2075 H   0  0  0  0  0  0  0  0  0  0  0  0
    7.5235    0.0012    3.6923 H   0  0  0  0  0  0  0  0  0  0  0  0
    9.0803    0.9522    2.0103 H   0  0  0  0  0  0  0  0  0  0  0  0
    8.2086    1.7634   -0.1670 H   0  0  0  0  0  0  0  0  0  0  0  0
    5.7961    1.6135   -0.6735 H   0  0  0  0  0  0  0  0  0  0  0  0
    3.1742    2.6955    0.5054 H   0  0  0  0  0  0  0  0  0  0  0  0
   -0.9329    0.6112    1.1269 H   0  0  0  0  0  0  0  0  0  0  0  0
   -0.7201    0.4259   -0.6465 H   0  0  0  0  0  0  0  0  0  0  0  0
   -2.4914    1.7556   -0.0832 H   0  0  0  0  0  0  0  0  0  0  0  0
   -2.6864    1.3644   -1.7967 H   0  0  0  0  0  0  0  0  0  0  0  0
   -4.9191    1.8926    0.2489 H   0  0  0  0  0  0  0  0  0  0  0  0
   -4.3541    3.0539   -0.9581 H   0  0  0  0  0  0  0  0  0  0  0  0
   -5.0775    1.6220   -2.7950 H   0  0  0  0  0  0  0  0  0  0  0  0
   -6.4181    1.8029   -1.6503 H   0  0  0  0  0  0  0  0  0  0  0  0
   -7.3728   -0.2248   -2.6702 H   0  0  0  0  0  0  0  0  0  0  0  0
   -7.5459   -2.6821   -2.5382 H   0  0  0  0  0  0  0  0  0  0  0  0
   -5.7280   -3.9879   -1.4685 H   0  0  0  0  0  0  0  0  0  0  0  0
   -3.7775   -2.8853   -0.5627 H   0  0  0  0  0  0  0  0  0  0  0  0
  1  2  1  0
  2  3  1  0
  3  4  1  0
  4  5  2  0
  5  6  1  0
  6  7  2  0
  7  8  1  0
  8  9  2  0
  3 10  2  0
 10 11  1  0
 11 12  2  0
 12 13  1  0
 13 14  1  0
 14 15  1  0
 15 16  2  0
 15 17  1  0
 17 18  1  0
 18 19  1  0
 19 20  1  0
 20 21  1  0
 21 22  2  0
 22 23  1  0
 23 24  2  0
 24 25  1  0
 25 26  2  0
 12  2  1  0
 26 17  1  0
  9  4  1  0
 26 21  1  0
  1 27  1  0
  1 28  1  0
  1 29  1  0
  5 30  1  0
  6 31  1  0
  7 32  1  0
  8 33  1  0
  9 34  1  0
 10 35  1  0
 14 36  1  0
 14 37  1  0
 18 38  1  0
 18 39  1  0
 19 40  1  0
 19 41  1  0
 20 42  1  0
 20 43  1  0
 22 44  1  0
 23 45  1  0
 24 46  1  0
 25 47  1  0
M  END
$$$$
