
     RDKit          3D

 33 34  0  0  0  0  0  0  0  0999 V2000
    6.4230    1.1879   -0.4563 C   0  0  0  0  0  0  0  0  0  0  0  0
    5.4785    1.0024    0.7237 C   0  0  0  0  0  0  0  0  0  0  0  0
    5.3920   -0.4396    1.2278 C   0  0  0  0  0  0  0  0  0  0  0  0
    4.6924   -1.6088    0.0198 S   0  0  0  0  0  0  0  0  0  0  0  0
    2.9907   -1.2149    0.0937 C   0  0  0  0  0  0  0  0  0  0  0  0
    2.4731   -0.4146    0.9995 N   0  0  0  0  0  0  0  0  0  0  0  0
    1.1064   -0.2657    0.8406 N   0  0  0  0  0  0  0  0  0  0  0  0
    0.6587   -0.9642   -0.1731 C   0  0  0  0  0  0  0  0  0  0  0  0
   -0.6082   -1.1099   -0.6700 N   0  0  0  0  0  0  0  0  0  0  0  0
   -1.6759   -0.3857   -0.1775 C   0  0  0  0  0  0  0  0  0  0  0  0
   -1.5950    0.4653    0.6970 O   0  0  0  0  0  0  0  0  0  0  0  0
   -2.8504   -0.7614   -0.8186 N   0  0  0  0  0  0  0  0  0  0  0  0
   -4.1369   -0.2035   -0.6554 C   0  0  0  0  0  0  0  0  0  0  0  0
   -4.4084    0.9279    0.1158 C   0  0  0  0  0  0  0  0  0  0  0  0
   -5.7137    1.4208    0.2178 C   0  0  0  0  0  0  0  0  0  0  0  0
   -6.7580    0.7894   -0.4527 C   0  0  0  0  0  0  0  0  0  0  0  0
   -6.4986   -0.3364   -1.2287 C   0  0  0  0  0  0  0  0  0  0  0  0
   -5.1946   -0.8289   -1.3305 C   0  0  0  0  0  0  0  0  0  0  0  0
    1.8470   -1.8591   -1.0126 S   0  0  0  0  0  0  0  0  0  0  0  0
    6.5158    2.2519   -0.6972 H   0  0  0  0  0  0  0  0  0  0  0  0
    6.0577    0.6775   -1.3522 H   0  0  0  0  0  0  0  0  0  0  0  0
    7.4223    0.8068   -0.2230 H   0  0  0  0  0  0  0  0  0  0  0  0
    5.8396    1.6283    1.5492 H   0  0  0  0  0  0  0  0  0  0  0  0
    4.4862    1.3851    0.4600 H   0  0  0  0  0  0  0  0  0  0  0  0
    6.3984   -0.7953    1.4756 H   0  0  0  0  0  0  0  0  0  0  0  0
    4.8126   -0.4808    2.1565 H   0  0  0  0  0  0  0  0  0  0  0  0
   -0.7102   -1.6806   -1.4903 H   0  0  0  0  0  0  0  0  0  0  0  0
   -2.8059   -1.5878   -1.3932 H   0  0  0  0  0  0  0  0  0  0  0  0
   -3.6262    1.4572    0.6513 H   0  0  0  0  0  0  0  0  0  0  0  0
   -5.9087    2.3018    0.8245 H   0  0  0  0  0  0  0  0  0  0  0  0
   -7.7704    1.1759   -0.3698 H   0  0  0  0  0  0  0  0  0  0  0  0
   -7.3106   -0.8317   -1.7545 H   0  0  0  0  0  0  0  0  0  0  0  0
   -5.0228   -1.7094   -1.9435 H   0  0  0  0  0  0  0  0  0  0  0  0
  1  2  1  0
  2  3  1  0
  3  4  1  0
  4  5  1  0
  5  6  2  0
  6  7  1  0
  7  8  2  0
  8  9  1  0
  9 10  1  0
 10 11  2  0
 10 12  1  0
 12 13  1  0
 13 14  2  0
 14 15  1  0
 15 16  2  0
 16 17  1  0
 17 18  2  0
  8 19  1  0
 19  5  1  0
 18 13  1  0
  1 20  1  0
  1 21  1  0
  1 22  1  0
  2 23  1  0
  2 24  1  0
  3 25  1  0
  3 26  1  0
  9 27  1  0
 12 28  1  0
 14 29  1  0
 15 30  1  0
 16 31  1  0
 17 32  1  0
 18 33  1  0
M  END
$$$$
