
     RDKit          3D

 73 78  0  0  0  0  0  0  0  0999 V2000
    9.9233   -0.1413    0.4707 C   0  0  0  0  0  0  0  0  0  0  0  0
    8.5016   -0.3077    0.0208 C   0  0  0  0  0  0  0  0  0  0  0  0
    7.5524    0.6835    0.2808 C   0  0  0  0  0  0  0  0  0  0  0  0
    6.2217    0.5092   -0.1108 C   0  0  0  0  0  0  0  0  0  0  0  0
    5.8018   -0.6547   -0.7725 C   0  0  0  0  0  0  0  0  0  0  0  0
    4.4629   -0.8562   -1.1493 N   0  0  0  0  0  0  0  0  0  0  0  0
    3.6235   -1.3895   -0.0552 C   0  0  0  0  0  0  0  0  0  0  0  0
    2.6795   -0.3245    0.5323 C   0  0  0  0  0  0  0  0  0  0  0  0
    1.8747    0.3760   -0.4814 N   0  0  0  0  0  0  0  0  0  0  0  0
    0.9255    1.3538   -0.1963 C   0  0  0  0  0  0  0  0  0  0  0  0
    0.5064    2.1083   -1.0765 O   0  0  0  0  0  0  0  0  0  0  0  0
    0.4290    1.4598    1.2505 C   0  0  0  0  0  0  0  0  0  0  0  0
   -0.2113    2.8297    1.5627 C   0  0  0  0  0  0  0  0  0  0  0  0
   -1.3569    2.6979    2.5651 C   0  0  0  0  0  0  0  0  0  0  0  0
   -2.4634    1.8233    1.9757 C   0  0  0  0  0  0  0  0  0  0  0  0
   -1.9086    0.6172    1.3680 N   0  0  0  0  0  0  0  0  0  0  0  0
   -2.6491   -0.0609    0.4078 C   0  0  0  0  0  0  0  0  0  0  0  0
   -2.0196   -0.9603   -0.4107 N   0  0  0  0  0  0  0  0  0  0  0  0
   -2.7237   -1.6053   -1.3639 C   0  0  0  0  0  0  0  0  0  0  0  0
   -4.0369   -1.5162   -1.6362 N   0  0  0  0  0  0  0  0  0  0  0  0
   -4.6354   -0.6470   -0.8062 C   0  0  0  0  0  0  0  0  0  0  0  0
   -4.0479    0.0953    0.2069 C   0  0  0  0  0  0  0  0  0  0  0  0
   -5.0090    0.8664    0.8460 N   0  0  0  0  0  0  0  0  0  0  0  0
   -6.1448    0.6129    0.2255 C   0  0  0  0  0  0  0  0  0  0  0  0
   -5.9596   -0.3016   -0.7851 N   0  0  0  0  0  0  0  0  0  0  0  0
   -6.9854   -0.8052   -1.6718 C   0  0  0  0  0  0  0  0  0  0  0  0
   -8.1012   -1.5399   -0.9345 C   0  0  0  0  0  0  0  0  0  0  0  0
   -9.0863   -0.6195   -0.2081 C   0  0  0  0  0  0  0  0  0  0  0  0
   -8.4969    0.1665    0.9649 C   0  0  0  0  0  0  0  0  0  0  0  0
   -7.4652    1.2160    0.5524 C   0  0  0  0  0  0  0  0  0  0  0  0
   -0.5059    0.2855    1.5790 C   0  0  0  0  0  0  0  0  0  0  0  0
    2.3227    0.1994   -1.8732 C   0  0  0  0  0  0  0  0  0  0  0  0
    3.8557    0.2170   -1.9738 C   0  0  0  0  0  0  0  0  0  0  0  0
    6.7546   -1.6647   -1.0182 C   0  0  0  0  0  0  0  0  0  0  0  0
    6.3613   -2.9510   -1.6953 C   0  0  0  0  0  0  0  0  0  0  0  0
    8.0897   -1.4869   -0.6100 C   0  0  0  0  0  0  0  0  0  0  0  0
   10.6116   -0.6592   -0.2050 H   0  0  0  0  0  0  0  0  0  0  0  0
   10.2123    0.9150    0.4759 H   0  0  0  0  0  0  0  0  0  0  0  0
   10.0451   -0.5470    1.4789 H   0  0  0  0  0  0  0  0  0  0  0  0
    7.8364    1.5974    0.7974 H   0  0  0  0  0  0  0  0  0  0  0  0
    5.5123    1.2952    0.1263 H   0  0  0  0  0  0  0  0  0  0  0  0
    4.2246   -1.8365    0.7471 H   0  0  0  0  0  0  0  0  0  0  0  0
    3.0193   -2.2038   -0.4748 H   0  0  0  0  0  0  0  0  0  0  0  0
    2.0156   -0.7938    1.2628 H   0  0  0  0  0  0  0  0  0  0  0  0
    3.2605    0.4395    1.0621 H   0  0  0  0  0  0  0  0  0  0  0  0
    1.3097    1.3804    1.9008 H   0  0  0  0  0  0  0  0  0  0  0  0
   -0.5939    3.3186    0.6560 H   0  0  0  0  0  0  0  0  0  0  0  0
    0.5547    3.5019    1.9713 H   0  0  0  0  0  0  0  0  0  0  0  0
   -1.7608    3.6871    2.8096 H   0  0  0  0  0  0  0  0  0  0  0  0
   -0.9841    2.2660    3.5032 H   0  0  0  0  0  0  0  0  0  0  0  0
   -2.9890    2.4297    1.2266 H   0  0  0  0  0  0  0  0  0  0  0  0
   -3.1764    1.5586    2.7646 H   0  0  0  0  0  0  0  0  0  0  0  0
   -2.1533   -2.2854   -1.9928 H   0  0  0  0  0  0  0  0  0  0  0  0
   -7.3690    0.0447   -2.2457 H   0  0  0  0  0  0  0  0  0  0  0  0
   -6.5131   -1.4917   -2.3826 H   0  0  0  0  0  0  0  0  0  0  0  0
   -8.6720   -2.1177   -1.6712 H   0  0  0  0  0  0  0  0  0  0  0  0
   -7.6801   -2.2640   -0.2261 H   0  0  0  0  0  0  0  0  0  0  0  0
   -9.5412    0.0762   -0.9231 H   0  0  0  0  0  0  0  0  0  0  0  0
   -9.9017   -1.2422    0.1804 H   0  0  0  0  0  0  0  0  0  0  0  0
   -9.3259    0.6844    1.4650 H   0  0  0  0  0  0  0  0  0  0  0  0
   -8.0669   -0.5296    1.6987 H   0  0  0  0  0  0  0  0  0  0  0  0
   -7.8330    1.8148   -0.2894 H   0  0  0  0  0  0  0  0  0  0  0  0
   -7.3250    1.9104    1.3914 H   0  0  0  0  0  0  0  0  0  0  0  0
   -0.3871    0.0431    2.6441 H   0  0  0  0  0  0  0  0  0  0  0  0
   -0.2061   -0.6287    1.0573 H   0  0  0  0  0  0  0  0  0  0  0  0
    1.9002    0.9660   -2.5315 H   0  0  0  0  0  0  0  0  0  0  0  0
    1.9320   -0.7695   -2.2093 H   0  0  0  0  0  0  0  0  0  0  0  0
    4.1999    1.2128   -1.6695 H   0  0  0  0  0  0  0  0  0  0  0  0
    4.1545    0.0718   -3.0186 H   0  0  0  0  0  0  0  0  0  0  0  0
    5.7739   -2.7537   -2.5973 H   0  0  0  0  0  0  0  0  0  0  0  0
    5.7808   -3.5758   -1.0105 H   0  0  0  0  0  0  0  0  0  0  0  0
    7.2406   -3.5233   -2.0068 H   0  0  0  0  0  0  0  0  0  0  0  0
    8.8152   -2.2772   -0.7933 H   0  0  0  0  0  0  0  0  0  0  0  0
  1  2  1  0
  2  3  2  0
  3  4  1  0
  4  5  2  0
  5  6  1  0
  6  7  1  0
  7  8  1  0
  8  9  1  0
  9 10  1  0
 10 11  2  0
 10 12  1  0
 12 13  1  0
 13 14  1  0
 14 15  1  0
 15 16  1  0
 16 17  1  0
 17 18  2  0
 18 19  1  0
 19 20  2  0
 20 21  1  0
 21 22  2  0
 22 23  1  0
 23 24  2  0
 24 25  1  0
 25 26  1  0
 26 27  1  0
 27 28  1  0
 28 29  1  0
 29 30  1  0
 16 31  1  0
  9 32  1  0
 32 33  1  0
  5 34  1  0
 34 35  1  0
 34 36  2  0
 36  2  1  0
 33  6  1  0
 31 12  1  0
 22 17  1  0
 30 24  1  0
 25 21  1  0
  1 37  1  0
  1 38  1  0
  1 39  1  0
  3 40  1  0
  4 41  1  0
  7 42  1  0
  7 43  1  0
  8 44  1  0
  8 45  1  0
 12 46  1  0
 13 47  1  0
 13 48  1  0
 14 49  1  0
 14 50  1  0
 15 51  1  0
 15 52  1  0
 19 53  1  0
 26 54  1  0
 26 55  1  0
 27 56  1  0
 27 57  1  0
 28 58  1  0
 28 59  1  0
 29 60  1  0
 29 61  1  0
 30 62  1  0
 30 63  1  0
 31 64  1  0
 31 65  1  0
 32 66  1  0
 32 67  1  0
 33 68  1  0
 33 69  1  0
 35 70  1  0
 35 71  1  0
 35 72  1  0
 36 73  1  0
M  END
$$$$
