
     RDKit          3D

 49 52  0  0  0  0  0  0  0  0999 V2000
    0.8135   -2.3962    1.3542 N   0  0  0  0  0  0  0  0  0  0  0  0
   -0.0485   -1.5409    1.9269 C   0  0  0  0  0  0  0  0  0  0  0  0
   -0.3007   -1.5224    3.2021 N   0  0  0  0  0  0  0  0  0  0  0  0
   -1.2560   -0.3911    3.3606 C   0  0  0  0  0  0  0  0  0  0  0  0
   -1.7038    0.0274    1.9425 C   0  0  0  0  0  0  0  0  0  0  0  0
   -3.1328   -0.4647    1.6534 C   0  0  0  0  0  0  0  0  0  0  0  0
   -3.6881    0.0450    0.3423 C   0  0  0  0  0  0  0  0  0  0  0  0
   -3.6820   -0.7748   -0.7950 C   0  0  0  0  0  0  0  0  0  0  0  0
   -4.1735   -0.2991   -2.0110 C   0  0  0  0  0  0  0  0  0  0  0  0
   -4.6738    0.9942   -2.0926 C   0  0  0  0  0  0  0  0  0  0  0  0
   -5.1435    1.4184   -3.3002 O   0  0  0  0  0  0  0  0  0  0  0  0
   -4.6909    1.8237   -0.9762 C   0  0  0  0  0  0  0  0  0  0  0  0
   -4.1968    1.3484    0.2409 C   0  0  0  0  0  0  0  0  0  0  0  0
   -0.7236   -0.6821    1.1200 N   0  0  0  0  0  0  0  0  0  0  0  0
   -0.1512   -0.0080   -0.0445 C   0  0  0  0  0  0  0  0  0  0  0  0
    0.8825    1.0717    0.3178 C   0  0  0  0  0  0  0  0  0  0  0  0
    2.3120    0.5708    0.4054 C   0  0  0  0  0  0  0  0  0  0  0  0
    2.8462    0.3376    1.6849 C   0  0  0  0  0  0  0  0  0  0  0  0
    4.1472   -0.1256    1.8419 C   0  0  0  0  0  0  0  0  0  0  0  0
    4.9374   -0.3630    0.7219 C   0  0  0  0  0  0  0  0  0  0  0  0
    4.4385   -0.1448   -0.5702 C   0  0  0  0  0  0  0  0  0  0  0  0
    5.2540   -0.3957   -1.6864 C   0  0  0  0  0  0  0  0  0  0  0  0
    4.7840   -0.1883   -2.9815 C   0  0  0  0  0  0  0  0  0  0  0  0
    3.4903    0.2739   -3.1769 C   0  0  0  0  0  0  0  0  0  0  0  0
    2.6670    0.5283   -2.0767 C   0  0  0  0  0  0  0  0  0  0  0  0
    3.1122    0.3271   -0.7485 C   0  0  0  0  0  0  0  0  0  0  0  0
    1.1014   -3.1232    1.9977 H   0  0  0  0  0  0  0  0  0  0  0  0
    0.4987   -2.7642    0.4681 H   0  0  0  0  0  0  0  0  0  0  0  0
   -2.0926   -0.6919    3.9993 H   0  0  0  0  0  0  0  0  0  0  0  0
   -0.7314    0.4352    3.8544 H   0  0  0  0  0  0  0  0  0  0  0  0
   -1.6380    1.1167    1.8362 H   0  0  0  0  0  0  0  0  0  0  0  0
   -3.8071   -0.1316    2.4536 H   0  0  0  0  0  0  0  0  0  0  0  0
   -3.1743   -1.5621    1.6668 H   0  0  0  0  0  0  0  0  0  0  0  0
   -3.2850   -1.7863   -0.7405 H   0  0  0  0  0  0  0  0  0  0  0  0
   -4.1663   -0.9362   -2.8907 H   0  0  0  0  0  0  0  0  0  0  0  0
   -5.4908    2.3195   -3.1983 H   0  0  0  0  0  0  0  0  0  0  0  0
   -5.0815    2.8347   -1.0324 H   0  0  0  0  0  0  0  0  0  0  0  0
   -4.2142    2.0010    1.1109 H   0  0  0  0  0  0  0  0  0  0  0  0
   -0.9664    0.4839   -0.5868 H   0  0  0  0  0  0  0  0  0  0  0  0
    0.2626   -0.7470   -0.7399 H   0  0  0  0  0  0  0  0  0  0  0  0
    0.6101    1.5723    1.2556 H   0  0  0  0  0  0  0  0  0  0  0  0
    0.8486    1.8695   -0.4349 H   0  0  0  0  0  0  0  0  0  0  0  0
    2.2353    0.4956    2.5721 H   0  0  0  0  0  0  0  0  0  0  0  0
    4.5404   -0.3108    2.8377 H   0  0  0  0  0  0  0  0  0  0  0  0
    5.9515   -0.7282    0.8673 H   0  0  0  0  0  0  0  0  0  0  0  0
    6.2710   -0.7583   -1.5523 H   0  0  0  0  0  0  0  0  0  0  0  0
    5.4286   -0.3875   -3.8331 H   0  0  0  0  0  0  0  0  0  0  0  0
    3.1169    0.4390   -4.1841 H   0  0  0  0  0  0  0  0  0  0  0  0
    1.6628    0.8899   -2.2788 H   0  0  0  0  0  0  0  0  0  0  0  0
  1  2  1  0
  2  3  2  0
  3  4  1  0
  4  5  1  0
  5  6  1  0
  6  7  1  0
  7  8  2  0
  8  9  1  0
  9 10  2  0
 10 11  1  0
 10 12  1  0
 12 13  2  0
  5 14  1  0
 14 15  1  0
 15 16  1  0
 16 17  1  0
 17 18  2  0
 18 19  1  0
 19 20  2  0
 20 21  1  0
 21 22  2  0
 22 23  1  0
 23 24  2  0
 24 25  1  0
 25 26  2  0
 14  2  1  0
 26 17  1  0
 13  7  1  0
 26 21  1  0
  1 27  1  0
  1 28  1  0
  4 29  1  0
  4 30  1  0
  5 31  1  0
  6 32  1  0
  6 33  1  0
  8 34  1  0
  9 35  1  0
 11 36  1  0
 12 37  1  0
 13 38  1  0
 15 39  1  0
 15 40  1  0
 16 41  1  0
 16 42  1  0
 18 43  1  0
 19 44  1  0
 20 45  1  0
 22 46  1  0
 23 47  1  0
 24 48  1  0
 25 49  1  0
M  END
$$$$
