
     RDKit          3D

 56 59  0  0  0  0  0  0  0  0999 V2000
    3.0106   -5.2103   -1.2796 C   0  0  0  0  0  0  0  0  0  0  0  0
    3.1821   -3.8389   -1.6129 O   0  0  0  0  0  0  0  0  0  0  0  0
    2.8221   -2.9249   -0.6622 C   0  0  0  0  0  0  0  0  0  0  0  0
    2.1779   -3.2040    0.5408 C   0  0  0  0  0  0  0  0  0  0  0  0
    1.8648   -2.1651    1.4262 C   0  0  0  0  0  0  0  0  0  0  0  0
    2.1757   -0.8370    1.1160 C   0  0  0  0  0  0  0  0  0  0  0  0
    1.8632    0.1501    2.0964 N   0  0  0  0  0  0  0  0  0  0  0  0
    1.5547    1.7682    1.7337 S   0  0  0  0  0  6  0  0  0  0  0  0
    2.7558    2.2972    1.1223 O   0  0  0  0  0  0  0  0  0  0  0  0
    1.0242    2.3431    2.9550 O   0  0  0  0  0  0  0  0  0  0  0  0
    0.2057    1.7401    0.5617 C   0  0  0  0  0  0  0  0  0  0  0  0
   -0.6999    0.6614    0.6762 C   0  0  0  0  0  0  0  0  0  0  0  0
   -1.6841    0.4462   -0.2782 C   0  0  0  0  0  0  0  0  0  0  0  0
   -2.5855   -0.6384   -0.2570 N   0  0  0  0  0  0  0  0  0  0  0  0
   -2.6247   -1.6819    0.6497 C   0  0  0  0  0  0  0  0  0  0  0  0
   -1.8584   -1.8565    1.5928 O   0  0  0  0  0  0  0  0  0  0  0  0
   -3.6421   -2.7313    0.3996 C   0  0  0  0  0  0  0  0  0  0  0  0
   -3.2791   -4.0616    0.6512 C   0  0  0  0  0  0  0  0  0  0  0  0
   -4.1915   -5.0875    0.4187 C   0  0  0  0  0  0  0  0  0  0  0  0
   -5.4468   -4.7516   -0.0560 C   0  0  0  0  0  0  0  0  0  0  0  0
   -5.8382   -3.4839   -0.2955 N   0  0  0  0  0  0  0  0  0  0  0  0
   -4.9339   -2.5029   -0.0525 C   0  0  0  0  0  0  0  0  0  0  0  0
   -5.5951   -0.9414   -0.3480 Cl  0  0  0  0  0  0  0  0  0  0  0  0
   -1.7818    1.3446   -1.3355 C   0  0  0  0  0  0  0  0  0  0  0  0
   -0.9129    2.4413   -1.4235 C   0  0  0  0  0  0  0  0  0  0  0  0
    0.0909    2.6919   -0.4700 C   0  0  0  0  0  0  0  0  0  0  0  0
    0.8639    3.8344   -0.5583 N   0  0  0  0  0  0  0  0  0  0  0  0
    0.8221    4.8113    0.5451 C   0  0  0  0  0  0  0  0  0  0  0  0
    1.0662    6.1623   -0.1289 C   0  0  0  0  0  0  0  0  0  0  0  0
    1.8619    5.7921   -1.3691 C   0  0  0  0  0  0  0  0  0  0  0  0
    1.1673    4.5121   -1.8196 C   0  0  0  0  0  0  0  0  0  0  0  0
    2.8427   -0.5635   -0.0759 C   0  0  0  0  0  0  0  0  0  0  0  0
    3.1491   -1.6010   -0.9644 C   0  0  0  0  0  0  0  0  0  0  0  0
    1.9510   -5.4550   -1.1571 H   0  0  0  0  0  0  0  0  0  0  0  0
    3.5859   -5.4716   -0.3856 H   0  0  0  0  0  0  0  0  0  0  0  0
    3.3958   -5.8073   -2.1119 H   0  0  0  0  0  0  0  0  0  0  0  0
    1.9030   -4.2138    0.8236 H   0  0  0  0  0  0  0  0  0  0  0  0
    1.3597   -2.4094    2.3576 H   0  0  0  0  0  0  0  0  0  0  0  0
    1.4340   -0.1423    2.9705 H   0  0  0  0  0  0  0  0  0  0  0  0
   -0.6070   -0.0093    1.5215 H   0  0  0  0  0  0  0  0  0  0  0  0
   -3.2614   -0.6495   -1.0135 H   0  0  0  0  0  0  0  0  0  0  0  0
   -2.2838   -4.2976    1.0248 H   0  0  0  0  0  0  0  0  0  0  0  0
   -3.9275   -6.1223    0.6026 H   0  0  0  0  0  0  0  0  0  0  0  0
   -6.1951   -5.5142   -0.2561 H   0  0  0  0  0  0  0  0  0  0  0  0
   -2.5378    1.2236   -2.1070 H   0  0  0  0  0  0  0  0  0  0  0  0
   -1.0676    3.1235   -2.2545 H   0  0  0  0  0  0  0  0  0  0  0  0
    1.6247    4.6168    1.2618 H   0  0  0  0  0  0  0  0  0  0  0  0
   -0.1371    4.8137    1.0753 H   0  0  0  0  0  0  0  0  0  0  0  0
    1.5943    6.8651    0.5218 H   0  0  0  0  0  0  0  0  0  0  0  0
    0.1099    6.6153   -0.4179 H   0  0  0  0  0  0  0  0  0  0  0  0
    1.8428    6.5726   -2.1345 H   0  0  0  0  0  0  0  0  0  0  0  0
    2.9060    5.5884   -1.1031 H   0  0  0  0  0  0  0  0  0  0  0  0
    1.8152    3.9059   -2.4601 H   0  0  0  0  0  0  0  0  0  0  0  0
    0.2590    4.7798   -2.3703 H   0  0  0  0  0  0  0  0  0  0  0  0
    3.1459    0.4436   -0.3458 H   0  0  0  0  0  0  0  0  0  0  0  0
    3.6634   -1.3708   -1.8950 H   0  0  0  0  0  0  0  0  0  0  0  0
  1  2  1  0
  2  3  1  0
  3  4  2  0
  4  5  1  0
  5  6  2  0
  6  7  1  0
  7  8  1  0
  8  9  2  0
  8 10  2  0
  8 11  1  0
 11 12  2  0
 12 13  1  0
 13 14  1  0
 14 15  1  0
 15 16  2  0
 15 17  1  0
 17 18  2  0
 18 19  1  0
 19 20  2  0
 20 21  1  0
 21 22  2  0
 22 23  1  0
 13 24  2  0
 24 25  1  0
 25 26  2  0
 26 27  1  0
 27 28  1  0
 28 29  1  0
 29 30  1  0
 30 31  1  0
  6 32  1  0
 32 33  2  0
 33  3  1  0
 26 11  1  0
 31 27  1  0
 22 17  1  0
  1 34  1  0
  1 35  1  0
  1 36  1  0
  4 37  1  0
  5 38  1  0
  7 39  1  0
 12 40  1  0
 14 41  1  0
 18 42  1  0
 19 43  1  0
 20 44  1  0
 24 45  1  0
 25 46  1  0
 28 47  1  0
 28 48  1  0
 29 49  1  0
 29 50  1  0
 30 51  1  0
 30 52  1  0
 31 53  1  0
 31 54  1  0
 32 55  1  0
 33 56  1  0
M  END
$$$$
