
     RDKit          3D

 72 77  0  0  0  0  0  0  0  0999 V2000
    7.0840    0.2073   -0.5533 O   0  0  0  0  0  0  0  0  0  0  0  0
    6.2550   -0.4155    0.1078 C   0  0  0  0  0  0  0  0  0  0  0  0
    5.5086    0.2394    1.2628 C   0  0  0  0  0  0  0  0  0  0  0  0
    3.8669   -0.4987    1.5268 S   0  0  0  0  0  0  0  0  0  0  0  0
    3.1212    0.7710    2.4888 C   0  0  0  0  0  0  0  0  0  0  0  0
    3.9012    1.4386    3.2955 N   0  0  0  0  0  0  0  0  0  0  0  0
    3.3682    2.4792    4.0882 C   0  0  0  0  0  0  0  0  0  0  0  0
    4.2223    3.1935    4.9286 C   0  0  0  0  0  0  0  0  0  0  0  0
    3.7291    4.2364    5.7164 C   0  0  0  0  0  0  0  0  0  0  0  0
    2.3751    4.5733    5.6687 C   0  0  0  0  0  0  0  0  0  0  0  0
    1.5100    3.8676    4.8326 C   0  0  0  0  0  0  0  0  0  0  0  0
    2.0068    2.8257    4.0461 C   0  0  0  0  0  0  0  0  0  0  0  0
    1.1690    2.0571    3.1468 C   0  0  0  0  0  0  0  0  0  0  0  0
   -0.1173    2.1833    2.9070 N   0  0  0  0  0  0  0  0  0  0  0  0
   -0.4194    1.2192    1.9661 C   0  0  0  0  0  0  0  0  0  0  0  0
   -1.8190    1.1819    1.4343 C   0  0  0  0  0  0  0  0  0  0  0  0
   -2.3235   -0.1661    0.9361 C   0  0  0  0  0  0  0  0  0  0  0  0
   -1.5746   -1.1332    0.7819 O   0  0  0  0  0  0  0  0  0  0  0  0
   -3.6771   -0.2477    0.6226 N   0  0  0  0  0  0  0  0  0  0  0  0
   -4.2319   -1.5087    0.1209 C   0  0  0  0  0  0  0  0  0  0  0  0
   -5.0426   -1.3180   -1.1731 C   0  0  0  0  0  0  0  0  0  0  0  0
   -6.0887   -0.2843   -1.0305 N   0  0  0  0  0  0  0  0  0  0  0  0
   -7.2403   -0.3717   -1.8052 C   0  0  0  0  0  0  0  0  0  0  0  0
   -8.4685    0.1706   -1.3941 C   0  0  0  0  0  0  0  0  0  0  0  0
   -9.6231    0.0784   -2.1829 C   0  0  0  0  0  0  0  0  0  0  0  0
   -9.5787   -0.5604   -3.4151 C   0  0  0  0  0  0  0  0  0  0  0  0
   -8.3793   -1.0996   -3.8576 C   0  0  0  0  0  0  0  0  0  0  0  0
   -7.2298   -0.9996   -3.0637 C   0  0  0  0  0  0  0  0  0  0  0  0
   -6.0250    0.5723    0.1644 C   0  0  0  0  0  0  0  0  0  0  0  0
   -4.5658    0.9193    0.5247 C   0  0  0  0  0  0  0  0  0  0  0  0
    0.7200    0.4946    1.6457 C   0  0  0  0  0  0  0  0  0  0  0  0
    0.9188   -0.5273    0.8179 O   0  0  0  0  0  0  0  0  0  0  0  0
    1.7432    1.0506    2.3980 N   0  0  0  0  0  0  0  0  0  0  0  0
    5.9819   -1.7477   -0.1086 N   0  0  0  0  0  0  0  0  0  0  0  0
    6.4992   -2.4742   -1.2527 C   0  0  0  0  0  0  0  0  0  0  0  0
    5.6439   -2.2904   -2.5099 C   0  0  0  0  0  0  0  0  0  0  0  0
    5.8675   -0.9819   -3.2513 C   0  0  0  0  0  0  0  0  0  0  0  0
    5.4260   -1.3453   -4.6474 C   0  0  0  0  0  0  0  0  0  0  0  0
    5.9338   -2.7645   -4.7762 C   0  0  0  0  0  0  0  0  0  0  0  0
    5.9234   -3.3367   -3.4598 O   0  0  0  0  0  0  0  0  0  0  0  0
    6.1158    0.1435    2.1677 H   0  0  0  0  0  0  0  0  0  0  0  0
    5.3869    1.2984    1.0108 H   0  0  0  0  0  0  0  0  0  0  0  0
    5.2778    2.9356    4.9687 H   0  0  0  0  0  0  0  0  0  0  0  0
    4.4036    4.7894    6.3653 H   0  0  0  0  0  0  0  0  0  0  0  0
    1.9963    5.3882    6.2807 H   0  0  0  0  0  0  0  0  0  0  0  0
    0.4552    4.1310    4.7909 H   0  0  0  0  0  0  0  0  0  0  0  0
   -2.4829    1.5168    2.2388 H   0  0  0  0  0  0  0  0  0  0  0  0
   -1.8886    1.8978    0.6073 H   0  0  0  0  0  0  0  0  0  0  0  0
   -4.8822   -1.9014    0.9124 H   0  0  0  0  0  0  0  0  0  0  0  0
   -3.4456   -2.2516   -0.0466 H   0  0  0  0  0  0  0  0  0  0  0  0
   -5.4814   -2.2901   -1.4315 H   0  0  0  0  0  0  0  0  0  0  0  0
   -4.3658   -1.0203   -1.9834 H   0  0  0  0  0  0  0  0  0  0  0  0
   -8.5661    0.6647   -0.4323 H   0  0  0  0  0  0  0  0  0  0  0  0
  -10.5572    0.5063   -1.8264 H   0  0  0  0  0  0  0  0  0  0  0  0
  -10.4732   -0.6344   -4.0269 H   0  0  0  0  0  0  0  0  0  0  0  0
   -8.3285   -1.5959   -4.8221 H   0  0  0  0  0  0  0  0  0  0  0  0
   -6.3084   -1.4100   -3.4659 H   0  0  0  0  0  0  0  0  0  0  0  0
   -6.5500    1.5202   -0.0014 H   0  0  0  0  0  0  0  0  0  0  0  0
   -6.5048    0.0576    1.0064 H   0  0  0  0  0  0  0  0  0  0  0  0
   -4.5402    1.4708    1.4706 H   0  0  0  0  0  0  0  0  0  0  0  0
   -4.1466    1.5733   -0.2504 H   0  0  0  0  0  0  0  0  0  0  0  0
    0.0399   -0.9277    0.6187 H   0  0  0  0  0  0  0  0  0  0  0  0
    5.1672   -2.1226    0.3642 H   0  0  0  0  0  0  0  0  0  0  0  0
    6.5183   -3.5323   -0.9677 H   0  0  0  0  0  0  0  0  0  0  0  0
    7.5376   -2.1774   -1.4404 H   0  0  0  0  0  0  0  0  0  0  0  0
    4.5828   -2.3884   -2.2497 H   0  0  0  0  0  0  0  0  0  0  0  0
    5.3023   -0.1456   -2.8276 H   0  0  0  0  0  0  0  0  0  0  0  0
    6.9306   -0.7120   -3.2638 H   0  0  0  0  0  0  0  0  0  0  0  0
    5.8207   -0.6802   -5.4194 H   0  0  0  0  0  0  0  0  0  0  0  0
    4.3316   -1.3303   -4.7080 H   0  0  0  0  0  0  0  0  0  0  0  0
    5.3181   -3.3707   -5.4459 H   0  0  0  0  0  0  0  0  0  0  0  0
    6.9660   -2.7843   -5.1399 H   0  0  0  0  0  0  0  0  0  0  0  0
  1  2  2  0
  2  3  1  0
  3  4  1  0
  4  5  1  0
  5  6  2  0
  6  7  1  0
  7  8  2  0
  8  9  1  0
  9 10  2  0
 10 11  1  0
 11 12  2  0
 12 13  1  0
 13 14  2  0
 14 15  1  0
 15 16  1  0
 16 17  1  0
 17 18  2  0
 17 19  1  0
 19 20  1  0
 20 21  1  0
 21 22  1  0
 22 23  1  0
 23 24  2  0
 24 25  1  0
 25 26  2  0
 26 27  1  0
 27 28  2  0
 22 29  1  0
 29 30  1  0
 15 31  2  0
 31 32  1  0
 31 33  1  0
  2 34  1  0
 34 35  1  0
 35 36  1  0
 36 37  1  0
 37 38  1  0
 38 39  1  0
 39 40  1  0
 33  5  1  0
 40 36  1  0
 12  7  1  0
 33 13  1  0
 30 19  1  0
 28 23  1  0
  3 41  1  0
  3 42  1  0
  8 43  1  0
  9 44  1  0
 10 45  1  0
 11 46  1  0
 16 47  1  0
 16 48  1  0
 20 49  1  0
 20 50  1  0
 21 51  1  0
 21 52  1  0
 24 53  1  0
 25 54  1  0
 26 55  1  0
 27 56  1  0
 28 57  1  0
 29 58  1  0
 29 59  1  0
 30 60  1  0
 30 61  1  0
 32 62  1  0
 34 63  1  0
 35 64  1  0
 35 65  1  0
 36 66  1  0
 37 67  1  0
 37 68  1  0
 38 69  1  0
 38 70  1  0
 39 71  1  0
 39 72  1  0
M  END
$$$$
