
     RDKit          3D

 49 51  0  0  0  0  0  0  0  0999 V2000
    6.3605    2.1914   -1.1117 C   0  0  0  0  0  0  0  0  0  0  0  0
    6.1434    0.9599   -0.2809 C   0  0  0  0  0  0  0  0  0  0  0  0
    7.2366    0.2058    0.1633 C   0  0  0  0  0  0  0  0  0  0  0  0
    7.0389   -0.9440    0.9286 C   0  0  0  0  0  0  0  0  0  0  0  0
    5.7471   -1.3583    1.2372 C   0  0  0  0  0  0  0  0  0  0  0  0
    5.6347   -2.4787    2.0165 O   0  0  0  0  0  0  0  0  0  0  0  0
    4.6377   -0.6484    0.7589 C   0  0  0  0  0  0  0  0  0  0  0  0
    3.2712   -1.1351    1.0763 C   0  0  0  0  0  0  0  0  0  0  0  0
    3.1008   -1.7923    2.1030 O   0  0  0  0  0  0  0  0  0  0  0  0
    2.1125   -0.8820    0.1982 C   0  0  0  0  0  0  0  0  0  0  0  0
    2.2114   -0.9171   -1.1862 C   0  0  0  0  0  0  0  0  0  0  0  0
    1.1652   -0.7023   -2.0197 N   0  0  0  0  0  0  0  0  0  0  0  0
   -0.0318   -0.4649   -1.4451 C   0  0  0  0  0  0  0  0  0  0  0  0
   -0.2411   -0.4456   -0.0774 C   0  0  0  0  0  0  0  0  0  0  0  0
    0.8536   -0.6694    0.7615 C   0  0  0  0  0  0  0  0  0  0  0  0
   -1.6318   -0.2886    0.4360 C   0  0  0  0  0  0  0  0  0  0  0  0
   -2.5357    0.3170   -0.5284 N   0  0  0  0  0  0  0  0  0  0  0  0
   -3.8590    0.7218   -0.0558 C   0  0  0  0  0  0  0  0  0  0  0  0
   -4.8240   -0.4637    0.0630 C   0  0  0  0  0  0  0  0  0  0  0  0
   -6.2536   -0.1036    0.5089 C   0  0  0  0  0  0  0  0  0  0  0  0
   -6.2871    0.5285    1.9002 C   0  0  0  0  0  0  0  0  0  0  0  0
   -6.9708    0.7904   -0.5027 C   0  0  0  0  0  0  0  0  0  0  0  0
   -2.3354    0.1775   -1.8890 C   0  0  0  0  0  0  0  0  0  0  0  0
   -3.1943    0.4336   -2.7305 O   0  0  0  0  0  0  0  0  0  0  0  0
   -1.1009   -0.2308   -2.2861 N   0  0  0  0  0  0  0  0  0  0  0  0
    4.8429    0.5237    0.0156 C   0  0  0  0  0  0  0  0  0  0  0  0
    6.3655    1.9290   -2.1741 H   0  0  0  0  0  0  0  0  0  0  0  0
    5.5702    2.9275   -0.9314 H   0  0  0  0  0  0  0  0  0  0  0  0
    7.3130    2.6700   -0.8607 H   0  0  0  0  0  0  0  0  0  0  0  0
    8.2528    0.5165   -0.0716 H   0  0  0  0  0  0  0  0  0  0  0  0
    7.8914   -1.5131    1.2906 H   0  0  0  0  0  0  0  0  0  0  0  0
    4.7032   -2.5354    2.3269 H   0  0  0  0  0  0  0  0  0  0  0  0
    3.1477   -1.1368   -1.6924 H   0  0  0  0  0  0  0  0  0  0  0  0
    0.7289   -0.6880    1.8422 H   0  0  0  0  0  0  0  0  0  0  0  0
   -1.6227    0.3459    1.3295 H   0  0  0  0  0  0  0  0  0  0  0  0
   -2.0289   -1.2744    0.7029 H   0  0  0  0  0  0  0  0  0  0  0  0
   -3.7299    1.2266    0.9073 H   0  0  0  0  0  0  0  0  0  0  0  0
   -4.2583    1.4625   -0.7568 H   0  0  0  0  0  0  0  0  0  0  0  0
   -4.4125   -1.1927    0.7727 H   0  0  0  0  0  0  0  0  0  0  0  0
   -4.8778   -0.9859   -0.9010 H   0  0  0  0  0  0  0  0  0  0  0  0
   -6.8141   -1.0463    0.5649 H   0  0  0  0  0  0  0  0  0  0  0  0
   -5.7626   -0.1004    2.6270 H   0  0  0  0  0  0  0  0  0  0  0  0
   -5.8245    1.5206    1.9081 H   0  0  0  0  0  0  0  0  0  0  0  0
   -7.3209    0.6437    2.2438 H   0  0  0  0  0  0  0  0  0  0  0  0
   -8.0250    0.9087   -0.2291 H   0  0  0  0  0  0  0  0  0  0  0  0
   -6.5287    1.7905   -0.5492 H   0  0  0  0  0  0  0  0  0  0  0  0
   -6.9343    0.3521   -1.5054 H   0  0  0  0  0  0  0  0  0  0  0  0
   -0.9248   -0.2673   -3.2786 H   0  0  0  0  0  0  0  0  0  0  0  0
    4.0015    1.1219   -0.3269 H   0  0  0  0  0  0  0  0  0  0  0  0
  1  2  1  0
  2  3  2  0
  3  4  1  0
  4  5  2  0
  5  6  1  0
  5  7  1  0
  7  8  1  0
  8  9  2  0
  8 10  1  0
 10 11  2  0
 11 12  1  0
 12 13  2  0
 13 14  1  0
 14 15  2  0
 14 16  1  0
 16 17  1  0
 17 18  1  0
 18 19  1  0
 19 20  1  0
 20 21  1  0
 20 22  1  0
 17 23  1  0
 23 24  2  0
 23 25  1  0
  7 26  2  0
 26  2  1  0
 15 10  1  0
 25 13  1  0
  1 27  1  0
  1 28  1  0
  1 29  1  0
  3 30  1  0
  4 31  1  0
  6 32  1  0
 11 33  1  0
 15 34  1  0
 16 35  1  0
 16 36  1  0
 18 37  1  0
 18 38  1  0
 19 39  1  0
 19 40  1  0
 20 41  1  0
 21 42  1  0
 21 43  1  0
 21 44  1  0
 22 45  1  0
 22 46  1  0
 22 47  1  0
 25 48  1  0
 26 49  1  0
M  END
$$$$
