
     RDKit          3D

 43 45  0  0  0  0  0  0  0  0999 V2000
    2.5759   -2.5874    0.7664 C   0  0  0  0  0  0  0  0  0  0  0  0
    2.8842   -1.7726   -0.3659 O   0  0  0  0  0  0  0  0  0  0  0  0
    2.3281   -0.5266   -0.2551 C   0  0  0  0  0  0  0  0  0  0  0  0
    1.3935   -0.1773   -1.2341 C   0  0  0  0  0  0  0  0  0  0  0  0
    0.7272    1.0641   -1.2068 C   0  0  0  0  0  0  0  0  0  0  0  0
   -0.2640    1.3306   -2.2798 C   0  0  0  0  0  0  0  0  0  0  0  0
    0.0631    2.3103   -3.2716 C   0  0  0  0  0  0  0  0  0  0  0  0
    0.3504    3.0917   -4.0792 N   0  0  0  0  0  0  0  0  0  0  0  0
   -1.4396    0.6711   -2.3780 C   0  0  0  0  0  0  0  0  0  0  0  0
   -1.9139   -0.3988   -1.4787 C   0  0  0  0  0  0  0  0  0  0  0  0
   -1.6390   -1.7204   -1.8652 C   0  0  0  0  0  0  0  0  0  0  0  0
   -1.9954   -2.7865   -1.0462 C   0  0  0  0  0  0  0  0  0  0  0  0
   -2.6370   -2.5441    0.1651 C   0  0  0  0  0  0  0  0  0  0  0  0
   -2.9505   -1.2367    0.5659 C   0  0  0  0  0  0  0  0  0  0  0  0
   -3.6137   -1.0126    1.7839 C   0  0  0  0  0  0  0  0  0  0  0  0
   -3.9518    0.2770    2.1907 C   0  0  0  0  0  0  0  0  0  0  0  0
   -3.6390    1.3591    1.3796 C   0  0  0  0  0  0  0  0  0  0  0  0
   -2.9791    1.1520    0.1667 C   0  0  0  0  0  0  0  0  0  0  0  0
   -2.6033   -0.1404   -0.2639 C   0  0  0  0  0  0  0  0  0  0  0  0
    1.0817    1.9680   -0.1817 C   0  0  0  0  0  0  0  0  0  0  0  0
    0.4936    3.3059   -0.0846 N   0  0  0  0  0  4  0  0  0  0  0  0
   -0.6909    3.4497   -0.4087 O   0  0  0  0  0  0  0  0  0  0  0  0
    1.2250    4.2158    0.3305 O   0  0  0  0  0  1  0  0  0  0  0  0
    2.0456    1.6323    0.7865 C   0  0  0  0  0  0  0  0  0  0  0  0
    2.6811    0.3949    0.7311 C   0  0  0  0  0  0  0  0  0  0  0  0
    3.6168    0.1306    1.6938 O   0  0  0  0  0  0  0  0  0  0  0  0
    4.9354    0.2000    1.1450 C   0  0  0  0  0  0  0  0  0  0  0  0
    2.7011   -3.6323    0.4659 H   0  0  0  0  0  0  0  0  0  0  0  0
    1.5396   -2.4565    1.0997 H   0  0  0  0  0  0  0  0  0  0  0  0
    3.2715   -2.3917    1.5871 H   0  0  0  0  0  0  0  0  0  0  0  0
    1.1803   -0.9018   -2.0184 H   0  0  0  0  0  0  0  0  0  0  0  0
   -2.1336    0.9008   -3.1863 H   0  0  0  0  0  0  0  0  0  0  0  0
   -1.1335   -1.9274   -2.8064 H   0  0  0  0  0  0  0  0  0  0  0  0
   -1.7715   -3.8061   -1.3491 H   0  0  0  0  0  0  0  0  0  0  0  0
   -2.9049   -3.3909    0.7940 H   0  0  0  0  0  0  0  0  0  0  0  0
   -3.8794   -1.8483    2.4282 H   0  0  0  0  0  0  0  0  0  0  0  0
   -4.4678    0.4338    3.1344 H   0  0  0  0  0  0  0  0  0  0  0  0
   -3.9106    2.3675    1.6821 H   0  0  0  0  0  0  0  0  0  0  0  0
   -2.7738    2.0229   -0.4511 H   0  0  0  0  0  0  0  0  0  0  0  0
    2.3175    2.3305    1.5765 H   0  0  0  0  0  0  0  0  0  0  0  0
    5.1093    1.1627    0.6508 H   0  0  0  0  0  0  0  0  0  0  0  0
    5.1256   -0.6241    0.4506 H   0  0  0  0  0  0  0  0  0  0  0  0
    5.6458    0.1111    1.9730 H   0  0  0  0  0  0  0  0  0  0  0  0
  1  2  1  0
  2  3  1  0
  3  4  2  0
  4  5  1  0
  5  6  1  0
  6  7  1  0
  7  8  3  0
  6  9  2  3
  9 10  1  0
 10 11  2  0
 11 12  1  0
 12 13  2  0
 13 14  1  0
 14 15  2  0
 15 16  1  0
 16 17  2  0
 17 18  1  0
 18 19  2  0
  5 20  2  0
 20 21  1  0
 21 22  2  0
 21 23  1  0
 20 24  1  0
 24 25  2  0
 25 26  1  0
 26 27  1  0
 25  3  1  0
 19 10  1  0
 19 14  1  0
  1 28  1  0
  1 29  1  0
  1 30  1  0
  4 31  1  0
  9 32  1  0
 11 33  1  0
 12 34  1  0
 13 35  1  0
 15 36  1  0
 16 37  1  0
 17 38  1  0
 18 39  1  0
 24 40  1  0
 27 41  1  0
 27 42  1  0
 27 43  1  0
M  CHG  2  21   1  23  -1
M  END
$$$$
