
     RDKit          3D

 60 63  0  0  0  0  0  0  0  0999 V2000
   -5.5825    1.6121    1.8248 C   0  0  0  0  0  0  0  0  0  0  0  0
   -4.3508    2.2192    1.4598 O   0  0  0  0  0  0  0  0  0  0  0  0
   -3.4564    1.4636    0.7458 C   0  0  0  0  0  0  0  0  0  0  0  0
   -3.6295    0.1149    0.4257 C   0  0  0  0  0  0  0  0  0  0  0  0
   -2.6550   -0.5661   -0.3122 C   0  0  0  0  0  0  0  0  0  0  0  0
   -2.7929   -1.9021   -0.5823 O   0  0  0  0  0  0  0  0  0  0  0  0
   -3.9453   -2.1771   -1.3855 C   0  0  0  0  0  0  0  0  0  0  0  0
   -1.4677    0.0690   -0.7042 C   0  0  0  0  0  0  0  0  0  0  0  0
   -0.3596   -0.6595   -1.4611 C   0  0  0  0  0  0  0  0  0  0  0  0
    0.2097   -1.8407   -0.6603 C   0  0  0  0  0  0  0  0  0  0  0  0
    1.6730   -1.5424   -0.3827 C   0  0  0  0  0  0  0  0  0  0  0  0
    2.5602   -2.0745   -1.0392 O   0  0  0  0  0  0  0  0  0  0  0  0
    1.8383   -0.6103    0.6331 N   0  0  0  0  0  0  0  0  0  0  0  0
    3.0497   -0.0633    1.1232 C   0  0  0  0  0  0  0  0  0  0  0  0
    4.2987   -0.4218    0.6087 C   0  0  0  0  0  0  0  0  0  0  0  0
    5.4751    0.1368    1.1177 C   0  0  0  0  0  0  0  0  0  0  0  0
    5.4300    1.0740    2.1485 C   0  0  0  0  0  0  0  0  0  0  0  0
    6.6991    1.6437    2.7075 C   0  0  0  0  0  0  0  0  0  0  0  0
    4.1870    1.4324    2.6747 C   0  0  0  0  0  0  0  0  0  0  0  0
    2.9924    0.8804    2.1726 C   0  0  0  0  0  0  0  0  0  0  0  0
    1.6928    1.3366    2.7820 C   0  0  0  0  0  0  0  0  0  0  0  0
    0.0016   -3.1972   -1.3243 C   0  0  0  0  0  0  0  0  0  0  0  0
    0.3555   -4.4219   -0.5092 C   0  0  0  0  0  0  0  0  0  0  0  0
   -0.4799   -3.3959   -2.5126 N   0  0  0  0  0  0  0  0  0  0  0  0
   -0.8264   -2.3259   -3.2591 C   0  0  0  0  0  0  0  0  0  0  0  0
   -1.2549   -2.2837   -4.5022 N   0  0  0  0  0  0  0  0  0  0  0  0
   -1.4253   -0.9524   -4.7476 C   0  0  0  0  0  0  0  0  0  0  0  0
   -1.1471   -0.1413   -3.7252 N   0  0  0  0  0  0  0  0  0  0  0  0
   -0.7987   -1.0432   -2.7869 N   0  0  0  0  0  0  0  0  0  0  0  0
   -1.3007    1.4266   -0.3819 C   0  0  0  0  0  0  0  0  0  0  0  0
   -2.2916    2.1230    0.3201 C   0  0  0  0  0  0  0  0  0  0  0  0
   -2.1420    3.4397    0.6785 O   0  0  0  0  0  0  0  0  0  0  0  0
   -1.6158    4.2731   -0.3510 C   0  0  0  0  0  0  0  0  0  0  0  0
   -6.1926    2.3678    2.3298 H   0  0  0  0  0  0  0  0  0  0  0  0
   -5.4198    0.7904    2.5304 H   0  0  0  0  0  0  0  0  0  0  0  0
   -6.1359    1.2739    0.9420 H   0  0  0  0  0  0  0  0  0  0  0  0
   -4.5043   -0.4321    0.7591 H   0  0  0  0  0  0  0  0  0  0  0  0
   -3.8481   -3.2005   -1.7619 H   0  0  0  0  0  0  0  0  0  0  0  0
   -4.8604   -2.1245   -0.7876 H   0  0  0  0  0  0  0  0  0  0  0  0
   -4.0070   -1.5004   -2.2463 H   0  0  0  0  0  0  0  0  0  0  0  0
    0.4392    0.0700   -1.6590 H   0  0  0  0  0  0  0  0  0  0  0  0
   -0.2712   -1.9256    0.3250 H   0  0  0  0  0  0  0  0  0  0  0  0
    1.0019   -0.2860    1.1002 H   0  0  0  0  0  0  0  0  0  0  0  0
    4.4038   -1.1427   -0.1955 H   0  0  0  0  0  0  0  0  0  0  0  0
    6.4291   -0.1712    0.6974 H   0  0  0  0  0  0  0  0  0  0  0  0
    7.3922    1.9009    1.9005 H   0  0  0  0  0  0  0  0  0  0  0  0
    6.5077    2.5589    3.2770 H   0  0  0  0  0  0  0  0  0  0  0  0
    7.1763    0.9159    3.3704 H   0  0  0  0  0  0  0  0  0  0  0  0
    4.1467    2.1546    3.4881 H   0  0  0  0  0  0  0  0  0  0  0  0
    1.0764    1.8371    2.0271 H   0  0  0  0  0  0  0  0  0  0  0  0
    1.8544    2.0487    3.6008 H   0  0  0  0  0  0  0  0  0  0  0  0
    1.1475    0.4829    3.1969 H   0  0  0  0  0  0  0  0  0  0  0  0
   -0.2656   -4.4451    0.3906 H   0  0  0  0  0  0  0  0  0  0  0  0
    0.1777   -5.3344   -1.0867 H   0  0  0  0  0  0  0  0  0  0  0  0
    1.4075   -4.3882   -0.2175 H   0  0  0  0  0  0  0  0  0  0  0  0
   -1.7608   -0.5651   -5.7000 H   0  0  0  0  0  0  0  0  0  0  0  0
   -0.3883    1.9396   -0.6755 H   0  0  0  0  0  0  0  0  0  0  0  0
   -0.5234    4.2090   -0.3723 H   0  0  0  0  0  0  0  0  0  0  0  0
   -1.8852    5.3073   -0.1137 H   0  0  0  0  0  0  0  0  0  0  0  0
   -2.0389    4.0329   -1.3337 H   0  0  0  0  0  0  0  0  0  0  0  0
  1  2  1  0
  2  3  1  0
  3  4  2  0
  4  5  1  0
  5  6  1  0
  6  7  1  0
  5  8  2  0
  8  9  1  0
  9 10  1  0
 10 11  1  0
 11 12  2  0
 11 13  1  0
 13 14  1  0
 14 15  2  0
 15 16  1  0
 16 17  2  0
 17 18  1  0
 17 19  1  0
 19 20  2  0
 20 21  1  0
 10 22  1  0
 22 23  1  0
 22 24  2  0
 24 25  1  0
 25 26  2  0
 26 27  1  0
 27 28  2  0
 28 29  1  0
  8 30  1  0
 30 31  2  0
 31 32  1  0
 32 33  1  0
 31  3  1  0
 29  9  1  0
 20 14  1  0
 29 25  1  0
  1 34  1  0
  1 35  1  0
  1 36  1  0
  4 37  1  0
  7 38  1  0
  7 39  1  0
  7 40  1  0
  9 41  1  0
 10 42  1  0
 13 43  1  0
 15 44  1  0
 16 45  1  0
 18 46  1  0
 18 47  1  0
 18 48  1  0
 19 49  1  0
 21 50  1  0
 21 51  1  0
 21 52  1  0
 23 53  1  0
 23 54  1  0
 23 55  1  0
 27 56  1  0
 30 57  1  0
 33 58  1  0
 33 59  1  0
 33 60  1  0
M  END
$$$$
