
     RDKit          3D

 53 56  0  0  0  0  0  0  0  0999 V2000
    0.1044    2.3498   -1.9815 C   0  0  0  0  0  0  0  0  0  0  0  0
   -0.5119    1.0593   -1.5033 C   0  0  0  0  0  0  0  0  0  0  0  0
    0.0362   -0.1885   -1.8411 C   0  0  0  0  0  0  0  0  0  0  0  0
    1.1513   -0.1577   -2.6384 O   0  0  0  0  0  0  0  0  0  0  0  0
    1.8091   -1.3828   -2.9629 C   0  0  0  0  0  0  0  0  0  0  0  0
    2.8266   -1.0600   -4.0535 C   0  0  0  0  0  0  0  0  0  0  0  0
    2.5531   -2.0068   -1.7696 C   0  0  0  0  0  0  0  0  0  0  0  0
    2.5972   -3.2229   -1.5914 O   0  0  0  0  0  0  0  0  0  0  0  0
    3.1830   -1.1034   -0.9490 N   0  0  0  0  0  0  0  0  0  0  0  0
    4.0181   -1.5338    0.1494 C   0  0  0  0  0  0  0  0  0  0  0  0
    4.4075   -0.3662    1.0254 C   0  0  0  0  0  0  0  0  0  0  0  0
    3.6093   -0.0006    2.1079 C   0  0  0  0  0  0  0  0  0  0  0  0
    3.9744    1.1052    2.8695 C   0  0  0  0  0  0  0  0  0  0  0  0
    5.1140    1.8203    2.5272 C   0  0  0  0  0  0  0  0  0  0  0  0
    5.8418    1.4025    1.4269 C   0  0  0  0  0  0  0  0  0  0  0  0
    5.5103    0.3379    0.6658 N   0  0  0  0  0  0  0  0  0  0  0  0
   -0.5687   -1.3525   -1.3575 C   0  0  0  0  0  0  0  0  0  0  0  0
   -1.7017   -1.2858   -0.5332 C   0  0  0  0  0  0  0  0  0  0  0  0
   -2.2658   -0.0576   -0.1786 C   0  0  0  0  0  0  0  0  0  0  0  0
   -3.4569    0.0708    0.6762 C   0  0  0  0  0  0  0  0  0  0  0  0
   -3.9017    1.3008    0.9998 C   0  0  0  0  0  0  0  0  0  0  0  0
   -3.2581    2.5330    0.4840 C   0  0  0  0  0  0  0  0  0  0  0  0
   -3.6925    3.6494    0.7512 O   0  0  0  0  0  0  0  0  0  0  0  0
   -2.1431    2.3678   -0.3163 O   0  0  0  0  0  0  0  0  0  0  0  0
   -1.6447    1.0940   -0.6626 C   0  0  0  0  0  0  0  0  0  0  0  0
   -5.0838    1.5368    1.9088 C   0  0  0  0  0  0  0  0  0  0  0  0
   -5.5128    0.2910    2.6829 C   0  0  0  0  0  0  0  0  0  0  0  0
   -5.5389   -0.9240    1.7699 C   0  0  0  0  0  0  0  0  0  0  0  0
   -4.1586   -1.1799    1.1593 C   0  0  0  0  0  0  0  0  0  0  0  0
   -0.6697    3.0342   -2.3426 H   0  0  0  0  0  0  0  0  0  0  0  0
    0.6523    2.8276   -1.1625 H   0  0  0  0  0  0  0  0  0  0  0  0
    0.7954    2.2018   -2.8166 H   0  0  0  0  0  0  0  0  0  0  0  0
    1.0926   -2.1065   -3.3705 H   0  0  0  0  0  0  0  0  0  0  0  0
    2.3276   -0.6391   -4.9327 H   0  0  0  0  0  0  0  0  0  0  0  0
    3.5497   -0.3105   -3.7131 H   0  0  0  0  0  0  0  0  0  0  0  0
    3.3799   -1.9544   -4.3592 H   0  0  0  0  0  0  0  0  0  0  0  0
    3.2831   -0.1492   -1.2699 H   0  0  0  0  0  0  0  0  0  0  0  0
    3.4872   -2.2962    0.7340 H   0  0  0  0  0  0  0  0  0  0  0  0
    4.9134   -2.0099   -0.2712 H   0  0  0  0  0  0  0  0  0  0  0  0
    2.7145   -0.5626    2.3526 H   0  0  0  0  0  0  0  0  0  0  0  0
    3.3722    1.4086    3.7202 H   0  0  0  0  0  0  0  0  0  0  0  0
    5.4312    2.6830    3.0979 H   0  0  0  0  0  0  0  0  0  0  0  0
    6.7398    1.9267    1.1185 H   0  0  0  0  0  0  0  0  0  0  0  0
   -0.1879   -2.3432   -1.5900 H   0  0  0  0  0  0  0  0  0  0  0  0
   -2.1194   -2.2241   -0.1745 H   0  0  0  0  0  0  0  0  0  0  0  0
   -4.8562    2.3260    2.6385 H   0  0  0  0  0  0  0  0  0  0  0  0
   -5.9259    1.8900    1.3001 H   0  0  0  0  0  0  0  0  0  0  0  0
   -6.5012    0.4534    3.1254 H   0  0  0  0  0  0  0  0  0  0  0  0
   -4.8175    0.1108    3.5127 H   0  0  0  0  0  0  0  0  0  0  0  0
   -6.2699   -0.7633    0.9679 H   0  0  0  0  0  0  0  0  0  0  0  0
   -5.8663   -1.8095    2.3281 H   0  0  0  0  0  0  0  0  0  0  0  0
   -4.2976   -1.8879    0.3333 H   0  0  0  0  0  0  0  0  0  0  0  0
   -3.5242   -1.6695    1.9080 H   0  0  0  0  0  0  0  0  0  0  0  0
  1  2  1  0
  2  3  2  0
  3  4  1  0
  4  5  1  0
  5  6  1  0
  5  7  1  0
  7  8  2  0
  7  9  1  0
  9 10  1  0
 10 11  1  0
 11 12  2  0
 12 13  1  0
 13 14  2  0
 14 15  1  0
 15 16  2  0
  3 17  1  0
 17 18  2  0
 18 19  1  0
 19 20  1  0
 20 21  2  0
 21 22  1  0
 22 23  2  0
 22 24  1  0
 24 25  1  0
 21 26  1  0
 26 27  1  0
 27 28  1  0
 28 29  1  0
 25  2  1  0
 16 11  1  0
 25 19  2  0
 29 20  1  0
  1 30  1  0
  1 31  1  0
  1 32  1  0
  5 33  1  0
  6 34  1  0
  6 35  1  0
  6 36  1  0
  9 37  1  0
 10 38  1  0
 10 39  1  0
 12 40  1  0
 13 41  1  0
 14 42  1  0
 15 43  1  0
 17 44  1  0
 18 45  1  0
 26 46  1  0
 26 47  1  0
 27 48  1  0
 27 49  1  0
 28 50  1  0
 28 51  1  0
 29 52  1  0
 29 53  1  0
M  END
$$$$
