
     RDKit          3D

 40 41  0  0  0  0  0  0  0  0999 V2000
    0.0030   -3.4983    0.7998 C   0  0  0  0  0  0  0  0  0  0  0  0
    0.3753   -2.1371    1.0169 O   0  0  0  0  0  0  0  0  0  0  0  0
    1.2716   -1.6694    0.1149 C   0  0  0  0  0  0  0  0  0  0  0  0
    1.8118   -2.3024   -0.7766 O   0  0  0  0  0  0  0  0  0  0  0  0
    1.5263   -0.2401    0.3924 C   0  0  0  0  0  0  0  0  0  0  0  0
    2.7868    0.1894    0.5995 C   0  0  0  0  0  0  0  0  0  0  0  0
    4.0363   -0.6428    0.5524 C   0  0  0  0  0  0  0  0  0  0  0  0
    3.0468    1.5197    1.0287 O   0  0  0  0  0  0  0  0  0  0  0  0
    2.0418    2.4219    1.0956 C   0  0  0  0  0  0  0  0  0  0  0  0
    2.2075    3.4809    1.8145 N   0  0  0  0  0  0  0  0  0  0  0  0
    0.7975    2.1706    0.3005 C   0  0  0  0  0  0  0  0  0  0  0  0
    1.0798    2.5327   -1.0946 C   0  0  0  0  0  0  0  0  0  0  0  0
    1.3184    2.8206   -2.1937 N   0  0  0  0  0  0  0  0  0  0  0  0
    0.3624    0.7121    0.5082 C   0  0  0  0  0  0  0  0  0  0  0  0
   -0.8790    0.3626   -0.2896 C   0  0  0  0  0  0  0  0  0  0  0  0
   -1.0200   -0.0714   -1.6465 C   0  0  0  0  0  0  0  0  0  0  0  0
    0.0015   -0.3099   -2.7022 C   0  0  0  0  0  0  0  0  0  0  0  0
   -2.3003   -0.2920   -1.9599 N   0  0  0  0  0  0  0  0  0  0  0  0
   -2.9828   -0.0028   -0.8477 N   0  0  0  0  0  0  0  0  0  0  0  0
   -4.4206   -0.1459   -0.8528 C   0  0  0  0  0  0  0  0  0  0  0  0
   -2.1869    0.4178    0.1844 C   0  0  0  0  0  0  0  0  0  0  0  0
   -2.7376    0.8106    1.5090 C   0  0  0  0  0  0  0  0  0  0  0  0
   -0.4397   -3.6222   -0.1937 H   0  0  0  0  0  0  0  0  0  0  0  0
   -0.7473   -3.7675    1.5482 H   0  0  0  0  0  0  0  0  0  0  0  0
    0.8691   -4.1558    0.9241 H   0  0  0  0  0  0  0  0  0  0  0  0
    3.8462   -1.7170    0.6131 H   0  0  0  0  0  0  0  0  0  0  0  0
    4.5856   -0.4372   -0.3715 H   0  0  0  0  0  0  0  0  0  0  0  0
    4.6862   -0.3915    1.3978 H   0  0  0  0  0  0  0  0  0  0  0  0
    3.1462    3.4294    2.2319 H   0  0  0  0  0  0  0  0  0  0  0  0
    0.0086    2.8348    0.6782 H   0  0  0  0  0  0  0  0  0  0  0  0
    0.0723    0.6285    1.5684 H   0  0  0  0  0  0  0  0  0  0  0  0
   -0.0048   -1.3630   -3.0026 H   0  0  0  0  0  0  0  0  0  0  0  0
    1.0121   -0.0642   -2.3722 H   0  0  0  0  0  0  0  0  0  0  0  0
   -0.2167    0.2989   -3.5861 H   0  0  0  0  0  0  0  0  0  0  0  0
   -4.8615    0.8521   -0.9102 H   0  0  0  0  0  0  0  0  0  0  0  0
   -4.7246   -0.7420   -1.7174 H   0  0  0  0  0  0  0  0  0  0  0  0
   -4.7278   -0.6535    0.0648 H   0  0  0  0  0  0  0  0  0  0  0  0
   -2.9301   -0.0789    2.1170 H   0  0  0  0  0  0  0  0  0  0  0  0
   -3.6731    1.3689    1.4026 H   0  0  0  0  0  0  0  0  0  0  0  0
   -2.0403    1.4534    2.0546 H   0  0  0  0  0  0  0  0  0  0  0  0
  1  2  1  0
  2  3  1  0
  3  4  2  0
  3  5  1  0
  5  6  2  0
  6  7  1  0
  6  8  1  0
  8  9  1  0
  9 10  2  3
  9 11  1  0
 11 12  1  0
 12 13  3  0
 11 14  1  0
 14 15  1  0
 15 16  1  0
 16 17  1  0
 16 18  2  0
 18 19  1  0
 19 20  1  0
 19 21  1  0
 21 22  1  0
 14  5  1  0
 21 15  2  0
  1 23  1  0
  1 24  1  0
  1 25  1  0
  7 26  1  0
  7 27  1  0
  7 28  1  0
 10 29  1  0
 11 30  1  0
 14 31  1  0
 17 32  1  0
 17 33  1  0
 17 34  1  0
 20 35  1  0
 20 36  1  0
 20 37  1  0
 22 38  1  0
 22 39  1  0
 22 40  1  0
M  END
$$$$
