
     RDKit          3D

 37 38  0  0  0  0  0  0  0  0999 V2000
   -5.1158   -0.9261   -0.4322 C   0  0  0  0  0  0  0  0  0  0  0  0
   -4.2158    0.2198   -0.3353 N   0  0  0  0  0  0  0  0  0  0  0  0
   -3.4670    0.4407   -1.5909 C   0  0  0  0  0  0  0  0  0  0  0  0
   -1.9598    0.1305   -1.5266 C   0  0  0  0  0  0  0  0  0  0  0  0
   -1.3003    0.8237   -0.4190 N   0  0  0  0  0  0  0  0  0  0  0  0
    0.0372    1.1491   -0.5431 C   0  0  0  0  0  0  0  0  0  0  0  0
    0.7229    0.8360   -1.5114 O   0  0  0  0  0  0  0  0  0  0  0  0
    0.6146    1.9475    0.5699 C   0  0  0  0  0  0  0  0  0  0  0  0
    1.8170    1.7270    1.1244 C   0  0  0  0  0  0  0  0  0  0  0  0
    2.7419    0.6353    0.8024 C   0  0  0  0  0  0  0  0  0  0  0  0
    2.3507   -0.7071    0.9029 C   0  0  0  0  0  0  0  0  0  0  0  0
    3.2530   -1.7334    0.6087 C   0  0  0  0  0  0  0  0  0  0  0  0
    4.5593   -1.4121    0.2202 C   0  0  0  0  0  0  0  0  0  0  0  0
    5.5109   -2.4859   -0.0902 N   0  0  0  0  0  4  0  0  0  0  0  0
    6.6576   -2.1608   -0.4310 O   0  0  0  0  0  0  0  0  0  0  0  0
    5.1157   -3.6562    0.0150 O   0  0  0  0  0  1  0  0  0  0  0  0
    4.9671   -0.0754    0.1309 C   0  0  0  0  0  0  0  0  0  0  0  0
    4.0563    0.9430    0.4273 C   0  0  0  0  0  0  0  0  0  0  0  0
   -2.1176    1.0406    0.7808 C   0  0  0  0  0  0  0  0  0  0  0  0
   -3.3296    0.0928    0.8360 C   0  0  0  0  0  0  0  0  0  0  0  0
   -4.5749   -1.8588   -0.6286 H   0  0  0  0  0  0  0  0  0  0  0  0
   -5.6885   -1.0465    0.4941 H   0  0  0  0  0  0  0  0  0  0  0  0
   -5.8462   -0.7742   -1.2346 H   0  0  0  0  0  0  0  0  0  0  0  0
   -3.5793    1.5050   -1.8352 H   0  0  0  0  0  0  0  0  0  0  0  0
   -3.9137   -0.1059   -2.4307 H   0  0  0  0  0  0  0  0  0  0  0  0
   -1.4861    0.4063   -2.4753 H   0  0  0  0  0  0  0  0  0  0  0  0
   -1.7990   -0.9443   -1.3787 H   0  0  0  0  0  0  0  0  0  0  0  0
    0.0175    2.7907    0.8977 H   0  0  0  0  0  0  0  0  0  0  0  0
    2.1708    2.4117    1.8922 H   0  0  0  0  0  0  0  0  0  0  0  0
    1.3370   -0.9649    1.2014 H   0  0  0  0  0  0  0  0  0  0  0  0
    2.9212   -2.7667    0.6817 H   0  0  0  0  0  0  0  0  0  0  0  0
    5.9780    0.1899   -0.1711 H   0  0  0  0  0  0  0  0  0  0  0  0
    4.3756    1.9802    0.3452 H   0  0  0  0  0  0  0  0  0  0  0  0
   -2.4509    2.0850    0.7641 H   0  0  0  0  0  0  0  0  0  0  0  0
   -1.5015    0.8968    1.6747 H   0  0  0  0  0  0  0  0  0  0  0  0
   -2.9529   -0.9359    0.9192 H   0  0  0  0  0  0  0  0  0  0  0  0
   -3.9052    0.3026    1.7450 H   0  0  0  0  0  0  0  0  0  0  0  0
  1  2  1  0
  2  3  1  0
  3  4  1  0
  4  5  1  0
  5  6  1  0
  6  7  2  0
  6  8  1  0
  8  9  2  3
  9 10  1  0
 10 11  2  0
 11 12  1  0
 12 13  2  0
 13 14  1  0
 14 15  2  0
 14 16  1  0
 13 17  1  0
 17 18  2  0
  5 19  1  0
 19 20  1  0
 20  2  1  0
 18 10  1  0
  1 21  1  0
  1 22  1  0
  1 23  1  0
  3 24  1  0
  3 25  1  0
  4 26  1  0
  4 27  1  0
  8 28  1  0
  9 29  1  0
 11 30  1  0
 12 31  1  0
 17 32  1  0
 18 33  1  0
 19 34  1  0
 19 35  1  0
 20 36  1  0
 20 37  1  0
M  CHG  2  14   1  16  -1
M  END
$$$$
