
     RDKit          3D

 52 55  0  0  0  0  0  0  0  0999 V2000
    8.3073   -1.2516    1.2486 C   0  0  0  0  0  0  0  0  0  0  0  0
    7.3527   -2.3946    1.5366 C   0  0  0  0  0  0  0  0  0  0  0  0
    5.9949   -1.9367    1.4626 O   0  0  0  0  0  0  0  0  0  0  0  0
    5.4253   -1.9463    0.2225 C   0  0  0  0  0  0  0  0  0  0  0  0
    6.0078   -2.3121   -0.7917 O   0  0  0  0  0  0  0  0  0  0  0  0
    4.0648   -1.4319    0.2916 C   0  0  0  0  0  0  0  0  0  0  0  0
    3.3914   -0.8062   -1.1590 S   0  0  0  0  0  0  0  0  0  0  0  0
    1.9575   -0.3345   -0.3857 C   0  0  0  0  0  0  0  0  0  0  0  0
    0.9775    0.2937   -1.0699 N   0  0  0  0  0  0  0  0  0  0  0  0
   -0.0870    0.6062   -0.3885 C   0  0  0  0  0  0  0  0  0  0  0  0
   -1.2450    1.3156   -1.0601 C   0  0  0  0  0  0  0  0  0  0  0  0
   -1.1406    1.7806   -2.7279 S   0  0  0  0  0  0  0  0  0  0  0  0
   -0.7592    0.1904   -3.5276 C   0  0  0  0  0  0  0  0  0  0  0  0
   -1.3612    0.1099   -4.9113 C   0  0  0  0  0  0  0  0  0  0  0  0
   -2.1774    0.8485   -5.4363 O   0  0  0  0  0  0  0  0  0  0  0  0
   -0.9142   -0.9741   -5.5866 O   0  0  0  0  0  0  0  0  0  0  0  0
   -2.3339    1.6324   -0.3451 C   0  0  0  0  0  0  0  0  0  0  0  0
   -2.4493    1.2711    1.0460 C   0  0  0  0  0  0  0  0  0  0  0  0
   -3.6460    1.5838    1.8885 C   0  0  0  0  0  0  0  0  0  0  0  0
   -3.5405    1.7878    3.0958 O   0  0  0  0  0  0  0  0  0  0  0  0
   -4.9805    1.7033    1.2566 C   0  0  0  0  0  0  0  0  0  0  0  0
   -5.7804    2.7887    1.6401 C   0  0  0  0  0  0  0  0  0  0  0  0
   -7.0531    2.9516    1.0911 C   0  0  0  0  0  0  0  0  0  0  0  0
   -7.5374    2.0239    0.1689 C   0  0  0  0  0  0  0  0  0  0  0  0
   -6.7559    0.9279   -0.2010 C   0  0  0  0  0  0  0  0  0  0  0  0
   -5.4823    0.7629    0.3490 C   0  0  0  0  0  0  0  0  0  0  0  0
   -4.7389   -0.3313    0.0043 O   0  0  0  0  0  0  0  0  0  0  0  0
   -1.4194    0.6650    1.6542 C   0  0  0  0  0  0  0  0  0  0  0  0
   -0.2459    0.3211    0.9823 N   0  0  0  0  0  0  0  0  0  0  0  0
    0.7704   -0.3193    1.7183 C   0  0  0  0  0  0  0  0  0  0  0  0
    0.6917   -0.5698    2.9197 O   0  0  0  0  0  0  0  0  0  0  0  0
    1.9514   -0.6729    0.9436 C   0  0  0  0  0  0  0  0  0  0  0  0
    3.1630   -1.3507    1.3528 C   0  0  0  0  0  0  0  0  0  0  0  0
    3.4017   -1.8789    2.7358 C   0  0  0  0  0  0  0  0  0  0  0  0
    8.1711   -0.8723    0.2311 H   0  0  0  0  0  0  0  0  0  0  0  0
    8.1204   -0.4134    1.9280 H   0  0  0  0  0  0  0  0  0  0  0  0
    9.3455   -1.5756    1.3644 H   0  0  0  0  0  0  0  0  0  0  0  0
    7.5115   -2.7569    2.5573 H   0  0  0  0  0  0  0  0  0  0  0  0
    7.5253   -3.2431    0.8651 H   0  0  0  0  0  0  0  0  0  0  0  0
    0.3263    0.1004   -3.6235 H   0  0  0  0  0  0  0  0  0  0  0  0
   -1.1577   -0.6426   -2.9410 H   0  0  0  0  0  0  0  0  0  0  0  0
   -1.3610   -0.9085   -6.4574 H   0  0  0  0  0  0  0  0  0  0  0  0
   -3.1541    2.1773   -0.8043 H   0  0  0  0  0  0  0  0  0  0  0  0
   -5.4112    3.5089    2.3685 H   0  0  0  0  0  0  0  0  0  0  0  0
   -7.6662    3.8002    1.3857 H   0  0  0  0  0  0  0  0  0  0  0  0
   -8.5304    2.1534   -0.2567 H   0  0  0  0  0  0  0  0  0  0  0  0
   -7.1603    0.2140   -0.9134 H   0  0  0  0  0  0  0  0  0  0  0  0
   -5.2867   -0.9280   -0.5359 H   0  0  0  0  0  0  0  0  0  0  0  0
   -1.4678    0.4054    2.7116 H   0  0  0  0  0  0  0  0  0  0  0  0
    3.8745   -1.1123    3.3573 H   0  0  0  0  0  0  0  0  0  0  0  0
    4.0410   -2.7672    2.7210 H   0  0  0  0  0  0  0  0  0  0  0  0
    2.4704   -2.1931    3.2143 H   0  0  0  0  0  0  0  0  0  0  0  0
  1  2  1  0
  2  3  1  0
  3  4  1  0
  4  5  2  0
  4  6  1  0
  6  7  1  0
  7  8  1  0
  8  9  1  0
  9 10  2  0
 10 11  1  0
 11 12  1  0
 12 13  1  0
 13 14  1  0
 14 15  2  0
 14 16  1  0
 11 17  2  0
 17 18  1  0
 18 19  1  0
 19 20  2  0
 19 21  1  0
 21 22  2  0
 22 23  1  0
 23 24  2  0
 24 25  1  0
 25 26  2  0
 26 27  1  0
 18 28  2  0
 28 29  1  0
 29 30  1  0
 30 31  2  0
 30 32  1  0
 32 33  1  0
 33 34  1  0
 33  6  2  0
 32  8  2  0
 29 10  1  0
 26 21  1  0
  1 35  1  0
  1 36  1  0
  1 37  1  0
  2 38  1  0
  2 39  1  0
 13 40  1  0
 13 41  1  0
 16 42  1  0
 17 43  1  0
 22 44  1  0
 23 45  1  0
 24 46  1  0
 25 47  1  0
 27 48  1  0
 28 49  1  0
 34 50  1  0
 34 51  1  0
 34 52  1  0
M  END
$$$$
