
     RDKit          3D

 57 59  0  0  0  0  0  0  0  0999 V2000
    5.8513    0.3681   -1.6500 C   0  0  0  0  0  0  0  0  0  0  0  0
    6.3700    0.6461   -0.2657 C   0  0  0  0  0  0  0  0  0  0  0  0
    7.7512    0.7711   -0.0525 C   0  0  0  0  0  0  0  0  0  0  0  0
    8.2511    1.0138    1.2256 C   0  0  0  0  0  0  0  0  0  0  0  0
    7.3759    1.1316    2.3010 C   0  0  0  0  0  0  0  0  0  0  0  0
    5.9986    1.0052    2.1025 C   0  0  0  0  0  0  0  0  0  0  0  0
    5.4879    0.7582    0.8244 C   0  0  0  0  0  0  0  0  0  0  0  0
    4.1576    0.6251    0.5260 O   0  0  0  0  0  0  0  0  0  0  0  0
    3.2429    0.5241    1.6204 C   0  0  0  0  0  0  0  0  0  0  0  0
    1.8421    0.2542    1.0523 C   0  0  0  0  0  0  0  0  0  0  0  0
    1.8030   -1.0663    0.4113 N   0  0  0  0  0  0  0  0  0  0  0  0
    0.6718   -1.4547   -0.3321 C   0  0  0  0  0  0  0  0  0  0  0  0
   -0.6088   -0.9324   -0.0457 C   0  0  0  0  0  0  0  0  0  0  0  0
   -1.7824   -1.3455   -0.7097 C   0  0  0  0  0  0  0  0  0  0  0  0
   -3.0559   -0.8220   -0.4358 N   0  0  0  0  0  0  0  0  0  0  0  0
   -3.6830   -0.1392   -1.5937 C   0  0  0  0  0  0  0  0  0  0  0  0
   -5.1742    0.1575   -1.3076 C   0  0  0  0  0  0  0  0  0  0  0  0
   -5.3897    0.9372   -0.0636 N   0  0  0  0  0  0  0  0  0  0  0  0
   -6.8353    1.1311    0.1554 C   0  0  0  0  0  0  0  0  0  0  0  0
   -7.1661    2.1429    1.2612 C   0  0  0  0  0  0  0  0  0  0  0  0
   -8.5778    2.3313    1.3270 O   0  0  0  0  0  0  0  0  0  0  0  0
   -4.7563    0.2073    1.0603 C   0  0  0  0  0  0  0  0  0  0  0  0
   -3.2524   -0.0690    0.8195 C   0  0  0  0  0  0  0  0  0  0  0  0
   -1.6597   -2.3648   -1.6641 C   0  0  0  0  0  0  0  0  0  0  0  0
   -0.4260   -2.9453   -1.9507 C   0  0  0  0  0  0  0  0  0  0  0  0
    0.7214   -2.4968   -1.2818 C   0  0  0  0  0  0  0  0  0  0  0  0
    1.9862   -3.1475   -1.6216 N   0  0  0  0  0  4  0  0  0  0  0  0
    1.9536   -4.3580   -1.8911 O   0  0  0  0  0  0  0  0  0  0  0  0
    3.0097   -2.4461   -1.6508 O   0  0  0  0  0  1  0  0  0  0  0  0
    5.3818   -0.6199   -1.6849 H   0  0  0  0  0  0  0  0  0  0  0  0
    6.6574    0.3827   -2.3912 H   0  0  0  0  0  0  0  0  0  0  0  0
    5.1215    1.1293   -1.9444 H   0  0  0  0  0  0  0  0  0  0  0  0
    8.4458    0.6769   -0.8841 H   0  0  0  0  0  0  0  0  0  0  0  0
    9.3225    1.1091    1.3809 H   0  0  0  0  0  0  0  0  0  0  0  0
    7.7650    1.3218    3.2978 H   0  0  0  0  0  0  0  0  0  0  0  0
    5.3527    1.1084    2.9673 H   0  0  0  0  0  0  0  0  0  0  0  0
    3.2205    1.4714    2.1711 H   0  0  0  0  0  0  0  0  0  0  0  0
    3.5344   -0.2962    2.2878 H   0  0  0  0  0  0  0  0  0  0  0  0
    1.1236    0.2933    1.8778 H   0  0  0  0  0  0  0  0  0  0  0  0
    1.5956    1.0283    0.3159 H   0  0  0  0  0  0  0  0  0  0  0  0
    2.6699   -1.2229   -0.1240 H   0  0  0  0  0  0  0  0  0  0  0  0
   -0.6940   -0.1670    0.7167 H   0  0  0  0  0  0  0  0  0  0  0  0
   -3.1525    0.8001   -1.7996 H   0  0  0  0  0  0  0  0  0  0  0  0
   -3.6346   -0.7522   -2.5009 H   0  0  0  0  0  0  0  0  0  0  0  0
   -5.5757    0.7170   -2.1613 H   0  0  0  0  0  0  0  0  0  0  0  0
   -5.7185   -0.7953   -1.2538 H   0  0  0  0  0  0  0  0  0  0  0  0
   -7.2945    1.5091   -0.7683 H   0  0  0  0  0  0  0  0  0  0  0  0
   -7.3405    0.1785    0.3647 H   0  0  0  0  0  0  0  0  0  0  0  0
   -6.6994    3.1107    1.0498 H   0  0  0  0  0  0  0  0  0  0  0  0
   -6.8309    1.7917    2.2411 H   0  0  0  0  0  0  0  0  0  0  0  0
   -8.7394    3.0138    2.0008 H   0  0  0  0  0  0  0  0  0  0  0  0
   -4.8366    0.7953    1.9808 H   0  0  0  0  0  0  0  0  0  0  0  0
   -5.2710   -0.7477    1.2313 H   0  0  0  0  0  0  0  0  0  0  0  0
   -2.8735   -0.6468    1.6714 H   0  0  0  0  0  0  0  0  0  0  0  0
   -2.7155    0.8879    0.7813 H   0  0  0  0  0  0  0  0  0  0  0  0
   -2.5459   -2.7460   -2.1669 H   0  0  0  0  0  0  0  0  0  0  0  0
   -0.3745   -3.7483   -2.6828 H   0  0  0  0  0  0  0  0  0  0  0  0
  1  2  1  0
  2  3  2  0
  3  4  1  0
  4  5  2  0
  5  6  1  0
  6  7  2  0
  7  8  1  0
  8  9  1  0
  9 10  1  0
 10 11  1  0
 11 12  1  0
 12 13  2  0
 13 14  1  0
 14 15  1  0
 15 16  1  0
 16 17  1  0
 17 18  1  0
 18 19  1  0
 19 20  1  0
 20 21  1  0
 18 22  1  0
 22 23  1  0
 14 24  2  0
 24 25  1  0
 25 26  2  0
 26 27  1  0
 27 28  2  0
 27 29  1  0
  7  2  1  0
 26 12  1  0
 23 15  1  0
  1 30  1  0
  1 31  1  0
  1 32  1  0
  3 33  1  0
  4 34  1  0
  5 35  1  0
  6 36  1  0
  9 37  1  0
  9 38  1  0
 10 39  1  0
 10 40  1  0
 11 41  1  0
 13 42  1  0
 16 43  1  0
 16 44  1  0
 17 45  1  0
 17 46  1  0
 19 47  1  0
 19 48  1  0
 20 49  1  0
 20 50  1  0
 21 51  1  0
 22 52  1  0
 22 53  1  0
 23 54  1  0
 23 55  1  0
 24 56  1  0
 25 57  1  0
M  CHG  2  27   1  29  -1
M  END
$$$$
