
     RDKit          3D

 43 45  0  0  0  0  0  0  0  0999 V2000
   -3.7831    1.4771    2.2991 C   0  0  0  0  0  0  0  0  0  0  0  0
   -4.4852    0.5243    1.3746 C   0  0  0  0  0  0  0  0  0  0  0  0
   -5.8299    0.2062    1.6034 C   0  0  0  0  0  0  0  0  0  0  0  0
   -6.5055   -0.6676    0.7521 C   0  0  0  0  0  0  0  0  0  0  0  0
   -5.8489   -1.2258   -0.3446 C   0  0  0  0  0  0  0  0  0  0  0  0
   -4.5034   -0.9290   -0.5961 C   0  0  0  0  0  0  0  0  0  0  0  0
   -3.8206   -1.5356   -1.7884 C   0  0  0  0  0  0  0  0  0  0  0  0
   -3.8204   -0.0912    0.3006 C   0  0  0  0  0  0  0  0  0  0  0  0
   -2.4934    0.1874    0.0826 O   0  0  0  0  0  0  0  0  0  0  0  0
   -1.6706   -0.7550    0.7828 C   0  0  0  0  0  0  0  0  0  0  0  0
   -0.2609   -0.3539    0.5683 C   0  0  0  0  0  0  0  0  0  0  0  0
    0.3736    0.6594   -0.1062 C   0  0  0  0  0  0  0  0  0  0  0  0
    1.7600    0.4348    0.1071 C   0  0  0  0  0  0  0  0  0  0  0  0
    2.8574    1.2872   -0.3748 C   0  0  0  0  0  0  0  0  0  0  0  0
    2.6277    2.4560   -0.6947 O   0  0  0  0  0  0  0  0  0  0  0  0
    4.1566    0.7743   -0.4384 N   0  0  0  0  0  0  0  0  0  0  0  0
    4.4884   -0.6266   -0.7047 C   0  0  0  0  0  0  0  0  0  0  0  0
    5.7250   -1.0138    0.1001 C   0  0  0  0  0  0  0  0  0  0  0  0
    6.8305   -0.1116   -0.1556 N   0  0  0  0  0  0  0  0  0  0  0  0
    6.6476    1.2370   -0.3475 C   0  0  0  0  0  0  0  0  0  0  0  0
    7.6184    1.9906   -0.3195 O   0  0  0  0  0  0  0  0  0  0  0  0
    5.2364    1.7223   -0.7222 C   0  0  0  0  0  0  0  0  0  0  0  0
    1.9361   -0.6353    0.9023 N   0  0  0  0  0  0  0  0  0  0  0  0
    0.6766   -1.1347    1.1684 O   0  0  0  0  0  0  0  0  0  0  0  0
   -3.0682    2.1010    1.7537 H   0  0  0  0  0  0  0  0  0  0  0  0
   -4.4969    2.1568    2.7769 H   0  0  0  0  0  0  0  0  0  0  0  0
   -3.2540    0.9238    3.0806 H   0  0  0  0  0  0  0  0  0  0  0  0
   -6.3639    0.6451    2.4431 H   0  0  0  0  0  0  0  0  0  0  0  0
   -7.5510   -0.9030    0.9353 H   0  0  0  0  0  0  0  0  0  0  0  0
   -6.3987   -1.8894   -1.0093 H   0  0  0  0  0  0  0  0  0  0  0  0
   -4.5481   -1.8131   -2.5580 H   0  0  0  0  0  0  0  0  0  0  0  0
   -3.2702   -2.4339   -1.4932 H   0  0  0  0  0  0  0  0  0  0  0  0
   -3.1276   -0.8239   -2.2487 H   0  0  0  0  0  0  0  0  0  0  0  0
   -1.8903   -0.7461    1.8572 H   0  0  0  0  0  0  0  0  0  0  0  0
   -1.8248   -1.7665    0.3888 H   0  0  0  0  0  0  0  0  0  0  0  0
   -0.0860    1.4569   -0.6723 H   0  0  0  0  0  0  0  0  0  0  0  0
    4.6976   -0.6993   -1.7798 H   0  0  0  0  0  0  0  0  0  0  0  0
    3.6681   -1.3143   -0.5080 H   0  0  0  0  0  0  0  0  0  0  0  0
    5.5137   -0.9676    1.1739 H   0  0  0  0  0  0  0  0  0  0  0  0
    6.0547   -2.0270   -0.1486 H   0  0  0  0  0  0  0  0  0  0  0  0
    7.7620   -0.3601    0.1580 H   0  0  0  0  0  0  0  0  0  0  0  0
    5.0472    2.6531   -0.1778 H   0  0  0  0  0  0  0  0  0  0  0  0
    5.2239    1.9308   -1.7976 H   0  0  0  0  0  0  0  0  0  0  0  0
  1  2  1  0
  2  3  2  0
  3  4  1  0
  4  5  2  0
  5  6  1  0
  6  7  1  0
  6  8  2  0
  8  9  1  0
  9 10  1  0
 10 11  1  0
 11 12  2  0
 12 13  1  0
 13 14  1  0
 14 15  2  0
 14 16  1  0
 16 17  1  0
 17 18  1  0
 18 19  1  0
 19 20  1  0
 20 21  2  0
 20 22  1  0
 13 23  2  0
 23 24  1  0
  8  2  1  0
 24 11  1  0
 22 16  1  0
  1 25  1  0
  1 26  1  0
  1 27  1  0
  3 28  1  0
  4 29  1  0
  5 30  1  0
  7 31  1  0
  7 32  1  0
  7 33  1  0
 10 34  1  0
 10 35  1  0
 12 36  1  0
 17 37  1  0
 17 38  1  0
 18 39  1  0
 18 40  1  0
 19 41  1  0
 22 42  1  0
 22 43  1  0
M  END
$$$$
