
     RDKit          3D

 41 44  0  0  0  0  0  0  0  0999 V2000
    3.0635   -3.6616    3.1584 C   0  0  0  0  0  0  0  0  0  0  0  0
    3.5615   -3.8086    1.8355 O   0  0  0  0  0  0  0  0  0  0  0  0
    2.9684   -3.0612    0.8540 C   0  0  0  0  0  0  0  0  0  0  0  0
    3.4835   -3.2774   -0.4216 C   0  0  0  0  0  0  0  0  0  0  0  0
    2.9964   -2.5831   -1.5299 C   0  0  0  0  0  0  0  0  0  0  0  0
    1.9643   -1.6651   -1.3136 C   0  0  0  0  0  0  0  0  0  0  0  0
    1.3252   -0.8488   -2.2070 N   0  0  0  0  0  0  0  0  0  0  0  0
    0.3756   -0.0623   -1.5888 C   0  0  0  0  0  0  0  0  0  0  0  0
   -0.4550    0.9284   -2.1477 C   0  0  0  0  0  0  0  0  0  0  0  0
   -0.3965    1.2682   -3.6179 C   0  0  0  0  0  0  0  0  0  0  0  0
   -1.3274    1.6143   -1.2602 C   0  0  0  0  0  0  0  0  0  0  0  0
   -2.1539    2.6581   -1.7146 C   0  0  0  0  0  0  0  0  0  0  0  0
   -2.9949    3.3360   -0.8462 C   0  0  0  0  0  0  0  0  0  0  0  0
   -3.0315    3.0027    0.4540 N   0  0  0  0  0  4  0  0  0  0  0  0
   -3.9122    3.7336    1.3814 C   0  0  0  0  0  0  0  0  0  0  0  0
   -2.2548    2.0066    0.9312 C   0  0  0  0  0  0  0  0  0  0  0  0
   -1.3860    1.2641    0.1103 C   0  0  0  0  0  0  0  0  0  0  0  0
   -0.5803    0.1953    0.6243 C   0  0  0  0  0  0  0  0  0  0  0  0
   -0.7100   -0.2397    2.0667 C   0  0  0  0  0  0  0  0  0  0  0  0
    0.3619   -0.4286   -0.2433 C   0  0  0  0  0  0  0  0  0  0  0  0
    1.4008   -1.4234   -0.0647 C   0  0  0  0  0  0  0  0  0  0  0  0
    1.9337   -2.1346    1.0410 C   0  0  0  0  0  0  0  0  0  0  0  0
    3.2186   -2.6420    3.5263 H   0  0  0  0  0  0  0  0  0  0  0  0
    2.0080   -3.9472    3.2175 H   0  0  0  0  0  0  0  0  0  0  0  0
    3.6286   -4.3388    3.8061 H   0  0  0  0  0  0  0  0  0  0  0  0
    4.2880   -3.9980   -0.5572 H   0  0  0  0  0  0  0  0  0  0  0  0
    3.4148   -2.7549   -2.5167 H   0  0  0  0  0  0  0  0  0  0  0  0
    1.5515   -0.8171   -3.1901 H   0  0  0  0  0  0  0  0  0  0  0  0
   -1.3840    1.1467   -4.0750 H   0  0  0  0  0  0  0  0  0  0  0  0
    0.2906    0.6205   -4.1687 H   0  0  0  0  0  0  0  0  0  0  0  0
   -0.0529    2.2988   -3.7541 H   0  0  0  0  0  0  0  0  0  0  0  0
   -2.1520    2.9678   -2.7578 H   0  0  0  0  0  0  0  0  0  0  0  0
   -3.6326    4.1469   -1.1862 H   0  0  0  0  0  0  0  0  0  0  0  0
   -3.2763    4.3388    2.0325 H   0  0  0  0  0  0  0  0  0  0  0  0
   -4.4828    3.0013    1.9590 H   0  0  0  0  0  0  0  0  0  0  0  0
   -4.5984    4.3722    0.8200 H   0  0  0  0  0  0  0  0  0  0  0  0
   -2.3412    1.8313    1.9981 H   0  0  0  0  0  0  0  0  0  0  0  0
   -0.4647   -1.2970    2.1845 H   0  0  0  0  0  0  0  0  0  0  0  0
   -1.7399   -0.1600    2.4265 H   0  0  0  0  0  0  0  0  0  0  0  0
   -0.0535    0.3609    2.7027 H   0  0  0  0  0  0  0  0  0  0  0  0
    1.5458   -1.9434    2.0312 H   0  0  0  0  0  0  0  0  0  0  0  0
  1  2  1  0
  2  3  1  0
  3  4  2  0
  4  5  1  0
  5  6  2  0
  6  7  1  0
  7  8  1  0
  8  9  2  0
  9 10  1  0
  9 11  1  0
 11 12  2  0
 12 13  1  0
 13 14  2  0
 14 15  1  0
 14 16  1  0
 16 17  2  0
 17 18  1  0
 18 19  1  0
 18 20  2  0
 20 21  1  0
 21 22  2  0
 22  3  1  0
 21  6  1  0
 20  8  1  0
 17 11  1  0
  1 23  1  0
  1 24  1  0
  1 25  1  0
  4 26  1  0
  5 27  1  0
  7 28  1  0
 10 29  1  0
 10 30  1  0
 10 31  1  0
 12 32  1  0
 13 33  1  0
 15 34  1  0
 15 35  1  0
 15 36  1  0
 16 37  1  0
 19 38  1  0
 19 39  1  0
 19 40  1  0
 22 41  1  0
M  CHG  1  14   1
M  END
$$$$
