
     RDKit          3D

 46 49  0  0  0  0  0  0  0  0999 V2000
    0.2631    2.4283    0.6316 O   0  0  0  0  0  0  0  0  0  0  0  0
    0.5960    1.4077    0.0350 C   0  0  0  0  0  0  0  0  0  0  0  0
    2.0487    1.1474   -0.3358 C   0  0  0  0  0  0  0  0  0  0  0  0
    2.4976   -0.6044   -0.0775 S   0  0  0  0  0  0  0  0  0  0  0  0
    4.2603   -0.5186   -0.3610 C   0  0  0  0  0  0  0  0  0  0  0  0
    4.6534    0.4890   -1.1879 N   0  0  0  0  0  0  0  0  0  0  0  0
    5.9632    0.5852   -1.5047 C   0  0  0  0  0  0  0  0  0  0  0  0
    6.9274   -0.2898   -1.0450 C   0  0  0  0  0  0  0  0  0  0  0  0
    6.5232   -1.3214   -0.2053 C   0  0  0  0  0  0  0  0  0  0  0  0
    5.1702   -1.4484    0.1473 C   0  0  0  0  0  0  0  0  0  0  0  0
    4.7723   -2.5319    1.0689 C   0  0  0  0  0  0  0  0  0  0  0  0
    3.9319   -2.4952    1.9450 O   0  0  0  0  0  0  0  0  0  0  0  0
    5.4930   -3.6501    0.8471 O   0  0  0  0  0  0  0  0  0  0  0  0
   -0.2978    0.4592   -0.4227 N   0  0  0  0  0  0  0  0  0  0  0  0
   -1.7314    0.4408   -0.1176 C   0  0  0  0  0  0  0  0  0  0  0  0
   -2.3657   -0.7786   -0.8413 C   0  0  0  0  0  0  0  0  0  0  0  0
   -3.8719   -0.8698   -0.5516 C   0  0  0  0  0  0  0  0  0  0  0  0
   -4.5576    0.4136   -1.0460 C   0  0  0  0  0  0  0  0  0  0  0  0
   -3.9631    1.6354   -0.3280 C   0  0  0  0  0  0  0  0  0  0  0  0
   -4.1747    1.4854    1.1887 C   0  0  0  0  0  0  0  0  0  0  0  0
   -3.4919    0.2030    1.6949 C   0  0  0  0  0  0  0  0  0  0  0  0
   -4.0873   -1.0112    0.9638 C   0  0  0  0  0  0  0  0  0  0  0  0
   -1.9835    0.2824    1.4020 C   0  0  0  0  0  0  0  0  0  0  0  0
   -2.4545    1.7155   -0.6234 C   0  0  0  0  0  0  0  0  0  0  0  0
    2.6787    1.7759    0.3025 H   0  0  0  0  0  0  0  0  0  0  0  0
    2.1866    1.4306   -1.3837 H   0  0  0  0  0  0  0  0  0  0  0  0
    6.2224    1.4119   -2.1601 H   0  0  0  0  0  0  0  0  0  0  0  0
    7.9678   -0.1710   -1.3278 H   0  0  0  0  0  0  0  0  0  0  0  0
    7.2633   -2.0203    0.1780 H   0  0  0  0  0  0  0  0  0  0  0  0
    5.1421   -4.2888    1.5049 H   0  0  0  0  0  0  0  0  0  0  0  0
    0.1279   -0.4267   -0.6797 H   0  0  0  0  0  0  0  0  0  0  0  0
   -1.8724   -1.7066   -0.5215 H   0  0  0  0  0  0  0  0  0  0  0  0
   -2.2007   -0.7029   -1.9243 H   0  0  0  0  0  0  0  0  0  0  0  0
   -4.2962   -1.7381   -1.0683 H   0  0  0  0  0  0  0  0  0  0  0  0
   -5.6371    0.3577   -0.8600 H   0  0  0  0  0  0  0  0  0  0  0  0
   -4.4256    0.5159   -2.1309 H   0  0  0  0  0  0  0  0  0  0  0  0
   -4.4574    2.5474   -0.6814 H   0  0  0  0  0  0  0  0  0  0  0  0
   -5.2476    1.4513    1.4142 H   0  0  0  0  0  0  0  0  0  0  0  0
   -3.7674    2.3592    1.7125 H   0  0  0  0  0  0  0  0  0  0  0  0
   -3.6529    0.0997    2.7738 H   0  0  0  0  0  0  0  0  0  0  0  0
   -3.6171   -1.9342    1.3253 H   0  0  0  0  0  0  0  0  0  0  0  0
   -5.1589   -1.0924    1.1837 H   0  0  0  0  0  0  0  0  0  0  0  0
   -1.5524    1.1239    1.9581 H   0  0  0  0  0  0  0  0  0  0  0  0
   -1.4825   -0.6208    1.7754 H   0  0  0  0  0  0  0  0  0  0  0  0
   -2.2909    1.8389   -1.7023 H   0  0  0  0  0  0  0  0  0  0  0  0
   -2.0507    2.6161   -0.1469 H   0  0  0  0  0  0  0  0  0  0  0  0
  1  2  2  0
  2  3  1  0
  3  4  1  0
  4  5  1  0
  5  6  2  0
  6  7  1  0
  7  8  2  0
  8  9  1  0
  9 10  2  0
 10 11  1  0
 11 12  2  0
 11 13  1  0
  2 14  1  0
 14 15  1  0
 15 16  1  0
 16 17  1  0
 17 18  1  0
 18 19  1  0
 19 20  1  0
 20 21  1  0
 21 22  1  0
 21 23  1  0
 19 24  1  0
 10  5  1  0
 23 15  1  0
 24 15  1  0
 22 17  1  0
  3 25  1  0
  3 26  1  0
  7 27  1  0
  8 28  1  0
  9 29  1  0
 13 30  1  0
 14 31  1  0
 16 32  1  0
 16 33  1  0
 17 34  1  0
 18 35  1  0
 18 36  1  0
 19 37  1  0
 20 38  1  0
 20 39  1  0
 21 40  1  0
 22 41  1  0
 22 42  1  0
 23 43  1  0
 23 44  1  0
 24 45  1  0
 24 46  1  0
M  END
$$$$
