
     RDKit          3D

 40 42  0  0  0  0  0  0  0  0999 V2000
    6.9774   -1.0591    1.6509 C   0  0  0  0  0  0  0  0  0  0  0  0
    5.4856   -1.0798    1.4851 C   0  0  0  0  0  0  0  0  0  0  0  0
    4.9164   -1.2931    0.2220 C   0  0  0  0  0  0  0  0  0  0  0  0
    3.5300   -1.3469    0.0714 C   0  0  0  0  0  0  0  0  0  0  0  0
    2.7096   -1.1898    1.1913 C   0  0  0  0  0  0  0  0  0  0  0  0
    0.9465   -1.2689    0.9903 S   0  0  0  0  0  6  0  0  0  0  0  0
    0.6697   -2.3119    0.0269 O   0  0  0  0  0  0  0  0  0  0  0  0
    0.3409   -1.2455    2.3046 O   0  0  0  0  0  0  0  0  0  0  0  0
    0.6494    0.2657    0.2907 N   0  0  0  0  0  0  0  0  0  0  0  0
   -0.6518    0.3317   -0.4045 C   0  0  0  0  0  0  0  0  0  0  0  0
   -1.7673    0.9735    0.0723 C   0  0  0  0  0  0  0  0  0  0  0  0
   -2.7689    0.7963   -0.9252 C   0  0  0  0  0  0  0  0  0  0  0  0
   -4.1580    1.2738   -0.9119 C   0  0  0  0  0  0  0  0  0  0  0  0
   -4.9370    1.2246   -2.0790 C   0  0  0  0  0  0  0  0  0  0  0  0
   -6.2585    1.6792   -2.0808 C   0  0  0  0  0  0  0  0  0  0  0  0
   -6.8215    2.1881   -0.9135 C   0  0  0  0  0  0  0  0  0  0  0  0
   -6.0649    2.2409    0.2548 C   0  0  0  0  0  0  0  0  0  0  0  0
   -4.7418    1.7865    0.2565 C   0  0  0  0  0  0  0  0  0  0  0  0
   -2.2726    0.1055   -1.9669 N   0  0  0  0  0  0  0  0  0  0  0  0
   -0.9996   -0.1718   -1.6255 N   0  0  0  0  0  0  0  0  0  0  0  0
   -0.1660   -0.8817   -2.5634 C   0  0  0  0  0  0  0  0  0  0  0  0
    3.2618   -1.0024    2.4602 C   0  0  0  0  0  0  0  0  0  0  0  0
    4.6496   -0.9494    2.6029 C   0  0  0  0  0  0  0  0  0  0  0  0
    7.4682   -0.7058    0.7379 H   0  0  0  0  0  0  0  0  0  0  0  0
    7.2695   -0.3811    2.4597 H   0  0  0  0  0  0  0  0  0  0  0  0
    7.3419   -2.0649    1.8813 H   0  0  0  0  0  0  0  0  0  0  0  0
    5.5525   -1.4229   -0.6514 H   0  0  0  0  0  0  0  0  0  0  0  0
    3.0998   -1.5163   -0.9127 H   0  0  0  0  0  0  0  0  0  0  0  0
    0.6861    0.9476    1.0528 H   0  0  0  0  0  0  0  0  0  0  0  0
   -1.8601    1.4941    1.0134 H   0  0  0  0  0  0  0  0  0  0  0  0
   -4.5148    0.8277   -3.0006 H   0  0  0  0  0  0  0  0  0  0  0  0
   -6.8446    1.6316   -2.9949 H   0  0  0  0  0  0  0  0  0  0  0  0
   -7.8500    2.5391   -0.9136 H   0  0  0  0  0  0  0  0  0  0  0  0
   -6.5051    2.6319    1.1685 H   0  0  0  0  0  0  0  0  0  0  0  0
   -4.1856    1.8316    1.1882 H   0  0  0  0  0  0  0  0  0  0  0  0
   -0.3417   -0.4772   -3.5639 H   0  0  0  0  0  0  0  0  0  0  0  0
    0.8854   -0.7458   -2.3013 H   0  0  0  0  0  0  0  0  0  0  0  0
   -0.4372   -1.9394   -2.5308 H   0  0  0  0  0  0  0  0  0  0  0  0
    2.6286   -0.9049    3.3392 H   0  0  0  0  0  0  0  0  0  0  0  0
    5.0779   -0.8108    3.5938 H   0  0  0  0  0  0  0  0  0  0  0  0
  1  2  1  0
  2  3  2  0
  3  4  1  0
  4  5  2  0
  5  6  1  0
  6  7  2  0
  6  8  2  0
  6  9  1  0
  9 10  1  0
 10 11  2  0
 11 12  1  0
 12 13  1  0
 13 14  2  0
 14 15  1  0
 15 16  2  0
 16 17  1  0
 17 18  2  0
 12 19  2  0
 19 20  1  0
 20 21  1  0
  5 22  1  0
 22 23  2  0
 23  2  1  0
 20 10  1  0
 18 13  1  0
  1 24  1  0
  1 25  1  0
  1 26  1  0
  3 27  1  0
  4 28  1  0
  9 29  1  0
 11 30  1  0
 14 31  1  0
 15 32  1  0
 16 33  1  0
 17 34  1  0
 18 35  1  0
 21 36  1  0
 21 37  1  0
 21 38  1  0
 22 39  1  0
 23 40  1  0
M  END
$$$$
