
     RDKit          3D

 33 35  0  0  0  0  0  0  0  0999 V2000
   -0.8896   -0.7096   -2.2882 O   0  0  0  0  0  0  0  0  0  0  0  0
   -0.3919   -1.1135   -1.2480 C   0  0  0  0  0  0  0  0  0  0  0  0
    1.0193   -0.8458   -0.8428 C   0  0  0  0  0  0  0  0  0  0  0  0
    1.8050   -0.0731   -1.6055 C   0  0  0  0  0  0  0  0  0  0  0  0
    3.1533    0.2781   -1.3073 C   0  0  0  0  0  0  0  0  0  0  0  0
    4.2101   -0.4756   -0.8238 C   0  0  0  0  0  0  0  0  0  0  0  0
    5.4132    0.2755   -0.6763 C   0  0  0  0  0  0  0  0  0  0  0  0
    5.2528    1.5834   -1.0671 C   0  0  0  0  0  0  0  0  0  0  0  0
    3.6673    1.8971   -1.6152 S   0  0  0  0  0  0  0  0  0  0  0  0
    1.3587   -1.5930    0.6745 S   0  0  0  0  0  0  0  0  0  0  0  0
   -0.2590   -2.2516    0.8310 C   0  0  0  0  0  0  0  0  0  0  0  0
   -0.7627   -3.2063    2.1004 S   0  0  0  0  0  0  0  0  0  0  0  0
   -1.0094   -1.8599   -0.2567 N   0  0  0  0  0  0  0  0  0  0  0  0
   -2.4599   -2.2603   -0.3957 N   0  0  0  0  0  0  0  0  0  0  0  0
   -3.6496   -1.0525   -0.2155 S   0  0  0  0  0  6  0  0  0  0  0  0
   -4.6488   -1.6254    0.6621 O   0  0  0  0  0  0  0  0  0  0  0  0
   -4.0007   -0.5441   -1.5211 O   0  0  0  0  0  0  0  0  0  0  0  0
   -2.8332    0.2411    0.6897 C   0  0  0  0  0  0  0  0  0  0  0  0
   -2.2934    1.3324    0.0014 C   0  0  0  0  0  0  0  0  0  0  0  0
   -1.6284    2.3306    0.7118 C   0  0  0  0  0  0  0  0  0  0  0  0
   -1.5226    2.2459    2.1010 C   0  0  0  0  0  0  0  0  0  0  0  0
   -2.0911    1.1708    2.7867 C   0  0  0  0  0  0  0  0  0  0  0  0
   -2.7570    0.1674    2.0838 C   0  0  0  0  0  0  0  0  0  0  0  0
    1.3822    0.3613   -2.5123 H   0  0  0  0  0  0  0  0  0  0  0  0
    4.1375   -1.5305   -0.5882 H   0  0  0  0  0  0  0  0  0  0  0  0
    6.3490   -0.1276   -0.3087 H   0  0  0  0  0  0  0  0  0  0  0  0
    5.9941    2.3709   -1.0660 H   0  0  0  0  0  0  0  0  0  0  0  0
   -2.7256   -3.0651    0.1826 H   0  0  0  0  0  0  0  0  0  0  0  0
   -2.3803    1.4076   -1.0821 H   0  0  0  0  0  0  0  0  0  0  0  0
   -1.1997    3.1801    0.1845 H   0  0  0  0  0  0  0  0  0  0  0  0
   -1.0086    3.0298    2.6533 H   0  0  0  0  0  0  0  0  0  0  0  0
   -2.0215    1.1215    3.8713 H   0  0  0  0  0  0  0  0  0  0  0  0
   -3.2094   -0.6596    2.6274 H   0  0  0  0  0  0  0  0  0  0  0  0
  1  2  2  0
  2  3  1  0
  3  4  2  3
  4  5  1  0
  5  6  2  0
  6  7  1  0
  7  8  2  0
  8  9  1  0
  3 10  1  0
 10 11  1  0
 11 12  2  0
 11 13  1  0
 13 14  1  0
 14 15  1  0
 15 16  2  0
 15 17  2  0
 15 18  1  0
 18 19  2  0
 19 20  1  0
 20 21  2  0
 21 22  1  0
 22 23  2  0
 13  2  1  0
 23 18  1  0
  9  5  1  0
  4 24  1  0
  6 25  1  0
  7 26  1  0
  8 27  1  0
 14 28  1  0
 19 29  1  0
 20 30  1  0
 21 31  1  0
 22 32  1  0
 23 33  1  0
M  END
$$$$
