
     RDKit          3D

 52 54  0  0  0  0  0  0  0  0999 V2000
    6.2163    1.4033   -0.6980 C   0  0  0  0  0  0  0  0  0  0  0  0
    5.9533   -0.0059   -0.9775 N   0  0  0  0  0  0  0  0  0  0  0  0
    6.6308   -0.9820   -0.1159 C   0  0  0  0  0  0  0  0  0  0  0  0
    7.8346   -1.6125   -0.8137 C   0  0  0  0  0  0  0  0  0  0  0  0
    8.5580   -2.4975    0.1074 C   0  0  0  0  0  0  0  0  0  0  0  0
    9.1400   -3.1819    0.8437 N   0  0  0  0  0  0  0  0  0  0  0  0
    4.9818   -0.4794   -1.8537 C   0  0  0  0  0  0  0  0  0  0  0  0
    4.8026   -1.6957   -2.0055 O   0  0  0  0  0  0  0  0  0  0  0  0
    4.1104    0.5113   -2.6352 C   0  0  0  0  0  0  0  0  0  0  0  0
    2.7201    0.2352   -2.4247 O   0  0  0  0  0  0  0  0  0  0  0  0
    2.2343    0.7320   -1.2614 C   0  0  0  0  0  0  0  0  0  0  0  0
    2.8484    1.4193   -0.4604 O   0  0  0  0  0  0  0  0  0  0  0  0
    0.8150    0.3374   -1.0717 C   0  0  0  0  0  0  0  0  0  0  0  0
    0.2390   -0.7467   -1.7817 C   0  0  0  0  0  0  0  0  0  0  0  0
   -1.0913   -1.1263   -1.5598 C   0  0  0  0  0  0  0  0  0  0  0  0
   -1.8103   -0.3993   -0.6308 C   0  0  0  0  0  0  0  0  0  0  0  0
   -1.2528    0.6601    0.0589 C   0  0  0  0  0  0  0  0  0  0  0  0
    0.0579    1.0533   -0.1305 C   0  0  0  0  0  0  0  0  0  0  0  0
   -2.2777    1.1908    0.9537 C   0  0  0  0  0  0  0  0  0  0  0  0
   -2.0890    2.1179    1.7182 O   0  0  0  0  0  0  0  0  0  0  0  0
   -3.4091    0.4452    0.7463 N   0  0  0  0  0  0  0  0  0  0  0  0
   -4.6381    0.6304    1.5166 C   0  0  0  0  0  0  0  0  0  0  0  0
   -5.8680    0.8112    0.6169 C   0  0  0  0  0  0  0  0  0  0  0  0
   -7.1364    1.0161    1.4421 C   0  0  0  0  0  0  0  0  0  0  0  0
   -7.3441   -0.1224    2.4377 C   0  0  0  0  0  0  0  0  0  0  0  0
   -6.1257   -0.3202    3.3360 C   0  0  0  0  0  0  0  0  0  0  0  0
   -4.8471   -0.5121    2.5227 C   0  0  0  0  0  0  0  0  0  0  0  0
   -3.1873   -0.5532   -0.1660 C   0  0  0  0  0  0  0  0  0  0  0  0
   -3.9258   -1.4392   -0.5503 O   0  0  0  0  0  0  0  0  0  0  0  0
    7.2496    1.5343   -0.3587 H   0  0  0  0  0  0  0  0  0  0  0  0
    6.0787    2.0168   -1.5867 H   0  0  0  0  0  0  0  0  0  0  0  0
    5.5366    1.7266    0.0957 H   0  0  0  0  0  0  0  0  0  0  0  0
    5.9135   -1.7686    0.1705 H   0  0  0  0  0  0  0  0  0  0  0  0
    6.9285   -0.4836    0.8213 H   0  0  0  0  0  0  0  0  0  0  0  0
    8.5109   -0.8253   -1.1669 H   0  0  0  0  0  0  0  0  0  0  0  0
    7.5115   -2.1722   -1.6982 H   0  0  0  0  0  0  0  0  0  0  0  0
    4.3149    1.5638   -2.4357 H   0  0  0  0  0  0  0  0  0  0  0  0
    4.3207    0.3494   -3.6985 H   0  0  0  0  0  0  0  0  0  0  0  0
    0.8322   -1.3128   -2.4993 H   0  0  0  0  0  0  0  0  0  0  0  0
   -1.5394   -1.9637   -2.0873 H   0  0  0  0  0  0  0  0  0  0  0  0
    0.4774    1.8813    0.4348 H   0  0  0  0  0  0  0  0  0  0  0  0
   -4.5192    1.5569    2.0944 H   0  0  0  0  0  0  0  0  0  0  0  0
   -6.0066   -0.0624   -0.0288 H   0  0  0  0  0  0  0  0  0  0  0  0
   -5.7194    1.6700   -0.0478 H   0  0  0  0  0  0  0  0  0  0  0  0
   -8.0039    1.0853    0.7744 H   0  0  0  0  0  0  0  0  0  0  0  0
   -7.0718    1.9696    1.9826 H   0  0  0  0  0  0  0  0  0  0  0  0
   -7.5481   -1.0515    1.8905 H   0  0  0  0  0  0  0  0  0  0  0  0
   -8.2260    0.0843    3.0548 H   0  0  0  0  0  0  0  0  0  0  0  0
   -6.0104    0.5499    3.9960 H   0  0  0  0  0  0  0  0  0  0  0  0
   -6.2849   -1.1913    3.9845 H   0  0  0  0  0  0  0  0  0  0  0  0
   -4.8958   -1.4757    2.0017 H   0  0  0  0  0  0  0  0  0  0  0  0
   -3.9884   -0.5701    3.2021 H   0  0  0  0  0  0  0  0  0  0  0  0
  1  2  1  0
  2  3  1  0
  3  4  1  0
  4  5  1  0
  5  6  3  0
  2  7  1  0
  7  8  2  0
  7  9  1  0
  9 10  1  0
 10 11  1  0
 11 12  2  0
 11 13  1  0
 13 14  2  0
 14 15  1  0
 15 16  2  0
 16 17  1  0
 17 18  2  0
 17 19  1  0
 19 20  2  0
 19 21  1  0
 21 22  1  0
 22 23  1  0
 23 24  1  0
 24 25  1  0
 25 26  1  0
 26 27  1  0
 21 28  1  0
 28 29  2  0
 18 13  1  0
 27 22  1  0
 28 16  1  0
  1 30  1  0
  1 31  1  0
  1 32  1  0
  3 33  1  0
  3 34  1  0
  4 35  1  0
  4 36  1  0
  9 37  1  0
  9 38  1  0
 14 39  1  0
 15 40  1  0
 18 41  1  0
 22 42  1  0
 23 43  1  0
 23 44  1  0
 24 45  1  0
 24 46  1  0
 25 47  1  0
 25 48  1  0
 26 49  1  0
 26 50  1  0
 27 51  1  0
 27 52  1  0
M  END
$$$$
