
     RDKit          3D

 54 56  0  0  0  0  0  0  0  0999 V2000
   -1.7564    1.2276   -1.5800 C   0  0  0  0  0  0  0  0  0  0  0  0
   -2.9953    0.7174   -0.8859 C   0  0  0  0  0  0  0  0  0  0  0  0
   -4.1619    1.4919   -0.9856 C   0  0  0  0  0  0  0  0  0  0  0  0
   -5.3268    1.0974   -0.3472 C   0  0  0  0  0  0  0  0  0  0  0  0
   -5.3517   -0.0962    0.3692 C   0  0  0  0  0  0  0  0  0  0  0  0
   -4.2095   -0.9205    0.4804 C   0  0  0  0  0  0  0  0  0  0  0  0
   -4.3836   -2.2866    1.1418 C   0  0  0  0  0  0  0  0  0  0  0  0
   -4.8327   -2.1668    2.6049 C   0  0  0  0  0  0  0  0  0  0  0  0
   -5.3676   -3.1587    0.3517 C   0  0  0  0  0  0  0  0  0  0  0  0
   -3.0050   -0.4813   -0.1223 C   0  0  0  0  0  0  0  0  0  0  0  0
   -1.7898   -1.2165   -0.0545 N   0  0  0  0  0  0  0  0  0  0  0  0
   -1.2053   -1.6418    1.1308 C   0  0  0  0  0  0  0  0  0  0  0  0
   -1.7042   -1.5581    2.2512 O   0  0  0  0  0  0  0  0  0  0  0  0
    0.1424   -2.3418    0.9653 C   0  0  0  0  0  0  0  0  0  0  0  0
    1.0591   -1.6586   -0.0118 C   0  0  0  0  0  0  0  0  0  0  0  0
    1.5288   -2.1501   -1.2139 C   0  0  0  0  0  0  0  0  0  0  0  0
    2.3520   -1.2036   -1.8945 C   0  0  0  0  0  0  0  0  0  0  0  0
    2.4837   -0.0237   -1.1895 C   0  0  0  0  0  0  0  0  0  0  0  0
    3.3160    1.5012   -1.5732 S   0  0  0  0  0  6  0  0  0  0  0  0
    2.2556    2.4751   -1.7186 O   0  0  0  0  0  0  0  0  0  0  0  0
    4.1997    1.1693   -2.6739 O   0  0  0  0  0  0  0  0  0  0  0  0
    4.2820    1.9401   -0.2480 N   0  0  0  0  0  0  0  0  0  0  0  0
    5.4500    1.0417    0.0267 C   0  0  0  0  0  0  0  0  0  0  0  0
    6.7571    1.6975   -0.4284 C   0  0  0  0  0  0  0  0  0  0  0  0
    7.0399    2.9229    0.2633 O   0  0  0  0  0  0  0  0  0  0  0  0
    5.8595    3.6293    0.6758 C   0  0  0  0  0  0  0  0  0  0  0  0
    4.6663    3.3887   -0.2496 C   0  0  0  0  0  0  0  0  0  0  0  0
    1.6706   -0.0896    0.3106 S   0  0  0  0  0  0  0  0  0  0  0  0
   -0.9341    1.3215   -0.8668 H   0  0  0  0  0  0  0  0  0  0  0  0
   -1.4712    0.5488   -2.3892 H   0  0  0  0  0  0  0  0  0  0  0  0
   -1.9150    2.2191   -2.0145 H   0  0  0  0  0  0  0  0  0  0  0  0
   -4.1627    2.4195   -1.5552 H   0  0  0  0  0  0  0  0  0  0  0  0
   -6.2220    1.7084   -0.4185 H   0  0  0  0  0  0  0  0  0  0  0  0
   -6.2911   -0.3989    0.8274 H   0  0  0  0  0  0  0  0  0  0  0  0
   -3.4437   -2.8382    1.1309 H   0  0  0  0  0  0  0  0  0  0  0  0
   -4.1654   -1.5098    3.1718 H   0  0  0  0  0  0  0  0  0  0  0  0
   -5.8447   -1.7592    2.6929 H   0  0  0  0  0  0  0  0  0  0  0  0
   -4.8367   -3.1504    3.0832 H   0  0  0  0  0  0  0  0  0  0  0  0
   -5.4046   -4.1679    0.7763 H   0  0  0  0  0  0  0  0  0  0  0  0
   -5.0557   -3.2467   -0.6942 H   0  0  0  0  0  0  0  0  0  0  0  0
   -6.3860   -2.7551    0.3697 H   0  0  0  0  0  0  0  0  0  0  0  0
   -1.1206   -0.9882   -0.7782 H   0  0  0  0  0  0  0  0  0  0  0  0
    0.6329   -2.3900    1.9467 H   0  0  0  0  0  0  0  0  0  0  0  0
   -0.0546   -3.3750    0.6494 H   0  0  0  0  0  0  0  0  0  0  0  0
    1.2861   -3.1342   -1.6001 H   0  0  0  0  0  0  0  0  0  0  0  0
    2.8132   -1.3646   -2.8615 H   0  0  0  0  0  0  0  0  0  0  0  0
    5.4700    0.8533    1.1059 H   0  0  0  0  0  0  0  0  0  0  0  0
    5.3299    0.0738   -0.4668 H   0  0  0  0  0  0  0  0  0  0  0  0
    6.7318    1.9191   -1.5013 H   0  0  0  0  0  0  0  0  0  0  0  0
    7.5983    1.0209   -0.2537 H   0  0  0  0  0  0  0  0  0  0  0  0
    5.6291    3.3199    1.7041 H   0  0  0  0  0  0  0  0  0  0  0  0
    6.1108    4.6953    0.7025 H   0  0  0  0  0  0  0  0  0  0  0  0
    4.9261    3.6987   -1.2697 H   0  0  0  0  0  0  0  0  0  0  0  0
    3.8072    3.9738    0.0893 H   0  0  0  0  0  0  0  0  0  0  0  0
  1  2  1  0
  2  3  2  0
  3  4  1  0
  4  5  2  0
  5  6  1  0
  6  7  1  0
  7  8  1  0
  7  9  1  0
  6 10  2  0
 10 11  1  0
 11 12  1  0
 12 13  2  0
 12 14  1  0
 14 15  1  0
 15 16  2  0
 16 17  1  0
 17 18  2  0
 18 19  1  0
 19 20  2  0
 19 21  2  0
 19 22  1  0
 22 23  1  0
 23 24  1  0
 24 25  1  0
 25 26  1  0
 26 27  1  0
 18 28  1  0
 10  2  1  0
 28 15  1  0
 27 22  1  0
  1 29  1  0
  1 30  1  0
  1 31  1  0
  3 32  1  0
  4 33  1  0
  5 34  1  0
  7 35  1  0
  8 36  1  0
  8 37  1  0
  8 38  1  0
  9 39  1  0
  9 40  1  0
  9 41  1  0
 11 42  1  0
 14 43  1  0
 14 44  1  0
 16 45  1  0
 17 46  1  0
 23 47  1  0
 23 48  1  0
 24 49  1  0
 24 50  1  0
 26 51  1  0
 26 52  1  0
 27 53  1  0
 27 54  1  0
M  END
$$$$
