
     RDKit          3D

 50 53  0  0  0  0  0  0  0  0999 V2000
    2.8388   -0.8875    3.8075 C   0  0  0  0  0  0  0  0  0  0  0  0
    2.9133   -0.2278    2.4895 C   0  0  0  0  0  0  0  0  0  0  0  0
    3.8480   -0.2286    1.4786 C   0  0  0  0  0  0  0  0  0  0  0  0
    3.3298    0.6017    0.4557 C   0  0  0  0  0  0  0  0  0  0  0  0
    2.1020    1.0491    0.8972 C   0  0  0  0  0  0  0  0  0  0  0  0
    1.0544    1.9347    0.3307 C   0  0  0  0  0  0  0  0  0  0  0  0
    0.3591    1.3124   -0.7989 N   0  0  0  0  0  0  0  0  0  0  0  0
    0.5858    1.8893   -2.1249 C   0  0  0  0  0  0  0  0  0  0  0  0
    1.8820    1.4460   -2.7415 C   0  0  0  0  0  0  0  0  0  0  0  0
    2.0977    0.1140   -3.1089 C   0  0  0  0  0  0  0  0  0  0  0  0
    3.3133   -0.2600   -3.6728 C   0  0  0  0  0  0  0  0  0  0  0  0
    4.2790    0.7151   -3.8531 C   0  0  0  0  0  0  0  0  0  0  0  0
    4.1092    2.0115   -3.5137 N   0  0  0  0  0  0  0  0  0  0  0  0
    2.9151    2.3473   -2.9756 C   0  0  0  0  0  0  0  0  0  0  0  0
   -0.5478    0.2581   -0.6872 C   0  0  0  0  0  0  0  0  0  0  0  0
   -1.1432   -0.1738   -1.6800 O   0  0  0  0  0  0  0  0  0  0  0  0
   -0.7699   -0.3673    0.7030 C   0  0  0  0  0  0  0  0  0  0  0  0
   -1.9492   -1.2300    0.7204 N   0  0  0  0  0  0  0  0  0  0  0  0
   -1.7743   -2.5818    0.4535 C   0  0  0  0  0  0  0  0  0  0  0  0
   -0.6748   -3.1169    0.3048 O   0  0  0  0  0  0  0  0  0  0  0  0
   -3.0668   -3.3680    0.2737 C   0  0  0  0  0  0  0  0  0  0  0  0
   -4.2024   -2.9584    1.0122 O   0  0  0  0  0  0  0  0  0  0  0  0
   -4.3360   -1.5967    1.0550 C   0  0  0  0  0  0  0  0  0  0  0  0
   -5.6266   -1.1279    1.3114 C   0  0  0  0  0  0  0  0  0  0  0  0
   -5.8678    0.2402    1.3982 C   0  0  0  0  0  0  0  0  0  0  0  0
   -4.8151    1.1366    1.2387 C   0  0  0  0  0  0  0  0  0  0  0  0
   -3.5183    0.6666    1.0022 C   0  0  0  0  0  0  0  0  0  0  0  0
   -3.2590   -0.7085    0.9127 C   0  0  0  0  0  0  0  0  0  0  0  0
    1.8554    0.5579    2.1475 O   0  0  0  0  0  0  0  0  0  0  0  0
    2.7166   -0.1446    4.6017 H   0  0  0  0  0  0  0  0  0  0  0  0
    1.9881   -1.5750    3.8425 H   0  0  0  0  0  0  0  0  0  0  0  0
    3.7490   -1.4594    4.0126 H   0  0  0  0  0  0  0  0  0  0  0  0
    4.7875   -0.7638    1.4771 H   0  0  0  0  0  0  0  0  0  0  0  0
    3.7981    0.8353   -0.4903 H   0  0  0  0  0  0  0  0  0  0  0  0
    0.3091    2.1900    1.0916 H   0  0  0  0  0  0  0  0  0  0  0  0
    1.5083    2.8788    0.0088 H   0  0  0  0  0  0  0  0  0  0  0  0
   -0.2278    1.6278   -2.8117 H   0  0  0  0  0  0  0  0  0  0  0  0
    0.5458    2.9816   -2.0297 H   0  0  0  0  0  0  0  0  0  0  0  0
    1.3212   -0.6334   -2.9553 H   0  0  0  0  0  0  0  0  0  0  0  0
    3.5000   -1.2879   -3.9632 H   0  0  0  0  0  0  0  0  0  0  0  0
    5.2439    0.4724   -4.2890 H   0  0  0  0  0  0  0  0  0  0  0  0
    2.8177    3.4003   -2.7247 H   0  0  0  0  0  0  0  0  0  0  0  0
   -0.8724    0.3908    1.4824 H   0  0  0  0  0  0  0  0  0  0  0  0
    0.1138   -0.9698    0.9335 H   0  0  0  0  0  0  0  0  0  0  0  0
   -2.8600   -4.4043    0.5636 H   0  0  0  0  0  0  0  0  0  0  0  0
   -3.3171   -3.3702   -0.7943 H   0  0  0  0  0  0  0  0  0  0  0  0
   -6.4434   -1.8336    1.4378 H   0  0  0  0  0  0  0  0  0  0  0  0
   -6.8739    0.6047    1.5886 H   0  0  0  0  0  0  0  0  0  0  0  0
   -5.0012    2.2062    1.3009 H   0  0  0  0  0  0  0  0  0  0  0  0
   -2.7350    1.4068    0.8816 H   0  0  0  0  0  0  0  0  0  0  0  0
  1  2  1  0
  2  3  2  0
  3  4  1  0
  4  5  2  0
  5  6  1  0
  6  7  1  0
  7  8  1  0
  8  9  1  0
  9 10  2  0
 10 11  1  0
 11 12  2  0
 12 13  1  0
 13 14  2  0
  7 15  1  0
 15 16  2  0
 15 17  1  0
 17 18  1  0
 18 19  1  0
 19 20  2  0
 19 21  1  0
 21 22  1  0
 22 23  1  0
 23 24  2  0
 24 25  1  0
 25 26  2  0
 26 27  1  0
 27 28  2  0
  5 29  1  0
 29  2  1  0
 14  9  1  0
 28 18  1  0
 28 23  1  0
  1 30  1  0
  1 31  1  0
  1 32  1  0
  3 33  1  0
  4 34  1  0
  6 35  1  0
  6 36  1  0
  8 37  1  0
  8 38  1  0
 10 39  1  0
 11 40  1  0
 12 41  1  0
 14 42  1  0
 17 43  1  0
 17 44  1  0
 21 45  1  0
 21 46  1  0
 24 47  1  0
 25 48  1  0
 26 49  1  0
 27 50  1  0
M  END
$$$$
