
     RDKit          3D

 54 58  0  0  0  0  0  0  0  0999 V2000
    6.3379   -2.4812    0.6674 C   0  0  0  0  0  0  0  0  0  0  0  0
    5.0247   -1.7696    0.9520 C   0  0  0  0  0  0  0  0  0  0  0  0
    4.3771   -1.2171   -0.3093 C   0  0  0  0  0  0  0  0  0  0  0  0
    4.9213   -1.3313   -1.4080 O   0  0  0  0  0  0  0  0  0  0  0  0
    3.1319   -0.5979   -0.1603 N   0  0  0  0  0  0  0  0  0  0  0  0
    2.6197   -0.1391    1.1296 C   0  0  0  0  0  0  0  0  0  0  0  0
    1.0922   -0.1274    1.1633 C   0  0  0  0  0  0  0  0  0  0  0  0
    0.4810    0.6635   -0.0209 C   0  0  0  0  0  0  0  0  0  0  0  0
    1.0649    0.0952   -1.3346 C   0  0  0  0  0  0  0  0  0  0  0  0
    2.5907    0.0852   -1.3313 C   0  0  0  0  0  0  0  0  0  0  0  0
    0.9720    2.0160    0.1709 O   0  0  0  0  0  0  0  0  0  0  0  0
    0.3168    3.0283   -0.4627 C   0  0  0  0  0  0  0  0  0  0  0  0
    0.9679    4.2620   -0.4804 C   0  0  0  0  0  0  0  0  0  0  0  0
    0.3829    5.3549   -1.1249 C   0  0  0  0  0  0  0  0  0  0  0  0
   -0.8560    5.2111   -1.7489 C   0  0  0  0  0  0  0  0  0  0  0  0
   -1.5699    6.5568   -2.5467 Cl  0  0  0  0  0  0  0  0  0  0  0  0
   -1.5186    3.9871   -1.7272 C   0  0  0  0  0  0  0  0  0  0  0  0
   -0.9275    2.9026   -1.0704 C   0  0  0  0  0  0  0  0  0  0  0  0
   -1.6106    1.6036   -1.0141 C   0  0  0  0  0  0  0  0  0  0  0  0
   -2.5493    1.3769   -1.7733 O   0  0  0  0  0  0  0  0  0  0  0  0
   -1.0729    0.6077    0.0079 C   0  0  0  0  0  0  0  0  0  0  0  0
   -1.6868   -0.7701   -0.2010 C   0  0  0  0  0  0  0  0  0  0  0  0
   -2.8035   -0.6757    0.7826 C   0  0  0  0  0  0  0  0  0  0  0  0
   -3.9157   -1.6552    0.8105 C   0  0  0  0  0  0  0  0  0  0  0  0
   -4.9654   -1.4620    1.7194 C   0  0  0  0  0  0  0  0  0  0  0  0
   -6.0279   -2.3683    1.7750 C   0  0  0  0  0  0  0  0  0  0  0  0
   -6.0418   -3.4696    0.9227 C   0  0  0  0  0  0  0  0  0  0  0  0
   -7.3469   -4.5877    0.9894 Cl  0  0  0  0  0  0  0  0  0  0  0  0
   -5.0023   -3.6719    0.0159 C   0  0  0  0  0  0  0  0  0  0  0  0
   -3.9376   -2.7660   -0.0415 C   0  0  0  0  0  0  0  0  0  0  0  0
   -2.7035    0.3024    1.6255 N   0  0  0  0  0  0  0  0  0  0  0  0
   -1.5420    1.0338    1.2986 O   0  0  0  0  0  0  0  0  0  0  0  0
    7.0633   -1.8005    0.2096 H   0  0  0  0  0  0  0  0  0  0  0  0
    6.1888   -3.3232   -0.0167 H   0  0  0  0  0  0  0  0  0  0  0  0
    6.7705   -2.8673    1.5955 H   0  0  0  0  0  0  0  0  0  0  0  0
    4.3342   -2.4789    1.4207 H   0  0  0  0  0  0  0  0  0  0  0  0
    5.2185   -0.9416    1.6419 H   0  0  0  0  0  0  0  0  0  0  0  0
    3.0294    0.8621    1.3085 H   0  0  0  0  0  0  0  0  0  0  0  0
    2.9756   -0.7775    1.9418 H   0  0  0  0  0  0  0  0  0  0  0  0
    0.7461   -1.1662    1.1566 H   0  0  0  0  0  0  0  0  0  0  0  0
    0.7833    0.3141    2.1187 H   0  0  0  0  0  0  0  0  0  0  0  0
    0.7106   -0.9314   -1.4883 H   0  0  0  0  0  0  0  0  0  0  0  0
    0.7343    0.6825   -2.1988 H   0  0  0  0  0  0  0  0  0  0  0  0
    2.9919    1.1059   -1.3334 H   0  0  0  0  0  0  0  0  0  0  0  0
    2.9397   -0.3966   -2.2514 H   0  0  0  0  0  0  0  0  0  0  0  0
    1.9360    4.3744    0.0025 H   0  0  0  0  0  0  0  0  0  0  0  0
    0.8983    6.3123   -1.1377 H   0  0  0  0  0  0  0  0  0  0  0  0
   -2.4889    3.8773   -2.2060 H   0  0  0  0  0  0  0  0  0  0  0  0
   -1.0397   -1.5946    0.1071 H   0  0  0  0  0  0  0  0  0  0  0  0
   -2.0342   -0.9542   -1.2202 H   0  0  0  0  0  0  0  0  0  0  0  0
   -4.9655   -0.6032    2.3888 H   0  0  0  0  0  0  0  0  0  0  0  0
   -6.8370   -2.2065    2.4827 H   0  0  0  0  0  0  0  0  0  0  0  0
   -5.0155   -4.5319   -0.6493 H   0  0  0  0  0  0  0  0  0  0  0  0
   -3.1423   -2.9518   -0.7571 H   0  0  0  0  0  0  0  0  0  0  0  0
  1  2  1  0
  2  3  1  0
  3  4  2  0
  3  5  1  0
  5  6  1  0
  6  7  1  0
  7  8  1  0
  8  9  1  0
  9 10  1  0
  8 11  1  0
 11 12  1  0
 12 13  2  0
 13 14  1  0
 14 15  2  0
 15 16  1  0
 15 17  1  0
 17 18  2  0
 18 19  1  0
 19 20  2  0
 19 21  1  0
 21 22  1  0
 22 23  1  0
 23 24  1  0
 24 25  2  0
 25 26  1  0
 26 27  2  0
 27 28  1  0
 27 29  1  0
 29 30  2  0
 23 31  2  0
 31 32  1  0
 10  5  1  0
 18 12  1  0
 32 21  1  0
 21  8  1  0
 30 24  1  0
  1 33  1  0
  1 34  1  0
  1 35  1  0
  2 36  1  0
  2 37  1  0
  6 38  1  0
  6 39  1  0
  7 40  1  0
  7 41  1  0
  9 42  1  0
  9 43  1  0
 10 44  1  0
 10 45  1  0
 13 46  1  0
 14 47  1  0
 17 48  1  0
 22 49  1  0
 22 50  1  0
 25 51  1  0
 26 52  1  0
 29 53  1  0
 30 54  1  0
M  END
$$$$
