
     RDKit          3D

 49 52  0  0  0  0  0  0  0  0999 V2000
    4.2486    2.2472   -0.7774 O   0  0  0  0  0  0  0  0  0  0  0  0
    3.4737    1.3715   -1.1555 C   0  0  0  0  0  0  0  0  0  0  0  0
    2.3190    1.7181   -2.0817 C   0  0  0  0  0  0  0  0  0  0  0  0
    0.8460    2.1511   -1.1132 S   0  0  0  0  0  0  0  0  0  0  0  0
    0.1941    0.5813   -0.8026 C   0  0  0  0  0  0  0  0  0  0  0  0
    0.6223   -0.5290   -1.3505 N   0  0  0  0  0  0  0  0  0  0  0  0
   -0.1649   -1.5477   -0.8933 N   0  0  0  0  0  0  0  0  0  0  0  0
   -1.0439   -1.0519   -0.0416 C   0  0  0  0  0  0  0  0  0  0  0  0
   -2.0664   -1.8352    0.6446 C   0  0  0  0  0  0  0  0  0  0  0  0
   -2.9365   -2.6316   -0.1061 C   0  0  0  0  0  0  0  0  0  0  0  0
   -3.9007   -3.3668    0.5593 C   0  0  0  0  0  0  0  0  0  0  0  0
   -4.0460   -3.3656    1.9023 N   0  0  0  0  0  0  0  0  0  0  0  0
   -3.1742   -2.6150    2.6103 C   0  0  0  0  0  0  0  0  0  0  0  0
   -2.1765   -1.8445    2.0362 C   0  0  0  0  0  0  0  0  0  0  0  0
   -0.8667    0.3184    0.0202 N   0  0  0  0  0  0  0  0  0  0  0  0
   -1.6844    1.2674    0.7437 C   0  0  0  0  0  0  0  0  0  0  0  0
   -3.0497    1.5055    0.1046 C   0  0  0  0  0  0  0  0  0  0  0  0
   -3.0140    2.2164   -1.2395 C   0  0  0  0  0  0  0  0  0  0  0  0
   -4.4165    2.7653   -1.3189 C   0  0  0  0  0  0  0  0  0  0  0  0
   -4.6844    3.1699    0.1189 C   0  0  0  0  0  0  0  0  0  0  0  0
   -3.8484    2.3510    0.9528 O   0  0  0  0  0  0  0  0  0  0  0  0
    3.5347    0.0292   -0.8172 N   0  0  0  0  0  0  0  0  0  0  0  0
    4.5356   -0.6299   -0.0583 C   0  0  0  0  0  0  0  0  0  0  0  0
    5.7049    0.0083    0.3736 C   0  0  0  0  0  0  0  0  0  0  0  0
    6.6753   -0.6866    1.1060 C   0  0  0  0  0  0  0  0  0  0  0  0
    6.4904   -2.0299    1.4224 C   0  0  0  0  0  0  0  0  0  0  0  0
    5.3327   -2.6848    1.0025 C   0  0  0  0  0  0  0  0  0  0  0  0
    4.3678   -1.9905    0.2648 C   0  0  0  0  0  0  0  0  0  0  0  0
    2.9636   -2.8685   -0.2326 Cl  0  0  0  0  0  0  0  0  0  0  0  0
    2.6133    2.5858   -2.6788 H   0  0  0  0  0  0  0  0  0  0  0  0
    2.1309    0.9031   -2.7888 H   0  0  0  0  0  0  0  0  0  0  0  0
   -2.8612   -2.6811   -1.1871 H   0  0  0  0  0  0  0  0  0  0  0  0
   -4.5999   -3.9972    0.0158 H   0  0  0  0  0  0  0  0  0  0  0  0
   -3.2986   -2.6556    3.6902 H   0  0  0  0  0  0  0  0  0  0  0  0
   -1.4971   -1.2887    2.6704 H   0  0  0  0  0  0  0  0  0  0  0  0
   -1.8030    0.9006    1.7702 H   0  0  0  0  0  0  0  0  0  0  0  0
   -1.1424    2.2128    0.8570 H   0  0  0  0  0  0  0  0  0  0  0  0
   -3.5977    0.5593    0.0073 H   0  0  0  0  0  0  0  0  0  0  0  0
   -2.2999    3.0507   -1.2253 H   0  0  0  0  0  0  0  0  0  0  0  0
   -2.7579    1.5557   -2.0705 H   0  0  0  0  0  0  0  0  0  0  0  0
   -5.1125    1.9700   -1.6169 H   0  0  0  0  0  0  0  0  0  0  0  0
   -4.5270    3.5931   -2.0229 H   0  0  0  0  0  0  0  0  0  0  0  0
   -4.4089    4.2150    0.2974 H   0  0  0  0  0  0  0  0  0  0  0  0
   -5.7308    3.0328    0.3991 H   0  0  0  0  0  0  0  0  0  0  0  0
    2.7434   -0.5577   -1.0882 H   0  0  0  0  0  0  0  0  0  0  0  0
    5.9059    1.0530    0.1490 H   0  0  0  0  0  0  0  0  0  0  0  0
    7.5785   -0.1712    1.4233 H   0  0  0  0  0  0  0  0  0  0  0  0
    7.2428   -2.5663    1.9937 H   0  0  0  0  0  0  0  0  0  0  0  0
    5.1867   -3.7371    1.2469 H   0  0  0  0  0  0  0  0  0  0  0  0
  1  2  2  0
  2  3  1  0
  3  4  1  0
  4  5  1  0
  5  6  2  0
  6  7  1  0
  7  8  2  0
  8  9  1  0
  9 10  2  0
 10 11  1  0
 11 12  2  0
 12 13  1  0
 13 14  2  0
  8 15  1  0
 15 16  1  0
 16 17  1  0
 17 18  1  0
 18 19  1  0
 19 20  1  0
 20 21  1  0
  2 22  1  0
 22 23  1  0
 23 24  2  0
 24 25  1  0
 25 26  2  0
 26 27  1  0
 27 28  2  0
 28 29  1  0
 15  5  1  0
 21 17  1  0
 28 23  1  0
 14  9  1  0
  3 30  1  0
  3 31  1  0
 10 32  1  0
 11 33  1  0
 13 34  1  0
 14 35  1  0
 16 36  1  0
 16 37  1  0
 17 38  1  0
 18 39  1  0
 18 40  1  0
 19 41  1  0
 19 42  1  0
 20 43  1  0
 20 44  1  0
 22 45  1  0
 24 46  1  0
 25 47  1  0
 26 48  1  0
 27 49  1  0
M  END
$$$$
