
     RDKit          3D

 55 58  0  0  0  0  0  0  0  0999 V2000
   -2.6859    2.2770    1.5765 C   0  0  0  0  0  0  0  0  0  0  0  0
   -2.8812    0.7609    1.5920 C   0  0  0  0  0  0  0  0  0  0  0  0
   -4.0682    0.3465    2.4644 C   0  0  0  0  0  0  0  0  0  0  0  0
   -2.9493    0.1986    0.2458 N   0  0  0  0  0  0  0  0  0  0  0  0
   -2.0314   -0.6801   -0.3046 C   0  0  0  0  0  0  0  0  0  0  0  0
   -0.8753   -1.0235    0.3356 N   0  0  0  0  0  0  0  0  0  0  0  0
   -0.4123   -2.4072    0.0559 C   0  0  0  0  0  0  0  0  0  0  0  0
    0.7394   -2.4333   -0.9716 C   0  0  0  0  0  0  0  0  0  0  0  0
    1.9572   -1.6881   -0.5572 N   0  0  0  0  0  0  0  0  0  0  0  0
    2.9735   -2.6092    0.0130 C   0  0  0  0  0  0  0  0  0  0  0  0
    4.3245   -1.9046    0.1876 C   0  0  0  0  0  0  0  0  0  0  0  0
    5.0704   -2.1313    1.1363 O   0  0  0  0  0  0  0  0  0  0  0  0
    4.6293   -1.0417   -0.8438 N   0  0  0  0  0  0  0  0  0  0  0  0
    5.7519   -0.1390   -0.7775 C   0  0  0  0  0  0  0  0  0  0  0  0
    5.2994    1.1332   -0.1314 C   0  0  0  0  0  0  0  0  0  0  0  0
    5.2507    1.4317    1.2177 C   0  0  0  0  0  0  0  0  0  0  0  0
    4.7486    2.7408    1.4666 C   0  0  0  0  0  0  0  0  0  0  0  0
    4.4326    3.4017    0.2998 C   0  0  0  0  0  0  0  0  0  0  0  0
    4.7363    2.4431   -1.0830 S   0  0  0  0  0  0  0  0  0  0  0  0
    1.6007   -0.6283    0.4257 C   0  0  0  0  0  0  0  0  0  0  0  0
    0.2057   -0.0110    0.1855 C   0  0  0  0  0  0  0  0  0  0  0  0
   -2.4357   -1.1158   -1.4750 N   0  0  0  0  0  0  0  0  0  0  0  0
   -3.6061   -0.4559   -1.7351 C   0  0  0  0  0  0  0  0  0  0  0  0
   -4.4294   -0.5331   -2.8693 C   0  0  0  0  0  0  0  0  0  0  0  0
   -5.5846    0.2530   -2.9230 C   0  0  0  0  0  0  0  0  0  0  0  0
   -5.9156    1.0981   -1.8647 C   0  0  0  0  0  0  0  0  0  0  0  0
   -5.1103    1.1820   -0.7222 C   0  0  0  0  0  0  0  0  0  0  0  0
   -3.9538    0.3898   -0.6840 C   0  0  0  0  0  0  0  0  0  0  0  0
   -3.5651    2.8028    1.1917 H   0  0  0  0  0  0  0  0  0  0  0  0
   -2.4955    2.6492    2.5891 H   0  0  0  0  0  0  0  0  0  0  0  0
   -1.8321    2.5563    0.9489 H   0  0  0  0  0  0  0  0  0  0  0  0
   -1.9954    0.3319    2.0728 H   0  0  0  0  0  0  0  0  0  0  0  0
   -5.0068    0.7988    2.1325 H   0  0  0  0  0  0  0  0  0  0  0  0
   -4.1984   -0.7413    2.4552 H   0  0  0  0  0  0  0  0  0  0  0  0
   -3.9046    0.6561    3.5027 H   0  0  0  0  0  0  0  0  0  0  0  0
   -1.2331   -3.0502   -0.2872 H   0  0  0  0  0  0  0  0  0  0  0  0
   -0.0672   -2.8456    1.0013 H   0  0  0  0  0  0  0  0  0  0  0  0
    0.3860   -1.9774   -1.9056 H   0  0  0  0  0  0  0  0  0  0  0  0
    0.9800   -3.4732   -1.2249 H   0  0  0  0  0  0  0  0  0  0  0  0
    3.1580   -3.4444   -0.6731 H   0  0  0  0  0  0  0  0  0  0  0  0
    2.6504   -3.0186    0.9768 H   0  0  0  0  0  0  0  0  0  0  0  0
    3.8366   -0.7863   -1.4270 H   0  0  0  0  0  0  0  0  0  0  0  0
    6.1048    0.0288   -1.8012 H   0  0  0  0  0  0  0  0  0  0  0  0
    6.5680   -0.5924   -0.2041 H   0  0  0  0  0  0  0  0  0  0  0  0
    5.5572    0.7308    1.9880 H   0  0  0  0  0  0  0  0  0  0  0  0
    4.6286    3.1758    2.4513 H   0  0  0  0  0  0  0  0  0  0  0  0
    4.0386    4.4033    0.1909 H   0  0  0  0  0  0  0  0  0  0  0  0
    1.6226   -1.0239    1.4506 H   0  0  0  0  0  0  0  0  0  0  0  0
    2.3453    0.1724    0.3729 H   0  0  0  0  0  0  0  0  0  0  0  0
    0.0488    0.7942    0.9117 H   0  0  0  0  0  0  0  0  0  0  0  0
    0.1824    0.4392   -0.8166 H   0  0  0  0  0  0  0  0  0  0  0  0
   -4.1601   -1.1921   -3.6876 H   0  0  0  0  0  0  0  0  0  0  0  0
   -6.2261    0.2040   -3.7989 H   0  0  0  0  0  0  0  0  0  0  0  0
   -6.8178    1.7033   -1.9260 H   0  0  0  0  0  0  0  0  0  0  0  0
   -5.3864    1.8440    0.0904 H   0  0  0  0  0  0  0  0  0  0  0  0
  1  2  1  0
  2  3  1  0
  2  4  1  0
  4  5  1  0
  5  6  1  0
  6  7  1  0
  7  8  1  0
  8  9  1  0
  9 10  1  0
 10 11  1  0
 11 12  2  0
 11 13  1  0
 13 14  1  0
 14 15  1  0
 15 16  2  0
 16 17  1  0
 17 18  2  0
 18 19  1  0
  9 20  1  0
 20 21  1  0
  5 22  2  0
 22 23  1  0
 23 24  2  0
 24 25  1  0
 25 26  2  0
 26 27  1  0
 27 28  2  0
 28  4  1  0
 21  6  1  0
 28 23  1  0
 19 15  1  0
  1 29  1  0
  1 30  1  0
  1 31  1  0
  2 32  1  0
  3 33  1  0
  3 34  1  0
  3 35  1  0
  7 36  1  0
  7 37  1  0
  8 38  1  0
  8 39  1  0
 10 40  1  0
 10 41  1  0
 13 42  1  0
 14 43  1  0
 14 44  1  0
 16 45  1  0
 17 46  1  0
 18 47  1  0
 20 48  1  0
 20 49  1  0
 21 50  1  0
 21 51  1  0
 24 52  1  0
 25 53  1  0
 26 54  1  0
 27 55  1  0
M  END
$$$$
