
     RDKit          3D

 35 36  0  0  0  0  0  0  0  0999 V2000
    3.9824    0.5047   -2.5282 C   0  0  0  0  0  0  0  0  0  0  0  0
    3.7447    1.5305   -1.4336 C   0  0  0  0  0  0  0  0  0  0  0  0
    3.6512    0.9217   -0.1156 N   0  0  0  0  0  0  0  0  0  0  0  0
    4.7840    0.8600    0.6225 N   0  0  0  0  0  0  0  0  0  0  0  0
    4.3989    0.2798    1.7555 C   0  0  0  0  0  0  0  0  0  0  0  0
    3.0325   -0.0185    1.7443 C   0  0  0  0  0  0  0  0  0  0  0  0
    2.1824   -0.8487    3.1962 Br  0  0  0  0  0  0  0  0  0  0  0  0
    2.5366    0.3978    0.5203 C   0  0  0  0  0  0  0  0  0  0  0  0
    1.2089    0.3423   -0.0752 C   0  0  0  0  0  0  0  0  0  0  0  0
    1.0201    0.6494   -1.2471 O   0  0  0  0  0  0  0  0  0  0  0  0
    0.2093   -0.0826    0.7793 N   0  0  0  0  0  0  0  0  0  0  0  0
   -1.1665   -0.2467    0.5107 C   0  0  0  0  0  0  0  0  0  0  0  0
   -1.7703    0.0447   -0.7137 C   0  0  0  0  0  0  0  0  0  0  0  0
   -3.1510   -0.1347   -0.8962 C   0  0  0  0  0  0  0  0  0  0  0  0
   -3.7770    0.1625   -2.2277 C   0  0  0  0  0  0  0  0  0  0  0  0
   -3.9237   -0.6419    0.1544 C   0  0  0  0  0  0  0  0  0  0  0  0
   -3.3353   -0.9563    1.3837 C   0  0  0  0  0  0  0  0  0  0  0  0
   -4.1750   -1.4687    2.5172 C   0  0  0  0  0  0  0  0  0  0  0  0
   -1.9613   -0.7383    1.5568 C   0  0  0  0  0  0  0  0  0  0  0  0
    4.0575    0.9985   -3.5018 H   0  0  0  0  0  0  0  0  0  0  0  0
    4.9127   -0.0465   -2.3541 H   0  0  0  0  0  0  0  0  0  0  0  0
    3.1706   -0.2277   -2.5794 H   0  0  0  0  0  0  0  0  0  0  0  0
    4.5794    2.2424   -1.4057 H   0  0  0  0  0  0  0  0  0  0  0  0
    2.8430    2.1215   -1.6128 H   0  0  0  0  0  0  0  0  0  0  0  0
    5.1329    0.1057    2.5321 H   0  0  0  0  0  0  0  0  0  0  0  0
    0.4967   -0.3221    1.7189 H   0  0  0  0  0  0  0  0  0  0  0  0
   -1.1917    0.4210   -1.5520 H   0  0  0  0  0  0  0  0  0  0  0  0
   -3.3130    1.0414   -2.6872 H   0  0  0  0  0  0  0  0  0  0  0  0
   -4.8456    0.3785   -2.1208 H   0  0  0  0  0  0  0  0  0  0  0  0
   -3.6587   -0.6955   -2.8972 H   0  0  0  0  0  0  0  0  0  0  0  0
   -4.9920   -0.7956    0.0125 H   0  0  0  0  0  0  0  0  0  0  0  0
   -3.5782   -2.0845    3.1999 H   0  0  0  0  0  0  0  0  0  0  0  0
   -4.9908   -2.0971    2.1434 H   0  0  0  0  0  0  0  0  0  0  0  0
   -4.6003   -0.6300    3.0793 H   0  0  0  0  0  0  0  0  0  0  0  0
   -1.5138   -0.9671    2.5213 H   0  0  0  0  0  0  0  0  0  0  0  0
  1  2  1  0
  2  3  1  0
  3  4  1  0
  4  5  2  0
  5  6  1  0
  6  7  1  0
  6  8  2  0
  8  9  1  0
  9 10  2  0
  9 11  1  0
 11 12  1  0
 12 13  2  0
 13 14  1  0
 14 15  1  0
 14 16  2  0
 16 17  1  0
 17 18  1  0
 17 19  2  0
  8  3  1  0
 19 12  1  0
  1 20  1  0
  1 21  1  0
  1 22  1  0
  2 23  1  0
  2 24  1  0
  5 25  1  0
 11 26  1  0
 13 27  1  0
 15 28  1  0
 15 29  1  0
 15 30  1  0
 16 31  1  0
 18 32  1  0
 18 33  1  0
 18 34  1  0
 19 35  1  0
M  END
$$$$
