
     RDKit          3D

 45 48  0  0  0  0  0  0  0  0999 V2000
   -4.5775    2.3192    0.1507 C   0  0  0  0  0  0  0  0  0  0  0  0
   -3.7875    1.1836   -0.1735 O   0  0  0  0  0  0  0  0  0  0  0  0
   -4.4055   -0.0435   -0.1773 C   0  0  0  0  0  0  0  0  0  0  0  0
   -5.7611   -0.2377    0.1217 C   0  0  0  0  0  0  0  0  0  0  0  0
   -6.3156   -1.5202    0.1151 C   0  0  0  0  0  0  0  0  0  0  0  0
   -5.5232   -2.6214   -0.1875 C   0  0  0  0  0  0  0  0  0  0  0  0
   -4.1743   -2.4401   -0.4876 C   0  0  0  0  0  0  0  0  0  0  0  0
   -3.5947   -1.1602   -0.4956 C   0  0  0  0  0  0  0  0  0  0  0  0
   -2.2173   -1.0946   -0.8056 N   0  0  0  0  0  0  0  0  0  0  0  0
   -1.8792   -0.2176   -1.9510 C   0  0  0  0  0  0  0  0  0  0  0  0
   -0.8668    0.8864   -1.5955 C   0  0  0  0  0  0  0  0  0  0  0  0
    0.3265    0.3672   -0.9176 N   0  0  0  0  0  0  0  0  0  0  0  0
    1.5466    1.0174   -1.1194 C   0  0  0  0  0  0  0  0  0  0  0  0
    1.5951    2.0656   -1.7683 O   0  0  0  0  0  0  0  0  0  0  0  0
    2.7938    0.4646   -0.5617 C   0  0  0  0  0  0  0  0  0  0  0  0
    4.0404    1.1477   -0.5018 C   0  0  0  0  0  0  0  0  0  0  0  0
    4.9358    0.2625    0.0598 C   0  0  0  0  0  0  0  0  0  0  0  0
    6.3324    0.4120    0.3651 C   0  0  0  0  0  0  0  0  0  0  0  0
    7.1569   -0.5484    0.9215 C   0  0  0  0  0  0  0  0  0  0  0  0
    8.4947   -0.0882    1.1001 C   0  0  0  0  0  0  0  0  0  0  0  0
    8.6510    1.2110    0.6743 C   0  0  0  0  0  0  0  0  0  0  0  0
    7.1932    1.8644    0.0662 S   0  0  0  0  0  0  0  0  0  0  0  0
    4.2520   -0.8969    0.3116 O   0  0  0  0  0  0  0  0  0  0  0  0
    2.9368   -0.7791   -0.0808 N   0  0  0  0  0  0  0  0  0  0  0  0
    0.0921   -0.7320    0.0314 C   0  0  0  0  0  0  0  0  0  0  0  0
   -1.3931   -0.9014    0.4045 C   0  0  0  0  0  0  0  0  0  0  0  0
   -3.9292    3.1997    0.1053 H   0  0  0  0  0  0  0  0  0  0  0  0
   -4.9708    2.2494    1.1701 H   0  0  0  0  0  0  0  0  0  0  0  0
   -5.3820    2.4621   -0.5781 H   0  0  0  0  0  0  0  0  0  0  0  0
   -6.4171    0.5901    0.3679 H   0  0  0  0  0  0  0  0  0  0  0  0
   -7.3683   -1.6575    0.3487 H   0  0  0  0  0  0  0  0  0  0  0  0
   -5.9504   -3.6203   -0.1927 H   0  0  0  0  0  0  0  0  0  0  0  0
   -3.5580   -3.3035   -0.7273 H   0  0  0  0  0  0  0  0  0  0  0  0
   -2.7639    0.2277   -2.4224 H   0  0  0  0  0  0  0  0  0  0  0  0
   -1.4254   -0.8641   -2.7130 H   0  0  0  0  0  0  0  0  0  0  0  0
   -1.3160    1.6231   -0.9203 H   0  0  0  0  0  0  0  0  0  0  0  0
   -0.5809    1.4181   -2.5096 H   0  0  0  0  0  0  0  0  0  0  0  0
    4.2360    2.1568   -0.8348 H   0  0  0  0  0  0  0  0  0  0  0  0
    6.8174   -1.5424    1.1898 H   0  0  0  0  0  0  0  0  0  0  0  0
    9.2990   -0.6811    1.5186 H   0  0  0  0  0  0  0  0  0  0  0  0
    9.5512    1.8102    0.6900 H   0  0  0  0  0  0  0  0  0  0  0  0
    0.4565   -1.6502   -0.4434 H   0  0  0  0  0  0  0  0  0  0  0  0
    0.6634   -0.5492    0.9466 H   0  0  0  0  0  0  0  0  0  0  0  0
   -1.7188   -0.0175    0.9679 H   0  0  0  0  0  0  0  0  0  0  0  0
   -1.4942   -1.7717    1.0646 H   0  0  0  0  0  0  0  0  0  0  0  0
  1  2  1  0
  2  3  1  0
  3  4  2  0
  4  5  1  0
  5  6  2  0
  6  7  1  0
  7  8  2  0
  8  9  1  0
  9 10  1  0
 10 11  1  0
 11 12  1  0
 12 13  1  0
 13 14  2  0
 13 15  1  0
 15 16  1  0
 16 17  2  0
 17 18  1  0
 18 19  2  0
 19 20  1  0
 20 21  2  0
 21 22  1  0
 17 23  1  0
 23 24  1  0
 12 25  1  0
 25 26  1  0
  8  3  1  0
 26  9  1  0
 24 15  2  0
 22 18  1  0
  1 27  1  0
  1 28  1  0
  1 29  1  0
  4 30  1  0
  5 31  1  0
  6 32  1  0
  7 33  1  0
 10 34  1  0
 10 35  1  0
 11 36  1  0
 11 37  1  0
 16 38  1  0
 19 39  1  0
 20 40  1  0
 21 41  1  0
 25 42  1  0
 25 43  1  0
 26 44  1  0
 26 45  1  0
M  END
$$$$
