
     RDKit          3D

 31 33  0  0  0  0  0  0  0  0999 V2000
   -0.5755    3.6527    0.1345 C   0  0  0  0  0  0  0  0  0  0  0  0
   -0.9496    2.1952    0.1452 C   0  0  0  0  0  0  0  0  0  0  0  0
   -2.2020    1.8647    0.2184 N   0  0  0  0  0  0  0  0  0  0  0  0
   -2.5434    0.4956    0.2299 C   0  0  0  0  0  0  0  0  0  0  0  0
   -3.8993    0.1665    0.3127 C   0  0  0  0  0  0  0  0  0  0  0  0
   -4.3105   -1.1670    0.3304 C   0  0  0  0  0  0  0  0  0  0  0  0
   -3.3635   -2.1871    0.2659 C   0  0  0  0  0  0  0  0  0  0  0  0
   -2.0032   -1.8807    0.1825 C   0  0  0  0  0  0  0  0  0  0  0  0
   -1.5952   -0.5437    0.1632 C   0  0  0  0  0  0  0  0  0  0  0  0
   -0.2387   -0.1434    0.0806 N   0  0  0  0  0  0  0  0  0  0  0  0
    0.9340   -0.8842   -0.0143 C   0  0  0  0  0  0  0  0  0  0  0  0
    0.9192   -2.2144   -0.0662 O   0  0  0  0  0  0  0  0  0  0  0  0
    2.0098   -0.0029   -0.0427 C   0  0  0  0  0  0  0  0  0  0  0  0
    3.4843   -0.2918   -0.0584 C   0  0  0  0  0  0  0  0  0  0  0  0
    3.9041   -1.4034   -0.9859 C   0  0  0  0  0  0  0  0  0  0  0  0
    3.3047   -2.4480   -1.1972 O   0  0  0  0  0  0  0  0  0  0  0  0
    5.1068   -1.1841   -1.5550 O   0  0  0  0  0  0  0  0  0  0  0  0
    1.4580    1.3098    0.0041 C   0  0  0  0  0  0  0  0  0  0  0  0
    0.0871    1.1968    0.0743 C   0  0  0  0  0  0  0  0  0  0  0  0
   -1.4710    4.2785    0.1877 H   0  0  0  0  0  0  0  0  0  0  0  0
   -0.0346    3.8889   -0.7864 H   0  0  0  0  0  0  0  0  0  0  0  0
    0.0624    3.8766    0.9944 H   0  0  0  0  0  0  0  0  0  0  0  0
   -4.6383    0.9618    0.3641 H   0  0  0  0  0  0  0  0  0  0  0  0
   -5.3683   -1.4073    0.3954 H   0  0  0  0  0  0  0  0  0  0  0  0
   -3.6829   -3.2263    0.2811 H   0  0  0  0  0  0  0  0  0  0  0  0
   -1.2971   -2.7022    0.1373 H   0  0  0  0  0  0  0  0  0  0  0  0
    1.7838   -2.5258   -0.4111 H   0  0  0  0  0  0  0  0  0  0  0  0
    4.0189    0.6196   -0.3541 H   0  0  0  0  0  0  0  0  0  0  0  0
    3.8165   -0.5561    0.9518 H   0  0  0  0  0  0  0  0  0  0  0  0
    5.2691   -1.9777   -2.1080 H   0  0  0  0  0  0  0  0  0  0  0  0
    2.0145    2.2394    0.0009 H   0  0  0  0  0  0  0  0  0  0  0  0
  1  2  1  0
  2  3  2  0
  3  4  1  0
  4  5  2  0
  5  6  1  0
  6  7  2  0
  7  8  1  0
  8  9  2  0
  9 10  1  0
 10 11  1  0
 11 12  1  0
 11 13  2  0
 13 14  1  0
 14 15  1  0
 15 16  2  0
 15 17  1  0
 13 18  1  0
 18 19  2  0
 19  2  1  0
  9  4  1  0
 19 10  1  0
  1 20  1  0
  1 21  1  0
  1 22  1  0
  5 23  1  0
  6 24  1  0
  7 25  1  0
  8 26  1  0
 12 27  1  0
 14 28  1  0
 14 29  1  0
 17 30  1  0
 18 31  1  0
M  END
$$$$
