
     RDKit          3D

 59 63  0  0  0  0  0  0  0  0999 V2000
   -4.0284    2.3866   -2.6934 C   0  0  0  0  0  0  0  0  0  0  0  0
   -2.9423    1.3797   -2.3264 C   0  0  0  0  0  0  0  0  0  0  0  0
   -3.0193    0.9891   -0.8353 C   0  0  0  0  0  0  0  0  0  0  0  0
   -1.8812    0.0957   -0.4903 N   0  0  0  0  0  0  0  0  0  0  0  0
   -2.1660   -0.6519    0.6762 C   0  0  0  0  0  0  0  0  0  0  0  0
   -3.2872   -1.4055    0.7154 N   0  0  0  0  0  0  0  0  0  0  0  0
   -3.5153   -2.1379    1.8219 C   0  0  0  0  0  0  0  0  0  0  0  0
   -4.6575   -2.9260    1.8975 C   0  0  0  0  0  0  0  0  0  0  0  0
   -4.9324   -3.7018    3.0252 C   0  0  0  0  0  0  0  0  0  0  0  0
   -4.0490   -3.6897    4.0963 C   0  0  0  0  0  0  0  0  0  0  0  0
   -2.9001   -2.9000    4.0314 C   0  0  0  0  0  0  0  0  0  0  0  0
   -2.6189   -2.1241    2.9129 C   0  0  0  0  0  0  0  0  0  0  0  0
   -1.5047   -1.3729    2.8854 N   0  0  0  0  0  0  0  0  0  0  0  0
   -1.2757   -0.6347    1.7617 C   0  0  0  0  0  0  0  0  0  0  0  0
   -0.0169    0.2029    1.6942 C   0  0  0  0  0  0  0  0  0  0  0  0
    0.5041    0.5579    3.0239 C   0  0  0  0  0  0  0  0  0  0  0  0
    0.9623    0.9231    4.0272 N   0  0  0  0  0  0  0  0  0  0  0  0
    1.0853   -0.4694    0.8756 C   0  0  0  0  0  0  0  0  0  0  0  0
    0.9707   -1.5700    0.3375 O   0  0  0  0  0  0  0  0  0  0  0  0
    2.2406    0.2829    0.7099 N   0  0  0  0  0  0  0  0  0  0  0  0
    3.3793   -0.2835    0.0212 C   0  0  0  0  0  0  0  0  0  0  0  0
    4.5394    0.6754    0.0252 C   0  0  0  0  0  0  0  0  0  0  0  0
    5.5278    0.5886    1.0330 C   0  0  0  0  0  0  0  0  0  0  0  0
    6.6035    1.4818    1.0653 C   0  0  0  0  0  0  0  0  0  0  0  0
    6.6635    2.4486    0.0860 C   0  0  0  0  0  0  0  0  0  0  0  0
    5.7004    2.5507   -0.8887 C   0  0  0  0  0  0  0  0  0  0  0  0
    4.6258    1.6875   -0.9434 C   0  0  0  0  0  0  0  0  0  0  0  0
    5.9421    3.5741   -1.7535 O   0  0  0  0  0  0  0  0  0  0  0  0
    7.1868    4.0821   -1.2286 C   0  0  0  0  0  0  0  0  0  0  0  0
    7.6320    3.3949   -0.0418 O   0  0  0  0  0  0  0  0  0  0  0  0
   -1.5384   -0.8391   -1.6032 C   0  0  0  0  0  0  0  0  0  0  0  0
   -2.7076   -1.0034   -2.5984 C   0  0  0  0  0  0  0  0  0  0  0  0
   -2.3409   -1.9640   -3.7224 C   0  0  0  0  0  0  0  0  0  0  0  0
   -3.0889    0.2473   -3.2051 O   0  0  0  0  0  0  0  0  0  0  0  0
   -5.0251    1.9500   -2.5658 H   0  0  0  0  0  0  0  0  0  0  0  0
   -3.9603    3.2914   -2.0812 H   0  0  0  0  0  0  0  0  0  0  0  0
   -3.9430    2.6738   -3.7454 H   0  0  0  0  0  0  0  0  0  0  0  0
   -1.9630    1.8265   -2.5396 H   0  0  0  0  0  0  0  0  0  0  0  0
   -3.9909    0.5145   -0.6468 H   0  0  0  0  0  0  0  0  0  0  0  0
   -2.9570    1.8874   -0.2084 H   0  0  0  0  0  0  0  0  0  0  0  0
   -5.3469   -2.9348    1.0563 H   0  0  0  0  0  0  0  0  0  0  0  0
   -5.8317   -4.3111    3.0622 H   0  0  0  0  0  0  0  0  0  0  0  0
   -4.2478   -4.2904    4.9805 H   0  0  0  0  0  0  0  0  0  0  0  0
   -2.2069   -2.8880    4.8698 H   0  0  0  0  0  0  0  0  0  0  0  0
   -0.2578    1.1486    1.1915 H   0  0  0  0  0  0  0  0  0  0  0  0
    2.4195    1.0777    1.3141 H   0  0  0  0  0  0  0  0  0  0  0  0
    3.0845   -0.5327   -1.0059 H   0  0  0  0  0  0  0  0  0  0  0  0
    3.6529   -1.2271    0.5111 H   0  0  0  0  0  0  0  0  0  0  0  0
    5.4582   -0.1807    1.7982 H   0  0  0  0  0  0  0  0  0  0  0  0
    7.3638    1.4186    1.8343 H   0  0  0  0  0  0  0  0  0  0  0  0
    3.8756    1.7967   -1.7216 H   0  0  0  0  0  0  0  0  0  0  0  0
    7.0591    5.1439   -0.9918 H   0  0  0  0  0  0  0  0  0  0  0  0
    7.9606    3.9835   -2.0013 H   0  0  0  0  0  0  0  0  0  0  0  0
   -1.2098   -1.8196   -1.2351 H   0  0  0  0  0  0  0  0  0  0  0  0
   -0.6819   -0.3964   -2.1288 H   0  0  0  0  0  0  0  0  0  0  0  0
   -3.5933   -1.3984   -2.0836 H   0  0  0  0  0  0  0  0  0  0  0  0
   -2.1011   -2.9574   -3.3329 H   0  0  0  0  0  0  0  0  0  0  0  0
   -1.4806   -1.5927   -4.2899 H   0  0  0  0  0  0  0  0  0  0  0  0
   -3.1700   -2.0583   -4.4324 H   0  0  0  0  0  0  0  0  0  0  0  0
  1  2  1  0
  2  3  1  0
  3  4  1  0
  4  5  1  0
  5  6  2  0
  6  7  1  0
  7  8  2  0
  8  9  1  0
  9 10  2  0
 10 11  1  0
 11 12  2  0
 12 13  1  0
 13 14  2  0
 14 15  1  0
 15 16  1  0
 16 17  3  0
 15 18  1  0
 18 19  2  0
 18 20  1  0
 20 21  1  0
 21 22  1  0
 22 23  2  0
 23 24  1  0
 24 25  2  0
 25 26  1  0
 26 27  2  0
 26 28  1  0
 28 29  1  0
 29 30  1  0
  4 31  1  0
 31 32  1  0
 32 33  1  0
 32 34  1  0
 34  2  1  0
 14  5  1  0
 27 22  1  0
 12  7  1  0
 30 25  1  0
  1 35  1  0
  1 36  1  0
  1 37  1  0
  2 38  1  0
  3 39  1  0
  3 40  1  0
  8 41  1  0
  9 42  1  0
 10 43  1  0
 11 44  1  0
 15 45  1  0
 20 46  1  0
 21 47  1  0
 21 48  1  0
 23 49  1  0
 24 50  1  0
 27 51  1  0
 29 52  1  0
 29 53  1  0
 31 54  1  0
 31 55  1  0
 32 56  1  0
 33 57  1  0
 33 58  1  0
 33 59  1  0
M  END
$$$$
