
     RDKit          3D

 40 42  0  0  0  0  0  0  0  0999 V2000
    2.7177    2.7798    2.7062 C   0  0  0  0  0  0  0  0  0  0  0  0
    1.9483    3.6581    1.7341 C   0  0  0  0  0  0  0  0  0  0  0  0
    0.1505    3.3609    1.8282 S   0  0  0  0  0  0  0  0  0  0  0  0
   -0.0073    1.8087    0.9539 C   0  0  0  0  0  0  0  0  0  0  0  0
   -1.2025    1.1275    1.0396 C   0  0  0  0  0  0  0  0  0  0  0  0
   -1.3122   -0.0605    0.3458 C   0  0  0  0  0  0  0  0  0  0  0  0
   -2.4769   -0.8179    0.3977 N   0  0  0  0  0  0  0  0  0  0  0  0
   -3.7875   -0.1431    0.3634 C   0  0  0  0  0  0  0  0  0  0  0  0
   -4.6946   -0.7627   -0.7141 C   0  0  0  0  0  0  0  0  0  0  0  0
   -4.9111   -2.1701   -0.5472 O   0  0  0  0  0  0  0  0  0  0  0  0
   -3.7684   -2.8637   -0.0207 C   0  0  0  0  0  0  0  0  0  0  0  0
   -2.4350   -2.1372   -0.2556 C   0  0  0  0  0  0  0  0  0  0  0  0
   -0.2683   -0.5308   -0.3571 N   0  0  0  0  0  0  0  0  0  0  0  0
    0.8621    0.1983   -0.3969 C   0  0  0  0  0  0  0  0  0  0  0  0
    1.9950   -0.3302   -1.1862 C   0  0  0  0  0  0  0  0  0  0  0  0
    3.2170    0.3669   -1.2790 C   0  0  0  0  0  0  0  0  0  0  0  0
    4.2916   -0.1317   -2.0252 C   0  0  0  0  0  0  0  0  0  0  0  0
    4.1636   -1.3432   -2.6961 C   0  0  0  0  0  0  0  0  0  0  0  0
    5.4815   -1.9587   -3.6136 Cl  0  0  0  0  0  0  0  0  0  0  0  0
    2.9728   -2.0581   -2.6270 C   0  0  0  0  0  0  0  0  0  0  0  0
    1.9017   -1.5543   -1.8792 C   0  0  0  0  0  0  0  0  0  0  0  0
    1.0310    1.3700    0.2317 N   0  0  0  0  0  0  0  0  0  0  0  0
    2.3918    2.9460    3.7386 H   0  0  0  0  0  0  0  0  0  0  0  0
    3.7852    3.0189    2.6553 H   0  0  0  0  0  0  0  0  0  0  0  0
    2.6092    1.7155    2.4764 H   0  0  0  0  0  0  0  0  0  0  0  0
    2.1143    4.7076    1.9999 H   0  0  0  0  0  0  0  0  0  0  0  0
    2.3128    3.5315    0.7100 H   0  0  0  0  0  0  0  0  0  0  0  0
   -2.0116    1.5029    1.6516 H   0  0  0  0  0  0  0  0  0  0  0  0
   -3.7027    0.9299    0.1582 H   0  0  0  0  0  0  0  0  0  0  0  0
   -4.2536   -0.2663    1.3477 H   0  0  0  0  0  0  0  0  0  0  0  0
   -5.6755   -0.2766   -0.7018 H   0  0  0  0  0  0  0  0  0  0  0  0
   -4.2669   -0.6042   -1.7113 H   0  0  0  0  0  0  0  0  0  0  0  0
   -3.9389   -3.0055    1.0529 H   0  0  0  0  0  0  0  0  0  0  0  0
   -3.7452   -3.8558   -0.4826 H   0  0  0  0  0  0  0  0  0  0  0  0
   -1.6239   -2.7460    0.1614 H   0  0  0  0  0  0  0  0  0  0  0  0
   -2.2698   -2.0187   -1.3341 H   0  0  0  0  0  0  0  0  0  0  0  0
    3.3415    1.3180   -0.7627 H   0  0  0  0  0  0  0  0  0  0  0  0
    5.2193    0.4320   -2.0752 H   0  0  0  0  0  0  0  0  0  0  0  0
    2.8661   -3.0053   -3.1488 H   0  0  0  0  0  0  0  0  0  0  0  0
    0.9790   -2.1320   -1.8397 H   0  0  0  0  0  0  0  0  0  0  0  0
  1  2  1  0
  2  3  1  0
  3  4  1  0
  4  5  2  0
  5  6  1  0
  6  7  1  0
  7  8  1  0
  8  9  1  0
  9 10  1  0
 10 11  1  0
 11 12  1  0
  6 13  2  0
 13 14  1  0
 14 15  1  0
 15 16  2  0
 16 17  1  0
 17 18  2  0
 18 19  1  0
 18 20  1  0
 20 21  2  0
 14 22  2  0
 22  4  1  0
 12  7  1  0
 21 15  1  0
  1 23  1  0
  1 24  1  0
  1 25  1  0
  2 26  1  0
  2 27  1  0
  5 28  1  0
  8 29  1  0
  8 30  1  0
  9 31  1  0
  9 32  1  0
 11 33  1  0
 11 34  1  0
 12 35  1  0
 12 36  1  0
 16 37  1  0
 17 38  1  0
 20 39  1  0
 21 40  1  0
M  END
$$$$
