
     RDKit          3D

 55 58  0  0  0  0  0  0  0  0999 V2000
    0.6668    3.2325   -1.5640 C   0  0  0  0  0  0  0  0  0  0  0  0
   -0.2690    2.3600   -0.9225 O   0  0  0  0  0  0  0  0  0  0  0  0
   -1.4542    2.9521   -0.6170 C   0  0  0  0  0  0  0  0  0  0  0  0
   -1.7126    4.1297   -0.8217 O   0  0  0  0  0  0  0  0  0  0  0  0
   -2.4205    1.9962    0.0140 C   0  0  0  0  0  0  0  0  0  0  0  0
   -3.6544    2.5592    0.3828 C   0  0  0  0  0  0  0  0  0  0  0  0
   -4.6337    1.7807    0.9946 C   0  0  0  0  0  0  0  0  0  0  0  0
   -5.8350    2.3753    1.2860 O   0  0  0  0  0  0  0  0  0  0  0  0
   -5.8577    2.8001    2.6499 C   0  0  0  0  0  0  0  0  0  0  0  0
   -4.4274    0.4185    1.2234 C   0  0  0  0  0  0  0  0  0  0  0  0
   -5.4596   -0.2631    1.8130 O   0  0  0  0  0  0  0  0  0  0  0  0
   -5.3912   -1.6842    1.7916 C   0  0  0  0  0  0  0  0  0  0  0  0
   -3.1980   -0.1445    0.8632 C   0  0  0  0  0  0  0  0  0  0  0  0
   -2.1867    0.6192    0.2518 C   0  0  0  0  0  0  0  0  0  0  0  0
   -0.9494    0.0320   -0.1157 N   0  0  0  0  0  0  0  0  0  0  0  0
   -0.5631   -1.2929   -0.0460 C   0  0  0  0  0  0  0  0  0  0  0  0
   -1.2375   -2.2478    0.3104 O   0  0  0  0  0  0  0  0  0  0  0  0
    0.8378   -1.5239   -0.4828 C   0  0  0  0  0  0  0  0  0  0  0  0
    1.8397   -0.7890    0.1582 C   0  0  0  0  0  0  0  0  0  0  0  0
    3.1534   -0.9705   -0.2377 C   0  0  0  0  0  0  0  0  0  0  0  0
    4.2883   -0.2389    0.3656 C   0  0  0  0  0  0  0  0  0  0  0  0
    5.5681   -0.8234    0.4223 C   0  0  0  0  0  0  0  0  0  0  0  0
    6.6547   -0.1544    0.9934 C   0  0  0  0  0  0  0  0  0  0  0  0
    6.4868    1.1227    1.5185 C   0  0  0  0  0  0  0  0  0  0  0  0
    5.2360    1.7303    1.4689 C   0  0  0  0  0  0  0  0  0  0  0  0
    4.1502    1.0578    0.8972 C   0  0  0  0  0  0  0  0  0  0  0  0
    3.4740   -1.8530   -1.2150 N   0  0  0  0  0  0  0  0  0  0  0  0
    2.5133   -2.5733   -1.8198 C   0  0  0  0  0  0  0  0  0  0  0  0
    2.8911   -3.4694   -2.8118 C   0  0  0  0  0  0  0  0  0  0  0  0
    1.9598   -4.2522   -3.4974 C   0  0  0  0  0  0  0  0  0  0  0  0
    0.6119   -4.1393   -3.1910 C   0  0  0  0  0  0  0  0  0  0  0  0
    0.2070   -3.2463   -2.2002 C   0  0  0  0  0  0  0  0  0  0  0  0
    1.1505   -2.4543   -1.4964 C   0  0  0  0  0  0  0  0  0  0  0  0
    0.9339    4.0616   -0.9016 H   0  0  0  0  0  0  0  0  0  0  0  0
    0.2575    3.6036   -2.5103 H   0  0  0  0  0  0  0  0  0  0  0  0
    1.5703    2.6541   -1.7825 H   0  0  0  0  0  0  0  0  0  0  0  0
   -3.8655    3.6099    0.1920 H   0  0  0  0  0  0  0  0  0  0  0  0
   -5.2252    3.6860    2.7790 H   0  0  0  0  0  0  0  0  0  0  0  0
   -5.5438    2.0106    3.3431 H   0  0  0  0  0  0  0  0  0  0  0  0
   -6.8874    3.0791    2.8965 H   0  0  0  0  0  0  0  0  0  0  0  0
   -5.2498   -2.0620    0.7730 H   0  0  0  0  0  0  0  0  0  0  0  0
   -6.3470   -2.0705    2.1602 H   0  0  0  0  0  0  0  0  0  0  0  0
   -4.6053   -2.0467    2.4622 H   0  0  0  0  0  0  0  0  0  0  0  0
   -3.0246   -1.1920    1.0727 H   0  0  0  0  0  0  0  0  0  0  0  0
   -0.2862    0.6746   -0.5448 H   0  0  0  0  0  0  0  0  0  0  0  0
    1.5896   -0.1158    0.9716 H   0  0  0  0  0  0  0  0  0  0  0  0
    5.7250   -1.8221    0.0163 H   0  0  0  0  0  0  0  0  0  0  0  0
    7.6294   -0.6348    1.0244 H   0  0  0  0  0  0  0  0  0  0  0  0
    7.3310    1.6443    1.9617 H   0  0  0  0  0  0  0  0  0  0  0  0
    5.1039    2.7314    1.8718 H   0  0  0  0  0  0  0  0  0  0  0  0
    3.1952    1.5767    0.8611 H   0  0  0  0  0  0  0  0  0  0  0  0
    3.9467   -3.5622   -3.0594 H   0  0  0  0  0  0  0  0  0  0  0  0
    2.2925   -4.9465   -4.2652 H   0  0  0  0  0  0  0  0  0  0  0  0
   -0.1237   -4.7451   -3.7146 H   0  0  0  0  0  0  0  0  0  0  0  0
   -0.8558   -3.1800   -1.9725 H   0  0  0  0  0  0  0  0  0  0  0  0
  1  2  1  0
  2  3  1  0
  3  4  2  0
  3  5  1  0
  5  6  2  0
  6  7  1  0
  7  8  1  0
  8  9  1  0
  7 10  2  0
 10 11  1  0
 11 12  1  0
 10 13  1  0
 13 14  2  0
 14 15  1  0
 15 16  1  0
 16 17  2  0
 16 18  1  0
 18 19  2  0
 19 20  1  0
 20 21  1  0
 21 22  2  0
 22 23  1  0
 23 24  2  0
 24 25  1  0
 25 26  2  0
 20 27  2  0
 27 28  1  0
 28 29  2  0
 29 30  1  0
 30 31  2  0
 31 32  1  0
 32 33  2  0
 14  5  1  0
 33 18  1  0
 26 21  1  0
 33 28  1  0
  1 34  1  0
  1 35  1  0
  1 36  1  0
  6 37  1  0
  9 38  1  0
  9 39  1  0
  9 40  1  0
 12 41  1  0
 12 42  1  0
 12 43  1  0
 13 44  1  0
 15 45  1  0
 19 46  1  0
 22 47  1  0
 23 48  1  0
 24 49  1  0
 25 50  1  0
 26 51  1  0
 29 52  1  0
 30 53  1  0
 31 54  1  0
 32 55  1  0
M  END
$$$$
