
     RDKit          3D

 44 46  0  0  0  0  0  0  0  0999 V2000
    7.1685   -1.9368    0.1159 C   0  0  0  0  0  0  0  0  0  0  0  0
    6.4609   -1.7216   -1.0969 O   0  0  0  0  0  0  0  0  0  0  0  0
    5.3104   -0.9868   -1.0180 C   0  0  0  0  0  0  0  0  0  0  0  0
    4.8081   -0.3660    0.1236 C   0  0  0  0  0  0  0  0  0  0  0  0
    3.6073    0.3530    0.0623 C   0  0  0  0  0  0  0  0  0  0  0  0
    2.8937    0.4614   -1.1372 C   0  0  0  0  0  0  0  0  0  0  0  0
    1.6872    1.1845   -1.1009 N   0  0  0  0  0  0  0  0  0  0  0  0
    0.7849    1.3938   -2.1278 C   0  0  0  0  0  0  0  0  0  0  0  0
    0.9094    1.0282   -3.2953 O   0  0  0  0  0  0  0  0  0  0  0  0
   -0.4523    2.1842   -1.6837 C   0  0  0  0  0  0  0  0  0  0  0  0
   -1.3252    1.4454   -0.8435 O   0  0  0  0  0  0  0  0  0  0  0  0
   -1.1490    1.5784    0.4978 C   0  0  0  0  0  0  0  0  0  0  0  0
   -0.0488    2.1908    0.9470 N   0  0  0  0  0  0  0  0  0  0  0  0
   -0.1849    2.1089    2.6072 S   0  0  0  0  0  0  0  0  0  0  0  0
   -1.5997    1.2503    2.7556 N   0  0  0  0  0  0  0  0  0  0  0  0
   -2.0473    1.0239    1.5148 C   0  0  0  0  0  0  0  0  0  0  0  0
   -3.2070    0.3307    1.2550 N   0  0  0  0  0  0  0  0  0  0  0  0
   -3.8672    0.3745   -0.0519 C   0  0  0  0  0  0  0  0  0  0  0  0
   -5.3470    0.0171    0.0627 C   0  0  0  0  0  0  0  0  0  0  0  0
   -5.5536   -1.3637    0.6801 C   0  0  0  0  0  0  0  0  0  0  0  0
   -4.5018   -1.7008    1.7359 C   0  0  0  0  0  0  0  0  0  0  0  0
   -3.8408   -0.4532    2.3207 C   0  0  0  0  0  0  0  0  0  0  0  0
    3.4049   -0.1528   -2.2787 C   0  0  0  0  0  0  0  0  0  0  0  0
    4.6054   -0.8708   -2.2159 C   0  0  0  0  0  0  0  0  0  0  0  0
    7.5544   -0.9944    0.5167 H   0  0  0  0  0  0  0  0  0  0  0  0
    8.0253   -2.5802   -0.1078 H   0  0  0  0  0  0  0  0  0  0  0  0
    6.5463   -2.4540    0.8526 H   0  0  0  0  0  0  0  0  0  0  0  0
    5.3223   -0.4195    1.0765 H   0  0  0  0  0  0  0  0  0  0  0  0
    3.2389    0.8257    0.9693 H   0  0  0  0  0  0  0  0  0  0  0  0
    1.4103    1.5570   -0.1945 H   0  0  0  0  0  0  0  0  0  0  0  0
   -0.1615    3.1600   -1.2747 H   0  0  0  0  0  0  0  0  0  0  0  0
   -1.0214    2.4111   -2.5932 H   0  0  0  0  0  0  0  0  0  0  0  0
   -3.8107    1.3836   -0.4820 H   0  0  0  0  0  0  0  0  0  0  0  0
   -3.3711   -0.3209   -0.7397 H   0  0  0  0  0  0  0  0  0  0  0  0
   -5.8524    0.7677    0.6866 H   0  0  0  0  0  0  0  0  0  0  0  0
   -5.8246    0.0554   -0.9232 H   0  0  0  0  0  0  0  0  0  0  0  0
   -6.5581   -1.4127    1.1194 H   0  0  0  0  0  0  0  0  0  0  0  0
   -5.5264   -2.1303   -0.1059 H   0  0  0  0  0  0  0  0  0  0  0  0
   -4.9560   -2.2994    2.5335 H   0  0  0  0  0  0  0  0  0  0  0  0
   -3.7292   -2.3332    1.2770 H   0  0  0  0  0  0  0  0  0  0  0  0
   -3.1060   -0.7873    3.0657 H   0  0  0  0  0  0  0  0  0  0  0  0
   -4.5798    0.1666    2.8442 H   0  0  0  0  0  0  0  0  0  0  0  0
    2.8969   -0.0985   -3.2360 H   0  0  0  0  0  0  0  0  0  0  0  0
    4.9869   -1.3505   -3.1136 H   0  0  0  0  0  0  0  0  0  0  0  0
  1  2  1  0
  2  3  1  0
  3  4  2  0
  4  5  1  0
  5  6  2  0
  6  7  1  0
  7  8  1  0
  8  9  2  0
  8 10  1  0
 10 11  1  0
 11 12  1  0
 12 13  2  0
 13 14  1  0
 14 15  1  0
 15 16  2  0
 16 17  1  0
 17 18  1  0
 18 19  1  0
 19 20  1  0
 20 21  1  0
 21 22  1  0
  6 23  1  0
 23 24  2  0
 24  3  1  0
 16 12  1  0
 22 17  1  0
  1 25  1  0
  1 26  1  0
  1 27  1  0
  4 28  1  0
  5 29  1  0
  7 30  1  0
 10 31  1  0
 10 32  1  0
 18 33  1  0
 18 34  1  0
 19 35  1  0
 19 36  1  0
 20 37  1  0
 20 38  1  0
 21 39  1  0
 21 40  1  0
 22 41  1  0
 22 42  1  0
 23 43  1  0
 24 44  1  0
M  END
$$$$
