
     RDKit          3D

 43 45  0  0  0  0  0  0  0  0999 V2000
   -7.0930    1.1509   -1.0545 C   0  0  0  0  0  0  0  0  0  0  0  0
   -6.7294    0.7667    0.1764 C   0  0  0  0  0  0  0  0  0  0  0  0
   -6.2245   -0.6070    0.5236 C   0  0  0  0  0  0  0  0  0  0  0  0
   -4.7905   -0.5382    0.7530 N   0  0  0  0  0  0  0  0  0  0  0  0
   -4.3527   -0.2007    2.0247 C   0  0  0  0  0  0  0  0  0  0  0  0
   -5.0990    0.0308    2.9738 O   0  0  0  0  0  0  0  0  0  0  0  0
   -3.0056   -0.1271    2.2034 N   0  0  0  0  0  0  0  0  0  0  0  0
   -2.0807   -0.3624    1.2034 C   0  0  0  0  0  0  0  0  0  0  0  0
   -0.7769   -0.2427    1.5259 N   0  0  0  0  0  0  0  0  0  0  0  0
    0.1117   -0.4824    0.5364 C   0  0  0  0  0  0  0  0  0  0  0  0
    1.4697   -0.3762    0.7955 C   0  0  0  0  0  0  0  0  0  0  0  0
    2.4279   -0.6027   -0.1975 C   0  0  0  0  0  0  0  0  0  0  0  0
    3.7884   -0.4969    0.1249 N   0  0  0  0  0  0  0  0  0  0  0  0
    4.3113    0.6801    0.0106 C   0  0  0  0  0  0  0  0  0  0  0  0
    5.6220    1.0133    0.2664 N   0  0  0  0  0  0  0  0  0  0  0  0
    6.4875    0.0422    0.9226 C   0  0  0  0  0  0  0  0  0  0  0  0
    6.0062    2.4084    0.4057 C   0  0  0  0  0  0  0  0  0  0  0  0
    2.0131   -0.9784   -1.4814 C   0  0  0  0  0  0  0  0  0  0  0  0
    3.0144   -1.2570   -2.5664 C   0  0  0  0  0  0  0  0  0  0  0  0
    0.6400   -1.0800   -1.7492 C   0  0  0  0  0  0  0  0  0  0  0  0
   -0.3132   -0.8393   -0.7695 C   0  0  0  0  0  0  0  0  0  0  0  0
   -1.6179   -0.9516   -1.0770 N   0  0  0  0  0  0  0  0  0  0  0  0
   -2.4911   -0.7071   -0.0678 C   0  0  0  0  0  0  0  0  0  0  0  0
   -3.9436   -0.8161   -0.3265 C   0  0  0  0  0  0  0  0  0  0  0  0
   -4.3462   -1.1446   -1.4408 O   0  0  0  0  0  0  0  0  0  0  0  0
   -7.0186    0.4778   -1.9047 H   0  0  0  0  0  0  0  0  0  0  0  0
   -7.4599    2.1555   -1.2402 H   0  0  0  0  0  0  0  0  0  0  0  0
   -6.8174    1.4727    1.0000 H   0  0  0  0  0  0  0  0  0  0  0  0
   -6.7368   -0.9622    1.4249 H   0  0  0  0  0  0  0  0  0  0  0  0
   -6.4489   -1.3230   -0.2752 H   0  0  0  0  0  0  0  0  0  0  0  0
   -2.6587    0.1205    3.1196 H   0  0  0  0  0  0  0  0  0  0  0  0
    1.7993   -0.1134    1.7975 H   0  0  0  0  0  0  0  0  0  0  0  0
    3.7112    1.5490   -0.3226 H   0  0  0  0  0  0  0  0  0  0  0  0
    6.2224   -0.0511    1.9809 H   0  0  0  0  0  0  0  0  0  0  0  0
    6.4038   -0.9423    0.4499 H   0  0  0  0  0  0  0  0  0  0  0  0
    7.5389    0.3416    0.8557 H   0  0  0  0  0  0  0  0  0  0  0  0
    5.7252    2.7836    1.3951 H   0  0  0  0  0  0  0  0  0  0  0  0
    5.5162    3.0273   -0.3536 H   0  0  0  0  0  0  0  0  0  0  0  0
    7.0865    2.5347    0.2790 H   0  0  0  0  0  0  0  0  0  0  0  0
    3.5335   -0.3353   -2.8476 H   0  0  0  0  0  0  0  0  0  0  0  0
    2.5307   -1.6574   -3.4637 H   0  0  0  0  0  0  0  0  0  0  0  0
    3.7460   -1.9997   -2.2320 H   0  0  0  0  0  0  0  0  0  0  0  0
    0.2984   -1.3602   -2.7441 H   0  0  0  0  0  0  0  0  0  0  0  0
  1  2  2  0
  2  3  1  0
  3  4  1  0
  4  5  1  0
  5  6  2  0
  5  7  1  0
  7  8  1  0
  8  9  2  0
  9 10  1  0
 10 11  2  0
 11 12  1  0
 12 13  1  0
 13 14  2  3
 14 15  1  0
 15 16  1  0
 15 17  1  0
 12 18  2  0
 18 19  1  0
 18 20  1  0
 20 21  2  0
 21 22  1  0
 22 23  2  0
 23 24  1  0
 24 25  2  0
 24  4  1  0
 23  8  1  0
 21 10  1  0
  1 26  1  0
  1 27  1  0
  2 28  1  0
  3 29  1  0
  3 30  1  0
  7 31  1  0
 11 32  1  0
 14 33  1  0
 16 34  1  0
 16 35  1  0
 16 36  1  0
 17 37  1  0
 17 38  1  0
 17 39  1  0
 19 40  1  0
 19 41  1  0
 19 42  1  0
 20 43  1  0
M  END
$$$$
