
     RDKit          3D

 52 55  0  0  0  0  0  0  0  0999 V2000
    6.3855    2.0697   -3.3082 C   0  0  0  0  0  0  0  0  0  0  0  0
    6.0641    2.6245   -1.9289 C   0  0  0  0  0  0  0  0  0  0  0  0
    4.8302    1.9871   -1.3421 C   0  0  0  0  0  0  0  0  0  0  0  0
    3.5658    2.5403   -1.5775 C   0  0  0  0  0  0  0  0  0  0  0  0
    2.4210    1.9401   -1.0477 C   0  0  0  0  0  0  0  0  0  0  0  0
    2.5245    0.7749   -0.2799 C   0  0  0  0  0  0  0  0  0  0  0  0
    1.2901    0.1627    0.2649 C   0  0  0  0  0  0  0  0  0  0  0  0
    0.1152    0.7021    0.1410 N   0  0  0  0  0  0  0  0  0  0  0  0
   -0.7821   -0.1395    0.7346 N   0  0  0  0  0  0  0  0  0  0  0  0
   -2.1077    0.2479    0.9228 C   0  0  0  0  0  0  0  0  0  0  0  0
   -3.0503   -0.5728    1.5654 C   0  0  0  0  0  0  0  0  0  0  0  0
   -4.3797   -0.1684    1.7451 C   0  0  0  0  0  0  0  0  0  0  0  0
   -4.7876    1.0826    1.2863 C   0  0  0  0  0  0  0  0  0  0  0  0
   -6.4685    1.5888    1.4807 S   0  0  0  0  0  6  0  0  0  0  0  0
   -6.4068    2.4568    2.9170 N   0  0  0  0  0  0  0  0  0  0  0  0
   -7.2887    0.4321    1.7572 O   0  0  0  0  0  0  0  0  0  0  0  0
   -6.8032    2.5466    0.4529 O   0  0  0  0  0  0  0  0  0  0  0  0
   -3.8858    1.9179    0.6326 C   0  0  0  0  0  0  0  0  0  0  0  0
   -2.5621    1.4982    0.4614 C   0  0  0  0  0  0  0  0  0  0  0  0
   -0.1797   -1.3975    1.1798 C   0  0  0  0  0  0  0  0  0  0  0  0
   -0.5964   -2.5988    0.3404 C   0  0  0  0  0  0  0  0  0  0  0  0
   -0.8547   -2.4912   -1.0384 C   0  0  0  0  0  0  0  0  0  0  0  0
   -1.2115   -3.6145   -1.7861 C   0  0  0  0  0  0  0  0  0  0  0  0
   -1.3045   -4.8512   -1.1621 C   0  0  0  0  0  0  0  0  0  0  0  0
   -1.6441   -5.9301   -1.8795 F   0  0  0  0  0  0  0  0  0  0  0  0
   -1.0467   -4.9871    0.1963 C   0  0  0  0  0  0  0  0  0  0  0  0
   -0.6905   -3.8650    0.9469 C   0  0  0  0  0  0  0  0  0  0  0  0
    1.3194   -1.1263    1.0390 C   0  0  0  0  0  0  0  0  0  0  0  0
    3.7843    0.2156   -0.0452 C   0  0  0  0  0  0  0  0  0  0  0  0
    4.9290    0.8182   -0.5766 C   0  0  0  0  0  0  0  0  0  0  0  0
    5.5636    2.2486   -4.0098 H   0  0  0  0  0  0  0  0  0  0  0  0
    6.5653    0.9899   -3.2701 H   0  0  0  0  0  0  0  0  0  0  0  0
    7.2841    2.5492   -3.7090 H   0  0  0  0  0  0  0  0  0  0  0  0
    5.9252    3.7109   -1.9894 H   0  0  0  0  0  0  0  0  0  0  0  0
    6.9163    2.4650   -1.2572 H   0  0  0  0  0  0  0  0  0  0  0  0
    3.4621    3.4428   -2.1763 H   0  0  0  0  0  0  0  0  0  0  0  0
    1.4483    2.3879   -1.2417 H   0  0  0  0  0  0  0  0  0  0  0  0
   -2.7725   -1.5556    1.9341 H   0  0  0  0  0  0  0  0  0  0  0  0
   -5.0815   -0.8370    2.2380 H   0  0  0  0  0  0  0  0  0  0  0  0
   -6.9898    2.0023    3.6197 H   0  0  0  0  0  0  0  0  0  0  0  0
   -6.6524    3.4311    2.7414 H   0  0  0  0  0  0  0  0  0  0  0  0
   -4.1942    2.8884    0.2521 H   0  0  0  0  0  0  0  0  0  0  0  0
   -1.8690    2.1638   -0.0501 H   0  0  0  0  0  0  0  0  0  0  0  0
   -0.4164   -1.5812    2.2356 H   0  0  0  0  0  0  0  0  0  0  0  0
   -0.7892   -1.5242   -1.5365 H   0  0  0  0  0  0  0  0  0  0  0  0
   -1.4190   -3.5287   -2.8479 H   0  0  0  0  0  0  0  0  0  0  0  0
   -1.1250   -5.9651    0.6604 H   0  0  0  0  0  0  0  0  0  0  0  0
   -0.4892   -3.9859    2.0094 H   0  0  0  0  0  0  0  0  0  0  0  0
    1.8697   -1.9110    0.5128 H   0  0  0  0  0  0  0  0  0  0  0  0
    1.7775   -0.9382    2.0160 H   0  0  0  0  0  0  0  0  0  0  0  0
    3.9051   -0.6858    0.5474 H   0  0  0  0  0  0  0  0  0  0  0  0
    5.9023    0.3688   -0.3895 H   0  0  0  0  0  0  0  0  0  0  0  0
  1  2  1  0
  2  3  1  0
  3  4  2  0
  4  5  1  0
  5  6  2  0
  6  7  1  0
  7  8  2  0
  8  9  1  0
  9 10  1  0
 10 11  2  0
 11 12  1  0
 12 13  2  0
 13 14  1  0
 14 15  1  0
 14 16  2  0
 14 17  2  0
 13 18  1  0
 18 19  2  0
  9 20  1  0
 20 21  1  0
 21 22  2  0
 22 23  1  0
 23 24  2  0
 24 25  1  0
 24 26  1  0
 26 27  2  0
 20 28  1  0
  6 29  1  0
 29 30  2  0
 30  3  1  0
 28  7  1  0
 19 10  1  0
 27 21  1  0
  1 31  1  0
  1 32  1  0
  1 33  1  0
  2 34  1  0
  2 35  1  0
  4 36  1  0
  5 37  1  0
 11 38  1  0
 12 39  1  0
 15 40  1  0
 15 41  1  0
 18 42  1  0
 19 43  1  0
 20 44  1  0
 22 45  1  0
 23 46  1  0
 26 47  1  0
 27 48  1  0
 28 49  1  0
 28 50  1  0
 29 51  1  0
 30 52  1  0
M  END
$$$$
