
     RDKit          3D

 67 72  0  0  0  0  0  0  0  0999 V2000
    6.6688   -0.0008    1.8680 C   0  0  0  0  0  0  0  0  0  0  0  0
    6.2910    0.4895    0.4658 C   0  0  0  0  0  0  0  0  0  0  0  0
    6.4062    2.0128    0.3391 C   0  0  0  0  0  0  0  0  0  0  0  0
    7.2408   -0.1599   -0.5527 C   0  0  0  0  0  0  0  0  0  0  0  0
    4.9712    0.0268    0.0811 O   0  0  0  0  0  0  0  0  0  0  0  0
    3.8662    0.4085    0.7706 C   0  0  0  0  0  0  0  0  0  0  0  0
    3.8744    1.1417    1.7504 O   0  0  0  0  0  0  0  0  0  0  0  0
    2.7154   -0.1242    0.2296 N   0  0  0  0  0  0  0  0  0  0  0  0
    2.7177   -0.9763   -0.9638 C   0  0  0  0  0  0  0  0  0  0  0  0
    1.3699   -1.6943   -1.1733 C   0  0  0  0  0  0  0  0  0  0  0  0
    0.2564   -0.7532   -1.2579 N   0  0  0  0  0  0  0  0  0  0  0  0
    0.3589    0.4254   -0.3301 C   0  0  2  0  0  0  0  0  0  0  0  0
    1.4090    0.2425    0.7802 C   0  0  0  0  0  0  0  0  0  0  0  0
   -1.0254    0.5803    0.1614 C   0  0  0  0  0  0  0  0  0  0  0  0
   -1.8772   -0.3933   -0.3799 C   0  0  0  0  0  0  0  0  0  0  0  0
   -3.1375   -0.1940    0.1254 C   0  0  0  0  0  0  0  0  0  0  0  0
   -4.2778   -0.8549   -0.0342 O   0  0  0  0  0  0  0  0  0  0  0  0
   -3.0610    0.9268    0.9382 N   0  0  0  0  0  0  0  0  0  0  0  0
   -4.1784    1.4981    1.6798 C   0  0  0  0  0  0  0  0  0  0  0  0
   -4.8669    2.5942    0.9034 C   0  0  0  0  0  0  0  0  0  0  0  0
   -4.5094    3.9366    1.0950 C   0  0  0  0  0  0  0  0  0  0  0  0
   -5.1414    4.9492    0.3714 C   0  0  0  0  0  0  0  0  0  0  0  0
   -6.1326    4.6308   -0.5547 C   0  0  0  0  0  0  0  0  0  0  0  0
   -6.4907    3.3001   -0.7610 C   0  0  0  0  0  0  0  0  0  0  0  0
   -5.8606    2.2866   -0.0373 C   0  0  0  0  0  0  0  0  0  0  0  0
   -1.7561    1.3939    0.9858 C   0  0  0  0  0  0  0  0  0  0  0  0
   -1.4259    2.4446    1.7255 O   0  0  0  0  0  0  0  0  0  0  0  0
   -1.1309   -1.3076   -1.2718 C   0  0  1  0  0  0  0  0  0  0  0  0
   -1.6814   -1.3612   -2.7299 C   0  0  0  0  0  0  0  0  0  0  0  0
   -1.7350   -0.4749   -3.5695 O   0  0  0  0  0  0  0  0  0  0  0  0
   -2.1268   -2.6690   -2.9435 N   0  0  0  0  0  0  0  0  0  0  0  0
   -1.9576   -3.4555   -1.8139 C   0  0  0  0  0  0  0  0  0  0  0  0
   -2.3147   -4.7802   -1.6717 C   0  0  0  0  0  0  0  0  0  0  0  0
   -2.0925   -5.3755   -0.4284 C   0  0  0  0  0  0  0  0  0  0  0  0
   -1.5311   -4.6405    0.6308 C   0  0  0  0  0  0  0  0  0  0  0  0
   -1.1755   -3.2989    0.4627 C   0  0  0  0  0  0  0  0  0  0  0  0
   -1.3839   -2.7110   -0.7778 C   0  0  0  0  0  0  0  0  0  0  0  0
    7.7227    0.2004    2.0893 H   0  0  0  0  0  0  0  0  0  0  0  0
    6.0736    0.4864    2.6464 H   0  0  0  0  0  0  0  0  0  0  0  0
    6.4912   -1.0782    1.9649 H   0  0  0  0  0  0  0  0  0  0  0  0
    7.4425    2.3455    0.4633 H   0  0  0  0  0  0  0  0  0  0  0  0
    6.0471    2.3495   -0.6401 H   0  0  0  0  0  0  0  0  0  0  0  0
    5.8038    2.5328    1.0899 H   0  0  0  0  0  0  0  0  0  0  0  0
    6.9790    0.1382   -1.5749 H   0  0  0  0  0  0  0  0  0  0  0  0
    7.1591   -1.2529   -0.5191 H   0  0  0  0  0  0  0  0  0  0  0  0
    8.2849    0.1150   -0.3690 H   0  0  0  0  0  0  0  0  0  0  0  0
    3.5227   -1.7144   -0.8763 H   0  0  0  0  0  0  0  0  0  0  0  0
    2.9464   -0.3340   -1.8227 H   0  0  0  0  0  0  0  0  0  0  0  0
    1.4207   -2.2920   -2.0903 H   0  0  0  0  0  0  0  0  0  0  0  0
    1.2455   -2.3841   -0.3318 H   0  0  0  0  0  0  0  0  0  0  0  0
    0.6311    1.2952   -0.9414 H   0  0  0  0  0  0  0  0  0  0  0  0
    1.1169   -0.5630    1.4670 H   0  0  0  0  0  0  0  0  0  0  0  0
    1.4888    1.1561    1.3802 H   0  0  0  0  0  0  0  0  0  0  0  0
   -4.1000   -1.6148   -0.6165 H   0  0  0  0  0  0  0  0  0  0  0  0
   -4.8821    0.6936    1.9234 H   0  0  0  0  0  0  0  0  0  0  0  0
   -3.7966    1.8713    2.6375 H   0  0  0  0  0  0  0  0  0  0  0  0
   -3.7273    4.1978    1.8051 H   0  0  0  0  0  0  0  0  0  0  0  0
   -4.8549    5.9858    0.5260 H   0  0  0  0  0  0  0  0  0  0  0  0
   -6.6200    5.4191   -1.1218 H   0  0  0  0  0  0  0  0  0  0  0  0
   -7.2554    3.0494   -1.4912 H   0  0  0  0  0  0  0  0  0  0  0  0
   -6.1400    1.2504   -0.2172 H   0  0  0  0  0  0  0  0  0  0  0  0
   -0.4969    2.6641    1.5375 H   0  0  0  0  0  0  0  0  0  0  0  0
   -2.5244   -2.9651   -3.8225 H   0  0  0  0  0  0  0  0  0  0  0  0
   -2.7584   -5.3439   -2.4847 H   0  0  0  0  0  0  0  0  0  0  0  0
   -2.3631   -6.4178   -0.2721 H   0  0  0  0  0  0  0  0  0  0  0  0
   -1.3773   -5.1214    1.5950 H   0  0  0  0  0  0  0  0  0  0  0  0
   -0.7552   -2.7320    1.2886 H   0  0  0  0  0  0  0  0  0  0  0  0
  1  2  1  0
  2  3  1  0
  2  4  1  0
  2  5  1  0
  5  6  1  0
  6  7  2  0
  6  8  1  0
  8  9  1  0
  9 10  1  0
 10 11  1  0
 11 12  1  0
 12 13  1  0
 12 14  1  0
 14 15  1  0
 15 16  2  0
 16 17  1  0
 16 18  1  0
 18 19  1  0
 19 20  1  0
 20 21  2  0
 21 22  1  0
 22 23  2  0
 23 24  1  0
 24 25  2  0
 18 26  1  0
 26 27  1  0
 15 28  1  0
 28 29  1  0
 29 30  2  0
 29 31  1  0
 31 32  1  0
 32 33  2  0
 33 34  1  0
 34 35  2  0
 35 36  1  0
 36 37  2  0
 13  8  1  0
 26 14  2  0
 37 28  1  0
 28 11  1  6
 37 32  1  0
 25 20  1  0
  1 38  1  0
  1 39  1  0
  1 40  1  0
  3 41  1  0
  3 42  1  0
  3 43  1  0
  4 44  1  0
  4 45  1  0
  4 46  1  0
  9 47  1  0
  9 48  1  0
 10 49  1  0
 10 50  1  0
 12 51  1  6
 13 52  1  0
 13 53  1  0
 17 54  1  0
 19 55  1  0
 19 56  1  0
 21 57  1  0
 22 58  1  0
 23 59  1  0
 24 60  1  0
 25 61  1  0
 27 62  1  0
 31 63  1  0
 33 64  1  0
 34 65  1  0
 35 66  1  0
 36 67  1  0
M  END
$$$$
