
     RDKit          3D

 45 47  0  0  0  0  0  0  0  0999 V2000
    6.9249    0.9767    0.6847 C   0  0  0  0  0  0  0  0  0  0  0  0
    6.1641   -0.2226    0.7290 O   0  0  0  0  0  0  0  0  0  0  0  0
    4.8227   -0.1262    0.4738 C   0  0  0  0  0  0  0  0  0  0  0  0
    4.1563    1.0524    0.1334 C   0  0  0  0  0  0  0  0  0  0  0  0
    2.7688    1.0553   -0.0743 C   0  0  0  0  0  0  0  0  0  0  0  0
    2.0245   -0.1180    0.0536 C   0  0  0  0  0  0  0  0  0  0  0  0
    0.6266   -0.1804   -0.1154 N   0  0  0  0  0  0  0  0  0  0  0  0
   -0.1919    0.7774   -0.6740 C   0  0  0  0  0  0  0  0  0  0  0  0
    0.2029    1.7801   -1.2624 O   0  0  0  0  0  0  0  0  0  0  0  0
   -1.5595    0.4774   -0.5564 N   0  0  0  0  0  0  0  0  0  0  0  0
   -2.4732    1.4037   -1.2247 C   0  0  0  0  0  0  0  0  0  0  0  0
   -3.8190    0.7580   -1.5203 C   0  0  0  0  0  0  0  0  0  0  0  0
   -4.4260    0.1453   -0.2612 C   0  0  0  0  0  0  0  0  0  0  0  0
   -3.4403   -0.8177    0.3950 C   0  0  0  0  0  0  0  0  0  0  0  0
   -2.1028   -0.1401    0.6581 C   0  0  0  0  0  0  0  0  0  0  0  0
   -5.6156   -0.5748   -0.6311 O   0  0  0  0  0  0  0  0  0  0  0  0
   -6.6215   -0.1223    0.2754 C   0  0  0  0  0  0  0  0  0  0  0  0
   -6.1949    1.2824    0.5966 C   0  0  0  0  0  0  0  0  0  0  0  0
   -4.7732    1.1809    0.6750 O   0  0  0  0  0  0  0  0  0  0  0  0
    2.6856   -1.2987    0.4001 C   0  0  0  0  0  0  0  0  0  0  0  0
    4.0726   -1.3057    0.5815 C   0  0  0  0  0  0  0  0  0  0  0  0
    4.6354   -2.5083    0.9365 O   0  0  0  0  0  0  0  0  0  0  0  0
    5.3939   -3.0488   -0.1462 C   0  0  0  0  0  0  0  0  0  0  0  0
    6.5594    1.7081    1.4124 H   0  0  0  0  0  0  0  0  0  0  0  0
    7.9557    0.7282    0.9532 H   0  0  0  0  0  0  0  0  0  0  0  0
    6.9361    1.3963   -0.3265 H   0  0  0  0  0  0  0  0  0  0  0  0
    4.6785    1.9976    0.0277 H   0  0  0  0  0  0  0  0  0  0  0  0
    2.2941    2.0012   -0.3211 H   0  0  0  0  0  0  0  0  0  0  0  0
    0.2115   -1.0959   -0.0418 H   0  0  0  0  0  0  0  0  0  0  0  0
   -2.5888    2.2849   -0.5819 H   0  0  0  0  0  0  0  0  0  0  0  0
   -2.0298    1.7458   -2.1670 H   0  0  0  0  0  0  0  0  0  0  0  0
   -4.4958    1.5087   -1.9463 H   0  0  0  0  0  0  0  0  0  0  0  0
   -3.6972   -0.0202   -2.2855 H   0  0  0  0  0  0  0  0  0  0  0  0
   -3.2946   -1.6927   -0.2512 H   0  0  0  0  0  0  0  0  0  0  0  0
   -3.8487   -1.1925    1.3415 H   0  0  0  0  0  0  0  0  0  0  0  0
   -2.2070    0.6547    1.4078 H   0  0  0  0  0  0  0  0  0  0  0  0
   -1.4097   -0.8711    1.0817 H   0  0  0  0  0  0  0  0  0  0  0  0
   -7.6118   -0.1819   -0.1833 H   0  0  0  0  0  0  0  0  0  0  0  0
   -6.5935   -0.7645    1.1628 H   0  0  0  0  0  0  0  0  0  0  0  0
   -6.6087    1.6581    1.5357 H   0  0  0  0  0  0  0  0  0  0  0  0
   -6.4443    1.9763   -0.2134 H   0  0  0  0  0  0  0  0  0  0  0  0
    2.1404   -2.2293    0.5267 H   0  0  0  0  0  0  0  0  0  0  0  0
    5.6151   -4.0948    0.0918 H   0  0  0  0  0  0  0  0  0  0  0  0
    4.8290   -3.0287   -1.0859 H   0  0  0  0  0  0  0  0  0  0  0  0
    6.3498   -2.5293   -0.2640 H   0  0  0  0  0  0  0  0  0  0  0  0
  1  2  1  0
  2  3  1  0
  3  4  2  0
  4  5  1  0
  5  6  2  0
  6  7  1  0
  7  8  1  0
  8  9  2  0
  8 10  1  0
 10 11  1  0
 11 12  1  0
 12 13  1  0
 13 14  1  0
 14 15  1  0
 13 16  1  0
 16 17  1  0
 17 18  1  0
 18 19  1  0
  6 20  1  0
 20 21  2  0
 21 22  1  0
 22 23  1  0
 21  3  1  0
 15 10  1  0
 19 13  1  0
  1 24  1  0
  1 25  1  0
  1 26  1  0
  4 27  1  0
  5 28  1  0
  7 29  1  0
 11 30  1  0
 11 31  1  0
 12 32  1  0
 12 33  1  0
 14 34  1  0
 14 35  1  0
 15 36  1  0
 15 37  1  0
 17 38  1  0
 17 39  1  0
 18 40  1  0
 18 41  1  0
 20 42  1  0
 23 43  1  0
 23 44  1  0
 23 45  1  0
M  END
$$$$
