
     RDKit          3D

 54 58  0  0  0  0  0  0  0  0999 V2000
   -7.7795    0.9491    4.0789 O   0  0  0  0  0  0  0  0  0  0  0  0
   -7.5563    0.7984    2.8921 C   0  0  0  0  0  0  0  0  0  0  0  0
   -8.5584    0.7084    1.9996 O   0  0  0  0  0  0  0  0  0  0  0  0
   -6.2172    0.6913    2.2654 C   0  0  0  0  0  0  0  0  0  0  0  0
   -6.0490    0.5070    0.8922 C   0  0  0  0  0  0  0  0  0  0  0  0
   -4.7614    0.4080    0.3457 C   0  0  0  0  0  0  0  0  0  0  0  0
   -3.6144    0.4837    1.1505 C   0  0  0  0  0  0  0  0  0  0  0  0
   -2.2991    0.3771    0.5971 N   0  0  0  0  0  0  0  0  0  0  0  0
   -1.1797    1.0068    1.1994 C   0  0  0  0  0  0  0  0  0  0  0  0
   -1.0814    1.6797    2.2107 O   0  0  0  0  0  0  0  0  0  0  0  0
   -0.0437    0.7108    0.2623 C   0  0  0  0  0  0  0  0  0  0  0  0
    1.1909    1.1590    0.5216 C   0  0  0  0  0  0  0  0  0  0  0  0
    2.3323    0.9442   -0.2969 C   0  0  0  0  0  0  0  0  0  0  0  0
    2.4797    0.8556   -1.6757 C   0  0  0  0  0  0  0  0  0  0  0  0
    3.8531    0.6559   -1.9590 C   0  0  0  0  0  0  0  0  0  0  0  0
    4.5043    0.6481   -0.7459 C   0  0  0  0  0  0  0  0  0  0  0  0
    5.8972    0.4982   -0.3286 C   0  0  0  0  0  0  0  0  0  0  0  0
    6.2602    0.5549    1.0283 C   0  0  0  0  0  0  0  0  0  0  0  0
    7.5938    0.4124    1.4291 C   0  0  0  0  0  0  0  0  0  0  0  0
    8.5844    0.2092    0.4631 C   0  0  0  0  0  0  0  0  0  0  0  0
    9.9857    0.0583    0.8742 N   0  0  0  0  0  4  0  0  0  0  0  0
   10.8306   -0.1204   -0.0151 O   0  0  0  0  0  0  0  0  0  0  0  0
   10.2417    0.1181    2.0852 O   0  0  0  0  0  1  0  0  0  0  0  0
    8.2474    0.1487   -0.8937 C   0  0  0  0  0  0  0  0  0  0  0  0
    6.9095    0.2932   -1.2809 C   0  0  0  0  0  0  0  0  0  0  0  0
    3.5917    0.8337    0.2496 O   0  0  0  0  0  0  0  0  0  0  0  0
   -0.5763   -0.0959   -0.7999 C   0  0  0  0  0  0  0  0  0  0  0  0
   -1.8891   -0.2658   -0.5749 C   0  0  0  0  0  0  0  0  0  0  0  0
   -2.6931   -1.1620   -1.4079 C   0  0  0  0  0  0  0  0  0  0  0  0
   -3.2297   -2.3400   -0.8691 C   0  0  0  0  0  0  0  0  0  0  0  0
   -3.9820   -3.2040   -1.6671 C   0  0  0  0  0  0  0  0  0  0  0  0
   -4.1964   -2.9033   -3.0112 C   0  0  0  0  0  0  0  0  0  0  0  0
   -3.6594   -1.7399   -3.5601 C   0  0  0  0  0  0  0  0  0  0  0  0
   -2.9074   -0.8737   -2.7635 C   0  0  0  0  0  0  0  0  0  0  0  0
   -3.8052    0.6832    2.5274 C   0  0  0  0  0  0  0  0  0  0  0  0
   -5.0888    0.7825    3.0816 C   0  0  0  0  0  0  0  0  0  0  0  0
   -9.3662    0.7952    2.5482 H   0  0  0  0  0  0  0  0  0  0  0  0
   -6.9092    0.4454    0.2299 H   0  0  0  0  0  0  0  0  0  0  0  0
   -4.6903    0.3136   -0.7330 H   0  0  0  0  0  0  0  0  0  0  0  0
    1.3689    1.7094    1.4440 H   0  0  0  0  0  0  0  0  0  0  0  0
    1.6867    0.9452   -2.4046 H   0  0  0  0  0  0  0  0  0  0  0  0
    4.3050    0.5463   -2.9343 H   0  0  0  0  0  0  0  0  0  0  0  0
    5.5006    0.7127    1.7933 H   0  0  0  0  0  0  0  0  0  0  0  0
    7.8353    0.4628    2.4890 H   0  0  0  0  0  0  0  0  0  0  0  0
    9.0056   -0.0086   -1.6585 H   0  0  0  0  0  0  0  0  0  0  0  0
    6.6707    0.2427   -2.3411 H   0  0  0  0  0  0  0  0  0  0  0  0
   -0.0080   -0.5479   -1.5963 H   0  0  0  0  0  0  0  0  0  0  0  0
   -3.0676   -2.5900    0.1776 H   0  0  0  0  0  0  0  0  0  0  0  0
   -4.3992   -4.1123   -1.2392 H   0  0  0  0  0  0  0  0  0  0  0  0
   -4.7822   -3.5774   -3.6315 H   0  0  0  0  0  0  0  0  0  0  0  0
   -3.8272   -1.5070   -4.6087 H   0  0  0  0  0  0  0  0  0  0  0  0
   -2.4999    0.0324   -3.2064 H   0  0  0  0  0  0  0  0  0  0  0  0
   -2.9621    0.7379    3.2123 H   0  0  0  0  0  0  0  0  0  0  0  0
   -5.1958    0.9293    4.1549 H   0  0  0  0  0  0  0  0  0  0  0  0
  1  2  2  0
  2  3  1  0
  2  4  1  0
  4  5  2  0
  5  6  1  0
  6  7  2  0
  7  8  1  0
  8  9  1  0
  9 10  2  0
  9 11  1  0
 11 12  2  3
 12 13  1  0
 13 14  2  0
 14 15  1  0
 15 16  2  0
 16 17  1  0
 17 18  2  0
 18 19  1  0
 19 20  2  0
 20 21  1  0
 21 22  2  0
 21 23  1  0
 20 24  1  0
 24 25  2  0
 16 26  1  0
 11 27  1  0
 27 28  2  0
 28 29  1  0
 29 30  2  0
 30 31  1  0
 31 32  2  0
 32 33  1  0
 33 34  2  0
  7 35  1  0
 35 36  2  0
 36  4  1  0
 28  8  1  0
 34 29  1  0
 26 13  1  0
 25 17  1  0
  3 37  1  0
  5 38  1  0
  6 39  1  0
 12 40  1  0
 14 41  1  0
 15 42  1  0
 18 43  1  0
 19 44  1  0
 24 45  1  0
 25 46  1  0
 27 47  1  0
 30 48  1  0
 31 49  1  0
 32 50  1  0
 33 51  1  0
 34 52  1  0
 35 53  1  0
 36 54  1  0
M  CHG  2  21   1  23  -1
M  END
$$$$
