
     RDKit          3D

 42 43  0  0  0  0  0  0  0  0999 V2000
   -3.1797   -1.9350    4.7530 C   0  0  0  0  0  0  0  0  0  0  0  0
   -3.9897   -1.2283    3.6632 C   0  0  0  0  0  0  0  0  0  0  0  0
   -4.5971    0.0732    4.1925 C   0  0  0  0  0  0  0  0  0  0  0  0
   -3.1574   -0.9888    2.4163 C   0  0  0  0  0  0  0  0  0  0  0  0
   -2.0135   -0.1777    2.4349 C   0  0  0  0  0  0  0  0  0  0  0  0
   -1.2587    0.0318    1.2740 C   0  0  0  0  0  0  0  0  0  0  0  0
   -1.6367   -0.5681    0.0741 C   0  0  0  0  0  0  0  0  0  0  0  0
   -0.9949   -0.4495   -1.1265 O   0  0  0  0  0  0  0  0  0  0  0  0
    0.1797    0.3453   -1.1587 C   0  0  0  0  0  0  0  0  0  0  0  0
    0.7918    0.3843   -2.5628 C   0  0  0  0  0  0  0  0  0  0  0  0
    0.2820   -0.1313   -3.5527 O   0  0  0  0  0  0  0  0  0  0  0  0
    1.9919    1.0785   -2.6138 N   0  0  0  0  0  0  0  0  0  0  0  0
    2.7701    1.1393   -3.8422 C   0  0  0  0  0  0  0  0  0  0  0  0
    3.6261   -0.1105   -4.0354 C   0  0  0  0  0  0  0  0  0  0  0  0
    4.8476    0.1246   -3.1517 C   0  0  0  0  0  0  0  0  0  0  0  0
    5.0009    1.6414   -3.0384 C   0  0  0  0  0  0  0  0  0  0  0  0
    3.8151    2.2495   -3.7857 C   0  0  0  0  0  0  0  0  0  0  0  0
   -2.7743   -1.3756    0.0479 C   0  0  0  0  0  0  0  0  0  0  0  0
   -3.5287   -1.5860    1.2050 C   0  0  0  0  0  0  0  0  0  0  0  0
   -3.8167   -2.1748    5.6113 H   0  0  0  0  0  0  0  0  0  0  0  0
   -2.3527   -1.3151    5.1162 H   0  0  0  0  0  0  0  0  0  0  0  0
   -2.7545   -2.8729    4.3787 H   0  0  0  0  0  0  0  0  0  0  0  0
   -4.8256   -1.8912    3.4028 H   0  0  0  0  0  0  0  0  0  0  0  0
   -3.8285    0.7759    4.5322 H   0  0  0  0  0  0  0  0  0  0  0  0
   -5.2605   -0.1288    5.0404 H   0  0  0  0  0  0  0  0  0  0  0  0
   -5.1874    0.5736    3.4167 H   0  0  0  0  0  0  0  0  0  0  0  0
   -1.6968    0.3029    3.3580 H   0  0  0  0  0  0  0  0  0  0  0  0
   -0.3853    0.6699    1.3473 H   0  0  0  0  0  0  0  0  0  0  0  0
    0.9353   -0.0742   -0.4832 H   0  0  0  0  0  0  0  0  0  0  0  0
   -0.0552    1.3800   -0.8809 H   0  0  0  0  0  0  0  0  0  0  0  0
    2.4563    1.3005   -1.7428 H   0  0  0  0  0  0  0  0  0  0  0  0
    2.0808    1.2814   -4.6814 H   0  0  0  0  0  0  0  0  0  0  0  0
    3.9459   -0.1801   -5.0825 H   0  0  0  0  0  0  0  0  0  0  0  0
    3.1106   -1.0409   -3.7781 H   0  0  0  0  0  0  0  0  0  0  0  0
    5.7424   -0.3469   -3.5701 H   0  0  0  0  0  0  0  0  0  0  0  0
    4.6848   -0.3062   -2.1568 H   0  0  0  0  0  0  0  0  0  0  0  0
    4.9869    1.9404   -1.9841 H   0  0  0  0  0  0  0  0  0  0  0  0
    5.9502    1.9847   -3.4623 H   0  0  0  0  0  0  0  0  0  0  0  0
    4.1296    2.5100   -4.8039 H   0  0  0  0  0  0  0  0  0  0  0  0
    3.4524    3.1626   -3.3031 H   0  0  0  0  0  0  0  0  0  0  0  0
   -3.0770   -1.8464   -0.8848 H   0  0  0  0  0  0  0  0  0  0  0  0
   -4.4096   -2.2215    1.1475 H   0  0  0  0  0  0  0  0  0  0  0  0
  1  2  1  0
  2  3  1  0
  2  4  1  0
  4  5  2  0
  5  6  1  0
  6  7  2  0
  7  8  1  0
  8  9  1  0
  9 10  1  0
 10 11  2  0
 10 12  1  0
 12 13  1  0
 13 14  1  0
 14 15  1  0
 15 16  1  0
 16 17  1  0
  7 18  1  0
 18 19  2  0
 19  4  1  0
 17 13  1  0
  1 20  1  0
  1 21  1  0
  1 22  1  0
  2 23  1  0
  3 24  1  0
  3 25  1  0
  3 26  1  0
  5 27  1  0
  6 28  1  0
  9 29  1  0
  9 30  1  0
 12 31  1  0
 13 32  1  0
 14 33  1  0
 14 34  1  0
 15 35  1  0
 15 36  1  0
 16 37  1  0
 16 38  1  0
 17 39  1  0
 17 40  1  0
 18 41  1  0
 19 42  1  0
M  END
$$$$
