
     RDKit          3D

 46 49  0  0  0  0  0  0  0  0999 V2000
   -2.8674   -1.9783    1.6555 C   0  0  0  0  0  0  0  0  0  0  0  0
   -3.1060   -0.5769    1.1113 C   0  0  0  0  0  0  0  0  0  0  0  0
   -2.6348   -0.3939   -0.3499 C   0  0  0  0  0  0  0  0  0  0  0  0
   -3.3986   -1.2604   -1.3650 C   0  0  0  0  0  0  0  0  0  0  0  0
   -4.8229   -0.7670   -1.5981 C   0  0  0  0  0  0  0  0  0  0  0  0
   -4.8086    0.6979   -2.0169 C   0  0  0  0  0  0  0  0  0  0  0  0
   -4.0402    1.5622   -1.0235 C   0  0  0  0  0  0  0  0  0  0  0  0
   -2.7050    1.0337   -0.7417 N   0  0  0  0  0  0  0  0  0  0  0  0
   -1.7381    1.9704   -0.3253 C   0  0  0  0  0  0  0  0  0  0  0  0
   -2.0353    3.1502   -0.1362 O   0  0  0  0  0  0  0  0  0  0  0  0
   -0.3801    1.5053   -0.1077 C   0  0  0  0  0  0  0  0  0  0  0  0
    0.3836    1.6411    1.0347 C   0  0  0  0  0  0  0  0  0  0  0  0
    1.6954    1.1089    0.8624 C   0  0  0  0  0  0  0  0  0  0  0  0
    2.7823    1.0312    1.8159 C   0  0  0  0  0  0  0  0  0  0  0  0
    2.6466    1.4370    2.9690 O   0  0  0  0  0  0  0  0  0  0  0  0
    3.9590    0.4558    1.3038 N   0  0  0  0  0  0  0  0  0  0  0  0
    5.0579    0.3452    2.1495 C   0  0  0  0  0  0  0  0  0  0  0  0
    6.2129   -0.1926    1.7460 C   0  0  0  0  0  0  0  0  0  0  0  0
    6.3484   -0.6791    0.4020 C   0  0  0  0  0  0  0  0  0  0  0  0
    5.3315   -0.6062   -0.4703 C   0  0  0  0  0  0  0  0  0  0  0  0
    5.4239   -1.0973   -1.8814 C   0  0  0  0  0  0  0  0  0  0  0  0
    4.0243   -0.0016   -0.0266 C   0  0  0  0  0  0  0  0  0  0  0  0
    3.0391    0.0656   -0.8779 N   0  0  0  0  0  0  0  0  0  0  0  0
    1.9031    0.6264   -0.4058 C   0  0  0  0  0  0  0  0  0  0  0  0
    0.5274    0.8262   -1.3946 S   0  0  0  0  0  0  0  0  0  0  0  0
   -3.4939   -2.7187    1.1505 H   0  0  0  0  0  0  0  0  0  0  0  0
   -3.1135   -2.0122    2.7218 H   0  0  0  0  0  0  0  0  0  0  0  0
   -1.8192   -2.2718    1.5418 H   0  0  0  0  0  0  0  0  0  0  0  0
   -2.5675    0.1305    1.7544 H   0  0  0  0  0  0  0  0  0  0  0  0
   -4.1682   -0.3296    1.2151 H   0  0  0  0  0  0  0  0  0  0  0  0
   -1.5930   -0.7217   -0.3815 H   0  0  0  0  0  0  0  0  0  0  0  0
   -2.8618   -1.2276   -2.3228 H   0  0  0  0  0  0  0  0  0  0  0  0
   -3.4125   -2.3115   -1.0604 H   0  0  0  0  0  0  0  0  0  0  0  0
   -5.2992   -1.3690   -2.3802 H   0  0  0  0  0  0  0  0  0  0  0  0
   -5.4233   -0.8921   -0.6900 H   0  0  0  0  0  0  0  0  0  0  0  0
   -5.8345    1.0687   -2.1179 H   0  0  0  0  0  0  0  0  0  0  0  0
   -4.3384    0.7814   -3.0050 H   0  0  0  0  0  0  0  0  0  0  0  0
   -4.5818    1.6363   -0.0732 H   0  0  0  0  0  0  0  0  0  0  0  0
   -3.9620    2.5777   -1.4284 H   0  0  0  0  0  0  0  0  0  0  0  0
    0.0173    2.0939    1.9496 H   0  0  0  0  0  0  0  0  0  0  0  0
    4.9418    0.7180    3.1647 H   0  0  0  0  0  0  0  0  0  0  0  0
    7.0613   -0.2706    2.4186 H   0  0  0  0  0  0  0  0  0  0  0  0
    7.3053   -1.1072    0.1174 H   0  0  0  0  0  0  0  0  0  0  0  0
    4.6849   -1.8842   -2.0646 H   0  0  0  0  0  0  0  0  0  0  0  0
    5.2479   -0.2786   -2.5867 H   0  0  0  0  0  0  0  0  0  0  0  0
    6.4119   -1.5155   -2.1019 H   0  0  0  0  0  0  0  0  0  0  0  0
  1  2  1  0
  2  3  1  0
  3  4  1  0
  4  5  1  0
  5  6  1  0
  6  7  1  0
  7  8  1  0
  8  9  1  0
  9 10  2  0
  9 11  1  0
 11 12  2  0
 12 13  1  0
 13 14  1  0
 14 15  2  0
 14 16  1  0
 16 17  1  0
 17 18  2  0
 18 19  1  0
 19 20  2  0
 20 21  1  0
 20 22  1  0
 22 23  2  0
 23 24  1  0
 24 25  1  0
  8  3  1  0
 25 11  1  0
 24 13  2  0
 22 16  1  0
  1 26  1  0
  1 27  1  0
  1 28  1  0
  2 29  1  0
  2 30  1  0
  3 31  1  0
  4 32  1  0
  4 33  1  0
  5 34  1  0
  5 35  1  0
  6 36  1  0
  6 37  1  0
  7 38  1  0
  7 39  1  0
 12 40  1  0
 17 41  1  0
 18 42  1  0
 19 43  1  0
 21 44  1  0
 21 45  1  0
 21 46  1  0
M  END
$$$$
