
     RDKit          3D

 56 59  0  0  0  0  0  0  0  0999 V2000
   -0.1836    2.9679   -0.1974 C   0  0  0  0  0  0  0  0  0  0  0  0
   -1.0356    1.7503   -0.5209 C   0  0  0  0  0  0  0  0  0  0  0  0
   -1.4955    1.0447    0.6827 N   0  0  0  0  0  0  0  0  0  0  0  0
   -2.6093    1.6491    1.4212 C   0  0  0  0  0  0  0  0  0  0  0  0
   -3.9469    1.2082    0.8103 C   0  0  0  0  0  0  0  0  0  0  0  0
   -4.5749    2.0514    0.0493 N   0  0  0  0  0  0  0  0  0  0  0  0
   -5.7595    1.6604   -0.5381 C   0  0  0  0  0  0  0  0  0  0  0  0
   -6.4374    2.4264   -1.2148 O   0  0  0  0  0  0  0  0  0  0  0  0
   -6.2359    0.2597   -0.3755 C   0  0  0  0  0  0  0  0  0  0  0  0
   -7.3938   -0.1998   -1.0131 C   0  0  0  0  0  0  0  0  0  0  0  0
   -7.8024   -1.5213   -0.8257 C   0  0  0  0  0  0  0  0  0  0  0  0
   -7.0571   -2.3655   -0.0009 C   0  0  0  0  0  0  0  0  0  0  0  0
   -7.5690   -3.9910    0.2383 Cl  0  0  0  0  0  0  0  0  0  0  0  0
   -5.9031   -1.9047    0.6371 C   0  0  0  0  0  0  0  0  0  0  0  0
   -5.4773   -0.5898    0.4368 C   0  0  0  0  0  0  0  0  0  0  0  0
   -4.3669   -0.0696    1.0975 N   0  0  0  0  0  0  0  0  0  0  0  0
   -1.1805   -0.2821    0.9779 C   0  0  0  0  0  0  0  0  0  0  0  0
   -1.8738   -0.9777    1.7223 O   0  0  0  0  0  0  0  0  0  0  0  0
    0.0059   -0.9061    0.3570 C   0  0  0  0  0  0  0  0  0  0  0  0
   -0.1498   -2.0997   -0.3506 C   0  0  0  0  0  0  0  0  0  0  0  0
    0.9657   -2.7090   -0.9225 C   0  0  0  0  0  0  0  0  0  0  0  0
    2.2337   -2.1356   -0.7760 C   0  0  0  0  0  0  0  0  0  0  0  0
    2.3929   -0.9537   -0.0481 C   0  0  0  0  0  0  0  0  0  0  0  0
    3.5702   -0.2965    0.1763 O   0  0  0  0  0  0  0  0  0  0  0  0
    4.7613   -0.8791   -0.3540 C   0  0  0  0  0  0  0  0  0  0  0  0
    5.9344   -0.0179   -0.0529 C   0  0  0  0  0  0  0  0  0  0  0  0
    6.2188    1.2766   -0.5681 C   0  0  0  0  0  0  0  0  0  0  0  0
    5.4108    2.0864   -1.5100 C   0  0  0  0  0  0  0  0  0  0  0  0
    7.3747    1.7519   -0.0907 N   0  0  0  0  0  0  0  0  0  0  0  0
    7.8589    0.7780    0.7599 O   0  0  0  0  0  0  0  0  0  0  0  0
    6.9976   -0.2726    0.7869 C   0  0  0  0  0  0  0  0  0  0  0  0
    7.3705   -1.3999    1.6614 C   0  0  0  0  0  0  0  0  0  0  0  0
    1.2744   -0.3452    0.5258 C   0  0  0  0  0  0  0  0  0  0  0  0
   -0.7502    3.7175    0.3635 H   0  0  0  0  0  0  0  0  0  0  0  0
    0.1686    3.4375   -1.1212 H   0  0  0  0  0  0  0  0  0  0  0  0
    0.6900    2.6966    0.4022 H   0  0  0  0  0  0  0  0  0  0  0  0
   -0.4712    1.0752   -1.1699 H   0  0  0  0  0  0  0  0  0  0  0  0
   -1.9183    2.0543   -1.0945 H   0  0  0  0  0  0  0  0  0  0  0  0
   -2.5240    2.7393    1.4069 H   0  0  0  0  0  0  0  0  0  0  0  0
   -2.5766    1.3171    2.4653 H   0  0  0  0  0  0  0  0  0  0  0  0
   -7.9738    0.4676   -1.6475 H   0  0  0  0  0  0  0  0  0  0  0  0
   -8.7021   -1.8827   -1.3181 H   0  0  0  0  0  0  0  0  0  0  0  0
   -5.3413   -2.5691    1.2886 H   0  0  0  0  0  0  0  0  0  0  0  0
   -3.6827   -0.7126    1.5062 H   0  0  0  0  0  0  0  0  0  0  0  0
   -1.1326   -2.5526   -0.4554 H   0  0  0  0  0  0  0  0  0  0  0  0
    0.8501   -3.6360   -1.4800 H   0  0  0  0  0  0  0  0  0  0  0  0
    3.0735   -2.6457   -1.2373 H   0  0  0  0  0  0  0  0  0  0  0  0
    4.9105   -1.8738    0.0840 H   0  0  0  0  0  0  0  0  0  0  0  0
    4.6768   -0.9793   -1.4435 H   0  0  0  0  0  0  0  0  0  0  0  0
    5.9382    2.9955   -1.8164 H   0  0  0  0  0  0  0  0  0  0  0  0
    4.4667    2.3838   -1.0424 H   0  0  0  0  0  0  0  0  0  0  0  0
    5.1823    1.5100   -2.4124 H   0  0  0  0  0  0  0  0  0  0  0  0
    8.1935   -1.1312    2.3307 H   0  0  0  0  0  0  0  0  0  0  0  0
    7.6855   -2.2588    1.0609 H   0  0  0  0  0  0  0  0  0  0  0  0
    6.5203   -1.7047    2.2792 H   0  0  0  0  0  0  0  0  0  0  0  0
    1.3993    0.5580    1.1173 H   0  0  0  0  0  0  0  0  0  0  0  0
  1  2  1  0
  2  3  1  0
  3  4  1  0
  4  5  1  0
  5  6  2  0
  6  7  1  0
  7  8  2  0
  7  9  1  0
  9 10  2  0
 10 11  1  0
 11 12  2  0
 12 13  1  0
 12 14  1  0
 14 15  2  0
 15 16  1  0
  3 17  1  0
 17 18  2  0
 17 19  1  0
 19 20  2  0
 20 21  1  0
 21 22  2  0
 22 23  1  0
 23 24  1  0
 24 25  1  0
 25 26  1  0
 26 27  1  0
 27 28  1  0
 27 29  2  0
 29 30  1  0
 30 31  1  0
 31 32  1  0
 23 33  2  0
 16  5  1  0
 33 19  1  0
 15  9  1  0
 31 26  2  0
  1 34  1  0
  1 35  1  0
  1 36  1  0
  2 37  1  0
  2 38  1  0
  4 39  1  0
  4 40  1  0
 10 41  1  0
 11 42  1  0
 14 43  1  0
 16 44  1  0
 20 45  1  0
 21 46  1  0
 22 47  1  0
 25 48  1  0
 25 49  1  0
 28 50  1  0
 28 51  1  0
 28 52  1  0
 32 53  1  0
 32 54  1  0
 32 55  1  0
 33 56  1  0
M  END
$$$$
