
     RDKit          3D

 57 60  0  0  0  0  0  0  0  0999 V2000
   -7.5322   -0.8363   -1.2392 C   0  0  0  0  0  0  0  0  0  0  0  0
   -6.1375   -0.3363   -0.9988 C   0  0  0  0  0  0  0  0  0  0  0  0
   -5.1276   -1.2358   -0.6327 C   0  0  0  0  0  0  0  0  0  0  0  0
   -3.8243   -0.7841   -0.4149 C   0  0  0  0  0  0  0  0  0  0  0  0
   -3.5183    0.5751   -0.5633 C   0  0  0  0  0  0  0  0  0  0  0  0
   -2.1841    1.0246   -0.3455 N   0  0  0  0  0  0  0  0  0  0  0  0
   -1.7938    2.0945    0.4588 C   0  0  0  0  0  0  0  0  0  0  0  0
   -2.7139    2.9713    1.2374 C   0  0  0  0  0  0  0  0  0  0  0  0
   -0.4117    2.1246    0.4797 C   0  0  0  0  0  0  0  0  0  0  0  0
    0.0676    1.0361   -0.2886 C   0  0  0  0  0  0  0  0  0  0  0  0
    1.4513    0.6332   -0.4418 C   0  0  0  0  0  0  0  0  0  0  0  0
    2.0709    1.4912   -1.1311 O   0  0  0  0  0  1  0  0  0  0  0  0
    1.8979   -0.5182    0.1419 C   0  0  0  0  0  0  0  0  0  0  0  0
    3.3743   -0.9831    0.0191 C   0  0  0  0  0  0  0  0  0  0  0  0
    3.8143   -2.5787    0.3770 S   0  0  0  0  0  0  0  0  0  0  0  0
    4.2354    0.0420   -0.3744 N   0  0  0  0  0  0  0  0  0  0  0  0
    5.6360    0.2045   -0.4314 C   0  0  0  0  0  0  0  0  0  0  0  0
    6.5861   -0.6961    0.0534 C   0  0  0  0  0  0  0  0  0  0  0  0
    7.9545   -0.4104   -0.0357 C   0  0  0  0  0  0  0  0  0  0  0  0
    8.3785    0.7907   -0.5951 C   0  0  0  0  0  0  0  0  0  0  0  0
    9.6925    1.0461   -0.6574 F   0  0  0  0  0  0  0  0  0  0  0  0
    7.4497    1.7074   -1.0696 C   0  0  0  0  0  0  0  0  0  0  0  0
    7.9683    3.2143   -1.7351 Cl  0  0  0  0  0  0  0  0  0  0  0  0
    6.0856    1.4139   -0.9908 C   0  0  0  0  0  0  0  0  0  0  0  0
    0.9547   -1.2521    1.0727 N   0  0  0  0  0  4  0  0  0  0  0  0
    0.4521   -2.4575    0.7330 C   0  0  0  0  0  0  0  0  0  0  0  0
   -0.4061   -3.1331    1.5969 C   0  0  0  0  0  0  0  0  0  0  0  0
   -0.7369   -2.5555    2.8182 C   0  0  0  0  0  0  0  0  0  0  0  0
   -0.2177   -1.3085    3.1472 C   0  0  0  0  0  0  0  0  0  0  0  0
    0.6312   -0.6705    2.2518 C   0  0  0  0  0  0  0  0  0  0  0  0
   -1.0356    0.4176   -0.8585 C   0  0  0  0  0  0  0  0  0  0  0  0
   -1.0700   -0.6169   -1.9365 C   0  0  0  0  0  0  0  0  0  0  0  0
   -4.5195    1.4751   -0.9368 C   0  0  0  0  0  0  0  0  0  0  0  0
   -5.8238    1.0199   -1.1510 C   0  0  0  0  0  0  0  0  0  0  0  0
   -7.5410   -1.5314   -2.0858 H   0  0  0  0  0  0  0  0  0  0  0  0
   -8.2200   -0.0158   -1.4698 H   0  0  0  0  0  0  0  0  0  0  0  0
   -7.9101   -1.3475   -0.3468 H   0  0  0  0  0  0  0  0  0  0  0  0
   -5.3549   -2.2944   -0.5140 H   0  0  0  0  0  0  0  0  0  0  0  0
   -3.0695   -1.4965   -0.0989 H   0  0  0  0  0  0  0  0  0  0  0  0
   -2.1556    3.7877    1.7077 H   0  0  0  0  0  0  0  0  0  0  0  0
   -3.1974    2.4033    2.0338 H   0  0  0  0  0  0  0  0  0  0  0  0
   -3.4713    3.4435    0.6168 H   0  0  0  0  0  0  0  0  0  0  0  0
    0.2007    2.8400    1.0180 H   0  0  0  0  0  0  0  0  0  0  0  0
    3.7057    0.8663   -0.7231 H   0  0  0  0  0  0  0  0  0  0  0  0
    6.3156   -1.6305    0.5325 H   0  0  0  0  0  0  0  0  0  0  0  0
    8.6902   -1.1145    0.3417 H   0  0  0  0  0  0  0  0  0  0  0  0
    5.3674    2.1415   -1.3693 H   0  0  0  0  0  0  0  0  0  0  0  0
    0.7259   -2.8571   -0.2405 H   0  0  0  0  0  0  0  0  0  0  0  0
   -0.8165   -4.0982    1.3105 H   0  0  0  0  0  0  0  0  0  0  0  0
   -1.4009   -3.0678    3.5152 H   0  0  0  0  0  0  0  0  0  0  0  0
   -0.4693   -0.8350    4.0948 H   0  0  0  0  0  0  0  0  0  0  0  0
    1.0632    0.3039    2.4582 H   0  0  0  0  0  0  0  0  0  0  0  0
   -1.8628   -0.4061   -2.6628 H   0  0  0  0  0  0  0  0  0  0  0  0
   -1.2372   -1.6142   -1.5175 H   0  0  0  0  0  0  0  0  0  0  0  0
   -0.1270   -0.6413   -2.4924 H   0  0  0  0  0  0  0  0  0  0  0  0
   -4.2949    2.5225   -1.1236 H   0  0  0  0  0  0  0  0  0  0  0  0
   -6.5884    1.7327   -1.4539 H   0  0  0  0  0  0  0  0  0  0  0  0
  1  2  1  0
  2  3  2  0
  3  4  1  0
  4  5  2  0
  5  6  1  0
  6  7  1  0
  7  8  1  0
  7  9  2  0
  9 10  1  0
 10 11  1  0
 11 12  1  0
 11 13  2  3
 13 14  1  0
 14 15  2  0
 14 16  1  0
 16 17  1  0
 17 18  2  0
 18 19  1  0
 19 20  2  0
 20 21  1  0
 20 22  1  0
 22 23  1  0
 22 24  2  0
 13 25  1  0
 25 26  2  0
 26 27  1  0
 27 28  2  0
 28 29  1  0
 29 30  2  0
 10 31  2  0
 31 32  1  0
  5 33  1  0
 33 34  2  0
 34  2  1  0
 31  6  1  0
 24 17  1  0
 30 25  1  0
  1 35  1  0
  1 36  1  0
  1 37  1  0
  3 38  1  0
  4 39  1  0
  8 40  1  0
  8 41  1  0
  8 42  1  0
  9 43  1  0
 16 44  1  0
 18 45  1  0
 19 46  1  0
 24 47  1  0
 26 48  1  0
 27 49  1  0
 28 50  1  0
 29 51  1  0
 30 52  1  0
 32 53  1  0
 32 54  1  0
 32 55  1  0
 33 56  1  0
 34 57  1  0
M  CHG  2  12  -1  25   1
M  END
$$$$
