
     RDKit          3D

 58 61  0  0  0  0  0  0  0  0999 V2000
    2.3595    2.0952   -2.4337 O   0  0  0  0  0  0  0  0  0  0  0  0
    2.4374    2.5227   -1.2834 C   0  0  0  0  0  0  0  0  0  0  0  0
    3.7325    2.6167   -0.5028 C   0  0  0  0  0  0  0  0  0  0  0  0
    4.6834    1.4466   -0.7691 C   0  0  0  0  0  0  0  0  0  0  0  0
    4.4037    0.2053    0.1051 C   0  0  0  0  0  0  0  0  0  0  0  0
    5.5055   -0.8460   -0.0835 C   0  0  0  0  0  0  0  0  0  0  0  0
    5.3526   -2.0190    0.8891 C   0  0  0  0  0  0  0  0  0  0  0  0
    3.9091   -2.2694    1.3254 C   0  0  0  0  0  0  0  0  0  0  0  0
    2.9207   -1.8973    0.2310 C   0  0  0  0  0  0  0  0  0  0  0  0
    3.0212   -0.4201   -0.1620 C   0  0  0  0  0  0  0  0  0  0  0  0
    1.3369    3.0070   -0.5973 N   0  0  0  0  0  0  0  0  0  0  0  0
    0.0740    2.6263   -1.1309 N   0  0  0  0  0  0  0  0  0  0  0  0
   -0.6958    1.8347   -0.2950 C   0  0  0  0  0  0  0  0  0  0  0  0
   -0.4147    1.6543    0.8844 O   0  0  0  0  0  0  0  0  0  0  0  0
   -1.7744    1.3053   -0.9570 N   0  0  0  0  0  0  0  0  0  0  0  0
   -2.7962    0.4650   -0.3238 C   0  0  0  0  0  0  0  0  0  0  0  0
   -3.5744    1.2375    0.7692 C   0  0  0  0  0  0  0  0  0  0  0  0
   -4.6772    0.3514    1.3756 C   0  0  0  0  0  0  0  0  0  0  0  0
   -4.0377   -0.9061    1.9884 C   0  0  0  0  0  0  0  0  0  0  0  0
   -3.2915   -1.7028    0.9046 C   0  0  0  0  0  0  0  0  0  0  0  0
   -4.2811   -2.1100   -0.1978 C   0  0  0  0  0  0  0  0  0  0  0  0
   -4.9159   -0.8571   -0.8203 C   0  0  0  0  0  0  0  0  0  0  0  0
   -5.6583   -0.0674    0.2691 C   0  0  0  0  0  0  0  0  0  0  0  0
   -3.8081    0.0258   -1.4166 C   0  0  0  0  0  0  0  0  0  0  0  0
   -2.1877   -0.8190    0.2971 C   0  0  0  0  0  0  0  0  0  0  0  0
    4.2129    3.5480   -0.8272 H   0  0  0  0  0  0  0  0  0  0  0  0
    3.5358    2.7127    0.5705 H   0  0  0  0  0  0  0  0  0  0  0  0
    4.6762    1.1673   -1.8296 H   0  0  0  0  0  0  0  0  0  0  0  0
    5.7011    1.7937   -0.5472 H   0  0  0  0  0  0  0  0  0  0  0  0
    4.4339    0.5280    1.1555 H   0  0  0  0  0  0  0  0  0  0  0  0
    6.4984   -0.4002    0.0497 H   0  0  0  0  0  0  0  0  0  0  0  0
    5.4728   -1.2251   -1.1134 H   0  0  0  0  0  0  0  0  0  0  0  0
    5.9626   -1.8413    1.7831 H   0  0  0  0  0  0  0  0  0  0  0  0
    5.7601   -2.9211    0.4167 H   0  0  0  0  0  0  0  0  0  0  0  0
    3.6913   -1.6787    2.2242 H   0  0  0  0  0  0  0  0  0  0  0  0
    3.7872   -3.3214    1.6071 H   0  0  0  0  0  0  0  0  0  0  0  0
    1.8967   -2.1235    0.5497 H   0  0  0  0  0  0  0  0  0  0  0  0
    3.1150   -2.5191   -0.6523 H   0  0  0  0  0  0  0  0  0  0  0  0
    2.7537   -0.3365   -1.2218 H   0  0  0  0  0  0  0  0  0  0  0  0
    2.2660    0.1471    0.3958 H   0  0  0  0  0  0  0  0  0  0  0  0
    1.3589    2.9897    0.4240 H   0  0  0  0  0  0  0  0  0  0  0  0
    0.1471    2.2880   -2.0909 H   0  0  0  0  0  0  0  0  0  0  0  0
   -2.0817    1.8695   -1.7374 H   0  0  0  0  0  0  0  0  0  0  0  0
   -4.0183    2.1475    0.3446 H   0  0  0  0  0  0  0  0  0  0  0  0
   -2.9002    1.5691    1.5678 H   0  0  0  0  0  0  0  0  0  0  0  0
   -5.2128    0.9093    2.1518 H   0  0  0  0  0  0  0  0  0  0  0  0
   -4.8120   -1.5336    2.4466 H   0  0  0  0  0  0  0  0  0  0  0  0
   -3.3439   -0.6214    2.7890 H   0  0  0  0  0  0  0  0  0  0  0  0
   -2.8436   -2.5993    1.3477 H   0  0  0  0  0  0  0  0  0  0  0  0
   -5.0615   -2.7581    0.2194 H   0  0  0  0  0  0  0  0  0  0  0  0
   -3.7635   -2.6918   -0.9703 H   0  0  0  0  0  0  0  0  0  0  0  0
   -5.6189   -1.1513   -1.6076 H   0  0  0  0  0  0  0  0  0  0  0  0
   -6.4626   -0.6805    0.6939 H   0  0  0  0  0  0  0  0  0  0  0  0
   -6.1319    0.8203   -0.1677 H   0  0  0  0  0  0  0  0  0  0  0  0
   -3.2876   -0.5195   -2.2154 H   0  0  0  0  0  0  0  0  0  0  0  0
   -4.2576    0.9081   -1.8918 H   0  0  0  0  0  0  0  0  0  0  0  0
   -1.6353   -1.3820   -0.4666 H   0  0  0  0  0  0  0  0  0  0  0  0
   -1.4621   -0.5736    1.0807 H   0  0  0  0  0  0  0  0  0  0  0  0
  1  2  2  0
  2  3  1  0
  3  4  1  0
  4  5  1  0
  5  6  1  0
  6  7  1  0
  7  8  1  0
  8  9  1  0
  9 10  1  0
  2 11  1  0
 11 12  1  0
 12 13  1  0
 13 14  2  0
 13 15  1  0
 15 16  1  0
 16 17  1  0
 17 18  1  0
 18 19  1  0
 19 20  1  0
 20 21  1  0
 21 22  1  0
 22 23  1  0
 22 24  1  0
 20 25  1  0
 10  5  1  0
 24 16  1  0
 25 16  1  0
 23 18  1  0
  3 26  1  0
  3 27  1  0
  4 28  1  0
  4 29  1  0
  5 30  1  0
  6 31  1  0
  6 32  1  0
  7 33  1  0
  7 34  1  0
  8 35  1  0
  8 36  1  0
  9 37  1  0
  9 38  1  0
 10 39  1  0
 10 40  1  0
 11 41  1  0
 12 42  1  0
 15 43  1  0
 17 44  1  0
 17 45  1  0
 18 46  1  0
 19 47  1  0
 19 48  1  0
 20 49  1  0
 21 50  1  0
 21 51  1  0
 22 52  1  0
 23 53  1  0
 23 54  1  0
 24 55  1  0
 24 56  1  0
 25 57  1  0
 25 58  1  0
M  END
$$$$
