
     RDKit          3D

 48 50  0  0  0  0  0  0  0  0999 V2000
    4.3495    2.6368    0.8757 C   0  0  0  0  0  0  0  0  0  0  0  0
    3.2733    1.6815    0.4836 C   0  0  0  0  0  0  0  0  0  0  0  0
    2.0155    1.5806    1.0427 C   0  0  0  0  0  0  0  0  0  0  0  0
    1.3464    0.4755    0.4626 C   0  0  0  0  0  0  0  0  0  0  0  0
    0.0063    0.0332    0.8217 C   0  0  0  0  0  0  0  0  0  0  0  0
   -0.4642   -1.0721    0.3398 N   0  0  0  0  0  0  0  0  0  0  0  0
   -1.7398   -1.4506    0.6796 N   0  0  0  0  0  0  0  0  0  0  0  0
   -2.8113   -0.5790    0.9005 C   0  0  0  0  0  0  0  0  0  0  0  0
   -2.7244    0.6416    0.9527 O   0  0  0  0  0  0  0  0  0  0  0  0
   -4.1002   -1.3522    1.0976 C   0  0  0  0  0  0  0  0  0  0  0  0
   -5.3608   -0.5097    1.2855 C   0  0  0  0  0  0  0  0  0  0  0  0
   -5.3161    0.4293    2.4888 C   0  0  0  0  0  0  0  0  0  0  0  0
   -6.4426   -1.4496    1.5154 O   0  0  0  0  0  0  0  0  0  0  0  0
   -7.5039   -0.9988    0.6739 C   0  0  0  0  0  0  0  0  0  0  0  0
   -6.7780   -0.4046   -0.4990 C   0  0  0  0  0  0  0  0  0  0  0  0
   -5.6557    0.2414    0.0973 O   0  0  0  0  0  0  0  0  0  0  0  0
    2.2042   -0.0458   -0.5018 C   0  0  0  0  0  0  0  0  0  0  0  0
    1.9151   -1.1139   -1.5100 C   0  0  0  0  0  0  0  0  0  0  0  0
    3.4087    0.6587   -0.4502 N   0  0  0  0  0  0  0  0  0  0  0  0
    4.5848    0.3640   -1.2016 C   0  0  0  0  0  0  0  0  0  0  0  0
    5.0302   -0.9595   -1.3088 C   0  0  0  0  0  0  0  0  0  0  0  0
    6.1884   -1.2507   -2.0342 C   0  0  0  0  0  0  0  0  0  0  0  0
    6.9058   -0.2257   -2.6571 C   0  0  0  0  0  0  0  0  0  0  0  0
    8.3285   -0.6599   -3.5356 Cl  0  0  0  0  0  0  0  0  0  0  0  0
    6.4606    1.0969   -2.5533 C   0  0  0  0  0  0  0  0  0  0  0  0
    7.2907    2.4134   -3.3055 Cl  0  0  0  0  0  0  0  0  0  0  0  0
    5.3020    1.3917   -1.8256 C   0  0  0  0  0  0  0  0  0  0  0  0
    4.4085    3.4676    0.1666 H   0  0  0  0  0  0  0  0  0  0  0  0
    4.1387    3.0649    1.8622 H   0  0  0  0  0  0  0  0  0  0  0  0
    5.3247    2.1454    0.9440 H   0  0  0  0  0  0  0  0  0  0  0  0
    1.6283    2.2265    1.8221 H   0  0  0  0  0  0  0  0  0  0  0  0
   -0.5259    0.6632    1.5531 H   0  0  0  0  0  0  0  0  0  0  0  0
   -1.9575   -2.4007    0.3925 H   0  0  0  0  0  0  0  0  0  0  0  0
   -3.9695   -2.0174    1.9611 H   0  0  0  0  0  0  0  0  0  0  0  0
   -4.2334   -1.9971    0.2184 H   0  0  0  0  0  0  0  0  0  0  0  0
   -4.6198    1.2597    2.3481 H   0  0  0  0  0  0  0  0  0  0  0  0
   -5.0532   -0.1129    3.4031 H   0  0  0  0  0  0  0  0  0  0  0  0
   -6.3012    0.8798    2.6587 H   0  0  0  0  0  0  0  0  0  0  0  0
   -8.1615   -1.8283    0.4029 H   0  0  0  0  0  0  0  0  0  0  0  0
   -8.0793   -0.2438    1.2203 H   0  0  0  0  0  0  0  0  0  0  0  0
   -6.4032   -1.1803   -1.1753 H   0  0  0  0  0  0  0  0  0  0  0  0
   -7.3799    0.3091   -1.0667 H   0  0  0  0  0  0  0  0  0  0  0  0
    2.0784   -2.1046   -1.0750 H   0  0  0  0  0  0  0  0  0  0  0  0
    0.8774   -1.0547   -1.8536 H   0  0  0  0  0  0  0  0  0  0  0  0
    2.5276   -1.0152   -2.4107 H   0  0  0  0  0  0  0  0  0  0  0  0
    4.5103   -1.7710   -0.8038 H   0  0  0  0  0  0  0  0  0  0  0  0
    6.5305   -2.2810   -2.1029 H   0  0  0  0  0  0  0  0  0  0  0  0
    4.9470    2.4182   -1.7908 H   0  0  0  0  0  0  0  0  0  0  0  0
  1  2  1  0
  2  3  2  0
  3  4  1  0
  4  5  1  0
  5  6  2  3
  6  7  1  0
  7  8  1  0
  8  9  2  0
  8 10  1  0
 10 11  1  0
 11 12  1  0
 11 13  1  0
 13 14  1  0
 14 15  1  0
 15 16  1  0
  4 17  2  0
 17 18  1  0
 17 19  1  0
 19 20  1  0
 20 21  2  0
 21 22  1  0
 22 23  2  0
 23 24  1  0
 23 25  1  0
 25 26  1  0
 25 27  2  0
 19  2  1  0
 27 20  1  0
 16 11  1  0
  1 28  1  0
  1 29  1  0
  1 30  1  0
  3 31  1  0
  5 32  1  0
  7 33  1  0
 10 34  1  0
 10 35  1  0
 12 36  1  0
 12 37  1  0
 12 38  1  0
 14 39  1  0
 14 40  1  0
 15 41  1  0
 15 42  1  0
 18 43  1  0
 18 44  1  0
 18 45  1  0
 21 46  1  0
 22 47  1  0
 27 48  1  0
M  END
$$$$
