
     RDKit          3D

 33 35  0  0  0  0  0  0  0  0999 V2000
    4.2968    0.2912    2.2917 C   0  0  0  0  0  0  0  0  0  0  0  0
    4.6258    0.2347    0.8348 C   0  0  0  0  0  0  0  0  0  0  0  0
    5.9381    0.4942    0.3125 C   0  0  0  0  0  0  0  0  0  0  0  0
    5.9981    0.3886   -1.0574 C   0  0  0  0  0  0  0  0  0  0  0  0
    4.4866   -0.0216   -1.7287 S   0  0  0  0  0  0  0  0  0  0  0  0
    3.7341   -0.0641   -0.1879 C   0  0  0  0  0  0  0  0  0  0  0  0
    2.3233   -0.3914   -0.1424 C   0  0  0  0  0  0  0  0  0  0  0  0
    1.6950   -0.5029    0.9892 N   0  0  0  0  0  0  0  0  0  0  0  0
    0.3467   -0.7813    0.9599 N   0  0  0  0  0  0  0  0  0  0  0  0
   -0.5559   -0.2335    0.0467 C   0  0  0  0  0  0  0  0  0  0  0  0
   -0.2313    0.5081   -0.8763 O   0  0  0  0  0  0  0  0  0  0  0  0
   -1.9309   -0.5925    0.2966 C   0  0  0  0  0  0  0  0  0  0  0  0
   -2.3826   -1.7068    0.9811 N   0  0  0  0  0  0  0  0  0  0  0  0
   -3.7327   -1.7984    1.0837 N   0  0  0  0  0  0  0  0  0  0  0  0
   -4.1329   -0.7413    0.3948 C   0  0  0  0  0  0  0  0  0  0  0  0
   -3.0869    0.0207   -0.1144 C   0  0  0  0  0  0  0  0  0  0  0  0
   -3.5670    1.1856   -0.8771 C   0  0  0  0  0  0  0  0  0  0  0  0
   -5.0917    0.8553   -1.0409 C   0  0  0  0  0  0  0  0  0  0  0  0
   -5.4617   -0.2041    0.0536 C   0  0  0  0  0  0  0  0  0  0  0  0
    3.9559   -0.6862    2.6477 H   0  0  0  0  0  0  0  0  0  0  0  0
    3.5155    1.0337    2.4825 H   0  0  0  0  0  0  0  0  0  0  0  0
    5.1739    0.5731    2.8838 H   0  0  0  0  0  0  0  0  0  0  0  0
    6.7986    0.7497    0.9199 H   0  0  0  0  0  0  0  0  0  0  0  0
    6.8587    0.5348   -1.6956 H   0  0  0  0  0  0  0  0  0  0  0  0
    1.8225   -0.5783   -1.1088 H   0  0  0  0  0  0  0  0  0  0  0  0
   -0.0173   -0.9994    1.8814 H   0  0  0  0  0  0  0  0  0  0  0  0
   -1.8290   -2.4532    1.3869 H   0  0  0  0  0  0  0  0  0  0  0  0
   -3.4370    2.1074   -0.3010 H   0  0  0  0  0  0  0  0  0  0  0  0
   -3.0805    1.2916   -1.8503 H   0  0  0  0  0  0  0  0  0  0  0  0
   -5.7176    1.7510   -0.9777 H   0  0  0  0  0  0  0  0  0  0  0  0
   -5.2528    0.4112   -2.0323 H   0  0  0  0  0  0  0  0  0  0  0  0
   -6.1435   -0.9609   -0.3430 H   0  0  0  0  0  0  0  0  0  0  0  0
   -5.9181    0.2852    0.9199 H   0  0  0  0  0  0  0  0  0  0  0  0
  1  2  1  0
  2  3  1  0
  3  4  2  0
  4  5  1  0
  5  6  1  0
  6  7  1  0
  7  8  2  3
  8  9  1  0
  9 10  1  0
 10 11  2  0
 10 12  1  0
 12 13  1  0
 13 14  1  0
 14 15  2  0
 15 16  1  0
 16 17  1  0
 17 18  1  0
 18 19  1  0
  6  2  2  0
 16 12  2  0
 19 15  1  0
  1 20  1  0
  1 21  1  0
  1 22  1  0
  3 23  1  0
  4 24  1  0
  7 25  1  0
  9 26  1  0
 13 27  1  0
 17 28  1  0
 17 29  1  0
 18 30  1  0
 18 31  1  0
 19 32  1  0
 19 33  1  0
M  END
$$$$
