
     RDKit          3D

 32 33  0  0  0  0  0  0  0  0999 V2000
    0.2292   -1.0411   -3.2475 C   0  0  0  0  0  0  0  0  0  0  0  0
   -0.4659   -0.4052   -2.0432 C   0  0  0  0  0  0  0  0  0  0  0  0
   -0.8762   -1.4778   -1.0163 C   0  0  0  0  0  0  0  0  0  0  0  0
   -1.6915   -0.9018    0.1146 C   0  0  0  0  0  0  0  0  0  0  0  0
   -1.0835   -0.5800    1.3364 C   0  0  0  0  0  0  0  0  0  0  0  0
   -1.8292   -0.0018    2.3638 C   0  0  0  0  0  0  0  0  0  0  0  0
   -3.1868    0.2528    2.1856 C   0  0  0  0  0  0  0  0  0  0  0  0
   -3.8029   -0.0727    0.9792 C   0  0  0  0  0  0  0  0  0  0  0  0
   -3.0601   -0.6469   -0.0536 C   0  0  0  0  0  0  0  0  0  0  0  0
    0.3691    0.6375   -1.4521 N   0  0  0  0  0  4  0  0  0  0  0  0
    1.5798    0.4101   -0.8591 C   0  0  0  0  0  0  0  0  0  0  0  0
    1.9562    1.6188   -0.3054 C   0  0  0  0  0  0  0  0  0  0  0  0
    3.0027    1.9746    0.4773 N   0  0  0  0  0  0  0  0  0  0  0  0
    3.4319    1.0667    1.3007 C   0  0  0  0  0  0  0  0  0  0  0  0
    4.4566    1.3185    2.1339 N   0  0  0  0  0  0  0  0  0  0  0  0
    3.1350   -0.1108    1.5333 O   0  0  0  0  0  1  0  0  0  0  0  0
    0.9881    2.5408   -0.6875 O   0  0  0  0  0  0  0  0  0  0  0  0
   -0.0250    1.8908   -1.4109 N   0  0  0  0  0  0  0  0  0  0  0  0
    0.5257   -0.2730   -3.9697 H   0  0  0  0  0  0  0  0  0  0  0  0
    1.1327   -1.5835   -2.9501 H   0  0  0  0  0  0  0  0  0  0  0  0
   -0.4378   -1.7461   -3.7543 H   0  0  0  0  0  0  0  0  0  0  0  0
   -1.3754    0.0849   -2.4190 H   0  0  0  0  0  0  0  0  0  0  0  0
   -1.4680   -2.2598   -1.5098 H   0  0  0  0  0  0  0  0  0  0  0  0
    0.0076   -1.9866   -0.6113 H   0  0  0  0  0  0  0  0  0  0  0  0
   -0.0238   -0.7691    1.5152 H   0  0  0  0  0  0  0  0  0  0  0  0
   -1.3441    0.2493    3.3053 H   0  0  0  0  0  0  0  0  0  0  0  0
   -3.7634    0.7012    2.9909 H   0  0  0  0  0  0  0  0  0  0  0  0
   -4.8647    0.1204    0.8470 H   0  0  0  0  0  0  0  0  0  0  0  0
   -3.5664   -0.8968   -0.9832 H   0  0  0  0  0  0  0  0  0  0  0  0
    2.0802   -0.5428   -0.7908 H   0  0  0  0  0  0  0  0  0  0  0  0
    5.1177    1.9855    1.7698 H   0  0  0  0  0  0  0  0  0  0  0  0
    4.8523    0.4440    2.4522 H   0  0  0  0  0  0  0  0  0  0  0  0
  1  2  1  0
  2  3  1  0
  3  4  1  0
  4  5  2  0
  5  6  1  0
  6  7  2  0
  7  8  1  0
  8  9  2  0
  2 10  1  0
 10 11  1  0
 11 12  2  0
 12 13  1  0
 13 14  2  3
 14 15  1  0
 14 16  1  0
 12 17  1  0
 17 18  1  0
  9  4  1  0
 18 10  2  0
  1 19  1  0
  1 20  1  0
  1 21  1  0
  2 22  1  0
  3 23  1  0
  3 24  1  0
  5 25  1  0
  6 26  1  0
  7 27  1  0
  8 28  1  0
  9 29  1  0
 11 30  1  0
 15 31  1  0
 15 32  1  0
M  CHG  2  10   1  16  -1
M  END
$$$$
