
     RDKit          3D

 47 49  0  0  0  0  0  0  0  0999 V2000
   -1.3204    3.1717    0.9551 C   0  0  0  0  0  0  0  0  0  0  0  0
   -0.9908    2.0586    1.8496 N   0  0  0  0  0  0  0  0  0  0  0  0
   -1.6906    2.0953    3.1325 C   0  0  0  0  0  0  0  0  0  0  0  0
   -0.2439    0.9412    1.4187 C   0  0  0  0  0  0  0  0  0  0  0  0
   -0.8455   -0.4543    1.7010 C   0  0  0  0  0  0  0  0  0  0  0  0
   -1.8516   -0.9838    0.7624 N   0  0  0  0  0  0  0  0  0  0  0  0
   -1.3115   -1.1796   -0.5945 C   0  0  0  0  0  0  0  0  0  0  0  0
   -2.3336   -1.8604   -1.5237 C   0  0  0  0  0  0  0  0  0  0  0  0
   -3.6287   -1.1892   -1.5105 N   0  0  0  0  0  0  0  0  0  0  0  0
   -4.5111   -1.3711   -2.5547 C   0  0  0  0  0  0  0  0  0  0  0  0
   -5.7111   -1.1312   -2.5296 O   0  0  0  0  0  0  0  0  0  0  0  0
   -4.1542   -0.8524   -0.1905 C   0  0  0  0  0  0  0  0  0  0  0  0
   -3.0915   -0.1933    0.7090 C   0  0  0  0  0  0  0  0  0  0  0  0
    0.9832    0.9944    0.8447 C   0  0  0  0  0  0  0  0  0  0  0  0
    1.7014   -0.1081    0.4323 N   0  0  0  0  0  0  0  0  0  0  0  0
    2.7993    0.3999   -0.0221 C   0  0  0  0  0  0  0  0  0  0  0  0
    3.9373   -0.3344   -0.5965 C   0  0  0  0  0  0  0  0  0  0  0  0
    3.8772   -1.7324   -0.6578 C   0  0  0  0  0  0  0  0  0  0  0  0
    4.9414   -2.4559   -1.1990 C   0  0  0  0  0  0  0  0  0  0  0  0
    6.0664   -1.7869   -1.6799 C   0  0  0  0  0  0  0  0  0  0  0  0
    6.1310   -0.3949   -1.6208 C   0  0  0  0  0  0  0  0  0  0  0  0
    5.0691    0.3335   -1.0800 C   0  0  0  0  0  0  0  0  0  0  0  0
    2.9353    1.7400    0.0249 O   0  0  0  0  0  0  0  0  0  0  0  0
    1.7928    2.2297    0.5876 C   0  0  0  0  0  0  0  0  0  0  0  0
    1.5665    3.4042    0.7959 O   0  0  0  0  0  0  0  0  0  0  0  0
   -0.8986    4.1061    1.3383 H   0  0  0  0  0  0  0  0  0  0  0  0
   -2.4076    3.2911    0.8879 H   0  0  0  0  0  0  0  0  0  0  0  0
   -0.9524    3.0062   -0.0629 H   0  0  0  0  0  0  0  0  0  0  0  0
   -1.7852    3.1261    3.4918 H   0  0  0  0  0  0  0  0  0  0  0  0
   -2.6954    1.6740    3.0403 H   0  0  0  0  0  0  0  0  0  0  0  0
   -1.1389    1.5395    3.8982 H   0  0  0  0  0  0  0  0  0  0  0  0
   -0.0462   -1.2025    1.7877 H   0  0  0  0  0  0  0  0  0  0  0  0
   -1.2850   -0.4613    2.7063 H   0  0  0  0  0  0  0  0  0  0  0  0
   -1.0268   -0.2176   -1.0391 H   0  0  0  0  0  0  0  0  0  0  0  0
   -0.4159   -1.8104   -0.5578 H   0  0  0  0  0  0  0  0  0  0  0  0
   -2.5025   -2.8973   -1.2071 H   0  0  0  0  0  0  0  0  0  0  0  0
   -1.9498   -1.8911   -2.5496 H   0  0  0  0  0  0  0  0  0  0  0  0
   -4.0166   -1.7360   -3.4705 H   0  0  0  0  0  0  0  0  0  0  0  0
   -5.0178   -0.1863   -0.2965 H   0  0  0  0  0  0  0  0  0  0  0  0
   -4.5120   -1.7844    0.2648 H   0  0  0  0  0  0  0  0  0  0  0  0
   -2.8949    0.8113    0.3190 H   0  0  0  0  0  0  0  0  0  0  0  0
   -3.5164   -0.0911    1.7135 H   0  0  0  0  0  0  0  0  0  0  0  0
    3.0055   -2.2656   -0.2838 H   0  0  0  0  0  0  0  0  0  0  0  0
    4.8934   -3.5413   -1.2442 H   0  0  0  0  0  0  0  0  0  0  0  0
    6.8953   -2.3516   -2.1006 H   0  0  0  0  0  0  0  0  0  0  0  0
    7.0103    0.1237   -1.9959 H   0  0  0  0  0  0  0  0  0  0  0  0
    5.1410    1.4179   -1.0435 H   0  0  0  0  0  0  0  0  0  0  0  0
  1  2  1  0
  2  3  1  0
  2  4  1  0
  4  5  1  0
  5  6  1  0
  6  7  1  0
  7  8  1  0
  8  9  1  0
  9 10  1  0
 10 11  2  0
  9 12  1  0
 12 13  1  0
  4 14  2  3
 14 15  1  0
 15 16  2  0
 16 17  1  0
 17 18  2  0
 18 19  1  0
 19 20  2  0
 20 21  1  0
 21 22  2  0
 16 23  1  0
 23 24  1  0
 24 25  2  0
 13  6  1  0
 24 14  1  0
 22 17  1  0
  1 26  1  0
  1 27  1  0
  1 28  1  0
  3 29  1  0
  3 30  1  0
  3 31  1  0
  5 32  1  0
  5 33  1  0
  7 34  1  0
  7 35  1  0
  8 36  1  0
  8 37  1  0
 10 38  1  0
 12 39  1  0
 12 40  1  0
 13 41  1  0
 13 42  1  0
 18 43  1  0
 19 44  1  0
 20 45  1  0
 21 46  1  0
 22 47  1  0
M  END
$$$$
