
     RDKit          3D

 58 61  0  0  0  0  0  0  0  0999 V2000
    1.8227    1.9930   -1.0051 O   0  0  0  0  0  0  0  0  0  0  0  0
    1.8850    1.4031    0.0709 C   0  0  0  0  0  0  0  0  0  0  0  0
    3.0873    0.6159    0.5539 C   0  0  0  0  0  0  0  0  0  0  0  0
    4.2498    0.6742   -0.4377 C   0  0  0  0  0  0  0  0  0  0  0  0
    5.5379    0.0104    0.0846 C   0  0  0  0  0  0  0  0  0  0  0  0
    5.3926   -1.5010    0.2993 C   0  0  0  0  0  0  0  0  0  0  0  0
    6.6558   -2.1196    0.9077 C   0  0  0  0  0  0  0  0  0  0  0  0
    7.9384   -1.3613    0.5674 C   0  0  0  0  0  0  0  0  0  0  0  0
    7.8521   -0.7035   -0.8007 C   0  0  0  0  0  0  0  0  0  0  0  0
    6.7047    0.3062   -0.8817 C   0  0  0  0  0  0  0  0  0  0  0  0
    0.8386    1.3962    0.9783 N   0  0  0  0  0  0  0  0  0  0  0  0
   -0.4130    1.8501    0.4875 N   0  0  0  0  0  0  0  0  0  0  0  0
   -1.4597    0.9538    0.6169 C   0  0  0  0  0  0  0  0  0  0  0  0
   -1.3651   -0.0818    1.2656 O   0  0  0  0  0  0  0  0  0  0  0  0
   -2.5763    1.3863   -0.0537 N   0  0  0  0  0  0  0  0  0  0  0  0
   -3.8647    0.6852   -0.0431 C   0  0  0  0  0  0  0  0  0  0  0  0
   -4.8512    1.4694   -0.9505 C   0  0  0  0  0  0  0  0  0  0  0  0
   -6.2303    0.7917   -0.9820 C   0  0  0  0  0  0  0  0  0  0  0  0
   -6.7953    0.7316    0.4461 C   0  0  0  0  0  0  0  0  0  0  0  0
   -5.8458   -0.0666    1.3537 C   0  0  0  0  0  0  0  0  0  0  0  0
   -5.6893   -1.4914    0.7953 C   0  0  0  0  0  0  0  0  0  0  0  0
   -5.1236   -1.4408   -0.6344 C   0  0  0  0  0  0  0  0  0  0  0  0
   -6.0779   -0.6356   -1.5297 C   0  0  0  0  0  0  0  0  0  0  0  0
   -3.7468   -0.7533   -0.6094 C   0  0  0  0  0  0  0  0  0  0  0  0
   -4.4695    0.6217    1.3810 C   0  0  0  0  0  0  0  0  0  0  0  0
    2.7647   -0.4196    0.7064 H   0  0  0  0  0  0  0  0  0  0  0  0
    3.3993    1.0286    1.5203 H   0  0  0  0  0  0  0  0  0  0  0  0
    4.4647    1.7259   -0.6690 H   0  0  0  0  0  0  0  0  0  0  0  0
    3.9461    0.2072   -1.3835 H   0  0  0  0  0  0  0  0  0  0  0  0
    5.7813    0.4675    1.0541 H   0  0  0  0  0  0  0  0  0  0  0  0
    4.5462   -1.7351    0.9530 H   0  0  0  0  0  0  0  0  0  0  0  0
    5.1826   -1.9846   -0.6637 H   0  0  0  0  0  0  0  0  0  0  0  0
    6.5566   -2.1662    1.9991 H   0  0  0  0  0  0  0  0  0  0  0  0
    6.7366   -3.1583    0.5649 H   0  0  0  0  0  0  0  0  0  0  0  0
    8.7925   -2.0468    0.6078 H   0  0  0  0  0  0  0  0  0  0  0  0
    8.1204   -0.5911    1.3276 H   0  0  0  0  0  0  0  0  0  0  0  0
    8.7976   -0.2062   -1.0449 H   0  0  0  0  0  0  0  0  0  0  0  0
    7.7039   -1.4798   -1.5622 H   0  0  0  0  0  0  0  0  0  0  0  0
    7.0895    1.3101   -0.6602 H   0  0  0  0  0  0  0  0  0  0  0  0
    6.3520    0.3413   -1.9202 H   0  0  0  0  0  0  0  0  0  0  0  0
    0.7621    0.6173    1.6347 H   0  0  0  0  0  0  0  0  0  0  0  0
   -0.3365    2.3038   -0.4233 H   0  0  0  0  0  0  0  0  0  0  0  0
   -2.6180    2.3915   -0.1503 H   0  0  0  0  0  0  0  0  0  0  0  0
   -4.9577    2.5013   -0.5887 H   0  0  0  0  0  0  0  0  0  0  0  0
   -4.4494    1.5431   -1.9702 H   0  0  0  0  0  0  0  0  0  0  0  0
   -6.9093    1.3638   -1.6242 H   0  0  0  0  0  0  0  0  0  0  0  0
   -7.7872    0.2633    0.4373 H   0  0  0  0  0  0  0  0  0  0  0  0
   -6.9260    1.7469    0.8408 H   0  0  0  0  0  0  0  0  0  0  0  0
   -6.2560   -0.1106    2.3689 H   0  0  0  0  0  0  0  0  0  0  0  0
   -6.6604   -2.0015    0.7949 H   0  0  0  0  0  0  0  0  0  0  0  0
   -5.0230   -2.0760    1.4416 H   0  0  0  0  0  0  0  0  0  0  0  0
   -5.0202   -2.4586   -1.0272 H   0  0  0  0  0  0  0  0  0  0  0  0
   -7.0574   -1.1279   -1.5718 H   0  0  0  0  0  0  0  0  0  0  0  0
   -5.6926   -0.6045   -2.5563 H   0  0  0  0  0  0  0  0  0  0  0  0
   -3.0609   -1.3598   -0.0071 H   0  0  0  0  0  0  0  0  0  0  0  0
   -3.3239   -0.7264   -1.6223 H   0  0  0  0  0  0  0  0  0  0  0  0
   -4.5666    1.6339    1.7952 H   0  0  0  0  0  0  0  0  0  0  0  0
   -3.8075    0.0738    2.0624 H   0  0  0  0  0  0  0  0  0  0  0  0
  1  2  2  0
  2  3  1  0
  3  4  1  0
  4  5  1  0
  5  6  1  0
  6  7  1  0
  7  8  1  0
  8  9  1  0
  9 10  1  0
  2 11  1  0
 11 12  1  0
 12 13  1  0
 13 14  2  0
 13 15  1  0
 15 16  1  0
 16 17  1  0
 17 18  1  0
 18 19  1  0
 19 20  1  0
 20 21  1  0
 21 22  1  0
 22 23  1  0
 22 24  1  0
 20 25  1  0
 10  5  1  0
 24 16  1  0
 25 16  1  0
 23 18  1  0
  3 26  1  0
  3 27  1  0
  4 28  1  0
  4 29  1  0
  5 30  1  0
  6 31  1  0
  6 32  1  0
  7 33  1  0
  7 34  1  0
  8 35  1  0
  8 36  1  0
  9 37  1  0
  9 38  1  0
 10 39  1  0
 10 40  1  0
 11 41  1  0
 12 42  1  0
 15 43  1  0
 17 44  1  0
 17 45  1  0
 18 46  1  0
 19 47  1  0
 19 48  1  0
 20 49  1  0
 21 50  1  0
 21 51  1  0
 22 52  1  0
 23 53  1  0
 23 54  1  0
 24 55  1  0
 24 56  1  0
 25 57  1  0
 25 58  1  0
M  END
$$$$
