
     RDKit          3D

 49 52  0  0  0  0  0  0  0  0999 V2000
   -3.7059    4.4404   -0.2298 C   0  0  0  0  0  0  0  0  0  0  0  0
   -3.0448    3.2221    0.3894 C   0  0  0  0  0  0  0  0  0  0  0  0
   -2.7620    2.2951   -0.6582 O   0  0  0  0  0  0  0  0  0  0  0  0
   -2.2182    1.0944   -0.2972 C   0  0  0  0  0  0  0  0  0  0  0  0
   -1.8060    0.7321    0.9847 C   0  0  0  0  0  0  0  0  0  0  0  0
   -1.2488   -0.5310    1.2140 C   0  0  0  0  0  0  0  0  0  0  0  0
   -1.1023   -1.4432    0.1630 C   0  0  0  0  0  0  0  0  0  0  0  0
   -0.4443   -2.7233    0.3908 C   0  0  0  0  0  0  0  0  0  0  0  0
    0.9010   -3.0224    0.6024 C   0  0  0  0  0  0  0  0  0  0  0  0
    2.0834   -2.1528    0.6518 C   0  0  0  0  0  0  0  0  0  0  0  0
    3.1229   -2.5279    1.1900 O   0  0  0  0  0  0  0  0  0  0  0  0
    1.9378   -0.9095    0.0442 N   0  0  0  0  0  0  0  0  0  0  0  0
    2.9600   -0.0039    0.0646 N   0  0  0  0  0  0  0  0  0  0  0  0
    2.7105    1.1255   -0.5181 C   0  0  0  0  0  0  0  0  0  0  0  0
    3.7119    2.2077   -0.5799 C   0  0  0  0  0  0  0  0  0  0  0  0
    4.9792    2.0444   -0.0131 C   0  0  0  0  0  0  0  0  0  0  0  0
    5.9087    3.0827   -0.0844 C   0  0  0  0  0  0  0  0  0  0  0  0
    5.5722    4.2788   -0.7194 C   0  0  0  0  0  0  0  0  0  0  0  0
    4.3065    4.4407   -1.2848 C   0  0  0  0  0  0  0  0  0  0  0  0
    3.3725    3.4053   -1.2167 C   0  0  0  0  0  0  0  0  0  0  0  0
    1.0250   -4.3728    0.8085 N   0  0  0  0  0  0  0  0  0  0  0  0
   -0.1684   -4.9282    0.7192 N   0  0  0  0  0  0  0  0  0  0  0  0
   -1.0972   -3.9579    0.5031 N   0  0  0  0  0  0  0  0  0  0  0  0
   -2.4809   -4.2651    0.4462 C   0  0  0  0  0  0  0  0  0  0  0  0
   -3.3995   -3.3082    0.3098 N   0  0  0  0  0  0  0  0  0  0  0  0
   -4.6115   -3.9960    0.3193 O   0  0  0  0  0  0  0  0  0  0  0  0
   -4.4139   -5.3648    0.4649 N   0  0  0  0  0  0  0  0  0  0  0  0
   -3.0937   -5.5293    0.5370 C   0  0  0  0  0  0  0  0  0  0  0  0
   -2.4828   -6.7218    0.6703 N   0  0  0  0  0  0  0  0  0  0  0  0
   -1.5160   -1.0792   -1.1223 C   0  0  0  0  0  0  0  0  0  0  0  0
   -2.0702    0.1832   -1.3458 C   0  0  0  0  0  0  0  0  0  0  0  0
   -3.0493    4.8970   -0.9779 H   0  0  0  0  0  0  0  0  0  0  0  0
   -4.6291    4.1573   -0.7463 H   0  0  0  0  0  0  0  0  0  0  0  0
   -3.9430    5.1860    0.5343 H   0  0  0  0  0  0  0  0  0  0  0  0
   -2.1158    3.5311    0.8819 H   0  0  0  0  0  0  0  0  0  0  0  0
   -3.7290    2.7758    1.1204 H   0  0  0  0  0  0  0  0  0  0  0  0
   -1.8985    1.4083    1.8287 H   0  0  0  0  0  0  0  0  0  0  0  0
   -0.9252   -0.7882    2.2214 H   0  0  0  0  0  0  0  0  0  0  0  0
    1.0895   -0.6648   -0.4478 H   0  0  0  0  0  0  0  0  0  0  0  0
    1.7333    1.3301   -0.9927 H   0  0  0  0  0  0  0  0  0  0  0  0
    5.2478    1.1136    0.4829 H   0  0  0  0  0  0  0  0  0  0  0  0
    6.8951    2.9570    0.3554 H   0  0  0  0  0  0  0  0  0  0  0  0
    6.2991    5.0858   -0.7737 H   0  0  0  0  0  0  0  0  0  0  0  0
    4.0499    5.3745   -1.7790 H   0  0  0  0  0  0  0  0  0  0  0  0
    2.3908    3.5445   -1.6611 H   0  0  0  0  0  0  0  0  0  0  0  0
   -3.0337   -7.5316    0.9355 H   0  0  0  0  0  0  0  0  0  0  0  0
   -1.4964   -6.7842    0.9211 H   0  0  0  0  0  0  0  0  0  0  0  0
   -1.4143   -1.7662   -1.9599 H   0  0  0  0  0  0  0  0  0  0  0  0
   -2.3964    0.4590   -2.3464 H   0  0  0  0  0  0  0  0  0  0  0  0
  1  2  1  0
  2  3  1  0
  3  4  1  0
  4  5  2  0
  5  6  1  0
  6  7  2  0
  7  8  1  0
  8  9  2  0
  9 10  1  0
 10 11  2  0
 10 12  1  0
 12 13  1  0
 13 14  2  3
 14 15  1  0
 15 16  2  0
 16 17  1  0
 17 18  2  0
 18 19  1  0
 19 20  2  0
  9 21  1  0
 21 22  2  0
 22 23  1  0
 23 24  1  0
 24 25  2  0
 25 26  1  0
 26 27  1  0
 27 28  2  0
 28 29  1  0
  7 30  1  0
 30 31  2  0
 31  4  1  0
 23  8  1  0
 28 24  1  0
 20 15  1  0
  1 32  1  0
  1 33  1  0
  1 34  1  0
  2 35  1  0
  2 36  1  0
  5 37  1  0
  6 38  1  0
 12 39  1  0
 14 40  1  0
 16 41  1  0
 17 42  1  0
 18 43  1  0
 19 44  1  0
 20 45  1  0
 29 46  1  0
 29 47  1  0
 30 48  1  0
 31 49  1  0
M  END
$$$$
