
     RDKit          3D

 55 58  0  0  0  0  0  0  0  0999 V2000
    4.9435    1.0445    0.7685 C   0  0  0  0  0  0  0  0  0  0  0  0
    4.4446    0.1678   -0.3684 C   0  0  0  0  0  0  0  0  0  0  0  0
    4.1927   -1.1621    0.0849 O   0  0  0  0  0  0  0  0  0  0  0  0
    2.9797   -1.4759    0.6375 C   0  0  0  0  0  0  0  0  0  0  0  0
    1.9254   -0.5759    0.8251 C   0  0  0  0  0  0  0  0  0  0  0  0
    0.7117   -0.9931    1.3957 C   0  0  0  0  0  0  0  0  0  0  0  0
   -0.4139   -0.0657    1.5824 C   0  0  0  0  0  0  0  0  0  0  0  0
   -0.9547    0.7468    0.6514 C   0  0  0  0  0  0  0  0  0  0  0  0
   -0.4549    0.7849   -0.7571 C   0  0  0  0  0  0  0  0  0  0  0  0
    0.1052    1.8055   -1.1609 O   0  0  0  0  0  0  0  0  0  0  0  0
   -0.6843   -0.3153   -1.5590 N   0  0  0  0  0  0  0  0  0  0  0  0
   -0.1279   -0.3332   -2.9114 C   0  0  0  0  0  0  0  0  0  0  0  0
   -0.0291   -1.7638   -3.4463 C   0  0  0  0  0  0  0  0  0  0  0  0
   -1.2884   -2.4519   -3.4798 O   0  0  0  0  0  0  0  0  0  0  0  0
   -2.2327   -1.9979   -2.4998 C   0  0  0  0  0  0  0  0  0  0  0  0
   -1.5765   -1.4365   -1.2328 C   0  0  0  0  0  0  0  0  0  0  0  0
   -1.9951    1.6379    1.0361 C   0  0  0  0  0  0  0  0  0  0  0  0
   -2.8767    1.5579    2.0165 N   0  0  0  0  0  0  0  0  0  0  0  0
   -3.6452    2.6933    1.9251 C   0  0  0  0  0  0  0  0  0  0  0  0
   -4.7298    3.1094    2.7099 C   0  0  0  0  0  0  0  0  0  0  0  0
   -5.3499    4.3285    2.4053 C   0  0  0  0  0  0  0  0  0  0  0  0
   -4.8982    5.1158    1.3426 C   0  0  0  0  0  0  0  0  0  0  0  0
   -3.8163    4.7168    0.5497 C   0  0  0  0  0  0  0  0  0  0  0  0
   -3.2200    3.4969    0.8746 C   0  0  0  0  0  0  0  0  0  0  0  0
   -2.1641    2.8118    0.3335 N   0  0  0  0  0  0  0  0  0  0  0  0
    0.5771   -2.3129    1.8373 C   0  0  0  0  0  0  0  0  0  0  0  0
    1.6238   -3.2182    1.6642 C   0  0  0  0  0  0  0  0  0  0  0  0
    1.3992   -4.8431    2.2080 Cl  0  0  0  0  0  0  0  0  0  0  0  0
    2.8118   -2.8110    1.0451 C   0  0  0  0  0  0  0  0  0  0  0  0
    3.8414   -3.7139    0.9115 O   0  0  0  0  0  0  0  0  0  0  0  0
    3.8916   -4.2213   -0.4215 C   0  0  0  0  0  0  0  0  0  0  0  0
    4.1869    1.1554    1.5518 H   0  0  0  0  0  0  0  0  0  0  0  0
    5.2139    2.0396    0.4012 H   0  0  0  0  0  0  0  0  0  0  0  0
    5.8220    0.5932    1.2413 H   0  0  0  0  0  0  0  0  0  0  0  0
    5.2405    0.0912   -1.1177 H   0  0  0  0  0  0  0  0  0  0  0  0
    3.5863    0.6028   -0.8924 H   0  0  0  0  0  0  0  0  0  0  0  0
    2.0298    0.4674    0.5442 H   0  0  0  0  0  0  0  0  0  0  0  0
   -0.8238   -0.0572    2.5934 H   0  0  0  0  0  0  0  0  0  0  0  0
   -0.8030    0.2617   -3.5386 H   0  0  0  0  0  0  0  0  0  0  0  0
    0.8560    0.1490   -2.9133 H   0  0  0  0  0  0  0  0  0  0  0  0
    0.6537   -2.3551   -2.8244 H   0  0  0  0  0  0  0  0  0  0  0  0
    0.3729   -1.7630   -4.4645 H   0  0  0  0  0  0  0  0  0  0  0  0
   -2.8795   -2.8446   -2.2487 H   0  0  0  0  0  0  0  0  0  0  0  0
   -2.8605   -1.2338   -2.9733 H   0  0  0  0  0  0  0  0  0  0  0  0
   -0.9549   -2.2115   -0.7718 H   0  0  0  0  0  0  0  0  0  0  0  0
   -2.3430   -1.1247   -0.5184 H   0  0  0  0  0  0  0  0  0  0  0  0
   -5.0750    2.4944    3.5331 H   0  0  0  0  0  0  0  0  0  0  0  0
   -6.1921    4.6641    3.0056 H   0  0  0  0  0  0  0  0  0  0  0  0
   -5.3960    6.0596    1.1283 H   0  0  0  0  0  0  0  0  0  0  0  0
   -3.4634    5.3295   -0.2728 H   0  0  0  0  0  0  0  0  0  0  0  0
   -1.5848    3.1188   -0.4384 H   0  0  0  0  0  0  0  0  0  0  0  0
   -0.3458   -2.6421    2.3102 H   0  0  0  0  0  0  0  0  0  0  0  0
    4.3391   -3.4909   -1.1022 H   0  0  0  0  0  0  0  0  0  0  0  0
    2.9013   -4.5197   -0.7847 H   0  0  0  0  0  0  0  0  0  0  0  0
    4.5292   -5.1102   -0.4155 H   0  0  0  0  0  0  0  0  0  0  0  0
  1  2  1  0
  2  3  1  0
  3  4  1  0
  4  5  2  0
  5  6  1  0
  6  7  1  0
  7  8  2  3
  8  9  1  0
  9 10  2  0
  9 11  1  0
 11 12  1  0
 12 13  1  0
 13 14  1  0
 14 15  1  0
 15 16  1  0
  8 17  1  0
 17 18  2  0
 18 19  1  0
 19 20  2  0
 20 21  1  0
 21 22  2  0
 22 23  1  0
 23 24  2  0
 24 25  1  0
  6 26  2  0
 26 27  1  0
 27 28  1  0
 27 29  2  0
 29 30  1  0
 30 31  1  0
 29  4  1  0
 16 11  1  0
 25 17  1  0
 24 19  1  0
  1 32  1  0
  1 33  1  0
  1 34  1  0
  2 35  1  0
  2 36  1  0
  5 37  1  0
  7 38  1  0
 12 39  1  0
 12 40  1  0
 13 41  1  0
 13 42  1  0
 15 43  1  0
 15 44  1  0
 16 45  1  0
 16 46  1  0
 20 47  1  0
 21 48  1  0
 22 49  1  0
 23 50  1  0
 25 51  1  0
 26 52  1  0
 31 53  1  0
 31 54  1  0
 31 55  1  0
M  END
$$$$
