
     RDKit          3D

 50 53  0  0  0  0  0  0  0  0999 V2000
    0.1993    0.2979    0.3060 O   0  0  0  0  0  0  0  0  0  0  0  0
    0.7565    0.9965    1.1507 C   0  0  0  0  0  0  0  0  0  0  0  0
    0.0582    1.9277    1.9147 N   0  0  0  0  0  0  0  0  0  0  0  0
   -1.2853    2.2699    1.9059 C   0  0  0  0  0  0  0  0  0  0  0  0
   -1.7201    3.4096    3.0496 S   0  0  0  0  0  0  0  0  0  0  0  0
   -2.0491    1.6277    0.9708 N   0  0  0  0  0  0  0  0  0  0  0  0
   -3.4252    1.6371    0.6275 C   0  0  0  0  0  0  0  0  0  0  0  0
   -4.4162    2.3837    1.2637 C   0  0  0  0  0  0  0  0  0  0  0  0
   -5.7415    2.3294    0.8204 C   0  0  0  0  0  0  0  0  0  0  0  0
   -6.0895    1.5265   -0.2600 C   0  0  0  0  0  0  0  0  0  0  0  0
   -5.1136    0.7676   -0.9025 C   0  0  0  0  0  0  0  0  0  0  0  0
   -3.7772    0.8094   -0.4763 C   0  0  0  0  0  0  0  0  0  0  0  0
   -2.7700    0.0296   -1.0898 N   0  0  0  0  0  0  0  0  0  0  0  0
   -2.6536   -1.3167   -0.4733 C   0  0  0  0  0  0  0  0  0  0  0  0
   -1.7542   -2.2073   -1.3440 C   0  0  0  0  0  0  0  0  0  0  0  0
   -2.2934   -2.4421   -2.6569 O   0  0  0  0  0  0  0  0  0  0  0  0
   -3.1231   -1.3681   -3.1276 C   0  0  0  0  0  0  0  0  0  0  0  0
   -2.7334    0.0112   -2.5699 C   0  0  0  0  0  0  0  0  0  0  0  0
    2.1782    0.9131    1.4382 C   0  0  0  0  0  0  0  0  0  0  0  0
    3.0237    1.5794    2.3077 C   0  0  0  0  0  0  0  0  0  0  0  0
    4.3208    1.0347    2.1176 C   0  0  0  0  0  0  0  0  0  0  0  0
    4.2086    0.0657    1.1414 C   0  0  0  0  0  0  0  0  0  0  0  0
    5.1414   -0.8533    0.4923 C   0  0  0  0  0  0  0  0  0  0  0  0
    6.4752   -0.9391    0.9241 C   0  0  0  0  0  0  0  0  0  0  0  0
    7.3759   -1.8131    0.3073 C   0  0  0  0  0  0  0  0  0  0  0  0
    6.9550   -2.6129   -0.7523 C   0  0  0  0  0  0  0  0  0  0  0  0
    5.6350   -2.5376   -1.1890 C   0  0  0  0  0  0  0  0  0  0  0  0
    5.1149   -3.5260   -2.5007 Cl  0  0  0  0  0  0  0  0  0  0  0  0
    4.7329   -1.6679   -0.5754 C   0  0  0  0  0  0  0  0  0  0  0  0
    2.9096   -0.0039    0.7306 O   0  0  0  0  0  0  0  0  0  0  0  0
    0.5756    2.4422    2.6102 H   0  0  0  0  0  0  0  0  0  0  0  0
   -1.5322    1.0116    0.3324 H   0  0  0  0  0  0  0  0  0  0  0  0
   -4.2100    3.0239    2.1098 H   0  0  0  0  0  0  0  0  0  0  0  0
   -6.5032    2.9192    1.3271 H   0  0  0  0  0  0  0  0  0  0  0  0
   -7.1213    1.4846   -0.5975 H   0  0  0  0  0  0  0  0  0  0  0  0
   -5.4117    0.1304   -1.7293 H   0  0  0  0  0  0  0  0  0  0  0  0
   -3.6430   -1.7840   -0.3896 H   0  0  0  0  0  0  0  0  0  0  0  0
   -2.2249   -1.2356    0.5323 H   0  0  0  0  0  0  0  0  0  0  0  0
   -0.7618   -1.7591   -1.4667 H   0  0  0  0  0  0  0  0  0  0  0  0
   -1.6189   -3.1828   -0.8676 H   0  0  0  0  0  0  0  0  0  0  0  0
   -4.1587   -1.6127   -2.8659 H   0  0  0  0  0  0  0  0  0  0  0  0
   -3.0578   -1.3624   -4.2214 H   0  0  0  0  0  0  0  0  0  0  0  0
   -1.6993    0.2301   -2.8652 H   0  0  0  0  0  0  0  0  0  0  0  0
   -3.3581    0.7964   -3.0124 H   0  0  0  0  0  0  0  0  0  0  0  0
    2.7591    2.3627    3.0031 H   0  0  0  0  0  0  0  0  0  0  0  0
    5.2263    1.3203    2.6343 H   0  0  0  0  0  0  0  0  0  0  0  0
    6.8323   -0.3289    1.7510 H   0  0  0  0  0  0  0  0  0  0  0  0
    8.4046   -1.8682    0.6556 H   0  0  0  0  0  0  0  0  0  0  0  0
    7.6561   -3.2903   -1.2317 H   0  0  0  0  0  0  0  0  0  0  0  0
    3.7070   -1.6260   -0.9371 H   0  0  0  0  0  0  0  0  0  0  0  0
  1  2  2  0
  2  3  1  0
  3  4  1  0
  4  5  2  0
  4  6  1  0
  6  7  1  0
  7  8  2  0
  8  9  1  0
  9 10  2  0
 10 11  1  0
 11 12  2  0
 12 13  1  0
 13 14  1  0
 14 15  1  0
 15 16  1  0
 16 17  1  0
 17 18  1  0
  2 19  1  0
 19 20  2  0
 20 21  1  0
 21 22  2  0
 22 23  1  0
 23 24  2  0
 24 25  1  0
 25 26  2  0
 26 27  1  0
 27 28  1  0
 27 29  2  0
 22 30  1  0
 12  7  1  0
 18 13  1  0
 30 19  1  0
 29 23  1  0
  3 31  1  0
  6 32  1  0
  8 33  1  0
  9 34  1  0
 10 35  1  0
 11 36  1  0
 14 37  1  0
 14 38  1  0
 15 39  1  0
 15 40  1  0
 17 41  1  0
 17 42  1  0
 18 43  1  0
 18 44  1  0
 20 45  1  0
 21 46  1  0
 24 47  1  0
 25 48  1  0
 26 49  1  0
 29 50  1  0
M  END
$$$$
