
     RDKit          3D

 42 45  0  0  0  0  0  0  0  0999 V2000
    8.4902   -0.6855   -0.0485 C   0  0  0  0  0  0  0  0  0  0  0  0
    7.0532   -0.5140    0.0967 N   0  0  0  0  0  0  0  0  0  0  0  0
    6.5808   -0.2252    1.4425 C   0  0  0  0  0  0  0  0  0  0  0  0
    6.2322   -0.8800   -0.9687 C   0  0  0  0  0  0  0  0  0  0  0  0
    6.6965   -1.2394   -2.0552 O   0  0  0  0  0  0  0  0  0  0  0  0
    4.7248   -0.8358   -0.7764 C   0  0  0  0  0  0  0  0  0  0  0  0
    4.1157    0.8372   -1.1307 S   0  0  0  0  0  0  0  0  0  0  0  0
    2.4055    0.6109   -0.8418 C   0  0  0  0  0  0  0  0  0  0  0  0
    1.9350   -0.4834   -0.2911 N   0  0  0  0  0  0  0  0  0  0  0  0
    0.5589   -0.3916   -0.1797 C   0  0  0  0  0  0  0  0  0  0  0  0
   -0.2967   -1.3680    0.3523 C   0  0  0  0  0  0  0  0  0  0  0  0
   -1.6818   -1.1334    0.4021 C   0  0  0  0  0  0  0  0  0  0  0  0
   -2.2600    0.0568   -0.0645 C   0  0  0  0  0  0  0  0  0  0  0  0
   -3.6768    0.2733   -0.0027 N   0  0  0  0  0  0  0  0  0  0  0  0
   -4.3266    1.4139   -0.4390 C   0  0  0  0  0  0  0  0  0  0  0  0
   -3.9187    2.4455   -0.9423 O   0  0  0  0  0  0  0  0  0  0  0  0
   -5.7521    1.2236   -0.1962 C   0  0  0  0  0  0  0  0  0  0  0  0
   -6.8232    2.0602   -0.4516 C   0  0  0  0  0  0  0  0  0  0  0  0
   -8.0961    1.5983   -0.1033 C   0  0  0  0  0  0  0  0  0  0  0  0
   -8.2655    0.3286    0.4838 C   0  0  0  0  0  0  0  0  0  0  0  0
   -7.1643   -0.4969    0.7309 C   0  0  0  0  0  0  0  0  0  0  0  0
   -5.9174   -0.0154    0.3766 C   0  0  0  0  0  0  0  0  0  0  0  0
   -4.5985   -0.6253    0.5038 C   0  0  0  0  0  0  0  0  0  0  0  0
   -4.4769   -1.7354    0.9908 O   0  0  0  0  0  0  0  0  0  0  0  0
   -1.3945    1.0319   -0.5974 C   0  0  0  0  0  0  0  0  0  0  0  0
   -0.0049    0.7925   -0.6463 C   0  0  0  0  0  0  0  0  0  0  0  0
    1.2520    1.8094   -1.2416 S   0  0  0  0  0  0  0  0  0  0  0  0
    8.7900   -0.7976   -1.0936 H   0  0  0  0  0  0  0  0  0  0  0  0
    8.7917   -1.5804    0.5042 H   0  0  0  0  0  0  0  0  0  0  0  0
    8.9987    0.1898    0.3664 H   0  0  0  0  0  0  0  0  0  0  0  0
    6.5779   -1.1570    2.0153 H   0  0  0  0  0  0  0  0  0  0  0  0
    7.2541    0.4946    1.9177 H   0  0  0  0  0  0  0  0  0  0  0  0
    5.5769    0.2001    1.4442 H   0  0  0  0  0  0  0  0  0  0  0  0
    4.2771   -1.5440   -1.4832 H   0  0  0  0  0  0  0  0  0  0  0  0
    4.4512   -1.1723    0.2271 H   0  0  0  0  0  0  0  0  0  0  0  0
    0.1146   -2.3025    0.7223 H   0  0  0  0  0  0  0  0  0  0  0  0
   -2.2796   -1.9355    0.8260 H   0  0  0  0  0  0  0  0  0  0  0  0
   -6.6777    3.0360   -0.9045 H   0  0  0  0  0  0  0  0  0  0  0  0
   -8.9670    2.2252   -0.2872 H   0  0  0  0  0  0  0  0  0  0  0  0
   -9.2656   -0.0118    0.7472 H   0  0  0  0  0  0  0  0  0  0  0  0
   -7.2799   -1.4773    1.1824 H   0  0  0  0  0  0  0  0  0  0  0  0
   -1.7533    1.9800   -0.9812 H   0  0  0  0  0  0  0  0  0  0  0  0
  1  2  1  0
  2  3  1  0
  2  4  1  0
  4  5  2  0
  4  6  1  0
  6  7  1  0
  7  8  1  0
  8  9  2  0
  9 10  1  0
 10 11  2  0
 11 12  1  0
 12 13  2  0
 13 14  1  0
 14 15  1  0
 15 16  2  0
 15 17  1  0
 17 18  2  0
 18 19  1  0
 19 20  2  0
 20 21  1  0
 21 22  2  0
 22 23  1  0
 23 24  2  0
 13 25  1  0
 25 26  2  0
 26 27  1  0
 27  8  1  0
 26 10  1  0
 23 14  1  0
 22 17  1  0
  1 28  1  0
  1 29  1  0
  1 30  1  0
  3 31  1  0
  3 32  1  0
  3 33  1  0
  6 34  1  0
  6 35  1  0
 11 36  1  0
 12 37  1  0
 18 38  1  0
 19 39  1  0
 20 40  1  0
 21 41  1  0
 25 42  1  0
M  END
$$$$
