
     RDKit          3D

 46 49  0  0  0  0  0  0  0  0999 V2000
    4.0682    1.4424    1.8924 C   0  0  0  0  0  0  0  0  0  0  0  0
    2.9967    0.9795    1.2354 C   0  0  0  0  0  0  0  0  0  0  0  0
    3.0302   -0.1992    0.2916 C   0  0  0  0  0  0  0  0  0  0  0  0
    2.0019   -1.2893    0.6879 C   0  0  0  0  0  0  0  0  0  0  0  0
    1.2920   -1.8603   -0.4939 N   0  0  0  0  0  0  0  0  0  0  0  0
    2.3174   -2.2581   -1.4907 C   0  0  0  0  0  0  0  0  0  0  0  0
    3.0675   -1.0327   -2.0453 C   0  0  0  0  0  0  0  0  0  0  0  0
    2.7442    0.1979   -1.1751 C   0  0  0  0  0  0  0  0  0  0  0  0
    1.2372    0.4902   -1.3328 C   0  0  0  0  0  0  0  0  0  0  0  0
    0.4334   -0.8146   -1.1321 C   0  0  0  0  0  0  0  0  0  0  0  0
   -0.8675   -0.6280   -0.3921 C   0  0  0  0  0  0  0  0  0  0  0  0
   -1.2573   -1.5487    0.5553 N   0  0  0  0  0  0  0  0  0  0  0  0
   -2.4696   -1.2221    1.1018 C   0  0  0  0  0  0  0  0  0  0  0  0
   -3.2092   -1.8595    2.1048 C   0  0  0  0  0  0  0  0  0  0  0  0
   -4.4438   -1.3036    2.4508 C   0  0  0  0  0  0  0  0  0  0  0  0
   -4.9180   -0.1604    1.8129 C   0  0  0  0  0  0  0  0  0  0  0  0
   -4.1642    0.4606    0.8099 C   0  0  0  0  0  0  0  0  0  0  0  0
   -2.9099   -0.0750    0.4482 C   0  0  0  0  0  0  0  0  0  0  0  0
   -1.9042    0.2932   -0.5101 C   0  0  0  0  0  0  0  0  0  0  0  0
   -2.0056    1.4454   -1.4601 C   0  0  0  0  0  0  0  0  0  0  0  0
   -1.7570    2.7959   -0.7917 C   0  0  0  0  0  0  0  0  0  0  0  0
   -1.7726    3.8403   -1.7617 O   0  0  0  0  0  0  0  0  0  0  0  0
    5.0497    0.9925    1.7799 H   0  0  0  0  0  0  0  0  0  0  0  0
    3.9825    2.2922    2.5633 H   0  0  0  0  0  0  0  0  0  0  0  0
    2.0392    1.4730    1.3946 H   0  0  0  0  0  0  0  0  0  0  0  0
    4.0337   -0.6474    0.3305 H   0  0  0  0  0  0  0  0  0  0  0  0
    1.2767   -0.9122    1.4191 H   0  0  0  0  0  0  0  0  0  0  0  0
    2.5257   -2.1032    1.2068 H   0  0  0  0  0  0  0  0  0  0  0  0
    3.0252   -2.9609   -1.0329 H   0  0  0  0  0  0  0  0  0  0  0  0
    1.8461   -2.8106   -2.3130 H   0  0  0  0  0  0  0  0  0  0  0  0
    4.1463   -1.2274   -2.0476 H   0  0  0  0  0  0  0  0  0  0  0  0
    2.7686   -0.8445   -3.0837 H   0  0  0  0  0  0  0  0  0  0  0  0
    3.3431    1.0608   -1.4866 H   0  0  0  0  0  0  0  0  0  0  0  0
    1.0515    0.8784   -2.3421 H   0  0  0  0  0  0  0  0  0  0  0  0
    0.9338    1.2734   -0.6318 H   0  0  0  0  0  0  0  0  0  0  0  0
    0.1336   -1.1874   -2.1234 H   0  0  0  0  0  0  0  0  0  0  0  0
   -0.6946   -2.3518    0.8043 H   0  0  0  0  0  0  0  0  0  0  0  0
   -2.8435   -2.7548    2.5965 H   0  0  0  0  0  0  0  0  0  0  0  0
   -5.0436   -1.7744    3.2261 H   0  0  0  0  0  0  0  0  0  0  0  0
   -5.8831    0.2542    2.0926 H   0  0  0  0  0  0  0  0  0  0  0  0
   -4.5483    1.3489    0.3171 H   0  0  0  0  0  0  0  0  0  0  0  0
   -3.0004    1.4530   -1.9245 H   0  0  0  0  0  0  0  0  0  0  0  0
   -1.3120    1.3147   -2.2986 H   0  0  0  0  0  0  0  0  0  0  0  0
   -2.5340    3.0166   -0.0528 H   0  0  0  0  0  0  0  0  0  0  0  0
   -0.7932    2.8234   -0.2736 H   0  0  0  0  0  0  0  0  0  0  0  0
   -1.0129    3.7000   -2.3521 H   0  0  0  0  0  0  0  0  0  0  0  0
  1  2  2  0
  2  3  1  0
  3  4  1  0
  4  5  1  0
  5  6  1  0
  6  7  1  0
  7  8  1  0
  8  9  1  0
  9 10  1  0
 10 11  1  0
 11 12  1  0
 12 13  1  0
 13 14  2  0
 14 15  1  0
 15 16  2  0
 16 17  1  0
 17 18  2  0
 18 19  1  0
 19 20  1  0
 20 21  1  0
 21 22  1  0
  8  3  1  0
 19 11  2  0
 10  5  1  0
 18 13  1  0
  1 23  1  0
  1 24  1  0
  2 25  1  0
  3 26  1  0
  4 27  1  0
  4 28  1  0
  6 29  1  0
  6 30  1  0
  7 31  1  0
  7 32  1  0
  8 33  1  0
  9 34  1  0
  9 35  1  0
 10 36  1  0
 12 37  1  0
 14 38  1  0
 15 39  1  0
 16 40  1  0
 17 41  1  0
 20 42  1  0
 20 43  1  0
 21 44  1  0
 21 45  1  0
 22 46  1  0
M  END
$$$$
