
     RDKit          3D

 42 45  0  0  0  0  0  0  0  0999 V2000
    1.7093    0.0686   -2.2024 O   0  0  0  0  0  0  0  0  0  0  0  0
    0.7188   -0.4661   -1.7211 C   0  0  0  0  0  0  0  0  0  0  0  0
   -0.2046   -1.0309   -2.5514 N   0  0  0  0  0  0  0  0  0  0  0  0
   -1.4522   -1.4636   -2.2254 C   0  0  0  0  0  0  0  0  0  0  0  0
   -2.2401   -1.7495   -3.1259 O   0  0  0  0  0  0  0  0  0  0  0  0
   -1.7533   -1.5458   -0.8844 N   0  0  0  0  0  0  0  0  0  0  0  0
   -3.0847   -2.0276   -0.5066 C   0  0  0  0  0  0  0  0  0  0  0  0
   -4.1066   -0.9013   -0.2831 C   0  0  0  0  0  0  0  0  0  0  0  0
   -4.4923   -0.0814   -1.5032 C   0  0  0  0  0  0  0  0  0  0  0  0
   -5.0824    1.1472   -0.8536 C   0  0  0  0  0  0  0  0  0  0  0  0
   -4.1623    1.3476    0.3334 C   0  0  0  0  0  0  0  0  0  0  0  0
   -3.6458    0.0555    0.6888 O   0  0  0  0  0  0  0  0  0  0  0  0
   -0.8461   -1.2809    0.1326 C   0  0  0  0  0  0  0  0  0  0  0  0
   -1.0253   -1.6232    1.3010 O   0  0  0  0  0  0  0  0  0  0  0  0
    0.4014   -0.5724   -0.2802 C   0  0  0  0  0  0  0  0  0  0  0  0
    1.1676   -0.0992    0.7247 C   0  0  0  0  0  0  0  0  0  0  0  0
    2.3941    0.6278    0.6779 C   0  0  0  0  0  0  0  0  0  0  0  0
    2.6267    1.7763   -0.0437 C   0  0  0  0  0  0  0  0  0  0  0  0
    3.9149    2.1731    0.2019 N   0  0  0  0  0  0  0  0  0  0  0  0
    4.5070    1.3347    1.1190 C   0  0  0  0  0  0  0  0  0  0  0  0
    5.7895    1.3723    1.6794 C   0  0  0  0  0  0  0  0  0  0  0  0
    6.1226    0.3773    2.6031 C   0  0  0  0  0  0  0  0  0  0  0  0
    5.2090   -0.6151    2.9498 C   0  0  0  0  0  0  0  0  0  0  0  0
    3.9315   -0.6399    2.3781 C   0  0  0  0  0  0  0  0  0  0  0  0
    3.5686    0.3529    1.4432 C   0  0  0  0  0  0  0  0  0  0  0  0
   -0.0152   -0.9403   -3.5393 H   0  0  0  0  0  0  0  0  0  0  0  0
   -3.4621   -2.7164   -1.2713 H   0  0  0  0  0  0  0  0  0  0  0  0
   -2.9953   -2.6031    0.4222 H   0  0  0  0  0  0  0  0  0  0  0  0
   -5.0151   -1.3554    0.1351 H   0  0  0  0  0  0  0  0  0  0  0  0
   -5.1907   -0.6015   -2.1641 H   0  0  0  0  0  0  0  0  0  0  0  0
   -3.6174    0.2213   -2.0864 H   0  0  0  0  0  0  0  0  0  0  0  0
   -5.1228    2.0181   -1.5130 H   0  0  0  0  0  0  0  0  0  0  0  0
   -6.1006    0.9339   -0.5069 H   0  0  0  0  0  0  0  0  0  0  0  0
   -3.3103    1.9838    0.0719 H   0  0  0  0  0  0  0  0  0  0  0  0
   -4.6766    1.7879    1.1922 H   0  0  0  0  0  0  0  0  0  0  0  0
    0.8385   -0.2968    1.7463 H   0  0  0  0  0  0  0  0  0  0  0  0
    2.0042    2.3368   -0.7280 H   0  0  0  0  0  0  0  0  0  0  0  0
    4.3660    2.9737   -0.2174 H   0  0  0  0  0  0  0  0  0  0  0  0
    6.5039    2.1436    1.4115 H   0  0  0  0  0  0  0  0  0  0  0  0
    7.1110    0.3788    3.0569 H   0  0  0  0  0  0  0  0  0  0  0  0
    5.4888   -1.3802    3.6697 H   0  0  0  0  0  0  0  0  0  0  0  0
    3.2286   -1.4208    2.6530 H   0  0  0  0  0  0  0  0  0  0  0  0
  1  2  2  0
  2  3  1  0
  3  4  1  0
  4  5  2  0
  4  6  1  0
  6  7  1  0
  7  8  1  0
  8  9  1  0
  9 10  1  0
 10 11  1  0
 11 12  1  0
  6 13  1  0
 13 14  2  0
 13 15  1  0
 15 16  2  3
 16 17  1  0
 17 18  2  0
 18 19  1  0
 19 20  1  0
 20 21  2  0
 21 22  1  0
 22 23  2  0
 23 24  1  0
 24 25  2  0
 15  2  1  0
 25 17  1  0
 12  8  1  0
 25 20  1  0
  3 26  1  0
  7 27  1  0
  7 28  1  0
  8 29  1  0
  9 30  1  0
  9 31  1  0
 10 32  1  0
 10 33  1  0
 11 34  1  0
 11 35  1  0
 16 36  1  0
 18 37  1  0
 19 38  1  0
 21 39  1  0
 22 40  1  0
 23 41  1  0
 24 42  1  0
M  END
$$$$
