
     RDKit          3D

 33 34  0  0  0  0  0  0  0  0999 V2000
    2.6711   -0.9871   -3.7387 C   0  0  0  0  0  0  0  0  0  0  0  0
    2.8720   -0.4254   -2.3426 C   0  0  0  0  0  0  0  0  0  0  0  0
    1.9936   -1.1082   -1.3024 C   0  0  0  0  0  0  0  0  0  0  0  0
    1.2008   -2.0004   -1.6112 O   0  0  0  0  0  0  0  0  0  0  0  0
    2.1208   -0.5920    0.1175 C   0  0  0  0  0  0  0  0  0  0  0  0
    1.9633   -1.6525    1.1173 C   0  0  0  0  0  0  0  0  0  0  0  0
    1.8349   -2.4756    1.9269 N   0  0  0  0  0  0  0  0  0  0  0  0
    1.1468    0.5223    0.3023 C   0  0  0  0  0  0  0  0  0  0  0  0
    1.4987    1.7930    0.3475 N   0  0  0  0  0  0  0  0  0  0  0  0
    0.3728    2.5511    0.5036 N   0  0  0  0  0  0  0  0  0  0  0  0
   -0.6619    1.7425    0.5506 C   0  0  0  0  0  0  0  0  0  0  0  0
   -0.2247    0.4481    0.4115 N   0  0  0  0  0  0  0  0  0  0  0  0
   -1.0971   -0.7075    0.3897 C   0  0  0  0  0  0  0  0  0  0  0  0
   -1.8655   -0.8987    1.6958 C   0  0  0  0  0  0  0  0  0  0  0  0
   -3.0589    0.0459    1.8552 C   0  0  0  0  0  0  0  0  0  0  0  0
   -2.6992    1.5273    1.9920 C   0  0  0  0  0  0  0  0  0  0  0  0
   -2.0838    2.1344    0.7326 C   0  0  0  0  0  0  0  0  0  0  0  0
    3.3219   -0.4739   -4.4532 H   0  0  0  0  0  0  0  0  0  0  0  0
    2.9047   -2.0565   -3.7699 H   0  0  0  0  0  0  0  0  0  0  0  0
    1.6345   -0.8603   -4.0679 H   0  0  0  0  0  0  0  0  0  0  0  0
    2.6389    0.6443   -2.3442 H   0  0  0  0  0  0  0  0  0  0  0  0
    3.9177   -0.5568   -2.0454 H   0  0  0  0  0  0  0  0  0  0  0  0
    3.1375   -0.1929    0.2296 H   0  0  0  0  0  0  0  0  0  0  0  0
   -1.7752   -0.5905   -0.4636 H   0  0  0  0  0  0  0  0  0  0  0  0
   -0.4997   -1.5988    0.1978 H   0  0  0  0  0  0  0  0  0  0  0  0
   -1.1930   -0.7986    2.5567 H   0  0  0  0  0  0  0  0  0  0  0  0
   -2.2525   -1.9252    1.7147 H   0  0  0  0  0  0  0  0  0  0  0  0
   -3.7497   -0.0888    1.0137 H   0  0  0  0  0  0  0  0  0  0  0  0
   -3.6093   -0.2536    2.7560 H   0  0  0  0  0  0  0  0  0  0  0  0
   -2.0365    1.6709    2.8547 H   0  0  0  0  0  0  0  0  0  0  0  0
   -3.6253    2.0727    2.2134 H   0  0  0  0  0  0  0  0  0  0  0  0
   -2.1308    3.2274    0.8152 H   0  0  0  0  0  0  0  0  0  0  0  0
   -2.6670    1.8633   -0.1551 H   0  0  0  0  0  0  0  0  0  0  0  0
  1  2  1  0
  2  3  1  0
  3  4  2  0
  3  5  1  0
  5  6  1  0
  6  7  3  0
  5  8  1  0
  8  9  2  0
  9 10  1  0
 10 11  2  0
 11 12  1  0
 12 13  1  0
 13 14  1  0
 14 15  1  0
 15 16  1  0
 16 17  1  0
 12  8  1  0
 17 11  1  0
  1 18  1  0
  1 19  1  0
  1 20  1  0
  2 21  1  0
  2 22  1  0
  5 23  1  0
 13 24  1  0
 13 25  1  0
 14 26  1  0
 14 27  1  0
 15 28  1  0
 15 29  1  0
 16 30  1  0
 16 31  1  0
 17 32  1  0
 17 33  1  0
M  END
$$$$
