
     RDKit          3D

 35 37  0  0  0  0  0  0  0  0999 V2000
   -5.6851    0.5598    0.1206 C   0  0  0  0  0  0  0  0  0  0  0  0
   -4.2574    0.0886    0.1197 C   0  0  0  0  0  0  0  0  0  0  0  0
   -3.2257    1.0326   -0.0180 C   0  0  0  0  0  0  0  0  0  0  0  0
   -1.8863    0.6684    0.0111 C   0  0  0  0  0  0  0  0  0  0  0  0
   -0.9358    1.6104   -0.1256 N   0  0  0  0  0  0  0  0  0  0  0  0
    0.3468    1.2061   -0.0721 C   0  0  0  0  0  0  0  0  0  0  0  0
    1.3656    2.1320   -0.2010 C   0  0  0  0  0  0  0  0  0  0  0  0
    2.7111    1.7457   -0.1513 C   0  0  0  0  0  0  0  0  0  0  0  0
    3.0902    0.4079    0.0211 C   0  0  0  0  0  0  0  0  0  0  0  0
    4.4323    0.0195    0.0892 N   0  0  0  0  0  0  0  0  0  0  0  0
    5.4613    0.9280   -0.4158 C   0  0  0  0  0  0  0  0  0  0  0  0
    4.7683   -1.4034    0.0426 C   0  0  0  0  0  0  0  0  0  0  0  0
    2.0324   -0.5083    0.1651 C   0  0  0  0  0  0  0  0  0  0  0  0
    0.6862   -0.1448    0.1173 C   0  0  0  0  0  0  0  0  0  0  0  0
   -0.2679   -1.0868    0.2514 N   0  0  0  0  0  0  0  0  0  0  0  0
   -1.5527   -0.6861    0.1978 C   0  0  0  0  0  0  0  0  0  0  0  0
   -2.5736   -1.6197    0.3302 C   0  0  0  0  0  0  0  0  0  0  0  0
   -3.9261   -1.2669    0.2418 C   0  0  0  0  0  0  0  0  0  0  0  0
   -4.9013   -2.2415    0.4946 N   0  0  0  0  0  0  0  0  0  0  0  0
   -6.2179    0.1535   -0.7450 H   0  0  0  0  0  0  0  0  0  0  0  0
   -5.7495    1.6519    0.0677 H   0  0  0  0  0  0  0  0  0  0  0  0
   -6.1896    0.2470    1.0405 H   0  0  0  0  0  0  0  0  0  0  0  0
   -3.4647    2.0874   -0.1384 H   0  0  0  0  0  0  0  0  0  0  0  0
    1.1134    3.1803   -0.3384 H   0  0  0  0  0  0  0  0  0  0  0  0
    3.4516    2.5342   -0.2453 H   0  0  0  0  0  0  0  0  0  0  0  0
    5.4917    1.8549    0.1667 H   0  0  0  0  0  0  0  0  0  0  0  0
    5.2946    1.1623   -1.4730 H   0  0  0  0  0  0  0  0  0  0  0  0
    6.4606    0.4863   -0.3297 H   0  0  0  0  0  0  0  0  0  0  0  0
    4.3202   -1.9445    0.8829 H   0  0  0  0  0  0  0  0  0  0  0  0
    4.4432   -1.8533   -0.9019 H   0  0  0  0  0  0  0  0  0  0  0  0
    5.8496   -1.5589    0.1290 H   0  0  0  0  0  0  0  0  0  0  0  0
    2.2309   -1.5641    0.3227 H   0  0  0  0  0  0  0  0  0  0  0  0
   -2.2949   -2.6564    0.5024 H   0  0  0  0  0  0  0  0  0  0  0  0
   -4.6059   -3.1895    0.2803 H   0  0  0  0  0  0  0  0  0  0  0  0
   -5.8159   -2.0326    0.1081 H   0  0  0  0  0  0  0  0  0  0  0  0
  1  2  1  0
  2  3  2  0
  3  4  1  0
  4  5  2  0
  5  6  1  0
  6  7  2  0
  7  8  1  0
  8  9  2  0
  9 10  1  0
 10 11  1  0
 10 12  1  0
  9 13  1  0
 13 14  2  0
 14 15  1  0
 15 16  2  0
 16 17  1  0
 17 18  2  0
 18 19  1  0
 18  2  1  0
 16  4  1  0
 14  6  1  0
  1 20  1  0
  1 21  1  0
  1 22  1  0
  3 23  1  0
  7 24  1  0
  8 25  1  0
 11 26  1  0
 11 27  1  0
 11 28  1  0
 12 29  1  0
 12 30  1  0
 12 31  1  0
 13 32  1  0
 17 33  1  0
 19 34  1  0
 19 35  1  0
M  END
$$$$
