
     RDKit          3D

 46 49  0  0  0  0  0  0  0  0999 V2000
   -0.1459   -0.1845   -3.7264 C   0  0  0  0  0  0  0  0  0  0  0  0
   -0.9220   -1.0981   -2.9049 N   0  0  0  0  0  0  0  0  0  0  0  0
   -2.1719   -1.5797   -3.4709 C   0  0  0  0  0  0  0  0  0  0  0  0
   -0.9977   -0.7355   -1.5377 N   0  0  0  0  0  0  0  0  0  0  0  0
   -1.8686    0.2910   -1.1255 C   0  0  0  0  0  0  0  0  0  0  0  0
   -2.4835    1.1522   -1.8781 N   0  0  0  0  0  0  0  0  0  0  0  0
   -2.1507    0.4099    0.3746 C   0  0  0  0  0  0  0  0  0  0  0  0
   -3.2675   -0.5024    0.6871 C   0  0  0  0  0  0  0  0  0  0  0  0
   -4.1241   -1.2417    0.9479 N   0  0  0  0  0  0  0  0  0  0  0  0
   -0.9149    0.0550    1.2250 C   0  0  0  0  0  0  0  0  0  0  0  0
    0.0221    1.2496    1.4384 C   0  0  0  0  0  0  0  0  0  0  0  0
    0.5588    1.9961    0.3607 C   0  0  0  0  0  0  0  0  0  0  0  0
    1.4175    3.0794    0.5837 C   0  0  0  0  0  0  0  0  0  0  0  0
    1.7321    3.3946    1.8857 C   0  0  0  0  0  0  0  0  0  0  0  0
    1.2294    2.6761    2.9417 C   0  0  0  0  0  0  0  0  0  0  0  0
    0.3818    1.6041    2.7537 C   0  0  0  0  0  0  0  0  0  0  0  0
    1.6646    3.1443    4.1418 O   0  0  0  0  0  0  0  0  0  0  0  0
    2.5015    4.2397    3.7180 C   0  0  0  0  0  0  0  0  0  0  0  0
    2.5476    4.4061    2.2852 O   0  0  0  0  0  0  0  0  0  0  0  0
   -0.1668   -1.1438    0.6776 C   0  0  0  0  0  0  0  0  0  0  0  0
   -0.2204   -1.4862   -0.6292 C   0  0  0  0  0  0  0  0  0  0  0  0
    0.5737   -2.6734   -1.1562 C   0  0  0  0  0  0  0  0  0  0  0  0
    1.7219   -3.0837   -0.2408 C   0  0  0  0  0  0  0  0  0  0  0  0
    1.2429   -3.2506    1.1851 C   0  0  0  0  0  0  0  0  0  0  0  0
    0.5623   -1.9945    1.6683 C   0  0  0  0  0  0  0  0  0  0  0  0
    0.5409   -1.7116    2.8648 O   0  0  0  0  0  0  0  0  0  0  0  0
   -0.6589    0.7524   -3.9562 H   0  0  0  0  0  0  0  0  0  0  0  0
    0.8065    0.0618   -3.2429 H   0  0  0  0  0  0  0  0  0  0  0  0
    0.1051   -0.6635   -4.6794 H   0  0  0  0  0  0  0  0  0  0  0  0
   -1.9762   -2.1010   -4.4145 H   0  0  0  0  0  0  0  0  0  0  0  0
   -2.6462   -2.3096   -2.8048 H   0  0  0  0  0  0  0  0  0  0  0  0
   -2.8947   -0.7861   -3.6784 H   0  0  0  0  0  0  0  0  0  0  0  0
   -2.2457    0.9775   -2.8535 H   0  0  0  0  0  0  0  0  0  0  0  0
   -2.4765    1.4357    0.5929 H   0  0  0  0  0  0  0  0  0  0  0  0
   -1.3064   -0.2165    2.2172 H   0  0  0  0  0  0  0  0  0  0  0  0
    0.3231    1.7470   -0.6706 H   0  0  0  0  0  0  0  0  0  0  0  0
    1.8250    3.6529   -0.2414 H   0  0  0  0  0  0  0  0  0  0  0  0
    0.0193    1.0476    3.6139 H   0  0  0  0  0  0  0  0  0  0  0  0
    3.5201    4.0648    4.0833 H   0  0  0  0  0  0  0  0  0  0  0  0
    2.1216    5.1651    4.1660 H   0  0  0  0  0  0  0  0  0  0  0  0
   -0.1115   -3.5186   -1.2979 H   0  0  0  0  0  0  0  0  0  0  0  0
    1.0211   -2.4485   -2.1307 H   0  0  0  0  0  0  0  0  0  0  0  0
    2.5077   -2.3177   -0.2784 H   0  0  0  0  0  0  0  0  0  0  0  0
    2.1685   -4.0179   -0.5994 H   0  0  0  0  0  0  0  0  0  0  0  0
    0.5344   -4.0816    1.2702 H   0  0  0  0  0  0  0  0  0  0  0  0
    2.1005   -3.4565    1.8346 H   0  0  0  0  0  0  0  0  0  0  0  0
  1  2  1  0
  2  3  1  0
  2  4  1  0
  4  5  1  0
  5  6  2  3
  5  7  1  0
  7  8  1  0
  8  9  3  0
  7 10  1  0
 10 11  1  0
 11 12  2  0
 12 13  1  0
 13 14  2  0
 14 15  1  0
 15 16  2  0
 15 17  1  0
 17 18  1  0
 18 19  1  0
 10 20  1  0
 20 21  2  0
 21 22  1  0
 22 23  1  0
 23 24  1  0
 24 25  1  0
 25 26  2  0
 21  4  1  0
 16 11  1  0
 25 20  1  0
 19 14  1  0
  1 27  1  0
  1 28  1  0
  1 29  1  0
  3 30  1  0
  3 31  1  0
  3 32  1  0
  6 33  1  0
  7 34  1  0
 10 35  1  0
 12 36  1  0
 13 37  1  0
 16 38  1  0
 18 39  1  0
 18 40  1  0
 22 41  1  0
 22 42  1  0
 23 43  1  0
 23 44  1  0
 24 45  1  0
 24 46  1  0
M  END
$$$$
