
     RDKit          3D

 61 64  0  0  0  0  0  0  0  0999 V2000
   -6.8742   -4.9830   -0.7763 C   0  0  0  0  0  0  0  0  0  0  0  0
   -6.1898   -3.7321   -0.8682 O   0  0  0  0  0  0  0  0  0  0  0  0
   -4.9912   -3.7023   -0.2197 C   0  0  0  0  0  0  0  0  0  0  0  0
   -4.4948   -4.6421    0.3865 O   0  0  0  0  0  0  0  0  0  0  0  0
   -4.3442   -2.3516   -0.3998 C   0  0  0  0  0  0  0  0  0  0  0  0
   -3.4004   -2.0365    0.7587 C   0  0  0  0  0  0  0  0  0  0  0  0
   -2.7355   -0.6984    0.5649 C   0  0  0  0  0  0  0  0  0  0  0  0
   -1.4446   -0.3976    0.2906 C   0  0  0  0  0  0  0  0  0  0  0  0
   -0.4636   -1.4788    0.0780 C   0  0  0  0  0  0  0  0  0  0  0  0
    0.8107   -1.2477   -0.3037 C   0  0  0  0  0  0  0  0  0  0  0  0
    1.7822   -2.3721   -0.5224 C   0  0  0  0  0  0  0  0  0  0  0  0
    3.1698   -1.8791   -0.1789 C   0  0  0  0  0  0  0  0  0  0  0  0
    3.8087   -2.3711    0.7513 O   0  0  0  0  0  0  0  0  0  0  0  0
    3.6665   -0.6846   -1.0070 C   0  0  0  0  0  0  0  0  0  0  0  0
    3.7209   -0.9904   -2.5115 C   0  0  0  0  0  0  0  0  0  0  0  0
    4.9253   -0.1812   -0.5222 O   0  0  0  0  0  0  0  0  0  0  0  0
    6.0277   -0.9750   -0.6327 C   0  0  0  0  0  0  0  0  0  0  0  0
    6.0347   -2.0589   -1.2036 O   0  0  0  0  0  0  0  0  0  0  0  0
    7.1593   -0.3186   -0.0059 C   0  0  0  0  0  0  0  0  0  0  0  0
    7.2211    0.9030    0.6434 C   0  0  0  0  0  0  0  0  0  0  0  0
    8.5278    1.2004    1.1296 C   0  0  0  0  0  0  0  0  0  0  0  0
    9.4246    0.1989    0.8361 C   0  0  0  0  0  0  0  0  0  0  0  0
    8.6928   -1.0875   -0.0195 S   0  0  0  0  0  0  0  0  0  0  0  0
    2.6778    0.4760   -0.8378 C   0  0  0  0  0  0  0  0  0  0  0  0
    3.0070    1.6503   -1.0186 O   0  0  0  0  0  0  0  0  0  0  0  0
    1.2612    0.1271   -0.4846 C   0  0  0  0  0  0  0  0  0  0  0  0
    0.3848    1.1219   -0.2678 C   0  0  0  0  0  0  0  0  0  0  0  0
   -0.9452    0.9254    0.1238 N   0  0  0  0  0  0  0  0  0  0  0  0
   -1.7173    2.0881    0.4408 C   0  0  0  0  0  0  0  0  0  0  0  0
   -1.9502    3.0750   -0.5275 C   0  0  0  0  0  0  0  0  0  0  0  0
   -2.6803    4.2235   -0.2110 C   0  0  0  0  0  0  0  0  0  0  0  0
   -3.1836    4.4155    1.0773 C   0  0  0  0  0  0  0  0  0  0  0  0
   -3.8716    5.5836    1.2532 O   0  0  0  0  0  0  0  0  0  0  0  0
   -4.3670    5.8485    2.5595 C   0  0  0  0  0  0  0  0  0  0  0  0
   -2.9531    3.4442    2.0505 C   0  0  0  0  0  0  0  0  0  0  0  0
   -2.2224    2.2922    1.7343 C   0  0  0  0  0  0  0  0  0  0  0  0
   -7.8674   -4.8607   -1.2222 H   0  0  0  0  0  0  0  0  0  0  0  0
   -6.3312   -5.7498   -1.3396 H   0  0  0  0  0  0  0  0  0  0  0  0
   -7.0011   -5.2847    0.2702 H   0  0  0  0  0  0  0  0  0  0  0  0
   -3.8065   -2.3609   -1.3550 H   0  0  0  0  0  0  0  0  0  0  0  0
   -5.1287   -1.5852   -0.4492 H   0  0  0  0  0  0  0  0  0  0  0  0
   -3.9724   -1.9990    1.6954 H   0  0  0  0  0  0  0  0  0  0  0  0
   -2.6808   -2.8484    0.8965 H   0  0  0  0  0  0  0  0  0  0  0  0
   -3.4433    0.1240    0.6583 H   0  0  0  0  0  0  0  0  0  0  0  0
   -0.7839   -2.5059    0.2133 H   0  0  0  0  0  0  0  0  0  0  0  0
    1.5512   -3.2349    0.1133 H   0  0  0  0  0  0  0  0  0  0  0  0
    1.7669   -2.7119   -1.5629 H   0  0  0  0  0  0  0  0  0  0  0  0
    2.7289   -0.9508   -2.9759 H   0  0  0  0  0  0  0  0  0  0  0  0
    4.1161   -1.9922   -2.7088 H   0  0  0  0  0  0  0  0  0  0  0  0
    4.3623   -0.2727   -3.0355 H   0  0  0  0  0  0  0  0  0  0  0  0
    6.3651    1.5577    0.7657 H   0  0  0  0  0  0  0  0  0  0  0  0
    8.7944    2.1023    1.6672 H   0  0  0  0  0  0  0  0  0  0  0  0
   10.4769    0.1576    1.0825 H   0  0  0  0  0  0  0  0  0  0  0  0
    0.6813    2.1661   -0.3491 H   0  0  0  0  0  0  0  0  0  0  0  0
   -1.5722    2.9479   -1.5385 H   0  0  0  0  0  0  0  0  0  0  0  0
   -2.8544    4.9769   -0.9751 H   0  0  0  0  0  0  0  0  0  0  0  0
   -3.5524    5.8993    3.2883 H   0  0  0  0  0  0  0  0  0  0  0  0
   -5.1156    5.1065    2.8537 H   0  0  0  0  0  0  0  0  0  0  0  0
   -4.8568    6.8266    2.5400 H   0  0  0  0  0  0  0  0  0  0  0  0
   -3.3189    3.5517    3.0660 H   0  0  0  0  0  0  0  0  0  0  0  0
   -2.0315    1.5554    2.5113 H   0  0  0  0  0  0  0  0  0  0  0  0
  1  2  1  0
  2  3  1  0
  3  4  2  0
  3  5  1  0
  5  6  1  0
  6  7  1  0
  7  8  2  3
  8  9  1  0
  9 10  2  0
 10 11  1  0
 11 12  1  0
 12 13  2  0
 12 14  1  0
 14 15  1  0
 14 16  1  0
 16 17  1  0
 17 18  2  0
 17 19  1  0
 19 20  2  0
 20 21  1  0
 21 22  2  0
 22 23  1  0
 14 24  1  0
 24 25  2  0
 24 26  1  0
 26 27  2  0
 27 28  1  0
 28 29  1  0
 29 30  2  0
 30 31  1  0
 31 32  2  0
 32 33  1  0
 33 34  1  0
 32 35  1  0
 35 36  2  0
 28  8  1  0
 36 29  1  0
 26 10  1  0
 23 19  1  0
  1 37  1  0
  1 38  1  0
  1 39  1  0
  5 40  1  0
  5 41  1  0
  6 42  1  0
  6 43  1  0
  7 44  1  0
  9 45  1  0
 11 46  1  0
 11 47  1  0
 15 48  1  0
 15 49  1  0
 15 50  1  0
 20 51  1  0
 21 52  1  0
 22 53  1  0
 27 54  1  0
 30 55  1  0
 31 56  1  0
 34 57  1  0
 34 58  1  0
 34 59  1  0
 35 60  1  0
 36 61  1  0
M  END
$$$$
