
     RDKit          3D

 42 46  0  0  0  0  0  0  0  0999 V2000
   -3.1637   -0.2205    2.2192 O   0  0  0  0  0  0  0  0  0  0  0  0
   -2.5417   -0.2810    1.1533 C   0  0  0  0  0  0  0  0  0  0  0  0
   -2.8445   -1.4324    0.2577 C   0  0  0  0  0  0  0  0  0  0  0  0
   -3.1143   -2.6748    0.8469 C   0  0  0  0  0  0  0  0  0  0  0  0
   -3.4312   -3.7765    0.0510 C   0  0  0  0  0  0  0  0  0  0  0  0
   -3.4914   -3.6394   -1.3350 C   0  0  0  0  0  0  0  0  0  0  0  0
   -3.2406   -2.4012   -1.9264 C   0  0  0  0  0  0  0  0  0  0  0  0
   -2.9232   -1.2957   -1.1330 C   0  0  0  0  0  0  0  0  0  0  0  0
   -1.5943    0.8450    0.6767 C   0  0  0  0  0  0  0  0  0  0  0  0
   -1.0241    1.5113    1.8087 O   0  0  0  0  0  0  0  0  0  0  0  0
   -0.1748    2.5359    1.4874 C   0  0  0  0  0  0  0  0  0  0  0  0
    0.0346    3.4983    2.4740 C   0  0  0  0  0  0  0  0  0  0  0  0
    0.8736    4.5826    2.2233 C   0  0  0  0  0  0  0  0  0  0  0  0
    1.5058    4.7009    0.9869 C   0  0  0  0  0  0  0  0  0  0  0  0
    1.3121    3.7265    0.0056 C   0  0  0  0  0  0  0  0  0  0  0  0
    0.4846    2.6207    0.2554 C   0  0  0  0  0  0  0  0  0  0  0  0
    0.2814    1.5460   -0.7818 C   0  0  0  0  0  0  0  0  0  0  0  0
    1.5595    0.8410   -1.2151 C   0  0  0  0  0  0  0  0  0  0  0  0
    1.4015   -0.4625   -0.4828 C   0  0  0  0  0  0  0  0  0  0  0  0
    2.4810   -1.4199   -0.4066 C   0  0  0  0  0  0  0  0  0  0  0  0
    3.7528   -1.3348   -0.9444 C   0  0  0  0  0  0  0  0  0  0  0  0
    4.5474   -2.4842   -0.6587 C   0  0  0  0  0  0  0  0  0  0  0  0
    3.8582   -3.4123    0.0870 C   0  0  0  0  0  0  0  0  0  0  0  0
    2.2669   -2.8984    0.4363 S   0  0  0  0  0  0  0  0  0  0  0  0
    0.2253   -0.6491    0.0378 N   0  0  0  0  0  0  0  0  0  0  0  0
   -0.5388    0.4626   -0.2572 N   0  0  0  0  0  0  0  0  0  0  0  0
   -3.0724   -2.7855    1.9287 H   0  0  0  0  0  0  0  0  0  0  0  0
   -3.6307   -4.7394    0.5140 H   0  0  0  0  0  0  0  0  0  0  0  0
   -3.7367   -4.4984   -1.9544 H   0  0  0  0  0  0  0  0  0  0  0  0
   -3.2934   -2.2970   -3.0070 H   0  0  0  0  0  0  0  0  0  0  0  0
   -2.7439   -0.3408   -1.6163 H   0  0  0  0  0  0  0  0  0  0  0  0
   -2.2469    1.5581    0.1514 H   0  0  0  0  0  0  0  0  0  0  0  0
   -0.4652    3.4048    3.4348 H   0  0  0  0  0  0  0  0  0  0  0  0
    1.0297    5.3354    2.9916 H   0  0  0  0  0  0  0  0  0  0  0  0
    2.1543    5.5512    0.7903 H   0  0  0  0  0  0  0  0  0  0  0  0
    1.8172    3.8360   -0.9513 H   0  0  0  0  0  0  0  0  0  0  0  0
   -0.2463    1.9827   -1.6379 H   0  0  0  0  0  0  0  0  0  0  0  0
    1.5549    0.6326   -2.2905 H   0  0  0  0  0  0  0  0  0  0  0  0
    2.4851    1.3541   -0.9434 H   0  0  0  0  0  0  0  0  0  0  0  0
    4.1104   -0.4892   -1.5190 H   0  0  0  0  0  0  0  0  0  0  0  0
    5.5718   -2.6226   -0.9827 H   0  0  0  0  0  0  0  0  0  0  0  0
    4.2097   -4.3699    0.4462 H   0  0  0  0  0  0  0  0  0  0  0  0
  1  2  2  0
  2  3  1  0
  3  4  2  0
  4  5  1  0
  5  6  2  0
  6  7  1  0
  7  8  2  0
  2  9  1  0
  9 10  1  0
 10 11  1  0
 11 12  2  0
 12 13  1  0
 13 14  2  0
 14 15  1  0
 15 16  2  0
 16 17  1  0
 17 18  1  0
 18 19  1  0
 19 20  1  0
 20 21  2  0
 21 22  1  0
 22 23  2  0
 23 24  1  0
 19 25  2  0
 25 26  1  0
  8  3  1  0
 26  9  1  0
 16 11  1  0
 26 17  1  0
 24 20  1  0
  4 27  1  0
  5 28  1  0
  6 29  1  0
  7 30  1  0
  8 31  1  0
  9 32  1  0
 12 33  1  0
 13 34  1  0
 14 35  1  0
 15 36  1  0
 17 37  1  0
 18 38  1  0
 18 39  1  0
 21 40  1  0
 22 41  1  0
 23 42  1  0
M  END
$$$$
