
     RDKit          3D

 52 53  0  0  0  0  0  0  0  0999 V2000
    5.7734    3.7085   -2.1775 C   0  0  0  0  0  0  0  0  0  0  0  0
    4.7477    3.3426   -1.2633 O   0  0  0  0  0  0  0  0  0  0  0  0
    4.7755    2.0532   -0.7930 C   0  0  0  0  0  0  0  0  0  0  0  0
    5.6071    1.0311   -1.2533 C   0  0  0  0  0  0  0  0  0  0  0  0
    5.5408   -0.2362   -0.6787 C   0  0  0  0  0  0  0  0  0  0  0  0
    4.6558   -0.4906    0.3720 C   0  0  0  0  0  0  0  0  0  0  0  0
    3.8128    0.5178    0.8393 C   0  0  0  0  0  0  0  0  0  0  0  0
    2.8943    0.3455    1.8942 N   0  0  0  0  0  0  0  0  0  0  0  0
    2.7157   -0.7702    2.6943 C   0  0  0  0  0  0  0  0  0  0  0  0
    3.3135   -1.8340    2.6086 O   0  0  0  0  0  0  0  0  0  0  0  0
    1.5659   -0.5916    3.6972 C   0  0  0  0  0  0  0  0  0  0  0  0
    0.3033   -0.9610    3.0619 N   0  0  0  0  0  0  0  0  0  0  0  0
    0.0088   -2.3874    2.9967 C   0  0  0  0  0  0  0  0  0  0  0  0
   -0.2761    0.0012    2.2436 C   0  0  0  0  0  0  0  0  0  0  0  0
    0.1071    1.1724    2.2407 O   0  0  0  0  0  0  0  0  0  0  0  0
   -1.3301   -0.4479    1.2984 C   0  0  0  0  0  0  0  0  0  0  0  0
   -2.1217    0.4416    0.6714 C   0  0  0  0  0  0  0  0  0  0  0  0
   -3.1091    0.0324   -0.3425 C   0  0  0  0  0  0  0  0  0  0  0  0
   -2.9974    0.6197   -1.6153 C   0  0  0  0  0  0  0  0  0  0  0  0
   -3.8745    0.2773   -2.6482 C   0  0  0  0  0  0  0  0  0  0  0  0
   -3.6419    0.9238   -3.8352 O   0  0  0  0  0  0  0  0  0  0  0  0
   -4.4946    0.5909   -4.9254 C   0  0  0  0  0  0  0  0  0  0  0  0
   -4.8780   -0.6611   -2.4059 C   0  0  0  0  0  0  0  0  0  0  0  0
   -5.0128   -1.2428   -1.1356 C   0  0  0  0  0  0  0  0  0  0  0  0
   -4.1428   -0.8963   -0.0941 C   0  0  0  0  0  0  0  0  0  0  0  0
   -4.2213   -1.4039    1.1806 O   0  0  0  0  0  0  0  0  0  0  0  0
   -5.3353   -2.2328    1.4918 C   0  0  0  0  0  0  0  0  0  0  0  0
    3.8702    1.7867    0.2348 C   0  0  0  0  0  0  0  0  0  0  0  0
    6.7637    3.5496   -1.7434 H   0  0  0  0  0  0  0  0  0  0  0  0
    5.6680    4.7729   -2.3897 H   0  0  0  0  0  0  0  0  0  0  0  0
    5.6661    3.1657   -3.1228 H   0  0  0  0  0  0  0  0  0  0  0  0
    6.3086    1.1889   -2.0687 H   0  0  0  0  0  0  0  0  0  0  0  0
    6.1806   -1.0338   -1.0474 H   0  0  0  0  0  0  0  0  0  0  0  0
    4.6331   -1.4877    0.7839 H   0  0  0  0  0  0  0  0  0  0  0  0
    2.2315    1.1113    2.0402 H   0  0  0  0  0  0  0  0  0  0  0  0
    1.7422   -1.2233    4.5725 H   0  0  0  0  0  0  0  0  0  0  0  0
    1.5335    0.4434    4.0505 H   0  0  0  0  0  0  0  0  0  0  0  0
    0.5075   -2.8166    2.1193 H   0  0  0  0  0  0  0  0  0  0  0  0
   -1.0676   -2.5489    2.9222 H   0  0  0  0  0  0  0  0  0  0  0  0
    0.3597   -2.8844    3.9044 H   0  0  0  0  0  0  0  0  0  0  0  0
   -1.4114   -1.5011    1.0683 H   0  0  0  0  0  0  0  0  0  0  0  0
   -2.0279    1.5102    0.8474 H   0  0  0  0  0  0  0  0  0  0  0  0
   -2.2047    1.3444   -1.8131 H   0  0  0  0  0  0  0  0  0  0  0  0
   -4.2005    1.2098   -5.7832 H   0  0  0  0  0  0  0  0  0  0  0  0
   -5.5409    0.8209   -4.6990 H   0  0  0  0  0  0  0  0  0  0  0  0
   -4.3757   -0.4635   -5.2059 H   0  0  0  0  0  0  0  0  0  0  0  0
   -5.5773   -0.9660   -3.1794 H   0  0  0  0  0  0  0  0  0  0  0  0
   -5.8088   -1.9661   -0.9971 H   0  0  0  0  0  0  0  0  0  0  0  0
   -5.3149   -2.4434    2.5691 H   0  0  0  0  0  0  0  0  0  0  0  0
   -6.2827   -1.7268    1.2761 H   0  0  0  0  0  0  0  0  0  0  0  0
   -5.2619   -3.1880    0.9621 H   0  0  0  0  0  0  0  0  0  0  0  0
    3.2236    2.5959    0.5760 H   0  0  0  0  0  0  0  0  0  0  0  0
  1  2  1  0
  2  3  1  0
  3  4  2  0
  4  5  1  0
  5  6  2  0
  6  7  1  0
  7  8  1  0
  8  9  1  0
  9 10  2  0
  9 11  1  0
 11 12  1  0
 12 13  1  0
 12 14  1  0
 14 15  2  0
 14 16  1  0
 16 17  2  3
 17 18  1  0
 18 19  2  0
 19 20  1  0
 20 21  1  0
 21 22  1  0
 20 23  2  0
 23 24  1  0
 24 25  2  0
 25 26  1  0
 26 27  1  0
  7 28  2  0
 28  3  1  0
 25 18  1  0
  1 29  1  0
  1 30  1  0
  1 31  1  0
  4 32  1  0
  5 33  1  0
  6 34  1  0
  8 35  1  0
 11 36  1  0
 11 37  1  0
 13 38  1  0
 13 39  1  0
 13 40  1  0
 16 41  1  0
 17 42  1  0
 19 43  1  0
 22 44  1  0
 22 45  1  0
 22 46  1  0
 23 47  1  0
 24 48  1  0
 27 49  1  0
 27 50  1  0
 27 51  1  0
 28 52  1  0
M  END
$$$$
