
     RDKit          3D

 41 44  0  0  0  0  0  0  0  0999 V2000
   -0.2538   -4.4118    0.0024 O   0  0  0  0  0  0  0  0  0  0  0  0
    0.3264   -3.3779   -0.3025 C   0  0  0  0  0  0  0  0  0  0  0  0
    1.4069   -3.4107   -1.1031 O   0  0  0  0  0  0  0  0  0  0  0  0
   -0.0538   -1.9839    0.1765 C   0  0  0  0  0  0  0  0  0  0  0  0
    0.6384   -1.6970    1.5163 C   0  0  0  0  0  0  0  0  0  0  0  0
    1.9324   -0.9597    1.3510 C   0  0  0  0  0  0  0  0  0  0  0  0
    3.1919   -1.5155    1.2388 C   0  0  0  0  0  0  0  0  0  0  0  0
    4.0974   -0.4999    1.0845 N   0  0  0  0  0  0  0  0  0  0  0  0
    3.4561    0.7167    1.0998 C   0  0  0  0  0  0  0  0  0  0  0  0
    3.9738    2.0123    0.9752 C   0  0  0  0  0  0  0  0  0  0  0  0
    3.0716    3.0789    1.0273 C   0  0  0  0  0  0  0  0  0  0  0  0
    1.7074    2.8575    1.1992 C   0  0  0  0  0  0  0  0  0  0  0  0
    1.2071    1.5558    1.3217 C   0  0  0  0  0  0  0  0  0  0  0  0
    2.0956    0.4613    1.2705 C   0  0  0  0  0  0  0  0  0  0  0  0
   -1.5373   -1.9551    0.3871 N   0  0  0  0  0  0  0  0  0  0  0  0
   -2.4929   -1.8129   -0.9943 S   0  0  0  0  0  6  0  0  0  0  0  0
   -3.7172   -2.5133   -0.6647 O   0  0  0  0  0  0  0  0  0  0  0  0
   -1.7262   -2.1727   -2.1624 O   0  0  0  0  0  0  0  0  0  0  0  0
   -2.8755   -0.0993   -1.0326 C   0  0  0  0  0  0  0  0  0  0  0  0
   -4.1586    0.3531   -0.6435 C   0  0  0  0  0  0  0  0  0  0  0  0
   -4.5360    1.7161   -0.6561 C   0  0  0  0  0  0  0  0  0  0  0  0
   -3.6687    2.7436   -1.0599 C   0  0  0  0  0  0  0  0  0  0  0  0
   -2.3729    2.3459   -1.4701 C   0  0  0  0  0  0  0  0  0  0  0  0
   -1.4042    3.1739   -1.8888 N   0  0  0  0  0  0  0  0  0  0  0  0
   -0.0975    2.2202   -2.2614 S   0  0  0  0  0  0  0  0  0  0  0  0
   -0.6994    0.7223   -1.8905 N   0  0  0  0  0  0  0  0  0  0  0  0
   -1.9611    0.8891   -1.4636 C   0  0  0  0  0  0  0  0  0  0  0  0
    1.4707   -4.3457   -1.3885 H   0  0  0  0  0  0  0  0  0  0  0  0
    0.2248   -1.2477   -0.5794 H   0  0  0  0  0  0  0  0  0  0  0  0
    0.8197   -2.6271    2.0718 H   0  0  0  0  0  0  0  0  0  0  0  0
   -0.0156   -1.0908    2.1578 H   0  0  0  0  0  0  0  0  0  0  0  0
    3.5209   -2.5462    1.2446 H   0  0  0  0  0  0  0  0  0  0  0  0
    5.0946   -0.6184    0.9692 H   0  0  0  0  0  0  0  0  0  0  0  0
    5.0360    2.1889    0.8420 H   0  0  0  0  0  0  0  0  0  0  0  0
    3.4426    4.0967    0.9317 H   0  0  0  0  0  0  0  0  0  0  0  0
    1.0225    3.7012    1.2339 H   0  0  0  0  0  0  0  0  0  0  0  0
    0.1405    1.3965    1.4503 H   0  0  0  0  0  0  0  0  0  0  0  0
   -1.8872   -2.7342    0.9542 H   0  0  0  0  0  0  0  0  0  0  0  0
   -4.9034   -0.3749   -0.3142 H   0  0  0  0  0  0  0  0  0  0  0  0
   -5.5461    1.9800   -0.3392 H   0  0  0  0  0  0  0  0  0  0  0  0
   -3.9696    3.7848   -1.0648 H   0  0  0  0  0  0  0  0  0  0  0  0
  1  2  2  0
  2  3  1  0
  2  4  1  0
  4  5  1  0
  5  6  1  0
  6  7  2  0
  7  8  1  0
  8  9  1  0
  9 10  2  0
 10 11  1  0
 11 12  2  0
 12 13  1  0
 13 14  2  0
  4 15  1  0
 15 16  1  0
 16 17  2  0
 16 18  2  0
 16 19  1  0
 19 20  2  0
 20 21  1  0
 21 22  2  0
 22 23  1  0
 23 24  2  0
 24 25  1  0
 25 26  1  0
 26 27  2  0
 14  6  1  0
 27 19  1  0
 14  9  1  0
 27 23  1  0
  3 28  1  0
  4 29  1  0
  5 30  1  0
  5 31  1  0
  7 32  1  0
  8 33  1  0
 10 34  1  0
 11 35  1  0
 12 36  1  0
 13 37  1  0
 15 38  1  0
 20 39  1  0
 21 40  1  0
 22 41  1  0
M  END
$$$$
