
     RDKit          3D

 67 69  0  0  0  0  0  0  0  0999 V2000
   -1.5878    2.3134   -3.5671 C   0  0  0  0  0  0  0  0  0  0  0  0
   -2.7249    1.4046   -3.0764 C   0  0  0  0  0  0  0  0  0  0  0  0
   -2.9875    0.2854   -4.0954 C   0  0  0  0  0  0  0  0  0  0  0  0
   -4.0058    2.2495   -2.9512 C   0  0  0  0  0  0  0  0  0  0  0  0
   -2.4197    0.8475   -1.7512 N   0  0  0  0  0  0  0  0  0  0  0  0
   -1.3434    0.0198   -1.4583 C   0  0  0  0  0  0  0  0  0  0  0  0
   -0.5365   -0.3433   -2.3103 O   0  0  0  0  0  0  0  0  0  0  0  0
   -1.2593   -0.3951    0.0436 C   0  0  0  0  0  0  0  0  0  0  0  0
   -2.4908   -1.1073    0.6149 C   0  0  0  0  0  0  0  0  0  0  0  0
   -2.7008   -1.0703    2.0084 C   0  0  0  0  0  0  0  0  0  0  0  0
   -3.8033   -1.7010    2.5866 C   0  0  0  0  0  0  0  0  0  0  0  0
   -4.7101   -2.3675    1.7757 C   0  0  0  0  0  0  0  0  0  0  0  0
   -5.7685   -2.9751    2.3263 F   0  0  0  0  0  0  0  0  0  0  0  0
   -4.5369   -2.4106    0.3993 C   0  0  0  0  0  0  0  0  0  0  0  0
   -3.4330   -1.7805   -0.1808 C   0  0  0  0  0  0  0  0  0  0  0  0
    0.0295   -1.0314    0.4343 N   0  0  0  0  0  0  0  0  0  0  0  0
    0.8776   -0.2544    1.2366 C   0  0  0  0  0  0  0  0  0  0  0  0
    0.5469    0.8591    1.6543 O   0  0  0  0  0  0  0  0  0  0  0  0
    2.2250   -0.8466    1.6316 C   0  0  0  0  0  0  0  0  0  0  0  0
    3.0489    0.1223    2.4787 C   0  0  0  0  0  0  0  0  0  0  0  0
    3.6870    1.2193    1.6414 C   0  0  0  0  0  0  0  0  0  0  0  0
    3.7221    1.1671    0.4172 O   0  0  0  0  0  0  0  0  0  0  0  0
    4.2531    2.1967    2.4282 N   0  0  0  0  0  0  0  0  0  0  0  0
    4.9488    3.3361    2.0241 C   0  0  0  0  0  0  0  0  0  0  0  0
    5.0957    3.7330    0.7025 C   0  0  0  0  0  0  0  0  0  0  0  0
    5.8279    4.8861    0.4247 C   0  0  0  0  0  0  0  0  0  0  0  0
    6.3976    5.6019    1.4694 C   0  0  0  0  0  0  0  0  0  0  0  0
    6.1931    5.1408    2.7573 C   0  0  0  0  0  0  0  0  0  0  0  0
    5.4812    4.0304    3.0554 N   0  0  0  0  0  0  0  0  0  0  0  0
    0.3425   -2.4365    0.0887 C   0  0  0  0  0  0  0  0  0  0  0  0
   -0.2349   -3.0501   -1.1935 C   0  0  0  0  0  0  0  0  0  0  0  0
   -0.2822   -4.5420   -0.8967 C   0  0  0  0  0  0  0  0  0  0  0  0
   -0.7521   -4.5846    0.5455 C   0  0  0  0  0  0  0  0  0  0  0  0
   -0.0182   -3.4282    1.2163 C   0  0  0  0  0  0  0  0  0  0  0  0
   -1.8529    2.8022   -4.5114 H   0  0  0  0  0  0  0  0  0  0  0  0
   -0.6601    1.7584   -3.7411 H   0  0  0  0  0  0  0  0  0  0  0  0
   -1.3663    3.0947   -2.8314 H   0  0  0  0  0  0  0  0  0  0  0  0
   -2.0951   -0.3210   -4.2794 H   0  0  0  0  0  0  0  0  0  0  0  0
   -3.3056    0.6966   -5.0612 H   0  0  0  0  0  0  0  0  0  0  0  0
   -3.7742   -0.3909   -3.7403 H   0  0  0  0  0  0  0  0  0  0  0  0
   -4.8481    1.6422   -2.5978 H   0  0  0  0  0  0  0  0  0  0  0  0
   -3.8698    3.0654   -2.2320 H   0  0  0  0  0  0  0  0  0  0  0  0
   -4.2908    2.6927   -3.9120 H   0  0  0  0  0  0  0  0  0  0  0  0
   -2.9730    1.1786   -0.9681 H   0  0  0  0  0  0  0  0  0  0  0  0
   -1.3007    0.5917    0.5264 H   0  0  0  0  0  0  0  0  0  0  0  0
   -1.9915   -0.5487    2.6513 H   0  0  0  0  0  0  0  0  0  0  0  0
   -3.9562   -1.6758    3.6607 H   0  0  0  0  0  0  0  0  0  0  0  0
   -5.2608   -2.9370   -0.2155 H   0  0  0  0  0  0  0  0  0  0  0  0
   -3.3250   -1.8287   -1.2621 H   0  0  0  0  0  0  0  0  0  0  0  0
    2.7834   -1.1260    0.7336 H   0  0  0  0  0  0  0  0  0  0  0  0
    2.0369   -1.7430    2.2308 H   0  0  0  0  0  0  0  0  0  0  0  0
    3.8664   -0.4322    2.9549 H   0  0  0  0  0  0  0  0  0  0  0  0
    2.4418    0.5706    3.2734 H   0  0  0  0  0  0  0  0  0  0  0  0
    4.2324    2.1017    3.4338 H   0  0  0  0  0  0  0  0  0  0  0  0
    4.6494    3.1839   -0.1186 H   0  0  0  0  0  0  0  0  0  0  0  0
    5.9509    5.2174   -0.6032 H   0  0  0  0  0  0  0  0  0  0  0  0
    6.9757    6.4993    1.2832 H   0  0  0  0  0  0  0  0  0  0  0  0
    6.6159    5.6632    3.6116 H   0  0  0  0  0  0  0  0  0  0  0  0
    1.4282   -2.4981   -0.0384 H   0  0  0  0  0  0  0  0  0  0  0  0
   -1.2423   -2.7092   -1.4240 H   0  0  0  0  0  0  0  0  0  0  0  0
    0.3924   -2.8364   -2.0653 H   0  0  0  0  0  0  0  0  0  0  0  0
    0.7186   -4.9798   -0.9868 H   0  0  0  0  0  0  0  0  0  0  0  0
   -0.9559   -5.0789   -1.5713 H   0  0  0  0  0  0  0  0  0  0  0  0
   -1.8327   -4.4140    0.5913 H   0  0  0  0  0  0  0  0  0  0  0  0
   -0.5426   -5.5448    1.0255 H   0  0  0  0  0  0  0  0  0  0  0  0
    0.8990   -3.7961    1.6938 H   0  0  0  0  0  0  0  0  0  0  0  0
   -0.6288   -2.9867    2.0095 H   0  0  0  0  0  0  0  0  0  0  0  0
  1  2  1  0
  2  3  1  0
  2  4  1  0
  2  5  1  0
  5  6  1  0
  6  7  2  0
  6  8  1  0
  8  9  1  0
  9 10  2  0
 10 11  1  0
 11 12  2  0
 12 13  1  0
 12 14  1  0
 14 15  2  0
  8 16  1  0
 16 17  1  0
 17 18  2  0
 17 19  1  0
 19 20  1  0
 20 21  1  0
 21 22  2  0
 21 23  1  0
 23 24  1  0
 24 25  2  0
 25 26  1  0
 26 27  2  0
 27 28  1  0
 28 29  2  0
 16 30  1  0
 30 31  1  0
 31 32  1  0
 32 33  1  0
 33 34  1  0
 15  9  1  0
 29 24  1  0
 34 30  1  0
  1 35  1  0
  1 36  1  0
  1 37  1  0
  3 38  1  0
  3 39  1  0
  3 40  1  0
  4 41  1  0
  4 42  1  0
  4 43  1  0
  5 44  1  0
  8 45  1  0
 10 46  1  0
 11 47  1  0
 14 48  1  0
 15 49  1  0
 19 50  1  0
 19 51  1  0
 20 52  1  0
 20 53  1  0
 23 54  1  0
 25 55  1  0
 26 56  1  0
 27 57  1  0
 28 58  1  0
 30 59  1  0
 31 60  1  0
 31 61  1  0
 32 62  1  0
 32 63  1  0
 33 64  1  0
 33 65  1  0
 34 66  1  0
 34 67  1  0
M  END
$$$$
