
     RDKit          3D

 33 35  0  0  0  0  0  0  0  0999 V2000
    4.3675   -0.2131   -1.4424 C   0  0  0  0  0  0  0  0  0  0  0  0
    4.6405   -0.0801    0.0212 C   0  0  0  0  0  0  0  0  0  0  0  0
    5.9361   -0.2703    0.6078 C   0  0  0  0  0  0  0  0  0  0  0  0
    5.9310   -0.1015    1.9727 C   0  0  0  0  0  0  0  0  0  0  0  0
    4.3780    0.2847    2.5595 S   0  0  0  0  0  0  0  0  0  0  0  0
    3.6940    0.2334    0.9895 C   0  0  0  0  0  0  0  0  0  0  0  0
    2.2817    0.5006    0.7922 C   0  0  0  0  0  0  0  0  0  0  0  0
    1.4762    0.7483    1.7800 N   0  0  0  0  0  0  0  0  0  0  0  0
    0.1425    0.9537    1.5085 N   0  0  0  0  0  0  0  0  0  0  0  0
   -0.5895    0.2823    0.5285 C   0  0  0  0  0  0  0  0  0  0  0  0
   -0.1048   -0.5282   -0.2565 O   0  0  0  0  0  0  0  0  0  0  0  0
   -1.9962    0.6049    0.5248 C   0  0  0  0  0  0  0  0  0  0  0  0
   -2.5827    1.7553    1.0220 N   0  0  0  0  0  0  0  0  0  0  0  0
   -3.9329    1.8027    0.8927 N   0  0  0  0  0  0  0  0  0  0  0  0
   -4.1881    0.6711    0.2552 C   0  0  0  0  0  0  0  0  0  0  0  0
   -3.0538   -0.0906   -0.0035 C   0  0  0  0  0  0  0  0  0  0  0  0
   -3.3723   -1.3367   -0.7210 C   0  0  0  0  0  0  0  0  0  0  0  0
   -4.9337   -1.3958   -0.5828 C   0  0  0  0  0  0  0  0  0  0  0  0
   -5.4288    0.0523   -0.2433 C   0  0  0  0  0  0  0  0  0  0  0  0
    3.6126   -0.9854   -1.6224 H   0  0  0  0  0  0  0  0  0  0  0  0
    5.2724   -0.4921   -1.9918 H   0  0  0  0  0  0  0  0  0  0  0  0
    4.0040    0.7354   -1.8506 H   0  0  0  0  0  0  0  0  0  0  0  0
    6.8309   -0.5230    0.0509 H   0  0  0  0  0  0  0  0  0  0  0  0
    6.7656   -0.1887    2.6547 H   0  0  0  0  0  0  0  0  0  0  0  0
    1.9409    0.5138   -0.2564 H   0  0  0  0  0  0  0  0  0  0  0  0
   -0.3662    1.2610    2.3307 H   0  0  0  0  0  0  0  0  0  0  0  0
   -2.1229    2.5557    1.4418 H   0  0  0  0  0  0  0  0  0  0  0  0
   -3.0860   -1.2620   -1.7749 H   0  0  0  0  0  0  0  0  0  0  0  0
   -2.9038   -2.2191   -0.2771 H   0  0  0  0  0  0  0  0  0  0  0  0
   -5.1900   -2.0622    0.2515 H   0  0  0  0  0  0  0  0  0  0  0  0
   -5.4131   -1.7966   -1.4814 H   0  0  0  0  0  0  0  0  0  0  0  0
   -5.7797    0.5579   -1.1485 H   0  0  0  0  0  0  0  0  0  0  0  0
   -6.2293    0.0323    0.5008 H   0  0  0  0  0  0  0  0  0  0  0  0
  1  2  1  0
  2  3  1  0
  3  4  2  0
  4  5  1  0
  5  6  1  0
  6  7  1  0
  7  8  2  3
  8  9  1  0
  9 10  1  0
 10 11  2  0
 10 12  1  0
 12 13  1  0
 13 14  1  0
 14 15  2  0
 15 16  1  0
 16 17  1  0
 17 18  1  0
 18 19  1  0
  6  2  2  0
 16 12  2  0
 19 15  1  0
  1 20  1  0
  1 21  1  0
  1 22  1  0
  3 23  1  0
  4 24  1  0
  7 25  1  0
  9 26  1  0
 13 27  1  0
 17 28  1  0
 17 29  1  0
 18 30  1  0
 18 31  1  0
 19 32  1  0
 19 33  1  0
M  END
$$$$
