
     RDKit          3D

 37 38  0  0  0  0  0  0  0  0999 V2000
    6.9266   -2.3407    0.1486 C   0  0  0  0  0  0  0  0  0  0  0  0
    5.7669   -2.0536   -0.6233 O   0  0  0  0  0  0  0  0  0  0  0  0
    4.8116   -1.2720   -0.0363 C   0  0  0  0  0  0  0  0  0  0  0  0
    4.8742   -0.7170    1.2403 C   0  0  0  0  0  0  0  0  0  0  0  0
    3.8175    0.0686    1.7164 C   0  0  0  0  0  0  0  0  0  0  0  0
    2.6880    0.3113    0.9222 C   0  0  0  0  0  0  0  0  0  0  0  0
    1.5989    1.1655    1.4877 C   0  0  0  0  0  0  0  0  0  0  0  0
    1.6404    1.4950    2.6733 O   0  0  0  0  0  0  0  0  0  0  0  0
    0.4673    1.6268    0.6092 C   0  0  0  0  0  0  0  0  0  0  0  0
   -0.6553    0.6378    0.5247 C   0  0  0  0  0  0  0  0  0  0  0  0
   -0.5772   -0.5525    0.8132 O   0  0  0  0  0  0  0  0  0  0  0  0
   -1.9797    1.1662   -0.0221 C   0  0  0  0  0  0  0  0  0  0  0  0
   -2.0179    2.2931   -0.4878 O   0  0  0  0  0  0  0  0  0  0  0  0
   -2.9889    0.2333    0.0877 N   0  0  0  0  0  0  0  0  0  0  0  0
   -4.3314    0.3640   -0.3046 C   0  0  0  0  0  0  0  0  0  0  0  0
   -5.1682   -0.7415   -0.1024 C   0  0  0  0  0  0  0  0  0  0  0  0
   -6.5172   -0.6897   -0.4664 C   0  0  0  0  0  0  0  0  0  0  0  0
   -7.0349    0.4706   -1.0346 C   0  0  0  0  0  0  0  0  0  0  0  0
   -8.6935    0.5380   -1.4840 Cl  0  0  0  0  0  0  0  0  0  0  0  0
   -6.2143    1.5761   -1.2398 C   0  0  0  0  0  0  0  0  0  0  0  0
   -4.8639    1.5228   -0.8749 C   0  0  0  0  0  0  0  0  0  0  0  0
    2.6253   -0.2512   -0.3557 C   0  0  0  0  0  0  0  0  0  0  0  0
    3.6842   -1.0357   -0.8268 C   0  0  0  0  0  0  0  0  0  0  0  0
    6.6692   -2.8959    1.0566 H   0  0  0  0  0  0  0  0  0  0  0  0
    7.5814   -2.9759   -0.4557 H   0  0  0  0  0  0  0  0  0  0  0  0
    7.4781   -1.4252    0.3871 H   0  0  0  0  0  0  0  0  0  0  0  0
    5.7260   -0.8738    1.8939 H   0  0  0  0  0  0  0  0  0  0  0  0
    3.8840    0.4917    2.7178 H   0  0  0  0  0  0  0  0  0  0  0  0
    0.8285    1.8722   -0.3936 H   0  0  0  0  0  0  0  0  0  0  0  0
    0.0878    2.5584    1.0466 H   0  0  0  0  0  0  0  0  0  0  0  0
   -2.6998   -0.6554    0.4934 H   0  0  0  0  0  0  0  0  0  0  0  0
   -4.7842   -1.6576    0.3404 H   0  0  0  0  0  0  0  0  0  0  0  0
   -7.1542   -1.5549   -0.3036 H   0  0  0  0  0  0  0  0  0  0  0  0
   -6.6140    2.4850   -1.6821 H   0  0  0  0  0  0  0  0  0  0  0  0
   -4.2573    2.4063   -1.0494 H   0  0  0  0  0  0  0  0  0  0  0  0
    1.7677   -0.1160   -1.0061 H   0  0  0  0  0  0  0  0  0  0  0  0
    3.6281   -1.4740   -1.8213 H   0  0  0  0  0  0  0  0  0  0  0  0
  1  2  1  0
  2  3  1  0
  3  4  2  0
  4  5  1  0
  5  6  2  0
  6  7  1  0
  7  8  2  0
  7  9  1  0
  9 10  1  0
 10 11  2  0
 10 12  1  0
 12 13  2  0
 12 14  1  0
 14 15  1  0
 15 16  2  0
 16 17  1  0
 17 18  2  0
 18 19  1  0
 18 20  1  0
 20 21  2  0
  6 22  1  0
 22 23  2  0
 23  3  1  0
 21 15  1  0
  1 24  1  0
  1 25  1  0
  1 26  1  0
  4 27  1  0
  5 28  1  0
  9 29  1  0
  9 30  1  0
 14 31  1  0
 16 32  1  0
 17 33  1  0
 20 34  1  0
 21 35  1  0
 22 36  1  0
 23 37  1  0
M  END
$$$$
