
     RDKit          3D

 40 42  0  0  0  0  0  0  0  0999 V2000
   -1.9535   -0.0273    3.0347 O   0  0  0  0  0  0  0  0  0  0  0  0
   -1.7282    0.4544    1.9202 C   0  0  0  0  0  0  0  0  0  0  0  0
   -2.8129    1.2599    1.2169 C   0  0  0  0  0  0  0  0  0  0  0  0
   -3.6000    0.4755    0.1914 C   0  0  0  0  0  0  0  0  0  0  0  0
   -3.8644    1.0303   -1.0700 C   0  0  0  0  0  0  0  0  0  0  0  0
   -4.6055    0.3201   -2.0174 C   0  0  0  0  0  0  0  0  0  0  0  0
   -5.0977   -0.9446   -1.7039 C   0  0  0  0  0  0  0  0  0  0  0  0
   -6.1005   -1.9057   -2.9859 Br  0  0  0  0  0  0  0  0  0  0  0  0
   -4.8612   -1.5026   -0.4503 C   0  0  0  0  0  0  0  0  0  0  0  0
   -4.1203   -0.7914    0.4963 C   0  0  0  0  0  0  0  0  0  0  0  0
   -0.4958    0.3018    1.2911 N   0  0  0  0  0  0  0  0  0  0  0  0
   -0.2999    0.4830   -0.1562 C   0  0  0  0  0  0  0  0  0  0  0  0
    1.1690    0.7454   -0.5363 C   0  0  0  0  0  0  0  0  0  0  0  0
    2.0466   -0.2910    0.0463 N   0  0  0  0  0  0  0  0  0  0  0  0
    3.3898   -0.1514   -0.3656 C   0  0  0  0  0  0  0  0  0  0  0  0
    4.2913   -1.1898   -0.1186 C   0  0  0  0  0  0  0  0  0  0  0  0
    5.6187   -1.0738   -0.5280 C   0  0  0  0  0  0  0  0  0  0  0  0
    6.0237    0.0762   -1.1859 C   0  0  0  0  0  0  0  0  0  0  0  0
    5.0757    1.0562   -1.4103 C   0  0  0  0  0  0  0  0  0  0  0  0
    3.7837    0.9626   -1.0216 N   0  0  0  0  0  0  0  0  0  0  0  0
    1.9225   -0.3493    1.5193 C   0  0  0  0  0  0  0  0  0  0  0  0
    0.4615   -0.6147    1.9236 C   0  0  0  0  0  0  0  0  0  0  0  0
   -3.5126    1.6213    1.9818 H   0  0  0  0  0  0  0  0  0  0  0  0
   -2.3662    2.1620    0.7842 H   0  0  0  0  0  0  0  0  0  0  0  0
   -3.4961    2.0216   -1.3258 H   0  0  0  0  0  0  0  0  0  0  0  0
   -4.7967    0.7628   -2.9914 H   0  0  0  0  0  0  0  0  0  0  0  0
   -5.2507   -2.4850   -0.1965 H   0  0  0  0  0  0  0  0  0  0  0  0
   -3.9543   -1.2357    1.4773 H   0  0  0  0  0  0  0  0  0  0  0  0
   -0.9059    1.3115   -0.5275 H   0  0  0  0  0  0  0  0  0  0  0  0
   -0.6556   -0.4344   -0.6412 H   0  0  0  0  0  0  0  0  0  0  0  0
    1.4534    1.7409   -0.1683 H   0  0  0  0  0  0  0  0  0  0  0  0
    1.2425    0.7450   -1.6312 H   0  0  0  0  0  0  0  0  0  0  0  0
    3.9586   -2.0996    0.3695 H   0  0  0  0  0  0  0  0  0  0  0  0
    6.3214   -1.8801   -0.3408 H   0  0  0  0  0  0  0  0  0  0  0  0
    7.0460    0.2029   -1.5225 H   0  0  0  0  0  0  0  0  0  0  0  0
    5.3344    1.9753   -1.9279 H   0  0  0  0  0  0  0  0  0  0  0  0
    2.2531    0.6018    1.9583 H   0  0  0  0  0  0  0  0  0  0  0  0
    2.5395   -1.1482    1.9464 H   0  0  0  0  0  0  0  0  0  0  0  0
    0.1706   -1.6302    1.6262 H   0  0  0  0  0  0  0  0  0  0  0  0
    0.3760   -0.5555    3.0143 H   0  0  0  0  0  0  0  0  0  0  0  0
  1  2  2  0
  2  3  1  0
  3  4  1  0
  4  5  2  0
  5  6  1  0
  6  7  2  0
  7  8  1  0
  7  9  1  0
  9 10  2  0
  2 11  1  0
 11 12  1  0
 12 13  1  0
 13 14  1  0
 14 15  1  0
 15 16  2  0
 16 17  1  0
 17 18  2  0
 18 19  1  0
 19 20  2  0
 14 21  1  0
 21 22  1  0
 10  4  1  0
 22 11  1  0
 20 15  1  0
  3 23  1  0
  3 24  1  0
  5 25  1  0
  6 26  1  0
  9 27  1  0
 10 28  1  0
 12 29  1  0
 12 30  1  0
 13 31  1  0
 13 32  1  0
 16 33  1  0
 17 34  1  0
 18 35  1  0
 19 36  1  0
 21 37  1  0
 21 38  1  0
 22 39  1  0
 22 40  1  0
M  END
$$$$
