
     RDKit          3D

 46 48  0  0  0  0  0  0  0  0999 V2000
    5.3666    0.4176   -1.5265 C   0  0  0  0  0  0  0  0  0  0  0  0
    4.8366   -0.9405   -1.0702 C   0  0  0  0  0  0  0  0  0  0  0  0
    3.2987   -0.9392   -0.9285 C   0  0  0  0  0  0  0  0  0  0  0  0
    2.8349   -0.2428    0.2753 N   0  0  0  0  0  0  0  0  0  0  0  0
    1.6191    0.4307    0.4202 C   0  0  0  0  0  0  0  0  0  0  0  0
    1.4303    1.1697    1.3895 O   0  0  0  0  0  0  0  0  0  0  0  0
    0.5503    0.2593   -0.5779 C   0  0  0  0  0  0  0  0  0  0  0  0
   -0.5776    1.1109   -0.7371 C   0  0  0  0  0  0  0  0  0  0  0  0
   -1.3180    0.5388   -1.7412 C   0  0  0  0  0  0  0  0  0  0  0  0
   -2.5891    0.8716   -2.4222 C   0  0  0  0  0  0  0  0  0  0  0  0
   -3.4618    1.5280   -1.4984 O   0  0  0  0  0  0  0  0  0  0  0  0
   -4.2997    0.7609   -0.7370 C   0  0  0  0  0  0  0  0  0  0  0  0
   -4.2254   -0.6211   -0.5663 C   0  0  0  0  0  0  0  0  0  0  0  0
   -5.1475   -1.2776    0.2532 C   0  0  0  0  0  0  0  0  0  0  0  0
   -6.1430   -0.5564    0.9119 C   0  0  0  0  0  0  0  0  0  0  0  0
   -6.2205    0.8351    0.7677 C   0  0  0  0  0  0  0  0  0  0  0  0
   -7.3018    1.6241    1.4609 C   0  0  0  0  0  0  0  0  0  0  0  0
   -8.4123    1.7694    0.6865 F   0  0  0  0  0  0  0  0  0  0  0  0
   -7.7278    1.0462    2.6191 F   0  0  0  0  0  0  0  0  0  0  0  0
   -6.9131    2.8855    1.7978 F   0  0  0  0  0  0  0  0  0  0  0  0
   -5.2926    1.4808   -0.0653 C   0  0  0  0  0  0  0  0  0  0  0  0
   -0.6885   -0.5884   -2.1628 O   0  0  0  0  0  0  0  0  0  0  0  0
    0.4646   -0.7782   -1.4294 N   0  0  0  0  0  0  0  0  0  0  0  0
    3.7685   -0.2316    1.4003 C   0  0  0  0  0  0  0  0  0  0  0  0
    4.7656   -1.3939    1.3050 C   0  0  0  0  0  0  0  0  0  0  0  0
    5.7207   -1.3973    2.4901 C   0  0  0  0  0  0  0  0  0  0  0  0
    5.5582   -1.3210    0.1118 O   0  0  0  0  0  0  0  0  0  0  0  0
    4.9105    0.7238   -2.4729 H   0  0  0  0  0  0  0  0  0  0  0  0
    5.1774    1.1963   -0.7812 H   0  0  0  0  0  0  0  0  0  0  0  0
    6.4527    0.3744   -1.6629 H   0  0  0  0  0  0  0  0  0  0  0  0
    5.1046   -1.6698   -1.8438 H   0  0  0  0  0  0  0  0  0  0  0  0
    2.9461   -1.9734   -0.8358 H   0  0  0  0  0  0  0  0  0  0  0  0
    2.8560   -0.4981   -1.8255 H   0  0  0  0  0  0  0  0  0  0  0  0
   -0.8105    2.0069   -0.1795 H   0  0  0  0  0  0  0  0  0  0  0  0
   -2.3782    1.5896   -3.2227 H   0  0  0  0  0  0  0  0  0  0  0  0
   -3.0653    0.0073   -2.8987 H   0  0  0  0  0  0  0  0  0  0  0  0
   -3.4564   -1.2216   -1.0417 H   0  0  0  0  0  0  0  0  0  0  0  0
   -5.0844   -2.3561    0.3817 H   0  0  0  0  0  0  0  0  0  0  0  0
   -6.8547   -1.0839    1.5456 H   0  0  0  0  0  0  0  0  0  0  0  0
   -5.3420    2.5617   -0.1946 H   0  0  0  0  0  0  0  0  0  0  0  0
    4.2900    0.7322    1.3704 H   0  0  0  0  0  0  0  0  0  0  0  0
    3.2062   -0.2822    2.3397 H   0  0  0  0  0  0  0  0  0  0  0  0
    4.2267   -2.3496    1.2868 H   0  0  0  0  0  0  0  0  0  0  0  0
    6.3177   -0.4789    2.5137 H   0  0  0  0  0  0  0  0  0  0  0  0
    6.4278   -2.2299    2.4091 H   0  0  0  0  0  0  0  0  0  0  0  0
    5.1804   -1.4893    3.4371 H   0  0  0  0  0  0  0  0  0  0  0  0
  1  2  1  0
  2  3  1  0
  3  4  1  0
  4  5  1  0
  5  6  2  0
  5  7  1  0
  7  8  1  0
  8  9  2  0
  9 10  1  0
 10 11  1  0
 11 12  1  0
 12 13  2  0
 13 14  1  0
 14 15  2  0
 15 16  1  0
 16 17  1  0
 17 18  1  0
 17 19  1  0
 17 20  1  0
 16 21  2  0
  9 22  1  0
 22 23  1  0
  4 24  1  0
 24 25  1  0
 25 26  1  0
 25 27  1  0
 27  2  1  0
 23  7  2  0
 21 12  1  0
  1 28  1  0
  1 29  1  0
  1 30  1  0
  2 31  1  0
  3 32  1  0
  3 33  1  0
  8 34  1  0
 10 35  1  0
 10 36  1  0
 13 37  1  0
 14 38  1  0
 15 39  1  0
 21 40  1  0
 24 41  1  0
 24 42  1  0
 25 43  1  0
 26 44  1  0
 26 45  1  0
 26 46  1  0
M  END
$$$$
