
     RDKit          3D

 92 93  0  0  0  0  0  0  0  0999 V2000
   12.1561   -1.5347    1.4085 C   0  0  0  0  0  0  0  0  0  0  0  0
   11.6861   -0.3068    0.6449 C   0  0  0  0  0  0  0  0  0  0  0  0
   10.1591   -0.2409    0.5823 C   0  0  0  0  0  0  0  0  0  0  0  0
    9.6840    1.0096   -0.1615 C   0  0  0  0  0  0  0  0  0  0  0  0
    8.1598    1.1758   -0.1798 C   0  0  0  0  0  0  0  0  0  0  0  0
    7.4611    0.6016   -1.4186 C   0  0  0  0  0  0  0  0  0  0  0  0
    7.4563   -0.9228   -1.5466 C   0  0  0  0  0  0  0  0  0  0  0  0
    6.8357   -1.6971   -0.3767 C   0  0  0  0  0  0  0  0  0  0  0  0
    5.4297   -1.2596    0.0439 C   0  0  0  0  0  0  0  0  0  0  0  0
    4.3773   -1.4483   -1.0467 C   0  0  0  0  0  0  0  0  0  0  0  0
    3.0249   -0.8298   -0.6825 C   0  0  0  0  0  0  0  0  0  0  0  0
    2.3523   -1.4803    0.5301 C   0  0  0  0  0  0  0  0  0  0  0  0
    0.9071   -1.0146    0.7262 C   0  0  0  0  0  0  0  0  0  0  0  0
    0.7990    0.4662    1.1092 C   0  0  0  0  0  0  0  0  0  0  0  0
   -0.6470    0.9546    1.2851 C   0  0  0  0  0  0  0  0  0  0  0  0
   -1.4403    0.8432   -0.0200 C   0  0  0  0  0  0  0  0  0  0  0  0
   -2.7774    1.6041   -0.0220 N   0  0  0  0  0  4  0  0  0  0  0  0
   -2.5400    3.1135    0.0280 C   0  0  0  0  0  0  0  0  0  0  0  0
   -3.6535    1.2111    1.1680 C   0  0  0  0  0  0  0  0  0  0  0  0
   -3.5193    1.3080   -1.3725 C   0  0  0  0  0  0  0  0  0  0  0  0
   -4.1533   -0.1039   -1.5005 C   0  0  0  0  0  0  0  0  0  0  0  0
   -5.4898   -0.1447   -0.8829 N   0  0  0  0  0  0  0  0  0  0  0  0
   -6.5889    0.3689   -1.7213 C   0  0  0  0  0  0  0  0  0  0  0  0
   -7.7285    0.8859   -0.8714 C   0  0  0  0  0  0  0  0  0  0  0  0
   -7.6021    2.0804   -0.1483 C   0  0  0  0  0  0  0  0  0  0  0  0
   -8.6684    2.5579    0.6190 C   0  0  0  0  0  0  0  0  0  0  0  0
   -9.8746    1.8551    0.6767 C   0  0  0  0  0  0  0  0  0  0  0  0
  -10.8380    2.4393    1.4513 O   0  0  0  0  0  0  0  0  0  0  0  0
  -12.1296    1.8405    1.4256 C   0  0  0  0  0  0  0  0  0  0  0  0
  -10.0034    0.6597   -0.0260 C   0  0  0  0  0  0  0  0  0  0  0  0
   -8.9363    0.1795   -0.7945 C   0  0  0  0  0  0  0  0  0  0  0  0
   -5.7384   -1.4427   -0.3988 C   0  0  0  0  0  0  0  0  0  0  0  0
   -5.0317   -1.8355    0.6809 N   0  0  0  0  0  0  0  0  0  0  0  0
   -5.2872   -3.0675    1.1716 C   0  0  0  0  0  0  0  0  0  0  0  0
   -6.1752   -3.9415    0.5989 C   0  0  0  0  0  0  0  0  0  0  0  0
   -6.8074   -3.4746   -0.5245 C   0  0  0  0  0  0  0  0  0  0  0  0
   -6.6116   -2.2407   -1.0306 N   0  0  0  0  0  0  0  0  0  0  0  0
   13.2455   -1.6121    1.3765 H   0  0  0  0  0  0  0  0  0  0  0  0
   11.7359   -2.4499    0.9813 H   0  0  0  0  0  0  0  0  0  0  0  0
   11.8487   -1.4767    2.4544 H   0  0  0  0  0  0  0  0  0  0  0  0
   12.0858    0.5958    1.1305 H   0  0  0  0  0  0  0  0  0  0  0  0
   12.0922   -0.3401   -0.3744 H   0  0  0  0  0  0  0  0  0  0  0  0
    9.7861   -1.1445    0.0889 H   0  0  0  0  0  0  0  0  0  0  0  0
    9.7528   -0.2395    1.6001 H   0  0  0  0  0  0  0  0  0  0  0  0
   10.1090    1.8874    0.3452 H   0  0  0  0  0  0  0  0  0  0  0  0
   10.0865    1.0181   -1.1827 H   0  0  0  0  0  0  0  0  0  0  0  0
    7.7124    0.7804    0.7377 H   0  0  0  0  0  0  0  0  0  0  0  0
    7.9501    2.2538   -0.1826 H   0  0  0  0  0  0  0  0  0  0  0  0
    7.9244    1.0234   -2.3210 H   0  0  0  0  0  0  0  0  0  0  0  0
    6.4239    0.9621   -1.4268 H   0  0  0  0  0  0  0  0  0  0  0  0
    8.4794   -1.2809   -1.7094 H   0  0  0  0  0  0  0  0  0  0  0  0
    6.9203   -1.1827   -2.4647 H   0  0  0  0  0  0  0  0  0  0  0  0
    7.4883   -1.6182    0.4984 H   0  0  0  0  0  0  0  0  0  0  0  0
    6.8107   -2.7594   -0.6471 H   0  0  0  0  0  0  0  0  0  0  0  0
    5.1449   -1.8544    0.9198 H   0  0  0  0  0  0  0  0  0  0  0  0
    5.4447   -0.2153    0.3771 H   0  0  0  0  0  0  0  0  0  0  0  0
    4.2555   -2.5154   -1.2628 H   0  0  0  0  0  0  0  0  0  0  0  0
    4.7109   -0.9748   -1.9760 H   0  0  0  0  0  0  0  0  0  0  0  0
    3.1694    0.2413   -0.5068 H   0  0  0  0  0  0  0  0  0  0  0  0
    2.3637   -0.9144   -1.5520 H   0  0  0  0  0  0  0  0  0  0  0  0
    2.9256   -1.2731    1.4397 H   0  0  0  0  0  0  0  0  0  0  0  0
    2.3489   -2.5691    0.4013 H   0  0  0  0  0  0  0  0  0  0  0  0
    0.3444   -1.2195   -0.1895 H   0  0  0  0  0  0  0  0  0  0  0  0
    0.4473   -1.6171    1.5193 H   0  0  0  0  0  0  0  0  0  0  0  0
    1.2801    1.0931    0.3473 H   0  0  0  0  0  0  0  0  0  0  0  0
    1.3428    0.6360    2.0505 H   0  0  0  0  0  0  0  0  0  0  0  0
   -1.1328    0.3722    2.0776 H   0  0  0  0  0  0  0  0  0  0  0  0
   -0.6011    1.9910    1.6312 H   0  0  0  0  0  0  0  0  0  0  0  0
   -1.6799   -0.2072   -0.2081 H   0  0  0  0  0  0  0  0  0  0  0  0
   -0.8587    1.2270   -0.8695 H   0  0  0  0  0  0  0  0  0  0  0  0
   -3.5121    3.6185   -0.0390 H   0  0  0  0  0  0  0  0  0  0  0  0
   -1.9125    3.3907   -0.8239 H   0  0  0  0  0  0  0  0  0  0  0  0
   -2.0570    3.3750    0.9690 H   0  0  0  0  0  0  0  0  0  0  0  0
   -3.6328    0.1293    1.2723 H   0  0  0  0  0  0  0  0  0  0  0  0
   -3.2391    1.6743    2.0671 H   0  0  0  0  0  0  0  0  0  0  0  0
   -4.6635    1.5944    1.0068 H   0  0  0  0  0  0  0  0  0  0  0  0
   -2.7686    1.4457   -2.1613 H   0  0  0  0  0  0  0  0  0  0  0  0
   -4.2823    2.0868   -1.4875 H   0  0  0  0  0  0  0  0  0  0  0  0
   -3.4704   -0.8511   -1.0838 H   0  0  0  0  0  0  0  0  0  0  0  0
   -4.2434   -0.3510   -2.5647 H   0  0  0  0  0  0  0  0  0  0  0  0
   -6.9305   -0.3471   -2.4840 H   0  0  0  0  0  0  0  0  0  0  0  0
   -6.2250    1.2292   -2.2972 H   0  0  0  0  0  0  0  0  0  0  0  0
   -6.6811    2.6519   -0.1793 H   0  0  0  0  0  0  0  0  0  0  0  0
   -8.5684    3.4900    1.1714 H   0  0  0  0  0  0  0  0  0  0  0  0
  -12.5297    1.8129    0.4061 H   0  0  0  0  0  0  0  0  0  0  0  0
  -12.7959    2.4680    2.0227 H   0  0  0  0  0  0  0  0  0  0  0  0
  -12.1074    0.8427    1.8743 H   0  0  0  0  0  0  0  0  0  0  0  0
  -10.9166    0.0746   -0.0058 H   0  0  0  0  0  0  0  0  0  0  0  0
   -9.0583   -0.7589   -1.3331 H   0  0  0  0  0  0  0  0  0  0  0  0
   -4.7377   -3.3363    2.0687 H   0  0  0  0  0  0  0  0  0  0  0  0
   -6.3568   -4.9297    0.9943 H   0  0  0  0  0  0  0  0  0  0  0  0
   -7.5149   -4.0963   -1.0684 H   0  0  0  0  0  0  0  0  0  0  0  0
  1  2  1  0
  2  3  1  0
  3  4  1  0
  4  5  1  0
  5  6  1  0
  6  7  1  0
  7  8  1  0
  8  9  1  0
  9 10  1  0
 10 11  1  0
 11 12  1  0
 12 13  1  0
 13 14  1  0
 14 15  1  0
 15 16  1  0
 16 17  1  0
 17 18  1  0
 17 19  1  0
 17 20  1  0
 20 21  1  0
 21 22  1  0
 22 23  1  0
 23 24  1  0
 24 25  2  0
 25 26  1  0
 26 27  2  0
 27 28  1  0
 28 29  1  0
 27 30  1  0
 30 31  2  0
 22 32  1  0
 32 33  2  0
 33 34  1  0
 34 35  2  0
 35 36  1  0
 36 37  2  0
 31 24  1  0
 37 32  1  0
  1 38  1  0
  1 39  1  0
  1 40  1  0
  2 41  1  0
  2 42  1  0
  3 43  1  0
  3 44  1  0
  4 45  1  0
  4 46  1  0
  5 47  1  0
  5 48  1  0
  6 49  1  0
  6 50  1  0
  7 51  1  0
  7 52  1  0
  8 53  1  0
  8 54  1  0
  9 55  1  0
  9 56  1  0
 10 57  1  0
 10 58  1  0
 11 59  1  0
 11 60  1  0
 12 61  1  0
 12 62  1  0
 13 63  1  0
 13 64  1  0
 14 65  1  0
 14 66  1  0
 15 67  1  0
 15 68  1  0
 16 69  1  0
 16 70  1  0
 18 71  1  0
 18 72  1  0
 18 73  1  0
 19 74  1  0
 19 75  1  0
 19 76  1  0
 20 77  1  0
 20 78  1  0
 21 79  1  0
 21 80  1  0
 23 81  1  0
 23 82  1  0
 25 83  1  0
 26 84  1  0
 29 85  1  0
 29 86  1  0
 29 87  1  0
 30 88  1  0
 31 89  1  0
 34 90  1  0
 35 91  1  0
 36 92  1  0
M  CHG  1  17   1
M  END
$$$$
