
     RDKit          3D

 37 38  0  0  0  0  0  0  0  0999 V2000
   -5.8167    0.1097    0.3503 C   0  0  0  0  0  0  0  0  0  0  0  0
   -4.4561    0.6090    0.5272 N   0  0  0  0  0  0  0  0  0  0  0  0
   -4.0525    1.5127   -0.5709 C   0  0  0  0  0  0  0  0  0  0  0  0
   -2.9394    0.9806   -1.4937 C   0  0  0  0  0  0  0  0  0  0  0  0
   -1.7649    0.5338   -0.7421 N   0  0  0  0  0  0  0  0  0  0  0  0
   -0.5224    0.6311   -1.3402 C   0  0  0  0  0  0  0  0  0  0  0  0
   -0.3686    0.9932   -2.5048 O   0  0  0  0  0  0  0  0  0  0  0  0
    0.6560    0.2868   -0.4978 C   0  0  0  0  0  0  0  0  0  0  0  0
    1.8433    0.0589   -1.0818 C   0  0  0  0  0  0  0  0  0  0  0  0
    3.0771   -0.2457   -0.3466 C   0  0  0  0  0  0  0  0  0  0  0  0
    3.0888   -1.0719    0.7866 C   0  0  0  0  0  0  0  0  0  0  0  0
    4.2883   -1.3626    1.4454 C   0  0  0  0  0  0  0  0  0  0  0  0
    5.4892   -0.8306    0.9606 C   0  0  0  0  0  0  0  0  0  0  0  0
    6.7504   -1.1331    1.6486 N   0  0  0  0  0  4  0  0  0  0  0  0
    6.6983   -1.8508    2.6578 O   0  0  0  0  0  0  0  0  0  0  0  0
    7.7927   -0.6530    1.1807 O   0  0  0  0  0  1  0  0  0  0  0  0
    5.4961   -0.0173   -0.1783 C   0  0  0  0  0  0  0  0  0  0  0  0
    4.2908    0.2658   -0.8288 C   0  0  0  0  0  0  0  0  0  0  0  0
   -2.0384   -0.0713    0.5667 C   0  0  0  0  0  0  0  0  0  0  0  0
   -3.5088   -0.5030    0.7188 C   0  0  0  0  0  0  0  0  0  0  0  0
   -6.5298    0.9409    0.3187 H   0  0  0  0  0  0  0  0  0  0  0  0
   -6.1091   -0.5220    1.1964 H   0  0  0  0  0  0  0  0  0  0  0  0
   -5.9243   -0.4740   -0.5710 H   0  0  0  0  0  0  0  0  0  0  0  0
   -4.9110    1.8172   -1.1825 H   0  0  0  0  0  0  0  0  0  0  0  0
   -3.6834    2.4310   -0.0962 H   0  0  0  0  0  0  0  0  0  0  0  0
   -2.6542    1.7597   -2.2093 H   0  0  0  0  0  0  0  0  0  0  0  0
   -3.3023    0.1214   -2.0708 H   0  0  0  0  0  0  0  0  0  0  0  0
    0.5396    0.2814    0.5761 H   0  0  0  0  0  0  0  0  0  0  0  0
    1.9379    0.1222   -2.1653 H   0  0  0  0  0  0  0  0  0  0  0  0
    2.1673   -1.5105    1.1632 H   0  0  0  0  0  0  0  0  0  0  0  0
    4.2680   -2.0052    2.3233 H   0  0  0  0  0  0  0  0  0  0  0  0
    6.4207    0.4004   -0.5717 H   0  0  0  0  0  0  0  0  0  0  0  0
    4.3064    0.8993   -1.7149 H   0  0  0  0  0  0  0  0  0  0  0  0
   -1.3904   -0.9433    0.7050 H   0  0  0  0  0  0  0  0  0  0  0  0
   -1.7790    0.6711    1.3308 H   0  0  0  0  0  0  0  0  0  0  0  0
   -3.7079   -1.3028   -0.0078 H   0  0  0  0  0  0  0  0  0  0  0  0
   -3.6519   -0.9294    1.7185 H   0  0  0  0  0  0  0  0  0  0  0  0
  1  2  1  0
  2  3  1  0
  3  4  1  0
  4  5  1  0
  5  6  1  0
  6  7  2  0
  6  8  1  0
  8  9  2  3
  9 10  1  0
 10 11  2  0
 11 12  1  0
 12 13  2  0
 13 14  1  0
 14 15  2  0
 14 16  1  0
 13 17  1  0
 17 18  2  0
  5 19  1  0
 19 20  1  0
 20  2  1  0
 18 10  1  0
  1 21  1  0
  1 22  1  0
  1 23  1  0
  3 24  1  0
  3 25  1  0
  4 26  1  0
  4 27  1  0
  8 28  1  0
  9 29  1  0
 11 30  1  0
 12 31  1  0
 17 32  1  0
 18 33  1  0
 19 34  1  0
 19 35  1  0
 20 36  1  0
 20 37  1  0
M  CHG  2  14   1  16  -1
M  END
$$$$
