
     RDKit          3D

 34 36  0  0  0  0  0  0  0  0999 V2000
   -0.2708    0.6466    2.2266 O   0  0  0  0  0  0  0  0  0  0  0  0
   -0.5312   -0.1766    1.3533 C   0  0  0  0  0  0  0  0  0  0  0  0
   -1.9228   -0.7897    1.2657 C   0  0  0  0  0  0  0  0  0  0  0  0
   -2.8450   -0.0159    0.3494 C   0  0  0  0  0  0  0  0  0  0  0  0
   -3.3799    1.1960    0.8234 C   0  0  0  0  0  0  0  0  0  0  0  0
   -4.2535    1.9570    0.0412 C   0  0  0  0  0  0  0  0  0  0  0  0
   -4.6144    1.5265   -1.2336 C   0  0  0  0  0  0  0  0  0  0  0  0
   -4.0942    0.3359   -1.7357 C   0  0  0  0  0  0  0  0  0  0  0  0
   -3.2104   -0.4213   -0.9498 C   0  0  0  0  0  0  0  0  0  0  0  0
   -2.6776   -1.6419   -1.5467 N   0  0  0  0  0  4  0  0  0  0  0  0
   -3.4774   -2.3951   -2.1161 O   0  0  0  0  0  0  0  0  0  0  0  0
   -1.4557   -1.8371   -1.4506 O   0  0  0  0  0  1  0  0  0  0  0  0
    0.3252   -0.6348    0.3693 N   0  0  0  0  0  0  0  0  0  0  0  0
    1.6758   -0.2845    0.1658 C   0  0  0  0  0  0  0  0  0  0  0  0
    2.3984    0.5773    1.0131 C   0  0  0  0  0  0  0  0  0  0  0  0
    3.7415    0.8843    0.7554 C   0  0  0  0  0  0  0  0  0  0  0  0
    4.3309    0.3160   -0.3504 C   0  0  0  0  0  0  0  0  0  0  0  0
    3.6346   -0.5268   -1.1809 C   0  0  0  0  0  0  0  0  0  0  0  0
    2.3120   -0.8466   -0.9514 C   0  0  0  0  0  0  0  0  0  0  0  0
    4.3941   -0.9818   -2.2137 O   0  0  0  0  0  0  0  0  0  0  0  0
    5.6497   -0.3273   -1.9349 C   0  0  0  0  0  0  0  0  0  0  0  0
    5.6159    0.4991   -0.7530 O   0  0  0  0  0  0  0  0  0  0  0  0
   -1.8560   -1.8490    0.9980 H   0  0  0  0  0  0  0  0  0  0  0  0
   -2.3479   -0.7964    2.2786 H   0  0  0  0  0  0  0  0  0  0  0  0
   -3.1131    1.5612    1.8163 H   0  0  0  0  0  0  0  0  0  0  0  0
   -4.6526    2.8911    0.4321 H   0  0  0  0  0  0  0  0  0  0  0  0
   -5.2965    2.1225   -1.8358 H   0  0  0  0  0  0  0  0  0  0  0  0
   -4.3758    0.0103   -2.7355 H   0  0  0  0  0  0  0  0  0  0  0  0
   -0.0749   -1.2635   -0.3273 H   0  0  0  0  0  0  0  0  0  0  0  0
    1.9400    1.0262    1.8892 H   0  0  0  0  0  0  0  0  0  0  0  0
    4.2972    1.5481    1.4080 H   0  0  0  0  0  0  0  0  0  0  0  0
    1.7951   -1.5159   -1.6305 H   0  0  0  0  0  0  0  0  0  0  0  0
    5.9163    0.2996   -2.7936 H   0  0  0  0  0  0  0  0  0  0  0  0
    6.4230   -1.0933   -1.8053 H   0  0  0  0  0  0  0  0  0  0  0  0
  1  2  2  0
  2  3  1  0
  3  4  1  0
  4  5  2  0
  5  6  1  0
  6  7  2  0
  7  8  1  0
  8  9  2  0
  9 10  1  0
 10 11  2  0
 10 12  1  0
  2 13  1  0
 13 14  1  0
 14 15  2  0
 15 16  1  0
 16 17  2  0
 17 18  1  0
 18 19  2  0
 18 20  1  0
 20 21  1  0
 21 22  1  0
  9  4  1  0
 19 14  1  0
 22 17  1  0
  3 23  1  0
  3 24  1  0
  5 25  1  0
  6 26  1  0
  7 27  1  0
  8 28  1  0
 13 29  1  0
 15 30  1  0
 16 31  1  0
 19 32  1  0
 21 33  1  0
 21 34  1  0
M  CHG  2  10   1  12  -1
M  END
$$$$
