
     RDKit          3D

 58 62  0  0  0  0  0  0  0  0999 V2000
   -3.7670   -2.1829   -1.8526 C   0  0  0  0  0  0  0  0  0  0  0  0
   -4.2501   -1.8803   -0.4351 C   0  0  0  0  0  0  0  0  0  0  0  0
   -5.7843   -1.6959   -0.3820 C   0  0  0  0  0  0  0  0  0  0  0  0
   -5.9302   -0.2136   -0.2947 C   0  0  0  0  0  0  0  0  0  0  0  0
   -7.0935    0.5345   -0.3995 C   0  0  0  0  0  0  0  0  0  0  0  0
   -7.0060    1.9196   -0.2436 C   0  0  0  0  0  0  0  0  0  0  0  0
   -5.7697    2.5317    0.0168 C   0  0  0  0  0  0  0  0  0  0  0  0
   -4.6062    1.7655    0.1273 C   0  0  0  0  0  0  0  0  0  0  0  0
   -4.7088    0.3940   -0.0195 C   0  0  0  0  0  0  0  0  0  0  0  0
   -3.6413   -0.5647    0.0026 N   0  0  0  0  0  0  0  0  0  0  0  0
   -2.7484   -0.6105    1.4608 S   0  0  0  0  0  6  0  0  0  0  0  0
   -2.1724    0.6903    1.7323 O   0  0  0  0  0  0  0  0  0  0  0  0
   -3.5347   -1.3070    2.4594 O   0  0  0  0  0  0  0  0  0  0  0  0
   -1.3834   -1.6603    1.0081 C   0  0  0  0  0  0  0  0  0  0  0  0
   -1.2722   -2.9539    1.5336 C   0  0  0  0  0  0  0  0  0  0  0  0
   -0.1997   -3.7656    1.1488 C   0  0  0  0  0  0  0  0  0  0  0  0
    0.7588   -3.2789    0.2567 C   0  0  0  0  0  0  0  0  0  0  0  0
    0.6554   -1.9696   -0.2309 C   0  0  0  0  0  0  0  0  0  0  0  0
    1.6703   -1.4710   -1.1807 C   0  0  0  0  0  0  0  0  0  0  0  0
    1.8028   -2.0743   -2.2448 O   0  0  0  0  0  0  0  0  0  0  0  0
    2.4041   -0.3452   -0.8315 N   0  0  0  0  0  0  0  0  0  0  0  0
    3.3239    0.2163   -1.8259 C   0  0  0  0  0  0  0  0  0  0  0  0
    3.7667    1.6546   -1.4970 C   0  0  0  0  0  0  0  0  0  0  0  0
    4.3343    1.7433   -0.1450 N   0  0  0  0  0  0  0  0  0  0  0  0
    5.6138    2.2528   -0.0032 C   0  0  0  0  0  0  0  0  0  0  0  0
    6.1175    3.0363   -0.9733 N   0  0  0  0  0  0  0  0  0  0  0  0
    7.3575    3.5350   -0.8040 C   0  0  0  0  0  0  0  0  0  0  0  0
    8.1289    3.2862    0.3002 C   0  0  0  0  0  0  0  0  0  0  0  0
    7.5414    2.4827    1.2428 C   0  0  0  0  0  0  0  0  0  0  0  0
    6.3035    1.9663    1.1159 N   0  0  0  0  0  0  0  0  0  0  0  0
    3.9161    0.7433    0.8413 C   0  0  0  0  0  0  0  0  0  0  0  0
    2.5037    0.2080    0.5303 C   0  0  0  0  0  0  0  0  0  0  0  0
   -0.4195   -1.1541    0.1319 C   0  0  0  0  0  0  0  0  0  0  0  0
   -2.6755   -2.2604   -1.8849 H   0  0  0  0  0  0  0  0  0  0  0  0
   -4.0633   -1.3982   -2.5572 H   0  0  0  0  0  0  0  0  0  0  0  0
   -4.1833   -3.1317   -2.2063 H   0  0  0  0  0  0  0  0  0  0  0  0
   -3.9597   -2.7140    0.2127 H   0  0  0  0  0  0  0  0  0  0  0  0
   -6.1920   -2.1545    0.5255 H   0  0  0  0  0  0  0  0  0  0  0  0
   -6.2893   -2.1146   -1.2577 H   0  0  0  0  0  0  0  0  0  0  0  0
   -8.0495    0.0605   -0.5988 H   0  0  0  0  0  0  0  0  0  0  0  0
   -7.9010    2.5314   -0.3258 H   0  0  0  0  0  0  0  0  0  0  0  0
   -5.7160    3.6117    0.1311 H   0  0  0  0  0  0  0  0  0  0  0  0
   -3.6520    2.2442    0.3088 H   0  0  0  0  0  0  0  0  0  0  0  0
   -2.0135   -3.3379    2.2316 H   0  0  0  0  0  0  0  0  0  0  0  0
   -0.1103   -4.7789    1.5416 H   0  0  0  0  0  0  0  0  0  0  0  0
    1.5877   -3.9131   -0.0546 H   0  0  0  0  0  0  0  0  0  0  0  0
    2.8446    0.1884   -2.8114 H   0  0  0  0  0  0  0  0  0  0  0  0
    4.1984   -0.4474   -1.8627 H   0  0  0  0  0  0  0  0  0  0  0  0
    2.8920    2.3187   -1.5364 H   0  0  0  0  0  0  0  0  0  0  0  0
    4.4517    1.9863   -2.2856 H   0  0  0  0  0  0  0  0  0  0  0  0
    7.7173    4.1619   -1.6145 H   0  0  0  0  0  0  0  0  0  0  0  0
    9.1226    3.6923    0.4198 H   0  0  0  0  0  0  0  0  0  0  0  0
    8.0600    2.2211    2.1604 H   0  0  0  0  0  0  0  0  0  0  0  0
    3.9082    1.1809    1.8473 H   0  0  0  0  0  0  0  0  0  0  0  0
    4.6164   -0.1036    0.8378 H   0  0  0  0  0  0  0  0  0  0  0  0
    2.2335   -0.5528    1.2693 H   0  0  0  0  0  0  0  0  0  0  0  0
    1.7720    1.0238    0.5941 H   0  0  0  0  0  0  0  0  0  0  0  0
   -0.5103   -0.1469   -0.2725 H   0  0  0  0  0  0  0  0  0  0  0  0
  1  2  1  0
  2  3  1  0
  3  4  1  0
  4  5  2  0
  5  6  1  0
  6  7  2  0
  7  8  1  0
  8  9  2  0
  9 10  1  0
 10 11  1  0
 11 12  2  0
 11 13  2  0
 11 14  1  0
 14 15  2  0
 15 16  1  0
 16 17  2  0
 17 18  1  0
 18 19  1  0
 19 20  2  0
 19 21  1  0
 21 22  1  0
 22 23  1  0
 23 24  1  0
 24 25  1  0
 25 26  2  0
 26 27  1  0
 27 28  2  0
 28 29  1  0
 29 30  2  0
 24 31  1  0
 31 32  1  0
 18 33  2  0
 10  2  1  0
 33 14  1  0
  9  4  1  0
 32 21  1  0
 30 25  1  0
  1 34  1  0
  1 35  1  0
  1 36  1  0
  2 37  1  0
  3 38  1  0
  3 39  1  0
  5 40  1  0
  6 41  1  0
  7 42  1  0
  8 43  1  0
 15 44  1  0
 16 45  1  0
 17 46  1  0
 22 47  1  0
 22 48  1  0
 23 49  1  0
 23 50  1  0
 27 51  1  0
 28 52  1  0
 29 53  1  0
 31 54  1  0
 31 55  1  0
 32 56  1  0
 32 57  1  0
 33 58  1  0
M  END
$$$$
