
     RDKit          3D

 61 61  0  0  0  0  0  0  0  0999 V2000
    8.0674    1.0298   -2.0781 C   0  0  0  0  0  0  0  0  0  0  0  0
    8.1796    1.1197   -0.5643 C   0  0  0  0  0  0  0  0  0  0  0  0
    7.7044   -0.1421    0.1549 C   0  0  0  0  0  0  0  0  0  0  0  0
    6.2180   -0.4871    0.0074 C   0  0  0  0  0  0  0  0  0  0  0  0
    5.2634    0.5190    0.6631 C   0  0  0  0  0  0  0  0  0  0  0  0
    4.6661    1.5176   -0.3319 C   0  0  0  0  0  0  0  0  0  0  0  0
    3.7910    2.5876    0.3300 C   0  0  0  0  0  0  0  0  0  0  0  0
    2.5852    2.0729    1.1219 C   0  0  0  0  0  0  0  0  0  0  0  0
    1.6052    1.2556    0.2781 C   0  0  0  0  0  0  0  0  0  0  0  0
    0.3645    0.8712    1.0874 C   0  0  0  0  0  0  0  0  0  0  0  0
   -0.6078    0.0366    0.2521 C   0  0  0  0  0  0  0  0  0  0  0  0
   -1.8510   -0.3432    1.0595 C   0  0  0  0  0  0  0  0  0  0  0  0
   -2.8167   -1.1861    0.2244 C   0  0  0  0  0  0  0  0  0  0  0  0
   -4.0291   -1.6871    1.0149 C   0  0  0  0  0  0  0  0  0  0  0  0
   -4.9275   -0.6017    1.6168 C   0  0  0  0  0  0  0  0  0  0  0  0
   -5.5366    0.3610    0.6009 C   0  0  0  0  0  0  0  0  0  0  0  0
   -6.4084   -0.3217   -0.3606 N   0  0  0  0  0  0  0  0  0  0  0  0
   -6.1523   -0.5056   -1.7109 C   0  0  0  0  0  0  0  0  0  0  0  0
   -7.2216   -1.1809   -2.2272 C   0  0  0  0  0  0  0  0  0  0  0  0
   -8.1099   -1.3806   -1.1836 N   0  0  0  0  0  4  0  0  0  0  0  0
   -9.3917   -2.0668   -1.2764 C   0  0  0  0  0  0  0  0  0  0  0  0
   -7.6054   -0.8499   -0.0602 C   0  0  0  0  0  0  0  0  0  0  0  0
    7.0280    0.9386   -2.4035 H   0  0  0  0  0  0  0  0  0  0  0  0
    8.4825    1.9317   -2.5390 H   0  0  0  0  0  0  0  0  0  0  0  0
    8.6241    0.1685   -2.4610 H   0  0  0  0  0  0  0  0  0  0  0  0
    9.2337    1.2831   -0.3084 H   0  0  0  0  0  0  0  0  0  0  0  0
    7.6380    1.9980   -0.1991 H   0  0  0  0  0  0  0  0  0  0  0  0
    8.2929   -0.9951   -0.2064 H   0  0  0  0  0  0  0  0  0  0  0  0
    7.9389   -0.0429    1.2221 H   0  0  0  0  0  0  0  0  0  0  0  0
    6.0709   -1.4538    0.5073 H   0  0  0  0  0  0  0  0  0  0  0  0
    5.9565   -0.6520   -1.0435 H   0  0  0  0  0  0  0  0  0  0  0  0
    5.7637    1.0477    1.4828 H   0  0  0  0  0  0  0  0  0  0  0  0
    4.4420   -0.0515    1.1131 H   0  0  0  0  0  0  0  0  0  0  0  0
    4.0882    0.9802   -1.0927 H   0  0  0  0  0  0  0  0  0  0  0  0
    5.4672    2.0339   -0.8694 H   0  0  0  0  0  0  0  0  0  0  0  0
    3.4350    3.2726   -0.4498 H   0  0  0  0  0  0  0  0  0  0  0  0
    4.4158    3.1878    1.0034 H   0  0  0  0  0  0  0  0  0  0  0  0
    2.9237    1.4792    1.9787 H   0  0  0  0  0  0  0  0  0  0  0  0
    2.0602    2.9413    1.5398 H   0  0  0  0  0  0  0  0  0  0  0  0
    2.0922    0.3433   -0.0842 H   0  0  0  0  0  0  0  0  0  0  0  0
    1.3038    1.8362   -0.6021 H   0  0  0  0  0  0  0  0  0  0  0  0
    0.6670    0.3028    1.9753 H   0  0  0  0  0  0  0  0  0  0  0  0
   -0.1397    1.7789    1.4404 H   0  0  0  0  0  0  0  0  0  0  0  0
   -0.9076    0.6026   -0.6383 H   0  0  0  0  0  0  0  0  0  0  0  0
   -0.1038   -0.8728   -0.0970 H   0  0  0  0  0  0  0  0  0  0  0  0
   -1.5519   -0.9041    1.9531 H   0  0  0  0  0  0  0  0  0  0  0  0
   -2.3486    0.5718    1.3999 H   0  0  0  0  0  0  0  0  0  0  0  0
   -3.1447   -0.6153   -0.6510 H   0  0  0  0  0  0  0  0  0  0  0  0
   -2.2820   -2.0622   -0.1640 H   0  0  0  0  0  0  0  0  0  0  0  0
   -3.6757   -2.3309    1.8302 H   0  0  0  0  0  0  0  0  0  0  0  0
   -4.6295   -2.3309    0.3608 H   0  0  0  0  0  0  0  0  0  0  0  0
   -4.3659   -0.0262    2.3613 H   0  0  0  0  0  0  0  0  0  0  0  0
   -5.7369   -1.0996    2.1652 H   0  0  0  0  0  0  0  0  0  0  0  0
   -4.7621    0.9124    0.0579 H   0  0  0  0  0  0  0  0  0  0  0  0
   -6.1514    1.1045    1.1221 H   0  0  0  0  0  0  0  0  0  0  0  0
   -5.2336   -0.1335   -2.1307 H   0  0  0  0  0  0  0  0  0  0  0  0
   -7.4707   -1.5465   -3.2086 H   0  0  0  0  0  0  0  0  0  0  0  0
   -9.2117   -3.1415   -1.3634 H   0  0  0  0  0  0  0  0  0  0  0  0
   -9.9335   -1.7068   -2.1553 H   0  0  0  0  0  0  0  0  0  0  0  0
   -9.9851   -1.8660   -0.3805 H   0  0  0  0  0  0  0  0  0  0  0  0
   -8.0768   -0.8495    0.9161 H   0  0  0  0  0  0  0  0  0  0  0  0
  1  2  1  0
  2  3  1  0
  3  4  1  0
  4  5  1  0
  5  6  1  0
  6  7  1  0
  7  8  1  0
  8  9  1  0
  9 10  1  0
 10 11  1  0
 11 12  1  0
 12 13  1  0
 13 14  1  0
 14 15  1  0
 15 16  1  0
 16 17  1  0
 17 18  1  0
 18 19  2  0
 19 20  1  0
 20 21  1  0
 20 22  2  0
 22 17  1  0
  1 23  1  0
  1 24  1  0
  1 25  1  0
  2 26  1  0
  2 27  1  0
  3 28  1  0
  3 29  1  0
  4 30  1  0
  4 31  1  0
  5 32  1  0
  5 33  1  0
  6 34  1  0
  6 35  1  0
  7 36  1  0
  7 37  1  0
  8 38  1  0
  8 39  1  0
  9 40  1  0
  9 41  1  0
 10 42  1  0
 10 43  1  0
 11 44  1  0
 11 45  1  0
 12 46  1  0
 12 47  1  0
 13 48  1  0
 13 49  1  0
 14 50  1  0
 14 51  1  0
 15 52  1  0
 15 53  1  0
 16 54  1  0
 16 55  1  0
 18 56  1  0
 19 57  1  0
 21 58  1  0
 21 59  1  0
 21 60  1  0
 22 61  1  0
M  CHG  1  20   1
M  END
$$$$
