
     RDKit          3D

 43 45  0  0  0  0  0  0  0  0999 V2000
    1.1646   -1.9997    4.4487 C   0  0  0  0  0  0  0  0  0  0  0  0
    0.7157   -1.1071    3.3887 N   0  0  0  0  0  0  0  0  0  0  0  0
    1.1704   -1.5428    2.0628 C   0  0  0  0  0  0  0  0  0  0  0  0
    0.7802   -0.4945    1.0069 C   0  0  0  0  0  0  0  0  0  0  0  0
   -0.6540   -0.1864    1.0040 N   0  0  0  0  0  0  0  0  0  0  0  0
   -1.3160    0.4365   -0.0403 C   0  0  0  0  0  0  0  0  0  0  0  0
   -2.5290    0.6020   -0.1184 O   0  0  0  0  0  0  0  0  0  0  0  0
   -0.5018    0.9915   -1.1891 C   0  0  0  0  0  0  0  0  0  0  0  0
   -0.1375    2.4518   -1.0715 C   0  0  0  0  0  0  0  0  0  0  0  0
    1.2509    2.6458   -0.5483 C   0  0  0  0  0  0  0  0  0  0  0  0
    1.6363    3.1310    0.6874 C   0  0  0  0  0  0  0  0  0  0  0  0
    3.0544    3.1830    0.8330 C   0  0  0  0  0  0  0  0  0  0  0  0
    3.7055    2.7621   -0.3035 C   0  0  0  0  0  0  0  0  0  0  0  0
    2.6114    2.3127   -1.5386 S   0  0  0  0  0  0  0  0  0  0  0  0
   -0.2237    0.3321   -2.2775 N   0  0  0  0  0  0  0  0  0  0  0  0
   -0.7103   -0.9495   -2.3931 C   0  0  0  0  0  0  0  0  0  0  0  0
   -0.4757   -1.8512   -1.5990 O   0  0  0  0  0  0  0  0  0  0  0  0
   -1.4962   -1.0933   -3.6044 C   0  0  0  0  0  0  0  0  0  0  0  0
   -1.8561   -0.1965   -4.5987 C   0  0  0  0  0  0  0  0  0  0  0  0
   -2.6281   -0.9143   -5.5422 C   0  0  0  0  0  0  0  0  0  0  0  0
   -2.7098   -2.2018   -5.0668 C   0  0  0  0  0  0  0  0  0  0  0  0
   -2.0320   -2.3221   -3.8980 O   0  0  0  0  0  0  0  0  0  0  0  0
   -1.4530   -0.8129    2.0522 C   0  0  0  0  0  0  0  0  0  0  0  0
   -0.7445   -0.8955    3.4229 C   0  0  0  0  0  0  0  0  0  0  0  0
    0.8580   -1.6154    5.4282 H   0  0  0  0  0  0  0  0  0  0  0  0
    0.7707   -3.0156    4.3345 H   0  0  0  0  0  0  0  0  0  0  0  0
    2.2587   -2.0605    4.4625 H   0  0  0  0  0  0  0  0  0  0  0  0
    0.7398   -2.5184    1.8035 H   0  0  0  0  0  0  0  0  0  0  0  0
    2.2604   -1.6514    2.0534 H   0  0  0  0  0  0  0  0  0  0  0  0
    1.1101   -0.8186    0.0170 H   0  0  0  0  0  0  0  0  0  0  0  0
    1.3017    0.4385    1.2314 H   0  0  0  0  0  0  0  0  0  0  0  0
   -0.8633    2.9506   -0.4177 H   0  0  0  0  0  0  0  0  0  0  0  0
   -0.2390    2.9168   -2.0600 H   0  0  0  0  0  0  0  0  0  0  0  0
    0.9363    3.4240    1.4625 H   0  0  0  0  0  0  0  0  0  0  0  0
    3.5697    3.5168    1.7257 H   0  0  0  0  0  0  0  0  0  0  0  0
    4.7710    2.6967   -0.4727 H   0  0  0  0  0  0  0  0  0  0  0  0
   -1.5811    0.8494   -4.6346 H   0  0  0  0  0  0  0  0  0  0  0  0
   -3.0756   -0.5379   -6.4520 H   0  0  0  0  0  0  0  0  0  0  0  0
   -3.1855   -3.1040   -5.4241 H   0  0  0  0  0  0  0  0  0  0  0  0
   -2.4105   -0.2929    2.1633 H   0  0  0  0  0  0  0  0  0  0  0  0
   -1.6810   -1.8272    1.6977 H   0  0  0  0  0  0  0  0  0  0  0  0
   -0.9102    0.0464    3.9607 H   0  0  0  0  0  0  0  0  0  0  0  0
   -1.2520   -1.6777    4.0036 H   0  0  0  0  0  0  0  0  0  0  0  0
  1  2  1  0
  2  3  1  0
  3  4  1  0
  4  5  1  0
  5  6  1  0
  6  7  2  0
  6  8  1  0
  8  9  1  0
  9 10  1  0
 10 11  2  0
 11 12  1  0
 12 13  2  0
 13 14  1  0
  8 15  2  3
 15 16  1  0
 16 17  2  0
 16 18  1  0
 18 19  2  0
 19 20  1  0
 20 21  2  0
 21 22  1  0
  5 23  1  0
 23 24  1  0
 24  2  1  0
 14 10  1  0
 22 18  1  0
  1 25  1  0
  1 26  1  0
  1 27  1  0
  3 28  1  0
  3 29  1  0
  4 30  1  0
  4 31  1  0
  9 32  1  0
  9 33  1  0
 11 34  1  0
 12 35  1  0
 13 36  1  0
 19 37  1  0
 20 38  1  0
 21 39  1  0
 23 40  1  0
 23 41  1  0
 24 42  1  0
 24 43  1  0
M  END
$$$$
