
     RDKit          3D

 51 54  0  0  0  0  0  0  0  0999 V2000
    6.4481   -0.4258    2.8235 C   0  0  0  0  0  0  0  0  0  0  0  0
    5.6725   -0.4665    1.5402 C   0  0  0  0  0  0  0  0  0  0  0  0
    6.3371   -0.5595    0.3122 C   0  0  0  0  0  0  0  0  0  0  0  0
    5.6177   -0.5680   -0.8856 C   0  0  0  0  0  0  0  0  0  0  0  0
    4.2209   -0.4676   -0.8756 C   0  0  0  0  0  0  0  0  0  0  0  0
    3.4326   -0.4891   -2.1611 C   0  0  0  0  0  0  0  0  0  0  0  0
    2.7044   -1.7425   -2.2971 N   0  0  0  0  0  0  0  0  0  0  0  0
    1.3875   -1.7996   -3.3178 S   0  0  0  0  0  6  0  0  0  0  0  0
    1.6446   -0.9054   -4.4252 O   0  0  0  0  0  0  0  0  0  0  0  0
    1.0729   -3.1957   -3.5184 O   0  0  0  0  0  0  0  0  0  0  0  0
    0.1092   -1.1037   -2.3019 C   0  0  0  0  0  0  0  0  0  0  0  0
   -0.2771   -1.7845   -1.1348 C   0  0  0  0  0  0  0  0  0  0  0  0
   -1.2697   -1.2505   -0.3064 C   0  0  0  0  0  0  0  0  0  0  0  0
   -1.8596   -0.0480   -0.6646 C   0  0  0  0  0  0  0  0  0  0  0  0
   -1.4761    0.6148   -1.8340 C   0  0  0  0  0  0  0  0  0  0  0  0
   -0.4929    0.1029   -2.6689 C   0  0  0  0  0  0  0  0  0  0  0  0
   -2.2654    1.8673   -2.0363 C   0  0  0  0  0  0  0  0  0  0  0  0
   -3.1288    1.9110   -0.7700 C   0  0  0  0  0  0  0  0  0  0  0  0
   -2.8644    0.6827   -0.0029 N   0  0  0  0  0  0  0  0  0  0  0  0
   -3.4893    0.3251    1.1890 C   0  0  0  0  0  0  0  0  0  0  0  0
   -3.2097   -0.7053    1.8127 O   0  0  0  0  0  0  0  0  0  0  0  0
   -4.5802    1.3199    1.7008 C   0  0  0  0  0  0  0  0  0  0  0  0
   -5.2212    1.0385    3.0900 C   0  0  0  0  0  0  0  0  0  0  0  0
   -6.3741    0.3317    2.3572 C   0  0  0  0  0  0  0  0  0  0  0  0
   -6.0104    1.1608    1.1134 C   0  0  0  0  0  0  0  0  0  0  0  0
    3.5575   -0.3655    0.3554 C   0  0  0  0  0  0  0  0  0  0  0  0
    4.2778   -0.3580    1.5518 C   0  0  0  0  0  0  0  0  0  0  0  0
    5.8687   -0.8617    3.6442 H   0  0  0  0  0  0  0  0  0  0  0  0
    6.6978    0.6090    3.0770 H   0  0  0  0  0  0  0  0  0  0  0  0
    7.3748   -1.0031    2.7385 H   0  0  0  0  0  0  0  0  0  0  0  0
    7.4223   -0.6294    0.2807 H   0  0  0  0  0  0  0  0  0  0  0  0
    6.1592   -0.6515   -1.8254 H   0  0  0  0  0  0  0  0  0  0  0  0
    2.7529    0.3706   -2.1639 H   0  0  0  0  0  0  0  0  0  0  0  0
    4.1085   -0.3751   -3.0163 H   0  0  0  0  0  0  0  0  0  0  0  0
    3.2144   -2.6178   -2.2009 H   0  0  0  0  0  0  0  0  0  0  0  0
    0.1929   -2.7292   -0.8684 H   0  0  0  0  0  0  0  0  0  0  0  0
   -1.5574   -1.7864    0.5920 H   0  0  0  0  0  0  0  0  0  0  0  0
   -0.2067    0.6242   -3.5778 H   0  0  0  0  0  0  0  0  0  0  0  0
   -2.8883    1.7952   -2.9334 H   0  0  0  0  0  0  0  0  0  0  0  0
   -1.6187    2.7471   -2.1064 H   0  0  0  0  0  0  0  0  0  0  0  0
   -4.1946    1.9734   -1.0129 H   0  0  0  0  0  0  0  0  0  0  0  0
   -2.8677    2.7751   -0.1485 H   0  0  0  0  0  0  0  0  0  0  0  0
   -4.2184    2.3555    1.6580 H   0  0  0  0  0  0  0  0  0  0  0  0
   -4.6482    0.4121    3.7786 H   0  0  0  0  0  0  0  0  0  0  0  0
   -5.5281    1.9477    3.6209 H   0  0  0  0  0  0  0  0  0  0  0  0
   -7.3729    0.5020    2.7665 H   0  0  0  0  0  0  0  0  0  0  0  0
   -6.2205   -0.7458    2.2289 H   0  0  0  0  0  0  0  0  0  0  0  0
   -6.5579    2.1071    1.0335 H   0  0  0  0  0  0  0  0  0  0  0  0
   -6.0889    0.6274    0.1621 H   0  0  0  0  0  0  0  0  0  0  0  0
    2.4719   -0.2940    0.3882 H   0  0  0  0  0  0  0  0  0  0  0  0
    3.7410   -0.2715    2.4941 H   0  0  0  0  0  0  0  0  0  0  0  0
  1  2  1  0
  2  3  2  0
  3  4  1  0
  4  5  2  0
  5  6  1  0
  6  7  1  0
  7  8  1  0
  8  9  2  0
  8 10  2  0
  8 11  1  0
 11 12  2  0
 12 13  1  0
 13 14  2  0
 14 15  1  0
 15 16  2  0
 15 17  1  0
 17 18  1  0
 18 19  1  0
 19 20  1  0
 20 21  2  0
 20 22  1  0
 22 23  1  0
 23 24  1  0
 24 25  1  0
  5 26  1  0
 26 27  2  0
 27  2  1  0
 16 11  1  0
 25 22  1  0
 19 14  1  0
  1 28  1  0
  1 29  1  0
  1 30  1  0
  3 31  1  0
  4 32  1  0
  6 33  1  0
  6 34  1  0
  7 35  1  0
 12 36  1  0
 13 37  1  0
 16 38  1  0
 17 39  1  0
 17 40  1  0
 18 41  1  0
 18 42  1  0
 22 43  1  0
 23 44  1  0
 23 45  1  0
 24 46  1  0
 24 47  1  0
 25 48  1  0
 25 49  1  0
 26 50  1  0
 27 51  1  0
M  END
$$$$
