
     RDKit          3D

 39 41  0  0  0  0  0  0  0  0999 V2000
   -6.2255   -1.2410   -2.1083 C   0  0  0  0  0  0  0  0  0  0  0  0
   -6.0345   -0.0752   -1.3172 O   0  0  0  0  0  0  0  0  0  0  0  0
   -4.7657    0.1633   -0.8679 C   0  0  0  0  0  0  0  0  0  0  0  0
   -3.6417   -0.6164   -1.1248 C   0  0  0  0  0  0  0  0  0  0  0  0
   -2.3925   -0.2555   -0.5975 C   0  0  0  0  0  0  0  0  0  0  0  0
   -2.2442    0.8921    0.1950 C   0  0  0  0  0  0  0  0  0  0  0  0
   -0.9592    1.2566    0.7302 N   0  0  0  0  0  0  0  0  0  0  0  0
   -0.5523    2.5317    1.1604 C   0  0  0  0  0  0  0  0  0  0  0  0
   -1.3345    3.6072    1.0842 O   0  0  0  0  0  0  0  0  0  0  0  0
    0.7564    2.4611    1.5944 C   0  0  0  0  0  0  0  0  0  0  0  0
    1.1894    1.1424    1.4117 C   0  0  0  0  0  0  0  0  0  0  0  0
    2.4238    0.6674    1.6978 N   0  0  0  0  0  0  0  0  0  0  0  0
    3.0137   -0.3506    0.9161 N   0  0  0  0  0  0  0  0  0  0  0  0
    4.4012   -0.4426    0.9492 C   0  0  0  0  0  0  0  0  0  0  0  0
    5.0759    0.1539    1.7887 O   0  0  0  0  0  0  0  0  0  0  0  0
    4.9587   -1.2640   -0.1026 C   0  0  0  0  0  0  0  0  0  0  0  0
    6.2651   -1.6086   -0.3933 C   0  0  0  0  0  0  0  0  0  0  0  0
    6.2235   -2.4325   -1.5435 C   0  0  0  0  0  0  0  0  0  0  0  0
    4.8975   -2.5410   -1.8888 C   0  0  0  0  0  0  0  0  0  0  0  0
    4.1207   -1.8368   -1.0256 O   0  0  0  0  0  0  0  0  0  0  0  0
    0.1304    0.4003    0.9361 C   0  0  0  0  0  0  0  0  0  0  0  0
    0.0738   -0.9232    0.7694 O   0  0  0  0  0  0  0  0  0  0  0  0
   -3.3810    1.6704    0.4451 C   0  0  0  0  0  0  0  0  0  0  0  0
   -4.6265    1.3060   -0.0819 C   0  0  0  0  0  0  0  0  0  0  0  0
   -7.2850   -1.2923   -2.3775 H   0  0  0  0  0  0  0  0  0  0  0  0
   -5.6486   -1.1863   -3.0375 H   0  0  0  0  0  0  0  0  0  0  0  0
   -5.9816   -2.1467   -1.5433 H   0  0  0  0  0  0  0  0  0  0  0  0
   -3.6929   -1.5113   -1.7356 H   0  0  0  0  0  0  0  0  0  0  0  0
   -1.5446   -0.8824   -0.8566 H   0  0  0  0  0  0  0  0  0  0  0  0
   -0.8236    4.3716    1.4037 H   0  0  0  0  0  0  0  0  0  0  0  0
    1.3393    3.2900    1.9713 H   0  0  0  0  0  0  0  0  0  0  0  0
    3.1352    1.2981    2.0884 H   0  0  0  0  0  0  0  0  0  0  0  0
    2.5595   -0.5681    0.0294 H   0  0  0  0  0  0  0  0  0  0  0  0
    7.1362   -1.2959    0.1673 H   0  0  0  0  0  0  0  0  0  0  0  0
    7.0570   -2.8906   -2.0580 H   0  0  0  0  0  0  0  0  0  0  0  0
    4.3703   -3.0555   -2.6808 H   0  0  0  0  0  0  0  0  0  0  0  0
    0.8524   -1.2684    1.2507 H   0  0  0  0  0  0  0  0  0  0  0  0
   -3.3486    2.5518    1.0769 H   0  0  0  0  0  0  0  0  0  0  0  0
   -5.4974    1.9211    0.1318 H   0  0  0  0  0  0  0  0  0  0  0  0
  1  2  1  0
  2  3  1  0
  3  4  2  0
  4  5  1  0
  5  6  2  0
  6  7  1  0
  7  8  1  0
  8  9  1  0
  8 10  2  0
 10 11  1  0
 11 12  1  0
 12 13  1  0
 13 14  1  0
 14 15  2  0
 14 16  1  0
 16 17  2  0
 17 18  1  0
 18 19  2  0
 19 20  1  0
 11 21  2  0
 21 22  1  0
  6 23  1  0
 23 24  2  0
 24  3  1  0
 21  7  1  0
 20 16  1  0
  1 25  1  0
  1 26  1  0
  1 27  1  0
  4 28  1  0
  5 29  1  0
  9 30  1  0
 10 31  1  0
 12 32  1  0
 13 33  1  0
 17 34  1  0
 18 35  1  0
 19 36  1  0
 22 37  1  0
 23 38  1  0
 24 39  1  0
M  END
$$$$
