
     RDKit          3D

 37 37  0  0  0  0  0  0  0  0999 V2000
    3.6411   -0.5587    2.1225 C   0  0  0  0  0  0  0  0  0  0  0  0
    4.5151    0.5981    1.6705 C   0  0  0  0  0  0  0  0  0  0  0  0
    3.7471    1.7716    1.0550 C   0  0  0  0  0  0  0  0  0  0  0  0
    3.0114    1.4412   -0.2482 C   0  0  0  0  0  0  0  0  0  0  0  0
    1.5319    1.1062   -0.0329 C   0  0  0  0  0  0  0  0  0  0  0  0
    0.8430    0.7745   -1.3591 C   0  0  0  0  0  0  0  0  0  0  0  0
   -0.6638    0.5419   -1.2195 C   0  0  0  0  0  0  0  0  0  0  0  0
   -1.0130   -0.7048   -0.4021 C   0  0  0  0  0  0  0  0  0  0  0  0
   -2.4679   -0.9344   -0.4144 N   0  0  0  0  0  0  0  0  0  0  0  0
   -3.2958   -0.3328    0.5258 C   0  0  0  0  0  0  0  0  0  0  0  0
   -4.6271   -0.4705    0.5599 C   0  0  0  0  0  0  0  0  0  0  0  0
   -5.2708   -1.3163   -0.4748 C   0  0  0  0  0  0  0  0  0  0  0  0
   -6.5545   -1.4764   -0.4694 N   0  0  0  0  0  0  0  0  0  0  0  0
   -4.3814   -1.9453   -1.4871 C   0  0  0  0  0  0  0  0  0  0  0  0
   -3.0646   -1.7167   -1.3954 C   0  0  0  0  0  0  0  0  0  0  0  0
    4.2427   -1.2912    2.6706 H   0  0  0  0  0  0  0  0  0  0  0  0
    3.1944   -1.0767    1.2690 H   0  0  0  0  0  0  0  0  0  0  0  0
    2.8410   -0.2148    2.7852 H   0  0  0  0  0  0  0  0  0  0  0  0
    5.2611    0.2295    0.9565 H   0  0  0  0  0  0  0  0  0  0  0  0
    5.0721    0.9716    2.5385 H   0  0  0  0  0  0  0  0  0  0  0  0
    4.4846    2.5544    0.8347 H   0  0  0  0  0  0  0  0  0  0  0  0
    3.0580    2.1993    1.7929 H   0  0  0  0  0  0  0  0  0  0  0  0
    3.5170    0.6262   -0.7794 H   0  0  0  0  0  0  0  0  0  0  0  0
    3.0655    2.3211   -0.9023 H   0  0  0  0  0  0  0  0  0  0  0  0
    1.0300    1.9619    0.4349 H   0  0  0  0  0  0  0  0  0  0  0  0
    1.4354    0.2628    0.6553 H   0  0  0  0  0  0  0  0  0  0  0  0
    0.9968    1.6044   -2.0600 H   0  0  0  0  0  0  0  0  0  0  0  0
    1.3112   -0.1095   -1.8090 H   0  0  0  0  0  0  0  0  0  0  0  0
   -1.1335    1.4265   -0.7717 H   0  0  0  0  0  0  0  0  0  0  0  0
   -1.0893    0.4448   -2.2264 H   0  0  0  0  0  0  0  0  0  0  0  0
   -0.6691   -0.5972    0.6333 H   0  0  0  0  0  0  0  0  0  0  0  0
   -0.4921   -1.5804   -0.8098 H   0  0  0  0  0  0  0  0  0  0  0  0
   -2.7843    0.2805    1.2620 H   0  0  0  0  0  0  0  0  0  0  0  0
   -5.2581    0.0025    1.2990 H   0  0  0  0  0  0  0  0  0  0  0  0
   -6.8458   -2.0823   -1.2412 H   0  0  0  0  0  0  0  0  0  0  0  0
   -4.8131   -2.5605   -2.2626 H   0  0  0  0  0  0  0  0  0  0  0  0
   -2.3753   -2.1505   -2.1140 H   0  0  0  0  0  0  0  0  0  0  0  0
  1  2  1  0
  2  3  1  0
  3  4  1  0
  4  5  1  0
  5  6  1  0
  6  7  1  0
  7  8  1  0
  8  9  1  0
  9 10  1  0
 10 11  2  0
 11 12  1  0
 12 13  2  3
 12 14  1  0
 14 15  2  0
 15  9  1  0
  1 16  1  0
  1 17  1  0
  1 18  1  0
  2 19  1  0
  2 20  1  0
  3 21  1  0
  3 22  1  0
  4 23  1  0
  4 24  1  0
  5 25  1  0
  5 26  1  0
  6 27  1  0
  6 28  1  0
  7 29  1  0
  7 30  1  0
  8 31  1  0
  8 32  1  0
 10 33  1  0
 11 34  1  0
 13 35  1  0
 14 36  1  0
 15 37  1  0
M  END
$$$$
