
     RDKit          3D

 55 59  0  0  0  0  0  0  0  0999 V2000
   -6.8043    0.6853    2.0847 C   0  0  0  0  0  0  0  0  0  0  0  0
   -5.4749    1.0685    1.5077 C   0  0  0  0  0  0  0  0  0  0  0  0
   -5.4008    1.7224    0.2729 C   0  0  0  0  0  0  0  0  0  0  0  0
   -4.1633    2.0867   -0.2626 C   0  0  0  0  0  0  0  0  0  0  0  0
   -2.9770    1.8141    0.4325 C   0  0  0  0  0  0  0  0  0  0  0  0
   -1.6391    2.1807   -0.1545 C   0  0  0  0  0  0  0  0  0  0  0  0
   -1.1329    1.1344   -1.5553 S   0  0  0  0  0  0  0  0  0  0  0  0
   -0.9511   -0.3861   -0.6922 C   0  0  0  0  0  0  0  0  0  0  0  0
   -2.0002   -1.1483   -0.5986 N   0  0  0  0  0  0  0  0  0  0  0  0
   -1.9227   -2.3544    0.1335 C   0  0  0  0  0  0  0  0  0  0  0  0
   -3.0664   -3.1442    0.2552 C   0  0  0  0  0  0  0  0  0  0  0  0
   -3.0270   -4.3354    0.9853 C   0  0  0  0  0  0  0  0  0  0  0  0
   -1.8419   -4.7433    1.6026 C   0  0  0  0  0  0  0  0  0  0  0  0
   -0.6913   -3.9607    1.4921 C   0  0  0  0  0  0  0  0  0  0  0  0
   -0.7334   -2.7720    0.7602 C   0  0  0  0  0  0  0  0  0  0  0  0
    0.4200   -1.9080    0.6042 C   0  0  0  0  0  0  0  0  0  0  0  0
    1.6374   -2.0493    1.0827 N   0  0  0  0  0  0  0  0  0  0  0  0
    2.3434   -0.9624    0.6219 C   0  0  0  0  0  0  0  0  0  0  0  0
    3.7812   -0.7923    0.9721 C   0  0  0  0  0  0  0  0  0  0  0  0
    4.6689   -0.6757   -0.2539 C   0  0  0  0  0  0  0  0  0  0  0  0
    5.3398   -1.6112   -0.6853 O   0  0  0  0  0  0  0  0  0  0  0  0
    4.6846    0.5799   -0.8263 N   0  0  0  0  0  0  0  0  0  0  0  0
    5.3769    0.7977   -2.0738 C   0  0  0  0  0  0  0  0  0  0  0  0
    5.4027    2.2552   -2.3342 C   0  0  0  0  0  0  0  0  0  0  0  0
    6.3552    3.2387   -2.1584 C   0  0  0  0  0  0  0  0  0  0  0  0
    5.7607    4.4538   -2.5739 C   0  0  0  0  0  0  0  0  0  0  0  0
    4.4864    4.1358   -2.9780 C   0  0  0  0  0  0  0  0  0  0  0  0
    4.2561    2.8052   -2.8337 O   0  0  0  0  0  0  0  0  0  0  0  0
    1.5246   -0.1281   -0.1237 C   0  0  0  0  0  0  0  0  0  0  0  0
    1.8209    1.0219   -0.7290 O   0  0  0  0  0  0  0  0  0  0  0  0
    0.2826   -0.7462   -0.1271 N   0  0  0  0  0  0  0  0  0  0  0  0
   -3.0573    1.1802    1.6813 C   0  0  0  0  0  0  0  0  0  0  0  0
   -4.2947    0.8137    2.2138 C   0  0  0  0  0  0  0  0  0  0  0  0
   -7.2413    1.5362    2.6148 H   0  0  0  0  0  0  0  0  0  0  0  0
   -7.4909    0.3638    1.2956 H   0  0  0  0  0  0  0  0  0  0  0  0
   -6.7034   -0.1513    2.7850 H   0  0  0  0  0  0  0  0  0  0  0  0
   -6.3074    1.9415   -0.2869 H   0  0  0  0  0  0  0  0  0  0  0  0
   -4.1316    2.5762   -1.2337 H   0  0  0  0  0  0  0  0  0  0  0  0
   -0.8573    2.1468    0.6129 H   0  0  0  0  0  0  0  0  0  0  0  0
   -1.6765    3.2199   -0.5011 H   0  0  0  0  0  0  0  0  0  0  0  0
   -3.9921   -2.8254   -0.2192 H   0  0  0  0  0  0  0  0  0  0  0  0
   -3.9231   -4.9481    1.0705 H   0  0  0  0  0  0  0  0  0  0  0  0
   -1.8134   -5.6721    2.1687 H   0  0  0  0  0  0  0  0  0  0  0  0
    0.2332   -4.2765    1.9719 H   0  0  0  0  0  0  0  0  0  0  0  0
    3.9121    0.1006    1.5941 H   0  0  0  0  0  0  0  0  0  0  0  0
    4.1337   -1.6447    1.5649 H   0  0  0  0  0  0  0  0  0  0  0  0
    3.8463    1.1398   -0.6852 H   0  0  0  0  0  0  0  0  0  0  0  0
    4.8400    0.2632   -2.8646 H   0  0  0  0  0  0  0  0  0  0  0  0
    6.3887    0.3816   -2.0107 H   0  0  0  0  0  0  0  0  0  0  0  0
    7.3542    3.0930   -1.7699 H   0  0  0  0  0  0  0  0  0  0  0  0
    6.2048    5.4400   -2.5795 H   0  0  0  0  0  0  0  0  0  0  0  0
    3.6610    4.7107   -3.3752 H   0  0  0  0  0  0  0  0  0  0  0  0
    1.0883    1.2904   -1.3222 H   0  0  0  0  0  0  0  0  0  0  0  0
   -2.1579    0.9525    2.2479 H   0  0  0  0  0  0  0  0  0  0  0  0
   -4.3305    0.3141    3.1796 H   0  0  0  0  0  0  0  0  0  0  0  0
  1  2  1  0
  2  3  2  0
  3  4  1  0
  4  5  2  0
  5  6  1  0
  6  7  1  0
  7  8  1  0
  8  9  2  0
  9 10  1  0
 10 11  2  0
 11 12  1  0
 12 13  2  0
 13 14  1  0
 14 15  2  0
 15 16  1  0
 16 17  2  0
 17 18  1  0
 18 19  1  0
 19 20  1  0
 20 21  2  0
 20 22  1  0
 22 23  1  0
 23 24  1  0
 24 25  2  0
 25 26  1  0
 26 27  2  0
 27 28  1  0
 18 29  2  0
 29 30  1  0
 29 31  1  0
  5 32  1  0
 32 33  2  0
 33  2  1  0
 31  8  1  0
 15 10  1  0
 31 16  1  0
 28 24  1  0
  1 34  1  0
  1 35  1  0
  1 36  1  0
  3 37  1  0
  4 38  1  0
  6 39  1  0
  6 40  1  0
 11 41  1  0
 12 42  1  0
 13 43  1  0
 14 44  1  0
 19 45  1  0
 19 46  1  0
 22 47  1  0
 23 48  1  0
 23 49  1  0
 25 50  1  0
 26 51  1  0
 27 52  1  0
 30 53  1  0
 32 54  1  0
 33 55  1  0
M  END
$$$$
