
     RDKit          3D

 56 59  0  0  0  0  0  0  0  0999 V2000
   -1.5227    2.5541   -3.0954 C   0  0  0  0  0  0  0  0  0  0  0  0
   -2.6620    1.5558   -3.0004 C   0  0  0  0  0  0  0  0  0  0  0  0
   -2.6822    0.9485   -1.7010 O   0  0  0  0  0  0  0  0  0  0  0  0
   -1.8658   -0.1322   -1.5362 C   0  0  0  0  0  0  0  0  0  0  0  0
   -1.1530   -0.5898   -2.4222 O   0  0  0  0  0  0  0  0  0  0  0  0
   -1.8974   -0.6792   -0.1777 C   0  0  0  0  0  0  0  0  0  0  0  0
   -0.9117   -1.5433    0.2915 C   0  0  0  0  0  0  0  0  0  0  0  0
    0.2260   -1.9574   -0.3905 N   0  0  0  0  0  0  0  0  0  0  0  0
    1.1320   -2.9315    0.0088 C   0  0  0  0  0  0  0  0  0  0  0  0
    0.9907   -3.7301    0.9330 O   0  0  0  0  0  0  0  0  0  0  0  0
    2.3671   -3.0069   -0.8911 C   0  0  0  0  0  0  0  0  0  0  0  0
    3.1610   -1.7823   -0.7988 N   0  0  0  0  0  0  0  0  0  0  0  0
    4.1756   -1.7798    0.1300 N   0  0  0  0  0  0  0  0  0  0  0  0
    4.8986   -0.7078    0.2645 C   0  0  0  0  0  0  0  0  0  0  0  0
    6.0061   -0.7549    1.3022 C   0  0  0  0  0  0  0  0  0  0  0  0
    5.9942   -0.1313    2.3434 O   0  0  0  0  0  0  0  0  0  0  0  0
    7.0210   -1.5321    0.9137 O   0  0  0  0  0  0  0  0  0  0  0  0
    4.7028    0.5191   -0.5184 C   0  0  0  0  0  0  0  0  0  0  0  0
    5.4881    1.6666   -0.3554 C   0  0  0  0  0  0  0  0  0  0  0  0
    5.2400    2.7948   -1.1421 C   0  0  0  0  0  0  0  0  0  0  0  0
    4.2145    2.7806   -2.0874 C   0  0  0  0  0  0  0  0  0  0  0  0
    3.4312    1.6379   -2.2476 C   0  0  0  0  0  0  0  0  0  0  0  0
    3.6793    0.5070   -1.4595 C   0  0  0  0  0  0  0  0  0  0  0  0
    2.8495   -0.7009   -1.6130 C   0  0  0  0  0  0  0  0  0  0  0  0
    1.9182   -0.7083   -2.4137 O   0  0  0  0  0  0  0  0  0  0  0  0
   -1.1759   -2.0154    1.9024 S   0  0  0  0  0  0  0  0  0  0  0  0
   -2.5928   -1.0979    2.0198 C   0  0  0  0  0  0  0  0  0  0  0  0
   -2.8990   -0.4382    0.8453 C   0  0  0  0  0  0  0  0  0  0  0  0
   -4.1278    0.4227    0.7380 C   0  0  0  0  0  0  0  0  0  0  0  0
   -5.1196    0.1748    1.8866 C   0  0  0  0  0  0  0  0  0  0  0  0
   -4.4069    0.1017    3.2516 C   0  0  0  0  0  0  0  0  0  0  0  0
   -5.4182   -0.0316    4.3879 C   0  0  0  0  0  0  0  0  0  0  0  0
   -3.4053   -1.0717    3.2785 C   0  0  0  0  0  0  0  0  0  0  0  0
   -0.5536    2.0588   -2.9785 H   0  0  0  0  0  0  0  0  0  0  0  0
   -1.5370    3.0681   -4.0605 H   0  0  0  0  0  0  0  0  0  0  0  0
   -1.5980    3.2993   -2.2966 H   0  0  0  0  0  0  0  0  0  0  0  0
   -3.6175    2.0763   -3.1233 H   0  0  0  0  0  0  0  0  0  0  0  0
   -2.6040    0.8012   -3.7934 H   0  0  0  0  0  0  0  0  0  0  0  0
    0.3696   -1.5360   -1.3140 H   0  0  0  0  0  0  0  0  0  0  0  0
    2.0458   -3.1731   -1.9253 H   0  0  0  0  0  0  0  0  0  0  0  0
    2.9864   -3.8579   -0.5865 H   0  0  0  0  0  0  0  0  0  0  0  0
    7.6359   -1.5410    1.6755 H   0  0  0  0  0  0  0  0  0  0  0  0
    6.2896    1.7131    0.3777 H   0  0  0  0  0  0  0  0  0  0  0  0
    5.8463    3.6895   -1.0147 H   0  0  0  0  0  0  0  0  0  0  0  0
    4.0230    3.6606   -2.6976 H   0  0  0  0  0  0  0  0  0  0  0  0
    2.6289    1.6306   -2.9834 H   0  0  0  0  0  0  0  0  0  0  0  0
   -4.6429    0.2372   -0.2109 H   0  0  0  0  0  0  0  0  0  0  0  0
   -3.8185    1.4750    0.7529 H   0  0  0  0  0  0  0  0  0  0  0  0
   -5.8723    0.9725    1.8880 H   0  0  0  0  0  0  0  0  0  0  0  0
   -5.6559   -0.7667    1.7054 H   0  0  0  0  0  0  0  0  0  0  0  0
   -3.8532    1.0393    3.3987 H   0  0  0  0  0  0  0  0  0  0  0  0
   -6.0994    0.8256    4.4029 H   0  0  0  0  0  0  0  0  0  0  0  0
   -6.0203   -0.9402    4.2817 H   0  0  0  0  0  0  0  0  0  0  0  0
   -4.9094   -0.0723    5.3570 H   0  0  0  0  0  0  0  0  0  0  0  0
   -2.7561   -0.9761    4.1572 H   0  0  0  0  0  0  0  0  0  0  0  0
   -3.9429   -2.0246    3.3691 H   0  0  0  0  0  0  0  0  0  0  0  0
  1  2  1  0
  2  3  1  0
  3  4  1  0
  4  5  2  0
  4  6  1  0
  6  7  2  0
  7  8  1  0
  8  9  1  0
  9 10  2  0
  9 11  1  0
 11 12  1  0
 12 13  1  0
 13 14  2  0
 14 15  1  0
 15 16  2  0
 15 17  1  0
 14 18  1  0
 18 19  2  0
 19 20  1  0
 20 21  2  0
 21 22  1  0
 22 23  2  0
 23 24  1  0
 24 25  2  0
  7 26  1  0
 26 27  1  0
 27 28  2  0
 28 29  1  0
 29 30  1  0
 30 31  1  0
 31 32  1  0
 31 33  1  0
 28  6  1  0
 24 12  1  0
 33 27  1  0
 23 18  1  0
  1 34  1  0
  1 35  1  0
  1 36  1  0
  2 37  1  0
  2 38  1  0
  8 39  1  0
 11 40  1  0
 11 41  1  0
 17 42  1  0
 19 43  1  0
 20 44  1  0
 21 45  1  0
 22 46  1  0
 29 47  1  0
 29 48  1  0
 30 49  1  0
 30 50  1  0
 31 51  1  0
 32 52  1  0
 32 53  1  0
 32 54  1  0
 33 55  1  0
 33 56  1  0
M  END
$$$$
