
     RDKit          3D

 64 67  0  0  0  0  0  0  0  0999 V2000
   -3.2058    1.4581   -2.3554 C   0  0  0  0  0  0  0  0  0  0  0  0
   -1.8373    1.3277   -1.9690 O   0  0  0  0  0  0  0  0  0  0  0  0
   -1.5389    1.9772   -0.7987 C   0  0  0  0  0  0  0  0  0  0  0  0
   -1.8258    3.3478   -0.6706 C   0  0  0  0  0  0  0  0  0  0  0  0
   -1.4923    4.0503    0.4910 C   0  0  0  0  0  0  0  0  0  0  0  0
   -1.7486    5.3835    0.6926 O   0  0  0  0  0  0  0  0  0  0  0  0
   -2.3180    6.1176   -0.3841 C   0  0  0  0  0  0  0  0  0  0  0  0
   -0.8477    3.3720    1.5355 C   0  0  0  0  0  0  0  0  0  0  0  0
   -0.4616    4.0333    2.7813 C   0  0  0  0  0  0  0  0  0  0  0  0
    0.1672    3.3581    3.7468 C   0  0  0  0  0  0  0  0  0  0  0  0
    0.4980    1.9344    3.6132 C   0  0  0  0  0  0  0  0  0  0  0  0
    1.0698    1.3286    4.5115 O   0  0  0  0  0  0  0  0  0  0  0  0
    0.1223    1.3248    2.4277 O   0  0  0  0  0  0  0  0  0  0  0  0
   -0.5455    2.0126    1.3790 C   0  0  0  0  0  0  0  0  0  0  0  0
   -0.8731    1.2772    0.2197 C   0  0  0  0  0  0  0  0  0  0  0  0
   -0.4618   -0.1966    0.1195 C   0  0  0  0  0  0  0  0  0  0  0  0
   -1.5269   -1.1396   -0.4971 C   0  0  0  0  0  0  0  0  0  0  0  0
   -1.3091   -2.6319   -0.1781 C   0  0  0  0  0  0  0  0  0  0  0  0
   -2.0621   -3.1068    0.9896 N   0  0  0  0  0  0  0  0  0  0  0  0
   -1.5770   -2.6014    2.2747 C   0  0  0  0  0  0  0  0  0  0  0  0
   -2.1845   -3.5554    3.2948 C   0  0  0  0  0  0  0  0  0  0  0  0
   -2.5387   -4.8121    2.5102 C   0  0  0  0  0  0  0  0  0  0  0  0
   -1.9908   -4.5662    1.1154 C   0  0  0  0  0  0  0  0  0  0  0  0
    0.9218   -0.3539   -0.5083 C   0  0  0  0  0  0  0  0  0  0  0  0
    1.1399   -0.2351   -1.8813 C   0  0  0  0  0  0  0  0  0  0  0  0
    2.4273   -0.3795   -2.4233 C   0  0  0  0  0  0  0  0  0  0  0  0
    3.5550   -0.6525   -1.6309 C   0  0  0  0  0  0  0  0  0  0  0  0
    4.8379   -0.7808   -2.1795 N   0  0  0  0  0  0  0  0  0  0  0  0
    5.9164   -1.3021   -1.3425 C   0  0  0  0  0  0  0  0  0  0  0  0
    4.9644   -1.0483   -3.6108 C   0  0  0  0  0  0  0  0  0  0  0  0
    3.3166   -0.7395   -0.2497 C   0  0  0  0  0  0  0  0  0  0  0  0
    2.0342   -0.5980    0.3030 C   0  0  0  0  0  0  0  0  0  0  0  0
   -3.3626    2.3922   -2.9037 H   0  0  0  0  0  0  0  0  0  0  0  0
   -3.8834    1.3944   -1.4961 H   0  0  0  0  0  0  0  0  0  0  0  0
   -3.4408    0.6302   -3.0309 H   0  0  0  0  0  0  0  0  0  0  0  0
   -2.2908    3.8547   -1.5079 H   0  0  0  0  0  0  0  0  0  0  0  0
   -3.3178    5.7451   -0.6297 H   0  0  0  0  0  0  0  0  0  0  0  0
   -2.4216    7.1581   -0.0610 H   0  0  0  0  0  0  0  0  0  0  0  0
   -1.6625    6.1057   -1.2611 H   0  0  0  0  0  0  0  0  0  0  0  0
   -0.6929    5.0860    2.9052 H   0  0  0  0  0  0  0  0  0  0  0  0
    0.4638    3.8300    4.6752 H   0  0  0  0  0  0  0  0  0  0  0  0
   -0.3680   -0.5499    1.1505 H   0  0  0  0  0  0  0  0  0  0  0  0
   -2.5302   -0.8433   -0.1625 H   0  0  0  0  0  0  0  0  0  0  0  0
   -1.5369   -1.0468   -1.5889 H   0  0  0  0  0  0  0  0  0  0  0  0
   -0.2427   -2.8731   -0.0936 H   0  0  0  0  0  0  0  0  0  0  0  0
   -1.6799   -3.1889   -1.0491 H   0  0  0  0  0  0  0  0  0  0  0  0
   -1.9029   -1.5743    2.4658 H   0  0  0  0  0  0  0  0  0  0  0  0
   -0.4824   -2.6453    2.3400 H   0  0  0  0  0  0  0  0  0  0  0  0
   -3.0877   -3.1288    3.7453 H   0  0  0  0  0  0  0  0  0  0  0  0
   -1.4764   -3.7720    4.1012 H   0  0  0  0  0  0  0  0  0  0  0  0
   -3.6282   -4.9349    2.4805 H   0  0  0  0  0  0  0  0  0  0  0  0
   -2.1116   -5.7118    2.9640 H   0  0  0  0  0  0  0  0  0  0  0  0
   -0.9563   -4.9279    1.0504 H   0  0  0  0  0  0  0  0  0  0  0  0
   -2.5900   -5.0765    0.3544 H   0  0  0  0  0  0  0  0  0  0  0  0
    0.3173   -0.0151   -2.5568 H   0  0  0  0  0  0  0  0  0  0  0  0
    2.5168   -0.2574   -3.4979 H   0  0  0  0  0  0  0  0  0  0  0  0
    5.6946   -2.3193   -1.0016 H   0  0  0  0  0  0  0  0  0  0  0  0
    6.0971   -0.6534   -0.4787 H   0  0  0  0  0  0  0  0  0  0  0  0
    6.8634   -1.3369   -1.8928 H   0  0  0  0  0  0  0  0  0  0  0  0
    4.4472   -1.9741   -3.8860 H   0  0  0  0  0  0  0  0  0  0  0  0
    6.0150   -1.1581   -3.9030 H   0  0  0  0  0  0  0  0  0  0  0  0
    4.5744   -0.2167   -4.2066 H   0  0  0  0  0  0  0  0  0  0  0  0
    4.1278   -0.9189    0.4487 H   0  0  0  0  0  0  0  0  0  0  0  0
    1.9228   -0.6763    1.3828 H   0  0  0  0  0  0  0  0  0  0  0  0
  1  2  1  0
  2  3  1  0
  3  4  2  0
  4  5  1  0
  5  6  1  0
  6  7  1  0
  5  8  2  0
  8  9  1  0
  9 10  2  0
 10 11  1  0
 11 12  2  0
 11 13  1  0
 13 14  1  0
 14 15  2  0
 15 16  1  0
 16 17  1  0
 17 18  1  0
 18 19  1  0
 19 20  1  0
 20 21  1  0
 21 22  1  0
 22 23  1  0
 16 24  1  0
 24 25  2  0
 25 26  1  0
 26 27  2  0
 27 28  1  0
 28 29  1  0
 28 30  1  0
 27 31  1  0
 31 32  2  0
 15  3  1  0
 23 19  1  0
 32 24  1  0
 14  8  1  0
  1 33  1  0
  1 34  1  0
  1 35  1  0
  4 36  1  0
  7 37  1  0
  7 38  1  0
  7 39  1  0
  9 40  1  0
 10 41  1  0
 16 42  1  0
 17 43  1  0
 17 44  1  0
 18 45  1  0
 18 46  1  0
 20 47  1  0
 20 48  1  0
 21 49  1  0
 21 50  1  0
 22 51  1  0
 22 52  1  0
 23 53  1  0
 23 54  1  0
 25 55  1  0
 26 56  1  0
 29 57  1  0
 29 58  1  0
 29 59  1  0
 30 60  1  0
 30 61  1  0
 30 62  1  0
 31 63  1  0
 32 64  1  0
M  END
$$$$
