
     RDKit          3D

 43 45  0  0  0  0  0  0  0  0999 V2000
    6.2827   -0.6125   -0.5760 C   0  0  0  0  0  0  0  0  0  0  0  0
    4.9757   -0.5774   -1.3533 C   0  0  0  0  0  0  0  0  0  0  0  0
    4.4719    0.8422   -1.6236 C   0  0  0  0  0  0  0  0  0  0  0  0
    3.9718    1.6014   -0.3888 C   0  0  0  0  0  0  0  0  0  0  0  0
    2.7842    1.0167    0.2345 N   0  0  0  0  0  0  0  0  0  0  0  0
    1.5382    1.0567   -0.5158 C   0  0  0  0  0  0  0  0  0  0  0  0
    0.3367    0.6748    0.2789 C   0  0  0  0  0  0  0  0  0  0  0  0
   -0.9662    0.8914   -0.1792 C   0  0  0  0  0  0  0  0  0  0  0  0
   -2.0442    0.4410    0.5845 C   0  0  0  0  0  0  0  0  0  0  0  0
   -3.4216    0.6909    0.1178 C   0  0  0  0  0  0  0  0  0  0  0  0
   -3.6673    1.7526   -0.4543 O   0  0  0  0  0  0  0  0  0  0  0  0
   -4.5300   -0.2749    0.3232 C   0  0  0  0  0  0  0  0  0  0  0  0
   -4.2943   -1.6518    0.4025 C   0  0  0  0  0  0  0  0  0  0  0  0
   -5.3660   -2.5186    0.6005 C   0  0  0  0  0  0  0  0  0  0  0  0
   -5.1343   -3.8348    0.6822 F   0  0  0  0  0  0  0  0  0  0  0  0
   -6.6693   -2.0467    0.7114 C   0  0  0  0  0  0  0  0  0  0  0  0
   -6.9141   -0.6793    0.6061 C   0  0  0  0  0  0  0  0  0  0  0  0
   -5.8506    0.1984    0.3989 C   0  0  0  0  0  0  0  0  0  0  0  0
   -6.1733    1.5229    0.2743 O   0  0  0  0  0  0  0  0  0  0  0  0
   -1.7711   -0.1852    1.7924 C   0  0  0  0  0  0  0  0  0  0  0  0
   -0.5178   -0.4246    2.2466 N   0  0  0  0  0  0  0  0  0  0  0  0
    0.5031    0.0157    1.4825 C   0  0  0  0  0  0  0  0  0  0  0  0
    1.7808   -0.2065    1.9508 N   0  0  0  0  0  0  0  0  0  0  0  0
    2.9188    0.2881    1.3985 C   0  0  0  0  0  0  0  0  0  0  0  0
    3.9945    0.0951    1.9610 O   0  0  0  0  0  0  0  0  0  0  0  0
    6.6230   -1.6466   -0.4609 H   0  0  0  0  0  0  0  0  0  0  0  0
    6.1737   -0.1847    0.4235 H   0  0  0  0  0  0  0  0  0  0  0  0
    7.0655   -0.0572   -1.1026 H   0  0  0  0  0  0  0  0  0  0  0  0
    5.1400   -1.0733   -2.3178 H   0  0  0  0  0  0  0  0  0  0  0  0
    4.2145   -1.1642   -0.8283 H   0  0  0  0  0  0  0  0  0  0  0  0
    5.2777    1.4245   -2.0877 H   0  0  0  0  0  0  0  0  0  0  0  0
    3.6692    0.7882   -2.3683 H   0  0  0  0  0  0  0  0  0  0  0  0
    4.7766    1.6939    0.3479 H   0  0  0  0  0  0  0  0  0  0  0  0
    3.7069    2.6246   -0.6816 H   0  0  0  0  0  0  0  0  0  0  0  0
    1.4127    2.0762   -0.8983 H   0  0  0  0  0  0  0  0  0  0  0  0
    1.6331    0.3681   -1.3625 H   0  0  0  0  0  0  0  0  0  0  0  0
   -1.1422    1.4026   -1.1236 H   0  0  0  0  0  0  0  0  0  0  0  0
   -3.3029   -2.0805    0.2978 H   0  0  0  0  0  0  0  0  0  0  0  0
   -7.4857   -2.7455    0.8662 H   0  0  0  0  0  0  0  0  0  0  0  0
   -7.9293   -0.2963    0.6737 H   0  0  0  0  0  0  0  0  0  0  0  0
   -5.3839    1.9972   -0.0724 H   0  0  0  0  0  0  0  0  0  0  0  0
   -2.5586   -0.5160    2.4640 H   0  0  0  0  0  0  0  0  0  0  0  0
    1.8715   -0.6867    2.8334 H   0  0  0  0  0  0  0  0  0  0  0  0
  1  2  1  0
  2  3  1  0
  3  4  1  0
  4  5  1  0
  5  6  1  0
  6  7  1  0
  7  8  2  0
  8  9  1  0
  9 10  1  0
 10 11  2  0
 10 12  1  0
 12 13  2  0
 13 14  1  0
 14 15  1  0
 14 16  2  0
 16 17  1  0
 17 18  2  0
 18 19  1  0
  9 20  2  0
 20 21  1  0
 21 22  2  0
 22 23  1  0
 23 24  1  0
 24 25  2  0
 24  5  1  0
 22  7  1  0
 18 12  1  0
  1 26  1  0
  1 27  1  0
  1 28  1  0
  2 29  1  0
  2 30  1  0
  3 31  1  0
  3 32  1  0
  4 33  1  0
  4 34  1  0
  6 35  1  0
  6 36  1  0
  8 37  1  0
 13 38  1  0
 16 39  1  0
 17 40  1  0
 19 41  1  0
 20 42  1  0
 23 43  1  0
M  END
$$$$
