
     RDKit          3D

 39 41  0  0  0  0  0  0  0  0999 V2000
   -3.6624   -2.5055    1.0741 C   0  0  0  0  0  0  0  0  0  0  0  0
   -3.5916   -2.5900   -0.4418 C   0  0  0  0  0  0  0  0  0  0  0  0
   -1.9592   -3.1691   -1.0146 S   0  0  0  0  0  0  0  0  0  0  0  0
   -0.9512   -1.7123   -0.7709 C   0  0  0  0  0  0  0  0  0  0  0  0
    0.4195   -1.8548   -0.8003 C   0  0  0  0  0  0  0  0  0  0  0  0
    1.1833   -0.7209   -0.6210 C   0  0  0  0  0  0  0  0  0  0  0  0
    2.5598   -0.7681   -0.6451 N   0  0  0  0  0  0  0  0  0  0  0  0
    3.3221   -1.9524   -0.2584 C   0  0  0  0  0  0  0  0  0  0  0  0
    4.6406   -1.3946    0.2807 C   0  0  0  0  0  0  0  0  0  0  0  0
    4.7673   -0.0459   -0.4095 C   0  0  0  0  0  0  0  0  0  0  0  0
    3.3255    0.4532   -0.4234 C   0  0  0  0  0  0  0  0  0  0  0  0
    0.5904    0.4730   -0.4531 N   0  0  0  0  0  0  0  0  0  0  0  0
   -0.7540    0.5287   -0.4428 C   0  0  0  0  0  0  0  0  0  0  0  0
   -1.3852    1.8499   -0.2390 C   0  0  0  0  0  0  0  0  0  0  0  0
   -2.7879    2.0034   -0.2358 C   0  0  0  0  0  0  0  0  0  0  0  0
   -3.3864    3.2523   -0.0376 C   0  0  0  0  0  0  0  0  0  0  0  0
   -2.5878    4.3699    0.1581 C   0  0  0  0  0  0  0  0  0  0  0  0
   -3.1586    5.5665    0.3439 F   0  0  0  0  0  0  0  0  0  0  0  0
   -1.2041    4.2622    0.1605 C   0  0  0  0  0  0  0  0  0  0  0  0
   -0.6099    3.0116   -0.0369 C   0  0  0  0  0  0  0  0  0  0  0  0
   -1.5590   -0.5332   -0.5934 N   0  0  0  0  0  0  0  0  0  0  0  0
   -4.6864   -2.2662    1.3819 H   0  0  0  0  0  0  0  0  0  0  0  0
   -3.3898   -3.4548    1.5466 H   0  0  0  0  0  0  0  0  0  0  0  0
   -3.0119   -1.7218    1.4705 H   0  0  0  0  0  0  0  0  0  0  0  0
   -4.3288   -3.3220   -0.7883 H   0  0  0  0  0  0  0  0  0  0  0  0
   -3.8544   -1.6338   -0.9040 H   0  0  0  0  0  0  0  0  0  0  0  0
    0.8723   -2.8207   -0.9737 H   0  0  0  0  0  0  0  0  0  0  0  0
    3.4991   -2.5804   -1.1382 H   0  0  0  0  0  0  0  0  0  0  0  0
    2.8268   -2.5510    0.5143 H   0  0  0  0  0  0  0  0  0  0  0  0
    4.5673   -1.2514    1.3659 H   0  0  0  0  0  0  0  0  0  0  0  0
    5.4877   -2.0570    0.0823 H   0  0  0  0  0  0  0  0  0  0  0  0
    5.4433    0.6378    0.1107 H   0  0  0  0  0  0  0  0  0  0  0  0
    5.1328   -0.1816   -1.4336 H   0  0  0  0  0  0  0  0  0  0  0  0
    3.0741    0.9025    0.5459 H   0  0  0  0  0  0  0  0  0  0  0  0
    3.1717    1.1909   -1.2183 H   0  0  0  0  0  0  0  0  0  0  0  0
   -3.4309    1.1384   -0.3908 H   0  0  0  0  0  0  0  0  0  0  0  0
   -4.4674    3.3555   -0.0384 H   0  0  0  0  0  0  0  0  0  0  0  0
   -0.5940    5.1466    0.3132 H   0  0  0  0  0  0  0  0  0  0  0  0
    0.4773    2.9452   -0.0327 H   0  0  0  0  0  0  0  0  0  0  0  0
  1  2  1  0
  2  3  1  0
  3  4  1  0
  4  5  2  0
  5  6  1  0
  6  7  1  0
  7  8  1  0
  8  9  1  0
  9 10  1  0
 10 11  1  0
  6 12  2  0
 12 13  1  0
 13 14  1  0
 14 15  2  0
 15 16  1  0
 16 17  2  0
 17 18  1  0
 17 19  1  0
 19 20  2  0
 13 21  2  0
 21  4  1  0
 11  7  1  0
 20 14  1  0
  1 22  1  0
  1 23  1  0
  1 24  1  0
  2 25  1  0
  2 26  1  0
  5 27  1  0
  8 28  1  0
  8 29  1  0
  9 30  1  0
  9 31  1  0
 10 32  1  0
 10 33  1  0
 11 34  1  0
 11 35  1  0
 15 36  1  0
 16 37  1  0
 19 38  1  0
 20 39  1  0
M  END
$$$$
