
     RDKit          3D

 80 84  0  0  0  0  0  0  0  0999 V2000
   -0.3936   -0.8158    3.0749 C   0  0  0  0  0  0  0  0  0  0  0  0
   -0.4463   -1.1523    1.6880 O   0  0  0  0  0  0  0  0  0  0  0  0
    0.7719   -1.0564    1.0673 C   0  0  0  0  0  0  0  0  0  0  0  0
    1.8769   -1.7469    1.5748 C   0  0  0  0  0  0  0  0  0  0  0  0
    3.1273   -1.6592    0.9513 C   0  0  0  0  0  0  0  0  0  0  0  0
    4.1858   -2.3805    1.4409 O   0  0  0  0  0  0  0  0  0  0  0  0
    4.4237   -2.1874    2.8341 C   0  0  0  0  0  0  0  0  0  0  0  0
    3.2877   -0.9101   -0.2264 C   0  0  0  0  0  0  0  0  0  0  0  0
    4.5727   -0.7576   -0.9494 C   0  0  0  0  0  0  0  0  0  0  0  0
    5.8826   -1.3286   -0.5736 C   0  0  0  0  0  0  0  0  0  0  0  0
    6.2500   -2.6063   -1.0144 C   0  0  0  0  0  0  0  0  0  0  0  0
    7.4959   -3.1358   -0.6739 C   0  0  0  0  0  0  0  0  0  0  0  0
    8.3815   -2.3914    0.1048 C   0  0  0  0  0  0  0  0  0  0  0  0
    8.0250   -1.1170    0.5445 C   0  0  0  0  0  0  0  0  0  0  0  0
    6.7794   -0.5852    0.2058 C   0  0  0  0  0  0  0  0  0  0  0  0
    4.6019   -0.0130   -2.0663 C   0  0  0  0  0  0  0  0  0  0  0  0
    3.4287    0.6672   -2.6143 C   0  0  0  0  0  0  0  0  0  0  0  0
    3.5075    1.3460   -3.6305 O   0  0  0  0  0  0  0  0  0  0  0  0
    2.2467    0.5064   -1.9214 O   0  0  0  0  0  0  0  0  0  0  0  0
    2.1489   -0.2605   -0.7334 C   0  0  0  0  0  0  0  0  0  0  0  0
    0.8738   -0.3213   -0.1225 C   0  0  0  0  0  0  0  0  0  0  0  0
   -0.3254    0.4098   -0.7430 C   0  0  0  0  0  0  0  0  0  0  0  0
   -1.4770   -0.5721   -1.0943 C   0  0  0  0  0  0  0  0  0  0  0  0
   -2.4860    0.0464   -2.0797 C   0  0  0  0  0  0  0  0  0  0  0  0
   -3.6657   -0.7695   -2.4100 N   0  0  0  0  0  0  0  0  0  0  0  0
   -3.3272   -2.0578   -3.0203 C   0  0  0  0  0  0  0  0  0  0  0  0
   -4.5871   -2.7614   -3.5280 C   0  0  0  0  0  0  0  0  0  0  0  0
   -5.6157   -2.9327   -2.4153 C   0  0  0  0  0  0  0  0  0  0  0  0
   -5.8940   -1.5919   -1.7252 C   0  0  0  0  0  0  0  0  0  0  0  0
   -6.8414   -1.7782   -0.5417 C   0  0  0  0  0  0  0  0  0  0  0  0
   -4.5794   -0.9333   -1.2731 C   0  0  0  0  0  0  0  0  0  0  0  0
   -0.7115    1.6511    0.0604 C   0  0  0  0  0  0  0  0  0  0  0  0
    0.0524    2.8159   -0.0710 C   0  0  0  0  0  0  0  0  0  0  0  0
   -0.2615    3.9772    0.6520 C   0  0  0  0  0  0  0  0  0  0  0  0
   -1.3530    4.0422    1.5335 C   0  0  0  0  0  0  0  0  0  0  0  0
   -1.6548    5.2003    2.2646 N   0  0  0  0  0  0  0  0  0  0  0  0
   -1.1100    6.4757    1.7990 C   0  0  0  0  0  0  0  0  0  0  0  0
   -2.9494    5.2869    2.9389 C   0  0  0  0  0  0  0  0  0  0  0  0
   -2.0910    2.8548    1.6705 C   0  0  0  0  0  0  0  0  0  0  0  0
   -1.7856    1.6880    0.9508 C   0  0  0  0  0  0  0  0  0  0  0  0
   -1.4086   -0.5597    3.3935 H   0  0  0  0  0  0  0  0  0  0  0  0
   -0.0650   -1.6770    3.6664 H   0  0  0  0  0  0  0  0  0  0  0  0
    0.2487    0.0530    3.2646 H   0  0  0  0  0  0  0  0  0  0  0  0
    1.7509   -2.3888    2.4408 H   0  0  0  0  0  0  0  0  0  0  0  0
    3.7711   -2.8340    3.4293 H   0  0  0  0  0  0  0  0  0  0  0  0
    4.3036   -1.1386    3.1277 H   0  0  0  0  0  0  0  0  0  0  0  0
    5.4585   -2.4782    3.0395 H   0  0  0  0  0  0  0  0  0  0  0  0
    5.5633   -3.1985   -1.6146 H   0  0  0  0  0  0  0  0  0  0  0  0
    7.7733   -4.1305   -1.0132 H   0  0  0  0  0  0  0  0  0  0  0  0
    9.3505   -2.8063    0.3697 H   0  0  0  0  0  0  0  0  0  0  0  0
    8.7167   -0.5375    1.1507 H   0  0  0  0  0  0  0  0  0  0  0  0
    6.5107    0.4085    0.5550 H   0  0  0  0  0  0  0  0  0  0  0  0
    5.5119    0.1398   -2.6384 H   0  0  0  0  0  0  0  0  0  0  0  0
   -0.0152    0.7977   -1.7226 H   0  0  0  0  0  0  0  0  0  0  0  0
   -1.9935   -0.9160   -0.1948 H   0  0  0  0  0  0  0  0  0  0  0  0
   -1.0393   -1.4660   -1.5574 H   0  0  0  0  0  0  0  0  0  0  0  0
   -2.8374    1.0144   -1.7045 H   0  0  0  0  0  0  0  0  0  0  0  0
   -1.9636    0.2809   -3.0164 H   0  0  0  0  0  0  0  0  0  0  0  0
   -2.8128   -2.7136   -2.3078 H   0  0  0  0  0  0  0  0  0  0  0  0
   -2.6543   -1.9051   -3.8719 H   0  0  0  0  0  0  0  0  0  0  0  0
   -5.0281   -2.1814   -4.3486 H   0  0  0  0  0  0  0  0  0  0  0  0
   -4.3223   -3.7421   -3.9382 H   0  0  0  0  0  0  0  0  0  0  0  0
   -5.2402   -3.6597   -1.6844 H   0  0  0  0  0  0  0  0  0  0  0  0
   -6.5424   -3.3460   -2.8298 H   0  0  0  0  0  0  0  0  0  0  0  0
   -6.3876   -0.9265   -2.4475 H   0  0  0  0  0  0  0  0  0  0  0  0
   -6.3991   -2.4195    0.2271 H   0  0  0  0  0  0  0  0  0  0  0  0
   -7.0779   -0.8139   -0.0815 H   0  0  0  0  0  0  0  0  0  0  0  0
   -7.7826   -2.2352   -0.8650 H   0  0  0  0  0  0  0  0  0  0  0  0
   -4.8140    0.0480   -0.8416 H   0  0  0  0  0  0  0  0  0  0  0  0
   -4.1192   -1.5362   -0.4802 H   0  0  0  0  0  0  0  0  0  0  0  0
    0.9098    2.8374   -0.7413 H   0  0  0  0  0  0  0  0  0  0  0  0
    0.3889    4.8329    0.5011 H   0  0  0  0  0  0  0  0  0  0  0  0
   -1.4406    6.6966    0.7774 H   0  0  0  0  0  0  0  0  0  0  0  0
   -0.0153    6.4817    1.8436 H   0  0  0  0  0  0  0  0  0  0  0  0
   -1.4384    7.3031    2.4395 H   0  0  0  0  0  0  0  0  0  0  0  0
   -3.0541    6.2378    3.4725 H   0  0  0  0  0  0  0  0  0  0  0  0
   -3.7734    5.2182    2.2206 H   0  0  0  0  0  0  0  0  0  0  0  0
   -3.0548    4.5059    3.6993 H   0  0  0  0  0  0  0  0  0  0  0  0
   -2.9372    2.7976    2.3477 H   0  0  0  0  0  0  0  0  0  0  0  0
   -2.4056    0.8111    1.1154 H   0  0  0  0  0  0  0  0  0  0  0  0
  1  2  1  0
  2  3  1  0
  3  4  2  0
  4  5  1  0
  5  6  1  0
  6  7  1  0
  5  8  2  0
  8  9  1  0
  9 10  1  0
 10 11  2  0
 11 12  1  0
 12 13  2  0
 13 14  1  0
 14 15  2  0
  9 16  2  0
 16 17  1  0
 17 18  2  0
 17 19  1  0
 19 20  1  0
 20 21  2  0
 21 22  1  0
 22 23  1  0
 23 24  1  0
 24 25  1  0
 25 26  1  0
 26 27  1  0
 27 28  1  0
 28 29  1  0
 29 30  1  0
 29 31  1  0
 22 32  1  0
 32 33  2  0
 33 34  1  0
 34 35  2  0
 35 36  1  0
 36 37  1  0
 36 38  1  0
 35 39  1  0
 39 40  2  0
 21  3  1  0
 31 25  1  0
 40 32  1  0
 20  8  1  0
 15 10  1  0
  1 41  1  0
  1 42  1  0
  1 43  1  0
  4 44  1  0
  7 45  1  0
  7 46  1  0
  7 47  1  0
 11 48  1  0
 12 49  1  0
 13 50  1  0
 14 51  1  0
 15 52  1  0
 16 53  1  0
 22 54  1  0
 23 55  1  0
 23 56  1  0
 24 57  1  0
 24 58  1  0
 26 59  1  0
 26 60  1  0
 27 61  1  0
 27 62  1  0
 28 63  1  0
 28 64  1  0
 29 65  1  0
 30 66  1  0
 30 67  1  0
 30 68  1  0
 31 69  1  0
 31 70  1  0
 33 71  1  0
 34 72  1  0
 37 73  1  0
 37 74  1  0
 37 75  1  0
 38 76  1  0
 38 77  1  0
 38 78  1  0
 39 79  1  0
 40 80  1  0
M  END
$$$$
