
     RDKit          3D

 52 55  0  0  0  0  0  0  0  0999 V2000
    3.3432    2.1880    1.3134 O   0  0  0  0  0  0  0  0  0  0  0  0
    3.2243    0.9654    1.2663 C   0  0  0  0  0  0  0  0  0  0  0  0
    2.1620    0.2920    1.8492 N   0  0  0  0  0  0  0  0  0  0  0  0
    1.0715    1.1160    2.2509 N   0  0  0  0  0  0  0  0  0  0  0  0
   -0.0849    0.8352    1.4681 C   0  0  0  0  0  0  0  0  0  0  0  0
   -1.1718    1.6746    1.5763 C   0  0  0  0  0  0  0  0  0  0  0  0
   -2.2851    1.3733    0.8248 C   0  0  0  0  0  0  0  0  0  0  0  0
   -3.4207    2.1537    0.8703 N   0  0  0  0  0  0  0  0  0  0  0  0
   -4.5462    1.8228    0.0030 C   0  0  0  0  0  0  0  0  0  0  0  0
   -5.5248    2.9635    0.2628 C   0  0  0  0  0  0  0  0  0  0  0  0
   -4.5997    4.1552    0.4510 C   0  0  0  0  0  0  0  0  0  0  0  0
   -3.4084    3.5720    1.2127 C   0  0  0  0  0  0  0  0  0  0  0  0
   -2.2988    0.2752    0.0503 N   0  0  0  0  0  0  0  0  0  0  0  0
   -1.2203   -0.5205    0.0083 C   0  0  0  0  0  0  0  0  0  0  0  0
   -1.2528   -1.6277   -0.8032 N   0  0  0  0  0  0  0  0  0  0  0  0
   -2.5203   -2.0726   -1.3542 C   0  0  0  0  0  0  0  0  0  0  0  0
   -2.1559   -3.4098   -1.9923 C   0  0  0  0  0  0  0  0  0  0  0  0
   -1.1203   -3.9663   -1.0260 C   0  0  0  0  0  0  0  0  0  0  0  0
   -0.3323   -2.7306   -0.5838 C   0  0  0  0  0  0  0  0  0  0  0  0
   -0.1030   -0.2703    0.7004 N   0  0  0  0  0  0  0  0  0  0  0  0
    4.2098    0.1302    0.5241 C   0  0  0  0  0  0  0  0  0  0  0  0
    4.3671   -1.2404    0.7789 C   0  0  0  0  0  0  0  0  0  0  0  0
    5.3067   -1.9866    0.0584 C   0  0  0  0  0  0  0  0  0  0  0  0
    6.0951   -1.3568   -0.9152 C   0  0  0  0  0  0  0  0  0  0  0  0
    7.0803   -2.1401   -1.6726 N   0  0  0  0  0  4  0  0  0  0  0  0
    7.7760   -1.5418   -2.5050 O   0  0  0  0  0  0  0  0  0  0  0  0
    7.1547   -3.3540   -1.4349 O   0  0  0  0  0  1  0  0  0  0  0  0
    5.9539    0.0136   -1.1674 C   0  0  0  0  0  0  0  0  0  0  0  0
    5.0135    0.7528   -0.4430 C   0  0  0  0  0  0  0  0  0  0  0  0
    1.8436   -0.5820    1.4267 H   0  0  0  0  0  0  0  0  0  0  0  0
    1.3295    2.1041    2.1377 H   0  0  0  0  0  0  0  0  0  0  0  0
   -1.1457    2.5258    2.2410 H   0  0  0  0  0  0  0  0  0  0  0  0
   -4.2421    1.8221   -1.0512 H   0  0  0  0  0  0  0  0  0  0  0  0
   -4.9945    0.8554    0.2528 H   0  0  0  0  0  0  0  0  0  0  0  0
   -6.0886    2.7774    1.1849 H   0  0  0  0  0  0  0  0  0  0  0  0
   -6.2361    3.1015   -0.5560 H   0  0  0  0  0  0  0  0  0  0  0  0
   -5.0738    4.9825    0.9866 H   0  0  0  0  0  0  0  0  0  0  0  0
   -4.2702    4.5276   -0.5267 H   0  0  0  0  0  0  0  0  0  0  0  0
   -3.5442    3.6911    2.2932 H   0  0  0  0  0  0  0  0  0  0  0  0
   -2.4873    4.0823    0.9097 H   0  0  0  0  0  0  0  0  0  0  0  0
   -2.9207   -1.3760   -2.0983 H   0  0  0  0  0  0  0  0  0  0  0  0
   -3.2645   -2.2260   -0.5627 H   0  0  0  0  0  0  0  0  0  0  0  0
   -3.0209   -4.0673   -2.1143 H   0  0  0  0  0  0  0  0  0  0  0  0
   -1.7004   -3.2489   -2.9769 H   0  0  0  0  0  0  0  0  0  0  0  0
   -0.4813   -4.7293   -1.4794 H   0  0  0  0  0  0  0  0  0  0  0  0
   -1.6238   -4.4149   -0.1609 H   0  0  0  0  0  0  0  0  0  0  0  0
    0.5588   -2.5961   -1.2070 H   0  0  0  0  0  0  0  0  0  0  0  0
   -0.0190   -2.8453    0.4603 H   0  0  0  0  0  0  0  0  0  0  0  0
    3.7846   -1.7403    1.5494 H   0  0  0  0  0  0  0  0  0  0  0  0
    5.4163   -3.0485    0.2724 H   0  0  0  0  0  0  0  0  0  0  0  0
    6.5620    0.5191   -1.9154 H   0  0  0  0  0  0  0  0  0  0  0  0
    4.9055    1.8195   -0.6375 H   0  0  0  0  0  0  0  0  0  0  0  0
  1  2  2  0
  2  3  1  0
  3  4  1  0
  4  5  1  0
  5  6  2  0
  6  7  1  0
  7  8  1  0
  8  9  1  0
  9 10  1  0
 10 11  1  0
 11 12  1  0
  7 13  2  0
 13 14  1  0
 14 15  1  0
 15 16  1  0
 16 17  1  0
 17 18  1  0
 18 19  1  0
 14 20  2  0
  2 21  1  0
 21 22  2  0
 22 23  1  0
 23 24  2  0
 24 25  1  0
 25 26  2  0
 25 27  1  0
 24 28  1  0
 28 29  2  0
 20  5  1  0
 29 21  1  0
 12  8  1  0
 19 15  1  0
  3 30  1  0
  4 31  1  0
  6 32  1  0
  9 33  1  0
  9 34  1  0
 10 35  1  0
 10 36  1  0
 11 37  1  0
 11 38  1  0
 12 39  1  0
 12 40  1  0
 16 41  1  0
 16 42  1  0
 17 43  1  0
 17 44  1  0
 18 45  1  0
 18 46  1  0
 19 47  1  0
 19 48  1  0
 22 49  1  0
 23 50  1  0
 28 51  1  0
 29 52  1  0
M  CHG  2  25   1  27  -1
M  END
$$$$
