
     RDKit          3D

 52 55  0  0  0  0  0  0  0  0999 V2000
    8.8699   -0.2373    1.1077 C   0  0  0  0  0  0  0  0  0  0  0  0
    8.4367    0.3051   -0.2433 C   0  0  0  0  0  0  0  0  0  0  0  0
    7.5048   -0.5754   -0.8693 O   0  0  0  0  0  0  0  0  0  0  0  0
    6.1728   -0.4135   -0.6154 C   0  0  0  0  0  0  0  0  0  0  0  0
    5.3360   -1.2477   -1.3577 C   0  0  0  0  0  0  0  0  0  0  0  0
    3.9476   -1.1939   -1.1985 C   0  0  0  0  0  0  0  0  0  0  0  0
    3.3713   -0.3065   -0.2841 C   0  0  0  0  0  0  0  0  0  0  0  0
    1.9644   -0.3012   -0.1868 N   0  0  0  0  0  0  0  0  0  0  0  0
    1.1859    0.3574    0.7421 C   0  0  0  0  0  0  0  0  0  0  0  0
    1.6253    0.9565    1.7198 O   0  0  0  0  0  0  0  0  0  0  0  0
   -0.1885    0.2762    0.4934 N   0  0  0  0  0  0  0  0  0  0  0  0
   -0.7728   -0.1646   -0.7729 C   0  0  0  0  0  0  0  0  0  0  0  0
   -2.2220    0.2696   -0.9464 C   0  0  0  0  0  0  0  0  0  0  0  0
   -3.0768   -0.1749    0.2474 C   0  0  0  0  0  0  0  0  0  0  0  0
   -4.3996    0.4251    0.1893 N   0  0  0  0  0  0  0  0  0  0  0  0
   -4.6885    1.7963    0.3770 C   0  0  0  0  0  0  0  0  0  0  0  0
   -3.9112    2.6919    0.6608 O   0  0  0  0  0  0  0  0  0  0  0  0
   -6.0655    1.9493    0.1672 N   0  0  0  0  0  0  0  0  0  0  0  0
   -6.6131    0.7172   -0.1638 C   0  0  0  0  0  0  0  0  0  0  0  0
   -7.9194    0.4070   -0.4661 C   0  0  0  0  0  0  0  0  0  0  0  0
   -8.1934   -0.9273   -0.7779 C   0  0  0  0  0  0  0  0  0  0  0  0
   -7.1683   -1.8965   -0.7796 C   0  0  0  0  0  0  0  0  0  0  0  0
   -5.8461   -1.5533   -0.4686 C   0  0  0  0  0  0  0  0  0  0  0  0
   -5.5912   -0.2340   -0.1603 C   0  0  0  0  0  0  0  0  0  0  0  0
   -2.3820    0.0759    1.5992 C   0  0  0  0  0  0  0  0  0  0  0  0
   -1.0994    0.8882    1.4621 C   0  0  0  0  0  0  0  0  0  0  0  0
    4.2093    0.5292    0.4542 C   0  0  0  0  0  0  0  0  0  0  0  0
    5.6019    0.4738    0.2933 C   0  0  0  0  0  0  0  0  0  0  0  0
    9.2715   -1.2507    1.0023 H   0  0  0  0  0  0  0  0  0  0  0  0
    9.6392    0.4010    1.5515 H   0  0  0  0  0  0  0  0  0  0  0  0
    8.0276   -0.3016    1.8028 H   0  0  0  0  0  0  0  0  0  0  0  0
    9.3152    0.3400   -0.8979 H   0  0  0  0  0  0  0  0  0  0  0  0
    8.0684    1.3351   -0.1834 H   0  0  0  0  0  0  0  0  0  0  0  0
    5.7693   -1.9464   -2.0692 H   0  0  0  0  0  0  0  0  0  0  0  0
    3.3319   -1.8582   -1.7980 H   0  0  0  0  0  0  0  0  0  0  0  0
    1.4865   -0.9725   -0.7630 H   0  0  0  0  0  0  0  0  0  0  0  0
   -0.7047   -1.2586   -0.7974 H   0  0  0  0  0  0  0  0  0  0  0  0
   -0.1718    0.2273   -1.6011 H   0  0  0  0  0  0  0  0  0  0  0  0
   -2.2582    1.3603   -1.0621 H   0  0  0  0  0  0  0  0  0  0  0  0
   -2.6293   -0.1483   -1.8751 H   0  0  0  0  0  0  0  0  0  0  0  0
   -3.2055   -1.2613    0.1700 H   0  0  0  0  0  0  0  0  0  0  0  0
   -6.5441    2.8321    0.2351 H   0  0  0  0  0  0  0  0  0  0  0  0
   -8.7017    1.1560   -0.4654 H   0  0  0  0  0  0  0  0  0  0  0  0
   -9.2109   -1.2251   -1.0236 H   0  0  0  0  0  0  0  0  0  0  0  0
   -7.4116   -2.9283   -1.0262 H   0  0  0  0  0  0  0  0  0  0  0  0
   -5.0716   -2.3095   -0.4727 H   0  0  0  0  0  0  0  0  0  0  0  0
   -3.0525    0.5551    2.3220 H   0  0  0  0  0  0  0  0  0  0  0  0
   -2.1217   -0.8993    2.0334 H   0  0  0  0  0  0  0  0  0  0  0  0
   -1.3077    1.9096    1.1240 H   0  0  0  0  0  0  0  0  0  0  0  0
   -0.6193    0.9661    2.4435 H   0  0  0  0  0  0  0  0  0  0  0  0
    3.8112    1.2457    1.1665 H   0  0  0  0  0  0  0  0  0  0  0  0
    6.2017    1.1392    0.9044 H   0  0  0  0  0  0  0  0  0  0  0  0
  1  2  1  0
  2  3  1  0
  3  4  1  0
  4  5  2  0
  5  6  1  0
  6  7  2  0
  7  8  1  0
  8  9  1  0
  9 10  2  0
  9 11  1  0
 11 12  1  0
 12 13  1  0
 13 14  1  0
 14 15  1  0
 15 16  1  0
 16 17  2  0
 16 18  1  0
 18 19  1  0
 19 20  2  0
 20 21  1  0
 21 22  2  0
 22 23  1  0
 23 24  2  0
 14 25  1  0
 25 26  1  0
  7 27  1  0
 27 28  2  0
 28  4  1  0
 26 11  1  0
 24 15  1  0
 24 19  1  0
  1 29  1  0
  1 30  1  0
  1 31  1  0
  2 32  1  0
  2 33  1  0
  5 34  1  0
  6 35  1  0
  8 36  1  0
 12 37  1  0
 12 38  1  0
 13 39  1  0
 13 40  1  0
 14 41  1  0
 18 42  1  0
 20 43  1  0
 21 44  1  0
 22 45  1  0
 23 46  1  0
 25 47  1  0
 25 48  1  0
 26 49  1  0
 26 50  1  0
 27 51  1  0
 28 52  1  0
M  END
$$$$
