
     RDKit          3D

 54 57  0  0  0  0  0  0  0  0999 V2000
    7.8128   -3.0539    0.2674 C   0  0  0  0  0  0  0  0  0  0  0  0
    6.4182   -2.7843    0.3343 O   0  0  0  0  0  0  0  0  0  0  0  0
    6.0257   -1.4971    0.0849 C   0  0  0  0  0  0  0  0  0  0  0  0
    6.8649   -0.4330   -0.2382 C   0  0  0  0  0  0  0  0  0  0  0  0
    6.3243    0.8337   -0.4685 C   0  0  0  0  0  0  0  0  0  0  0  0
    4.9457    1.0439   -0.3774 C   0  0  0  0  0  0  0  0  0  0  0  0
    4.0943   -0.0114   -0.0546 C   0  0  0  0  0  0  0  0  0  0  0  0
    2.6968    0.1085    0.0586 N   0  0  0  0  0  0  0  0  0  0  0  0
    1.9127    1.2260   -0.1076 C   0  0  0  0  0  0  0  0  0  0  0  0
    2.3192    2.3504   -0.3909 O   0  0  0  0  0  0  0  0  0  0  0  0
    0.4408    0.9812    0.0874 C   0  0  0  0  0  0  0  0  0  0  0  0
   -0.3907    2.0308   -0.0215 C   0  0  0  0  0  0  0  0  0  0  0  0
   -1.8272    1.9249    0.1563 C   0  0  0  0  0  0  0  0  0  0  0  0
   -2.6646    3.1570    0.0726 C   0  0  0  0  0  0  0  0  0  0  0  0
   -2.1363    4.2497   -0.1426 O   0  0  0  0  0  0  0  0  0  0  0  0
   -4.0251    2.9798    0.2481 N   0  0  0  0  0  0  0  0  0  0  0  0
   -4.8746    4.0796    0.1832 C   0  0  0  0  0  0  0  0  0  0  0  0
   -6.1975    3.9587    0.3480 C   0  0  0  0  0  0  0  0  0  0  0  0
   -6.7717    2.6643    0.6006 C   0  0  0  0  0  0  0  0  0  0  0  0
   -5.9906    1.5799    0.6713 C   0  0  0  0  0  0  0  0  0  0  0  0
   -4.5172    1.7123    0.4868 C   0  0  0  0  0  0  0  0  0  0  0  0
   -3.7879    0.6462    0.5588 N   0  0  0  0  0  0  0  0  0  0  0  0
   -2.4238    0.7334    0.3879 C   0  0  0  0  0  0  0  0  0  0  0  0
   -1.6177   -0.4415    0.4578 N   0  0  0  0  0  0  0  0  0  0  0  0
   -2.3006   -1.7446    0.6201 C   0  0  0  0  0  0  0  0  0  0  0  0
   -2.5994   -2.4780   -0.7075 C   0  0  0  0  0  0  0  0  0  0  0  0
   -3.5741   -1.7232   -1.6125 C   0  0  0  0  0  0  0  0  0  0  0  0
   -1.3486   -2.8632   -1.4962 C   0  0  0  0  0  0  0  0  0  0  0  0
   -0.2135   -0.3451    0.3961 C   0  0  0  0  0  0  0  0  0  0  0  0
    0.6052   -1.3422    0.5964 N   0  0  0  0  0  0  0  0  0  0  0  0
    4.6463   -1.2787    0.1738 C   0  0  0  0  0  0  0  0  0  0  0  0
    8.2016   -2.8743   -0.7404 H   0  0  0  0  0  0  0  0  0  0  0  0
    8.3640   -2.4729    1.0142 H   0  0  0  0  0  0  0  0  0  0  0  0
    7.9596   -4.1138    0.4965 H   0  0  0  0  0  0  0  0  0  0  0  0
    7.9397   -0.5517   -0.3199 H   0  0  0  0  0  0  0  0  0  0  0  0
    6.9771    1.6657   -0.7211 H   0  0  0  0  0  0  0  0  0  0  0  0
    4.5687    2.0442   -0.5647 H   0  0  0  0  0  0  0  0  0  0  0  0
    2.1824   -0.7430    0.3039 H   0  0  0  0  0  0  0  0  0  0  0  0
    0.0028    3.0219   -0.2437 H   0  0  0  0  0  0  0  0  0  0  0  0
   -4.4176    5.0477   -0.0083 H   0  0  0  0  0  0  0  0  0  0  0  0
   -6.8522    4.8228    0.2957 H   0  0  0  0  0  0  0  0  0  0  0  0
   -7.8465    2.5904    0.7318 H   0  0  0  0  0  0  0  0  0  0  0  0
   -6.3830    0.5886    0.8596 H   0  0  0  0  0  0  0  0  0  0  0  0
   -3.2440   -1.6193    1.1677 H   0  0  0  0  0  0  0  0  0  0  0  0
   -1.7234   -2.4031    1.2789 H   0  0  0  0  0  0  0  0  0  0  0  0
   -3.0960   -3.4181   -0.4294 H   0  0  0  0  0  0  0  0  0  0  0  0
   -3.1389   -0.7946   -1.9944 H   0  0  0  0  0  0  0  0  0  0  0  0
   -4.4991   -1.4843   -1.0786 H   0  0  0  0  0  0  0  0  0  0  0  0
   -3.8475   -2.3372   -2.4778 H   0  0  0  0  0  0  0  0  0  0  0  0
   -1.6170   -3.4737   -2.3656 H   0  0  0  0  0  0  0  0  0  0  0  0
   -0.8142   -1.9835   -1.8675 H   0  0  0  0  0  0  0  0  0  0  0  0
   -0.6656   -3.4580   -0.8822 H   0  0  0  0  0  0  0  0  0  0  0  0
    0.1004   -2.1996    0.8156 H   0  0  0  0  0  0  0  0  0  0  0  0
    4.0028   -2.1180    0.4265 H   0  0  0  0  0  0  0  0  0  0  0  0
  1  2  1  0
  2  3  1  0
  3  4  2  0
  4  5  1  0
  5  6  2  0
  6  7  1  0
  7  8  1  0
  8  9  1  0
  9 10  2  0
  9 11  1  0
 11 12  2  0
 12 13  1  0
 13 14  1  0
 14 15  2  0
 14 16  1  0
 16 17  1  0
 17 18  2  0
 18 19  1  0
 19 20  2  0
 20 21  1  0
 21 22  2  0
 22 23  1  0
 23 24  1  0
 24 25  1  0
 25 26  1  0
 26 27  1  0
 26 28  1  0
 24 29  1  0
 29 30  2  3
  7 31  2  0
 31  3  1  0
 29 11  1  0
 23 13  2  0
 21 16  1  0
  1 32  1  0
  1 33  1  0
  1 34  1  0
  4 35  1  0
  5 36  1  0
  6 37  1  0
  8 38  1  0
 12 39  1  0
 17 40  1  0
 18 41  1  0
 19 42  1  0
 20 43  1  0
 25 44  1  0
 25 45  1  0
 26 46  1  0
 27 47  1  0
 27 48  1  0
 27 49  1  0
 28 50  1  0
 28 51  1  0
 28 52  1  0
 30 53  1  0
 31 54  1  0
M  END
$$$$
