
     RDKit          3D

 48 51  0  0  0  0  0  0  0  0999 V2000
    9.0671   -0.0502    0.1829 C   0  0  0  0  0  0  0  0  0  0  0  0
    8.1800    1.0401    0.4018 O   0  0  0  0  0  0  0  0  0  0  0  0
    6.8421    0.7715    0.3214 C   0  0  0  0  0  0  0  0  0  0  0  0
    6.2667   -0.4671    0.0538 C   0  0  0  0  0  0  0  0  0  0  0  0
    4.8717   -0.5981    0.0014 C   0  0  0  0  0  0  0  0  0  0  0  0
    4.0141    0.4961    0.2188 C   0  0  0  0  0  0  0  0  0  0  0  0
    2.5470    0.3271    0.1627 C   0  0  0  0  0  0  0  0  0  0  0  0
    1.6651    1.0839    0.9271 C   0  0  0  0  0  0  0  0  0  0  0  0
    0.2936    0.8549    0.8121 C   0  0  0  0  0  0  0  0  0  0  0  0
   -0.1925   -0.1285   -0.0587 C   0  0  0  0  0  0  0  0  0  0  0  0
   -1.6297   -0.3476   -0.1518 C   0  0  0  0  0  0  0  0  0  0  0  0
   -2.2168   -1.4751   -0.5805 N   0  0  0  0  0  0  0  0  0  0  0  0
   -3.5782   -1.2112   -0.4621 O   0  0  0  0  0  0  0  0  0  0  0  0
   -3.6968    0.0474    0.0509 C   0  0  0  0  0  0  0  0  0  0  0  0
   -5.0391    0.5957    0.2571 C   0  0  0  0  0  0  0  0  0  0  0  0
   -5.1412    1.9835    0.4891 C   0  0  0  0  0  0  0  0  0  0  0  0
   -6.3766    2.5979    0.6908 C   0  0  0  0  0  0  0  0  0  0  0  0
   -7.5351    1.8326    0.6681 C   0  0  0  0  0  0  0  0  0  0  0  0
   -7.4598    0.4552    0.4475 C   0  0  0  0  0  0  0  0  0  0  0  0
   -6.2224   -0.1750    0.2424 C   0  0  0  0  0  0  0  0  0  0  0  0
   -6.0899   -1.5252    0.0448 O   0  0  0  0  0  0  0  0  0  0  0  0
   -7.2695   -2.3126   -0.0487 C   0  0  0  0  0  0  0  0  0  0  0  0
   -2.5286    0.6200    0.2588 N   0  0  0  0  0  0  0  0  0  0  0  0
    0.7575   -0.8399   -0.7892 C   0  0  0  0  0  0  0  0  0  0  0  0
    0.3276   -1.7867   -1.6963 O   0  0  0  0  0  0  0  0  0  0  0  0
    1.3801   -2.4693   -2.3678 C   0  0  0  0  0  0  0  0  0  0  0  0
    2.0974   -0.6307   -0.6851 N   0  0  0  0  0  0  0  0  0  0  0  0
    4.6176    1.7379    0.4784 C   0  0  0  0  0  0  0  0  0  0  0  0
    6.0107    1.8712    0.5308 C   0  0  0  0  0  0  0  0  0  0  0  0
    8.9536   -0.4552   -0.8285 H   0  0  0  0  0  0  0  0  0  0  0  0
   10.0900    0.3272    0.2770 H   0  0  0  0  0  0  0  0  0  0  0  0
    8.9292   -0.8298    0.9398 H   0  0  0  0  0  0  0  0  0  0  0  0
    6.8661   -1.3539   -0.1213 H   0  0  0  0  0  0  0  0  0  0  0  0
    4.4482   -1.5793   -0.2109 H   0  0  0  0  0  0  0  0  0  0  0  0
    2.0222    1.8351    1.6236 H   0  0  0  0  0  0  0  0  0  0  0  0
   -0.3938    1.4450    1.4153 H   0  0  0  0  0  0  0  0  0  0  0  0
   -4.2419    2.5989    0.5090 H   0  0  0  0  0  0  0  0  0  0  0  0
   -6.4302    3.6698    0.8648 H   0  0  0  0  0  0  0  0  0  0  0  0
   -8.5018    2.3049    0.8259 H   0  0  0  0  0  0  0  0  0  0  0  0
   -8.3917   -0.1018    0.4479 H   0  0  0  0  0  0  0  0  0  0  0  0
   -7.8218   -2.3068    0.8966 H   0  0  0  0  0  0  0  0  0  0  0  0
   -6.9667   -3.3449   -0.2496 H   0  0  0  0  0  0  0  0  0  0  0  0
   -7.9008   -1.9835   -0.8807 H   0  0  0  0  0  0  0  0  0  0  0  0
    0.9253   -3.2025   -3.0417 H   0  0  0  0  0  0  0  0  0  0  0  0
    2.0137   -3.0169   -1.6610 H   0  0  0  0  0  0  0  0  0  0  0  0
    1.9738   -1.7804   -2.9790 H   0  0  0  0  0  0  0  0  0  0  0  0
    4.0144    2.6304    0.6258 H   0  0  0  0  0  0  0  0  0  0  0  0
    6.4500    2.8458    0.7308 H   0  0  0  0  0  0  0  0  0  0  0  0
  1  2  1  0
  2  3  1  0
  3  4  2  0
  4  5  1  0
  5  6  2  0
  6  7  1  0
  7  8  2  0
  8  9  1  0
  9 10  2  0
 10 11  1  0
 11 12  2  0
 12 13  1  0
 13 14  1  0
 14 15  1  0
 15 16  2  0
 16 17  1  0
 17 18  2  0
 18 19  1  0
 19 20  2  0
 20 21  1  0
 21 22  1  0
 14 23  2  0
 10 24  1  0
 24 25  1  0
 25 26  1  0
 24 27  2  0
  6 28  1  0
 28 29  2  0
 29  3  1  0
 27  7  1  0
 23 11  1  0
 20 15  1  0
  1 30  1  0
  1 31  1  0
  1 32  1  0
  4 33  1  0
  5 34  1  0
  8 35  1  0
  9 36  1  0
 16 37  1  0
 17 38  1  0
 18 39  1  0
 19 40  1  0
 22 41  1  0
 22 42  1  0
 22 43  1  0
 26 44  1  0
 26 45  1  0
 26 46  1  0
 28 47  1  0
 29 48  1  0
M  END
$$$$
