
     RDKit          3D

 36 39  0  0  0  0  0  0  0  0999 V2000
   -1.7867   -0.2259    2.9301 C   0  0  0  0  0  0  0  0  0  0  0  0
   -0.9494   -0.1519    1.7053 C   0  0  0  0  0  0  0  0  0  0  0  0
    0.3819   -0.2003    1.8148 N   0  0  0  0  0  0  0  0  0  0  0  0
    0.8449   -0.0843    0.5460 N   0  0  0  0  0  0  0  0  0  0  0  0
    2.1850   -0.0818    0.1293 C   0  0  0  0  0  0  0  0  0  0  0  0
    2.4558    0.0292   -1.1847 C   0  0  0  0  0  0  0  0  0  0  0  0
    1.2819    0.1560   -2.0884 C   0  0  0  0  0  0  0  0  0  0  0  0
    0.0348    0.1631   -1.7238 N   0  0  0  0  0  0  0  0  0  0  0  0
   -0.2012    0.0353   -0.3787 C   0  0  0  0  0  0  0  0  0  0  0  0
   -1.3717   -0.0194    0.3576 C   0  0  0  0  0  0  0  0  0  0  0  0
   -2.7079    0.0498   -0.2103 C   0  0  0  0  0  0  0  0  0  0  0  0
   -3.6839   -0.8829    0.1654 C   0  0  0  0  0  0  0  0  0  0  0  0
   -4.9753   -0.8097   -0.3633 C   0  0  0  0  0  0  0  0  0  0  0  0
   -5.3017    0.1950   -1.2722 C   0  0  0  0  0  0  0  0  0  0  0  0
   -4.3375    1.1247   -1.6563 C   0  0  0  0  0  0  0  0  0  0  0  0
   -3.0462    1.0524   -1.1282 C   0  0  0  0  0  0  0  0  0  0  0  0
    3.8478   -0.0088   -1.6864 C   0  0  0  0  0  0  0  0  0  0  0  0
    4.0771    0.1058   -2.8881 O   0  0  0  0  0  0  0  0  0  0  0  0
    4.9545   -0.2668   -0.6878 C   0  0  0  0  0  0  0  0  0  0  0  0
    4.6093    0.3135    0.6754 C   0  0  0  0  0  0  0  0  0  0  0  0
    3.2579   -0.1926    1.1793 C   0  0  0  0  0  0  0  0  0  0  0  0
   -1.2131    0.0504    3.8213 H   0  0  0  0  0  0  0  0  0  0  0  0
   -2.1639   -1.2435    3.0713 H   0  0  0  0  0  0  0  0  0  0  0  0
   -2.6401    0.4561    2.8624 H   0  0  0  0  0  0  0  0  0  0  0  0
    1.5138    0.2518   -3.1628 H   0  0  0  0  0  0  0  0  0  0  0  0
   -3.4457   -1.6850    0.8592 H   0  0  0  0  0  0  0  0  0  0  0  0
   -5.7239   -1.5411   -0.0701 H   0  0  0  0  0  0  0  0  0  0  0  0
   -6.3050    0.2499   -1.6864 H   0  0  0  0  0  0  0  0  0  0  0  0
   -4.5864    1.9052   -2.3705 H   0  0  0  0  0  0  0  0  0  0  0  0
   -2.3044    1.7838   -1.4417 H   0  0  0  0  0  0  0  0  0  0  0  0
    5.1148   -1.3486   -0.6246 H   0  0  0  0  0  0  0  0  0  0  0  0
    5.8742    0.1995   -1.0571 H   0  0  0  0  0  0  0  0  0  0  0  0
    5.3931    0.0628    1.3990 H   0  0  0  0  0  0  0  0  0  0  0  0
    4.5789    1.4090    0.6052 H   0  0  0  0  0  0  0  0  0  0  0  0
    2.9930    0.3905    2.0694 H   0  0  0  0  0  0  0  0  0  0  0  0
    3.3454   -1.2409    1.4903 H   0  0  0  0  0  0  0  0  0  0  0  0
  1  2  1  0
  2  3  2  0
  3  4  1  0
  4  5  1  0
  5  6  2  0
  6  7  1  0
  7  8  2  0
  8  9  1  0
  9 10  2  0
 10 11  1  0
 11 12  2  0
 12 13  1  0
 13 14  2  0
 14 15  1  0
 15 16  2  0
  6 17  1  0
 17 18  2  0
 17 19  1  0
 19 20  1  0
 20 21  1  0
 10  2  1  0
 16 11  1  0
  9  4  1  0
 21  5  1  0
  1 22  1  0
  1 23  1  0
  1 24  1  0
  7 25  1  0
 12 26  1  0
 13 27  1  0
 14 28  1  0
 15 29  1  0
 16 30  1  0
 19 31  1  0
 19 32  1  0
 20 33  1  0
 20 34  1  0
 21 35  1  0
 21 36  1  0
M  END
$$$$
