
     RDKit          3D

 63 66  0  0  0  0  0  0  0  0999 V2000
    8.4602    3.4440   -0.7349 C   0  0  0  0  0  0  0  0  0  0  0  0
    7.0504    3.4275   -0.9148 O   0  0  0  0  0  0  0  0  0  0  0  0
    6.3822    2.2760   -0.5934 C   0  0  0  0  0  0  0  0  0  0  0  0
    6.9876    1.1164   -0.1045 C   0  0  0  0  0  0  0  0  0  0  0  0
    6.2217   -0.0194    0.1971 C   0  0  0  0  0  0  0  0  0  0  0  0
    4.8394   -0.0159    0.0158 C   0  0  0  0  0  0  0  0  0  0  0  0
    4.0025   -1.1148    0.2936 N   0  0  0  0  0  0  0  0  0  0  0  0
    4.3657   -2.3533    0.7819 C   0  0  0  0  0  0  0  0  0  0  0  0
    5.4949   -2.7313    1.0712 O   0  0  0  0  0  0  0  0  0  0  0  0
    3.2234   -3.2657    0.9491 C   0  0  0  0  0  0  0  0  0  0  0  0
    3.2458   -4.5162    1.4406 C   0  0  0  0  0  0  0  0  0  0  0  0
    2.0106   -5.1334    1.4691 N   0  0  0  0  0  0  0  0  0  0  0  0
    1.1110   -4.1541    1.0590 N   0  0  0  0  0  0  0  0  0  0  0  0
   -0.2504   -4.2787    1.0480 C   0  0  0  0  0  0  0  0  0  0  0  0
   -0.9015   -5.2389    1.4403 O   0  0  0  0  0  0  0  0  0  0  0  0
   -0.9066   -3.0600    0.5137 C   0  0  0  0  0  0  0  0  0  0  0  0
   -0.1662   -1.9880    0.1606 C   0  0  0  0  0  0  0  0  0  0  0  0
   -0.7786   -0.7070   -0.4038 C   0  0  0  0  0  0  0  0  0  0  0  0
   -0.9934    0.3263    0.7224 C   0  0  0  0  0  0  0  0  0  0  0  0
   -1.5691    1.6286    0.1672 C   0  0  0  0  0  0  0  0  0  0  0  0
   -2.7717    1.3519   -0.6035 N   0  0  0  0  0  0  0  0  0  0  0  0
   -4.0115    1.6444   -0.0567 C   0  0  0  0  0  0  0  0  0  0  0  0
   -4.1605    2.2478    0.9976 O   0  0  0  0  0  0  0  0  0  0  0  0
   -5.0307    1.1753   -0.8203 O   0  0  0  0  0  0  0  0  0  0  0  0
   -6.4138    1.3684   -0.4282 C   0  0  0  0  0  0  0  0  0  0  0  0
   -6.7783    2.8559   -0.3765 C   0  0  0  0  0  0  0  0  0  0  0  0
   -7.2295    0.7026   -1.5473 C   0  0  0  0  0  0  0  0  0  0  0  0
   -6.7231    0.6541    0.8919 C   0  0  0  0  0  0  0  0  0  0  0  0
   -2.5872    0.4492   -1.7333 C   0  0  0  0  0  0  0  0  0  0  0  0
   -2.0739   -0.8979   -1.2255 C   0  0  0  0  0  0  0  0  0  0  0  0
    1.2183   -1.9384    0.2660 N   0  0  0  0  0  0  0  0  0  0  0  0
    1.7896   -3.0100    0.7021 C   0  0  0  0  0  0  0  0  0  0  0  0
    4.2281    1.1422   -0.4725 C   0  0  0  0  0  0  0  0  0  0  0  0
    4.9916    2.2756   -0.7738 C   0  0  0  0  0  0  0  0  0  0  0  0
    4.1588    3.6690   -1.3744 Cl  0  0  0  0  0  0  0  0  0  0  0  0
    8.9485    2.6995   -1.3720 H   0  0  0  0  0  0  0  0  0  0  0  0
    8.8242    4.4302   -1.0381 H   0  0  0  0  0  0  0  0  0  0  0  0
    8.7255    3.3007    0.3176 H   0  0  0  0  0  0  0  0  0  0  0  0
    8.0590    1.0531    0.0571 H   0  0  0  0  0  0  0  0  0  0  0  0
    6.7447   -0.8938    0.5733 H   0  0  0  0  0  0  0  0  0  0  0  0
    3.0089   -0.9711    0.1134 H   0  0  0  0  0  0  0  0  0  0  0  0
    4.1133   -5.0542    1.8033 H   0  0  0  0  0  0  0  0  0  0  0  0
    1.7665   -5.5836    2.3536 H   0  0  0  0  0  0  0  0  0  0  0  0
   -1.9849   -3.1034    0.4506 H   0  0  0  0  0  0  0  0  0  0  0  0
   -0.0394   -0.2846   -1.1020 H   0  0  0  0  0  0  0  0  0  0  0  0
   -1.6826   -0.0841    1.4725 H   0  0  0  0  0  0  0  0  0  0  0  0
   -0.0477    0.5388    1.2355 H   0  0  0  0  0  0  0  0  0  0  0  0
   -1.7746    2.3258    0.9856 H   0  0  0  0  0  0  0  0  0  0  0  0
   -0.8473    2.1110   -0.5021 H   0  0  0  0  0  0  0  0  0  0  0  0
   -6.4692    3.3642   -1.2967 H   0  0  0  0  0  0  0  0  0  0  0  0
   -6.2793    3.3715    0.4493 H   0  0  0  0  0  0  0  0  0  0  0  0
   -7.8566    2.9972   -0.2457 H   0  0  0  0  0  0  0  0  0  0  0  0
   -8.3068    0.7789   -1.3669 H   0  0  0  0  0  0  0  0  0  0  0  0
   -7.0075    1.1621   -2.5175 H   0  0  0  0  0  0  0  0  0  0  0  0
   -6.9684   -0.3580   -1.6414 H   0  0  0  0  0  0  0  0  0  0  0  0
   -6.3735   -0.3841    0.8628 H   0  0  0  0  0  0  0  0  0  0  0  0
   -6.2240    1.1289    1.7418 H   0  0  0  0  0  0  0  0  0  0  0  0
   -7.7981    0.6542    1.1026 H   0  0  0  0  0  0  0  0  0  0  0  0
   -1.8591    0.9079   -2.4127 H   0  0  0  0  0  0  0  0  0  0  0  0
   -3.5133    0.3080   -2.2973 H   0  0  0  0  0  0  0  0  0  0  0  0
   -2.8575   -1.3555   -0.6093 H   0  0  0  0  0  0  0  0  0  0  0  0
   -1.8890   -1.5663   -2.0746 H   0  0  0  0  0  0  0  0  0  0  0  0
    3.1524    1.1747   -0.6241 H   0  0  0  0  0  0  0  0  0  0  0  0
  1  2  1  0
  2  3  1  0
  3  4  2  0
  4  5  1  0
  5  6  2  0
  6  7  1  0
  7  8  1  0
  8  9  2  0
  8 10  1  0
 10 11  2  0
 11 12  1  0
 12 13  1  0
 13 14  1  0
 14 15  2  0
 14 16  1  0
 16 17  2  0
 17 18  1  0
 18 19  1  0
 19 20  1  0
 20 21  1  0
 21 22  1  0
 22 23  2  0
 22 24  1  0
 24 25  1  0
 25 26  1  0
 25 27  1  0
 25 28  1  0
 21 29  1  0
 29 30  1  0
 17 31  1  0
 31 32  2  0
  6 33  1  0
 33 34  2  0
 34 35  1  0
 34  3  1  0
 32 10  1  0
 32 13  1  0
 30 18  1  0
  1 36  1  0
  1 37  1  0
  1 38  1  0
  4 39  1  0
  5 40  1  0
  7 41  1  0
 11 42  1  0
 12 43  1  0
 16 44  1  0
 18 45  1  0
 19 46  1  0
 19 47  1  0
 20 48  1  0
 20 49  1  0
 26 50  1  0
 26 51  1  0
 26 52  1  0
 27 53  1  0
 27 54  1  0
 27 55  1  0
 28 56  1  0
 28 57  1  0
 28 58  1  0
 29 59  1  0
 29 60  1  0
 30 61  1  0
 30 62  1  0
 33 63  1  0
M  END
$$$$
