
     RDKit          3D

 43 44  0  0  0  0  0  0  0  0999 V2000
   -6.1308    1.4051    1.9390 C   0  0  0  0  0  0  0  0  0  0  0  0
   -5.3354    2.5970    1.4232 C   0  0  0  0  0  0  0  0  0  0  0  0
   -3.8884    2.2484    1.0755 C   0  0  0  0  0  0  0  0  0  0  0  0
   -3.7872    1.3761   -0.1168 C   0  0  0  0  0  0  0  0  0  0  0  0
   -3.8364    1.6876   -1.3934 N   0  0  0  0  0  0  0  0  0  0  0  0
   -3.6820    0.5018   -2.0837 N   0  0  0  0  0  0  0  0  0  0  0  0
   -3.5473   -0.4473   -1.1812 C   0  0  0  0  0  0  0  0  0  0  0  0
   -3.2972   -2.1216   -1.5739 S   0  0  0  0  0  0  0  0  0  0  0  0
   -2.7937   -2.7767    0.0411 C   0  0  0  0  0  0  0  0  0  0  0  0
   -1.4939   -2.1619    0.5440 C   0  0  0  0  0  0  0  0  0  0  0  0
   -1.4002   -1.7877    1.7100 O   0  0  0  0  0  0  0  0  0  0  0  0
   -0.4837   -2.1416   -0.4035 N   0  0  0  0  0  0  0  0  0  0  0  0
    0.8355   -1.6717   -0.2496 C   0  0  0  0  0  0  0  0  0  0  0  0
    1.6524   -1.6812   -1.3877 C   0  0  0  0  0  0  0  0  0  0  0  0
    2.9768   -1.2312   -1.3248 C   0  0  0  0  0  0  0  0  0  0  0  0
    3.5045   -0.7654   -0.1157 C   0  0  0  0  0  0  0  0  0  0  0  0
    4.9037   -0.2740    0.0136 C   0  0  0  0  0  0  0  0  0  0  0  0
    5.3787    0.1374    1.0600 O   0  0  0  0  0  0  0  0  0  0  0  0
    5.5464   -0.3505   -1.1786 O   0  0  0  0  0  0  0  0  0  0  0  0
    6.9099    0.0979   -1.1814 C   0  0  0  0  0  0  0  0  0  0  0  0
    6.9673    1.5946   -1.4227 C   0  0  0  0  0  0  0  0  0  0  0  0
    2.6903   -0.7577    1.0224 C   0  0  0  0  0  0  0  0  0  0  0  0
    1.3654   -1.2081    0.9551 C   0  0  0  0  0  0  0  0  0  0  0  0
   -3.6129    0.0371    0.0973 O   0  0  0  0  0  0  0  0  0  0  0  0
   -5.6444    0.9566    2.8111 H   0  0  0  0  0  0  0  0  0  0  0  0
   -7.1343    1.7244    2.2381 H   0  0  0  0  0  0  0  0  0  0  0  0
   -6.2416    0.6339    1.1707 H   0  0  0  0  0  0  0  0  0  0  0  0
   -5.3309    3.3710    2.2000 H   0  0  0  0  0  0  0  0  0  0  0  0
   -5.8464    3.0228    0.5511 H   0  0  0  0  0  0  0  0  0  0  0  0
   -3.3407    3.1761    0.8713 H   0  0  0  0  0  0  0  0  0  0  0  0
   -3.3965    1.7760    1.9339 H   0  0  0  0  0  0  0  0  0  0  0  0
   -2.6494   -3.8586   -0.0421 H   0  0  0  0  0  0  0  0  0  0  0  0
   -3.5876   -2.5983    0.7737 H   0  0  0  0  0  0  0  0  0  0  0  0
   -0.7446   -2.4391   -1.3380 H   0  0  0  0  0  0  0  0  0  0  0  0
    1.2722   -2.0339   -2.3437 H   0  0  0  0  0  0  0  0  0  0  0  0
    3.5811   -1.2496   -2.2285 H   0  0  0  0  0  0  0  0  0  0  0  0
    7.4233   -0.1793   -0.2535 H   0  0  0  0  0  0  0  0  0  0  0  0
    7.4169   -0.4263   -1.9981 H   0  0  0  0  0  0  0  0  0  0  0  0
    8.0038    1.9379   -1.4855 H   0  0  0  0  0  0  0  0  0  0  0  0
    6.4520    1.8539   -2.3533 H   0  0  0  0  0  0  0  0  0  0  0  0
    6.4661    2.1418   -0.6180 H   0  0  0  0  0  0  0  0  0  0  0  0
    3.0803   -0.4001    1.9742 H   0  0  0  0  0  0  0  0  0  0  0  0
    0.7789   -1.1834    1.8685 H   0  0  0  0  0  0  0  0  0  0  0  0
  1  2  1  0
  2  3  1  0
  3  4  1  0
  4  5  2  0
  5  6  1  0
  6  7  2  0
  7  8  1  0
  8  9  1  0
  9 10  1  0
 10 11  2  0
 10 12  1  0
 12 13  1  0
 13 14  2  0
 14 15  1  0
 15 16  2  0
 16 17  1  0
 17 18  2  0
 17 19  1  0
 19 20  1  0
 20 21  1  0
 16 22  1  0
 22 23  2  0
  7 24  1  0
 24  4  1  0
 23 13  1  0
  1 25  1  0
  1 26  1  0
  1 27  1  0
  2 28  1  0
  2 29  1  0
  3 30  1  0
  3 31  1  0
  9 32  1  0
  9 33  1  0
 12 34  1  0
 14 35  1  0
 15 36  1  0
 20 37  1  0
 20 38  1  0
 21 39  1  0
 21 40  1  0
 21 41  1  0
 22 42  1  0
 23 43  1  0
M  END
$$$$
