
     RDKit          3D

 38 39  0  0  0  0  0  0  0  0999 V2000
    7.1484    0.1338    0.0505 C   0  0  0  0  0  0  0  0  0  0  0  0
    5.6635    0.2527   -0.1176 C   0  0  0  0  0  0  0  0  0  0  0  0
    4.7974   -0.1714    0.8925 C   0  0  0  0  0  0  0  0  0  0  0  0
    3.4086   -0.0904    0.7248 C   0  0  0  0  0  0  0  0  0  0  0  0
    2.8478    0.4078   -0.4540 C   0  0  0  0  0  0  0  0  0  0  0  0
    1.4713    0.5069   -0.6881 N   0  0  0  0  0  0  0  0  0  0  0  0
    0.3357    0.2120    0.0634 C   0  0  0  0  0  0  0  0  0  0  0  0
    0.4163   -0.3098    1.2731 N   0  0  0  0  0  0  0  0  0  0  0  0
   -0.7580   -0.5217    1.8408 C   0  0  0  0  0  0  0  0  0  0  0  0
   -0.7190   -1.2037    3.4078 Cl  0  0  0  0  0  0  0  0  0  0  0  0
   -1.9593   -0.2840    1.3435 N   0  0  0  0  0  0  0  0  0  0  0  0
   -1.9375    0.2343    0.1342 C   0  0  0  0  0  0  0  0  0  0  0  0
   -3.1028    0.5601   -0.5289 N   0  0  0  0  0  0  0  0  0  0  0  0
   -4.3721   -0.1385   -0.3020 C   0  0  0  0  0  0  0  0  0  0  0  0
   -4.9522    0.1806    1.0837 C   0  0  0  0  0  0  0  0  0  0  0  0
   -4.2258   -1.6533   -0.5059 C   0  0  0  0  0  0  0  0  0  0  0  0
   -5.3612    0.3974   -1.3591 C   0  0  0  0  0  0  0  0  0  0  0  0
   -0.8207    0.4927   -0.5385 N   0  0  0  0  0  0  0  0  0  0  0  0
    3.7296    0.8127   -1.4692 C   0  0  0  0  0  0  0  0  0  0  0  0
    5.1176    0.7342   -1.3084 C   0  0  0  0  0  0  0  0  0  0  0  0
    7.4874   -0.8464   -0.2985 H   0  0  0  0  0  0  0  0  0  0  0  0
    7.4333    0.2537    1.1011 H   0  0  0  0  0  0  0  0  0  0  0  0
    7.6695    0.9115   -0.5176 H   0  0  0  0  0  0  0  0  0  0  0  0
    5.1924   -0.5705    1.8243 H   0  0  0  0  0  0  0  0  0  0  0  0
    2.7839   -0.4305    1.5446 H   0  0  0  0  0  0  0  0  0  0  0  0
    1.1936    0.9214   -1.5660 H   0  0  0  0  0  0  0  0  0  0  0  0
   -2.8561    0.7024   -1.5029 H   0  0  0  0  0  0  0  0  0  0  0  0
   -4.9703    1.2613    1.2659 H   0  0  0  0  0  0  0  0  0  0  0  0
   -4.3797   -0.2808    1.8935 H   0  0  0  0  0  0  0  0  0  0  0  0
   -5.9793   -0.1917    1.1742 H   0  0  0  0  0  0  0  0  0  0  0  0
   -3.5869   -2.1114    0.2563 H   0  0  0  0  0  0  0  0  0  0  0  0
   -3.7841   -1.8803   -1.4831 H   0  0  0  0  0  0  0  0  0  0  0  0
   -5.1997   -2.1531   -0.4534 H   0  0  0  0  0  0  0  0  0  0  0  0
   -5.4897    1.4824   -1.2661 H   0  0  0  0  0  0  0  0  0  0  0  0
   -5.0019    0.1987   -2.3759 H   0  0  0  0  0  0  0  0  0  0  0  0
   -6.3478   -0.0685   -1.2570 H   0  0  0  0  0  0  0  0  0  0  0  0
    3.3420    1.1965   -2.4099 H   0  0  0  0  0  0  0  0  0  0  0  0
    5.7658    1.0529   -2.1214 H   0  0  0  0  0  0  0  0  0  0  0  0
  1  2  1  0
  2  3  2  0
  3  4  1  0
  4  5  2  0
  5  6  1  0
  6  7  1  0
  7  8  2  0
  8  9  1  0
  9 10  1  0
  9 11  2  0
 11 12  1  0
 12 13  1  0
 13 14  1  0
 14 15  1  0
 14 16  1  0
 14 17  1  0
 12 18  2  0
  5 19  1  0
 19 20  2  0
 20  2  1  0
 18  7  1  0
  1 21  1  0
  1 22  1  0
  1 23  1  0
  3 24  1  0
  4 25  1  0
  6 26  1  0
 13 27  1  0
 15 28  1  0
 15 29  1  0
 15 30  1  0
 16 31  1  0
 16 32  1  0
 16 33  1  0
 17 34  1  0
 17 35  1  0
 17 36  1  0
 19 37  1  0
 20 38  1  0
M  END
$$$$
