
     RDKit          3D

 46 49  0  0  0  0  0  0  0  0999 V2000
   -6.2383    0.4436    1.5199 C   0  0  0  0  0  0  0  0  0  0  0  0
   -4.8689    0.8239    1.5373 O   0  0  0  0  0  0  0  0  0  0  0  0
   -4.0093    0.0935    0.7628 C   0  0  0  0  0  0  0  0  0  0  0  0
   -4.3470   -1.0197   -0.0035 C   0  0  0  0  0  0  0  0  0  0  0  0
   -3.3659   -1.6920   -0.7395 C   0  0  0  0  0  0  0  0  0  0  0  0
   -2.0412   -1.2484   -0.7172 C   0  0  0  0  0  0  0  0  0  0  0  0
   -1.0012   -1.8390   -1.3996 O   0  0  0  0  0  0  0  0  0  0  0  0
   -1.3017   -3.0040   -2.1568 C   0  0  0  0  0  0  0  0  0  0  0  0
   -1.6877   -0.1051    0.0366 C   0  0  0  0  0  0  0  0  0  0  0  0
   -0.3308    0.2818    0.0631 N   0  0  0  0  0  0  0  0  0  0  0  0
    0.2987    1.5262    0.3394 C   0  0  0  0  0  0  0  0  0  0  0  0
   -0.4418    2.5967    0.7258 N   0  0  0  0  0  0  0  0  0  0  0  0
    0.3278    3.6959    0.9400 C   0  0  0  0  0  0  0  0  0  0  0  0
   -0.0992    4.9000    1.3212 N   0  0  0  0  0  0  0  0  0  0  0  0
    1.0557    5.6770    1.4001 O   0  0  0  0  0  0  0  0  0  0  0  0
    2.2010    4.9526    1.0696 N   0  0  0  0  0  0  0  0  0  0  0  0
    1.7551    3.7288    0.7856 C   0  0  0  0  0  0  0  0  0  0  0  0
    2.5128    2.6632    0.4099 N   0  0  0  0  0  0  0  0  0  0  0  0
    1.7518    1.5551    0.2014 C   0  0  0  0  0  0  0  0  0  0  0  0
    2.4010    0.3438   -0.2099 N   0  0  0  0  0  0  0  0  0  0  0  0
    3.6519    0.6088   -0.9431 C   0  0  0  0  0  0  0  0  0  0  0  0
    4.2045   -0.7159   -1.4724 C   0  0  0  0  0  0  0  0  0  0  0  0
    4.4182   -1.7146   -0.3359 C   0  0  0  0  0  0  0  0  0  0  0  0
    3.1457   -1.8794    0.4935 C   0  0  0  0  0  0  0  0  0  0  0  0
    2.6109   -0.5263    0.9662 C   0  0  0  0  0  0  0  0  0  0  0  0
   -2.6825    0.5373    0.7825 C   0  0  0  0  0  0  0  0  0  0  0  0
   -6.7859    1.1357    2.1668 H   0  0  0  0  0  0  0  0  0  0  0  0
   -6.6590    0.5261    0.5123 H   0  0  0  0  0  0  0  0  0  0  0  0
   -6.3721   -0.5655    1.9234 H   0  0  0  0  0  0  0  0  0  0  0  0
   -5.3633   -1.3967   -0.0453 H   0  0  0  0  0  0  0  0  0  0  0  0
   -3.6710   -2.5579   -1.3167 H   0  0  0  0  0  0  0  0  0  0  0  0
   -1.6741   -3.8084   -1.5140 H   0  0  0  0  0  0  0  0  0  0  0  0
   -2.0082   -2.7794   -2.9625 H   0  0  0  0  0  0  0  0  0  0  0  0
   -0.3718   -3.3510   -2.6177 H   0  0  0  0  0  0  0  0  0  0  0  0
    0.2207   -0.2357   -0.6256 H   0  0  0  0  0  0  0  0  0  0  0  0
    3.4601    1.2719   -1.7959 H   0  0  0  0  0  0  0  0  0  0  0  0
    4.4037    1.0843   -0.2992 H   0  0  0  0  0  0  0  0  0  0  0  0
    5.1503   -0.5419   -1.9972 H   0  0  0  0  0  0  0  0  0  0  0  0
    3.5025   -1.1419   -2.2003 H   0  0  0  0  0  0  0  0  0  0  0  0
    5.2319   -1.3635    0.3104 H   0  0  0  0  0  0  0  0  0  0  0  0
    4.7259   -2.6838   -0.7436 H   0  0  0  0  0  0  0  0  0  0  0  0
    3.3465   -2.5225    1.3574 H   0  0  0  0  0  0  0  0  0  0  0  0
    2.3818   -2.3813   -0.1140 H   0  0  0  0  0  0  0  0  0  0  0  0
    3.3234   -0.0663    1.6643 H   0  0  0  0  0  0  0  0  0  0  0  0
    1.6783   -0.6995    1.5157 H   0  0  0  0  0  0  0  0  0  0  0  0
   -2.4391    1.3935    1.4047 H   0  0  0  0  0  0  0  0  0  0  0  0
  1  2  1  0
  2  3  1  0
  3  4  2  0
  4  5  1  0
  5  6  2  0
  6  7  1  0
  7  8  1  0
  6  9  1  0
  9 10  1  0
 10 11  1  0
 11 12  2  0
 12 13  1  0
 13 14  2  0
 14 15  1  0
 15 16  1  0
 16 17  2  0
 17 18  1  0
 18 19  2  0
 19 20  1  0
 20 21  1  0
 21 22  1  0
 22 23  1  0
 23 24  1  0
 24 25  1  0
  9 26  2  0
 26  3  1  0
 19 11  1  0
 25 20  1  0
 17 13  1  0
  1 27  1  0
  1 28  1  0
  1 29  1  0
  4 30  1  0
  5 31  1  0
  8 32  1  0
  8 33  1  0
  8 34  1  0
 10 35  1  0
 21 36  1  0
 21 37  1  0
 22 38  1  0
 22 39  1  0
 23 40  1  0
 23 41  1  0
 24 42  1  0
 24 43  1  0
 25 44  1  0
 25 45  1  0
 26 46  1  0
M  END
$$$$
