
     RDKit          3D

 51 55  0  0  0  0  0  0  0  0999 V2000
    3.0067   -2.7206    1.1009 C   0  0  0  0  0  0  0  0  0  0  0  0
    2.9906   -1.3453    1.7507 C   0  0  0  0  0  0  0  0  0  0  0  0
    2.5781   -0.3263    0.7927 N   0  0  0  0  0  0  0  0  0  0  0  0
    1.2742    0.1415    0.5946 C   0  0  0  0  0  0  0  0  0  0  0  0
    0.1514   -0.3988    1.1093 C   0  0  0  0  0  0  0  0  0  0  0  0
   -1.2195    0.0910    0.9020 C   0  0  0  0  0  0  0  0  0  0  0  0
   -1.6318    1.1995    1.6432 C   0  0  0  0  0  0  0  0  0  0  0  0
   -2.9107    1.6988    1.4928 C   0  0  0  0  0  0  0  0  0  0  0  0
   -3.7800    1.0887    0.5981 C   0  0  0  0  0  0  0  0  0  0  0  0
   -5.0772    1.6015    0.4384 C   0  0  0  0  0  0  0  0  0  0  0  0
   -5.9759    1.0243   -0.4622 C   0  0  0  0  0  0  0  0  0  0  0  0
   -7.3704    1.5655   -0.5999 C   0  0  0  0  0  0  0  0  0  0  0  0
   -5.5740   -0.0929   -1.1907 C   0  0  0  0  0  0  0  0  0  0  0  0
   -4.2834   -0.6148   -1.0402 C   0  0  0  0  0  0  0  0  0  0  0  0
   -3.3546   -0.0449   -0.1472 C   0  0  0  0  0  0  0  0  0  0  0  0
   -2.0765   -0.5290    0.0339 N   0  0  0  0  0  4  0  0  0  0  0  0
   -1.6188   -1.7431   -0.7090 C   0  0  0  0  0  0  0  0  0  0  0  0
   -1.1245   -1.3678   -2.0928 C   0  0  0  0  0  0  0  0  0  0  0  0
    1.1672    1.5553   -0.4742 S   0  0  0  0  0  0  0  0  0  0  0  0
    2.9423    1.4832   -0.6931 C   0  0  0  0  0  0  0  0  0  0  0  0
    3.6405    2.3707   -1.4876 C   0  0  0  0  0  0  0  0  0  0  0  0
    5.0152    2.2223   -1.5973 C   0  0  0  0  0  0  0  0  0  0  0  0
    5.6564    1.1656   -0.9140 C   0  0  0  0  0  0  0  0  0  0  0  0
    7.3515    0.8464   -0.9694 S   0  0  0  0  0  0  0  0  0  0  0  0
    7.2012   -0.5129    0.0320 C   0  0  0  0  0  0  0  0  0  0  0  0
    5.8973   -0.7254    0.4138 C   0  0  0  0  0  0  0  0  0  0  0  0
    4.9636    0.2475   -0.1036 C   0  0  0  0  0  0  0  0  0  0  0  0
    3.5505    0.4160    0.0359 C   0  0  0  0  0  0  0  0  0  0  0  0
    3.6706   -2.7522    0.2318 H   0  0  0  0  0  0  0  0  0  0  0  0
    3.3446   -3.4746    1.8184 H   0  0  0  0  0  0  0  0  0  0  0  0
    2.0058   -3.0044    0.7587 H   0  0  0  0  0  0  0  0  0  0  0  0
    2.2945   -1.3694    2.5984 H   0  0  0  0  0  0  0  0  0  0  0  0
    3.9510   -1.1041    2.2132 H   0  0  0  0  0  0  0  0  0  0  0  0
    0.2122   -1.2714    1.7524 H   0  0  0  0  0  0  0  0  0  0  0  0
   -0.9490    1.6874    2.3383 H   0  0  0  0  0  0  0  0  0  0  0  0
   -3.2151    2.5697    2.0729 H   0  0  0  0  0  0  0  0  0  0  0  0
   -5.3999    2.4674    1.0186 H   0  0  0  0  0  0  0  0  0  0  0  0
   -8.0298    1.0892    0.1321 H   0  0  0  0  0  0  0  0  0  0  0  0
   -7.7643    1.3802   -1.6048 H   0  0  0  0  0  0  0  0  0  0  0  0
   -7.3856    2.6487   -0.4400 H   0  0  0  0  0  0  0  0  0  0  0  0
   -6.2655   -0.5655   -1.8887 H   0  0  0  0  0  0  0  0  0  0  0  0
   -4.0486   -1.4749   -1.6592 H   0  0  0  0  0  0  0  0  0  0  0  0
   -2.4443   -2.4598   -0.7463 H   0  0  0  0  0  0  0  0  0  0  0  0
   -0.8350   -2.2526   -0.1426 H   0  0  0  0  0  0  0  0  0  0  0  0
   -0.8327   -2.2672   -2.6439 H   0  0  0  0  0  0  0  0  0  0  0  0
   -0.2531   -0.7113   -2.0399 H   0  0  0  0  0  0  0  0  0  0  0  0
   -1.8911   -0.8484   -2.6745 H   0  0  0  0  0  0  0  0  0  0  0  0
    3.1357    3.1731   -2.0170 H   0  0  0  0  0  0  0  0  0  0  0  0
    5.5928    2.9087   -2.2126 H   0  0  0  0  0  0  0  0  0  0  0  0
    8.0720   -1.0991    0.2942 H   0  0  0  0  0  0  0  0  0  0  0  0
    5.6455   -1.5657    1.0427 H   0  0  0  0  0  0  0  0  0  0  0  0
  1  2  1  0
  2  3  1  0
  3  4  1  0
  4  5  2  3
  5  6  1  0
  6  7  2  0
  7  8  1  0
  8  9  2  0
  9 10  1  0
 10 11  2  0
 11 12  1  0
 11 13  1  0
 13 14  2  0
 14 15  1  0
 15 16  2  0
 16 17  1  0
 17 18  1  0
  4 19  1  0
 19 20  1  0
 20 21  2  0
 21 22  1  0
 22 23  2  0
 23 24  1  0
 24 25  1  0
 25 26  2  0
 26 27  1  0
 27 28  2  0
 28  3  1  0
 16  6  1  0
 28 20  1  0
 15  9  1  0
 27 23  1  0
  1 29  1  0
  1 30  1  0
  1 31  1  0
  2 32  1  0
  2 33  1  0
  5 34  1  0
  7 35  1  0
  8 36  1  0
 10 37  1  0
 12 38  1  0
 12 39  1  0
 12 40  1  0
 13 41  1  0
 14 42  1  0
 17 43  1  0
 17 44  1  0
 18 45  1  0
 18 46  1  0
 18 47  1  0
 21 48  1  0
 22 49  1  0
 25 50  1  0
 26 51  1  0
M  CHG  1  16   1
M  END
$$$$
