
     RDKit          3D

 45 47  0  0  0  0  0  0  0  0999 V2000
    5.5223    2.6030   -3.4866 C   0  0  0  0  0  0  0  0  0  0  0  0
    4.8183    1.8852   -2.3743 C   0  0  0  0  0  0  0  0  0  0  0  0
    5.0900    0.5441   -2.1272 C   0  0  0  0  0  0  0  0  0  0  0  0
    4.4100   -0.0940   -1.0959 C   0  0  0  0  0  0  0  0  0  0  0  0
    3.4890    0.6225   -0.3376 C   0  0  0  0  0  0  0  0  0  0  0  0
    3.3060    1.9624   -0.6286 C   0  0  0  0  0  0  0  0  0  0  0  0
    2.3545    2.8107   -0.0421 N   0  0  0  0  0  0  0  0  0  0  0  0
    1.8339    2.6449    1.5260 S   0  0  0  0  0  6  0  0  0  0  0  0
    1.1996    3.8940    1.8907 O   0  0  0  0  0  0  0  0  0  0  0  0
    2.8939    2.0769    2.3315 O   0  0  0  0  0  0  0  0  0  0  0  0
    0.5292    1.4462    1.3896 C   0  0  0  0  0  0  0  0  0  0  0  0
   -0.4961    1.6533    0.4647 C   0  0  0  0  0  0  0  0  0  0  0  0
   -1.5151    0.7067    0.3445 C   0  0  0  0  0  0  0  0  0  0  0  0
   -1.5231   -0.4460    1.1475 C   0  0  0  0  0  0  0  0  0  0  0  0
   -2.6217   -1.4892    1.0287 C   0  0  0  0  0  0  0  0  0  0  0  0
   -4.0271   -0.8981    1.2120 C   0  0  0  0  0  0  0  0  0  0  0  0
   -5.0973   -1.9930    1.2602 C   0  0  0  0  0  0  0  0  0  0  0  0
   -4.7446   -3.2316    0.4342 C   0  0  0  0  0  0  0  0  0  0  0  0
   -3.8436   -2.8914   -0.7447 C   0  0  0  0  0  0  0  0  0  0  0  0
   -2.5155   -2.2748   -0.2947 C   0  0  0  0  0  0  0  0  0  0  0  0
   -0.4834   -0.6328    2.0736 C   0  0  0  0  0  0  0  0  0  0  0  0
    0.5393    0.3094    2.1994 C   0  0  0  0  0  0  0  0  0  0  0  0
    3.9227    2.5939   -1.6464 N   0  0  0  0  0  0  0  0  0  0  0  0
    5.2000    3.6478   -3.5415 H   0  0  0  0  0  0  0  0  0  0  0  0
    5.2980    2.1261   -4.4457 H   0  0  0  0  0  0  0  0  0  0  0  0
    6.6040    2.5884   -3.3211 H   0  0  0  0  0  0  0  0  0  0  0  0
    5.8123    0.0010   -2.7284 H   0  0  0  0  0  0  0  0  0  0  0  0
    4.5924   -1.1442   -0.8854 H   0  0  0  0  0  0  0  0  0  0  0  0
    2.9510    0.1207    0.4549 H   0  0  0  0  0  0  0  0  0  0  0  0
    2.4090    3.7686   -0.3773 H   0  0  0  0  0  0  0  0  0  0  0  0
   -0.5092    2.5433   -0.1599 H   0  0  0  0  0  0  0  0  0  0  0  0
   -2.3042    0.8762   -0.3852 H   0  0  0  0  0  0  0  0  0  0  0  0
   -2.4821   -2.2119    1.8462 H   0  0  0  0  0  0  0  0  0  0  0  0
   -4.0830   -0.2970    2.1280 H   0  0  0  0  0  0  0  0  0  0  0  0
   -4.2607   -0.2161    0.3842 H   0  0  0  0  0  0  0  0  0  0  0  0
   -6.0467   -1.5707    0.9091 H   0  0  0  0  0  0  0  0  0  0  0  0
   -5.2666   -2.3007    2.2992 H   0  0  0  0  0  0  0  0  0  0  0  0
   -4.2362   -3.9631    1.0749 H   0  0  0  0  0  0  0  0  0  0  0  0
   -5.6645   -3.7128    0.0832 H   0  0  0  0  0  0  0  0  0  0  0  0
   -3.6470   -3.7880   -1.3433 H   0  0  0  0  0  0  0  0  0  0  0  0
   -4.3658   -2.1853   -1.4029 H   0  0  0  0  0  0  0  0  0  0  0  0
   -1.7700   -3.0706   -0.1657 H   0  0  0  0  0  0  0  0  0  0  0  0
   -2.1373   -1.6481   -1.1120 H   0  0  0  0  0  0  0  0  0  0  0  0
   -0.4655   -1.5158    2.7098 H   0  0  0  0  0  0  0  0  0  0  0  0
    1.3307    0.1499    2.9286 H   0  0  0  0  0  0  0  0  0  0  0  0
  1  2  1  0
  2  3  2  0
  3  4  1  0
  4  5  2  0
  5  6  1  0
  6  7  1  0
  7  8  1  0
  8  9  2  0
  8 10  2  0
  8 11  1  0
 11 12  2  0
 12 13  1  0
 13 14  2  0
 14 15  1  0
 15 16  1  0
 16 17  1  0
 17 18  1  0
 18 19  1  0
 19 20  1  0
 14 21  1  0
 21 22  2  0
  6 23  2  0
 23  2  1  0
 22 11  1  0
 20 15  1  0
  1 24  1  0
  1 25  1  0
  1 26  1  0
  3 27  1  0
  4 28  1  0
  5 29  1  0
  7 30  1  0
 12 31  1  0
 13 32  1  0
 15 33  1  0
 16 34  1  0
 16 35  1  0
 17 36  1  0
 17 37  1  0
 18 38  1  0
 18 39  1  0
 19 40  1  0
 19 41  1  0
 20 42  1  0
 20 43  1  0
 21 44  1  0
 22 45  1  0
M  END
$$$$
