
     RDKit          3D

 57 61  0  0  0  0  0  0  0  0999 V2000
    4.3918    2.3562    1.0766 C   0  0  0  0  0  0  0  0  0  0  0  0
    4.7348    1.2454    0.0848 C   0  0  0  0  0  0  0  0  0  0  0  0
    6.2533    1.1677   -0.0942 C   0  0  0  0  0  0  0  0  0  0  0  0
    4.1730   -0.0946    0.5740 C   0  0  0  0  0  0  0  0  0  0  0  0
    4.9273   -0.9771    0.9902 O   0  0  0  0  0  0  0  0  0  0  0  0
    2.7822   -0.2614    0.5766 N   0  0  0  0  0  0  0  0  0  0  0  0
    1.9064    0.4413   -0.3566 C   0  0  0  0  0  0  0  0  0  0  0  0
    0.4646    0.5182    0.1428 C   0  0  0  0  0  0  0  0  0  0  0  0
   -0.1125   -0.8719    0.5085 C   0  0  0  0  0  0  0  0  0  0  0  0
    0.8591   -1.4844    1.5525 C   0  0  0  0  0  0  0  0  0  0  0  0
    2.2920   -1.5575    1.0344 C   0  0  0  0  0  0  0  0  0  0  0  0
   -0.0894   -1.6429   -0.7173 O   0  0  0  0  0  0  0  0  0  0  0  0
   -0.7397   -2.8443   -0.6782 C   0  0  0  0  0  0  0  0  0  0  0  0
   -0.4010   -3.7595   -1.6743 C   0  0  0  0  0  0  0  0  0  0  0  0
   -1.0044   -5.0193   -1.6996 C   0  0  0  0  0  0  0  0  0  0  0  0
   -1.9509   -5.3572   -0.7316 C   0  0  0  0  0  0  0  0  0  0  0  0
   -2.6919   -6.9085   -0.7698 Cl  0  0  0  0  0  0  0  0  0  0  0  0
   -2.3056   -4.4445    0.2586 C   0  0  0  0  0  0  0  0  0  0  0  0
   -1.7012   -3.1834    0.2737 C   0  0  0  0  0  0  0  0  0  0  0  0
   -2.0881   -2.1821    1.2866 C   0  0  0  0  0  0  0  0  0  0  0  0
   -2.8258   -2.5083    2.2102 O   0  0  0  0  0  0  0  0  0  0  0  0
   -1.5681   -0.7690    1.0471 C   0  0  0  0  0  0  0  0  0  0  0  0
   -2.5679   -0.0673    0.1332 C   0  0  0  0  0  0  0  0  0  0  0  0
   -2.6754    1.2342    0.8473 C   0  0  0  0  0  0  0  0  0  0  0  0
   -3.3618    2.4050    0.2527 C   0  0  0  0  0  0  0  0  0  0  0  0
   -3.3661    3.6175    0.9564 C   0  0  0  0  0  0  0  0  0  0  0  0
   -4.0056    4.7410    0.4243 C   0  0  0  0  0  0  0  0  0  0  0  0
   -4.6412    4.6531   -0.8117 C   0  0  0  0  0  0  0  0  0  0  0  0
   -5.4268    6.0336   -1.4711 Cl  0  0  0  0  0  0  0  0  0  0  0  0
   -4.6456    3.4505   -1.5182 C   0  0  0  0  0  0  0  0  0  0  0  0
   -4.0079    2.3241   -0.9868 C   0  0  0  0  0  0  0  0  0  0  0  0
   -2.1285    1.2564    2.0195 N   0  0  0  0  0  0  0  0  0  0  0  0
   -1.6027   -0.0309    2.2720 O   0  0  0  0  0  0  0  0  0  0  0  0
    4.7710    3.3212    0.7236 H   0  0  0  0  0  0  0  0  0  0  0  0
    4.8331    2.1555    2.0598 H   0  0  0  0  0  0  0  0  0  0  0  0
    3.3124    2.4560    1.2246 H   0  0  0  0  0  0  0  0  0  0  0  0
    4.3145    1.4706   -0.9004 H   0  0  0  0  0  0  0  0  0  0  0  0
    6.6463    2.1096   -0.4905 H   0  0  0  0  0  0  0  0  0  0  0  0
    6.5213    0.3691   -0.7948 H   0  0  0  0  0  0  0  0  0  0  0  0
    6.7608    0.9613    0.8547 H   0  0  0  0  0  0  0  0  0  0  0  0
    1.9620   -0.0868   -1.3163 H   0  0  0  0  0  0  0  0  0  0  0  0
    2.2584    1.4584   -0.5391 H   0  0  0  0  0  0  0  0  0  0  0  0
    0.4372    1.1801    1.0167 H   0  0  0  0  0  0  0  0  0  0  0  0
   -0.1285    0.9886   -0.6489 H   0  0  0  0  0  0  0  0  0  0  0  0
    0.5583   -2.4982    1.8369 H   0  0  0  0  0  0  0  0  0  0  0  0
    0.8455   -0.8806    2.4688 H   0  0  0  0  0  0  0  0  0  0  0  0
    2.9343   -1.9383    1.8369 H   0  0  0  0  0  0  0  0  0  0  0  0
    2.3740   -2.2599    0.1962 H   0  0  0  0  0  0  0  0  0  0  0  0
    0.3428   -3.5011   -2.4248 H   0  0  0  0  0  0  0  0  0  0  0  0
   -0.7298   -5.7330   -2.4731 H   0  0  0  0  0  0  0  0  0  0  0  0
   -3.0499   -4.7071    1.0077 H   0  0  0  0  0  0  0  0  0  0  0  0
   -3.5551   -0.5426    0.1273 H   0  0  0  0  0  0  0  0  0  0  0  0
   -2.2176    0.0435   -0.8954 H   0  0  0  0  0  0  0  0  0  0  0  0
   -2.8762    3.6962    1.9258 H   0  0  0  0  0  0  0  0  0  0  0  0
   -4.0047    5.6751    0.9807 H   0  0  0  0  0  0  0  0  0  0  0  0
   -5.1477    3.3832   -2.4804 H   0  0  0  0  0  0  0  0  0  0  0  0
   -4.0390    1.3992   -1.5547 H   0  0  0  0  0  0  0  0  0  0  0  0
  1  2  1  0
  2  3  1  0
  2  4  1  0
  4  5  2  0
  4  6  1  0
  6  7  1  0
  7  8  1  0
  8  9  1  0
  9 10  1  0
 10 11  1  0
  9 12  1  0
 12 13  1  0
 13 14  2  0
 14 15  1  0
 15 16  2  0
 16 17  1  0
 16 18  1  0
 18 19  2  0
 19 20  1  0
 20 21  2  0
 20 22  1  0
 22 23  1  0
 23 24  1  0
 24 25  1  0
 25 26  2  0
 26 27  1  0
 27 28  2  0
 28 29  1  0
 28 30  1  0
 30 31  2  0
 24 32  2  0
 32 33  1  0
 11  6  1  0
 19 13  1  0
 33 22  1  0
 22  9  1  0
 31 25  1  0
  1 34  1  0
  1 35  1  0
  1 36  1  0
  2 37  1  0
  3 38  1  0
  3 39  1  0
  3 40  1  0
  7 41  1  0
  7 42  1  0
  8 43  1  0
  8 44  1  0
 10 45  1  0
 10 46  1  0
 11 47  1  0
 11 48  1  0
 14 49  1  0
 15 50  1  0
 18 51  1  0
 23 52  1  0
 23 53  1  0
 26 54  1  0
 27 55  1  0
 30 56  1  0
 31 57  1  0
M  END
$$$$
