
     RDKit          3D

 47 48  0  0  0  0  0  0  0  0999 V2000
    4.8139   -2.0654    1.5784 C   0  0  0  0  0  0  0  0  0  0  0  0
    4.6517   -0.7821    0.8181 C   0  0  0  0  0  0  0  0  0  0  0  0
    3.5971    0.0922    1.0976 C   0  0  0  0  0  0  0  0  0  0  0  0
    3.4486    1.2758    0.3718 C   0  0  0  0  0  0  0  0  0  0  0  0
    4.3460    1.6046   -0.6548 C   0  0  0  0  0  0  0  0  0  0  0  0
    4.1736    2.8841   -1.4391 C   0  0  0  0  0  0  0  0  0  0  0  0
    3.8327    2.6305   -3.2012 S   0  0  0  0  0  0  0  0  0  0  0  0
    2.2540    1.9130   -3.1478 C   0  0  0  0  0  0  0  0  0  0  0  0
    1.7111    1.2611   -4.1563 N   0  0  0  0  0  0  0  0  0  0  0  0
    0.4678    0.8327   -3.7357 N   0  0  0  0  0  0  0  0  0  0  0  0
    0.3348    1.2601   -2.5002 C   0  0  0  0  0  0  0  0  0  0  0  0
   -0.7799    1.0773   -1.5476 C   0  0  0  0  0  0  0  0  0  0  0  0
   -0.5729   -0.1798   -0.7072 C   0  0  0  0  0  0  0  0  0  0  0  0
   -1.5400   -0.2890    0.3654 N   0  0  0  0  0  0  0  0  0  0  0  0
   -2.8245   -0.6916    0.1621 C   0  0  0  0  0  0  0  0  0  0  0  0
   -3.2805   -1.0434   -0.9131 O   0  0  0  0  0  0  0  0  0  0  0  0
   -3.4917   -0.6154    1.3350 O   0  0  0  0  0  0  0  0  0  0  0  0
   -4.8907   -0.9923    1.4129 C   0  0  0  0  0  0  0  0  0  0  0  0
   -5.2778   -0.7463    2.8773 C   0  0  0  0  0  0  0  0  0  0  0  0
   -5.7631   -0.1021    0.5220 C   0  0  0  0  0  0  0  0  0  0  0  0
   -5.0814   -2.4803    1.0970 C   0  0  0  0  0  0  0  0  0  0  0  0
    1.4190    1.9676   -2.0615 O   0  0  0  0  0  0  0  0  0  0  0  0
    5.4059    0.7286   -0.9269 C   0  0  0  0  0  0  0  0  0  0  0  0
    5.5542   -0.4544   -0.1997 C   0  0  0  0  0  0  0  0  0  0  0  0
    5.8167   -2.1240    2.0162 H   0  0  0  0  0  0  0  0  0  0  0  0
    4.6606   -2.9201    0.9110 H   0  0  0  0  0  0  0  0  0  0  0  0
    4.0904   -2.1409    2.3964 H   0  0  0  0  0  0  0  0  0  0  0  0
    2.8833   -0.1423    1.8830 H   0  0  0  0  0  0  0  0  0  0  0  0
    2.6198    1.9375    0.6131 H   0  0  0  0  0  0  0  0  0  0  0  0
    3.3809    3.5058   -1.0044 H   0  0  0  0  0  0  0  0  0  0  0  0
    5.0971    3.4690   -1.3533 H   0  0  0  0  0  0  0  0  0  0  0  0
   -0.8516    1.9545   -0.8932 H   0  0  0  0  0  0  0  0  0  0  0  0
   -1.7277    1.0185   -2.0945 H   0  0  0  0  0  0  0  0  0  0  0  0
    0.4171   -0.1824   -0.2408 H   0  0  0  0  0  0  0  0  0  0  0  0
   -0.6470   -1.0734   -1.3368 H   0  0  0  0  0  0  0  0  0  0  0  0
   -1.3184    0.0210    1.3018 H   0  0  0  0  0  0  0  0  0  0  0  0
   -5.1271    0.3060    3.1479 H   0  0  0  0  0  0  0  0  0  0  0  0
   -6.3234   -1.0072    3.0696 H   0  0  0  0  0  0  0  0  0  0  0  0
   -4.6446   -1.3313    3.5528 H   0  0  0  0  0  0  0  0  0  0  0  0
   -5.5903   -0.2919   -0.5410 H   0  0  0  0  0  0  0  0  0  0  0  0
   -5.5394    0.9575    0.6930 H   0  0  0  0  0  0  0  0  0  0  0  0
   -6.8280   -0.2698    0.7134 H   0  0  0  0  0  0  0  0  0  0  0  0
   -4.8849   -2.7016    0.0451 H   0  0  0  0  0  0  0  0  0  0  0  0
   -6.1033   -2.8075    1.3141 H   0  0  0  0  0  0  0  0  0  0  0  0
   -4.3874   -3.0936    1.6817 H   0  0  0  0  0  0  0  0  0  0  0  0
    6.1220    0.9542   -1.7150 H   0  0  0  0  0  0  0  0  0  0  0  0
    6.3775   -1.1235   -0.4362 H   0  0  0  0  0  0  0  0  0  0  0  0
  1  2  1  0
  2  3  2  0
  3  4  1  0
  4  5  2  0
  5  6  1  0
  6  7  1  0
  7  8  1  0
  8  9  2  0
  9 10  1  0
 10 11  2  0
 11 12  1  0
 12 13  1  0
 13 14  1  0
 14 15  1  0
 15 16  2  0
 15 17  1  0
 17 18  1  0
 18 19  1  0
 18 20  1  0
 18 21  1  0
 11 22  1  0
  5 23  1  0
 23 24  2  0
 24  2  1  0
 22  8  1  0
  1 25  1  0
  1 26  1  0
  1 27  1  0
  3 28  1  0
  4 29  1  0
  6 30  1  0
  6 31  1  0
 12 32  1  0
 12 33  1  0
 13 34  1  0
 13 35  1  0
 14 36  1  0
 19 37  1  0
 19 38  1  0
 19 39  1  0
 20 40  1  0
 20 41  1  0
 20 42  1  0
 21 43  1  0
 21 44  1  0
 21 45  1  0
 23 46  1  0
 24 47  1  0
M  END
$$$$
