
     RDKit          3D

 47 49  0  0  0  0  0  0  0  0999 V2000
   -7.0338   -0.1031    2.4746 C   0  0  0  0  0  0  0  0  0  0  0  0
   -6.3111    0.9550    1.6591 C   0  0  0  0  0  0  0  0  0  0  0  0
   -5.9383    0.4433    0.3807 O   0  0  0  0  0  0  0  0  0  0  0  0
   -4.7268   -0.1723    0.2397 C   0  0  0  0  0  0  0  0  0  0  0  0
   -3.8272   -0.4744    1.2640 C   0  0  0  0  0  0  0  0  0  0  0  0
   -2.6179   -1.1135    0.9722 C   0  0  0  0  0  0  0  0  0  0  0  0
   -2.3122   -1.4495   -0.3494 C   0  0  0  0  0  0  0  0  0  0  0  0
   -0.7762   -2.2658   -0.6960 S   0  0  0  0  0  6  0  0  0  0  0  0
   -0.6326   -3.3428    0.2599 O   0  0  0  0  0  0  0  0  0  0  0  0
   -0.6812   -2.5057   -2.1207 O   0  0  0  0  0  0  0  0  0  0  0  0
    0.3786   -1.0657   -0.3145 N   0  0  0  0  0  0  0  0  0  0  0  0
    1.7530   -1.6345   -0.1244 C   0  0  0  0  0  0  0  0  0  0  0  0
    2.8167   -0.5323   -0.0403 C   0  0  0  0  0  0  0  0  0  0  0  0
    2.8169    0.3500   -1.2153 N   0  0  0  0  0  0  0  0  0  0  0  0
    3.7267    1.3818   -1.4144 C   0  0  0  0  0  0  0  0  0  0  0  0
    3.6029    2.2560   -2.2665 O   0  0  0  0  0  0  0  0  0  0  0  0
    4.9125    1.4464   -0.5424 C   0  0  0  0  0  0  0  0  0  0  0  0
    5.9369    0.5149   -0.6875 C   0  0  0  0  0  0  0  0  0  0  0  0
    7.0273    0.6369    0.1512 C   0  0  0  0  0  0  0  0  0  0  0  0
    7.1473    1.6056    1.0862 N   0  0  0  0  0  0  0  0  0  0  0  0
    6.1470    2.5114    1.1735 C   0  0  0  0  0  0  0  0  0  0  0  0
    5.0143    2.4799    0.3839 C   0  0  0  0  0  0  0  0  0  0  0  0
    1.6094    0.3030   -2.0448 C   0  0  0  0  0  0  0  0  0  0  0  0
    0.3468    0.1598   -1.1875 C   0  0  0  0  0  0  0  0  0  0  0  0
   -3.2086   -1.1680   -1.3795 C   0  0  0  0  0  0  0  0  0  0  0  0
   -4.4116   -0.5273   -1.0778 C   0  0  0  0  0  0  0  0  0  0  0  0
   -6.3849   -0.9582    2.6858 H   0  0  0  0  0  0  0  0  0  0  0  0
   -7.3828    0.3120    3.4245 H   0  0  0  0  0  0  0  0  0  0  0  0
   -7.8970   -0.4894    1.9213 H   0  0  0  0  0  0  0  0  0  0  0  0
   -7.0074    1.7798    1.4700 H   0  0  0  0  0  0  0  0  0  0  0  0
   -5.4658    1.3955    2.1991 H   0  0  0  0  0  0  0  0  0  0  0  0
   -4.0390   -0.2408    2.3020 H   0  0  0  0  0  0  0  0  0  0  0  0
   -1.9237   -1.3529    1.7754 H   0  0  0  0  0  0  0  0  0  0  0  0
    1.9925   -2.3067   -0.9574 H   0  0  0  0  0  0  0  0  0  0  0  0
    1.7706   -2.2138    0.8051 H   0  0  0  0  0  0  0  0  0  0  0  0
    3.8041   -0.9873    0.0742 H   0  0  0  0  0  0  0  0  0  0  0  0
    2.6335    0.1003    0.8368 H   0  0  0  0  0  0  0  0  0  0  0  0
    5.8891   -0.2707   -1.4318 H   0  0  0  0  0  0  0  0  0  0  0  0
    7.8614   -0.0579    0.0948 H   0  0  0  0  0  0  0  0  0  0  0  0
    6.2906    3.2886    1.9185 H   0  0  0  0  0  0  0  0  0  0  0  0
    4.2418    3.2342    0.4792 H   0  0  0  0  0  0  0  0  0  0  0  0
    1.7149   -0.5598   -2.7128 H   0  0  0  0  0  0  0  0  0  0  0  0
    1.5295    1.1950   -2.6738 H   0  0  0  0  0  0  0  0  0  0  0  0
   -0.5306    0.1644   -1.8405 H   0  0  0  0  0  0  0  0  0  0  0  0
    0.2479    1.0241   -0.5196 H   0  0  0  0  0  0  0  0  0  0  0  0
   -2.9870   -1.4412   -2.4086 H   0  0  0  0  0  0  0  0  0  0  0  0
   -5.1165   -0.3040   -1.8762 H   0  0  0  0  0  0  0  0  0  0  0  0
  1  2  1  0
  2  3  1  0
  3  4  1  0
  4  5  2  0
  5  6  1  0
  6  7  2  0
  7  8  1  0
  8  9  2  0
  8 10  2  0
  8 11  1  0
 11 12  1  0
 12 13  1  0
 13 14  1  0
 14 15  1  0
 15 16  2  0
 15 17  1  0
 17 18  2  0
 18 19  1  0
 19 20  2  0
 20 21  1  0
 21 22  2  0
 14 23  1  0
 23 24  1  0
  7 25  1  0
 25 26  2  0
 26  4  1  0
 24 11  1  0
 22 17  1  0
  1 27  1  0
  1 28  1  0
  1 29  1  0
  2 30  1  0
  2 31  1  0
  5 32  1  0
  6 33  1  0
 12 34  1  0
 12 35  1  0
 13 36  1  0
 13 37  1  0
 18 38  1  0
 19 39  1  0
 21 40  1  0
 22 41  1  0
 23 42  1  0
 23 43  1  0
 24 44  1  0
 24 45  1  0
 25 46  1  0
 26 47  1  0
M  END
$$$$
