
     RDKit          3D

 71 75  0  0  0  0  0  0  0  0999 V2000
   -3.8732    6.3442   -0.6117 C   0  0  0  0  0  0  0  0  0  0  0  0
   -3.3944    5.7597    0.5930 O   0  0  0  0  0  0  0  0  0  0  0  0
   -3.0102    4.4486    0.5301 C   0  0  0  0  0  0  0  0  0  0  0  0
   -2.5522    3.9145    1.7352 C   0  0  0  0  0  0  0  0  0  0  0  0
   -2.1255    2.5855    1.8138 C   0  0  0  0  0  0  0  0  0  0  0  0
   -2.1522    1.7587    0.6835 C   0  0  0  0  0  0  0  0  0  0  0  0
   -1.6788    0.3022    0.7237 C   0  0  0  0  0  0  0  0  0  0  0  0
   -2.4053   -0.5130    1.8278 C   0  0  0  0  0  0  0  0  0  0  0  0
   -2.0493   -2.0094    1.8504 C   0  0  0  0  0  0  0  0  0  0  0  0
   -2.2860   -2.6931    0.5733 N   0  0  0  0  0  0  0  0  0  0  0  0
   -1.5329   -3.9633    0.5083 C   0  0  0  0  0  0  0  0  0  0  0  0
   -2.1030   -4.9031   -0.5636 C   0  0  0  0  0  0  0  0  0  0  0  0
   -3.4434   -5.3238   -0.2711 O   0  0  0  0  0  0  0  0  0  0  0  0
   -4.1733   -4.3675    0.5084 C   0  0  0  0  0  0  0  0  0  0  0  0
   -3.7168   -2.9170    0.2754 C   0  0  0  0  0  0  0  0  0  0  0  0
   -0.1464    0.2046    0.6617 C   0  0  0  0  0  0  0  0  0  0  0  0
    0.6836    0.2664    1.7934 C   0  0  0  0  0  0  0  0  0  0  0  0
    0.0692    0.4173    3.0070 O   0  0  0  0  0  0  0  0  0  0  0  0
    0.8768    0.6586    4.1525 C   0  0  0  0  0  0  0  0  0  0  0  0
    2.0738    0.1531    1.6463 C   0  0  0  0  0  0  0  0  0  0  0  0
    2.6753    0.0143    0.3862 C   0  0  0  0  0  0  0  0  0  0  0  0
    4.0286   -0.1238    0.2220 O   0  0  0  0  0  0  0  0  0  0  0  0
    4.8837    0.0880    1.3354 C   0  0  0  0  0  0  0  0  0  0  0  0
    1.8779   -0.0111   -0.7728 C   0  0  0  0  0  0  0  0  0  0  0  0
    2.4120   -0.1201   -2.1548 C   0  0  0  0  0  0  0  0  0  0  0  0
    3.8310   -0.1783   -2.5663 C   0  0  0  0  0  0  0  0  0  0  0  0
    4.5631    1.0048   -2.7386 C   0  0  0  0  0  0  0  0  0  0  0  0
    5.8965    0.9537   -3.1486 C   0  0  0  0  0  0  0  0  0  0  0  0
    6.5048   -0.2768   -3.3928 C   0  0  0  0  0  0  0  0  0  0  0  0
    5.7823   -1.4582   -3.2266 C   0  0  0  0  0  0  0  0  0  0  0  0
    4.4488   -1.4109   -2.8154 C   0  0  0  0  0  0  0  0  0  0  0  0
    1.5506   -0.1400   -3.1847 C   0  0  0  0  0  0  0  0  0  0  0  0
    0.0998   -0.0580   -3.0250 C   0  0  0  0  0  0  0  0  0  0  0  0
   -0.6469   -0.0779   -3.9962 O   0  0  0  0  0  0  0  0  0  0  0  0
   -0.3659    0.0513   -1.7332 O   0  0  0  0  0  0  0  0  0  0  0  0
    0.4873    0.0805   -0.5999 C   0  0  0  0  0  0  0  0  0  0  0  0
   -2.6111    2.3068   -0.5261 C   0  0  0  0  0  0  0  0  0  0  0  0
   -3.0380    3.6380   -0.6028 C   0  0  0  0  0  0  0  0  0  0  0  0
   -4.7807    5.8406   -0.9613 H   0  0  0  0  0  0  0  0  0  0  0  0
   -3.0981    6.3477   -1.3856 H   0  0  0  0  0  0  0  0  0  0  0  0
   -4.1320    7.3853   -0.3974 H   0  0  0  0  0  0  0  0  0  0  0  0
   -2.5241    4.5401    2.6239 H   0  0  0  0  0  0  0  0  0  0  0  0
   -1.7697    2.2101    2.7689 H   0  0  0  0  0  0  0  0  0  0  0  0
   -2.0649   -0.1555   -0.1969 H   0  0  0  0  0  0  0  0  0  0  0  0
   -3.4883   -0.3984    1.6871 H   0  0  0  0  0  0  0  0  0  0  0  0
   -2.2177   -0.1047    2.8261 H   0  0  0  0  0  0  0  0  0  0  0  0
   -2.6094   -2.5020    2.6558 H   0  0  0  0  0  0  0  0  0  0  0  0
   -0.9909   -2.0997    2.1226 H   0  0  0  0  0  0  0  0  0  0  0  0
   -0.4829   -3.7453    0.2853 H   0  0  0  0  0  0  0  0  0  0  0  0
   -1.5739   -4.4801    1.4760 H   0  0  0  0  0  0  0  0  0  0  0  0
   -2.1009   -4.4238   -1.5499 H   0  0  0  0  0  0  0  0  0  0  0  0
   -1.4873   -5.8052   -0.6401 H   0  0  0  0  0  0  0  0  0  0  0  0
   -4.0709   -4.6404    1.5649 H   0  0  0  0  0  0  0  0  0  0  0  0
   -5.2312   -4.4750    0.2484 H   0  0  0  0  0  0  0  0  0  0  0  0
   -3.8580   -2.6805   -0.7871 H   0  0  0  0  0  0  0  0  0  0  0  0
   -4.3691   -2.2360    0.8312 H   0  0  0  0  0  0  0  0  0  0  0  0
    1.5118    1.5405    4.0155 H   0  0  0  0  0  0  0  0  0  0  0  0
    1.4726   -0.2248    4.4036 H   0  0  0  0  0  0  0  0  0  0  0  0
    0.2077    0.8576    4.9953 H   0  0  0  0  0  0  0  0  0  0  0  0
    2.7003    0.1600    2.5284 H   0  0  0  0  0  0  0  0  0  0  0  0
    4.7521   -0.6983    2.0854 H   0  0  0  0  0  0  0  0  0  0  0  0
    5.9169    0.0333    0.9784 H   0  0  0  0  0  0  0  0  0  0  0  0
    4.7342    1.0822    1.7691 H   0  0  0  0  0  0  0  0  0  0  0  0
    4.0987    1.9693   -2.5468 H   0  0  0  0  0  0  0  0  0  0  0  0
    6.4605    1.8741   -3.2764 H   0  0  0  0  0  0  0  0  0  0  0  0
    7.5429   -0.3155   -3.7124 H   0  0  0  0  0  0  0  0  0  0  0  0
    6.2579   -2.4167   -3.4160 H   0  0  0  0  0  0  0  0  0  0  0  0
    3.8954   -2.3377   -2.6842 H   0  0  0  0  0  0  0  0  0  0  0  0
    1.8807   -0.2081   -4.2164 H   0  0  0  0  0  0  0  0  0  0  0  0
   -2.6397    1.6970   -1.4282 H   0  0  0  0  0  0  0  0  0  0  0  0
   -3.3822    4.0048   -1.5641 H   0  0  0  0  0  0  0  0  0  0  0  0
  1  2  1  0
  2  3  1  0
  3  4  2  0
  4  5  1  0
  5  6  2  0
  6  7  1  0
  7  8  1  0
  8  9  1  0
  9 10  1  0
 10 11  1  0
 11 12  1  0
 12 13  1  0
 13 14  1  0
 14 15  1  0
  7 16  1  0
 16 17  2  0
 17 18  1  0
 18 19  1  0
 17 20  1  0
 20 21  2  0
 21 22  1  0
 22 23  1  0
 21 24  1  0
 24 25  1  0
 25 26  1  0
 26 27  2  0
 27 28  1  0
 28 29  2  0
 29 30  1  0
 30 31  2  0
 25 32  2  0
 32 33  1  0
 33 34  2  0
 33 35  1  0
 35 36  1  0
  6 37  1  0
 37 38  2  0
 38  3  1  0
 15 10  1  0
 36 16  1  0
 36 24  2  0
 31 26  1  0
  1 39  1  0
  1 40  1  0
  1 41  1  0
  4 42  1  0
  5 43  1  0
  7 44  1  0
  8 45  1  0
  8 46  1  0
  9 47  1  0
  9 48  1  0
 11 49  1  0
 11 50  1  0
 12 51  1  0
 12 52  1  0
 14 53  1  0
 14 54  1  0
 15 55  1  0
 15 56  1  0
 19 57  1  0
 19 58  1  0
 19 59  1  0
 20 60  1  0
 23 61  1  0
 23 62  1  0
 23 63  1  0
 27 64  1  0
 28 65  1  0
 29 66  1  0
 30 67  1  0
 31 68  1  0
 32 69  1  0
 37 70  1  0
 38 71  1  0
M  END
$$$$
