
     RDKit          3D

 67 71  0  0  0  0  0  0  0  0999 V2000
    0.0976   -1.2390    1.0751 C   0  0  0  0  0  0  0  0  0  0  0  0
   -0.0063    0.1863    0.7707 N   0  0  0  0  0  0  0  0  0  0  0  0
    1.0097    0.6427   -0.1774 C   0  0  0  0  0  0  0  0  0  0  0  0
    0.8140    0.1689   -1.5870 C   0  0  0  0  0  0  0  0  0  0  0  0
    1.7997   -0.1182   -2.4610 C   0  0  0  0  0  0  0  0  0  0  0  0
    3.2322    0.0254   -2.1921 C   0  0  0  0  0  0  0  0  0  0  0  0
    4.0501   -1.1034   -2.1799 C   0  0  0  0  0  0  0  0  0  0  0  0
    5.4236   -0.9741   -1.9399 C   0  0  0  0  0  0  0  0  0  0  0  0
    6.0229    0.2758   -1.7056 C   0  0  0  0  0  0  0  0  0  0  0  0
    7.4074    0.3450   -1.4882 N   0  0  0  0  0  0  0  0  0  0  0  0
    8.0673    1.6662   -1.5844 C   0  0  0  0  0  0  0  0  0  0  0  0
    9.5938    1.4878   -1.5508 C   0  0  0  0  0  0  0  0  0  0  0  0
   10.0161    0.7990   -0.3609 O   0  0  0  0  0  0  0  0  0  0  0  0
    9.4053   -0.5001   -0.3012 C   0  0  0  0  0  0  0  0  0  0  0  0
    7.8701   -0.4091   -0.2966 C   0  0  0  0  0  0  0  0  0  0  0  0
    5.1850    1.3998   -1.7476 C   0  0  0  0  0  0  0  0  0  0  0  0
    3.8084    1.2801   -1.9853 C   0  0  0  0  0  0  0  0  0  0  0  0
   -0.5873   -0.0277   -2.0740 C   0  0  0  0  0  0  0  0  0  0  0  0
   -0.8243   -0.2831   -3.2532 O   0  0  0  0  0  0  0  0  0  0  0  0
   -1.6889    0.1013   -1.0702 C   0  0  0  0  0  0  0  0  0  0  0  0
   -2.9264   -0.2349   -1.4866 C   0  0  0  0  0  0  0  0  0  0  0  0
   -4.1355   -0.1311   -0.6685 C   0  0  0  0  0  0  0  0  0  0  0  0
   -4.6923    1.1119   -0.3749 C   0  0  0  0  0  0  0  0  0  0  0  0
   -5.8585    1.1960    0.3966 C   0  0  0  0  0  0  0  0  0  0  0  0
   -6.5026    0.0558    0.9094 C   0  0  0  0  0  0  0  0  0  0  0  0
   -7.6748    0.1922    1.6553 N   0  0  0  0  0  0  0  0  0  0  0  0
   -7.6528    1.1636    2.7770 C   0  0  0  0  0  0  0  0  0  0  0  0
   -7.2197    0.4631    4.0767 C   0  0  0  0  0  0  0  0  0  0  0  0
   -8.0809   -0.6458    4.3889 O   0  0  0  0  0  0  0  0  0  0  0  0
   -8.0655   -1.6100    3.3215 C   0  0  0  0  0  0  0  0  0  0  0  0
   -8.5078   -0.9837    1.9882 C   0  0  0  0  0  0  0  0  0  0  0  0
   -5.9334   -1.1828    0.5762 C   0  0  0  0  0  0  0  0  0  0  0  0
   -4.7649   -1.2802   -0.1952 C   0  0  0  0  0  0  0  0  0  0  0  0
   -1.3363    0.5794    0.3070 C   0  0  0  0  0  0  0  0  0  0  0  0
    1.0836   -1.4652    1.4960 H   0  0  0  0  0  0  0  0  0  0  0  0
   -0.0536   -1.8823    0.2025 H   0  0  0  0  0  0  0  0  0  0  0  0
   -0.6351   -1.5215    1.8401 H   0  0  0  0  0  0  0  0  0  0  0  0
    1.0107    1.7412   -0.1824 H   0  0  0  0  0  0  0  0  0  0  0  0
    1.9947    0.3552    0.2093 H   0  0  0  0  0  0  0  0  0  0  0  0
    1.5700   -0.4884   -3.4599 H   0  0  0  0  0  0  0  0  0  0  0  0
    3.6353   -2.0917   -2.3653 H   0  0  0  0  0  0  0  0  0  0  0  0
    6.0395   -1.8707   -1.9721 H   0  0  0  0  0  0  0  0  0  0  0  0
    7.7633    2.2921   -0.7338 H   0  0  0  0  0  0  0  0  0  0  0  0
    7.7942    2.1726   -2.5192 H   0  0  0  0  0  0  0  0  0  0  0  0
   10.0818    2.4681   -1.5565 H   0  0  0  0  0  0  0  0  0  0  0  0
    9.9466    0.9330   -2.4296 H   0  0  0  0  0  0  0  0  0  0  0  0
    9.7511   -0.9861    0.6173 H   0  0  0  0  0  0  0  0  0  0  0  0
    9.7603   -1.0988   -1.1492 H   0  0  0  0  0  0  0  0  0  0  0  0
    7.4664   -1.4263   -0.2658 H   0  0  0  0  0  0  0  0  0  0  0  0
    7.5396    0.1182    0.6077 H   0  0  0  0  0  0  0  0  0  0  0  0
    5.5773    2.3994   -1.5862 H   0  0  0  0  0  0  0  0  0  0  0  0
    3.1984    2.1806   -2.0161 H   0  0  0  0  0  0  0  0  0  0  0  0
   -3.0999   -0.5980   -2.4992 H   0  0  0  0  0  0  0  0  0  0  0  0
   -4.2437    2.0248   -0.7601 H   0  0  0  0  0  0  0  0  0  0  0  0
   -6.2879    2.1819    0.5576 H   0  0  0  0  0  0  0  0  0  0  0  0
   -8.6740    1.5462    2.9013 H   0  0  0  0  0  0  0  0  0  0  0  0
   -7.0138    2.0325    2.5929 H   0  0  0  0  0  0  0  0  0  0  0  0
   -7.2765    1.1678    4.9129 H   0  0  0  0  0  0  0  0  0  0  0  0
   -6.1857    0.1041    4.0109 H   0  0  0  0  0  0  0  0  0  0  0  0
   -8.7538   -2.4151    3.5969 H   0  0  0  0  0  0  0  0  0  0  0  0
   -7.0606   -2.0410    3.2538 H   0  0  0  0  0  0  0  0  0  0  0  0
   -8.5283   -1.7240    1.1811 H   0  0  0  0  0  0  0  0  0  0  0  0
   -9.5409   -0.6282    2.0984 H   0  0  0  0  0  0  0  0  0  0  0  0
   -6.3752   -2.1149    0.9140 H   0  0  0  0  0  0  0  0  0  0  0  0
   -4.3609   -2.2641   -0.4227 H   0  0  0  0  0  0  0  0  0  0  0  0
   -2.0726    0.2469    1.0486 H   0  0  0  0  0  0  0  0  0  0  0  0
   -1.3951    1.6765    0.3147 H   0  0  0  0  0  0  0  0  0  0  0  0
  1  2  1  0
  2  3  1  0
  3  4  1  0
  4  5  2  3
  5  6  1  0
  6  7  2  0
  7  8  1  0
  8  9  2  0
  9 10  1  0
 10 11  1  0
 11 12  1  0
 12 13  1  0
 13 14  1  0
 14 15  1  0
  9 16  1  0
 16 17  2  0
  4 18  1  0
 18 19  2  0
 18 20  1  0
 20 21  2  3
 21 22  1  0
 22 23  2  0
 23 24  1  0
 24 25  2  0
 25 26  1  0
 26 27  1  0
 27 28  1  0
 28 29  1  0
 29 30  1  0
 30 31  1  0
 25 32  1  0
 32 33  2  0
 20 34  1  0
 34  2  1  0
 17  6  1  0
 33 22  1  0
 15 10  1  0
 31 26  1  0
  1 35  1  0
  1 36  1  0
  1 37  1  0
  3 38  1  0
  3 39  1  0
  5 40  1  0
  7 41  1  0
  8 42  1  0
 11 43  1  0
 11 44  1  0
 12 45  1  0
 12 46  1  0
 14 47  1  0
 14 48  1  0
 15 49  1  0
 15 50  1  0
 16 51  1  0
 17 52  1  0
 21 53  1  0
 23 54  1  0
 24 55  1  0
 27 56  1  0
 27 57  1  0
 28 58  1  0
 28 59  1  0
 30 60  1  0
 30 61  1  0
 31 62  1  0
 31 63  1  0
 32 64  1  0
 33 65  1  0
 34 66  1  0
 34 67  1  0
M  END
$$$$
