
     RDKit          3D

 33 35  0  0  0  0  0  0  0  0999 V2000
    4.1763    1.6550   -0.8202 C   0  0  0  0  0  0  0  0  0  0  0  0
    3.3907    0.5709   -0.1995 C   0  0  0  0  0  0  0  0  0  0  0  0
    3.6691   -0.3733    0.7583 C   0  0  0  0  0  0  0  0  0  0  0  0
    2.4851   -1.1324    0.9133 C   0  0  0  0  0  0  0  0  0  0  0  0
    1.5338   -0.6270    0.0318 C   0  0  0  0  0  0  0  0  0  0  0  0
    0.1714   -1.0323   -0.1957 C   0  0  0  0  0  0  0  0  0  0  0  0
   -0.9580   -0.1256    0.0888 C   0  0  0  0  0  0  0  0  0  0  0  0
   -2.2192   -0.5145   -0.1723 C   0  0  0  0  0  0  0  0  0  0  0  0
   -2.4524   -1.7633   -0.6872 N   0  0  0  0  0  0  0  0  0  0  0  0
   -1.4770   -2.6868   -0.9794 C   0  0  0  0  0  0  0  0  0  0  0  0
   -1.9999   -4.1633   -1.5893 S   0  0  0  0  0  0  0  0  0  0  0  0
   -0.0582   -2.2642   -0.7187 C   0  0  0  0  0  0  0  0  0  0  0  0
    0.9953   -3.1721   -1.0493 C   0  0  0  0  0  0  0  0  0  0  0  0
    1.8625   -3.9043   -1.2956 N   0  0  0  0  0  0  0  0  0  0  0  0
   -3.4295    0.3535    0.0581 C   0  0  0  0  0  0  0  0  0  0  0  0
   -3.0791    1.8218    0.2943 C   0  0  0  0  0  0  0  0  0  0  0  0
   -1.8975    1.9472    1.2456 C   0  0  0  0  0  0  0  0  0  0  0  0
   -0.6620    1.2354    0.6867 C   0  0  0  0  0  0  0  0  0  0  0  0
    2.1108    0.4326   -0.6331 O   0  0  0  0  0  0  0  0  0  0  0  0
    5.1880    1.6946   -0.4049 H   0  0  0  0  0  0  0  0  0  0  0  0
    4.2568    1.4991   -1.9003 H   0  0  0  0  0  0  0  0  0  0  0  0
    3.6975    2.6232   -0.6448 H   0  0  0  0  0  0  0  0  0  0  0  0
    4.6076   -0.5019    1.2794 H   0  0  0  0  0  0  0  0  0  0  0  0
    2.3383   -1.9640    1.5896 H   0  0  0  0  0  0  0  0  0  0  0  0
   -3.4093   -2.0502   -0.8754 H   0  0  0  0  0  0  0  0  0  0  0  0
   -4.1087    0.2915   -0.8010 H   0  0  0  0  0  0  0  0  0  0  0  0
   -3.9751   -0.0349    0.9275 H   0  0  0  0  0  0  0  0  0  0  0  0
   -2.8326    2.3019   -0.6613 H   0  0  0  0  0  0  0  0  0  0  0  0
   -3.9496    2.3487    0.7010 H   0  0  0  0  0  0  0  0  0  0  0  0
   -1.6653    3.0037    1.4211 H   0  0  0  0  0  0  0  0  0  0  0  0
   -2.1635    1.5137    2.2183 H   0  0  0  0  0  0  0  0  0  0  0  0
   -0.2112    1.8676   -0.0889 H   0  0  0  0  0  0  0  0  0  0  0  0
    0.0649    1.1497    1.5033 H   0  0  0  0  0  0  0  0  0  0  0  0
  1  2  1  0
  2  3  2  0
  3  4  1  0
  4  5  2  0
  5  6  1  0
  6  7  1  0
  7  8  2  0
  8  9  1  0
  9 10  1  0
 10 11  2  0
 10 12  1  0
 12 13  1  0
 13 14  3  0
  8 15  1  0
 15 16  1  0
 16 17  1  0
 17 18  1  0
  5 19  1  0
 19  2  1  0
 12  6  2  0
 18  7  1  0
  1 20  1  0
  1 21  1  0
  1 22  1  0
  3 23  1  0
  4 24  1  0
  9 25  1  0
 15 26  1  0
 15 27  1  0
 16 28  1  0
 16 29  1  0
 17 30  1  0
 17 31  1  0
 18 32  1  0
 18 33  1  0
M  END
$$$$
