
     RDKit          3D

 42 44  0  0  0  0  0  0  0  0999 V2000
   -6.9045   -0.3229    0.1516 C   0  0  0  0  0  0  0  0  0  0  0  0
   -5.4587    0.0703    0.2270 C   0  0  0  0  0  0  0  0  0  0  0  0
   -4.8913    0.4517    1.4468 C   0  0  0  0  0  0  0  0  0  0  0  0
   -3.5282    0.7786    1.5448 C   0  0  0  0  0  0  0  0  0  0  0  0
   -2.9752    1.1641    2.8918 C   0  0  0  0  0  0  0  0  0  0  0  0
   -2.7227    0.7389    0.3839 C   0  0  0  0  0  0  0  0  0  0  0  0
   -1.3155    1.1106    0.4484 C   0  0  0  0  0  0  0  0  0  0  0  0
   -0.8899    2.4169    0.6015 C   0  0  0  0  0  0  0  0  0  0  0  0
    0.8250    2.4613    0.6188 S   0  0  0  0  0  0  0  0  0  0  0  0
    0.8501    0.7651    0.4076 C   0  0  0  0  0  0  0  0  0  0  0  0
    2.1092    0.2395    0.3380 N   0  0  0  0  0  0  0  0  0  0  0  0
    2.3393   -1.1050    0.2048 C   0  0  0  0  0  0  0  0  0  0  0  0
    1.5266   -2.0185    0.1889 O   0  0  0  0  0  0  0  0  0  0  0  0
    3.7857   -1.4457    0.1450 C   0  0  0  0  0  0  0  0  0  0  0  0
    4.6382   -0.7895   -0.6576 C   0  0  0  0  0  0  0  0  0  0  0  0
    6.0263   -1.1065   -0.7786 C   0  0  0  0  0  0  0  0  0  0  0  0
    6.8897   -0.6727   -1.7743 C   0  0  0  0  0  0  0  0  0  0  0  0
    8.2238   -1.1476   -1.6159 C   0  0  0  0  0  0  0  0  0  0  0  0
    8.3561   -1.9311   -0.4948 C   0  0  0  0  0  0  0  0  0  0  0  0
    6.8853   -2.0814    0.3561 S   0  0  0  0  0  0  0  0  0  0  0  0
   -0.3098    0.1709    0.3237 N   0  0  0  0  0  0  0  0  0  0  0  0
   -3.2822    0.3300   -0.8475 C   0  0  0  0  0  0  0  0  0  0  0  0
   -2.4503    0.2137   -2.0984 C   0  0  0  0  0  0  0  0  0  0  0  0
   -4.6443   -0.0079   -0.9067 C   0  0  0  0  0  0  0  0  0  0  0  0
   -7.0118   -1.3942    0.3472 H   0  0  0  0  0  0  0  0  0  0  0  0
   -7.3189   -0.0999   -0.8373 H   0  0  0  0  0  0  0  0  0  0  0  0
   -7.4993    0.2324    0.8845 H   0  0  0  0  0  0  0  0  0  0  0  0
   -5.5173    0.4822    2.3371 H   0  0  0  0  0  0  0  0  0  0  0  0
   -3.6758    0.9146    3.6962 H   0  0  0  0  0  0  0  0  0  0  0  0
   -2.7903    2.2420    2.9317 H   0  0  0  0  0  0  0  0  0  0  0  0
   -2.0473    0.6225    3.1025 H   0  0  0  0  0  0  0  0  0  0  0  0
   -1.4845    3.3138    0.7006 H   0  0  0  0  0  0  0  0  0  0  0  0
    2.8720    0.8896    0.4410 H   0  0  0  0  0  0  0  0  0  0  0  0
    4.0571   -2.3144    0.7340 H   0  0  0  0  0  0  0  0  0  0  0  0
    4.2685    0.0087   -1.2976 H   0  0  0  0  0  0  0  0  0  0  0  0
    6.5741   -0.0414   -2.5970 H   0  0  0  0  0  0  0  0  0  0  0  0
    9.0415   -0.9268   -2.2910 H   0  0  0  0  0  0  0  0  0  0  0  0
    9.2481   -2.4224   -0.1308 H   0  0  0  0  0  0  0  0  0  0  0  0
   -3.0742    0.0123   -2.9760 H   0  0  0  0  0  0  0  0  0  0  0  0
   -1.9143    1.1475   -2.2966 H   0  0  0  0  0  0  0  0  0  0  0  0
   -1.7351   -0.6094   -2.0037 H   0  0  0  0  0  0  0  0  0  0  0  0
   -5.0752   -0.3397   -1.8499 H   0  0  0  0  0  0  0  0  0  0  0  0
  1  2  1  0
  2  3  2  0
  3  4  1  0
  4  5  1  0
  4  6  2  0
  6  7  1  0
  7  8  2  0
  8  9  1  0
  9 10  1  0
 10 11  1  0
 11 12  1  0
 12 13  2  0
 12 14  1  0
 14 15  2  3
 15 16  1  0
 16 17  2  0
 17 18  1  0
 18 19  2  0
 19 20  1  0
 10 21  2  0
  6 22  1  0
 22 23  1  0
 22 24  2  0
 24  2  1  0
 21  7  1  0
 20 16  1  0
  1 25  1  0
  1 26  1  0
  1 27  1  0
  3 28  1  0
  5 29  1  0
  5 30  1  0
  5 31  1  0
  8 32  1  0
 11 33  1  0
 14 34  1  0
 15 35  1  0
 17 36  1  0
 18 37  1  0
 19 38  1  0
 23 39  1  0
 23 40  1  0
 23 41  1  0
 24 42  1  0
M  END
$$$$
