
     RDKit          3D

 51 54  0  0  0  0  0  0  0  0999 V2000
   -0.0416    1.2554   -1.8622 O   0  0  0  0  0  0  0  0  0  0  0  0
   -0.5416    0.4018   -1.1245 C   0  0  0  0  0  0  0  0  0  0  0  0
    0.3194   -0.6609   -0.5739 C   0  0  0  0  0  0  0  0  0  0  0  0
    1.6484   -0.9446   -0.9997 C   0  0  0  0  0  0  0  0  0  0  0  0
    2.0751   -1.9671   -0.1901 C   0  0  0  0  0  0  0  0  0  0  0  0
    3.3249   -2.7510   -0.0680 C   0  0  0  0  0  0  0  0  0  0  0  0
    4.3145   -1.9320    0.5548 O   0  0  0  0  0  0  0  0  0  0  0  0
    5.1915   -1.2196   -0.2113 C   0  0  0  0  0  0  0  0  0  0  0  0
    5.2390   -1.1718   -1.6034 C   0  0  0  0  0  0  0  0  0  0  0  0
    6.2000   -0.3868   -2.2480 C   0  0  0  0  0  0  0  0  0  0  0  0
    7.1170    0.3562   -1.5056 C   0  0  0  0  0  0  0  0  0  0  0  0
    7.0788    0.3289   -0.1059 C   0  0  0  0  0  0  0  0  0  0  0  0
    8.0762    1.1097    0.7110 C   0  0  0  0  0  0  0  0  0  0  0  0
    9.1722    0.3694    1.0342 F   0  0  0  0  0  0  0  0  0  0  0  0
    8.5489    2.2139    0.0667 F   0  0  0  0  0  0  0  0  0  0  0  0
    7.5672    1.5600    1.8916 F   0  0  0  0  0  0  0  0  0  0  0  0
    6.1142   -0.4708    0.5274 C   0  0  0  0  0  0  0  0  0  0  0  0
    1.0756   -2.2831    0.6756 O   0  0  0  0  0  0  0  0  0  0  0  0
   -0.0133   -1.4673    0.4483 N   0  0  0  0  0  0  0  0  0  0  0  0
   -1.9099    0.4492   -0.8128 N   0  0  0  0  0  0  0  0  0  0  0  0
   -2.6642   -0.6426   -0.1922 C   0  0  0  0  0  0  0  0  0  0  0  0
   -4.1569   -0.5913   -0.5147 C   0  0  0  0  0  0  0  0  0  0  0  0
   -4.8053    0.7724   -0.2073 C   0  0  0  0  0  0  0  0  0  0  0  0
   -5.6295    0.7561    1.0680 C   0  0  0  0  0  0  0  0  0  0  0  0
   -7.0096    0.9826    1.0128 C   0  0  0  0  0  0  0  0  0  0  0  0
   -7.7426    0.9585    2.1905 C   0  0  0  0  0  0  0  0  0  0  0  0
   -7.2053    0.7268    3.4058 N   0  0  0  0  0  0  0  0  0  0  0  0
   -5.8740    0.5120    3.4438 C   0  0  0  0  0  0  0  0  0  0  0  0
   -5.0573    0.5156    2.3221 C   0  0  0  0  0  0  0  0  0  0  0  0
   -3.7879    1.9252   -0.2152 C   0  0  0  0  0  0  0  0  0  0  0  0
   -2.6552    1.6461   -1.1939 C   0  0  0  0  0  0  0  0  0  0  0  0
    2.2010   -0.4441   -1.7808 H   0  0  0  0  0  0  0  0  0  0  0  0
    3.6475   -3.1820   -1.0202 H   0  0  0  0  0  0  0  0  0  0  0  0
    3.1596   -3.6029    0.6021 H   0  0  0  0  0  0  0  0  0  0  0  0
    4.5464   -1.7244   -2.2283 H   0  0  0  0  0  0  0  0  0  0  0  0
    6.2322   -0.3543   -3.3351 H   0  0  0  0  0  0  0  0  0  0  0  0
    7.8602    0.9609   -2.0238 H   0  0  0  0  0  0  0  0  0  0  0  0
    6.0754   -0.5102    1.6165 H   0  0  0  0  0  0  0  0  0  0  0  0
   -2.2730   -1.6016   -0.5467 H   0  0  0  0  0  0  0  0  0  0  0  0
   -2.5051   -0.5791    0.8892 H   0  0  0  0  0  0  0  0  0  0  0  0
   -4.2669   -0.7812   -1.5920 H   0  0  0  0  0  0  0  0  0  0  0  0
   -4.6792   -1.4131   -0.0097 H   0  0  0  0  0  0  0  0  0  0  0  0
   -5.5009    0.9618   -1.0383 H   0  0  0  0  0  0  0  0  0  0  0  0
   -7.5165    1.1758    0.0729 H   0  0  0  0  0  0  0  0  0  0  0  0
   -8.8148    1.1313    2.1846 H   0  0  0  0  0  0  0  0  0  0  0  0
   -5.4625    0.3311    4.4329 H   0  0  0  0  0  0  0  0  0  0  0  0
   -3.9943    0.3386    2.4419 H   0  0  0  0  0  0  0  0  0  0  0  0
   -3.3565    2.0829    0.7814 H   0  0  0  0  0  0  0  0  0  0  0  0
   -4.2947    2.8605   -0.4820 H   0  0  0  0  0  0  0  0  0  0  0  0
   -1.9840    2.5112   -1.2300 H   0  0  0  0  0  0  0  0  0  0  0  0
   -3.0429    1.4879   -2.2072 H   0  0  0  0  0  0  0  0  0  0  0  0
  1  2  2  0
  2  3  1  0
  3  4  1  0
  4  5  2  0
  5  6  1  0
  6  7  1  0
  7  8  1  0
  8  9  2  0
  9 10  1  0
 10 11  2  0
 11 12  1  0
 12 13  1  0
 13 14  1  0
 13 15  1  0
 13 16  1  0
 12 17  2  0
  5 18  1  0
 18 19  1  0
  2 20  1  0
 20 21  1  0
 21 22  1  0
 22 23  1  0
 23 24  1  0
 24 25  2  0
 25 26  1  0
 26 27  2  0
 27 28  1  0
 28 29  2  0
 23 30  1  0
 30 31  1  0
 19  3  2  0
 31 20  1  0
 17  8  1  0
 29 24  1  0
  4 32  1  0
  6 33  1  0
  6 34  1  0
  9 35  1  0
 10 36  1  0
 11 37  1  0
 17 38  1  0
 21 39  1  0
 21 40  1  0
 22 41  1  0
 22 42  1  0
 23 43  1  0
 25 44  1  0
 26 45  1  0
 28 46  1  0
 29 47  1  0
 30 48  1  0
 30 49  1  0
 31 50  1  0
 31 51  1  0
M  END
$$$$
