
     RDKit          3D

 44 46  0  0  0  0  0  0  0  0999 V2000
    1.9289   -1.7939   -2.4503 O   0  0  0  0  0  0  0  0  0  0  0  0
    1.5016   -1.6002   -1.3125 C   0  0  0  0  0  0  0  0  0  0  0  0
    0.3997   -2.4476   -0.6777 C   0  0  0  0  0  0  0  0  0  0  0  0
   -0.2199   -1.8544    0.4669 O   0  0  0  0  0  0  0  0  0  0  0  0
   -1.1724   -0.9210    0.1737 C   0  0  0  0  0  0  0  0  0  0  0  0
   -1.4406   -0.5338   -0.9554 O   0  0  0  0  0  0  0  0  0  0  0  0
   -1.7814   -0.3737    1.4550 C   0  0  0  0  0  0  0  0  0  0  0  0
   -3.1287    0.1114    1.1971 N   0  0  0  0  0  0  0  0  0  0  0  0
   -3.3399    1.4273    0.8661 C   0  0  0  0  0  0  0  0  0  0  0  0
   -4.4916    1.9485    0.6094 N   0  0  0  0  0  0  0  0  0  0  0  0
   -5.6109    1.1040    0.6504 C   0  0  0  0  0  0  0  0  0  0  0  0
   -6.8724    1.6418    0.3865 C   0  0  0  0  0  0  0  0  0  0  0  0
   -8.0114    0.8314    0.4109 C   0  0  0  0  0  0  0  0  0  0  0  0
   -7.8974   -0.5289    0.6991 C   0  0  0  0  0  0  0  0  0  0  0  0
   -6.6443   -1.0797    0.9641 C   0  0  0  0  0  0  0  0  0  0  0  0
   -5.5115   -0.2585    0.9385 C   0  0  0  0  0  0  0  0  0  0  0  0
   -4.1698   -0.8036    1.2166 C   0  0  0  0  0  0  0  0  0  0  0  0
   -4.0145   -2.0008    1.4421 O   0  0  0  0  0  0  0  0  0  0  0  0
    2.0255   -0.6304   -0.4764 N   0  0  0  0  0  0  0  0  0  0  0  0
    3.2143   -0.0022   -0.8922 N   0  0  0  0  0  0  0  0  0  0  0  0
    4.1788    0.2001    0.0777 C   0  0  0  0  0  0  0  0  0  0  0  0
    3.9584   -0.0016    1.2704 O   0  0  0  0  0  0  0  0  0  0  0  0
    5.5212    0.6420   -0.3921 C   0  0  0  0  0  0  0  0  0  0  0  0
    6.6211    0.4300    0.4514 C   0  0  0  0  0  0  0  0  0  0  0  0
    7.9010    0.8284    0.0570 C   0  0  0  0  0  0  0  0  0  0  0  0
    8.0807    1.4469   -1.1786 C   0  0  0  0  0  0  0  0  0  0  0  0
    9.8104    1.9887   -1.7138 Br  0  0  0  0  0  0  0  0  0  0  0  0
    6.9929    1.6757   -2.0205 C   0  0  0  0  0  0  0  0  0  0  0  0
    5.7109    1.2770   -1.6275 C   0  0  0  0  0  0  0  0  0  0  0  0
    0.8606   -3.3838   -0.3454 H   0  0  0  0  0  0  0  0  0  0  0  0
   -0.3492   -2.6995   -1.4377 H   0  0  0  0  0  0  0  0  0  0  0  0
   -1.8190   -1.1663    2.2097 H   0  0  0  0  0  0  0  0  0  0  0  0
   -1.1467    0.4424    1.8150 H   0  0  0  0  0  0  0  0  0  0  0  0
   -2.4315    2.0502    0.8365 H   0  0  0  0  0  0  0  0  0  0  0  0
   -6.9648    2.7006    0.1576 H   0  0  0  0  0  0  0  0  0  0  0  0
   -8.9869    1.2639    0.2018 H   0  0  0  0  0  0  0  0  0  0  0  0
   -8.7837   -1.1586    0.7156 H   0  0  0  0  0  0  0  0  0  0  0  0
   -6.5509   -2.1397    1.1877 H   0  0  0  0  0  0  0  0  0  0  0  0
    1.9322   -0.7399    0.5347 H   0  0  0  0  0  0  0  0  0  0  0  0
    3.4638   -0.1603   -1.8686 H   0  0  0  0  0  0  0  0  0  0  0  0
    6.4851   -0.0491    1.4196 H   0  0  0  0  0  0  0  0  0  0  0  0
    8.7448    0.6541    0.7199 H   0  0  0  0  0  0  0  0  0  0  0  0
    7.1308    2.1696   -2.9796 H   0  0  0  0  0  0  0  0  0  0  0  0
    4.8766    1.4937   -2.2891 H   0  0  0  0  0  0  0  0  0  0  0  0
  1  2  2  0
  2  3  1  0
  3  4  1  0
  4  5  1  0
  5  6  2  0
  5  7  1  0
  7  8  1  0
  8  9  1  0
  9 10  2  0
 10 11  1  0
 11 12  2  0
 12 13  1  0
 13 14  2  0
 14 15  1  0
 15 16  2  0
 16 17  1  0
 17 18  2  0
  2 19  1  0
 19 20  1  0
 20 21  1  0
 21 22  2  0
 21 23  1  0
 23 24  2  0
 24 25  1  0
 25 26  2  0
 26 27  1  0
 26 28  1  0
 28 29  2  0
 17  8  1  0
 29 23  1  0
 16 11  1  0
  3 30  1  0
  3 31  1  0
  7 32  1  0
  7 33  1  0
  9 34  1  0
 12 35  1  0
 13 36  1  0
 14 37  1  0
 15 38  1  0
 19 39  1  0
 20 40  1  0
 24 41  1  0
 25 42  1  0
 28 43  1  0
 29 44  1  0
M  END
$$$$
