
     RDKit          3D

 59 63  0  0  0  0  0  0  0  0999 V2000
   -4.4772   -4.0558   -1.5182 C   0  0  0  0  0  0  0  0  0  0  0  0
   -4.2786   -2.7141   -0.8787 C   0  0  0  0  0  0  0  0  0  0  0  0
   -3.2014   -2.4927   -0.0149 C   0  0  0  0  0  0  0  0  0  0  0  0
   -3.0348   -1.2530    0.6054 C   0  0  0  0  0  0  0  0  0  0  0  0
   -3.9445   -0.2116    0.3778 C   0  0  0  0  0  0  0  0  0  0  0  0
   -3.7404    1.1316    1.0303 C   0  0  0  0  0  0  0  0  0  0  0  0
   -2.6054    1.8136    0.4496 N   0  0  0  0  0  0  0  0  0  0  0  0
   -1.4030    1.9061    1.1136 C   0  0  0  0  0  0  0  0  0  0  0  0
   -1.2750    1.5765    2.2877 O   0  0  0  0  0  0  0  0  0  0  0  0
   -0.3162    2.4144    0.3078 C   0  0  0  0  0  0  0  0  0  0  0  0
   -0.3383    3.2263   -0.8143 C   0  0  0  0  0  0  0  0  0  0  0  0
    1.0120    3.4311   -1.2036 C   0  0  0  0  0  0  0  0  0  0  0  0
    1.5314    4.2234   -2.3268 C   0  0  0  0  0  0  0  0  0  0  0  0
    0.6698    4.8808   -3.2183 C   0  0  0  0  0  0  0  0  0  0  0  0
    1.1785    5.6329   -4.2829 C   0  0  0  0  0  0  0  0  0  0  0  0
    2.5545    5.7381   -4.4712 C   0  0  0  0  0  0  0  0  0  0  0  0
    3.4240    5.0921   -3.5969 C   0  0  0  0  0  0  0  0  0  0  0  0
    2.9156    4.3407   -2.5335 C   0  0  0  0  0  0  0  0  0  0  0  0
    1.8298    2.7724   -0.3693 N   0  0  0  0  0  0  0  0  0  0  0  0
    1.0169    2.1759    0.5260 N   0  0  0  0  0  0  0  0  0  0  0  0
    1.6373    1.3222    1.5276 C   0  0  0  0  0  0  0  0  0  0  0  0
    1.8359   -0.0914    1.0012 C   0  0  0  0  0  0  0  0  0  0  0  0
    2.6901   -0.9352    1.9227 C   0  0  0  0  0  0  0  0  0  0  0  0
    2.0367   -2.2510    1.6690 C   0  0  0  0  0  0  0  0  0  0  0  0
    2.6748   -3.5314    2.0274 C   0  0  0  0  0  0  0  0  0  0  0  0
    2.0652   -4.7384    1.6793 C   0  0  0  0  0  0  0  0  0  0  0  0
    2.6771   -5.9417    2.0234 C   0  0  0  0  0  0  0  0  0  0  0  0
    3.8811   -5.8949    2.7073 C   0  0  0  0  0  0  0  0  0  0  0  0
    4.4971   -4.7458    3.0624 N   0  0  0  0  0  0  0  0  0  0  0  0
    3.8786   -3.5899    2.7168 C   0  0  0  0  0  0  0  0  0  0  0  0
    0.8582   -2.1694    1.1368 N   0  0  0  0  0  0  0  0  0  0  0  0
    0.5840   -0.7939    0.9537 O   0  0  0  0  0  0  0  0  0  0  0  0
   -5.0293   -0.4388   -0.4786 C   0  0  0  0  0  0  0  0  0  0  0  0
   -5.1985   -1.6819   -1.0949 C   0  0  0  0  0  0  0  0  0  0  0  0
   -4.9250   -3.9503   -2.5120 H   0  0  0  0  0  0  0  0  0  0  0  0
   -5.1332   -4.6731   -0.8966 H   0  0  0  0  0  0  0  0  0  0  0  0
   -3.5215   -4.5751   -1.6466 H   0  0  0  0  0  0  0  0  0  0  0  0
   -2.4750   -3.2787    0.1809 H   0  0  0  0  0  0  0  0  0  0  0  0
   -2.1812   -1.1045    1.2661 H   0  0  0  0  0  0  0  0  0  0  0  0
   -3.6255    1.0086    2.1127 H   0  0  0  0  0  0  0  0  0  0  0  0
   -4.6122    1.7741    0.8651 H   0  0  0  0  0  0  0  0  0  0  0  0
   -2.5980    1.8987   -0.5559 H   0  0  0  0  0  0  0  0  0  0  0  0
   -1.2215    3.6382   -1.2798 H   0  0  0  0  0  0  0  0  0  0  0  0
   -0.4084    4.8218   -3.1044 H   0  0  0  0  0  0  0  0  0  0  0  0
    0.4982    6.1366   -4.9649 H   0  0  0  0  0  0  0  0  0  0  0  0
    2.9489    6.3229   -5.2981 H   0  0  0  0  0  0  0  0  0  0  0  0
    4.4987    5.1703   -3.7382 H   0  0  0  0  0  0  0  0  0  0  0  0
    3.6123    3.8442   -1.8606 H   0  0  0  0  0  0  0  0  0  0  0  0
    1.0312    1.3446    2.4350 H   0  0  0  0  0  0  0  0  0  0  0  0
    2.6037    1.7803    1.7728 H   0  0  0  0  0  0  0  0  0  0  0  0
    2.2528   -0.0881   -0.0145 H   0  0  0  0  0  0  0  0  0  0  0  0
    2.5619   -0.6752    2.9785 H   0  0  0  0  0  0  0  0  0  0  0  0
    3.7458   -0.9063    1.6455 H   0  0  0  0  0  0  0  0  0  0  0  0
    1.1190   -4.7477    1.1431 H   0  0  0  0  0  0  0  0  0  0  0  0
    2.2237   -6.8921    1.7640 H   0  0  0  0  0  0  0  0  0  0  0  0
    4.3963   -6.8066    2.9974 H   0  0  0  0  0  0  0  0  0  0  0  0
    4.4103   -2.6989    3.0347 H   0  0  0  0  0  0  0  0  0  0  0  0
   -5.7544    0.3483   -0.6720 H   0  0  0  0  0  0  0  0  0  0  0  0
   -6.0532   -1.8393   -1.7490 H   0  0  0  0  0  0  0  0  0  0  0  0
  1  2  1  0
  2  3  2  0
  3  4  1  0
  4  5  2  0
  5  6  1  0
  6  7  1  0
  7  8  1  0
  8  9  2  0
  8 10  1  0
 10 11  2  0
 11 12  1  0
 12 13  1  0
 13 14  2  0
 14 15  1  0
 15 16  2  0
 16 17  1  0
 17 18  2  0
 12 19  2  0
 19 20  1  0
 20 21  1  0
 21 22  1  0
 22 23  1  0
 23 24  1  0
 24 25  1  0
 25 26  2  0
 26 27  1  0
 27 28  2  0
 28 29  1  0
 29 30  2  0
 24 31  2  0
 31 32  1  0
  5 33  1  0
 33 34  2  0
 34  2  1  0
 20 10  1  0
 32 22  1  0
 18 13  1  0
 30 25  1  0
  1 35  1  0
  1 36  1  0
  1 37  1  0
  3 38  1  0
  4 39  1  0
  6 40  1  0
  6 41  1  0
  7 42  1  0
 11 43  1  0
 14 44  1  0
 15 45  1  0
 16 46  1  0
 17 47  1  0
 18 48  1  0
 21 49  1  0
 21 50  1  0
 22 51  1  0
 23 52  1  0
 23 53  1  0
 26 54  1  0
 27 55  1  0
 28 56  1  0
 30 57  1  0
 33 58  1  0
 34 59  1  0
M  END
$$$$
