
     RDKit          3D

 55 57  0  0  0  0  0  0  0  0999 V2000
   -9.7593   -0.9483    1.3024 C   0  0  0  0  0  0  0  0  0  0  0  0
   -8.7051   -1.2157    0.3893 O   0  0  0  0  0  0  0  0  0  0  0  0
   -7.4245   -0.9203    0.7880 C   0  0  0  0  0  0  0  0  0  0  0  0
   -7.0907   -0.3646    2.0280 C   0  0  0  0  0  0  0  0  0  0  0  0
   -5.7565   -0.0992    2.3481 C   0  0  0  0  0  0  0  0  0  0  0  0
   -4.7424   -0.3812    1.4313 C   0  0  0  0  0  0  0  0  0  0  0  0
   -3.3480   -0.1103    1.7950 C   0  0  0  0  0  0  0  0  0  0  0  0
   -2.5570    0.8156    1.2358 C   0  0  0  0  0  0  0  0  0  0  0  0
   -2.9424    1.9258   -0.0154 S   0  0  0  0  0  0  0  0  0  0  0  0
   -1.3293    2.6291   -0.0199 C   0  0  0  0  0  0  0  0  0  0  0  0
   -0.8985    3.8528   -1.0694 S   0  0  0  0  0  0  0  0  0  0  0  0
   -0.5517    2.0208    0.9447 N   0  0  0  0  0  0  0  0  0  0  0  0
    0.8619    2.3111    1.1842 C   0  0  0  0  0  0  0  0  0  0  0  0
    1.7649    1.4147    0.3359 C   0  0  0  0  0  0  0  0  0  0  0  0
    3.2423    1.6739    0.6224 C   0  0  0  0  0  0  0  0  0  0  0  0
    4.1494    0.7973   -0.2281 C   0  0  0  0  0  0  0  0  0  0  0  0
    3.7031    0.0342   -1.0757 O   0  0  0  0  0  0  0  0  0  0  0  0
    5.4845    0.9904    0.0880 N   0  0  0  0  0  0  0  0  0  0  0  0
    6.6055    0.3554   -0.4878 C   0  0  0  0  0  0  0  0  0  0  0  0
    7.8635    0.6970    0.0310 C   0  0  0  0  0  0  0  0  0  0  0  0
    9.0290    0.1172   -0.4751 C   0  0  0  0  0  0  0  0  0  0  0  0
    8.9498   -0.8155   -1.5074 C   0  0  0  0  0  0  0  0  0  0  0  0
    7.7018   -1.1687   -2.0328 C   0  0  0  0  0  0  0  0  0  0  0  0
    7.5705   -2.1622   -3.1268 C   0  0  0  0  0  0  0  0  0  0  0  0
    6.5372   -2.5033   -3.6715 O   0  0  0  0  0  0  0  0  0  0  0  0
    8.7519   -2.6964   -3.4891 O   0  0  0  0  0  0  0  0  0  0  0  0
    6.5329   -0.5791   -1.5242 C   0  0  0  0  0  0  0  0  0  0  0  0
   -1.1502    1.0071    1.6748 C   0  0  0  0  0  0  0  0  0  0  0  0
   -0.6179    0.3463    2.5572 O   0  0  0  0  0  0  0  0  0  0  0  0
   -5.0698   -0.9439    0.1909 C   0  0  0  0  0  0  0  0  0  0  0  0
   -6.4043   -1.2096   -0.1409 C   0  0  0  0  0  0  0  0  0  0  0  0
   -6.8124   -1.7537   -1.3349 O   0  0  0  0  0  0  0  0  0  0  0  0
   -5.8250   -1.9724   -2.3319 C   0  0  0  0  0  0  0  0  0  0  0  0
  -10.6982   -1.2517    0.8281 H   0  0  0  0  0  0  0  0  0  0  0  0
   -9.8293    0.1229    1.5213 H   0  0  0  0  0  0  0  0  0  0  0  0
   -9.6464   -1.5351    2.2210 H   0  0  0  0  0  0  0  0  0  0  0  0
   -7.8458   -0.1256    2.7689 H   0  0  0  0  0  0  0  0  0  0  0  0
   -5.5203    0.3341    3.3177 H   0  0  0  0  0  0  0  0  0  0  0  0
   -2.9634   -0.7327    2.6020 H   0  0  0  0  0  0  0  0  0  0  0  0
    1.0678    3.3656    0.9737 H   0  0  0  0  0  0  0  0  0  0  0  0
    1.0782    2.1496    2.2474 H   0  0  0  0  0  0  0  0  0  0  0  0
    1.5573    1.5763   -0.7292 H   0  0  0  0  0  0  0  0  0  0  0  0
    1.5328    0.3604    0.5340 H   0  0  0  0  0  0  0  0  0  0  0  0
    3.4561    1.4715    1.6783 H   0  0  0  0  0  0  0  0  0  0  0  0
    3.4857    2.7224    0.4140 H   0  0  0  0  0  0  0  0  0  0  0  0
    5.6839    1.6536    0.8264 H   0  0  0  0  0  0  0  0  0  0  0  0
    7.9559    1.4205    0.8377 H   0  0  0  0  0  0  0  0  0  0  0  0
    9.9978    0.3916   -0.0642 H   0  0  0  0  0  0  0  0  0  0  0  0
    9.8635   -1.2622   -1.8930 H   0  0  0  0  0  0  0  0  0  0  0  0
    8.5058   -3.3274   -4.1980 H   0  0  0  0  0  0  0  0  0  0  0  0
    5.5793   -0.8714   -1.9569 H   0  0  0  0  0  0  0  0  0  0  0  0
   -4.2666   -1.1720   -0.5022 H   0  0  0  0  0  0  0  0  0  0  0  0
   -6.3299   -2.3605   -3.2227 H   0  0  0  0  0  0  0  0  0  0  0  0
   -5.3293   -1.0368   -2.6123 H   0  0  0  0  0  0  0  0  0  0  0  0
   -5.0983   -2.7250   -2.0080 H   0  0  0  0  0  0  0  0  0  0  0  0
  1  2  1  0
  2  3  1  0
  3  4  2  0
  4  5  1  0
  5  6  2  0
  6  7  1  0
  7  8  2  3
  8  9  1  0
  9 10  1  0
 10 11  2  0
 10 12  1  0
 12 13  1  0
 13 14  1  0
 14 15  1  0
 15 16  1  0
 16 17  2  0
 16 18  1  0
 18 19  1  0
 19 20  2  0
 20 21  1  0
 21 22  2  0
 22 23  1  0
 23 24  1  0
 24 25  2  0
 24 26  1  0
 23 27  2  0
 12 28  1  0
 28 29  2  0
  6 30  1  0
 30 31  2  0
 31 32  1  0
 32 33  1  0
 31  3  1  0
 28  8  1  0
 27 19  1  0
  1 34  1  0
  1 35  1  0
  1 36  1  0
  4 37  1  0
  5 38  1  0
  7 39  1  0
 13 40  1  0
 13 41  1  0
 14 42  1  0
 14 43  1  0
 15 44  1  0
 15 45  1  0
 18 46  1  0
 20 47  1  0
 21 48  1  0
 22 49  1  0
 26 50  1  0
 27 51  1  0
 30 52  1  0
 33 53  1  0
 33 54  1  0
 33 55  1  0
M  END
$$$$
