
     RDKit          3D

 53 55  0  0  0  0  0  0  0  0999 V2000
    6.1110   -3.5545    3.2281 C   0  0  0  0  0  0  0  0  0  0  0  0
    6.1132   -2.4638    2.3156 O   0  0  0  0  0  0  0  0  0  0  0  0
    5.0060   -2.3151    1.5263 C   0  0  0  0  0  0  0  0  0  0  0  0
    3.8668   -3.1159    1.5527 C   0  0  0  0  0  0  0  0  0  0  0  0
    2.8013   -2.8494    0.6858 C   0  0  0  0  0  0  0  0  0  0  0  0
    2.8577   -1.7786   -0.2196 C   0  0  0  0  0  0  0  0  0  0  0  0
    1.7951   -1.4979   -1.0958 C   0  0  0  0  0  0  0  0  0  0  0  0
    1.8472   -0.4208   -2.0010 C   0  0  0  0  0  0  0  0  0  0  0  0
    0.6408   -0.1675   -2.8993 C   0  0  0  0  0  0  0  0  0  0  0  0
    0.8372    0.8719   -4.0068 C   0  0  0  0  0  0  0  0  0  0  0  0
   -0.6103    0.2028   -2.0881 C   0  0  0  0  0  0  0  0  0  0  0  0
   -1.6419   -0.4571   -2.1964 O   0  0  0  0  0  0  0  0  0  0  0  0
   -0.4434    1.3128   -1.2742 N   0  0  0  0  0  0  0  0  0  0  0  0
   -1.4289    1.9417   -0.4891 C   0  0  0  0  0  0  0  0  0  0  0  0
   -0.9949    2.8578    0.4787 C   0  0  0  0  0  0  0  0  0  0  0  0
   -1.9115    3.5143    1.3053 C   0  0  0  0  0  0  0  0  0  0  0  0
   -3.2743    3.2625    1.1708 C   0  0  0  0  0  0  0  0  0  0  0  0
   -3.7089    2.3542    0.2025 C   0  0  0  0  0  0  0  0  0  0  0  0
   -5.4516    2.0548   -0.0122 S   0  0  0  0  0  6  0  0  0  0  0  0
   -5.6945    1.9046   -1.4309 O   0  0  0  0  0  0  0  0  0  0  0  0
   -6.1583    3.0579    0.7585 O   0  0  0  0  0  0  0  0  0  0  0  0
   -5.6891    0.5511    0.7489 N   0  0  0  0  0  0  0  0  0  0  0  0
   -5.5231    0.5178    2.2115 C   0  0  0  0  0  0  0  0  0  0  0  0
   -5.1403   -0.6399    0.0750 C   0  0  0  0  0  0  0  0  0  0  0  0
   -2.7957    1.7128   -0.6423 C   0  0  0  0  0  0  0  0  0  0  0  0
    3.0009    0.3719   -2.0204 C   0  0  0  0  0  0  0  0  0  0  0  0
    4.0662    0.1026   -1.1553 C   0  0  0  0  0  0  0  0  0  0  0  0
    4.0082   -0.9660   -0.2492 C   0  0  0  0  0  0  0  0  0  0  0  0
    5.0697   -1.2464    0.6272 C   0  0  0  0  0  0  0  0  0  0  0  0
    5.3080   -3.4504    3.9653 H   0  0  0  0  0  0  0  0  0  0  0  0
    7.0624   -3.5402    3.7684 H   0  0  0  0  0  0  0  0  0  0  0  0
    6.0423   -4.5115    2.7001 H   0  0  0  0  0  0  0  0  0  0  0  0
    3.7718   -3.9555    2.2330 H   0  0  0  0  0  0  0  0  0  0  0  0
    1.9223   -3.4896    0.7239 H   0  0  0  0  0  0  0  0  0  0  0  0
    0.9067   -2.1301   -1.0720 H   0  0  0  0  0  0  0  0  0  0  0  0
    0.4232   -1.1214   -3.4008 H   0  0  0  0  0  0  0  0  0  0  0  0
    1.6677    0.5947   -4.6652 H   0  0  0  0  0  0  0  0  0  0  0  0
   -0.0657    0.9498   -4.6232 H   0  0  0  0  0  0  0  0  0  0  0  0
    1.0381    1.8714   -3.6054 H   0  0  0  0  0  0  0  0  0  0  0  0
    0.5119    1.6153   -1.1205 H   0  0  0  0  0  0  0  0  0  0  0  0
    0.0643    3.0666    0.6107 H   0  0  0  0  0  0  0  0  0  0  0  0
   -1.5605    4.2232    2.0517 H   0  0  0  0  0  0  0  0  0  0  0  0
   -3.9857    3.7814    1.8098 H   0  0  0  0  0  0  0  0  0  0  0  0
   -5.9446   -0.4111    2.6097 H   0  0  0  0  0  0  0  0  0  0  0  0
   -6.0626    1.3404    2.6889 H   0  0  0  0  0  0  0  0  0  0  0  0
   -4.4662    0.5644    2.4887 H   0  0  0  0  0  0  0  0  0  0  0  0
   -5.2917   -0.5942   -1.0066 H   0  0  0  0  0  0  0  0  0  0  0  0
   -5.6679   -1.5315    0.4300 H   0  0  0  0  0  0  0  0  0  0  0  0
   -4.0754   -0.7615    0.2910 H   0  0  0  0  0  0  0  0  0  0  0  0
   -3.1735    1.0551   -1.4195 H   0  0  0  0  0  0  0  0  0  0  0  0
    3.1044    1.2095   -2.7057 H   0  0  0  0  0  0  0  0  0  0  0  0
    4.9507    0.7356   -1.1972 H   0  0  0  0  0  0  0  0  0  0  0  0
    5.9655   -0.6289    0.6150 H   0  0  0  0  0  0  0  0  0  0  0  0
  1  2  1  0
  2  3  1  0
  3  4  2  0
  4  5  1  0
  5  6  2  0
  6  7  1  0
  7  8  2  0
  8  9  1  0
  9 10  1  0
  9 11  1  0
 11 12  2  0
 11 13  1  0
 13 14  1  0
 14 15  2  0
 15 16  1  0
 16 17  2  0
 17 18  1  0
 18 19  1  0
 19 20  2  0
 19 21  2  0
 19 22  1  0
 22 23  1  0
 22 24  1  0
 18 25  2  0
  8 26  1  0
 26 27  2  0
 27 28  1  0
 28 29  2  0
 29  3  1  0
 28  6  1  0
 25 14  1  0
  1 30  1  0
  1 31  1  0
  1 32  1  0
  4 33  1  0
  5 34  1  0
  7 35  1  0
  9 36  1  0
 10 37  1  0
 10 38  1  0
 10 39  1  0
 13 40  1  0
 15 41  1  0
 16 42  1  0
 17 43  1  0
 23 44  1  0
 23 45  1  0
 23 46  1  0
 24 47  1  0
 24 48  1  0
 24 49  1  0
 25 50  1  0
 26 51  1  0
 27 52  1  0
 29 53  1  0
M  END
$$$$
