
     RDKit          3D

 39 41  0  0  0  0  0  0  0  0999 V2000
    2.3121    3.4183    0.1326 C   0  0  0  0  0  0  0  0  0  0  0  0
    1.7842    2.6076   -1.0214 C   0  0  0  0  0  0  0  0  0  0  0  0
    2.3656    2.5663   -2.1053 O   0  0  0  0  0  0  0  0  0  0  0  0
    0.5326    1.8454   -0.8010 C   0  0  0  0  0  0  0  0  0  0  0  0
    0.6032    0.6551   -0.1627 C   0  0  0  0  0  0  0  0  0  0  0  0
    1.8026    0.0760    0.2579 N   0  0  0  0  0  0  0  0  0  0  0  0
    2.7033   -0.5645   -0.7393 C   0  0  0  0  0  0  0  0  0  0  0  0
    3.9871   -1.0655   -0.0644 C   0  0  0  0  0  0  0  0  0  0  0  0
    3.7461   -2.0524    0.9508 O   0  0  0  0  0  0  0  0  0  0  0  0
    2.4828   -1.8955    1.6105 C   0  0  0  0  0  0  0  0  0  0  0  0
    1.9761   -0.4474    1.6334 C   0  0  0  0  0  0  0  0  0  0  0  0
   -0.5768   -0.0099    0.0736 N   0  0  0  0  0  0  0  0  0  0  0  0
   -1.7768    0.4157   -0.4357 C   0  0  0  0  0  0  0  0  0  0  0  0
   -2.9867   -0.4548   -0.2983 C   0  0  0  0  0  0  0  0  0  0  0  0
   -4.0472   -0.3066   -1.2011 C   0  0  0  0  0  0  0  0  0  0  0  0
   -5.1794   -1.1162   -1.0941 C   0  0  0  0  0  0  0  0  0  0  0  0
   -5.2602   -2.0717   -0.0823 C   0  0  0  0  0  0  0  0  0  0  0  0
   -4.2135   -2.2156    0.8280 C   0  0  0  0  0  0  0  0  0  0  0  0
   -3.0778   -1.4082    0.7241 C   0  0  0  0  0  0  0  0  0  0  0  0
   -1.9044    1.5531   -1.0501 N   0  0  0  0  0  0  0  0  0  0  0  0
   -0.8112    2.3911   -1.1884 C   0  0  0  0  0  0  0  0  0  0  0  0
   -1.0393    3.9681   -1.7653 S   0  0  0  0  0  0  0  0  0  0  0  0
    2.4538    4.4531   -0.1904 H   0  0  0  0  0  0  0  0  0  0  0  0
    3.2634    2.9945    0.4647 H   0  0  0  0  0  0  0  0  0  0  0  0
    1.6116    3.4130    0.9725 H   0  0  0  0  0  0  0  0  0  0  0  0
    2.1734   -1.4109   -1.1935 H   0  0  0  0  0  0  0  0  0  0  0  0
    2.9658    0.1382   -1.5342 H   0  0  0  0  0  0  0  0  0  0  0  0
    4.6535   -1.5160   -0.8068 H   0  0  0  0  0  0  0  0  0  0  0  0
    4.5275   -0.2323    0.3999 H   0  0  0  0  0  0  0  0  0  0  0  0
    2.5979   -2.2710    2.6321 H   0  0  0  0  0  0  0  0  0  0  0  0
    1.7594   -2.5442    1.1028 H   0  0  0  0  0  0  0  0  0  0  0  0
    1.0411   -0.3916    2.2023 H   0  0  0  0  0  0  0  0  0  0  0  0
    2.7076    0.1914    2.1421 H   0  0  0  0  0  0  0  0  0  0  0  0
   -0.4565   -0.9855    0.3073 H   0  0  0  0  0  0  0  0  0  0  0  0
   -3.9965    0.4378   -1.9934 H   0  0  0  0  0  0  0  0  0  0  0  0
   -5.9986   -0.9971   -1.7991 H   0  0  0  0  0  0  0  0  0  0  0  0
   -6.1450   -2.6983    0.0018 H   0  0  0  0  0  0  0  0  0  0  0  0
   -4.2885   -2.9514    1.6251 H   0  0  0  0  0  0  0  0  0  0  0  0
   -2.2928   -1.5185    1.4654 H   0  0  0  0  0  0  0  0  0  0  0  0
  1  2  1  0
  2  3  2  0
  2  4  1  0
  4  5  2  0
  5  6  1  0
  6  7  1  0
  7  8  1  0
  8  9  1  0
  9 10  1  0
 10 11  1  0
  5 12  1  0
 12 13  1  0
 13 14  1  0
 14 15  2  0
 15 16  1  0
 16 17  2  0
 17 18  1  0
 18 19  2  0
 13 20  2  0
 20 21  1  0
 21 22  2  0
 21  4  1  0
 11  6  1  0
 19 14  1  0
  1 23  1  0
  1 24  1  0
  1 25  1  0
  7 26  1  0
  7 27  1  0
  8 28  1  0
  8 29  1  0
 10 30  1  0
 10 31  1  0
 11 32  1  0
 11 33  1  0
 12 34  1  0
 15 35  1  0
 16 36  1  0
 17 37  1  0
 18 38  1  0
 19 39  1  0
M  END
$$$$
