
     RDKit          3D

 43 46  0  0  0  0  0  0  0  0999 V2000
    4.8379   -0.2823    2.4395 C   0  0  0  0  0  0  0  0  0  0  0  0
    4.0697   -1.4640    2.6229 O   0  0  0  0  0  0  0  0  0  0  0  0
    2.9373   -1.5063    1.8359 C   0  0  0  0  0  0  0  0  0  0  0  0
    2.6214   -0.4606    1.0769 N   0  0  0  0  0  0  0  0  0  0  0  0
    1.5157   -0.5974    0.3585 C   0  0  0  0  0  0  0  0  0  0  0  0
    1.2065    0.4869   -0.4381 N   0  0  0  0  0  0  0  0  0  0  0  0
   -0.1668    0.8295   -0.8095 C   0  0  0  0  0  0  0  0  0  0  0  0
   -0.7644   -0.1686   -1.8298 C   0  0  0  0  0  0  0  0  0  0  0  0
   -2.1739    0.2797   -2.2585 C   0  0  0  0  0  0  0  0  0  0  0  0
   -2.0880    1.6600   -2.9270 C   0  0  0  0  0  0  0  0  0  0  0  0
   -1.5077    2.6833   -1.9396 C   0  0  0  0  0  0  0  0  0  0  0  0
   -2.4168    2.7718   -0.7040 C   0  0  0  0  0  0  0  0  0  0  0  0
   -2.5066    1.3988   -0.0198 C   0  0  0  0  0  0  0  0  0  0  0  0
   -3.0759    0.3725   -1.0150 C   0  0  0  0  0  0  0  0  0  0  0  0
   -1.0990    0.9550    0.4186 C   0  0  0  0  0  0  0  0  0  0  0  0
   -0.1081    2.2230   -1.5028 C   0  0  0  0  0  0  0  0  0  0  0  0
    0.7536   -1.6768    0.3794 N   0  0  0  0  0  0  0  0  0  0  0  0
    1.1653   -2.6539    1.1767 C   0  0  0  0  0  0  0  0  0  0  0  0
    0.3452   -3.7634    1.1835 O   0  0  0  0  0  0  0  0  0  0  0  0
    0.8252   -4.8110    2.0160 C   0  0  0  0  0  0  0  0  0  0  0  0
    2.2492   -2.6312    1.9370 N   0  0  0  0  0  0  0  0  0  0  0  0
    5.1865   -0.1895    1.4049 H   0  0  0  0  0  0  0  0  0  0  0  0
    4.2778    0.6076    2.7472 H   0  0  0  0  0  0  0  0  0  0  0  0
    5.7213   -0.3556    3.0812 H   0  0  0  0  0  0  0  0  0  0  0  0
    1.7690    1.2608   -0.1011 H   0  0  0  0  0  0  0  0  0  0  0  0
   -0.1128   -0.2489   -2.7097 H   0  0  0  0  0  0  0  0  0  0  0  0
   -0.8379   -1.1773   -1.4105 H   0  0  0  0  0  0  0  0  0  0  0  0
   -2.5921   -0.4462   -2.9648 H   0  0  0  0  0  0  0  0  0  0  0  0
   -1.4581    1.6041   -3.8233 H   0  0  0  0  0  0  0  0  0  0  0  0
   -3.0839    1.9799   -3.2572 H   0  0  0  0  0  0  0  0  0  0  0  0
   -1.4415    3.6654   -2.4210 H   0  0  0  0  0  0  0  0  0  0  0  0
   -3.4179    3.1102   -0.9985 H   0  0  0  0  0  0  0  0  0  0  0  0
   -2.0232    3.5161   -0.0010 H   0  0  0  0  0  0  0  0  0  0  0  0
   -3.1609    1.4659    0.8566 H   0  0  0  0  0  0  0  0  0  0  0  0
   -4.0909    0.6642   -1.3117 H   0  0  0  0  0  0  0  0  0  0  0  0
   -3.1549   -0.6108   -0.5351 H   0  0  0  0  0  0  0  0  0  0  0  0
   -1.1819    0.0008    0.9520 H   0  0  0  0  0  0  0  0  0  0  0  0
   -0.6868    1.6750    1.1377 H   0  0  0  0  0  0  0  0  0  0  0  0
    0.5578    2.1832   -2.3755 H   0  0  0  0  0  0  0  0  0  0  0  0
    0.3259    2.9672   -0.8213 H   0  0  0  0  0  0  0  0  0  0  0  0
    1.8022   -5.1734    1.6776 H   0  0  0  0  0  0  0  0  0  0  0  0
    0.8628   -4.4995    3.0657 H   0  0  0  0  0  0  0  0  0  0  0  0
    0.1197   -5.6444    1.9433 H   0  0  0  0  0  0  0  0  0  0  0  0
  1  2  1  0
  2  3  1  0
  3  4  2  0
  4  5  1  0
  5  6  1  0
  6  7  1  0
  7  8  1  0
  8  9  1  0
  9 10  1  0
 10 11  1  0
 11 12  1  0
 12 13  1  0
 13 14  1  0
 13 15  1  0
 11 16  1  0
  5 17  2  0
 17 18  1  0
 18 19  1  0
 19 20  1  0
 18 21  2  0
 21  3  1  0
 15  7  1  0
 16  7  1  0
 14  9  1  0
  1 22  1  0
  1 23  1  0
  1 24  1  0
  6 25  1  0
  8 26  1  0
  8 27  1  0
  9 28  1  0
 10 29  1  0
 10 30  1  0
 11 31  1  0
 12 32  1  0
 12 33  1  0
 13 34  1  0
 14 35  1  0
 14 36  1  0
 15 37  1  0
 15 38  1  0
 16 39  1  0
 16 40  1  0
 20 41  1  0
 20 42  1  0
 20 43  1  0
M  END
$$$$
