
     RDKit          3D

 52 53  0  0  0  0  0  0  0  0999 V2000
    5.0906    0.3815    1.6819 C   0  0  0  0  0  0  0  0  0  0  0  0
    4.9478    0.1506    0.1657 C   0  0  0  0  0  0  0  0  0  0  0  0
    5.4702    1.4087   -0.5630 C   0  0  0  0  0  0  0  0  0  0  0  0
    5.8733   -1.0211   -0.2310 C   0  0  0  0  0  0  0  0  0  0  0  0
    3.4640   -0.1546   -0.2665 C   0  0  0  0  0  0  0  0  0  0  0  0
    2.4864    1.0109    0.0081 C   0  0  0  0  0  0  0  0  0  0  0  0
    1.0701    0.7028   -0.4740 C   0  0  0  0  0  0  0  0  0  0  0  0
    0.5293   -0.5853    0.1437 C   0  0  0  0  0  0  0  0  0  0  0  0
   -0.7464   -0.9130   -0.4463 O   0  0  0  0  0  0  0  0  0  0  0  0
   -1.8342   -0.2906    0.0798 C   0  0  0  0  0  0  0  0  0  0  0  0
   -1.8245    0.5147    1.0010 O   0  0  0  0  0  0  0  0  0  0  0  0
   -3.0919   -0.7313   -0.6685 C   0  0  0  0  0  0  0  0  0  0  0  0
   -4.4522   -0.2222   -0.0815 N   0  0  0  0  0  4  0  0  0  0  0  0
   -4.6786   -0.8252    1.2996 C   0  0  0  0  0  0  0  0  0  0  0  0
   -5.6106   -0.6047   -1.0231 C   0  0  0  0  0  0  0  0  0  0  0  0
   -6.0372    0.7011   -1.6645 C   0  0  0  0  0  0  0  0  0  0  0  0
   -5.8225    1.7135   -0.5611 C   0  0  0  0  0  0  0  0  0  0  0  0
   -4.4686    1.3218   -0.0021 C   0  0  0  0  0  0  0  0  0  0  0  0
    1.4775   -1.7476   -0.1403 C   0  0  0  0  0  0  0  0  0  0  0  0
    2.8957   -1.4556    0.3449 C   0  0  0  0  0  0  0  0  0  0  0  0
    4.7839   -0.4966    2.2584 H   0  0  0  0  0  0  0  0  0  0  0  0
    4.4966    1.2354    2.0218 H   0  0  0  0  0  0  0  0  0  0  0  0
    6.1338    0.5907    1.9475 H   0  0  0  0  0  0  0  0  0  0  0  0
    4.9636    2.3179   -0.2240 H   0  0  0  0  0  0  0  0  0  0  0  0
    6.5406    1.5578   -0.3778 H   0  0  0  0  0  0  0  0  0  0  0  0
    5.3314    1.3236   -1.6464 H   0  0  0  0  0  0  0  0  0  0  0  0
    5.7618   -1.2704   -1.2920 H   0  0  0  0  0  0  0  0  0  0  0  0
    6.9266   -0.7692   -0.0598 H   0  0  0  0  0  0  0  0  0  0  0  0
    5.6669   -1.9221    0.3553 H   0  0  0  0  0  0  0  0  0  0  0  0
    3.4784   -0.3011   -1.3572 H   0  0  0  0  0  0  0  0  0  0  0  0
    2.8200    1.9222   -0.4980 H   0  0  0  0  0  0  0  0  0  0  0  0
    2.4500    1.2318    1.0809 H   0  0  0  0  0  0  0  0  0  0  0  0
    0.4089    1.5432   -0.2324 H   0  0  0  0  0  0  0  0  0  0  0  0
    1.0569    0.6234   -1.5689 H   0  0  0  0  0  0  0  0  0  0  0  0
    0.4229   -0.4760    1.2311 H   0  0  0  0  0  0  0  0  0  0  0  0
   -3.0398   -0.3542   -1.6956 H   0  0  0  0  0  0  0  0  0  0  0  0
   -3.1522   -1.8248   -0.6660 H   0  0  0  0  0  0  0  0  0  0  0  0
   -5.6363   -0.4595    1.6827 H   0  0  0  0  0  0  0  0  0  0  0  0
   -3.8712   -0.5185    1.9674 H   0  0  0  0  0  0  0  0  0  0  0  0
   -4.6991   -1.9138    1.1962 H   0  0  0  0  0  0  0  0  0  0  0  0
   -5.2693   -1.3525   -1.7452 H   0  0  0  0  0  0  0  0  0  0  0  0
   -6.4202   -1.0251   -0.4162 H   0  0  0  0  0  0  0  0  0  0  0  0
   -5.3982    0.9299   -2.5256 H   0  0  0  0  0  0  0  0  0  0  0  0
   -7.0745    0.6711   -2.0096 H   0  0  0  0  0  0  0  0  0  0  0  0
   -5.8341    2.7431   -0.9296 H   0  0  0  0  0  0  0  0  0  0  0  0
   -6.5982    1.6165    0.2076 H   0  0  0  0  0  0  0  0  0  0  0  0
   -4.3152    1.6443    1.0319 H   0  0  0  0  0  0  0  0  0  0  0  0
   -3.6663    1.7042   -0.6426 H   0  0  0  0  0  0  0  0  0  0  0  0
    1.4889   -1.9660   -1.2163 H   0  0  0  0  0  0  0  0  0  0  0  0
    1.0981   -2.6574    0.3409 H   0  0  0  0  0  0  0  0  0  0  0  0
    3.5222   -2.3132    0.0801 H   0  0  0  0  0  0  0  0  0  0  0  0
    2.8847   -1.3888    1.4387 H   0  0  0  0  0  0  0  0  0  0  0  0
  1  2  1  0
  2  3  1  0
  2  4  1  0
  2  5  1  0
  5  6  1  0
  6  7  1  0
  7  8  1  0
  8  9  1  0
  9 10  1  0
 10 11  2  0
 10 12  1  0
 12 13  1  0
 13 14  1  0
 13 15  1  0
 15 16  1  0
 16 17  1  0
 17 18  1  0
  8 19  1  0
 19 20  1  0
 20  5  1  0
 18 13  1  0
  1 21  1  0
  1 22  1  0
  1 23  1  0
  3 24  1  0
  3 25  1  0
  3 26  1  0
  4 27  1  0
  4 28  1  0
  4 29  1  0
  5 30  1  0
  6 31  1  0
  6 32  1  0
  7 33  1  0
  7 34  1  0
  8 35  1  0
 12 36  1  0
 12 37  1  0
 14 38  1  0
 14 39  1  0
 14 40  1  0
 15 41  1  0
 15 42  1  0
 16 43  1  0
 16 44  1  0
 17 45  1  0
 17 46  1  0
 18 47  1  0
 18 48  1  0
 19 49  1  0
 19 50  1  0
 20 51  1  0
 20 52  1  0
M  CHG  1  13   1
M  END
$$$$
