
     RDKit          3D

 40 42  0  0  0  0  0  0  0  0999 V2000
    4.3604   -3.1366   -1.7518 C   0  0  0  0  0  0  0  0  0  0  0  0
    3.8974   -1.8471   -1.1473 C   0  0  0  0  0  0  0  0  0  0  0  0
    4.5212   -1.2073   -0.3145 O   0  0  0  0  0  0  0  0  0  0  0  0
    2.6772   -1.5080   -1.6442 O   0  0  0  0  0  0  0  0  0  0  0  0
    2.1486   -0.2477   -1.1873 C   0  0  0  0  0  0  0  0  0  0  0  0
    1.6796   -0.3177    0.2713 C   0  0  0  0  0  0  0  0  0  0  0  0
    0.5608    0.6009    0.5217 N   0  0  0  0  0  0  0  0  0  0  0  0
    0.8082    1.9257    0.8604 C   0  0  0  0  0  0  0  0  0  0  0  0
    1.9988    2.4411    0.9067 N   0  0  0  0  0  0  0  0  0  0  0  0
    2.1966    3.7517    1.2425 C   0  0  0  0  0  0  0  0  0  0  0  0
    3.2077    4.3648    0.9185 O   0  0  0  0  0  0  0  0  0  0  0  0
    1.2333    4.4099    1.9490 N   0  0  0  0  0  0  0  0  0  0  0  0
   -0.0852    4.1980    1.6878 C   0  0  0  0  0  0  0  0  0  0  0  0
   -0.9441    5.0581    1.7860 O   0  0  0  0  0  0  0  0  0  0  0  0
   -0.3731    2.8085    1.1859 C   0  0  0  0  0  0  0  0  0  0  0  0
   -1.5989    2.4033    1.0535 N   0  0  0  0  0  0  0  0  0  0  0  0
   -1.8219    1.0956    0.5830 C   0  0  0  0  0  0  0  0  0  0  0  0
   -3.1552    0.7172    0.3874 C   0  0  0  0  0  0  0  0  0  0  0  0
   -3.4955   -0.5562   -0.0849 C   0  0  0  0  0  0  0  0  0  0  0  0
   -4.9446   -0.9079   -0.2787 C   0  0  0  0  0  0  0  0  0  0  0  0
   -2.4680   -1.4683   -0.3725 C   0  0  0  0  0  0  0  0  0  0  0  0
   -2.7724   -2.8483   -0.8921 C   0  0  0  0  0  0  0  0  0  0  0  0
   -1.1264   -1.0867   -0.1722 C   0  0  0  0  0  0  0  0  0  0  0  0
   -0.7733    0.1859    0.3109 C   0  0  0  0  0  0  0  0  0  0  0  0
    4.4110   -3.0396   -2.8393 H   0  0  0  0  0  0  0  0  0  0  0  0
    5.3610   -3.3729   -1.3787 H   0  0  0  0  0  0  0  0  0  0  0  0
    3.6804   -3.9436   -1.4682 H   0  0  0  0  0  0  0  0  0  0  0  0
    1.3111   -0.0171   -1.8548 H   0  0  0  0  0  0  0  0  0  0  0  0
    2.8896    0.5480   -1.3331 H   0  0  0  0  0  0  0  0  0  0  0  0
    2.5196   -0.0651    0.9311 H   0  0  0  0  0  0  0  0  0  0  0  0
    1.4315   -1.3451    0.5622 H   0  0  0  0  0  0  0  0  0  0  0  0
    1.4615    5.3800    2.1128 H   0  0  0  0  0  0  0  0  0  0  0  0
   -3.9345    1.4439    0.6113 H   0  0  0  0  0  0  0  0  0  0  0  0
   -5.2110   -1.7759    0.3326 H   0  0  0  0  0  0  0  0  0  0  0  0
   -5.1445   -1.1271   -1.3322 H   0  0  0  0  0  0  0  0  0  0  0  0
   -5.6021   -0.0837    0.0180 H   0  0  0  0  0  0  0  0  0  0  0  0
   -3.3697   -3.4051   -0.1632 H   0  0  0  0  0  0  0  0  0  0  0  0
   -1.8575   -3.4218   -1.0750 H   0  0  0  0  0  0  0  0  0  0  0  0
   -3.3158   -2.7863   -1.8402 H   0  0  0  0  0  0  0  0  0  0  0  0
   -0.3617   -1.8174   -0.4188 H   0  0  0  0  0  0  0  0  0  0  0  0
  1  2  1  0
  2  3  2  0
  2  4  1  0
  4  5  1  0
  5  6  1  0
  6  7  1  0
  7  8  1  0
  8  9  2  0
  9 10  1  0
 10 11  2  0
 10 12  1  0
 12 13  1  0
 13 14  2  0
 13 15  1  0
 15 16  2  0
 16 17  1  0
 17 18  2  0
 18 19  1  0
 19 20  1  0
 19 21  2  0
 21 22  1  0
 21 23  1  0
 23 24  2  0
 24  7  1  0
 15  8  1  0
 24 17  1  0
  1 25  1  0
  1 26  1  0
  1 27  1  0
  5 28  1  0
  5 29  1  0
  6 30  1  0
  6 31  1  0
 12 32  1  0
 18 33  1  0
 20 34  1  0
 20 35  1  0
 20 36  1  0
 22 37  1  0
 22 38  1  0
 22 39  1  0
 23 40  1  0
M  END
$$$$
