
     RDKit          3D

 36 39  0  0  0  0  0  0  0  0999 V2000
   -2.0930   -3.6542   -0.9214 C   0  0  0  0  0  0  0  0  0  0  0  0
   -1.8191   -2.1838   -1.1181 C   0  0  0  0  0  0  0  0  0  0  0  0
   -2.9471   -1.2393   -0.8659 C   0  0  0  0  0  0  0  0  0  0  0  0
   -2.6985    0.0712   -1.0500 C   0  0  0  0  0  0  0  0  0  0  0  0
   -3.7776    1.0818   -0.8137 C   0  0  0  0  0  0  0  0  0  0  0  0
   -1.4053    0.4526   -1.4556 N   0  0  0  0  0  0  0  0  0  0  0  0
   -0.8258    1.6763   -1.7328 C   0  0  0  0  0  0  0  0  0  0  0  0
   -1.5950    3.4206   -1.7090 Br  0  0  0  0  0  0  0  0  0  0  0  0
    0.4972    1.4210   -2.0325 C   0  0  0  0  0  0  0  0  0  0  0  0
    1.6222    2.3497   -2.3402 C   0  0  0  0  0  0  0  0  0  0  0  0
    2.2159    3.2678   -0.8870 S   0  0  0  0  0  0  0  0  0  0  0  0
    2.4392    1.9540    0.2488 C   0  0  0  0  0  0  0  0  0  0  0  0
    1.6248    1.8207    1.2694 N   0  0  0  0  0  0  0  0  0  0  0  0
    1.9825    0.7001    1.9989 C   0  0  0  0  0  0  0  0  0  0  0  0
    1.3257    0.2210    3.1509 C   0  0  0  0  0  0  0  0  0  0  0  0
    1.7954   -0.9295    3.7929 C   0  0  0  0  0  0  0  0  0  0  0  0
    2.9084   -1.6051    3.3023 C   0  0  0  0  0  0  0  0  0  0  0  0
    3.5798   -1.1495    2.1634 C   0  0  0  0  0  0  0  0  0  0  0  0
    3.0999    0.0072    1.5268 C   0  0  0  0  0  0  0  0  0  0  0  0
    3.7047    0.8105    0.1289 S   0  0  0  0  0  0  0  0  0  0  0  0
    0.7331    0.0685   -2.0131 N   0  0  0  0  0  0  0  0  0  0  0  0
   -0.3980   -0.5026   -1.6595 C   0  0  0  0  0  0  0  0  0  0  0  0
   -0.6276   -1.8356   -1.4940 N   0  0  0  0  0  0  0  0  0  0  0  0
   -3.1227   -3.8337   -0.6023 H   0  0  0  0  0  0  0  0  0  0  0  0
   -1.4136   -4.0483   -0.1599 H   0  0  0  0  0  0  0  0  0  0  0  0
   -1.9177   -4.1824   -1.8632 H   0  0  0  0  0  0  0  0  0  0  0  0
   -3.9043   -1.6337   -0.5511 H   0  0  0  0  0  0  0  0  0  0  0  0
   -3.4899    1.7844   -0.0257 H   0  0  0  0  0  0  0  0  0  0  0  0
   -4.0100    1.6276   -1.7331 H   0  0  0  0  0  0  0  0  0  0  0  0
   -4.7106    0.6085   -0.4858 H   0  0  0  0  0  0  0  0  0  0  0  0
    1.3108    3.0744   -3.0998 H   0  0  0  0  0  0  0  0  0  0  0  0
    2.4629    1.7917   -2.7674 H   0  0  0  0  0  0  0  0  0  0  0  0
    0.4584    0.7522    3.5294 H   0  0  0  0  0  0  0  0  0  0  0  0
    1.2852   -1.2959    4.6805 H   0  0  0  0  0  0  0  0  0  0  0  0
    3.2628   -2.5002    3.8093 H   0  0  0  0  0  0  0  0  0  0  0  0
    4.4471   -1.6781    1.7798 H   0  0  0  0  0  0  0  0  0  0  0  0
  1  2  1  0
  2  3  1  0
  3  4  2  0
  4  5  1  0
  4  6  1  0
  6  7  1  0
  7  8  1  0
  7  9  2  0
  9 10  1  0
 10 11  1  0
 11 12  1  0
 12 13  2  0
 13 14  1  0
 14 15  2  0
 15 16  1  0
 16 17  2  0
 17 18  1  0
 18 19  2  0
 19 20  1  0
  9 21  1  0
 21 22  2  0
 22 23  1  0
 23  2  2  0
 22  6  1  0
 20 12  1  0
 19 14  1  0
  1 24  1  0
  1 25  1  0
  1 26  1  0
  3 27  1  0
  5 28  1  0
  5 29  1  0
  5 30  1  0
 10 31  1  0
 10 32  1  0
 15 33  1  0
 16 34  1  0
 17 35  1  0
 18 36  1  0
M  END
$$$$
