
     RDKit          3D

 57 58  0  0  0  0  0  0  0  0999 V2000
    5.9542   -0.2962    0.3342 C   0  0  0  0  0  0  0  0  0  0  0  0
    5.5934    0.7619   -0.6725 C   0  0  0  0  0  0  0  0  0  0  0  0
    6.5600    1.2098   -1.5858 C   0  0  0  0  0  0  0  0  0  0  0  0
    6.2465    2.1933   -2.5225 C   0  0  0  0  0  0  0  0  0  0  0  0
    4.9666    2.7392   -2.5526 C   0  0  0  0  0  0  0  0  0  0  0  0
    3.9962    2.3049   -1.6454 C   0  0  0  0  0  0  0  0  0  0  0  0
    4.3005    1.3186   -0.7016 C   0  0  0  0  0  0  0  0  0  0  0  0
    3.4254    0.8304    0.2337 O   0  0  0  0  0  0  0  0  0  0  0  0
    2.0915    1.3421    0.2255 C   0  0  0  0  0  0  0  0  0  0  0  0
    1.3168    0.6524    1.3386 C   0  0  0  0  0  0  0  0  0  0  0  0
    0.9805   -0.7681    0.9658 C   0  0  0  0  0  0  0  0  0  0  0  0
    0.8235   -1.1885   -0.1715 O   0  0  0  0  0  0  0  0  0  0  0  0
    0.7765   -1.5054    2.0934 O   0  0  0  0  0  0  0  0  0  0  0  0
    0.4911   -2.8893    1.8831 C   0  0  0  0  0  0  0  0  0  0  0  0
   -0.7827   -3.2459    1.1090 C   0  0  0  0  0  0  0  0  0  0  0  0
   -0.8486   -4.2716    0.4258 O   0  0  0  0  0  0  0  0  0  0  0  0
   -1.9299   -2.2936    1.1650 C   0  0  0  0  0  0  0  0  0  0  0  0
   -2.5341   -1.9037    0.0222 C   0  0  0  0  0  0  0  0  0  0  0  0
   -2.2232   -2.4712   -1.2120 N   0  0  0  0  0  0  0  0  0  0  0  0
   -3.5050   -0.9050    0.0822 N   0  0  0  0  0  0  0  0  0  0  0  0
   -4.1966   -0.4843   -1.1502 C   0  0  0  0  0  0  0  0  0  0  0  0
   -3.4204    0.5712   -1.9694 C   0  0  0  0  0  0  0  0  0  0  0  0
   -3.2528    1.8932   -1.2189 C   0  0  0  0  0  0  0  0  0  0  0  0
   -4.1356    0.8190   -3.3002 C   0  0  0  0  0  0  0  0  0  0  0  0
   -3.8948   -0.2787    1.2671 C   0  0  0  0  0  0  0  0  0  0  0  0
   -4.7708    0.5886    1.3024 O   0  0  0  0  0  0  0  0  0  0  0  0
   -3.2364   -0.6806    2.4183 N   0  0  0  0  0  0  0  0  0  0  0  0
   -3.6469   -0.0653    3.6678 C   0  0  0  0  0  0  0  0  0  0  0  0
   -2.3248   -1.7086    2.4580 C   0  0  0  0  0  0  0  0  0  0  0  0
   -1.8422   -2.1542    3.4981 O   0  0  0  0  0  0  0  0  0  0  0  0
    6.9656   -0.6836    0.1658 H   0  0  0  0  0  0  0  0  0  0  0  0
    5.2632   -1.1433    0.2617 H   0  0  0  0  0  0  0  0  0  0  0  0
    5.9170    0.1191    1.3474 H   0  0  0  0  0  0  0  0  0  0  0  0
    7.5653    0.7925   -1.5716 H   0  0  0  0  0  0  0  0  0  0  0  0
    7.0010    2.5322   -3.2276 H   0  0  0  0  0  0  0  0  0  0  0  0
    4.7215    3.5059   -3.2832 H   0  0  0  0  0  0  0  0  0  0  0  0
    3.0128    2.7589   -1.7044 H   0  0  0  0  0  0  0  0  0  0  0  0
    1.6163    1.1691   -0.7476 H   0  0  0  0  0  0  0  0  0  0  0  0
    2.1160    2.4176    0.4380 H   0  0  0  0  0  0  0  0  0  0  0  0
    1.9181    0.6430    2.2557 H   0  0  0  0  0  0  0  0  0  0  0  0
    0.3730    1.1751    1.5286 H   0  0  0  0  0  0  0  0  0  0  0  0
    1.3457   -3.3391    1.3616 H   0  0  0  0  0  0  0  0  0  0  0  0
    0.4290   -3.3696    2.8656 H   0  0  0  0  0  0  0  0  0  0  0  0
   -1.7741   -1.7924   -1.8246 H   0  0  0  0  0  0  0  0  0  0  0  0
   -1.5874   -3.2745   -1.1240 H   0  0  0  0  0  0  0  0  0  0  0  0
   -4.3971   -1.3734   -1.7616 H   0  0  0  0  0  0  0  0  0  0  0  0
   -5.1880   -0.0867   -0.8971 H   0  0  0  0  0  0  0  0  0  0  0  0
   -2.4165    0.1952   -2.1974 H   0  0  0  0  0  0  0  0  0  0  0  0
   -4.2224    2.3128   -0.9287 H   0  0  0  0  0  0  0  0  0  0  0  0
   -2.7410    2.6318   -1.8457 H   0  0  0  0  0  0  0  0  0  0  0  0
   -2.6486    1.7622   -0.3155 H   0  0  0  0  0  0  0  0  0  0  0  0
   -3.5754    1.5304   -3.9166 H   0  0  0  0  0  0  0  0  0  0  0  0
   -5.1408    1.2254   -3.1421 H   0  0  0  0  0  0  0  0  0  0  0  0
   -4.2304   -0.1113   -3.8704 H   0  0  0  0  0  0  0  0  0  0  0  0
   -2.9419   -0.2730    4.4786 H   0  0  0  0  0  0  0  0  0  0  0  0
   -3.7262    1.0198    3.5402 H   0  0  0  0  0  0  0  0  0  0  0  0
   -4.6329   -0.4582    3.9409 H   0  0  0  0  0  0  0  0  0  0  0  0
  1  2  1  0
  2  3  2  0
  3  4  1  0
  4  5  2  0
  5  6  1  0
  6  7  2  0
  7  8  1  0
  8  9  1  0
  9 10  1  0
 10 11  1  0
 11 12  2  0
 11 13  1  0
 13 14  1  0
 14 15  1  0
 15 16  2  0
 15 17  1  0
 17 18  2  0
 18 19  1  0
 18 20  1  0
 20 21  1  0
 21 22  1  0
 22 23  1  0
 22 24  1  0
 20 25  1  0
 25 26  2  0
 25 27  1  0
 27 28  1  0
 27 29  1  0
 29 30  2  0
  7  2  1  0
 29 17  1  0
  1 31  1  0
  1 32  1  0
  1 33  1  0
  3 34  1  0
  4 35  1  0
  5 36  1  0
  6 37  1  0
  9 38  1  0
  9 39  1  0
 10 40  1  0
 10 41  1  0
 14 42  1  0
 14 43  1  0
 19 44  1  0
 19 45  1  0
 21 46  1  0
 21 47  1  0
 22 48  1  0
 23 49  1  0
 23 50  1  0
 23 51  1  0
 24 52  1  0
 24 53  1  0
 24 54  1  0
 28 55  1  0
 28 56  1  0
 28 57  1  0
M  END
$$$$
