
     RDKit          3D

 95 98  0  0  0  0  0  0  0  0999 V2000
   -7.1167   -2.8521    0.0040 C   0  0  0  0  0  0  0  0  0  0  0  0
   -5.8911   -3.3925    0.0131 C   0  0  0  0  0  0  0  0  0  0  0  0
   -4.6316   -2.8076    0.5966 C   0  0  0  0  0  0  0  0  0  0  0  0
   -4.7564   -1.4079    1.2165 C   0  0  0  0  0  0  0  0  0  0  0  0
   -3.4408   -0.8369    1.7841 C   0  0  0  0  0  0  0  0  0  0  0  0
   -2.8272   -1.6554    2.9354 C   0  0  0  0  0  0  0  0  0  0  0  0
   -3.7040   -1.7234    4.1644 C   0  0  0  0  0  0  0  0  0  0  0  0
   -4.3515   -2.9199    4.5092 C   0  0  0  0  0  0  0  0  0  0  0  0
   -5.1720   -2.9784    5.6364 C   0  0  0  0  0  0  0  0  0  0  0  0
   -5.3439   -1.8434    6.4189 C   0  0  0  0  0  0  0  0  0  0  0  0
   -6.1337   -1.9003    7.4991 F   0  0  0  0  0  0  0  0  0  0  0  0
   -4.7080   -0.6503    6.0984 C   0  0  0  0  0  0  0  0  0  0  0  0
   -3.8867   -0.5894    4.9717 C   0  0  0  0  0  0  0  0  0  0  0  0
   -2.4143   -0.6687    0.6785 C   0  0  0  0  0  0  0  0  0  0  0  0
   -1.3632   -1.2900    0.5922 O   0  0  0  0  0  0  0  0  0  0  0  0
   -2.8142    0.2945   -0.1923 O   0  0  0  0  0  0  0  0  0  0  0  0
   -1.9661    0.5317   -1.3335 C   0  0  0  0  0  0  0  0  0  0  0  0
   -0.8038    1.5013   -1.0256 C   0  0  0  0  0  0  0  0  0  0  0  0
   -1.2798    2.8098   -0.3583 C   0  0  0  0  0  0  0  0  0  0  0  0
   -2.1978    3.6229   -1.2206 C   0  0  0  0  0  0  0  0  0  0  0  0
   -1.8184    4.4117   -2.2896 C   0  0  0  0  0  0  0  0  0  0  0  0
   -2.9392    4.9861   -2.8216 N   0  0  0  0  0  0  0  0  0  0  0  0
   -4.0549    4.5892   -2.1226 C   0  0  0  0  0  0  0  0  0  0  0  0
   -5.4024    4.9191   -2.3135 C   0  0  0  0  0  0  0  0  0  0  0  0
   -6.3371    4.3626   -1.4364 C   0  0  0  0  0  0  0  0  0  0  0  0
   -5.9374    3.5143   -0.4074 C   0  0  0  0  0  0  0  0  0  0  0  0
   -4.5860    3.1972   -0.2302 C   0  0  0  0  0  0  0  0  0  0  0  0
   -3.6213    3.7400   -1.1044 C   0  0  0  0  0  0  0  0  0  0  0  0
    0.2185    0.8432   -0.1976 N   0  0  0  0  0  0  0  0  0  0  0  0
    1.5290    1.2571   -0.2030 C   0  0  0  0  0  0  0  0  0  0  0  0
    1.8806    2.2668   -0.8152 O   0  0  0  0  0  0  0  0  0  0  0  0
    2.5074    0.4879    0.6985 C   0  0  0  0  0  0  0  0  0  0  0  0
    2.1414   -0.9853    0.9641 C   0  0  0  0  0  0  0  0  0  0  0  0
    3.1581   -1.7316    1.7862 C   0  0  0  0  0  0  0  0  0  0  0  0
    3.8622   -2.7749    1.3298 C   0  0  0  0  0  0  0  0  0  0  0  0
    3.9376    0.6929    0.1536 C   0  0  0  0  0  0  0  0  0  0  0  0
    4.1545    0.0988   -1.2347 C   0  0  0  0  0  0  0  0  0  0  0  0
    3.2890   -0.5882   -1.7802 O   0  0  0  0  0  0  0  0  0  0  0  0
    5.3824    0.3419   -1.8422 N   0  0  0  0  0  0  0  0  0  0  0  0
    6.4280    1.1986   -1.2797 C   0  0  0  0  0  0  0  0  0  0  0  0
    6.3133    2.6551   -1.7385 C   0  0  0  0  0  0  0  0  0  0  0  0
    7.3651    3.4382   -1.1846 O   0  0  0  0  0  0  0  0  0  0  0  0
    5.6278   -0.2319   -3.1657 C   0  0  0  0  0  0  0  0  0  0  0  0
    6.4975   -1.4659   -3.0959 C   0  0  0  0  0  0  0  0  0  0  0  0
    7.8334   -1.4301   -3.5207 C   0  0  0  0  0  0  0  0  0  0  0  0
    8.6316   -2.5726   -3.4434 C   0  0  0  0  0  0  0  0  0  0  0  0
    8.1039   -3.7617   -2.9421 C   0  0  0  0  0  0  0  0  0  0  0  0
    6.7773   -3.8106   -2.5181 C   0  0  0  0  0  0  0  0  0  0  0  0
    5.9784   -2.6692   -2.5940 C   0  0  0  0  0  0  0  0  0  0  0  0
   -7.3361   -1.8838    0.4417 H   0  0  0  0  0  0  0  0  0  0  0  0
   -7.9476   -3.3814   -0.4536 H   0  0  0  0  0  0  0  0  0  0  0  0
   -5.7674   -4.3719   -0.4507 H   0  0  0  0  0  0  0  0  0  0  0  0
   -3.8832   -2.7851   -0.2045 H   0  0  0  0  0  0  0  0  0  0  0  0
   -4.2686   -3.5157    1.3487 H   0  0  0  0  0  0  0  0  0  0  0  0
   -5.5109   -1.4237    2.0127 H   0  0  0  0  0  0  0  0  0  0  0  0
   -5.1358   -0.7169    0.4520 H   0  0  0  0  0  0  0  0  0  0  0  0
   -3.6444    0.1739    2.1655 H   0  0  0  0  0  0  0  0  0  0  0  0
   -1.8685   -1.2091    3.2357 H   0  0  0  0  0  0  0  0  0  0  0  0
   -2.5696   -2.6678    2.6000 H   0  0  0  0  0  0  0  0  0  0  0  0
   -4.2230   -3.8135    3.9025 H   0  0  0  0  0  0  0  0  0  0  0  0
   -5.6764   -3.9004    5.9077 H   0  0  0  0  0  0  0  0  0  0  0  0
   -4.8544    0.2220    6.7270 H   0  0  0  0  0  0  0  0  0  0  0  0
   -3.3874    0.3464    4.7309 H   0  0  0  0  0  0  0  0  0  0  0  0
   -2.6088    0.9551   -2.1130 H   0  0  0  0  0  0  0  0  0  0  0  0
   -1.5919   -0.4214   -1.7297 H   0  0  0  0  0  0  0  0  0  0  0  0
   -0.3210    1.7419   -1.9819 H   0  0  0  0  0  0  0  0  0  0  0  0
   -1.7589    2.5890    0.6032 H   0  0  0  0  0  0  0  0  0  0  0  0
   -0.4126    3.4341   -0.1079 H   0  0  0  0  0  0  0  0  0  0  0  0
   -0.8414    4.6112   -2.7118 H   0  0  0  0  0  0  0  0  0  0  0  0
   -2.9522    5.6149   -3.6121 H   0  0  0  0  0  0  0  0  0  0  0  0
   -5.7169    5.5824   -3.1121 H   0  0  0  0  0  0  0  0  0  0  0  0
   -7.3918    4.5987   -1.5588 H   0  0  0  0  0  0  0  0  0  0  0  0
   -6.6798    3.0939    0.2661 H   0  0  0  0  0  0  0  0  0  0  0  0
   -4.2879    2.5348    0.5758 H   0  0  0  0  0  0  0  0  0  0  0  0
   -0.0038   -0.0898    0.1405 H   0  0  0  0  0  0  0  0  0  0  0  0
    2.4636    1.0080    1.6672 H   0  0  0  0  0  0  0  0  0  0  0  0
    1.2060   -1.0214    1.5369 H   0  0  0  0  0  0  0  0  0  0  0  0
    1.9320   -1.5161    0.0282 H   0  0  0  0  0  0  0  0  0  0  0  0
    3.3057   -1.4011    2.8127 H   0  0  0  0  0  0  0  0  0  0  0  0
    3.7412   -3.1396    0.3132 H   0  0  0  0  0  0  0  0  0  0  0  0
    4.5793   -3.2865    1.9645 H   0  0  0  0  0  0  0  0  0  0  0  0
    4.1493    1.7671    0.1103 H   0  0  0  0  0  0  0  0  0  0  0  0
    4.6666    0.2472    0.8382 H   0  0  0  0  0  0  0  0  0  0  0  0
    6.4070    1.1628   -0.1864 H   0  0  0  0  0  0  0  0  0  0  0  0
    7.4086    0.7972   -1.5581 H   0  0  0  0  0  0  0  0  0  0  0  0
    5.3630    3.0918   -1.4186 H   0  0  0  0  0  0  0  0  0  0  0  0
    6.3602    2.7363   -2.8291 H   0  0  0  0  0  0  0  0  0  0  0  0
    8.2017    3.1262   -1.5702 H   0  0  0  0  0  0  0  0  0  0  0  0
    4.6863   -0.4930   -3.6619 H   0  0  0  0  0  0  0  0  0  0  0  0
    6.0932    0.5351   -3.7953 H   0  0  0  0  0  0  0  0  0  0  0  0
    8.2615   -0.5115   -3.9151 H   0  0  0  0  0  0  0  0  0  0  0  0
    9.6661   -2.5368   -3.7759 H   0  0  0  0  0  0  0  0  0  0  0  0
    8.7259   -4.6507   -2.8829 H   0  0  0  0  0  0  0  0  0  0  0  0
    6.3627   -4.7371   -2.1288 H   0  0  0  0  0  0  0  0  0  0  0  0
    4.9425   -2.7185   -2.2621 H   0  0  0  0  0  0  0  0  0  0  0  0
  1  2  2  0
  2  3  1  0
  3  4  1  0
  4  5  1  0
  5  6  1  0
  6  7  1  0
  7  8  2  0
  8  9  1  0
  9 10  2  0
 10 11  1  0
 10 12  1  0
 12 13  2  0
  5 14  1  0
 14 15  2  0
 14 16  1  0
 16 17  1  0
 17 18  1  0
 18 19  1  0
 19 20  1  0
 20 21  2  0
 21 22  1  0
 22 23  1  0
 23 24  2  0
 24 25  1  0
 25 26  2  0
 26 27  1  0
 27 28  2  0
 18 29  1  0
 29 30  1  0
 30 31  2  0
 30 32  1  0
 32 33  1  0
 33 34  1  0
 34 35  2  0
 32 36  1  0
 36 37  1  0
 37 38  2  0
 37 39  1  0
 39 40  1  0
 40 41  1  0
 41 42  1  0
 39 43  1  0
 43 44  1  0
 44 45  2  0
 45 46  1  0
 46 47  2  0
 47 48  1  0
 48 49  2  0
 13  7  1  0
 28 20  1  0
 49 44  1  0
 28 23  1  0
  1 50  1  0
  1 51  1  0
  2 52  1  0
  3 53  1  0
  3 54  1  0
  4 55  1  0
  4 56  1  0
  5 57  1  0
  6 58  1  0
  6 59  1  0
  8 60  1  0
  9 61  1  0
 12 62  1  0
 13 63  1  0
 17 64  1  0
 17 65  1  0
 18 66  1  0
 19 67  1  0
 19 68  1  0
 21 69  1  0
 22 70  1  0
 24 71  1  0
 25 72  1  0
 26 73  1  0
 27 74  1  0
 29 75  1  0
 32 76  1  0
 33 77  1  0
 33 78  1  0
 34 79  1  0
 35 80  1  0
 35 81  1  0
 36 82  1  0
 36 83  1  0
 40 84  1  0
 40 85  1  0
 41 86  1  0
 41 87  1  0
 42 88  1  0
 43 89  1  0
 43 90  1  0
 45 91  1  0
 46 92  1  0
 47 93  1  0
 48 94  1  0
 49 95  1  0
M  END
$$$$
