
     RDKit          3D

 63 65  0  0  0  0  0  0  0  0999 V2000
   -0.5021    2.0015    0.8927 C   0  0  0  0  0  0  0  0  0  0  0  0
   -0.2393    0.7429    0.0675 C   0  0  0  0  0  0  0  0  0  0  0  0
    0.6864   -0.1984    0.7242 N   0  0  0  0  0  0  0  0  0  0  0  0
    1.1068   -1.2620   -0.2228 C   0  0  0  0  0  0  0  0  0  0  0  0
    2.0250   -0.7037   -1.3206 C   0  0  0  0  0  0  0  0  0  0  0  0
    1.6066   -0.5161   -2.4600 O   0  0  0  0  0  0  0  0  0  0  0  0
    3.3158   -0.4745   -0.8688 N   0  0  0  0  0  0  0  0  0  0  0  0
    4.4227   -0.0273   -1.6171 C   0  0  0  0  0  0  0  0  0  0  0  0
    5.6625    0.0278   -0.9709 C   0  0  0  0  0  0  0  0  0  0  0  0
    6.8178    0.4334   -1.6544 C   0  0  0  0  0  0  0  0  0  0  0  0
    6.7490    0.8112   -2.9937 C   0  0  0  0  0  0  0  0  0  0  0  0
    7.8537    1.2432   -3.7564 N   0  0  0  0  0  0  0  0  0  0  0  0
    9.1769    1.3112   -3.3616 C   0  0  0  0  0  0  0  0  0  0  0  0
   10.0777    1.8619   -4.4411 C   0  0  0  0  0  0  0  0  0  0  0  0
    9.6403    0.9882   -2.2727 O   0  0  0  0  0  0  0  0  0  0  0  0
    5.5059    0.7739   -3.6350 C   0  0  0  0  0  0  0  0  0  0  0  0
    4.3560    0.3492   -2.9560 C   0  0  0  0  0  0  0  0  0  0  0  0
    0.1402   -0.7913    1.9720 C   0  0  0  0  0  0  0  0  0  0  0  0
   -0.9434   -1.8589    1.7467 C   0  0  0  0  0  0  0  0  0  0  0  0
   -0.6210   -3.0297    1.5529 O   0  0  0  0  0  0  0  0  0  0  0  0
   -2.2327   -1.3597    1.7555 N   0  0  0  0  0  0  0  0  0  0  0  0
   -3.4451   -2.0541    1.5004 C   0  0  0  0  0  0  0  0  0  0  0  0
   -3.4853   -3.4455    1.3301 C   0  0  0  0  0  0  0  0  0  0  0  0
   -4.6816   -4.1031    1.0311 C   0  0  0  0  0  0  0  0  0  0  0  0
   -5.8589   -3.3797    0.8850 C   0  0  0  0  0  0  0  0  0  0  0  0
   -5.8491   -1.9980    1.0672 C   0  0  0  0  0  0  0  0  0  0  0  0
   -4.6587   -1.3298    1.4079 C   0  0  0  0  0  0  0  0  0  0  0  0
   -4.6858    0.1473    1.6376 C   0  0  0  0  0  0  0  0  0  0  0  0
   -3.6677    0.8156    1.4573 O   0  0  0  0  0  0  0  0  0  0  0  0
   -5.9071    0.8446    2.1031 C   0  0  0  0  0  0  0  0  0  0  0  0
   -6.2350    2.0767    1.5262 C   0  0  0  0  0  0  0  0  0  0  0  0
   -7.3750    2.7628    1.9505 C   0  0  0  0  0  0  0  0  0  0  0  0
   -8.1781    2.2263    2.9575 C   0  0  0  0  0  0  0  0  0  0  0  0
   -7.8384    1.0113    3.5530 C   0  0  0  0  0  0  0  0  0  0  0  0
   -6.6996    0.3199    3.1308 C   0  0  0  0  0  0  0  0  0  0  0  0
   -1.0514    1.7911    1.8139 H   0  0  0  0  0  0  0  0  0  0  0  0
    0.4362    2.5019    1.1530 H   0  0  0  0  0  0  0  0  0  0  0  0
   -1.1060    2.7057    0.3115 H   0  0  0  0  0  0  0  0  0  0  0  0
    0.2023    1.0946   -0.8724 H   0  0  0  0  0  0  0  0  0  0  0  0
   -1.1871    0.2612   -0.1996 H   0  0  0  0  0  0  0  0  0  0  0  0
    0.2504   -1.7492   -0.7047 H   0  0  0  0  0  0  0  0  0  0  0  0
    1.6767   -2.0417    0.3001 H   0  0  0  0  0  0  0  0  0  0  0  0
    3.4667   -0.6246    0.1211 H   0  0  0  0  0  0  0  0  0  0  0  0
    5.7599   -0.2606    0.0725 H   0  0  0  0  0  0  0  0  0  0  0  0
    7.7552    0.4424   -1.1047 H   0  0  0  0  0  0  0  0  0  0  0  0
    7.6398    1.5478   -4.6973 H   0  0  0  0  0  0  0  0  0  0  0  0
    9.6356    1.7477   -5.4351 H   0  0  0  0  0  0  0  0  0  0  0  0
   11.0235    1.3098   -4.4325 H   0  0  0  0  0  0  0  0  0  0  0  0
   10.2664    2.9222   -4.2481 H   0  0  0  0  0  0  0  0  0  0  0  0
    5.4064    1.0635   -4.6781 H   0  0  0  0  0  0  0  0  0  0  0  0
    3.4188    0.3347   -3.5043 H   0  0  0  0  0  0  0  0  0  0  0  0
    0.9607   -1.2815    2.5136 H   0  0  0  0  0  0  0  0  0  0  0  0
   -0.2258   -0.0240    2.6624 H   0  0  0  0  0  0  0  0  0  0  0  0
   -2.3305   -0.3440    1.8123 H   0  0  0  0  0  0  0  0  0  0  0  0
   -2.5941   -4.0601    1.4246 H   0  0  0  0  0  0  0  0  0  0  0  0
   -4.6790   -5.1858    0.9041 H   0  0  0  0  0  0  0  0  0  0  0  0
   -6.7844   -3.8905    0.6278 H   0  0  0  0  0  0  0  0  0  0  0  0
   -6.7822   -1.4576    0.9252 H   0  0  0  0  0  0  0  0  0  0  0  0
   -5.6037    2.5019    0.7486 H   0  0  0  0  0  0  0  0  0  0  0  0
   -7.6362    3.7184    1.5018 H   0  0  0  0  0  0  0  0  0  0  0  0
   -9.0633    2.7653    3.2934 H   0  0  0  0  0  0  0  0  0  0  0  0
   -8.4569    0.6065    4.3511 H   0  0  0  0  0  0  0  0  0  0  0  0
   -6.4374   -0.6127    3.6216 H   0  0  0  0  0  0  0  0  0  0  0  0
  1  2  1  0
  2  3  1  0
  3  4  1  0
  4  5  1  0
  5  6  2  0
  5  7  1  0
  7  8  1  0
  8  9  2  0
  9 10  1  0
 10 11  2  0
 11 12  1  0
 12 13  1  0
 13 14  1  0
 13 15  2  0
 11 16  1  0
 16 17  2  0
  3 18  1  0
 18 19  1  0
 19 20  2  0
 19 21  1  0
 21 22  1  0
 22 23  2  0
 23 24  1  0
 24 25  2  0
 25 26  1  0
 26 27  2  0
 27 28  1  0
 28 29  2  0
 28 30  1  0
 30 31  2  0
 31 32  1  0
 32 33  2  0
 33 34  1  0
 34 35  2  0
 17  8  1  0
 27 22  1  0
 35 30  1  0
  1 36  1  0
  1 37  1  0
  1 38  1  0
  2 39  1  0
  2 40  1  0
  4 41  1  0
  4 42  1  0
  7 43  1  0
  9 44  1  0
 10 45  1  0
 12 46  1  0
 14 47  1  0
 14 48  1  0
 14 49  1  0
 16 50  1  0
 17 51  1  0
 18 52  1  0
 18 53  1  0
 21 54  1  0
 23 55  1  0
 24 56  1  0
 25 57  1  0
 26 58  1  0
 31 59  1  0
 32 60  1  0
 33 61  1  0
 34 62  1  0
 35 63  1  0
M  END
$$$$
