
     RDKit          3D

 41 42  0  0  0  0  0  0  0  0999 V2000
   -7.6899    0.8864    0.5755 C   0  0  0  0  0  0  0  0  0  0  0  0
   -6.2212    0.9845    0.2276 C   0  0  0  0  0  0  0  0  0  0  0  0
   -5.9135    1.6088   -0.7892 O   0  0  0  0  0  0  0  0  0  0  0  0
   -5.3232    0.3253    1.0862 N   0  0  0  0  0  0  0  0  0  0  0  0
   -5.8035   -0.5296    2.1747 C   0  0  0  0  0  0  0  0  0  0  0  0
   -3.8956    0.3591    0.8626 C   0  0  0  0  0  0  0  0  0  0  0  0
   -3.0595   -0.6471    1.3668 C   0  0  0  0  0  0  0  0  0  0  0  0
   -1.6711   -0.6132    1.1670 C   0  0  0  0  0  0  0  0  0  0  0  0
   -1.0609    0.4330    0.4671 C   0  0  0  0  0  0  0  0  0  0  0  0
    0.3415    0.3530    0.3290 N   0  0  0  0  0  0  0  0  0  0  0  0
    1.2960    1.1915   -0.1960 C   0  0  0  0  0  0  0  0  0  0  0  0
    1.1527    2.7294   -0.8295 S   0  0  0  0  0  0  0  0  0  0  0  0
    2.5850    0.6735   -0.1914 N   0  0  0  0  0  0  0  0  0  0  0  0
    3.0277   -0.5532    0.2634 C   0  0  0  0  0  0  0  0  0  0  0  0
    2.3321   -1.3583    0.8748 O   0  0  0  0  0  0  0  0  0  0  0  0
    4.4668   -0.8225    0.0452 C   0  0  0  0  0  0  0  0  0  0  0  0
    5.1017   -0.5051   -1.0927 C   0  0  0  0  0  0  0  0  0  0  0  0
    6.4784   -0.8173   -1.2632 C   0  0  0  0  0  0  0  0  0  0  0  0
    7.2819   -0.6143   -2.3798 C   0  0  0  0  0  0  0  0  0  0  0  0
    8.5818   -1.0828   -2.0739 C   0  0  0  0  0  0  0  0  0  0  0  0
    8.5170   -1.5495   -0.7868 C   0  0  0  0  0  0  0  0  0  0  0  0
    7.2660   -1.3952   -0.2911 O   0  0  0  0  0  0  0  0  0  0  0  0
   -1.8797    1.4350   -0.0362 C   0  0  0  0  0  0  0  0  0  0  0  0
   -3.2727    1.3982    0.1618 C   0  0  0  0  0  0  0  0  0  0  0  0
   -8.2782    1.3903   -0.1985 H   0  0  0  0  0  0  0  0  0  0  0  0
   -8.0098   -0.1582    0.6073 H   0  0  0  0  0  0  0  0  0  0  0  0
   -7.8881    1.3899    1.5252 H   0  0  0  0  0  0  0  0  0  0  0  0
   -6.7887   -0.2282    2.5343 H   0  0  0  0  0  0  0  0  0  0  0  0
   -5.8687   -1.5601    1.8118 H   0  0  0  0  0  0  0  0  0  0  0  0
   -5.1324   -0.4658    3.0375 H   0  0  0  0  0  0  0  0  0  0  0  0
   -3.4573   -1.5042    1.9013 H   0  0  0  0  0  0  0  0  0  0  0  0
   -1.0739   -1.4282    1.5719 H   0  0  0  0  0  0  0  0  0  0  0  0
    0.7433   -0.4980    0.7270 H   0  0  0  0  0  0  0  0  0  0  0  0
    3.2666    1.3149   -0.5732 H   0  0  0  0  0  0  0  0  0  0  0  0
    4.9528   -1.3689    0.8481 H   0  0  0  0  0  0  0  0  0  0  0  0
    4.5870   -0.0263   -1.9199 H   0  0  0  0  0  0  0  0  0  0  0  0
    6.9587   -0.1760   -3.3144 H   0  0  0  0  0  0  0  0  0  0  0  0
    9.4542   -1.0808   -2.7119 H   0  0  0  0  0  0  0  0  0  0  0  0
    9.2347   -1.9984   -0.1142 H   0  0  0  0  0  0  0  0  0  0  0  0
   -1.4969    2.2731   -0.6029 H   0  0  0  0  0  0  0  0  0  0  0  0
   -3.8412    2.2357   -0.2337 H   0  0  0  0  0  0  0  0  0  0  0  0
  1  2  1  0
  2  3  2  0
  2  4  1  0
  4  5  1  0
  4  6  1  0
  6  7  2  0
  7  8  1  0
  8  9  2  0
  9 10  1  0
 10 11  1  0
 11 12  2  0
 11 13  1  0
 13 14  1  0
 14 15  2  0
 14 16  1  0
 16 17  2  3
 17 18  1  0
 18 19  2  0
 19 20  1  0
 20 21  2  0
 21 22  1  0
  9 23  1  0
 23 24  2  0
 24  6  1  0
 22 18  1  0
  1 25  1  0
  1 26  1  0
  1 27  1  0
  5 28  1  0
  5 29  1  0
  5 30  1  0
  7 31  1  0
  8 32  1  0
 10 33  1  0
 13 34  1  0
 16 35  1  0
 17 36  1  0
 19 37  1  0
 20 38  1  0
 21 39  1  0
 23 40  1  0
 24 41  1  0
M  END
$$$$
