
     RDKit          3D

 47 50  0  0  0  0  0  0  0  0999 V2000
   -5.1112    0.5132    2.2101 C   0  0  0  0  0  0  0  0  0  0  0  0
   -3.7854    0.4496    1.6061 N   0  0  0  0  0  0  0  0  0  0  0  0
   -3.7898    0.9336    0.2197 C   0  0  0  0  0  0  0  0  0  0  0  0
   -2.4020    0.8013   -0.4687 C   0  0  0  0  0  0  0  0  0  0  0  0
   -1.2201    0.7919    0.4251 N   0  0  0  0  0  0  0  0  0  0  0  0
   -0.8378   -0.5757    0.8185 C   0  0  0  0  0  0  0  0  0  0  0  0
   -0.1158   -1.3218   -0.2836 C   0  0  0  0  0  0  0  0  0  0  0  0
   -0.6805   -2.4692   -0.8416 C   0  0  0  0  0  0  0  0  0  0  0  0
   -0.0102   -3.1669   -1.8509 C   0  0  0  0  0  0  0  0  0  0  0  0
   -0.8007   -4.5763   -2.4806 Cl  0  0  0  0  0  0  0  0  0  0  0  0
    1.2505   -2.7365   -2.3377 C   0  0  0  0  0  0  0  0  0  0  0  0
    1.9762   -3.3936   -3.3574 C   0  0  0  0  0  0  0  0  0  0  0  0
    3.2057   -2.9065   -3.7835 C   0  0  0  0  0  0  0  0  0  0  0  0
    3.6867   -1.7650   -3.1822 C   0  0  0  0  0  0  0  0  0  0  0  0
    3.0302   -1.1019   -2.2086 N   0  0  0  0  0  0  0  0  0  0  0  0
    1.8362   -1.5785   -1.7848 C   0  0  0  0  0  0  0  0  0  0  0  0
    1.1401   -0.9159   -0.7654 C   0  0  0  0  0  0  0  0  0  0  0  0
    1.7166    0.2546   -0.2383 O   0  0  0  0  0  0  0  0  0  0  0  0
    2.6415   -0.0011    0.7678 C   0  0  0  0  0  0  0  0  0  0  0  0
    2.8498   -1.1027    1.2691 O   0  0  0  0  0  0  0  0  0  0  0  0
    3.2688    1.2507    1.1586 C   0  0  0  0  0  0  0  0  0  0  0  0
    3.0762    2.5276    0.6583 C   0  0  0  0  0  0  0  0  0  0  0  0
    3.8849    3.5019    1.3132 C   0  0  0  0  0  0  0  0  0  0  0  0
    4.6701    2.9413    2.2943 C   0  0  0  0  0  0  0  0  0  0  0  0
    4.4302    1.2537    2.4216 S   0  0  0  0  0  0  0  0  0  0  0  0
   -1.5204    1.6060    1.6185 C   0  0  0  0  0  0  0  0  0  0  0  0
   -2.7925    1.1917    2.4065 C   0  0  0  0  0  0  0  0  0  0  0  0
   -5.8193   -0.1051    1.6475 H   0  0  0  0  0  0  0  0  0  0  0  0
   -5.0874    0.1164    3.2310 H   0  0  0  0  0  0  0  0  0  0  0  0
   -5.5019    1.5364    2.2460 H   0  0  0  0  0  0  0  0  0  0  0  0
   -4.0991    1.9874    0.1946 H   0  0  0  0  0  0  0  0  0  0  0  0
   -4.5196    0.3697   -0.3740 H   0  0  0  0  0  0  0  0  0  0  0  0
   -2.2895    1.6550   -1.1495 H   0  0  0  0  0  0  0  0  0  0  0  0
   -2.4075   -0.0815   -1.1188 H   0  0  0  0  0  0  0  0  0  0  0  0
   -1.6999   -1.1594    1.1639 H   0  0  0  0  0  0  0  0  0  0  0  0
   -0.1474   -0.5441    1.6723 H   0  0  0  0  0  0  0  0  0  0  0  0
   -1.6486   -2.8223   -0.4914 H   0  0  0  0  0  0  0  0  0  0  0  0
    1.5886   -4.2943   -3.8275 H   0  0  0  0  0  0  0  0  0  0  0  0
    3.7694   -3.4068   -4.5625 H   0  0  0  0  0  0  0  0  0  0  0  0
    4.6418   -1.3363   -3.4716 H   0  0  0  0  0  0  0  0  0  0  0  0
    2.3851    2.7543   -0.1463 H   0  0  0  0  0  0  0  0  0  0  0  0
    3.8906    4.5584    1.0742 H   0  0  0  0  0  0  0  0  0  0  0  0
    5.3762    3.4397    2.9444 H   0  0  0  0  0  0  0  0  0  0  0  0
   -1.6473    2.6442    1.2819 H   0  0  0  0  0  0  0  0  0  0  0  0
   -0.6565    1.6282    2.2947 H   0  0  0  0  0  0  0  0  0  0  0  0
   -3.2303    2.1037    2.8332 H   0  0  0  0  0  0  0  0  0  0  0  0
   -2.4946    0.5508    3.2450 H   0  0  0  0  0  0  0  0  0  0  0  0
  1  2  1  0
  2  3  1  0
  3  4  1  0
  4  5  1  0
  5  6  1  0
  6  7  1  0
  7  8  2  0
  8  9  1  0
  9 10  1  0
  9 11  2  0
 11 12  1  0
 12 13  2  0
 13 14  1  0
 14 15  2  0
 15 16  1  0
 16 17  2  0
 17 18  1  0
 18 19  1  0
 19 20  2  0
 19 21  1  0
 21 22  2  0
 22 23  1  0
 23 24  2  0
 24 25  1  0
  5 26  1  0
 26 27  1  0
 27  2  1  0
 17  7  1  0
 25 21  1  0
 16 11  1  0
  1 28  1  0
  1 29  1  0
  1 30  1  0
  3 31  1  0
  3 32  1  0
  4 33  1  0
  4 34  1  0
  6 35  1  0
  6 36  1  0
  8 37  1  0
 12 38  1  0
 13 39  1  0
 14 40  1  0
 22 41  1  0
 23 42  1  0
 24 43  1  0
 26 44  1  0
 26 45  1  0
 27 46  1  0
 27 47  1  0
M  END
$$$$
