
     RDKit          3D

 58 61  0  0  0  0  0  0  0  0999 V2000
    2.0640   -0.5929    1.1441 O   0  0  0  0  0  0  0  0  0  0  0  0
    2.0237   -0.4346   -0.0736 C   0  0  0  0  0  0  0  0  0  0  0  0
    2.9925   -1.0622   -1.0564 C   0  0  0  0  0  0  0  0  0  0  0  0
    4.2274   -1.6729   -0.3919 C   0  0  0  0  0  0  0  0  0  0  0  0
    5.2015   -0.6533    0.2373 C   0  0  0  0  0  0  0  0  0  0  0  0
    5.8168    0.2927   -0.8076 C   0  0  0  0  0  0  0  0  0  0  0  0
    6.8470    1.2365   -0.1894 C   0  0  0  0  0  0  0  0  0  0  0  0
    7.9317    0.4767    0.5645 C   0  0  0  0  0  0  0  0  0  0  0  0
    7.3316   -0.4533    1.6123 C   0  0  0  0  0  0  0  0  0  0  0  0
    6.3101   -1.4054    0.9965 C   0  0  0  0  0  0  0  0  0  0  0  0
    1.0490    0.3298   -0.6918 N   0  0  0  0  0  0  0  0  0  0  0  0
   -0.0534    0.7076    0.1160 N   0  0  0  0  0  0  0  0  0  0  0  0
   -1.3004    0.3854   -0.3910 C   0  0  0  0  0  0  0  0  0  0  0  0
   -1.4610   -0.0359   -1.5306 O   0  0  0  0  0  0  0  0  0  0  0  0
   -2.2901    0.6102    0.5331 N   0  0  0  0  0  0  0  0  0  0  0  0
   -3.7222    0.4396    0.2640 C   0  0  0  0  0  0  0  0  0  0  0  0
   -4.0661   -1.0122   -0.1576 C   0  0  0  0  0  0  0  0  0  0  0  0
   -5.5815   -1.1677   -0.3791 C   0  0  0  0  0  0  0  0  0  0  0  0
   -6.3226   -0.8456    0.9276 C   0  0  0  0  0  0  0  0  0  0  0  0
   -6.0158    0.5958    1.3617 C   0  0  0  0  0  0  0  0  0  0  0  0
   -6.4713    1.5673    0.2614 C   0  0  0  0  0  0  0  0  0  0  0  0
   -5.7325    1.2590   -1.0508 C   0  0  0  0  0  0  0  0  0  0  0  0
   -6.0357   -0.1882   -1.4750 C   0  0  0  0  0  0  0  0  0  0  0  0
   -4.2173    1.4164   -0.8308 C   0  0  0  0  0  0  0  0  0  0  0  0
   -4.5008    0.7469    1.5720 C   0  0  0  0  0  0  0  0  0  0  0  0
    3.2754   -0.3248   -1.8132 H   0  0  0  0  0  0  0  0  0  0  0  0
    2.4453   -1.8605   -1.5727 H   0  0  0  0  0  0  0  0  0  0  0  0
    3.9014   -2.3808    0.3810 H   0  0  0  0  0  0  0  0  0  0  0  0
    4.7658   -2.2638   -1.1444 H   0  0  0  0  0  0  0  0  0  0  0  0
    4.6537   -0.0434    0.9671 H   0  0  0  0  0  0  0  0  0  0  0  0
    6.2949   -0.2928   -1.6033 H   0  0  0  0  0  0  0  0  0  0  0  0
    5.0380    0.8995   -1.2812 H   0  0  0  0  0  0  0  0  0  0  0  0
    7.3042    1.8470   -0.9762 H   0  0  0  0  0  0  0  0  0  0  0  0
    6.3413    1.9271    0.4968 H   0  0  0  0  0  0  0  0  0  0  0  0
    8.5294   -0.1081   -0.1454 H   0  0  0  0  0  0  0  0  0  0  0  0
    8.6125    1.1866    1.0473 H   0  0  0  0  0  0  0  0  0  0  0  0
    6.8495    0.1416    2.3978 H   0  0  0  0  0  0  0  0  0  0  0  0
    8.1296   -1.0301    2.0932 H   0  0  0  0  0  0  0  0  0  0  0  0
    6.8255   -2.0947    0.3152 H   0  0  0  0  0  0  0  0  0  0  0  0
    5.8675   -2.0174    1.7918 H   0  0  0  0  0  0  0  0  0  0  0  0
    0.7986    0.1259   -1.6608 H   0  0  0  0  0  0  0  0  0  0  0  0
    0.0886    0.4897    1.1026 H   0  0  0  0  0  0  0  0  0  0  0  0
   -2.0475    1.3212    1.2094 H   0  0  0  0  0  0  0  0  0  0  0  0
   -3.5452   -1.2894   -1.0811 H   0  0  0  0  0  0  0  0  0  0  0  0
   -3.7258   -1.7188    0.6108 H   0  0  0  0  0  0  0  0  0  0  0  0
   -5.8055   -2.1955   -0.6863 H   0  0  0  0  0  0  0  0  0  0  0  0
   -6.0185   -1.5475    1.7138 H   0  0  0  0  0  0  0  0  0  0  0  0
   -7.4030   -0.9731    0.7874 H   0  0  0  0  0  0  0  0  0  0  0  0
   -6.5433    0.8211    2.2954 H   0  0  0  0  0  0  0  0  0  0  0  0
   -7.5543    1.4816    0.1105 H   0  0  0  0  0  0  0  0  0  0  0  0
   -6.2736    2.6014    0.5689 H   0  0  0  0  0  0  0  0  0  0  0  0
   -6.0651    1.9509   -1.8328 H   0  0  0  0  0  0  0  0  0  0  0  0
   -7.1108   -0.3061   -1.6595 H   0  0  0  0  0  0  0  0  0  0  0  0
   -5.5241   -0.4173   -2.4179 H   0  0  0  0  0  0  0  0  0  0  0  0
   -3.9873    2.4514   -0.5454 H   0  0  0  0  0  0  0  0  0  0  0  0
   -3.6957    1.2366   -1.7786 H   0  0  0  0  0  0  0  0  0  0  0  0
   -4.2775    1.7666    1.9137 H   0  0  0  0  0  0  0  0  0  0  0  0
   -4.1685    0.0759    2.3755 H   0  0  0  0  0  0  0  0  0  0  0  0
  1  2  2  0
  2  3  1  0
  3  4  1  0
  4  5  1  0
  5  6  1  0
  6  7  1  0
  7  8  1  0
  8  9  1  0
  9 10  1  0
  2 11  1  0
 11 12  1  0
 12 13  1  0
 13 14  2  0
 13 15  1  0
 15 16  1  0
 16 17  1  0
 17 18  1  0
 18 19  1  0
 19 20  1  0
 20 21  1  0
 21 22  1  0
 22 23  1  0
 22 24  1  0
 20 25  1  0
 10  5  1  0
 24 16  1  0
 25 16  1  0
 23 18  1  0
  3 26  1  0
  3 27  1  0
  4 28  1  0
  4 29  1  0
  5 30  1  0
  6 31  1  0
  6 32  1  0
  7 33  1  0
  7 34  1  0
  8 35  1  0
  8 36  1  0
  9 37  1  0
  9 38  1  0
 10 39  1  0
 10 40  1  0
 11 41  1  0
 12 42  1  0
 15 43  1  0
 17 44  1  0
 17 45  1  0
 18 46  1  0
 19 47  1  0
 19 48  1  0
 20 49  1  0
 21 50  1  0
 21 51  1  0
 22 52  1  0
 23 53  1  0
 23 54  1  0
 24 55  1  0
 24 56  1  0
 25 57  1  0
 25 58  1  0
M  END
$$$$
