
     RDKit          3D

 39 41  0  0  0  0  0  0  0  0999 V2000
    2.4681    2.4686   -1.8122 C   0  0  0  0  0  0  0  0  0  0  0  0
    1.8242    2.3962   -0.4520 C   0  0  0  0  0  0  0  0  0  0  0  0
    2.3628    2.8883    0.5392 O   0  0  0  0  0  0  0  0  0  0  0  0
    0.5192    1.6956   -0.3525 C   0  0  0  0  0  0  0  0  0  0  0  0
    0.4755    0.4526    0.1789 C   0  0  0  0  0  0  0  0  0  0  0  0
    1.5573   -0.2672    0.6753 N   0  0  0  0  0  0  0  0  0  0  0  0
    2.2209    0.1172    1.9469 C   0  0  0  0  0  0  0  0  0  0  0  0
    3.7487    0.1200    1.7909 C   0  0  0  0  0  0  0  0  0  0  0  0
    4.2845   -1.1559    1.4004 O   0  0  0  0  0  0  0  0  0  0  0  0
    3.3830   -1.9343    0.6010 C   0  0  0  0  0  0  0  0  0  0  0  0
    2.4010   -1.0870   -0.2200 C   0  0  0  0  0  0  0  0  0  0  0  0
   -0.7379   -0.1824    0.2134 N   0  0  0  0  0  0  0  0  0  0  0  0
   -1.8796    0.3459   -0.3204 C   0  0  0  0  0  0  0  0  0  0  0  0
   -3.1480   -0.4491   -0.3042 C   0  0  0  0  0  0  0  0  0  0  0  0
   -3.3521   -1.4713    0.6317 C   0  0  0  0  0  0  0  0  0  0  0  0
   -4.5426   -2.2032    0.6205 C   0  0  0  0  0  0  0  0  0  0  0  0
   -5.5327   -1.9158   -0.3185 C   0  0  0  0  0  0  0  0  0  0  0  0
   -5.3401   -0.8919   -1.2443 C   0  0  0  0  0  0  0  0  0  0  0  0
   -4.1528   -0.1575   -1.2361 C   0  0  0  0  0  0  0  0  0  0  0  0
   -1.8993    1.5272   -0.8616 N   0  0  0  0  0  0  0  0  0  0  0  0
   -0.7552    2.3068   -0.8734 C   0  0  0  0  0  0  0  0  0  0  0  0
   -0.8437    3.8871   -1.4826 S   0  0  0  0  0  0  0  0  0  0  0  0
    3.4664    2.0259   -1.7573 H   0  0  0  0  0  0  0  0  0  0  0  0
    2.5408    3.5129   -2.1259 H   0  0  0  0  0  0  0  0  0  0  0  0
    1.8886    1.9131   -2.5549 H   0  0  0  0  0  0  0  0  0  0  0  0
    1.8729    1.0925    2.3029 H   0  0  0  0  0  0  0  0  0  0  0  0
    1.9344   -0.6242    2.7023 H   0  0  0  0  0  0  0  0  0  0  0  0
    4.0638    0.8515    1.0391 H   0  0  0  0  0  0  0  0  0  0  0  0
    4.2237    0.3978    2.7370 H   0  0  0  0  0  0  0  0  0  0  0  0
    3.9888   -2.5591   -0.0628 H   0  0  0  0  0  0  0  0  0  0  0  0
    2.8372   -2.6055    1.2746 H   0  0  0  0  0  0  0  0  0  0  0  0
    1.7676   -1.7451   -0.8251 H   0  0  0  0  0  0  0  0  0  0  0  0
    2.9580   -0.4282   -0.8959 H   0  0  0  0  0  0  0  0  0  0  0  0
   -0.6936   -1.1324    0.5532 H   0  0  0  0  0  0  0  0  0  0  0  0
   -2.6146   -1.6957    1.3956 H   0  0  0  0  0  0  0  0  0  0  0  0
   -4.7038   -2.9918    1.3516 H   0  0  0  0  0  0  0  0  0  0  0  0
   -6.4601   -2.4836   -0.3229 H   0  0  0  0  0  0  0  0  0  0  0  0
   -6.1152   -0.6601   -1.9708 H   0  0  0  0  0  0  0  0  0  0  0  0
   -4.0162    0.6422   -1.9613 H   0  0  0  0  0  0  0  0  0  0  0  0
  1  2  1  0
  2  3  2  0
  2  4  1  0
  4  5  2  0
  5  6  1  0
  6  7  1  0
  7  8  1  0
  8  9  1  0
  9 10  1  0
 10 11  1  0
  5 12  1  0
 12 13  1  0
 13 14  1  0
 14 15  2  0
 15 16  1  0
 16 17  2  0
 17 18  1  0
 18 19  2  0
 13 20  2  0
 20 21  1  0
 21 22  2  0
 21  4  1  0
 11  6  1  0
 19 14  1  0
  1 23  1  0
  1 24  1  0
  1 25  1  0
  7 26  1  0
  7 27  1  0
  8 28  1  0
  8 29  1  0
 10 30  1  0
 10 31  1  0
 11 32  1  0
 11 33  1  0
 12 34  1  0
 15 35  1  0
 16 36  1  0
 17 37  1  0
 18 38  1  0
 19 39  1  0
M  END
$$$$
