
     RDKit          3D

 35 37  0  0  0  0  0  0  0  0999 V2000
   -7.1820   -0.1426    0.6966 C   0  0  0  0  0  0  0  0  0  0  0  0
   -5.7273   -0.1318    1.0966 C   0  0  0  0  0  0  0  0  0  0  0  0
   -5.4038   -0.1371    2.2789 O   0  0  0  0  0  0  0  0  0  0  0  0
   -4.8849   -0.0876    0.0007 N   0  0  0  0  0  0  0  0  0  0  0  0
   -3.4753   -0.0627    0.0010 C   0  0  0  0  0  0  0  0  0  0  0  0
   -2.8362   -0.0075   -1.2418 C   0  0  0  0  0  0  0  0  0  0  0  0
   -1.4390    0.0194   -1.3261 C   0  0  0  0  0  0  0  0  0  0  0  0
   -0.6473   -0.0085   -0.1715 C   0  0  0  0  0  0  0  0  0  0  0  0
    0.8032    0.0209   -0.2974 C   0  0  0  0  0  0  0  0  0  0  0  0
    1.7218    0.0035    0.7324 C   0  0  0  0  0  0  0  0  0  0  0  0
    2.9550    0.0447    0.1319 N   0  0  0  0  0  0  0  0  0  0  0  0
    4.2220    0.0481    0.7107 C   0  0  0  0  0  0  0  0  0  0  0  0
    5.3117    0.0930   -0.0807 C   0  0  0  0  0  0  0  0  0  0  0  0
    6.7159    0.1009    0.4354 C   0  0  0  0  0  0  0  0  0  0  0  0
    5.1124    0.1366   -1.5297 C   0  0  0  0  0  0  0  0  0  0  0  0
    3.8811    0.1329   -2.0778 C   0  0  0  0  0  0  0  0  0  0  0  0
    2.7339    0.0854   -1.2382 C   0  0  0  0  0  0  0  0  0  0  0  0
    1.4480    0.0719   -1.5168 N   0  0  0  0  0  0  0  0  0  0  0  0
   -1.2924   -0.0643    1.0696 C   0  0  0  0  0  0  0  0  0  0  0  0
   -2.6926   -0.0914    1.1546 C   0  0  0  0  0  0  0  0  0  0  0  0
   -7.3360   -0.7444   -0.2037 H   0  0  0  0  0  0  0  0  0  0  0  0
   -7.7770   -0.5815    1.5027 H   0  0  0  0  0  0  0  0  0  0  0  0
   -7.5153    0.8826    0.5157 H   0  0  0  0  0  0  0  0  0  0  0  0
   -5.3245   -0.0626   -0.9106 H   0  0  0  0  0  0  0  0  0  0  0  0
   -3.4074    0.0158   -2.1659 H   0  0  0  0  0  0  0  0  0  0  0  0
   -0.9679    0.0626   -2.3069 H   0  0  0  0  0  0  0  0  0  0  0  0
    1.6204   -0.0331    1.8063 H   0  0  0  0  0  0  0  0  0  0  0  0
    4.2694    0.0138    1.7917 H   0  0  0  0  0  0  0  0  0  0  0  0
    7.2377    1.0098    0.1178 H   0  0  0  0  0  0  0  0  0  0  0  0
    7.2689   -0.7666    0.0600 H   0  0  0  0  0  0  0  0  0  0  0  0
    6.7453    0.0658    1.5298 H   0  0  0  0  0  0  0  0  0  0  0  0
    5.9905    0.1729   -2.1686 H   0  0  0  0  0  0  0  0  0  0  0  0
    3.7351    0.1652   -3.1511 H   0  0  0  0  0  0  0  0  0  0  0  0
   -0.7267   -0.0884    1.9966 H   0  0  0  0  0  0  0  0  0  0  0  0
   -3.1368   -0.1356    2.1441 H   0  0  0  0  0  0  0  0  0  0  0  0
  1  2  1  0
  2  3  2  0
  2  4  1  0
  4  5  1  0
  5  6  2  0
  6  7  1  0
  7  8  2  0
  8  9  1  0
  9 10  2  0
 10 11  1  0
 11 12  1  0
 12 13  2  0
 13 14  1  0
 13 15  1  0
 15 16  2  0
 16 17  1  0
 17 18  2  0
  8 19  1  0
 19 20  2  0
 20  5  1  0
 18  9  1  0
 17 11  1  0
  1 21  1  0
  1 22  1  0
  1 23  1  0
  4 24  1  0
  6 25  1  0
  7 26  1  0
 10 27  1  0
 12 28  1  0
 14 29  1  0
 14 30  1  0
 14 31  1  0
 15 32  1  0
 16 33  1  0
 19 34  1  0
 20 35  1  0
M  END
$$$$
