
     RDKit          3D

 34 36  0  0  0  0  0  0  0  0999 V2000
   -2.5128   -3.1935   -2.0091 O   0  0  0  0  0  0  0  0  0  0  0  0
   -2.2627   -2.1351   -1.4451 C   0  0  0  0  0  0  0  0  0  0  0  0
   -3.2836   -1.2575   -1.0978 O   0  0  0  0  0  0  0  0  0  0  0  0
   -3.0120   -0.0347   -0.4557 C   0  0  0  0  0  0  0  0  0  0  0  0
   -4.1176    0.7640   -0.1594 C   0  0  0  0  0  0  0  0  0  0  0  0
   -3.9239    1.9872    0.4749 C   0  0  0  0  0  0  0  0  0  0  0  0
   -2.6337    2.3981    0.8053 C   0  0  0  0  0  0  0  0  0  0  0  0
   -1.5353    1.5856    0.5014 C   0  0  0  0  0  0  0  0  0  0  0  0
   -1.7071    0.3487   -0.1379 C   0  0  0  0  0  0  0  0  0  0  0  0
   -0.5777   -0.5470   -0.4797 C   0  0  0  0  0  0  0  0  0  0  0  0
    0.7026   -0.0955   -0.1300 N   0  0  0  0  0  0  0  0  0  0  0  0
    1.5777    0.5348   -1.1405 C   0  0  0  0  0  0  0  0  0  0  0  0
    3.0131    0.0376   -1.0170 C   0  0  0  0  0  0  0  0  0  0  0  0
    3.5956    0.3259    0.3661 C   0  0  0  0  0  0  0  0  0  0  0  0
    2.5346    0.3107    1.4662 C   0  0  0  0  0  0  0  0  0  0  0  0
    1.3574   -0.5850    1.0993 C   0  0  0  0  0  0  0  0  0  0  0  0
   -0.9179   -1.6954   -1.0916 C   0  0  0  0  0  0  0  0  0  0  0  0
    0.1291   -2.5973   -1.4470 N   0  0  0  0  0  4  0  0  0  0  0  0
    0.6651   -2.4354   -2.5530 O   0  0  0  0  0  0  0  0  0  0  0  0
    0.4309   -3.4676   -0.6177 O   0  0  0  0  0  1  0  0  0  0  0  0
   -5.1199    0.4353   -0.4208 H   0  0  0  0  0  0  0  0  0  0  0  0
   -4.7755    2.6201    0.7121 H   0  0  0  0  0  0  0  0  0  0  0  0
   -2.4785    3.3536    1.3014 H   0  0  0  0  0  0  0  0  0  0  0  0
   -0.5413    1.9343    0.7727 H   0  0  0  0  0  0  0  0  0  0  0  0
    1.2098    0.3304   -2.1530 H   0  0  0  0  0  0  0  0  0  0  0  0
    1.5437    1.6222   -1.0031 H   0  0  0  0  0  0  0  0  0  0  0  0
    3.6432    0.4974   -1.7864 H   0  0  0  0  0  0  0  0  0  0  0  0
    3.0380   -1.0447   -1.1972 H   0  0  0  0  0  0  0  0  0  0  0  0
    4.3728   -0.4163    0.5847 H   0  0  0  0  0  0  0  0  0  0  0  0
    4.0941    1.3026    0.3674 H   0  0  0  0  0  0  0  0  0  0  0  0
    2.9845   -0.0163    2.4103 H   0  0  0  0  0  0  0  0  0  0  0  0
    2.1722    1.3342    1.6283 H   0  0  0  0  0  0  0  0  0  0  0  0
    1.6989   -1.6170    0.9608 H   0  0  0  0  0  0  0  0  0  0  0  0
    0.6361   -0.5844    1.9251 H   0  0  0  0  0  0  0  0  0  0  0  0
  1  2  2  0
  2  3  1  0
  3  4  1  0
  4  5  2  0
  5  6  1  0
  6  7  2  0
  7  8  1  0
  8  9  2  0
  9 10  1  0
 10 11  1  0
 11 12  1  0
 12 13  1  0
 13 14  1  0
 14 15  1  0
 15 16  1  0
 10 17  2  0
 17 18  1  0
 18 19  2  0
 18 20  1  0
 17  2  1  0
  9  4  1  0
 16 11  1  0
  5 21  1  0
  6 22  1  0
  7 23  1  0
  8 24  1  0
 12 25  1  0
 12 26  1  0
 13 27  1  0
 13 28  1  0
 14 29  1  0
 14 30  1  0
 15 31  1  0
 15 32  1  0
 16 33  1  0
 16 34  1  0
M  CHG  2  18   1  20  -1
M  END
$$$$
