
     RDKit          3D

 47 49  0  0  0  0  0  0  0  0999 V2000
   -3.8044   -3.4955   -2.2872 C   0  0  0  0  0  0  0  0  0  0  0  0
   -3.3300   -2.7100   -1.0777 C   0  0  0  0  0  0  0  0  0  0  0  0
   -2.9660   -1.4032   -1.5201 O   0  0  0  0  0  0  0  0  0  0  0  0
   -2.5637   -0.5091   -0.5645 C   0  0  0  0  0  0  0  0  0  0  0  0
   -2.3529   -0.7911    0.7863 C   0  0  0  0  0  0  0  0  0  0  0  0
   -1.9204    0.2172    1.6551 C   0  0  0  0  0  0  0  0  0  0  0  0
   -1.6773    1.5049    1.1643 C   0  0  0  0  0  0  0  0  0  0  0  0
   -1.0975    2.7764    2.2716 S   0  0  0  0  0  6  0  0  0  0  0  0
   -1.5810    4.0451    1.7720 O   0  0  0  0  0  0  0  0  0  0  0  0
   -1.3929    2.3348    3.6184 O   0  0  0  0  0  0  0  0  0  0  0  0
    0.5844    2.7357    2.0725 N   0  0  0  0  0  0  0  0  0  0  0  0
    1.1519    3.4039    0.8622 C   0  0  0  0  0  0  0  0  0  0  0  0
    2.4774    2.7778    0.4086 C   0  0  0  0  0  0  0  0  0  0  0  0
    2.3447    1.3281    0.2536 N   0  0  0  0  0  0  0  0  0  0  0  0
    2.9326    0.7010   -0.8392 C   0  0  0  0  0  0  0  0  0  0  0  0
    3.6653    1.2656   -1.6456 O   0  0  0  0  0  0  0  0  0  0  0  0
    2.6447   -0.7303   -1.0520 C   0  0  0  0  0  0  0  0  0  0  0  0
    1.3549   -1.1362   -1.3904 C   0  0  0  0  0  0  0  0  0  0  0  0
    1.1389   -2.4886   -1.5706 C   0  0  0  0  0  0  0  0  0  0  0  0
    2.1074   -3.4216   -1.4406 N   0  0  0  0  0  0  0  0  0  0  0  0
    3.3553   -2.9847   -1.1499 C   0  0  0  0  0  0  0  0  0  0  0  0
    3.6776   -1.6552   -0.9510 C   0  0  0  0  0  0  0  0  0  0  0  0
    1.7100    0.6141    1.3673 C   0  0  0  0  0  0  0  0  0  0  0  0
    1.3187    1.5295    2.5359 C   0  0  0  0  0  0  0  0  0  0  0  0
   -1.9251    1.8048   -0.1753 C   0  0  0  0  0  0  0  0  0  0  0  0
   -2.3548    0.7918   -1.0356 C   0  0  0  0  0  0  0  0  0  0  0  0
   -4.1027   -4.5078   -2.0015 H   0  0  0  0  0  0  0  0  0  0  0  0
   -3.0124   -3.5594   -3.0409 H   0  0  0  0  0  0  0  0  0  0  0  0
   -4.6561   -2.9952   -2.7606 H   0  0  0  0  0  0  0  0  0  0  0  0
   -4.1439   -2.6523   -0.3448 H   0  0  0  0  0  0  0  0  0  0  0  0
   -2.4634   -3.2165   -0.6394 H   0  0  0  0  0  0  0  0  0  0  0  0
   -2.5202   -1.7824    1.1961 H   0  0  0  0  0  0  0  0  0  0  0  0
   -1.7713   -0.0129    2.7074 H   0  0  0  0  0  0  0  0  0  0  0  0
    0.4450    3.3414    0.0293 H   0  0  0  0  0  0  0  0  0  0  0  0
    1.3062    4.4634    1.0917 H   0  0  0  0  0  0  0  0  0  0  0  0
    3.2663    2.9565    1.1497 H   0  0  0  0  0  0  0  0  0  0  0  0
    2.7999    3.2407   -0.5305 H   0  0  0  0  0  0  0  0  0  0  0  0
    0.5474   -0.4241   -1.5157 H   0  0  0  0  0  0  0  0  0  0  0  0
    0.1553   -2.8700   -1.8329 H   0  0  0  0  0  0  0  0  0  0  0  0
    4.1125   -3.7616   -1.0797 H   0  0  0  0  0  0  0  0  0  0  0  0
    4.6929   -1.3495   -0.7278 H   0  0  0  0  0  0  0  0  0  0  0  0
    2.3955   -0.1658    1.7163 H   0  0  0  0  0  0  0  0  0  0  0  0
    0.8225    0.1166    0.9727 H   0  0  0  0  0  0  0  0  0  0  0  0
    2.2198    1.8739    3.0566 H   0  0  0  0  0  0  0  0  0  0  0  0
    0.7435    0.9660    3.2758 H   0  0  0  0  0  0  0  0  0  0  0  0
   -1.7917    2.8138   -0.5582 H   0  0  0  0  0  0  0  0  0  0  0  0
   -2.5430    1.0200   -2.0820 H   0  0  0  0  0  0  0  0  0  0  0  0
  1  2  1  0
  2  3  1  0
  3  4  1  0
  4  5  2  0
  5  6  1  0
  6  7  2  0
  7  8  1  0
  8  9  2  0
  8 10  2  0
  8 11  1  0
 11 12  1  0
 12 13  1  0
 13 14  1  0
 14 15  1  0
 15 16  2  0
 15 17  1  0
 17 18  2  0
 18 19  1  0
 19 20  2  0
 20 21  1  0
 21 22  2  0
 14 23  1  0
 23 24  1  0
  7 25  1  0
 25 26  2  0
 26  4  1  0
 24 11  1  0
 22 17  1  0
  1 27  1  0
  1 28  1  0
  1 29  1  0
  2 30  1  0
  2 31  1  0
  5 32  1  0
  6 33  1  0
 12 34  1  0
 12 35  1  0
 13 36  1  0
 13 37  1  0
 18 38  1  0
 19 39  1  0
 21 40  1  0
 22 41  1  0
 23 42  1  0
 23 43  1  0
 24 44  1  0
 24 45  1  0
 25 46  1  0
 26 47  1  0
M  END
$$$$
