
     RDKit          3D

 39 41  0  0  0  0  0  0  0  0999 V2000
    1.9368    3.4396    0.8335 O   0  0  0  0  0  0  0  0  0  0  0  0
    2.7684    2.5441    0.9384 C   0  0  0  0  0  0  0  0  0  0  0  0
    3.8814    2.7867    1.6521 O   0  0  0  0  0  0  0  0  0  0  0  0
    2.6392    1.1532    0.2971 C   0  0  0  0  0  0  0  0  0  0  0  0
    3.6186    0.0345    0.6705 C   0  0  0  0  0  0  0  0  0  0  0  0
    3.2023   -1.3028    0.8212 C   0  0  0  0  0  0  0  0  0  0  0  0
    4.1160   -2.3240    1.1018 C   0  0  0  0  0  0  0  0  0  0  0  0
    5.4724   -2.0395    1.2067 C   0  0  0  0  0  0  0  0  0  0  0  0
    5.9170   -0.7372    1.0134 C   0  0  0  0  0  0  0  0  0  0  0  0
    5.0025    0.2829    0.7335 C   0  0  0  0  0  0  0  0  0  0  0  0
    1.2066    0.7948    0.3926 N   0  0  0  0  0  0  0  0  0  0  0  0
    0.4602    0.7866   -0.7718 C   0  0  0  0  0  0  0  0  0  0  0  0
    0.8781    1.0117   -1.8994 O   0  0  0  0  0  0  0  0  0  0  0  0
   -0.9588    0.4562   -0.4793 C   0  0  0  0  0  0  0  0  0  0  0  0
   -1.8731    0.3564   -1.4537 C   0  0  0  0  0  0  0  0  0  0  0  0
   -3.2903    0.0222   -1.2775 C   0  0  0  0  0  0  0  0  0  0  0  0
   -4.1598    0.8785   -0.5821 C   0  0  0  0  0  0  0  0  0  0  0  0
   -5.5126    0.5543   -0.4329 C   0  0  0  0  0  0  0  0  0  0  0  0
   -5.9902   -0.6250   -0.9897 C   0  0  0  0  0  0  0  0  0  0  0  0
   -7.3006   -0.9988   -0.8789 O   0  0  0  0  0  0  0  0  0  0  0  0
   -5.1328   -1.4699   -1.6898 C   0  0  0  0  0  0  0  0  0  0  0  0
   -5.6133   -2.6251   -2.2379 O   0  0  0  0  0  0  0  0  0  0  0  0
   -3.7889   -1.1568   -1.8426 C   0  0  0  0  0  0  0  0  0  0  0  0
   -1.1737    0.2174    1.2048 S   0  0  0  0  0  0  0  0  0  0  0  0
    0.5137    0.5675    1.5674 C   0  0  0  0  0  0  0  0  0  0  0  0
    1.0700    0.5995    3.1416 S   0  0  0  0  0  0  0  0  0  0  0  0
    3.7507    3.6902    2.0108 H   0  0  0  0  0  0  0  0  0  0  0  0
    2.8726    1.3433   -0.7600 H   0  0  0  0  0  0  0  0  0  0  0  0
    2.1589   -1.5889    0.7163 H   0  0  0  0  0  0  0  0  0  0  0  0
    3.7651   -3.3452    1.2299 H   0  0  0  0  0  0  0  0  0  0  0  0
    6.1822   -2.8332    1.4235 H   0  0  0  0  0  0  0  0  0  0  0  0
    6.9789   -0.5117    1.0720 H   0  0  0  0  0  0  0  0  0  0  0  0
    5.4009    1.2799    0.5562 H   0  0  0  0  0  0  0  0  0  0  0  0
   -1.5733    0.5077   -2.4902 H   0  0  0  0  0  0  0  0  0  0  0  0
   -3.7890    1.8070   -0.1523 H   0  0  0  0  0  0  0  0  0  0  0  0
   -6.1641    1.2291    0.1125 H   0  0  0  0  0  0  0  0  0  0  0  0
   -7.7657   -0.3202   -0.3598 H   0  0  0  0  0  0  0  0  0  0  0  0
   -6.5629   -2.6306   -2.0036 H   0  0  0  0  0  0  0  0  0  0  0  0
   -3.1432   -1.8343   -2.3940 H   0  0  0  0  0  0  0  0  0  0  0  0
  1  2  2  0
  2  3  1  0
  2  4  1  0
  4  5  1  0
  5  6  2  0
  6  7  1  0
  7  8  2  0
  8  9  1  0
  9 10  2  0
  4 11  1  0
 11 12  1  0
 12 13  2  0
 12 14  1  0
 14 15  2  3
 15 16  1  0
 16 17  2  0
 17 18  1  0
 18 19  2  0
 19 20  1  0
 19 21  1  0
 21 22  1  0
 21 23  2  0
 14 24  1  0
 24 25  1  0
 25 26  2  0
 10  5  1  0
 25 11  1  0
 23 16  1  0
  3 27  1  0
  4 28  1  0
  6 29  1  0
  7 30  1  0
  8 31  1  0
  9 32  1  0
 10 33  1  0
 15 34  1  0
 17 35  1  0
 18 36  1  0
 20 37  1  0
 22 38  1  0
 23 39  1  0
M  END
$$$$
