
     RDKit          3D

 54 58  0  0  0  0  0  0  0  0999 V2000
    5.8547   -2.7893    1.3091 C   0  0  0  0  0  0  0  0  0  0  0  0
    4.4421   -2.2376    1.2069 C   0  0  0  0  0  0  0  0  0  0  0  0
    4.3507   -1.0492    0.2608 C   0  0  0  0  0  0  0  0  0  0  0  0
    5.3571   -0.5617   -0.2549 O   0  0  0  0  0  0  0  0  0  0  0  0
    3.0781   -0.5374    0.0146 N   0  0  0  0  0  0  0  0  0  0  0  0
    1.8472   -1.0103    0.6480 C   0  0  0  0  0  0  0  0  0  0  0  0
    0.8423    0.1280    0.7876 C   0  0  0  0  0  0  0  0  0  0  0  0
    0.4172    0.7416   -0.5798 C   0  0  0  0  0  0  0  0  0  0  0  0
    1.5753    0.5491   -1.6094 C   0  0  0  0  0  0  0  0  0  0  0  0
    2.9457    0.5600   -0.9401 C   0  0  0  0  0  0  0  0  0  0  0  0
    0.2538    2.1602   -0.3031 O   0  0  0  0  0  0  0  0  0  0  0  0
   -0.3446    2.9034   -1.2837 C   0  0  0  0  0  0  0  0  0  0  0  0
   -0.1865    4.2850   -1.1905 C   0  0  0  0  0  0  0  0  0  0  0  0
   -0.7455    5.1192   -2.1623 C   0  0  0  0  0  0  0  0  0  0  0  0
   -1.4644    4.5680   -3.2235 C   0  0  0  0  0  0  0  0  0  0  0  0
   -2.1501    5.6013   -4.4152 Cl  0  0  0  0  0  0  0  0  0  0  0  0
   -1.6385    3.1900   -3.3187 C   0  0  0  0  0  0  0  0  0  0  0  0
   -1.0830    2.3633   -2.3372 C   0  0  0  0  0  0  0  0  0  0  0  0
   -1.2912    0.9030   -2.3821 C   0  0  0  0  0  0  0  0  0  0  0  0
   -1.7787    0.3875   -3.3809 O   0  0  0  0  0  0  0  0  0  0  0  0
   -0.9265    0.1543   -1.1046 C   0  0  0  0  0  0  0  0  0  0  0  0
   -2.1234    0.2697   -0.1633 C   0  0  0  0  0  0  0  0  0  0  0  0
   -2.2530   -1.1554    0.2485 C   0  0  0  0  0  0  0  0  0  0  0  0
   -3.1792   -1.5800    1.3248 C   0  0  0  0  0  0  0  0  0  0  0  0
   -3.2264   -2.9329    1.6833 C   0  0  0  0  0  0  0  0  0  0  0  0
   -4.0889   -3.3641    2.6947 C   0  0  0  0  0  0  0  0  0  0  0  0
   -4.9054   -2.4434    3.3484 C   0  0  0  0  0  0  0  0  0  0  0  0
   -5.9674   -2.9694    4.5934 Cl  0  0  0  0  0  0  0  0  0  0  0  0
   -4.8674   -1.0966    2.9981 C   0  0  0  0  0  0  0  0  0  0  0  0
   -4.0061   -0.6627    1.9848 C   0  0  0  0  0  0  0  0  0  0  0  0
   -1.4930   -1.9797   -0.3962 N   0  0  0  0  0  0  0  0  0  0  0  0
   -0.7879   -1.2431   -1.3731 O   0  0  0  0  0  0  0  0  0  0  0  0
    5.8843   -3.6396    1.9998 H   0  0  0  0  0  0  0  0  0  0  0  0
    6.2154   -3.1278    0.3320 H   0  0  0  0  0  0  0  0  0  0  0  0
    6.5481   -2.0258    1.6789 H   0  0  0  0  0  0  0  0  0  0  0  0
    4.1230   -1.9168    2.2047 H   0  0  0  0  0  0  0  0  0  0  0  0
    3.7738   -3.0301    0.8511 H   0  0  0  0  0  0  0  0  0  0  0  0
    1.4501   -1.8260    0.0333 H   0  0  0  0  0  0  0  0  0  0  0  0
    2.0625   -1.4206    1.6380 H   0  0  0  0  0  0  0  0  0  0  0  0
    1.2959    0.9114    1.4119 H   0  0  0  0  0  0  0  0  0  0  0  0
   -0.0165   -0.2199    1.3672 H   0  0  0  0  0  0  0  0  0  0  0  0
    1.4631   -0.4087   -2.1336 H   0  0  0  0  0  0  0  0  0  0  0  0
    1.5683    1.3335   -2.3742 H   0  0  0  0  0  0  0  0  0  0  0  0
    3.7280    0.4866   -1.7045 H   0  0  0  0  0  0  0  0  0  0  0  0
    3.1072    1.4977   -0.3926 H   0  0  0  0  0  0  0  0  0  0  0  0
    0.3833    4.7146   -0.3698 H   0  0  0  0  0  0  0  0  0  0  0  0
   -0.6126    6.1958   -2.0894 H   0  0  0  0  0  0  0  0  0  0  0  0
   -2.2076    2.7625   -4.1413 H   0  0  0  0  0  0  0  0  0  0  0  0
   -3.0480    0.5770   -0.6675 H   0  0  0  0  0  0  0  0  0  0  0  0
   -1.9422    0.9309    0.6893 H   0  0  0  0  0  0  0  0  0  0  0  0
   -2.5973   -3.6624    1.1753 H   0  0  0  0  0  0  0  0  0  0  0  0
   -4.1201   -4.4159    2.9606 H   0  0  0  0  0  0  0  0  0  0  0  0
   -5.5091   -0.3795    3.5067 H   0  0  0  0  0  0  0  0  0  0  0  0
   -4.0065    0.3917    1.7301 H   0  0  0  0  0  0  0  0  0  0  0  0
  1  2  1  0
  2  3  1  0
  3  4  2  0
  3  5  1  0
  5  6  1  0
  6  7  1  0
  7  8  1  0
  8  9  1  0
  9 10  1  0
  8 11  1  0
 11 12  1  0
 12 13  2  0
 13 14  1  0
 14 15  2  0
 15 16  1  0
 15 17  1  0
 17 18  2  0
 18 19  1  0
 19 20  2  0
 19 21  1  0
 21 22  1  0
 22 23  1  0
 23 24  1  0
 24 25  2  0
 25 26  1  0
 26 27  2  0
 27 28  1  0
 27 29  1  0
 29 30  2  0
 23 31  2  0
 31 32  1  0
 10  5  1  0
 18 12  1  0
 32 21  1  0
 21  8  1  0
 30 24  1  0
  1 33  1  0
  1 34  1  0
  1 35  1  0
  2 36  1  0
  2 37  1  0
  6 38  1  0
  6 39  1  0
  7 40  1  0
  7 41  1  0
  9 42  1  0
  9 43  1  0
 10 44  1  0
 10 45  1  0
 13 46  1  0
 14 47  1  0
 17 48  1  0
 22 49  1  0
 22 50  1  0
 25 51  1  0
 26 52  1  0
 29 53  1  0
 30 54  1  0
M  END
$$$$
