
     RDKit          3D

 46 49  0  0  0  0  0  0  0  0999 V2000
   -1.2751   -1.6236    2.3776 O   0  0  0  0  0  0  0  0  0  0  0  0
   -1.1301   -0.9843    1.3378 C   0  0  0  0  0  0  0  0  0  0  0  0
    0.1960   -0.7945    0.7810 C   0  0  0  0  0  0  0  0  0  0  0  0
    1.0809   -1.8155    0.4966 C   0  0  0  0  0  0  0  0  0  0  0  0
    2.2158   -1.2414   -0.0185 N   0  0  0  0  0  0  0  0  0  0  0  0
    3.3982   -1.8921   -0.4728 C   0  0  0  0  0  0  0  0  0  0  0  0
    4.4582   -1.1223   -0.9777 C   0  0  0  0  0  0  0  0  0  0  0  0
    5.6261   -1.7405   -1.4296 C   0  0  0  0  0  0  0  0  0  0  0  0
    5.7453   -3.1275   -1.3809 C   0  0  0  0  0  0  0  0  0  0  0  0
    4.6982   -3.8991   -0.8797 C   0  0  0  0  0  0  0  0  0  0  0  0
    3.5257   -3.2876   -0.4253 C   0  0  0  0  0  0  0  0  0  0  0  0
    2.1015    0.1080   -0.0746 N   0  0  0  0  0  0  0  0  0  0  0  0
    0.9090    0.3958    0.4687 C   0  0  0  0  0  0  0  0  0  0  0  0
    0.5057    1.7909    0.6638 C   0  0  0  0  0  0  0  0  0  0  0  0
    0.8537    2.7618   -0.2903 C   0  0  0  0  0  0  0  0  0  0  0  0
    0.4634    4.0925   -0.1243 C   0  0  0  0  0  0  0  0  0  0  0  0
   -0.2687    4.4552    0.9991 C   0  0  0  0  0  0  0  0  0  0  0  0
   -0.6452    5.7305    1.1582 F   0  0  0  0  0  0  0  0  0  0  0  0
   -0.6123    3.5148    1.9627 C   0  0  0  0  0  0  0  0  0  0  0  0
   -0.2220    2.1830    1.7987 C   0  0  0  0  0  0  0  0  0  0  0  0
   -2.2111   -0.4270    0.6536 N   0  0  0  0  0  0  0  0  0  0  0  0
   -2.1581    0.0512   -0.7326 C   0  0  0  0  0  0  0  0  0  0  0  0
   -3.4524   -0.2506   -1.4813 C   0  0  0  0  0  0  0  0  0  0  0  0
   -4.6695    0.3718   -0.7962 C   0  0  0  0  0  0  0  0  0  0  0  0
   -4.4914    0.5247    0.7146 C   0  0  0  0  0  0  0  0  0  0  0  0
   -3.5272   -0.5090    1.2820 C   0  0  0  0  0  0  0  0  0  0  0  0
    0.9699   -2.8817    0.6208 H   0  0  0  0  0  0  0  0  0  0  0  0
    4.3903   -0.0368   -1.0235 H   0  0  0  0  0  0  0  0  0  0  0  0
    6.4425   -1.1367   -1.8177 H   0  0  0  0  0  0  0  0  0  0  0  0
    6.6555   -3.6072   -1.7317 H   0  0  0  0  0  0  0  0  0  0  0  0
    4.7954   -4.9815   -0.8405 H   0  0  0  0  0  0  0  0  0  0  0  0
    2.7389   -3.9289   -0.0407 H   0  0  0  0  0  0  0  0  0  0  0  0
    1.4331    2.4817   -1.1683 H   0  0  0  0  0  0  0  0  0  0  0  0
    0.7301    4.8440   -0.8603 H   0  0  0  0  0  0  0  0  0  0  0  0
   -1.1743    3.8231    2.8386 H   0  0  0  0  0  0  0  0  0  0  0  0
   -0.4807    1.4648    2.5737 H   0  0  0  0  0  0  0  0  0  0  0  0
   -1.3191   -0.4077   -1.2636 H   0  0  0  0  0  0  0  0  0  0  0  0
   -1.9941    1.1335   -0.7016 H   0  0  0  0  0  0  0  0  0  0  0  0
   -3.3871    0.1044   -2.5158 H   0  0  0  0  0  0  0  0  0  0  0  0
   -3.5902   -1.3386   -1.5297 H   0  0  0  0  0  0  0  0  0  0  0  0
   -4.8781    1.3576   -1.2290 H   0  0  0  0  0  0  0  0  0  0  0  0
   -5.5493   -0.2476   -1.0079 H   0  0  0  0  0  0  0  0  0  0  0  0
   -4.1008    1.5288    0.9254 H   0  0  0  0  0  0  0  0  0  0  0  0
   -5.4647    0.4550    1.2129 H   0  0  0  0  0  0  0  0  0  0  0  0
   -3.9094   -1.5240    1.1187 H   0  0  0  0  0  0  0  0  0  0  0  0
   -3.4227   -0.3674    2.3637 H   0  0  0  0  0  0  0  0  0  0  0  0
  1  2  2  0
  2  3  1  0
  3  4  2  0
  4  5  1  0
  5  6  1  0
  6  7  2  0
  7  8  1  0
  8  9  2  0
  9 10  1  0
 10 11  2  0
  5 12  1  0
 12 13  2  0
 13 14  1  0
 14 15  2  0
 15 16  1  0
 16 17  2  0
 17 18  1  0
 17 19  1  0
 19 20  2  0
  2 21  1  0
 21 22  1  0
 22 23  1  0
 23 24  1  0
 24 25  1  0
 25 26  1  0
 13  3  1  0
 20 14  1  0
 26 21  1  0
 11  6  1  0
  4 27  1  0
  7 28  1  0
  8 29  1  0
  9 30  1  0
 10 31  1  0
 11 32  1  0
 15 33  1  0
 16 34  1  0
 19 35  1  0
 20 36  1  0
 22 37  1  0
 22 38  1  0
 23 39  1  0
 23 40  1  0
 24 41  1  0
 24 42  1  0
 25 43  1  0
 25 44  1  0
 26 45  1  0
 26 46  1  0
M  END
$$$$
