
     RDKit          3D

 49 52  0  0  0  0  0  0  0  0999 V2000
   -7.5873   -1.7415   -0.2475 C   0  0  0  0  0  0  0  0  0  0  0  0
   -6.5713   -0.6379   -0.2617 C   0  0  0  0  0  0  0  0  0  0  0  0
   -6.9704    0.6930   -0.1016 C   0  0  0  0  0  0  0  0  0  0  0  0
   -6.0243    1.7240   -0.0909 C   0  0  0  0  0  0  0  0  0  0  0  0
   -6.4539    3.1484    0.1065 C   0  0  0  0  0  0  0  0  0  0  0  0
   -4.6612    1.4100   -0.2073 C   0  0  0  0  0  0  0  0  0  0  0  0
   -4.2421    0.0871   -0.3560 C   0  0  0  0  0  0  0  0  0  0  0  0
   -2.8910   -0.3035   -0.4726 N   0  0  0  0  0  0  0  0  0  0  0  0
   -1.7827    0.5187   -0.5503 C   0  0  0  0  0  0  0  0  0  0  0  0
   -1.7636    1.7422   -0.5945 O   0  0  0  0  0  0  0  0  0  0  0  0
   -0.4819   -0.2013   -0.6176 C   0  0  0  0  0  0  0  0  0  0  0  0
    0.5154    0.2938   -1.4654 C   0  0  0  0  0  0  0  0  0  0  0  0
    1.7489   -0.3569   -1.5465 C   0  0  0  0  0  0  0  0  0  0  0  0
    2.0067   -1.4856   -0.7622 C   0  0  0  0  0  0  0  0  0  0  0  0
    3.2352   -2.1509   -0.8300 N   0  0  0  0  0  0  0  0  0  0  0  0
    4.2628   -1.6101   -0.2802 C   0  0  0  0  0  0  0  0  0  0  0  0
    4.3961   -0.4400    0.4233 N   0  0  0  0  0  0  0  0  0  0  0  0
    5.6016   -0.3454    1.2365 C   0  0  0  0  0  0  0  0  0  0  0  0
    6.0351    1.0953    1.4605 C   0  0  0  0  0  0  0  0  0  0  0  0
    7.4014    1.3834    0.3585 S   0  0  0  0  0  6  0  0  0  0  0  0
    8.6195    1.3353    1.1416 O   0  0  0  0  0  0  0  0  0  0  0  0
    7.0881    2.4941   -0.5134 O   0  0  0  0  0  0  0  0  0  0  0  0
    7.2804   -0.1329   -0.5544 C   0  0  0  0  0  0  0  0  0  0  0  0
    6.6931   -1.0991    0.4597 C   0  0  0  0  0  0  0  0  0  0  0  0
    5.8075   -2.4597   -0.3659 S   0  0  0  0  0  0  0  0  0  0  0  0
    1.0070   -1.9756    0.0830 C   0  0  0  0  0  0  0  0  0  0  0  0
   -0.2327   -1.3353    0.1652 C   0  0  0  0  0  0  0  0  0  0  0  0
   -5.2052   -0.9310   -0.3765 C   0  0  0  0  0  0  0  0  0  0  0  0
   -7.7409   -2.0953    0.7766 H   0  0  0  0  0  0  0  0  0  0  0  0
   -7.2592   -2.5822   -0.8677 H   0  0  0  0  0  0  0  0  0  0  0  0
   -8.5454   -1.3964   -0.6504 H   0  0  0  0  0  0  0  0  0  0  0  0
   -8.0264    0.9304    0.0136 H   0  0  0  0  0  0  0  0  0  0  0  0
   -7.4652    3.3098   -0.2814 H   0  0  0  0  0  0  0  0  0  0  0  0
   -5.7886    3.8342   -0.4286 H   0  0  0  0  0  0  0  0  0  0  0  0
   -6.4401    3.3988    1.1717 H   0  0  0  0  0  0  0  0  0  0  0  0
   -3.9425    2.2234   -0.1725 H   0  0  0  0  0  0  0  0  0  0  0  0
   -2.7330   -1.2969   -0.5801 H   0  0  0  0  0  0  0  0  0  0  0  0
    0.3296    1.1795   -2.0702 H   0  0  0  0  0  0  0  0  0  0  0  0
    2.5132    0.0176   -2.2230 H   0  0  0  0  0  0  0  0  0  0  0  0
    3.5307   -0.0713    0.8073 H   0  0  0  0  0  0  0  0  0  0  0  0
    5.3972   -0.8294    2.1998 H   0  0  0  0  0  0  0  0  0  0  0  0
    5.2444    1.8209    1.2529 H   0  0  0  0  0  0  0  0  0  0  0  0
    6.4074    1.2404    2.4790 H   0  0  0  0  0  0  0  0  0  0  0  0
    6.6267    0.0564   -1.4122 H   0  0  0  0  0  0  0  0  0  0  0  0
    8.2724   -0.4304   -0.9026 H   0  0  0  0  0  0  0  0  0  0  0  0
    7.4657   -1.4804    1.1361 H   0  0  0  0  0  0  0  0  0  0  0  0
    1.2022   -2.8620    0.6819 H   0  0  0  0  0  0  0  0  0  0  0  0
   -0.9794   -1.7164    0.8566 H   0  0  0  0  0  0  0  0  0  0  0  0
   -4.9000   -1.9692   -0.4827 H   0  0  0  0  0  0  0  0  0  0  0  0
  1  2  1  0
  2  3  2  0
  3  4  1  0
  4  5  1  0
  4  6  2  0
  6  7  1  0
  7  8  1  0
  8  9  1  0
  9 10  2  0
  9 11  1  0
 11 12  2  0
 12 13  1  0
 13 14  2  0
 14 15  1  0
 15 16  2  3
 16 17  1  0
 17 18  1  0
 18 19  1  0
 19 20  1  0
 20 21  2  0
 20 22  2  0
 20 23  1  0
 23 24  1  0
 24 25  1  0
 14 26  1  0
 26 27  2  0
  7 28  2  0
 28  2  1  0
 27 11  1  0
 25 16  1  0
 24 18  1  0
  1 29  1  0
  1 30  1  0
  1 31  1  0
  3 32  1  0
  5 33  1  0
  5 34  1  0
  5 35  1  0
  6 36  1  0
  8 37  1  0
 12 38  1  0
 13 39  1  0
 17 40  1  0
 18 41  1  0
 19 42  1  0
 19 43  1  0
 23 44  1  0
 23 45  1  0
 24 46  1  0
 26 47  1  0
 27 48  1  0
 28 49  1  0
M  END
$$$$
