
     RDKit          3D

 46 50  0  0  0  0  0  0  0  0999 V2000
    0.7811    2.2975   -1.2942 O   0  0  0  0  0  0  0  0  0  0  0  0
    0.4979    1.2419   -0.7462 C   0  0  0  0  0  0  0  0  0  0  0  0
    1.3873    0.3076   -0.2456 N   0  0  0  0  0  0  0  0  0  0  0  0
    2.8067    0.3254   -0.2864 C   0  0  0  0  0  0  0  0  0  0  0  0
    3.4999    1.3245   -0.9824 C   0  0  0  0  0  0  0  0  0  0  0  0
    4.8911    1.3305   -1.0326 C   0  0  0  0  0  0  0  0  0  0  0  0
    5.6142    0.3345   -0.3894 C   0  0  0  0  0  0  0  0  0  0  0  0
    4.9609   -0.6831    0.3155 C   0  0  0  0  0  0  0  0  0  0  0  0
    5.7262   -1.6739    0.9533 C   0  0  0  0  0  0  0  0  0  0  0  0
    5.1205   -2.7026    1.6689 C   0  0  0  0  0  0  0  0  0  0  0  0
    3.7383   -2.7520    1.7570 C   0  0  0  0  0  0  0  0  0  0  0  0
    2.9624   -1.7733    1.1270 C   0  0  0  0  0  0  0  0  0  0  0  0
    3.5414   -0.7089    0.3835 C   0  0  0  0  0  0  0  0  0  0  0  0
   -0.8870    0.8413   -0.5617 C   0  0  0  0  0  0  0  0  0  0  0  0
   -1.3978   -0.4097   -0.8687 C   0  0  0  0  0  0  0  0  0  0  0  0
   -2.7492   -0.3758   -0.6224 N   0  0  0  0  0  0  0  0  0  0  0  0
   -3.7016   -1.4174   -0.8093 C   0  0  0  0  0  0  0  0  0  0  0  0
   -5.0465   -1.1869   -0.4785 C   0  0  0  0  0  0  0  0  0  0  0  0
   -5.9982   -2.1941   -0.6513 C   0  0  0  0  0  0  0  0  0  0  0  0
   -5.6168   -3.4355   -1.1548 C   0  0  0  0  0  0  0  0  0  0  0  0
   -4.2840   -3.6724   -1.4873 C   0  0  0  0  0  0  0  0  0  0  0  0
   -3.3249   -2.6691   -1.3169 C   0  0  0  0  0  0  0  0  0  0  0  0
   -3.1236    0.8251   -0.1360 N   0  0  0  0  0  0  0  0  0  0  0  0
   -2.0115    1.5717   -0.1015 C   0  0  0  0  0  0  0  0  0  0  0  0
   -2.0908    3.0534    0.4585 C   0  0  0  0  0  0  0  0  0  0  0  0
   -1.0371    3.9226    0.6478 C   0  0  0  0  0  0  0  0  0  0  0  0
   -1.4553    5.1830    1.1754 C   0  0  0  0  0  0  0  0  0  0  0  0
   -2.8145    5.2318    1.3797 C   0  0  0  0  0  0  0  0  0  0  0  0
   -3.5768    3.7671    0.9427 S   0  0  0  0  0  0  0  0  0  0  0  0
    0.9647   -0.4636    0.2458 H   0  0  0  0  0  0  0  0  0  0  0  0
    2.9868    2.1200   -1.5129 H   0  0  0  0  0  0  0  0  0  0  0  0
    5.4091    2.1148   -1.5791 H   0  0  0  0  0  0  0  0  0  0  0  0
    6.7007    0.3611   -0.4448 H   0  0  0  0  0  0  0  0  0  0  0  0
    6.8131   -1.6503    0.8979 H   0  0  0  0  0  0  0  0  0  0  0  0
    5.7288   -3.4593    2.1570 H   0  0  0  0  0  0  0  0  0  0  0  0
    3.2577   -3.5496    2.3181 H   0  0  0  0  0  0  0  0  0  0  0  0
    1.8877   -1.8668    1.2421 H   0  0  0  0  0  0  0  0  0  0  0  0
   -0.9114   -1.2822   -1.2772 H   0  0  0  0  0  0  0  0  0  0  0  0
   -5.3701   -0.2243   -0.0846 H   0  0  0  0  0  0  0  0  0  0  0  0
   -7.0374   -2.0058   -0.3931 H   0  0  0  0  0  0  0  0  0  0  0  0
   -6.3595   -4.2178   -1.2901 H   0  0  0  0  0  0  0  0  0  0  0  0
   -3.9912   -4.6421   -1.8831 H   0  0  0  0  0  0  0  0  0  0  0  0
   -2.3017   -2.9000   -1.5941 H   0  0  0  0  0  0  0  0  0  0  0  0
   -0.0025    3.6994    0.4314 H   0  0  0  0  0  0  0  0  0  0  0  0
   -0.7880    6.0082    1.3920 H   0  0  0  0  0  0  0  0  0  0  0  0
   -3.3989    6.0550    1.7666 H   0  0  0  0  0  0  0  0  0  0  0  0
  1  2  2  0
  2  3  1  0
  3  4  1  0
  4  5  2  0
  5  6  1  0
  6  7  2  0
  7  8  1  0
  8  9  2  0
  9 10  1  0
 10 11  2  0
 11 12  1  0
 12 13  2  0
  2 14  1  0
 14 15  2  0
 15 16  1  0
 16 17  1  0
 17 18  2  0
 18 19  1  0
 19 20  2  0
 20 21  1  0
 21 22  2  0
 16 23  1  0
 23 24  2  0
 24 25  1  0
 25 26  2  0
 26 27  1  0
 27 28  2  0
 28 29  1  0
 13  4  1  0
 24 14  1  0
 29 25  1  0
 13  8  1  0
 22 17  1  0
  3 30  1  0
  5 31  1  0
  6 32  1  0
  7 33  1  0
  9 34  1  0
 10 35  1  0
 11 36  1  0
 12 37  1  0
 15 38  1  0
 18 39  1  0
 19 40  1  0
 20 41  1  0
 21 42  1  0
 22 43  1  0
 26 44  1  0
 27 45  1  0
 28 46  1  0
M  END
$$$$
