
     RDKit          3D

 72 76  0  0  0  0  0  0  0  0999 V2000
    9.7583   -1.0108   -1.5033 C   0  0  0  0  0  0  0  0  0  0  0  0
    8.8951    0.0833   -1.2209 O   0  0  0  0  0  0  0  0  0  0  0  0
    7.5640   -0.1975   -1.0867 C   0  0  0  0  0  0  0  0  0  0  0  0
    6.9664   -1.4460   -1.2546 C   0  0  0  0  0  0  0  0  0  0  0  0
    5.5830   -1.5919   -1.0902 C   0  0  0  0  0  0  0  0  0  0  0  0
    4.7793   -0.4911   -0.7621 C   0  0  0  0  0  0  0  0  0  0  0  0
    3.3293   -0.6542   -0.5903 C   0  0  0  0  0  0  0  0  0  0  0  0
    2.8716   -1.7213    0.0763 N   0  0  0  0  0  0  0  0  0  0  0  0
    1.2235   -1.6671    0.1514 S   0  0  0  0  0  0  0  0  0  0  0  0
    1.0436   -0.1845   -0.6728 C   0  0  0  0  0  0  0  0  0  0  0  0
   -0.2615    0.3696   -0.9687 C   0  0  0  0  0  0  0  0  0  0  0  0
   -0.5447    0.6699   -2.1322 O   0  0  0  0  0  0  0  0  0  0  0  0
   -1.2314    0.4852    0.0480 N   0  0  0  0  0  0  0  0  0  0  0  0
   -0.9229    0.5324    1.4477 C   0  0  0  0  0  0  0  0  0  0  0  0
   -1.7482   -0.0921    2.3956 C   0  0  0  0  0  0  0  0  0  0  0  0
   -1.4496   -0.0229    3.7598 C   0  0  0  0  0  0  0  0  0  0  0  0
   -0.3299    0.6777    4.1846 C   0  0  0  0  0  0  0  0  0  0  0  0
   -0.0476    0.7456    5.4919 F   0  0  0  0  0  0  0  0  0  0  0  0
    0.4976    1.3118    3.2702 C   0  0  0  0  0  0  0  0  0  0  0  0
    0.2000    1.2436    1.9059 C   0  0  0  0  0  0  0  0  0  0  0  0
   -2.6459    0.6923   -0.3820 C   0  0  0  0  0  0  0  0  0  0  0  0
   -3.3968   -0.6654   -0.4026 C   0  0  0  0  0  0  0  0  0  0  0  0
   -4.4902   -0.8771    0.1156 O   0  0  0  0  0  0  0  0  0  0  0  0
   -2.7440   -1.6521   -1.1326 N   0  0  0  0  0  0  0  0  0  0  0  0
   -3.2818   -2.9894   -1.2527 C   0  0  0  0  0  0  0  0  0  0  0  0
   -3.1651   -3.7889    0.0460 C   0  0  0  0  0  0  0  0  0  0  0  0
   -3.1118   -5.2558   -0.3779 C   0  0  0  0  0  0  0  0  0  0  0  0
   -2.9366   -5.2589   -1.8937 C   0  0  0  0  0  0  0  0  0  0  0  0
   -2.5042   -3.8448   -2.2458 C   0  0  0  0  0  0  0  0  0  0  0  0
   -3.2968    1.9136    0.2717 C   0  0  0  0  0  0  0  0  0  0  0  0
   -2.8358    3.1899   -0.1097 C   0  0  0  0  0  0  0  0  0  0  0  0
   -3.3504    4.3571    0.4674 C   0  0  0  0  0  0  0  0  0  0  0  0
   -4.3386    4.2753    1.4438 C   0  0  0  0  0  0  0  0  0  0  0  0
   -4.9234    5.3292    2.0895 O   0  0  0  0  0  0  0  0  0  0  0  0
   -4.3942    6.6205    1.8193 C   0  0  0  0  0  0  0  0  0  0  0  0
   -4.8071    3.0188    1.8273 C   0  0  0  0  0  0  0  0  0  0  0  0
   -4.2913    1.8507    1.2542 C   0  0  0  0  0  0  0  0  0  0  0  0
    2.2927    0.2280   -1.0972 C   0  0  0  0  0  0  0  0  0  0  0  0
    2.4932    1.3222   -1.8840 N   0  0  0  0  0  0  0  0  0  0  0  0
    5.3880    0.7567   -0.5815 C   0  0  0  0  0  0  0  0  0  0  0  0
    6.7683    0.9000   -0.7489 C   0  0  0  0  0  0  0  0  0  0  0  0
    9.5098   -1.4747   -2.4639 H   0  0  0  0  0  0  0  0  0  0  0  0
   10.7789   -0.6233   -1.5756 H   0  0  0  0  0  0  0  0  0  0  0  0
    9.7382   -1.7457   -0.6914 H   0  0  0  0  0  0  0  0  0  0  0  0
    7.5430   -2.3290   -1.5098 H   0  0  0  0  0  0  0  0  0  0  0  0
    5.1347   -2.5751   -1.2202 H   0  0  0  0  0  0  0  0  0  0  0  0
   -2.6229   -0.6666    2.1049 H   0  0  0  0  0  0  0  0  0  0  0  0
   -2.0869   -0.5111    4.4903 H   0  0  0  0  0  0  0  0  0  0  0  0
    1.3599    1.8689    3.6246 H   0  0  0  0  0  0  0  0  0  0  0  0
    0.8402    1.7915    1.2189 H   0  0  0  0  0  0  0  0  0  0  0  0
   -2.6526    0.9570   -1.4503 H   0  0  0  0  0  0  0  0  0  0  0  0
   -2.0183   -1.3640   -1.7808 H   0  0  0  0  0  0  0  0  0  0  0  0
   -4.3343   -2.9195   -1.5549 H   0  0  0  0  0  0  0  0  0  0  0  0
   -2.2433   -3.5310    0.5840 H   0  0  0  0  0  0  0  0  0  0  0  0
   -3.9990   -3.5919    0.7284 H   0  0  0  0  0  0  0  0  0  0  0  0
   -2.2744   -5.7606    0.1153 H   0  0  0  0  0  0  0  0  0  0  0  0
   -4.0268   -5.7861   -0.0944 H   0  0  0  0  0  0  0  0  0  0  0  0
   -3.8952   -5.4866   -2.3748 H   0  0  0  0  0  0  0  0  0  0  0  0
   -2.2120   -6.0089   -2.2246 H   0  0  0  0  0  0  0  0  0  0  0  0
   -1.4219   -3.7327   -2.1015 H   0  0  0  0  0  0  0  0  0  0  0  0
   -2.7307   -3.5871   -3.2847 H   0  0  0  0  0  0  0  0  0  0  0  0
   -2.0570    3.2839   -0.8654 H   0  0  0  0  0  0  0  0  0  0  0  0
   -2.9552    5.3093    0.1312 H   0  0  0  0  0  0  0  0  0  0  0  0
   -4.5605    6.9074    0.7771 H   0  0  0  0  0  0  0  0  0  0  0  0
   -3.3316    6.6749    2.0777 H   0  0  0  0  0  0  0  0  0  0  0  0
   -4.9253    7.3385    2.4504 H   0  0  0  0  0  0  0  0  0  0  0  0
   -5.5802    2.9436    2.5886 H   0  0  0  0  0  0  0  0  0  0  0  0
   -4.6865    0.9017    1.6073 H   0  0  0  0  0  0  0  0  0  0  0  0
    3.3650    1.3910   -2.4081 H   0  0  0  0  0  0  0  0  0  0  0  0
    1.7113    1.6651   -2.4462 H   0  0  0  0  0  0  0  0  0  0  0  0
    4.8000    1.6257   -0.2938 H   0  0  0  0  0  0  0  0  0  0  0  0
    7.2299    1.8737   -0.6027 H   0  0  0  0  0  0  0  0  0  0  0  0
  1  2  1  0
  2  3  1  0
  3  4  2  0
  4  5  1  0
  5  6  2  0
  6  7  1  0
  7  8  2  0
  8  9  1  0
  9 10  1  0
 10 11  1  0
 11 12  2  0
 11 13  1  0
 13 14  1  0
 14 15  2  0
 15 16  1  0
 16 17  2  0
 17 18  1  0
 17 19  1  0
 19 20  2  0
 13 21  1  0
 21 22  1  0
 22 23  2  0
 22 24  1  0
 24 25  1  0
 25 26  1  0
 26 27  1  0
 27 28  1  0
 28 29  1  0
 21 30  1  0
 30 31  2  0
 31 32  1  0
 32 33  2  0
 33 34  1  0
 34 35  1  0
 33 36  1  0
 36 37  2  0
 10 38  2  0
 38 39  1  0
  6 40  1  0
 40 41  2  0
 41  3  1  0
 38  7  1  0
 20 14  1  0
 29 25  1  0
 37 30  1  0
  1 42  1  0
  1 43  1  0
  1 44  1  0
  4 45  1  0
  5 46  1  0
 15 47  1  0
 16 48  1  0
 19 49  1  0
 20 50  1  0
 21 51  1  0
 24 52  1  0
 25 53  1  0
 26 54  1  0
 26 55  1  0
 27 56  1  0
 27 57  1  0
 28 58  1  0
 28 59  1  0
 29 60  1  0
 29 61  1  0
 31 62  1  0
 32 63  1  0
 35 64  1  0
 35 65  1  0
 35 66  1  0
 36 67  1  0
 37 68  1  0
 39 69  1  0
 39 70  1  0
 40 71  1  0
 41 72  1  0
M  END
$$$$
