
     RDKit          3D

 45 47  0  0  0  0  0  0  0  0999 V2000
   -2.7080   -2.0584   -0.1803 O   0  0  0  0  0  0  0  0  0  0  0  0
   -2.3883   -0.9835    0.3221 C   0  0  0  0  0  0  0  0  0  0  0  0
   -1.1235   -0.8038    1.1676 C   0  0  0  0  0  0  0  0  0  0  0  0
   -0.2026   -1.8806    1.0154 O   0  0  0  0  0  0  0  0  0  0  0  0
    0.4589   -1.8752   -0.1764 C   0  0  0  0  0  0  0  0  0  0  0  0
    0.3722   -0.9890   -1.0188 O   0  0  0  0  0  0  0  0  0  0  0  0
    1.2967   -3.1183   -0.3465 C   0  0  0  0  0  0  0  0  0  0  0  0
    2.6380   -3.2242    0.8845 S   0  0  0  0  0  0  0  0  0  0  0  0
    3.5138   -1.6961    0.5903 C   0  0  0  0  0  0  0  0  0  0  0  0
    3.8375   -0.8960    1.6881 C   0  0  0  0  0  0  0  0  0  0  0  0
    4.5318    0.3035    1.5108 C   0  0  0  0  0  0  0  0  0  0  0  0
    4.9232    0.7208    0.2307 C   0  0  0  0  0  0  0  0  0  0  0  0
    5.6217    1.9230    0.0339 C   0  0  0  0  0  0  0  0  0  0  0  0
    6.0064    2.3227   -1.2470 C   0  0  0  0  0  0  0  0  0  0  0  0
    5.6980    1.5263   -2.3455 C   0  0  0  0  0  0  0  0  0  0  0  0
    5.0058    0.3275   -2.1659 C   0  0  0  0  0  0  0  0  0  0  0  0
    4.6107   -0.0894   -0.8841 C   0  0  0  0  0  0  0  0  0  0  0  0
    3.9140   -1.2950   -0.6882 C   0  0  0  0  0  0  0  0  0  0  0  0
   -3.1396    0.1678    0.1905 N   0  0  0  0  0  0  0  0  0  0  0  0
   -4.4017    0.1716   -0.5318 C   0  0  0  0  0  0  0  0  0  0  0  0
   -4.8415    1.5894   -0.8841 C   0  0  0  0  0  0  0  0  0  0  0  0
   -5.5201    2.1167    0.3786 C   0  0  0  0  0  0  0  0  0  0  0  0
   -5.9466    0.8872    1.1805 C   0  0  0  0  0  0  0  0  0  0  0  0
   -5.5551   -0.3236    0.3379 C   0  0  0  0  0  0  0  0  0  0  0  0
   -0.6405    0.1554    0.9459 H   0  0  0  0  0  0  0  0  0  0  0  0
   -1.4314   -0.7840    2.2185 H   0  0  0  0  0  0  0  0  0  0  0  0
    0.6451   -3.9928   -0.2497 H   0  0  0  0  0  0  0  0  0  0  0  0
    1.7090   -3.1402   -1.3598 H   0  0  0  0  0  0  0  0  0  0  0  0
    3.5522   -1.1970    2.6936 H   0  0  0  0  0  0  0  0  0  0  0  0
    4.7684    0.9080    2.3836 H   0  0  0  0  0  0  0  0  0  0  0  0
    5.8731    2.5584    0.8799 H   0  0  0  0  0  0  0  0  0  0  0  0
    6.5461    3.2559   -1.3858 H   0  0  0  0  0  0  0  0  0  0  0  0
    5.9945    1.8368   -3.3437 H   0  0  0  0  0  0  0  0  0  0  0  0
    4.7730   -0.2798   -3.0380 H   0  0  0  0  0  0  0  0  0  0  0  0
    3.6964   -1.9230   -1.5485 H   0  0  0  0  0  0  0  0  0  0  0  0
   -2.8748    0.9923    0.7146 H   0  0  0  0  0  0  0  0  0  0  0  0
   -4.2870   -0.4472   -1.4280 H   0  0  0  0  0  0  0  0  0  0  0  0
   -4.0164    2.2327   -1.2049 H   0  0  0  0  0  0  0  0  0  0  0  0
   -5.5765    1.5548   -1.6975 H   0  0  0  0  0  0  0  0  0  0  0  0
   -4.8215    2.7220    0.9674 H   0  0  0  0  0  0  0  0  0  0  0  0
   -6.3742    2.7551    0.1303 H   0  0  0  0  0  0  0  0  0  0  0  0
   -5.4179    0.8700    2.1407 H   0  0  0  0  0  0  0  0  0  0  0  0
   -7.0195    0.8935    1.3973 H   0  0  0  0  0  0  0  0  0  0  0  0
   -5.2985   -1.1867    0.9596 H   0  0  0  0  0  0  0  0  0  0  0  0
   -6.4013   -0.6073   -0.3000 H   0  0  0  0  0  0  0  0  0  0  0  0
  1  2  2  0
  2  3  1  0
  3  4  1  0
  4  5  1  0
  5  6  2  0
  5  7  1  0
  7  8  1  0
  8  9  1  0
  9 10  2  0
 10 11  1  0
 11 12  2  0
 12 13  1  0
 13 14  2  0
 14 15  1  0
 15 16  2  0
 16 17  1  0
 17 18  2  0
  2 19  1  0
 19 20  1  0
 20 21  1  0
 21 22  1  0
 22 23  1  0
 23 24  1  0
 18  9  1  0
 24 20  1  0
 17 12  1  0
  3 25  1  0
  3 26  1  0
  7 27  1  0
  7 28  1  0
 10 29  1  0
 11 30  1  0
 13 31  1  0
 14 32  1  0
 15 33  1  0
 16 34  1  0
 18 35  1  0
 19 36  1  0
 20 37  1  0
 21 38  1  0
 21 39  1  0
 22 40  1  0
 22 41  1  0
 23 42  1  0
 23 43  1  0
 24 44  1  0
 24 45  1  0
M  END
$$$$
