
     RDKit          3D

 35 37  0  0  0  0  0  0  0  0999 V2000
   -1.6578   -2.6143   -2.1197 C   0  0  0  0  0  0  0  0  0  0  0  0
   -1.0536   -1.5531   -1.2574 C   0  0  0  0  0  0  0  0  0  0  0  0
    0.2343   -1.3512   -1.1831 N   0  0  0  0  0  0  0  0  0  0  0  0
    0.3889   -0.2975   -0.2932 N   0  0  0  0  0  0  0  0  0  0  0  0
    1.6391    0.1786    0.0219 C   0  0  0  0  0  0  0  0  0  0  0  0
    1.9844    1.1537    0.8344 N   0  0  0  0  0  0  0  0  0  0  0  0
    3.3554    1.2146    0.7834 C   0  0  0  0  0  0  0  0  0  0  0  0
    4.2413    2.0708    1.4527 C   0  0  0  0  0  0  0  0  0  0  0  0
    5.6160    1.9262    1.2248 C   0  0  0  0  0  0  0  0  0  0  0  0
    6.0978    0.9494    0.3489 C   0  0  0  0  0  0  0  0  0  0  0  0
    5.2289    0.0855   -0.3284 C   0  0  0  0  0  0  0  0  0  0  0  0
    3.8652    0.2531   -0.0815 C   0  0  0  0  0  0  0  0  0  0  0  0
    2.7516   -0.3888   -0.5496 N   0  0  0  0  0  0  0  0  0  0  0  0
   -0.7959    0.2243    0.2445 C   0  0  0  0  0  0  0  0  0  0  0  0
   -0.9840    1.1274    1.0364 O   0  0  0  0  0  0  0  0  0  0  0  0
   -1.8323   -0.6258   -0.4044 C   0  0  0  0  0  0  0  0  0  0  0  0
   -3.1707   -0.6550   -0.3301 C   0  0  0  0  0  0  0  0  0  0  0  0
   -4.1305    0.0784    0.3610 N   0  0  0  0  0  0  0  0  0  0  0  0
   -5.5520   -0.2715    0.2946 C   0  0  0  0  0  0  0  0  0  0  0  0
   -3.8053    1.0920    1.3674 C   0  0  0  0  0  0  0  0  0  0  0  0
   -2.3213   -2.1587   -2.8596 H   0  0  0  0  0  0  0  0  0  0  0  0
   -0.8711   -3.1628   -2.6457 H   0  0  0  0  0  0  0  0  0  0  0  0
   -2.2222   -3.3183   -1.5023 H   0  0  0  0  0  0  0  0  0  0  0  0
    3.8585    2.8257    2.1303 H   0  0  0  0  0  0  0  0  0  0  0  0
    6.3138    2.5839    1.7376 H   0  0  0  0  0  0  0  0  0  0  0  0
    7.1706    0.8587    0.1900 H   0  0  0  0  0  0  0  0  0  0  0  0
    5.6030   -0.6721   -1.0079 H   0  0  0  0  0  0  0  0  0  0  0  0
    2.7109   -1.1541   -1.2048 H   0  0  0  0  0  0  0  0  0  0  0  0
   -3.6787   -1.4039   -0.9357 H   0  0  0  0  0  0  0  0  0  0  0  0
   -6.1784    0.6258    0.3441 H   0  0  0  0  0  0  0  0  0  0  0  0
   -5.7991   -0.7823   -0.6426 H   0  0  0  0  0  0  0  0  0  0  0  0
   -5.8149   -0.9308    1.1282 H   0  0  0  0  0  0  0  0  0  0  0  0
   -3.1833    0.6637    2.1594 H   0  0  0  0  0  0  0  0  0  0  0  0
   -3.3014    1.9432    0.9005 H   0  0  0  0  0  0  0  0  0  0  0  0
   -4.7072    1.4853    1.8507 H   0  0  0  0  0  0  0  0  0  0  0  0
  1  2  1  0
  2  3  2  0
  3  4  1  0
  4  5  1  0
  5  6  2  0
  6  7  1  0
  7  8  2  0
  8  9  1  0
  9 10  2  0
 10 11  1  0
 11 12  2  0
 12 13  1  0
  4 14  1  0
 14 15  2  0
 14 16  1  0
 16 17  2  3
 17 18  1  0
 18 19  1  0
 18 20  1  0
 16  2  1  0
 13  5  1  0
 12  7  1  0
  1 21  1  0
  1 22  1  0
  1 23  1  0
  8 24  1  0
  9 25  1  0
 10 26  1  0
 11 27  1  0
 13 28  1  0
 17 29  1  0
 19 30  1  0
 19 31  1  0
 19 32  1  0
 20 33  1  0
 20 34  1  0
 20 35  1  0
M  END
$$$$
