
     RDKit          3D

 72 76  0  0  0  0  0  0  0  0999 V2000
    8.2520   -0.7837    1.9214 C   0  0  0  0  0  0  0  0  0  0  0  0
    7.8032    0.4174    1.0770 C   0  0  0  0  0  0  0  0  0  0  0  0
    8.4116    1.6936    1.6777 C   0  0  0  0  0  0  0  0  0  0  0  0
    8.2653    0.2959   -0.3817 C   0  0  0  0  0  0  0  0  0  0  0  0
    6.3673    0.6123    1.1768 O   0  0  0  0  0  0  0  0  0  0  0  0
    5.5110   -0.3198    0.7016 C   0  0  0  0  0  0  0  0  0  0  0  0
    5.8129   -1.3567    0.1314 O   0  0  0  0  0  0  0  0  0  0  0  0
    4.2390    0.0912    0.9599 N   0  0  0  0  0  0  0  0  0  0  0  0
    3.0717   -0.6373    0.5213 C   0  0  0  0  0  0  0  0  0  0  0  0
    2.6962   -0.2754   -0.9141 C   0  0  0  0  0  0  0  0  0  0  0  0
    1.5052   -1.0693   -1.4564 C   0  0  0  0  0  0  0  0  0  0  0  0
    0.2059   -0.9610   -0.6484 C   0  0  0  0  0  0  0  0  0  0  0  0
   -0.3030    0.4672   -0.4272 C   0  0  1  0  0  0  0  0  0  0  0  0
   -0.6040    1.1546   -1.7355 N   0  0  0  0  0  0  0  0  0  0  0  0
   -2.0610    1.5275   -1.7731 C   0  0  0  0  0  0  0  0  0  0  0  0
   -2.2704    3.0309   -2.1097 C   0  0  0  0  0  0  0  0  0  0  0  0
   -1.7333    3.9982   -1.5913 O   0  0  0  0  0  0  0  0  0  0  0  0
   -3.1849    3.0879   -3.1625 N   0  0  0  0  0  0  0  0  0  0  0  0
   -3.5231    1.8142   -3.6032 C   0  0  0  0  0  0  0  0  0  0  0  0
   -4.3591    1.4958   -4.6529 C   0  0  0  0  0  0  0  0  0  0  0  0
   -4.5426    0.1400   -4.9373 C   0  0  0  0  0  0  0  0  0  0  0  0
   -3.8922   -0.8502   -4.1797 C   0  0  0  0  0  0  0  0  0  0  0  0
   -3.0504   -0.5036   -3.1190 C   0  0  0  0  0  0  0  0  0  0  0  0
   -2.8760    0.8423   -2.8331 C   0  0  0  0  0  0  0  0  0  0  0  0
   -2.5866    1.1328   -0.4593 C   0  0  0  0  0  0  0  0  0  0  0  0
   -1.5879    0.5241    0.2964 C   0  0  0  0  0  0  0  0  0  0  0  0
   -2.1052    0.1529    1.5074 C   0  0  0  0  0  0  0  0  0  0  0  0
   -1.5059   -0.4783    2.5108 O   0  0  0  0  0  0  0  0  0  0  0  0
   -3.4326    0.5738    1.5076 N   0  0  0  0  0  0  0  0  0  0  0  0
   -4.3675    0.4928    2.6272 C   0  0  0  0  0  0  0  0  0  0  0  0
   -5.0634   -0.8461    2.6944 C   0  0  0  0  0  0  0  0  0  0  0  0
   -4.7453   -1.7811    3.6925 C   0  0  0  0  0  0  0  0  0  0  0  0
   -5.3968   -3.0168    3.7393 C   0  0  0  0  0  0  0  0  0  0  0  0
   -6.3825   -3.3274    2.8026 C   0  0  0  0  0  0  0  0  0  0  0  0
   -6.7160   -2.4043    1.8126 C   0  0  0  0  0  0  0  0  0  0  0  0
   -6.0592   -1.1731    1.7575 C   0  0  0  0  0  0  0  0  0  0  0  0
   -3.7323    1.1769    0.2912 C   0  0  0  0  0  0  0  0  0  0  0  0
   -4.9418    1.6615    0.0379 O   0  0  0  0  0  0  0  0  0  0  0  0
    7.8669   -0.7049    2.9457 H   0  0  0  0  0  0  0  0  0  0  0  0
    7.8772   -1.7304    1.5186 H   0  0  0  0  0  0  0  0  0  0  0  0
    9.3441   -0.8534    1.9677 H   0  0  0  0  0  0  0  0  0  0  0  0
    8.0621    1.8437    2.7054 H   0  0  0  0  0  0  0  0  0  0  0  0
    9.5067    1.6598    1.6838 H   0  0  0  0  0  0  0  0  0  0  0  0
    8.0978    2.5768    1.1092 H   0  0  0  0  0  0  0  0  0  0  0  0
    7.8645    1.1120   -0.9930 H   0  0  0  0  0  0  0  0  0  0  0  0
    7.9306   -0.6387   -0.8437 H   0  0  0  0  0  0  0  0  0  0  0  0
    9.3576    0.3131   -0.4508 H   0  0  0  0  0  0  0  0  0  0  0  0
    4.1461    0.9996    1.3937 H   0  0  0  0  0  0  0  0  0  0  0  0
    2.2658   -0.3807    1.2140 H   0  0  0  0  0  0  0  0  0  0  0  0
    3.2687   -1.7103    0.6057 H   0  0  0  0  0  0  0  0  0  0  0  0
    3.5560   -0.4583   -1.5713 H   0  0  0  0  0  0  0  0  0  0  0  0
    2.4958    0.7998   -0.9826 H   0  0  0  0  0  0  0  0  0  0  0  0
    1.3156   -0.7527   -2.4898 H   0  0  0  0  0  0  0  0  0  0  0  0
    1.7865   -2.1284   -1.5105 H   0  0  0  0  0  0  0  0  0  0  0  0
   -0.5614   -1.5580   -1.1599 H   0  0  0  0  0  0  0  0  0  0  0  0
    0.3469   -1.4496    0.3245 H   0  0  0  0  0  0  0  0  0  0  0  0
    0.4391    1.0588    0.1217 H   0  0  0  0  0  0  0  0  0  0  0  0
   -0.1010    2.0450   -1.6987 H   0  0  0  0  0  0  0  0  0  0  0  0
   -3.4683    3.9556   -3.5920 H   0  0  0  0  0  0  0  0  0  0  0  0
   -4.8549    2.2573   -5.2434 H   0  0  0  0  0  0  0  0  0  0  0  0
   -5.1889   -0.1569   -5.7602 H   0  0  0  0  0  0  0  0  0  0  0  0
   -4.0407   -1.9001   -4.4258 H   0  0  0  0  0  0  0  0  0  0  0  0
   -2.5457   -1.2692   -2.5380 H   0  0  0  0  0  0  0  0  0  0  0  0
   -2.1702   -0.7428    3.1691 H   0  0  0  0  0  0  0  0  0  0  0  0
   -5.1031    1.3011    2.5352 H   0  0  0  0  0  0  0  0  0  0  0  0
   -3.8010    0.6980    3.5441 H   0  0  0  0  0  0  0  0  0  0  0  0
   -3.9959   -1.5607    4.4514 H   0  0  0  0  0  0  0  0  0  0  0  0
   -5.1385   -3.7372    4.5125 H   0  0  0  0  0  0  0  0  0  0  0  0
   -6.8930   -4.2872    2.8471 H   0  0  0  0  0  0  0  0  0  0  0  0
   -7.4871   -2.6403    1.0820 H   0  0  0  0  0  0  0  0  0  0  0  0
   -6.3310   -0.4638    0.9757 H   0  0  0  0  0  0  0  0  0  0  0  0
   -4.9655    1.9032   -0.9070 H   0  0  0  0  0  0  0  0  0  0  0  0
  1  2  1  0
  2  3  1  0
  2  4  1  0
  2  5  1  0
  5  6  1  0
  6  7  2  0
  6  8  1  0
  8  9  1  0
  9 10  1  0
 10 11  1  0
 11 12  1  0
 12 13  1  0
 13 14  1  0
 14 15  1  0
 15 16  1  0
 16 17  2  0
 16 18  1  0
 18 19  1  0
 19 20  2  0
 20 21  1  0
 21 22  2  0
 22 23  1  0
 23 24  2  0
 15 25  1  0
 25 26  1  0
 26 27  2  0
 27 28  1  0
 27 29  1  0
 29 30  1  0
 30 31  1  0
 31 32  2  0
 32 33  1  0
 33 34  2  0
 34 35  1  0
 35 36  2  0
 29 37  1  0
 37 38  1  0
 26 13  1  0
 36 31  1  0
 24 15  1  0
 37 25  2  0
 24 19  1  0
  1 39  1  0
  1 40  1  0
  1 41  1  0
  3 42  1  0
  3 43  1  0
  3 44  1  0
  4 45  1  0
  4 46  1  0
  4 47  1  0
  8 48  1  0
  9 49  1  0
  9 50  1  0
 10 51  1  0
 10 52  1  0
 11 53  1  0
 11 54  1  0
 12 55  1  0
 12 56  1  0
 13 57  1  1
 14 58  1  0
 18 59  1  0
 20 60  1  0
 21 61  1  0
 22 62  1  0
 23 63  1  0
 28 64  1  0
 30 65  1  0
 30 66  1  0
 32 67  1  0
 33 68  1  0
 34 69  1  0
 35 70  1  0
 36 71  1  0
 38 72  1  0
M  END
$$$$
