
     RDKit          3D

 46 49  0  0  0  0  0  0  0  0999 V2000
    6.1098   -0.8225   -1.8828 N   0  0  0  0  0  0  0  0  0  0  0  0
    6.0010    0.4755   -0.8136 S   0  0  0  0  0  6  0  0  0  0  0  0
    6.7402    0.1329    0.3780 O   0  0  0  0  0  0  0  0  0  0  0  0
    6.2944    1.6518   -1.5997 O   0  0  0  0  0  0  0  0  0  0  0  0
    4.2730    0.4666   -0.4270 C   0  0  0  0  0  0  0  0  0  0  0  0
    3.8061   -0.3340    0.6137 C   0  0  0  0  0  0  0  0  0  0  0  0
    2.4391   -0.3454    0.9176 C   0  0  0  0  0  0  0  0  0  0  0  0
    1.5162    0.4368    0.2025 C   0  0  0  0  0  0  0  0  0  0  0  0
    0.1517    0.4311    0.4861 N   0  0  0  0  0  0  0  0  0  0  0  0
   -0.7088    1.2363   -0.2044 N   0  0  0  0  0  0  0  0  0  0  0  0
   -1.8551    1.1886    0.4045 C   0  0  0  0  0  0  0  0  0  0  0  0
   -3.0536    1.9221   -0.0658 C   0  0  0  0  0  0  0  0  0  0  0  0
   -4.2483    1.9167    0.6631 C   0  0  0  0  0  0  0  0  0  0  0  0
   -5.3600    2.6187    0.1891 C   0  0  0  0  0  0  0  0  0  0  0  0
   -5.2830    3.3270   -1.0095 C   0  0  0  0  0  0  0  0  0  0  0  0
   -4.0950    3.3373   -1.7379 C   0  0  0  0  0  0  0  0  0  0  0  0
   -2.9823    2.6373   -1.2680 C   0  0  0  0  0  0  0  0  0  0  0  0
   -1.8770    0.3541    1.6554 C   0  0  0  0  0  0  0  0  0  0  0  0
   -0.4990   -0.3053    1.5719 C   0  0  0  0  0  0  0  0  0  0  0  0
   -0.6225   -1.7980    1.2930 C   0  0  0  0  0  0  0  0  0  0  0  0
   -0.5346   -2.7104    2.3604 C   0  0  0  0  0  0  0  0  0  0  0  0
   -0.6662   -4.0819    2.1345 C   0  0  0  0  0  0  0  0  0  0  0  0
   -0.8921   -4.5470    0.8450 C   0  0  0  0  0  0  0  0  0  0  0  0
   -1.0185   -5.8632    0.6316 F   0  0  0  0  0  0  0  0  0  0  0  0
   -0.9911   -3.6671   -0.2244 C   0  0  0  0  0  0  0  0  0  0  0  0
   -0.8600   -2.2956   -0.0016 C   0  0  0  0  0  0  0  0  0  0  0  0
    2.0303    1.2413   -0.8330 C   0  0  0  0  0  0  0  0  0  0  0  0
    3.3929    1.2674   -1.1487 C   0  0  0  0  0  0  0  0  0  0  0  0
    5.2526   -1.3728   -1.9302 H   0  0  0  0  0  0  0  0  0  0  0  0
    6.3837   -0.4676   -2.8006 H   0  0  0  0  0  0  0  0  0  0  0  0
    4.4915   -0.9493    1.1933 H   0  0  0  0  0  0  0  0  0  0  0  0
    2.1129   -0.9872    1.7306 H   0  0  0  0  0  0  0  0  0  0  0  0
   -4.3400    1.3793    1.6018 H   0  0  0  0  0  0  0  0  0  0  0  0
   -6.2880    2.6146    0.7560 H   0  0  0  0  0  0  0  0  0  0  0  0
   -6.1491    3.8730   -1.3758 H   0  0  0  0  0  0  0  0  0  0  0  0
   -4.0326    3.8905   -2.6718 H   0  0  0  0  0  0  0  0  0  0  0  0
   -2.0604    2.6541   -1.8458 H   0  0  0  0  0  0  0  0  0  0  0  0
   -2.7117   -0.3520    1.6651 H   0  0  0  0  0  0  0  0  0  0  0  0
   -1.9408    1.0212    2.5217 H   0  0  0  0  0  0  0  0  0  0  0  0
    0.0354   -0.1446    2.5170 H   0  0  0  0  0  0  0  0  0  0  0  0
   -0.3605   -2.3595    3.3757 H   0  0  0  0  0  0  0  0  0  0  0  0
   -0.5947   -4.7900    2.9541 H   0  0  0  0  0  0  0  0  0  0  0  0
   -1.1678   -4.0509   -1.2240 H   0  0  0  0  0  0  0  0  0  0  0  0
   -0.9351   -1.6129   -0.8474 H   0  0  0  0  0  0  0  0  0  0  0  0
    1.3524    1.8704   -1.4077 H   0  0  0  0  0  0  0  0  0  0  0  0
    3.7446    1.9130   -1.9498 H   0  0  0  0  0  0  0  0  0  0  0  0
  1  2  1  0
  2  3  2  0
  2  4  2  0
  2  5  1  0
  5  6  2  0
  6  7  1  0
  7  8  2  0
  8  9  1  0
  9 10  1  0
 10 11  2  0
 11 12  1  0
 12 13  2  0
 13 14  1  0
 14 15  2  0
 15 16  1  0
 16 17  2  0
 11 18  1  0
 18 19  1  0
 19 20  1  0
 20 21  2  0
 21 22  1  0
 22 23  2  0
 23 24  1  0
 23 25  1  0
 25 26  2  0
  8 27  1  0
 27 28  2  0
 28  5  1  0
 19  9  1  0
 26 20  1  0
 17 12  1  0
  1 29  1  0
  1 30  1  0
  6 31  1  0
  7 32  1  0
 13 33  1  0
 14 34  1  0
 15 35  1  0
 16 36  1  0
 17 37  1  0
 18 38  1  0
 18 39  1  0
 19 40  1  0
 21 41  1  0
 22 42  1  0
 25 43  1  0
 26 44  1  0
 27 45  1  0
 28 46  1  0
M  END
$$$$
