
     RDKit          3D

 48 51  0  0  0  0  0  0  0  0999 V2000
    6.8394   -0.9459   -1.9086 C   0  0  0  0  0  0  0  0  0  0  0  0
    5.6858   -0.3673   -1.1455 C   0  0  0  0  0  0  0  0  0  0  0  0
    5.5748    1.0084   -0.9456 C   0  0  0  0  0  0  0  0  0  0  0  0
    4.4779    1.5348   -0.2541 C   0  0  0  0  0  0  0  0  0  0  0  0
    3.4695    0.7227    0.2446 C   0  0  0  0  0  0  0  0  0  0  0  0
    2.4374    1.2787    0.8989 N   0  0  0  0  0  0  0  0  0  0  0  0
    1.4554    0.4708    1.3658 C   0  0  0  0  0  0  0  0  0  0  0  0
    0.1365    1.3266    2.2099 S   0  0  0  0  0  0  0  0  0  0  0  0
   -0.5461    2.2365    0.7845 C   0  0  0  0  0  0  0  0  0  0  0  0
   -1.1903    1.2684   -0.2017 C   0  0  0  0  0  0  0  0  0  0  0  0
   -0.5575    0.9215   -1.2033 O   0  0  0  0  0  0  0  0  0  0  0  0
   -2.4543    0.7913    0.1177 N   0  0  0  0  0  0  0  0  0  0  0  0
   -3.0951   -0.2929   -0.5238 C   0  0  0  0  0  0  0  0  0  0  0  0
   -2.6924   -1.0235   -1.6290 C   0  0  0  0  0  0  0  0  0  0  0  0
   -3.5030   -2.0764   -2.0680 C   0  0  0  0  0  0  0  0  0  0  0  0
   -4.6927   -2.3931   -1.3966 C   0  0  0  0  0  0  0  0  0  0  0  0
   -5.0849   -1.6650   -0.2733 C   0  0  0  0  0  0  0  0  0  0  0  0
   -4.2771   -0.6180    0.1467 C   0  0  0  0  0  0  0  0  0  0  0  0
   -4.4560    0.2297    1.3657 C   0  0  0  0  0  0  0  0  0  0  0  0
   -3.3901    1.3246    1.1443 C   0  0  0  0  0  0  0  0  0  0  0  0
   -4.0513    2.6214    0.6590 C   0  0  0  0  0  0  0  0  0  0  0  0
    1.4693   -0.9176    1.2262 C   0  0  0  0  0  0  0  0  0  0  0  0
    0.3775   -1.8042    1.7486 C   0  0  0  0  0  0  0  0  0  0  0  0
    2.5529   -1.4796    0.5437 C   0  0  0  0  0  0  0  0  0  0  0  0
    3.5739   -0.6647    0.0389 C   0  0  0  0  0  0  0  0  0  0  0  0
    4.6746   -1.2002   -0.6559 C   0  0  0  0  0  0  0  0  0  0  0  0
    6.5166   -1.2353   -2.9139 H   0  0  0  0  0  0  0  0  0  0  0  0
    7.6574   -0.2237   -2.0033 H   0  0  0  0  0  0  0  0  0  0  0  0
    7.2365   -1.8259   -1.3914 H   0  0  0  0  0  0  0  0  0  0  0  0
    6.3350    1.6871   -1.3245 H   0  0  0  0  0  0  0  0  0  0  0  0
    4.4056    2.6097   -0.1045 H   0  0  0  0  0  0  0  0  0  0  0  0
   -1.2652    2.9732    1.1444 H   0  0  0  0  0  0  0  0  0  0  0  0
    0.2411    2.8002    0.2727 H   0  0  0  0  0  0  0  0  0  0  0  0
   -1.7757   -0.8000   -2.1637 H   0  0  0  0  0  0  0  0  0  0  0  0
   -3.2036   -2.6555   -2.9380 H   0  0  0  0  0  0  0  0  0  0  0  0
   -5.3063   -3.2188   -1.7493 H   0  0  0  0  0  0  0  0  0  0  0  0
   -5.9935   -1.9233    0.2614 H   0  0  0  0  0  0  0  0  0  0  0  0
   -5.4709    0.6274    1.4559 H   0  0  0  0  0  0  0  0  0  0  0  0
   -4.2151   -0.3627    2.2555 H   0  0  0  0  0  0  0  0  0  0  0  0
   -2.8573    1.5249    2.0784 H   0  0  0  0  0  0  0  0  0  0  0  0
   -4.6202    2.4593   -0.2639 H   0  0  0  0  0  0  0  0  0  0  0  0
   -3.3133    3.3992    0.4480 H   0  0  0  0  0  0  0  0  0  0  0  0
   -4.7395    3.0084    1.4174 H   0  0  0  0  0  0  0  0  0  0  0  0
   -0.5724   -1.5775    1.2553 H   0  0  0  0  0  0  0  0  0  0  0  0
    0.5966   -2.8612    1.5621 H   0  0  0  0  0  0  0  0  0  0  0  0
    0.2678   -1.6834    2.8314 H   0  0  0  0  0  0  0  0  0  0  0  0
    2.6016   -2.5572    0.4007 H   0  0  0  0  0  0  0  0  0  0  0  0
    4.7406   -2.2740   -0.8198 H   0  0  0  0  0  0  0  0  0  0  0  0
  1  2  1  0
  2  3  2  0
  3  4  1  0
  4  5  2  0
  5  6  1  0
  6  7  2  0
  7  8  1  0
  8  9  1  0
  9 10  1  0
 10 11  2  0
 10 12  1  0
 12 13  1  0
 13 14  2  0
 14 15  1  0
 15 16  2  0
 16 17  1  0
 17 18  2  0
 18 19  1  0
 19 20  1  0
 20 21  1  0
  7 22  1  0
 22 23  1  0
 22 24  2  0
 24 25  1  0
 25 26  2  0
 26  2  1  0
 25  5  1  0
 20 12  1  0
 18 13  1  0
  1 27  1  0
  1 28  1  0
  1 29  1  0
  3 30  1  0
  4 31  1  0
  9 32  1  0
  9 33  1  0
 14 34  1  0
 15 35  1  0
 16 36  1  0
 17 37  1  0
 19 38  1  0
 19 39  1  0
 20 40  1  0
 21 41  1  0
 21 42  1  0
 21 43  1  0
 23 44  1  0
 23 45  1  0
 23 46  1  0
 24 47  1  0
 26 48  1  0
M  END
$$$$
