
     RDKit          3D

 42 45  0  0  0  0  0  0  0  0999 V2000
   -1.8617   -1.7707    0.4552 O   0  0  0  0  0  0  0  0  0  0  0  0
   -1.8729   -0.6610    0.9701 C   0  0  0  0  0  0  0  0  0  0  0  0
   -0.6426    0.1311    1.2480 C   0  0  0  0  0  0  0  0  0  0  0  0
    0.5596   -0.3596    0.9217 C   0  0  0  0  0  0  0  0  0  0  0  0
    1.8218    0.2724    1.1009 C   0  0  0  0  0  0  0  0  0  0  0  0
    2.2833    1.2254    2.0028 C   0  0  0  0  0  0  0  0  0  0  0  0
    3.6507    1.4724    1.7261 C   0  0  0  0  0  0  0  0  0  0  0  0
    3.9861    0.6389    0.6861 C   0  0  0  0  0  0  0  0  0  0  0  0
    5.2038    0.4148   -0.0802 C   0  0  0  0  0  0  0  0  0  0  0  0
    5.8933    1.5350   -0.5787 C   0  0  0  0  0  0  0  0  0  0  0  0
    7.0645    1.3873   -1.3263 C   0  0  0  0  0  0  0  0  0  0  0  0
    7.5691    0.1166   -1.5841 C   0  0  0  0  0  0  0  0  0  0  0  0
    6.9053   -1.0059   -1.0902 C   0  0  0  0  0  0  0  0  0  0  0  0
    5.7306   -0.8625   -0.3400 C   0  0  0  0  0  0  0  0  0  0  0  0
    5.0154   -2.3142    0.2768 Cl  0  0  0  0  0  0  0  0  0  0  0  0
    2.8933   -0.0725    0.3030 O   0  0  0  0  0  0  0  0  0  0  0  0
   -1.0707    1.6407    1.9393 S   0  0  0  0  0  0  0  0  0  0  0  0
   -2.7933    1.2921    1.8956 C   0  0  0  0  0  0  0  0  0  0  0  0
   -3.9273    2.3861    2.4409 S   0  0  0  0  0  0  0  0  0  0  0  0
   -3.0010    0.0377    1.3626 N   0  0  0  0  0  0  0  0  0  0  0  0
   -4.3180   -0.5730    1.1625 C   0  0  0  0  0  0  0  0  0  0  0  0
   -4.9792   -0.1708   -0.1612 C   0  0  0  0  0  0  0  0  0  0  0  0
   -4.3125   -0.7349   -1.4059 C   0  0  0  0  0  0  0  0  0  0  0  0
   -5.4511   -0.7077   -2.3948 C   0  0  0  0  0  0  0  0  0  0  0  0
   -6.6272   -1.1044   -1.5282 C   0  0  0  0  0  0  0  0  0  0  0  0
   -6.3372   -0.6540   -0.1955 O   0  0  0  0  0  0  0  0  0  0  0  0
    0.6091   -1.3320    0.4328 H   0  0  0  0  0  0  0  0  0  0  0  0
    1.7084    1.6912    2.7903 H   0  0  0  0  0  0  0  0  0  0  0  0
    4.3113    2.1584    2.2369 H   0  0  0  0  0  0  0  0  0  0  0  0
    5.5103    2.5381   -0.3991 H   0  0  0  0  0  0  0  0  0  0  0  0
    7.5787    2.2657   -1.7095 H   0  0  0  0  0  0  0  0  0  0  0  0
    8.4799   -0.0020   -2.1660 H   0  0  0  0  0  0  0  0  0  0  0  0
    7.3112   -1.9953   -1.2874 H   0  0  0  0  0  0  0  0  0  0  0  0
   -4.2279   -1.6654    1.2124 H   0  0  0  0  0  0  0  0  0  0  0  0
   -4.9748   -0.2982    1.9958 H   0  0  0  0  0  0  0  0  0  0  0  0
   -5.0347    0.9216   -0.2405 H   0  0  0  0  0  0  0  0  0  0  0  0
   -3.9962   -1.7727   -1.2481 H   0  0  0  0  0  0  0  0  0  0  0  0
   -3.4458   -0.1519   -1.7290 H   0  0  0  0  0  0  0  0  0  0  0  0
   -5.3079   -1.3730   -3.2501 H   0  0  0  0  0  0  0  0  0  0  0  0
   -5.5914    0.3118   -2.7731 H   0  0  0  0  0  0  0  0  0  0  0  0
   -6.7443   -2.1926   -1.4924 H   0  0  0  0  0  0  0  0  0  0  0  0
   -7.5678   -0.6630   -1.8696 H   0  0  0  0  0  0  0  0  0  0  0  0
  1  2  2  0
  2  3  1  0
  3  4  2  3
  4  5  1  0
  5  6  2  0
  6  7  1  0
  7  8  2  0
  8  9  1  0
  9 10  2  0
 10 11  1  0
 11 12  2  0
 12 13  1  0
 13 14  2  0
 14 15  1  0
  8 16  1  0
  3 17  1  0
 17 18  1  0
 18 19  2  0
 18 20  1  0
 20 21  1  0
 21 22  1  0
 22 23  1  0
 23 24  1  0
 24 25  1  0
 25 26  1  0
 20  2  1  0
 26 22  1  0
 16  5  1  0
 14  9  1  0
  4 27  1  0
  6 28  1  0
  7 29  1  0
 10 30  1  0
 11 31  1  0
 12 32  1  0
 13 33  1  0
 21 34  1  0
 21 35  1  0
 22 36  1  0
 23 37  1  0
 23 38  1  0
 24 39  1  0
 24 40  1  0
 25 41  1  0
 25 42  1  0
M  END
$$$$
