
     RDKit          3D

 37 39  0  0  0  0  0  0  0  0999 V2000
   -1.1813    0.7360    1.9990 O   0  0  0  0  0  0  0  0  0  0  0  0
   -0.6884   -0.1618    1.3290 C   0  0  0  0  0  0  0  0  0  0  0  0
    0.6751   -0.0905    0.7416 C   0  0  0  0  0  0  0  0  0  0  0  0
    1.4665    0.9749    0.9230 C   0  0  0  0  0  0  0  0  0  0  0  0
    2.8357    1.1297    0.4123 C   0  0  0  0  0  0  0  0  0  0  0  0
    3.0701    1.2359   -0.9653 C   0  0  0  0  0  0  0  0  0  0  0  0
    4.3812    1.3907   -1.4370 C   0  0  0  0  0  0  0  0  0  0  0  0
    4.6256    1.4965   -2.8811 N   0  0  0  0  0  4  0  0  0  0  0  0
    3.6428    1.4824   -3.6353 O   0  0  0  0  0  0  0  0  0  0  0  0
    5.8014    1.5970   -3.2595 O   0  0  0  0  0  1  0  0  0  0  0  0
    5.4614    1.4496   -0.5454 C   0  0  0  0  0  0  0  0  0  0  0  0
    5.2277    1.3565    0.8280 C   0  0  0  0  0  0  0  0  0  0  0  0
    3.9226    1.2011    1.2978 C   0  0  0  0  0  0  0  0  0  0  0  0
    3.6885    1.1121    2.6429 O   0  0  0  0  0  0  0  0  0  0  0  0
    1.0272   -1.5354   -0.1132 S   0  0  0  0  0  0  0  0  0  0  0  0
   -0.5314   -2.2562    0.2757 C   0  0  0  0  0  0  0  0  0  0  0  0
   -0.9227   -3.8030   -0.2122 S   0  0  0  0  0  0  0  0  0  0  0  0
   -1.2871   -1.3689    1.0128 N   0  0  0  0  0  0  0  0  0  0  0  0
   -2.6481   -1.6197    1.4826 C   0  0  0  0  0  0  0  0  0  0  0  0
   -3.6943   -1.1896    0.4740 C   0  0  0  0  0  0  0  0  0  0  0  0
   -4.3509   -2.1354   -0.3280 C   0  0  0  0  0  0  0  0  0  0  0  0
   -5.3043   -1.7330   -1.2674 C   0  0  0  0  0  0  0  0  0  0  0  0
   -5.6104   -0.3822   -1.4099 C   0  0  0  0  0  0  0  0  0  0  0  0
   -6.7845    0.1121   -2.5658 Cl  0  0  0  0  0  0  0  0  0  0  0  0
   -4.9725    0.5700   -0.6197 C   0  0  0  0  0  0  0  0  0  0  0  0
   -4.0188    0.1678    0.3189 C   0  0  0  0  0  0  0  0  0  0  0  0
    1.1212    1.8059    1.5369 H   0  0  0  0  0  0  0  0  0  0  0  0
    2.2327    1.1977   -1.6599 H   0  0  0  0  0  0  0  0  0  0  0  0
    6.4825    1.5701   -0.9027 H   0  0  0  0  0  0  0  0  0  0  0  0
    6.0698    1.4070    1.5127 H   0  0  0  0  0  0  0  0  0  0  0  0
    4.5319    1.1656    3.1222 H   0  0  0  0  0  0  0  0  0  0  0  0
   -2.7704   -2.6814    1.7233 H   0  0  0  0  0  0  0  0  0  0  0  0
   -2.8204   -1.0778    2.4211 H   0  0  0  0  0  0  0  0  0  0  0  0
   -4.1299   -3.1967   -0.2309 H   0  0  0  0  0  0  0  0  0  0  0  0
   -5.8022   -2.4779   -1.8827 H   0  0  0  0  0  0  0  0  0  0  0  0
   -5.2117    1.6248   -0.7264 H   0  0  0  0  0  0  0  0  0  0  0  0
   -3.5347    0.9263    0.9326 H   0  0  0  0  0  0  0  0  0  0  0  0
  1  2  2  0
  2  3  1  0
  3  4  2  3
  4  5  1  0
  5  6  2  0
  6  7  1  0
  7  8  1  0
  8  9  2  0
  8 10  1  0
  7 11  2  0
 11 12  1  0
 12 13  2  0
 13 14  1  0
  3 15  1  0
 15 16  1  0
 16 17  2  0
 16 18  1  0
 18 19  1  0
 19 20  1  0
 20 21  2  0
 21 22  1  0
 22 23  2  0
 23 24  1  0
 23 25  1  0
 25 26  2  0
 18  2  1  0
 26 20  1  0
 13  5  1  0
  4 27  1  0
  6 28  1  0
 11 29  1  0
 12 30  1  0
 14 31  1  0
 19 32  1  0
 19 33  1  0
 21 34  1  0
 22 35  1  0
 25 36  1  0
 26 37  1  0
M  CHG  2   8   1  10  -1
M  END
$$$$
