
     RDKit          3D

 36 38  0  0  0  0  0  0  0  0999 V2000
    0.5986   -2.7684   -0.1392 C   0  0  0  0  0  0  0  0  0  0  0  0
   -0.6503   -1.9673   -0.2586 C   0  0  0  0  0  0  0  0  0  0  0  0
   -1.5753   -1.9563   -1.2835 C   0  0  0  0  0  0  0  0  0  0  0  0
   -2.6150   -1.0552   -0.9388 C   0  0  0  0  0  0  0  0  0  0  0  0
   -3.8017   -0.6502   -1.5810 C   0  0  0  0  0  0  0  0  0  0  0  0
   -4.6424    0.2753   -0.9551 C   0  0  0  0  0  0  0  0  0  0  0  0
   -4.3161    0.7936    0.2939 C   0  0  0  0  0  0  0  0  0  0  0  0
   -3.1440    0.4057    0.9503 C   0  0  0  0  0  0  0  0  0  0  0  0
   -2.3020   -0.5218    0.3128 C   0  0  0  0  0  0  0  0  0  0  0  0
   -1.0939   -1.0769    0.6999 N   0  0  0  0  0  0  0  0  0  0  0  0
   -0.3952   -0.7376    1.9336 C   0  0  0  0  0  0  0  0  0  0  0  0
    0.3200    0.6128    1.8630 C   0  0  0  0  0  0  0  0  0  0  0  0
    1.2978    0.6825    0.7893 N   0  0  0  0  0  0  0  0  0  0  0  0
    2.4378    1.4596    0.8941 C   0  0  0  0  0  0  0  0  0  0  0  0
    2.7449    2.0027    1.9524 O   0  0  0  0  0  0  0  0  0  0  0  0
    3.2134    1.5737   -0.3286 C   0  0  0  0  0  0  0  0  0  0  0  0
    3.0965    1.0024   -1.5860 C   0  0  0  0  0  0  0  0  0  0  0  0
    4.1669    1.5046   -2.3685 C   0  0  0  0  0  0  0  0  0  0  0  0
    4.8766    2.3489   -1.5486 C   0  0  0  0  0  0  0  0  0  0  0  0
    6.4329    3.3189   -2.0524 Br  0  0  0  0  0  0  0  0  0  0  0  0
    4.3106    2.3959   -0.3161 O   0  0  0  0  0  0  0  0  0  0  0  0
    1.4708   -2.1206   -0.0114 H   0  0  0  0  0  0  0  0  0  0  0  0
    0.5380   -3.4528    0.7127 H   0  0  0  0  0  0  0  0  0  0  0  0
    0.7616   -3.3703   -1.0394 H   0  0  0  0  0  0  0  0  0  0  0  0
   -1.5185   -2.5488   -2.1878 H   0  0  0  0  0  0  0  0  0  0  0  0
   -4.0650   -1.0551   -2.5537 H   0  0  0  0  0  0  0  0  0  0  0  0
   -5.5593    0.5877   -1.4487 H   0  0  0  0  0  0  0  0  0  0  0  0
   -4.9830    1.5099    0.7686 H   0  0  0  0  0  0  0  0  0  0  0  0
   -2.9069    0.8167    1.9261 H   0  0  0  0  0  0  0  0  0  0  0  0
   -1.1364   -0.7392    2.7406 H   0  0  0  0  0  0  0  0  0  0  0  0
    0.3196   -1.5360    2.1562 H   0  0  0  0  0  0  0  0  0  0  0  0
    0.8116    0.8072    2.8222 H   0  0  0  0  0  0  0  0  0  0  0  0
   -0.3908    1.4281    1.6903 H   0  0  0  0  0  0  0  0  0  0  0  0
    0.9682    0.4512   -0.1392 H   0  0  0  0  0  0  0  0  0  0  0  0
    2.3380    0.3029   -1.9085 H   0  0  0  0  0  0  0  0  0  0  0  0
    4.3920    1.2762   -3.4009 H   0  0  0  0  0  0  0  0  0  0  0  0
  1  2  1  0
  2  3  2  0
  3  4  1  0
  4  5  2  0
  5  6  1  0
  6  7  2  0
  7  8  1  0
  8  9  2  0
  9 10  1  0
 10 11  1  0
 11 12  1  0
 12 13  1  0
 13 14  1  0
 14 15  2  0
 14 16  1  0
 16 17  2  0
 17 18  1  0
 18 19  2  0
 19 20  1  0
 19 21  1  0
 10  2  1  0
 21 16  1  0
  9  4  1  0
  1 22  1  0
  1 23  1  0
  1 24  1  0
  3 25  1  0
  5 26  1  0
  6 27  1  0
  7 28  1  0
  8 29  1  0
 11 30  1  0
 11 31  1  0
 12 32  1  0
 12 33  1  0
 13 34  1  0
 17 35  1  0
 18 36  1  0
M  END
$$$$
