
     RDKit          3D

 43 46  0  0  0  0  0  0  0  0999 V2000
    7.8952    1.4740   -0.3391 C   0  0  0  0  0  0  0  0  0  0  0  0
    6.5566    0.9663    0.1111 C   0  0  0  0  0  0  0  0  0  0  0  0
    5.4077    1.7489   -0.0594 C   0  0  0  0  0  0  0  0  0  0  0  0
    4.1646    1.2934    0.3901 C   0  0  0  0  0  0  0  0  0  0  0  0
    4.0610    0.0460    1.0185 C   0  0  0  0  0  0  0  0  0  0  0  0
    2.7573   -0.4830    1.5140 C   0  0  0  0  0  0  0  0  0  0  0  0
    2.7613   -1.1854    2.5169 O   0  0  0  0  0  0  0  0  0  0  0  0
    1.6732   -0.1444    0.7447 N   0  0  0  0  0  0  0  0  0  0  0  0
    0.3543   -0.4849    0.9959 C   0  0  0  0  0  0  0  0  0  0  0  0
   -0.0140   -1.1404    2.1005 N   0  0  0  0  0  0  0  0  0  0  0  0
   -1.3264   -1.4176    2.2467 C   0  0  0  0  0  0  0  0  0  0  0  0
   -2.2764   -1.0506    1.3242 C   0  0  0  0  0  0  0  0  0  0  0  0
   -1.8152   -0.3658    0.2187 C   0  0  0  0  0  0  0  0  0  0  0  0
   -0.5030   -0.0819    0.0388 N   0  0  0  0  0  0  0  0  0  0  0  0
   -2.7593    0.0655   -0.8705 C   0  0  0  0  0  0  0  0  0  0  0  0
   -4.1660    0.3060   -0.3126 C   0  0  0  0  0  0  0  0  0  0  0  0
   -5.1040    0.7100   -1.4008 C   0  0  0  0  0  0  0  0  0  0  0  0
   -5.6924    0.0497   -2.4607 C   0  0  0  0  0  0  0  0  0  0  0  0
   -6.4843    1.0083   -3.1378 C   0  0  0  0  0  0  0  0  0  0  0  0
   -6.3268    2.1891   -2.4523 C   0  0  0  0  0  0  0  0  0  0  0  0
   -5.4889    2.0177   -1.3987 O   0  0  0  0  0  0  0  0  0  0  0  0
   -4.6668   -0.9382    0.4233 C   0  0  0  0  0  0  0  0  0  0  0  0
   -3.7012   -1.3704    1.5035 C   0  0  0  0  0  0  0  0  0  0  0  0
   -4.0645   -2.0171    2.4805 O   0  0  0  0  0  0  0  0  0  0  0  0
    5.2126   -0.7232    1.2200 C   0  0  0  0  0  0  0  0  0  0  0  0
    6.4526   -0.2653    0.7686 C   0  0  0  0  0  0  0  0  0  0  0  0
    7.7928    2.1161   -1.2202 H   0  0  0  0  0  0  0  0  0  0  0  0
    8.3672    2.0478    0.4644 H   0  0  0  0  0  0  0  0  0  0  0  0
    8.5540    0.6446   -0.6168 H   0  0  0  0  0  0  0  0  0  0  0  0
    5.4771    2.7253   -0.5349 H   0  0  0  0  0  0  0  0  0  0  0  0
    3.2988    1.9386    0.2716 H   0  0  0  0  0  0  0  0  0  0  0  0
    1.7902    0.3365   -0.1315 H   0  0  0  0  0  0  0  0  0  0  0  0
   -1.5852   -1.9585    3.1533 H   0  0  0  0  0  0  0  0  0  0  0  0
   -2.7710   -0.7133   -1.6439 H   0  0  0  0  0  0  0  0  0  0  0  0
   -2.3808    0.9822   -1.3404 H   0  0  0  0  0  0  0  0  0  0  0  0
   -4.1084    1.1273    0.4174 H   0  0  0  0  0  0  0  0  0  0  0  0
   -5.5697   -0.9938   -2.7163 H   0  0  0  0  0  0  0  0  0  0  0  0
   -7.0955    0.8589   -4.0169 H   0  0  0  0  0  0  0  0  0  0  0  0
   -6.7208    3.1881   -2.5788 H   0  0  0  0  0  0  0  0  0  0  0  0
   -4.8067   -1.7861   -0.2580 H   0  0  0  0  0  0  0  0  0  0  0  0
   -5.6325   -0.7218    0.8963 H   0  0  0  0  0  0  0  0  0  0  0  0
    5.1462   -1.6815    1.7322 H   0  0  0  0  0  0  0  0  0  0  0  0
    7.3371   -0.8758    0.9388 H   0  0  0  0  0  0  0  0  0  0  0  0
  1  2  1  0
  2  3  2  0
  3  4  1  0
  4  5  2  0
  5  6  1  0
  6  7  2  0
  6  8  1  0
  8  9  1  0
  9 10  2  0
 10 11  1  0
 11 12  2  0
 12 13  1  0
 13 14  2  0
 13 15  1  0
 15 16  1  0
 16 17  1  0
 17 18  2  0
 18 19  1  0
 19 20  2  0
 20 21  1  0
 16 22  1  0
 22 23  1  0
 23 24  2  0
  5 25  1  0
 25 26  2  0
 26  2  1  0
 14  9  1  0
 21 17  1  0
 23 12  1  0
  1 27  1  0
  1 28  1  0
  1 29  1  0
  3 30  1  0
  4 31  1  0
  8 32  1  0
 11 33  1  0
 15 34  1  0
 15 35  1  0
 16 36  1  0
 18 37  1  0
 19 38  1  0
 20 39  1  0
 22 40  1  0
 22 41  1  0
 25 42  1  0
 26 43  1  0
M  END
$$$$
