
     RDKit          3D

 47 50  0  0  0  0  0  0  0  0999 V2000
   -1.5659    1.0202   -1.3439 O   0  0  0  0  0  0  0  0  0  0  0  0
   -0.7629    1.6321   -0.6324 C   0  0  0  0  0  0  0  0  0  0  0  0
   -1.2000    2.9215    0.0481 C   0  0  0  0  0  0  0  0  0  0  0  0
   -1.3631    2.7348    1.8426 S   0  0  0  0  0  0  0  0  0  0  0  0
   -2.5621    1.4834    1.9480 C   0  0  0  0  0  0  0  0  0  0  0  0
   -2.7680    0.7580    3.0270 N   0  0  0  0  0  0  0  0  0  0  0  0
   -3.7750   -0.1354    2.7165 N   0  0  0  0  0  0  0  0  0  0  0  0
   -4.1108    0.1051    1.4648 C   0  0  0  0  0  0  0  0  0  0  0  0
   -5.0916   -0.5481    0.6101 C   0  0  0  0  0  0  0  0  0  0  0  0
   -5.9976   -1.4655    1.1640 C   0  0  0  0  0  0  0  0  0  0  0  0
   -6.9402   -2.1124    0.3611 C   0  0  0  0  0  0  0  0  0  0  0  0
   -6.9871   -1.8509   -1.0068 C   0  0  0  0  0  0  0  0  0  0  0  0
   -6.0925   -0.9450   -1.5729 C   0  0  0  0  0  0  0  0  0  0  0  0
   -5.1482   -0.2992   -0.7701 C   0  0  0  0  0  0  0  0  0  0  0  0
   -3.4017    1.1435    0.9249 O   0  0  0  0  0  0  0  0  0  0  0  0
    0.5330    1.1769   -0.4517 N   0  0  0  0  0  0  0  0  0  0  0  0
    1.5929    1.8753    0.2885 C   0  0  0  0  0  0  0  0  0  0  0  0
    3.0130    1.4895   -0.1717 C   0  0  0  0  0  0  0  0  0  0  0  0
    3.2232    0.0343   -0.1263 N   0  0  0  0  0  0  0  0  0  0  0  0
    4.4810   -0.5051    0.0998 C   0  0  0  0  0  0  0  0  0  0  0  0
    5.6564    0.2229   -0.1533 C   0  0  0  0  0  0  0  0  0  0  0  0
    6.9292   -0.3158    0.0742 C   0  0  0  0  0  0  0  0  0  0  0  0
    7.0610   -1.6080    0.5654 C   0  0  0  0  0  0  0  0  0  0  0  0
    5.9210   -2.3586    0.8219 C   0  0  0  0  0  0  0  0  0  0  0  0
    4.6526   -1.8109    0.5899 C   0  0  0  0  0  0  0  0  0  0  0  0
    2.0348   -0.8250   -0.2603 C   0  0  0  0  0  0  0  0  0  0  0  0
    0.9080   -0.1167   -1.0332 C   0  0  0  0  0  0  0  0  0  0  0  0
   -2.1647    3.2293   -0.3697 H   0  0  0  0  0  0  0  0  0  0  0  0
   -0.4967    3.7252   -0.1850 H   0  0  0  0  0  0  0  0  0  0  0  0
   -5.9726   -1.6844    2.2309 H   0  0  0  0  0  0  0  0  0  0  0  0
   -7.6350   -2.8215    0.8050 H   0  0  0  0  0  0  0  0  0  0  0  0
   -7.7173   -2.3568   -1.6334 H   0  0  0  0  0  0  0  0  0  0  0  0
   -6.1228   -0.7437   -2.6403 H   0  0  0  0  0  0  0  0  0  0  0  0
   -4.4475    0.3911   -1.2384 H   0  0  0  0  0  0  0  0  0  0  0  0
    1.4658    2.9569    0.1971 H   0  0  0  0  0  0  0  0  0  0  0  0
    1.4695    1.6053    1.3441 H   0  0  0  0  0  0  0  0  0  0  0  0
    3.7197    2.0140    0.4816 H   0  0  0  0  0  0  0  0  0  0  0  0
    3.1736    1.8390   -1.1991 H   0  0  0  0  0  0  0  0  0  0  0  0
    5.6063    1.2282   -0.5624 H   0  0  0  0  0  0  0  0  0  0  0  0
    7.8139    0.2772   -0.1399 H   0  0  0  0  0  0  0  0  0  0  0  0
    8.0468   -2.0289    0.7444 H   0  0  0  0  0  0  0  0  0  0  0  0
    6.0111   -3.3710    1.2077 H   0  0  0  0  0  0  0  0  0  0  0  0
    3.7924   -2.4297    0.8279 H   0  0  0  0  0  0  0  0  0  0  0  0
    1.6759   -1.0977    0.7397 H   0  0  0  0  0  0  0  0  0  0  0  0
    2.2786   -1.7459   -0.8027 H   0  0  0  0  0  0  0  0  0  0  0  0
    0.0324   -0.7732   -1.0859 H   0  0  0  0  0  0  0  0  0  0  0  0
    1.2311    0.0857   -2.0617 H   0  0  0  0  0  0  0  0  0  0  0  0
  1  2  2  0
  2  3  1  0
  3  4  1  0
  4  5  1  0
  5  6  2  0
  6  7  1  0
  7  8  2  0
  8  9  1  0
  9 10  2  0
 10 11  1  0
 11 12  2  0
 12 13  1  0
 13 14  2  0
  8 15  1  0
  2 16  1  0
 16 17  1  0
 17 18  1  0
 18 19  1  0
 19 20  1  0
 20 21  2  0
 21 22  1  0
 22 23  2  0
 23 24  1  0
 24 25  2  0
 19 26  1  0
 26 27  1  0
 15  5  1  0
 27 16  1  0
 14  9  1  0
 25 20  1  0
  3 28  1  0
  3 29  1  0
 10 30  1  0
 11 31  1  0
 12 32  1  0
 13 33  1  0
 14 34  1  0
 17 35  1  0
 17 36  1  0
 18 37  1  0
 18 38  1  0
 21 39  1  0
 22 40  1  0
 23 41  1  0
 24 42  1  0
 25 43  1  0
 26 44  1  0
 26 45  1  0
 27 46  1  0
 27 47  1  0
M  END
$$$$
