
     RDKit          3D

 34 35  0  0  0  0  0  0  0  0999 V2000
   -0.5026    1.0011    0.0280 O   0  0  0  0  0  0  0  0  0  0  0  0
   -0.5922    0.2275    0.9768 C   0  0  0  0  0  0  0  0  0  0  0  0
    0.5285    0.0632    2.0083 C   0  0  0  0  0  0  0  0  0  0  0  0
    1.7787    0.5619    1.5334 O   0  0  0  0  0  0  0  0  0  0  0  0
    2.4087   -0.2710    0.6701 C   0  0  0  0  0  0  0  0  0  0  0  0
    2.0664   -1.4116    0.4031 O   0  0  0  0  0  0  0  0  0  0  0  0
    3.6071    0.3746    0.0918 C   0  0  0  0  0  0  0  0  0  0  0  0
    4.4266   -0.3512   -0.7786 C   0  0  0  0  0  0  0  0  0  0  0  0
    5.5588    0.2538   -1.3231 C   0  0  0  0  0  0  0  0  0  0  0  0
    5.8268    1.5661   -0.9715 C   0  0  0  0  0  0  0  0  0  0  0  0
    7.2016    2.3809   -1.5906 Cl  0  0  0  0  0  0  0  0  0  0  0  0
    5.0627    2.3010   -0.1368 N   0  0  0  0  0  0  0  0  0  0  0  0
    3.9634    1.6888    0.3719 C   0  0  0  0  0  0  0  0  0  0  0  0
   -1.7153   -0.5294    1.2701 N   0  0  0  0  0  0  0  0  0  0  0  0
   -2.9209   -0.5061    0.5192 C   0  0  0  0  0  0  0  0  0  0  0  0
   -4.1241   -0.5173    1.2636 C   0  0  0  0  0  0  0  0  0  0  0  0
   -4.0973   -0.6003    2.9971 Cl  0  0  0  0  0  0  0  0  0  0  0  0
   -5.3706   -0.4275    0.6425 C   0  0  0  0  0  0  0  0  0  0  0  0
   -5.4429   -0.3389   -0.7403 C   0  0  0  0  0  0  0  0  0  0  0  0
   -4.2707   -0.3807   -1.4933 C   0  0  0  0  0  0  0  0  0  0  0  0
   -2.9961   -0.4983   -0.8868 C   0  0  0  0  0  0  0  0  0  0  0  0
   -1.8279   -0.7080   -1.8276 C   0  0  0  0  0  0  0  0  0  0  0  0
   -0.7520   -1.3366   -1.2827 F   0  0  0  0  0  0  0  0  0  0  0  0
   -1.3842    0.4373   -2.4112 F   0  0  0  0  0  0  0  0  0  0  0  0
   -2.1864   -1.5129   -2.8796 F   0  0  0  0  0  0  0  0  0  0  0  0
    0.2555    0.6563    2.8877 H   0  0  0  0  0  0  0  0  0  0  0  0
    0.6136   -0.9818    2.3293 H   0  0  0  0  0  0  0  0  0  0  0  0
    4.1846   -1.3807   -1.0354 H   0  0  0  0  0  0  0  0  0  0  0  0
    6.2078   -0.2885   -2.0015 H   0  0  0  0  0  0  0  0  0  0  0  0
    3.3685    2.3184    1.0285 H   0  0  0  0  0  0  0  0  0  0  0  0
   -1.8348   -0.7599    2.2534 H   0  0  0  0  0  0  0  0  0  0  0  0
   -6.2840   -0.4158    1.2318 H   0  0  0  0  0  0  0  0  0  0  0  0
   -6.4081   -0.2601   -1.2356 H   0  0  0  0  0  0  0  0  0  0  0  0
   -4.3491   -0.3539   -2.5818 H   0  0  0  0  0  0  0  0  0  0  0  0
  1  2  2  0
  2  3  1  0
  3  4  1  0
  4  5  1  0
  5  6  2  0
  5  7  1  0
  7  8  2  0
  8  9  1  0
  9 10  2  0
 10 11  1  0
 10 12  1  0
 12 13  2  0
  2 14  1  0
 14 15  1  0
 15 16  2  0
 16 17  1  0
 16 18  1  0
 18 19  2  0
 19 20  1  0
 20 21  2  0
 21 22  1  0
 22 23  1  0
 22 24  1  0
 22 25  1  0
 13  7  1  0
 21 15  1  0
  3 26  1  0
  3 27  1  0
  8 28  1  0
  9 29  1  0
 13 30  1  0
 14 31  1  0
 18 32  1  0
 19 33  1  0
 20 34  1  0
M  END
$$$$
