
     RDKit          3D

 58 62  0  0  0  0  0  0  0  0999 V2000
    3.7300   -0.3081    4.9380 C   0  0  0  0  0  0  0  0  0  0  0  0
    4.0768   -0.1956    3.5576 O   0  0  0  0  0  0  0  0  0  0  0  0
    3.4272   -1.0698    2.7488 C   0  0  0  0  0  0  0  0  0  0  0  0
    2.6097   -1.9042    3.1087 O   0  0  0  0  0  0  0  0  0  0  0  0
    3.8106   -0.8711    1.3301 C   0  0  0  0  0  0  0  0  0  0  0  0
    5.0523   -0.4597    1.0290 C   0  0  0  0  0  0  0  0  0  0  0  0
    5.5749   -0.3451   -0.2335 O   0  0  0  0  0  0  0  0  0  0  0  0
    4.7884   -0.9367   -1.2892 C   0  0  0  0  0  0  0  0  0  0  0  0
    5.3614   -0.4002   -2.5974 C   0  0  0  0  0  0  0  0  0  0  0  0
    3.2977   -0.6117   -1.0963 C   0  0  0  0  0  0  0  0  0  0  0  0
    2.3865   -1.1057   -2.2250 C   0  0  0  0  0  0  0  0  0  0  0  0
    0.9689   -0.7864   -2.0168 N   0  0  0  0  0  0  0  0  0  0  0  0
    0.6554    0.6352   -2.3036 C   0  0  0  0  0  0  0  0  0  0  0  0
   -0.8681    0.9187   -2.3487 C   0  0  0  0  0  0  0  0  0  0  0  0
   -1.5550    0.2512   -1.2103 C   0  0  0  0  0  0  0  0  0  0  0  0
   -0.9237   -0.7370   -0.4853 C   0  0  0  0  0  0  0  0  0  0  0  0
   -1.7987   -1.1921    0.4617 N   0  0  0  0  0  0  0  0  0  0  0  0
   -2.9851   -0.4938    0.3747 C   0  0  0  0  0  0  0  0  0  0  0  0
   -4.1512   -0.6038    1.1371 C   0  0  0  0  0  0  0  0  0  0  0  0
   -5.2100    0.2537    0.8157 C   0  0  0  0  0  0  0  0  0  0  0  0
   -6.3634    0.1251    1.5565 O   0  0  0  0  0  0  0  0  0  0  0  0
   -6.3851    1.1080    2.5918 C   0  0  0  0  0  0  0  0  0  0  0  0
   -5.1413    1.1587   -0.2541 C   0  0  0  0  0  0  0  0  0  0  0  0
   -6.2655    1.9123   -0.4819 O   0  0  0  0  0  0  0  0  0  0  0  0
   -6.2702    2.7342   -1.6405 C   0  0  0  0  0  0  0  0  0  0  0  0
   -3.9581    1.2460   -1.0005 C   0  0  0  0  0  0  0  0  0  0  0  0
   -2.8618    0.4146   -0.6798 C   0  0  0  0  0  0  0  0  0  0  0  0
    0.4771   -1.2289   -0.6868 C   0  0  0  0  0  0  0  0  0  0  0  0
    1.3786   -0.7792    0.4809 C   0  0  0  0  0  0  0  0  0  0  0  0
    2.8287   -1.2261    0.2428 C   0  0  0  0  0  0  0  0  0  0  0  0
    2.6476   -0.2291    5.0777 H   0  0  0  0  0  0  0  0  0  0  0  0
    4.1061   -1.2510    5.3456 H   0  0  0  0  0  0  0  0  0  0  0  0
    4.2064    0.5168    5.4738 H   0  0  0  0  0  0  0  0  0  0  0  0
    5.8013   -0.1773    1.7601 H   0  0  0  0  0  0  0  0  0  0  0  0
    4.9526   -2.0223   -1.2600 H   0  0  0  0  0  0  0  0  0  0  0  0
    6.4471   -0.5472   -2.6268 H   0  0  0  0  0  0  0  0  0  0  0  0
    5.1881    0.6782   -2.6867 H   0  0  0  0  0  0  0  0  0  0  0  0
    4.9295   -0.9004   -3.4685 H   0  0  0  0  0  0  0  0  0  0  0  0
    3.2122    0.4832   -1.0255 H   0  0  0  0  0  0  0  0  0  0  0  0
    2.7043   -0.7007   -3.1921 H   0  0  0  0  0  0  0  0  0  0  0  0
    2.4835   -2.1953   -2.3205 H   0  0  0  0  0  0  0  0  0  0  0  0
    1.0705    0.9206   -3.2781 H   0  0  0  0  0  0  0  0  0  0  0  0
    1.1199    1.2920   -1.5575 H   0  0  0  0  0  0  0  0  0  0  0  0
   -1.2833    0.5358   -3.2883 H   0  0  0  0  0  0  0  0  0  0  0  0
   -1.0389    2.0000   -2.3220 H   0  0  0  0  0  0  0  0  0  0  0  0
   -1.6122   -1.9240    1.1340 H   0  0  0  0  0  0  0  0  0  0  0  0
   -4.2402   -1.3178    1.9489 H   0  0  0  0  0  0  0  0  0  0  0  0
   -7.3648    1.0600    3.0785 H   0  0  0  0  0  0  0  0  0  0  0  0
   -5.6199    0.8868    3.3451 H   0  0  0  0  0  0  0  0  0  0  0  0
   -6.2512    2.1251    2.2054 H   0  0  0  0  0  0  0  0  0  0  0  0
   -5.5261    3.5328   -1.5593 H   0  0  0  0  0  0  0  0  0  0  0  0
   -7.2554    3.2048   -1.7116 H   0  0  0  0  0  0  0  0  0  0  0  0
   -6.1186    2.1431   -2.5497 H   0  0  0  0  0  0  0  0  0  0  0  0
   -3.8497    1.9361   -1.8274 H   0  0  0  0  0  0  0  0  0  0  0  0
    0.4467   -2.3272   -0.7000 H   0  0  0  0  0  0  0  0  0  0  0  0
    0.9873   -1.2130    1.4080 H   0  0  0  0  0  0  0  0  0  0  0  0
    1.3348    0.3105    0.6153 H   0  0  0  0  0  0  0  0  0  0  0  0
    2.8356   -2.3231    0.1579 H   0  0  0  0  0  0  0  0  0  0  0  0
  1  2  1  0
  2  3  1  0
  3  4  2  0
  3  5  1  0
  5  6  2  0
  6  7  1  0
  7  8  1  0
  8  9  1  0
  8 10  1  0
 10 11  1  0
 11 12  1  0
 12 13  1  0
 13 14  1  0
 14 15  1  0
 15 16  2  0
 16 17  1  0
 17 18  1  0
 18 19  2  0
 19 20  1  0
 20 21  1  0
 21 22  1  0
 20 23  2  0
 23 24  1  0
 24 25  1  0
 23 26  1  0
 26 27  2  0
 16 28  1  0
 28 29  1  0
 29 30  1  0
 30  5  1  0
 30 10  1  0
 28 12  1  0
 27 15  1  0
 27 18  1  0
  1 31  1  0
  1 32  1  0
  1 33  1  0
  6 34  1  0
  8 35  1  0
  9 36  1  0
  9 37  1  0
  9 38  1  0
 10 39  1  0
 11 40  1  0
 11 41  1  0
 13 42  1  0
 13 43  1  0
 14 44  1  0
 14 45  1  0
 17 46  1  0
 19 47  1  0
 22 48  1  0
 22 49  1  0
 22 50  1  0
 25 51  1  0
 25 52  1  0
 25 53  1  0
 26 54  1  0
 28 55  1  0
 29 56  1  0
 29 57  1  0
 30 58  1  0
M  END
$$$$
