
     RDKit          3D

 57 61  0  0  0  0  0  0  0  0999 V2000
   -5.0728    2.7508    1.7467 C   0  0  0  0  0  0  0  0  0  0  0  0
   -4.5685    3.3343    0.4758 N   0  0  0  0  0  0  0  0  0  0  0  0
   -4.9846    4.7530    0.3286 C   0  0  0  0  0  0  0  0  0  0  0  0
   -4.8833    2.4040   -0.9358 S   0  0  0  0  0  6  0  0  0  0  0  0
   -6.2752    2.0067   -0.8920 O   0  0  0  0  0  0  0  0  0  0  0  0
   -4.3390    3.1121   -2.0770 O   0  0  0  0  0  0  0  0  0  0  0  0
   -3.8871    0.9554   -0.6814 C   0  0  0  0  0  0  0  0  0  0  0  0
   -4.4792   -0.2629   -0.3670 C   0  0  0  0  0  0  0  0  0  0  0  0
   -3.6776   -1.4048   -0.2032 C   0  0  0  0  0  0  0  0  0  0  0  0
   -2.2740   -1.3806   -0.3481 C   0  0  0  0  0  0  0  0  0  0  0  0
   -1.5257   -2.5476   -0.2004 N   0  0  0  0  0  0  0  0  0  0  0  0
   -2.1268   -3.8253    0.2019 C   0  0  0  0  0  0  0  0  0  0  0  0
   -0.9990   -4.8335    0.0249 C   0  0  0  0  0  0  0  0  0  0  0  0
   -0.3206   -4.3277   -1.2344 C   0  0  0  0  0  0  0  0  0  0  0  0
   -0.3454   -2.8086   -1.0524 C   0  0  0  0  0  0  0  0  0  0  0  0
   -1.7132   -0.1063   -0.6264 C   0  0  0  0  0  0  0  0  0  0  0  0
   -0.2529    0.1499   -0.6432 C   0  0  0  0  0  0  0  0  0  0  0  0
    0.2396    0.6298   -1.6574 O   0  0  0  0  0  0  0  0  0  0  0  0
    0.3594   -0.1206    0.5631 N   0  0  0  0  0  0  0  0  0  0  0  0
    1.7059    0.0142    0.7483 C   0  0  0  0  0  0  0  0  0  0  0  0
    2.6308    0.3307   -0.1182 N   0  0  0  0  0  0  0  0  0  0  0  0
    3.8741    0.3515    0.5051 C   0  0  0  0  0  0  0  0  0  0  0  0
    3.8478    0.0477    1.8692 C   0  0  0  0  0  0  0  0  0  0  0  0
    5.0110    0.0484    2.6558 C   0  0  0  0  0  0  0  0  0  0  0  0
    6.2321    0.3458    2.0412 C   0  0  0  0  0  0  0  0  0  0  0  0
    6.3118    0.6280    0.6722 C   0  0  0  0  0  0  0  0  0  0  0  0
    7.5370    0.8995    0.0424 C   0  0  0  0  0  0  0  0  0  0  0  0
    7.5906    1.1764   -1.3331 C   0  0  0  0  0  0  0  0  0  0  0  0
    6.4206    1.2019   -2.0910 C   0  0  0  0  0  0  0  0  0  0  0  0
    5.1908    0.9401   -1.4826 C   0  0  0  0  0  0  0  0  0  0  0  0
    5.1296    0.6419   -0.1059 C   0  0  0  0  0  0  0  0  0  0  0  0
    2.2220   -0.3047    2.3394 S   0  0  0  0  0  0  0  0  0  0  0  0
   -2.5065    1.0430   -0.8184 C   0  0  0  0  0  0  0  0  0  0  0  0
   -4.7660    1.7009    1.8428 H   0  0  0  0  0  0  0  0  0  0  0  0
   -4.6269    3.2946    2.5957 H   0  0  0  0  0  0  0  0  0  0  0  0
   -6.1721    2.8168    1.8200 H   0  0  0  0  0  0  0  0  0  0  0  0
   -4.8057    5.3044    1.2608 H   0  0  0  0  0  0  0  0  0  0  0  0
   -6.0487    4.8284    0.0797 H   0  0  0  0  0  0  0  0  0  0  0  0
   -4.3943    5.2398   -0.4569 H   0  0  0  0  0  0  0  0  0  0  0  0
   -5.5591   -0.3479   -0.2647 H   0  0  0  0  0  0  0  0  0  0  0  0
   -4.2012   -2.3303    0.0188 H   0  0  0  0  0  0  0  0  0  0  0  0
   -2.4752   -3.8000    1.2420 H   0  0  0  0  0  0  0  0  0  0  0  0
   -2.9580   -4.1008   -0.4612 H   0  0  0  0  0  0  0  0  0  0  0  0
   -0.3074   -4.7880    0.8756 H   0  0  0  0  0  0  0  0  0  0  0  0
   -1.3646   -5.8608   -0.0737 H   0  0  0  0  0  0  0  0  0  0  0  0
    0.6932   -4.7130   -1.3587 H   0  0  0  0  0  0  0  0  0  0  0  0
   -0.9034   -4.6150   -2.1217 H   0  0  0  0  0  0  0  0  0  0  0  0
    0.5633   -2.5042   -0.5291 H   0  0  0  0  0  0  0  0  0  0  0  0
   -0.3861   -2.3155   -2.0291 H   0  0  0  0  0  0  0  0  0  0  0  0
   -0.1829   -0.4842    1.3338 H   0  0  0  0  0  0  0  0  0  0  0  0
    4.9698   -0.1721    3.7177 H   0  0  0  0  0  0  0  0  0  0  0  0
    7.1343    0.3552    2.6513 H   0  0  0  0  0  0  0  0  0  0  0  0
    8.4651    0.8938    0.6083 H   0  0  0  0  0  0  0  0  0  0  0  0
    8.5498    1.3748   -1.8092 H   0  0  0  0  0  0  0  0  0  0  0  0
    6.4618    1.4239   -3.1539 H   0  0  0  0  0  0  0  0  0  0  0  0
    4.2790    0.9609   -2.0796 H   0  0  0  0  0  0  0  0  0  0  0  0
   -2.0361    1.9960   -1.0553 H   0  0  0  0  0  0  0  0  0  0  0  0
  1  2  1  0
  2  3  1  0
  2  4  1  0
  4  5  2  0
  4  6  2  0
  4  7  1  0
  7  8  2  0
  8  9  1  0
  9 10  2  0
 10 11  1  0
 11 12  1  0
 12 13  1  0
 13 14  1  0
 14 15  1  0
 10 16  1  0
 16 17  1  0
 17 18  2  0
 17 19  1  0
 19 20  1  0
 20 21  2  0
 21 22  1  0
 22 23  2  0
 23 24  1  0
 24 25  2  0
 25 26  1  0
 26 27  2  0
 27 28  1  0
 28 29  2  0
 29 30  1  0
 30 31  2  0
 23 32  1  0
 16 33  2  0
 33  7  1  0
 15 11  1  0
 32 20  1  0
 31 22  1  0
 31 26  1  0
  1 34  1  0
  1 35  1  0
  1 36  1  0
  3 37  1  0
  3 38  1  0
  3 39  1  0
  8 40  1  0
  9 41  1  0
 12 42  1  0
 12 43  1  0
 13 44  1  0
 13 45  1  0
 14 46  1  0
 14 47  1  0
 15 48  1  0
 15 49  1  0
 19 50  1  0
 24 51  1  0
 25 52  1  0
 27 53  1  0
 28 54  1  0
 29 55  1  0
 30 56  1  0
 33 57  1  0
M  END
$$$$
