
     RDKit          3D

 52 55  0  0  0  0  0  0  0  0999 V2000
    6.3477    2.7884   -2.7412 C   0  0  0  0  0  0  0  0  0  0  0  0
    6.2901    2.4215   -1.2662 C   0  0  0  0  0  0  0  0  0  0  0  0
    5.0007    1.7251   -0.9117 C   0  0  0  0  0  0  0  0  0  0  0  0
    4.8961    0.3314   -1.0050 C   0  0  0  0  0  0  0  0  0  0  0  0
    3.6962   -0.3156   -0.6926 C   0  0  0  0  0  0  0  0  0  0  0  0
    2.5835    0.4282   -0.2878 C   0  0  0  0  0  0  0  0  0  0  0  0
    1.2961   -0.2230    0.0493 C   0  0  0  0  0  0  0  0  0  0  0  0
    0.2725    0.4258    0.5165 N   0  0  0  0  0  0  0  0  0  0  0  0
   -0.7370   -0.4781    0.6877 N   0  0  0  0  0  0  0  0  0  0  0  0
   -1.9258   -0.1091    1.3140 C   0  0  0  0  0  0  0  0  0  0  0  0
   -2.1313    1.2185    1.7368 C   0  0  0  0  0  0  0  0  0  0  0  0
   -3.3115    1.6228    2.3688 C   0  0  0  0  0  0  0  0  0  0  0  0
   -4.3156    0.6862    2.5997 C   0  0  0  0  0  0  0  0  0  0  0  0
   -5.8063    1.1942    3.4091 S   0  0  0  0  0  6  0  0  0  0  0  0
   -5.3230    1.2076    5.0238 N   0  0  0  0  0  0  0  0  0  0  0  0
   -6.1016    2.5518    3.0195 O   0  0  0  0  0  0  0  0  0  0  0  0
   -6.7746    0.1259    3.3092 O   0  0  0  0  0  0  0  0  0  0  0  0
   -4.1567   -0.6342    2.1854 C   0  0  0  0  0  0  0  0  0  0  0  0
   -2.9686   -1.0209    1.5517 C   0  0  0  0  0  0  0  0  0  0  0  0
   -0.4070   -1.8087    0.1725 C   0  0  0  0  0  0  0  0  0  0  0  0
   -1.1649   -2.1720   -1.0983 C   0  0  0  0  0  0  0  0  0  0  0  0
   -1.5049   -1.2078   -2.0649 C   0  0  0  0  0  0  0  0  0  0  0  0
   -2.1793   -1.5748   -3.2306 C   0  0  0  0  0  0  0  0  0  0  0  0
   -2.5100   -2.9067   -3.4399 C   0  0  0  0  0  0  0  0  0  0  0  0
   -3.1550   -3.2602   -4.5593 F   0  0  0  0  0  0  0  0  0  0  0  0
   -2.1786   -3.8803   -2.5059 C   0  0  0  0  0  0  0  0  0  0  0  0
   -1.5050   -3.5161   -1.3384 C   0  0  0  0  0  0  0  0  0  0  0  0
    1.0956   -1.7063   -0.0970 C   0  0  0  0  0  0  0  0  0  0  0  0
    2.6825    1.8211   -0.1977 C   0  0  0  0  0  0  0  0  0  0  0  0
    3.8820    2.4651   -0.5104 C   0  0  0  0  0  0  0  0  0  0  0  0
    5.5297    3.4634   -3.0150 H   0  0  0  0  0  0  0  0  0  0  0  0
    7.2929    3.2910   -2.9694 H   0  0  0  0  0  0  0  0  0  0  0  0
    6.2749    1.8982   -3.3752 H   0  0  0  0  0  0  0  0  0  0  0  0
    6.4016    3.3253   -0.6548 H   0  0  0  0  0  0  0  0  0  0  0  0
    7.1397    1.7765   -1.0111 H   0  0  0  0  0  0  0  0  0  0  0  0
    5.7523   -0.2602   -1.3232 H   0  0  0  0  0  0  0  0  0  0  0  0
    3.6592   -1.3975   -0.7721 H   0  0  0  0  0  0  0  0  0  0  0  0
   -1.3553    1.9619    1.5617 H   0  0  0  0  0  0  0  0  0  0  0  0
   -3.4347    2.6620    2.6659 H   0  0  0  0  0  0  0  0  0  0  0  0
   -4.3166    1.0947    5.1407 H   0  0  0  0  0  0  0  0  0  0  0  0
   -5.8492    0.4927    5.5287 H   0  0  0  0  0  0  0  0  0  0  0  0
   -4.9441   -1.3685    2.3408 H   0  0  0  0  0  0  0  0  0  0  0  0
   -2.8825   -2.0573    1.2385 H   0  0  0  0  0  0  0  0  0  0  0  0
   -0.5856   -2.5699    0.9426 H   0  0  0  0  0  0  0  0  0  0  0  0
   -1.2542   -0.1591   -1.9082 H   0  0  0  0  0  0  0  0  0  0  0  0
   -2.4490   -0.8289   -3.9714 H   0  0  0  0  0  0  0  0  0  0  0  0
   -2.4472   -4.9150   -2.6937 H   0  0  0  0  0  0  0  0  0  0  0  0
   -1.2494   -4.2893   -0.6168 H   0  0  0  0  0  0  0  0  0  0  0  0
    1.6697   -2.2161    0.6841 H   0  0  0  0  0  0  0  0  0  0  0  0
    1.4002   -2.0690   -1.0824 H   0  0  0  0  0  0  0  0  0  0  0  0
    1.8259    2.4159    0.1134 H   0  0  0  0  0  0  0  0  0  0  0  0
    3.9356    3.5495   -0.4392 H   0  0  0  0  0  0  0  0  0  0  0  0
  1  2  1  0
  2  3  1  0
  3  4  2  0
  4  5  1  0
  5  6  2  0
  6  7  1  0
  7  8  2  0
  8  9  1  0
  9 10  1  0
 10 11  2  0
 11 12  1  0
 12 13  2  0
 13 14  1  0
 14 15  1  0
 14 16  2  0
 14 17  2  0
 13 18  1  0
 18 19  2  0
  9 20  1  0
 20 21  1  0
 21 22  2  0
 22 23  1  0
 23 24  2  0
 24 25  1  0
 24 26  1  0
 26 27  2  0
 20 28  1  0
  6 29  1  0
 29 30  2  0
 30  3  1  0
 28  7  1  0
 19 10  1  0
 27 21  1  0
  1 31  1  0
  1 32  1  0
  1 33  1  0
  2 34  1  0
  2 35  1  0
  4 36  1  0
  5 37  1  0
 11 38  1  0
 12 39  1  0
 15 40  1  0
 15 41  1  0
 18 42  1  0
 19 43  1  0
 20 44  1  0
 22 45  1  0
 23 46  1  0
 26 47  1  0
 27 48  1  0
 28 49  1  0
 28 50  1  0
 29 51  1  0
 30 52  1  0
M  END
$$$$
