
     RDKit          3D

 34 36  0  0  0  0  0  0  0  0999 V2000
    5.4873    1.0737    0.4946 C   0  0  0  0  0  0  0  0  0  0  0  0
    4.2385    0.3599    0.3073 N   0  0  0  0  0  0  0  0  0  0  0  0
    3.0421    0.9775    0.8526 C   0  0  0  0  0  0  0  0  0  0  0  0
    1.7857    0.2814    0.4567 C   0  0  0  0  0  0  0  0  0  0  0  0
    0.5256    0.8736    0.5736 C   0  0  0  0  0  0  0  0  0  0  0  0
   -0.6139    0.1341    0.2498 C   0  0  0  0  0  0  0  0  0  0  0  0
   -1.9513    0.7505    0.4022 C   0  0  0  0  0  0  0  0  0  0  0  0
   -2.0960    1.6590    1.2186 O   0  0  0  0  0  0  0  0  0  0  0  0
   -3.1317    0.2829   -0.3614 C   0  0  0  0  0  0  0  0  0  0  0  0
   -4.3403    0.1435    0.3336 C   0  0  0  0  0  0  0  0  0  0  0  0
   -5.4872   -0.2878   -0.3340 C   0  0  0  0  0  0  0  0  0  0  0  0
   -5.4343   -0.5685   -1.6990 C   0  0  0  0  0  0  0  0  0  0  0  0
   -4.2392   -0.4087   -2.4037 C   0  0  0  0  0  0  0  0  0  0  0  0
   -3.0924    0.0244   -1.7363 C   0  0  0  0  0  0  0  0  0  0  0  0
   -1.9359    0.2139   -2.4381 O   0  0  0  0  0  0  0  0  0  0  0  0
   -0.4374   -1.1880   -0.1377 C   0  0  0  0  0  0  0  0  0  0  0  0
    0.7735   -1.7913   -0.2473 N   0  0  0  0  0  0  0  0  0  0  0  0
    1.8526   -1.0369    0.0421 C   0  0  0  0  0  0  0  0  0  0  0  0
    3.0916   -1.6341   -0.0805 N   0  0  0  0  0  0  0  0  0  0  0  0
    4.2854   -0.9915    0.0258 C   0  0  0  0  0  0  0  0  0  0  0  0
    5.3310   -1.6114   -0.1584 O   0  0  0  0  0  0  0  0  0  0  0  0
    5.7461    1.0573    1.5576 H   0  0  0  0  0  0  0  0  0  0  0  0
    6.2984    0.6118   -0.0754 H   0  0  0  0  0  0  0  0  0  0  0  0
    5.3668    2.1078    0.1594 H   0  0  0  0  0  0  0  0  0  0  0  0
    3.0135    2.0154    0.5013 H   0  0  0  0  0  0  0  0  0  0  0  0
    3.1316    0.9741    1.9453 H   0  0  0  0  0  0  0  0  0  0  0  0
    0.4263    1.9001    0.9200 H   0  0  0  0  0  0  0  0  0  0  0  0
   -4.3891    0.3735    1.3964 H   0  0  0  0  0  0  0  0  0  0  0  0
   -6.4225   -0.3982    0.2100 H   0  0  0  0  0  0  0  0  0  0  0  0
   -6.3306   -0.9018   -2.2175 H   0  0  0  0  0  0  0  0  0  0  0  0
   -4.2258   -0.6191   -3.4693 H   0  0  0  0  0  0  0  0  0  0  0  0
   -2.1016    0.0620   -3.3845 H   0  0  0  0  0  0  0  0  0  0  0  0
   -1.2771   -1.8366   -0.3682 H   0  0  0  0  0  0  0  0  0  0  0  0
    3.1103   -2.6026   -0.3607 H   0  0  0  0  0  0  0  0  0  0  0  0
  1  2  1  0
  2  3  1  0
  3  4  1  0
  4  5  2  0
  5  6  1  0
  6  7  1  0
  7  8  2  0
  7  9  1  0
  9 10  2  0
 10 11  1  0
 11 12  2  0
 12 13  1  0
 13 14  2  0
 14 15  1  0
  6 16  2  0
 16 17  1  0
 17 18  2  0
 18 19  1  0
 19 20  1  0
 20 21  2  0
 20  2  1  0
 18  4  1  0
 14  9  1  0
  1 22  1  0
  1 23  1  0
  1 24  1  0
  3 25  1  0
  3 26  1  0
  5 27  1  0
 10 28  1  0
 11 29  1  0
 12 30  1  0
 13 31  1  0
 15 32  1  0
 16 33  1  0
 19 34  1  0
M  END
$$$$
