
     RDKit          3D

 39 41  0  0  0  0  0  0  0  0999 V2000
   -1.8148    0.9035   -2.5725 C   0  0  0  0  0  0  0  0  0  0  0  0
   -2.5151    0.3819   -1.3460 C   0  0  0  0  0  0  0  0  0  0  0  0
   -3.9022    0.1686   -1.4641 C   0  0  0  0  0  0  0  0  0  0  0  0
   -4.6321   -0.4173   -0.4362 C   0  0  0  0  0  0  0  0  0  0  0  0
   -3.9859   -0.8065    0.7297 C   0  0  0  0  0  0  0  0  0  0  0  0
   -2.6090   -0.5825    0.8955 C   0  0  0  0  0  0  0  0  0  0  0  0
   -1.9806   -1.0060    2.1984 C   0  0  0  0  0  0  0  0  0  0  0  0
   -1.8698    0.0558   -0.1335 C   0  0  0  0  0  0  0  0  0  0  0  0
   -0.4879    0.2712    0.1007 N   0  0  0  0  0  0  0  0  0  0  0  0
    0.2464    1.3792   -0.2684 C   0  0  0  0  0  0  0  0  0  0  0  0
   -0.2069    2.3840   -0.8124 O   0  0  0  0  0  0  0  0  0  0  0  0
    1.7404    1.3148    0.0505 C   0  0  0  0  0  0  0  0  0  0  0  0
    2.1484    0.8670    1.4682 C   0  0  0  0  0  0  0  0  0  0  0  0
    3.2372   -0.1879    1.1901 C   0  0  0  0  0  0  0  0  0  0  0  0
    2.5725   -1.4658    0.6513 C   0  0  0  0  0  0  0  0  0  0  0  0
    2.1922   -1.0760   -0.7840 C   0  0  0  0  0  0  0  0  0  0  0  0
    2.5970    0.4054   -0.8623 C   0  0  0  0  0  0  0  0  0  0  0  0
    3.9084    0.3711   -0.0664 C   0  0  0  0  0  0  0  0  0  0  0  0
   -1.8583    1.9956   -2.6056 H   0  0  0  0  0  0  0  0  0  0  0  0
   -2.2984    0.5219   -3.4798 H   0  0  0  0  0  0  0  0  0  0  0  0
   -0.7774    0.5613   -2.6267 H   0  0  0  0  0  0  0  0  0  0  0  0
   -4.4180    0.4418   -2.3830 H   0  0  0  0  0  0  0  0  0  0  0  0
   -5.6998   -0.5829   -0.5520 H   0  0  0  0  0  0  0  0  0  0  0  0
   -4.5684   -1.2772    1.5188 H   0  0  0  0  0  0  0  0  0  0  0  0
   -1.2330   -1.7862    2.0226 H   0  0  0  0  0  0  0  0  0  0  0  0
   -1.5113   -0.1490    2.6924 H   0  0  0  0  0  0  0  0  0  0  0  0
   -2.7229   -1.4139    2.8929 H   0  0  0  0  0  0  0  0  0  0  0  0
   -0.0866   -0.2806    0.8423 H   0  0  0  0  0  0  0  0  0  0  0  0
    2.1029    2.3473   -0.0712 H   0  0  0  0  0  0  0  0  0  0  0  0
    2.5853    1.7169    2.0071 H   0  0  0  0  0  0  0  0  0  0  0  0
    1.3341    0.4793    2.0855 H   0  0  0  0  0  0  0  0  0  0  0  0
    3.8995   -0.3639    2.0400 H   0  0  0  0  0  0  0  0  0  0  0  0
    3.2824   -2.3004    0.6378 H   0  0  0  0  0  0  0  0  0  0  0  0
    1.7035   -1.7684    1.2436 H   0  0  0  0  0  0  0  0  0  0  0  0
    2.7867   -1.6655   -1.4931 H   0  0  0  0  0  0  0  0  0  0  0  0
    1.1437   -1.2693   -1.0150 H   0  0  0  0  0  0  0  0  0  0  0  0
    2.6871    0.7757   -1.8860 H   0  0  0  0  0  0  0  0  0  0  0  0
    4.3527    1.3608    0.0838 H   0  0  0  0  0  0  0  0  0  0  0  0
    4.6583   -0.3039   -0.4929 H   0  0  0  0  0  0  0  0  0  0  0  0
  1  2  1  0
  2  3  2  0
  3  4  1  0
  4  5  2  0
  5  6  1  0
  6  7  1  0
  6  8  2  0
  8  9  1  0
  9 10  1  0
 10 11  2  0
 10 12  1  0
 12 13  1  0
 13 14  1  0
 14 15  1  0
 15 16  1  0
 16 17  1  0
 17 18  1  0
  8  2  1  0
 17 12  1  0
 18 14  1  0
  1 19  1  0
  1 20  1  0
  1 21  1  0
  3 22  1  0
  4 23  1  0
  5 24  1  0
  7 25  1  0
  7 26  1  0
  7 27  1  0
  9 28  1  0
 12 29  1  0
 13 30  1  0
 13 31  1  0
 14 32  1  0
 15 33  1  0
 15 34  1  0
 16 35  1  0
 16 36  1  0
 17 37  1  0
 18 38  1  0
 18 39  1  0
M  END
$$$$
