
     RDKit          3D

 38 39  0  0  0  0  0  0  0  0999 V2000
   -1.3882    2.6463   -0.2257 C   0  0  0  0  0  0  0  0  0  0  0  0
   -1.2400    1.9166    1.0310 N   0  0  0  0  0  0  0  0  0  0  0  0
   -2.4179    1.0795    1.3148 C   0  0  0  0  0  0  0  0  0  0  0  0
   -2.5112   -0.1506    0.4396 C   0  0  0  0  0  0  0  0  0  0  0  0
   -3.3786   -0.1486   -0.6673 C   0  0  0  0  0  0  0  0  0  0  0  0
   -3.4576   -1.2546   -1.5112 C   0  0  0  0  0  0  0  0  0  0  0  0
   -2.6714   -2.3743   -1.2591 C   0  0  0  0  0  0  0  0  0  0  0  0
   -1.8079   -2.3944   -0.1616 C   0  0  0  0  0  0  0  0  0  0  0  0
   -1.7220   -1.2888    0.6907 C   0  0  0  0  0  0  0  0  0  0  0  0
   -0.9199   -1.2209    1.7999 O   0  0  0  0  0  0  0  0  0  0  0  0
    0.1807   -2.1108    1.8859 C   0  0  0  0  0  0  0  0  0  0  0  0
    1.3244   -1.8619    0.8949 C   0  0  0  0  0  0  0  0  0  0  0  0
    2.0653   -2.7841    0.5626 O   0  0  0  0  0  0  0  0  0  0  0  0
    1.4297   -0.5349    0.5153 N   0  0  0  0  0  0  0  0  0  0  0  0
    2.4071    0.0481   -0.3149 C   0  0  0  0  0  0  0  0  0  0  0  0
    3.4585   -0.6584   -0.9014 C   0  0  0  0  0  0  0  0  0  0  0  0
    4.3907   -0.0020   -1.7122 C   0  0  0  0  0  0  0  0  0  0  0  0
    4.2810    1.3674   -1.9417 C   0  0  0  0  0  0  0  0  0  0  0  0
    3.2393    2.0824   -1.3584 C   0  0  0  0  0  0  0  0  0  0  0  0
    2.3095    1.4247   -0.5487 C   0  0  0  0  0  0  0  0  0  0  0  0
   -0.5528    3.3450   -0.3391 H   0  0  0  0  0  0  0  0  0  0  0  0
   -2.3128    3.2324   -0.2469 H   0  0  0  0  0  0  0  0  0  0  0  0
   -1.3639    1.9740   -1.0885 H   0  0  0  0  0  0  0  0  0  0  0  0
   -1.1627    2.5977    1.7868 H   0  0  0  0  0  0  0  0  0  0  0  0
   -3.3390    1.6733    1.2454 H   0  0  0  0  0  0  0  0  0  0  0  0
   -2.3712    0.7601    2.3636 H   0  0  0  0  0  0  0  0  0  0  0  0
   -3.9904    0.7246   -0.8823 H   0  0  0  0  0  0  0  0  0  0  0  0
   -4.1264   -1.2395   -2.3674 H   0  0  0  0  0  0  0  0  0  0  0  0
   -2.7288   -3.2371   -1.9180 H   0  0  0  0  0  0  0  0  0  0  0  0
   -1.2229   -3.2945   -0.0027 H   0  0  0  0  0  0  0  0  0  0  0  0
    0.6134   -1.9770    2.8847 H   0  0  0  0  0  0  0  0  0  0  0  0
   -0.1455   -3.1550    1.8349 H   0  0  0  0  0  0  0  0  0  0  0  0
    0.6820    0.0802    0.8393 H   0  0  0  0  0  0  0  0  0  0  0  0
    3.5821   -1.7261   -0.7518 H   0  0  0  0  0  0  0  0  0  0  0  0
    5.2016   -0.5677   -2.1638 H   0  0  0  0  0  0  0  0  0  0  0  0
    5.0063    1.8742   -2.5726 H   0  0  0  0  0  0  0  0  0  0  0  0
    3.1506    3.1518   -1.5292 H   0  0  0  0  0  0  0  0  0  0  0  0
    1.5091    2.0028   -0.0964 H   0  0  0  0  0  0  0  0  0  0  0  0
  1  2  1  0
  2  3  1  0
  3  4  1  0
  4  5  2  0
  5  6  1  0
  6  7  2  0
  7  8  1  0
  8  9  2  0
  9 10  1  0
 10 11  1  0
 11 12  1  0
 12 13  2  0
 12 14  1  0
 14 15  1  0
 15 16  2  0
 16 17  1  0
 17 18  2  0
 18 19  1  0
 19 20  2  0
  9  4  1  0
 20 15  1  0
  1 21  1  0
  1 22  1  0
  1 23  1  0
  2 24  1  0
  3 25  1  0
  3 26  1  0
  5 27  1  0
  6 28  1  0
  7 29  1  0
  8 30  1  0
 11 31  1  0
 11 32  1  0
 14 33  1  0
 16 34  1  0
 17 35  1  0
 18 36  1  0
 19 37  1  0
 20 38  1  0
M  END
$$$$
