
     RDKit          3D

 52 55  0  0  0  0  0  0  0  0999 V2000
    7.7906   -3.2033    1.4500 C   0  0  0  0  0  0  0  0  0  0  0  0
    7.4246   -2.5817    0.1154 C   0  0  0  0  0  0  0  0  0  0  0  0
    6.0301   -2.2467    0.0902 O   0  0  0  0  0  0  0  0  0  0  0  0
    5.6931   -1.0243    0.5986 C   0  0  0  0  0  0  0  0  0  0  0  0
    6.5100   -0.2397    1.0671 O   0  0  0  0  0  0  0  0  0  0  0  0
    4.2540   -0.7836    0.5099 C   0  0  0  0  0  0  0  0  0  0  0  0
    3.2307   -1.8784   -0.3297 S   0  0  0  0  0  0  0  0  0  0  0  0
    1.8508   -0.9300   -0.0643 C   0  0  0  0  0  0  0  0  0  0  0  0
    0.6476   -1.3085   -0.5474 N   0  0  0  0  0  0  0  0  0  0  0  0
   -0.3425   -0.4954   -0.3150 C   0  0  0  0  0  0  0  0  0  0  0  0
   -1.7320   -0.8136   -0.8293 C   0  0  0  0  0  0  0  0  0  0  0  0
   -1.9964   -2.2528   -1.7597 S   0  0  0  0  0  0  0  0  0  0  0  0
   -1.0171   -1.8996   -3.2492 C   0  0  0  0  0  0  0  0  0  0  0  0
   -1.5650   -0.7078   -3.9897 C   0  0  0  0  0  0  0  0  0  0  0  0
   -2.5006   -0.7038   -4.7738 O   0  0  0  0  0  0  0  0  0  0  0  0
   -0.9305    0.4445   -3.6854 O   0  0  0  0  0  0  0  0  0  0  0  0
   -2.7525    0.0104   -0.5520 C   0  0  0  0  0  0  0  0  0  0  0  0
   -2.5474    1.2134    0.2138 C   0  0  0  0  0  0  0  0  0  0  0  0
   -3.6375    2.1889    0.5011 C   0  0  0  0  0  0  0  0  0  0  0  0
   -3.4593    3.3965    0.3439 O   0  0  0  0  0  0  0  0  0  0  0  0
   -4.9729    1.7060    0.9395 C   0  0  0  0  0  0  0  0  0  0  0  0
   -5.1276    0.4976    1.6349 C   0  0  0  0  0  0  0  0  0  0  0  0
   -6.4003    0.0679    2.0220 C   0  0  0  0  0  0  0  0  0  0  0  0
   -7.5211    0.8436    1.7289 C   0  0  0  0  0  0  0  0  0  0  0  0
   -7.3734    2.0591    1.0622 C   0  0  0  0  0  0  0  0  0  0  0  0
   -6.1054    2.4931    0.6819 C   0  0  0  0  0  0  0  0  0  0  0  0
   -6.0443    3.7096    0.0555 O   0  0  0  0  0  0  0  0  0  0  0  0
   -1.3150    1.5324    0.6325 C   0  0  0  0  0  0  0  0  0  0  0  0
   -0.2116    0.7098    0.4040 N   0  0  0  0  0  0  0  0  0  0  0  0
    1.0342    1.1201    0.9190 C   0  0  0  0  0  0  0  0  0  0  0  0
    1.2008    2.1658    1.5445 O   0  0  0  0  0  0  0  0  0  0  0  0
    2.1338    0.2039    0.6534 C   0  0  0  0  0  0  0  0  0  0  0  0
    3.5272    0.2887    1.0316 C   0  0  0  0  0  0  0  0  0  0  0  0
    4.1102    1.4012    1.8522 C   0  0  0  0  0  0  0  0  0  0  0  0
    7.6428   -2.4922    2.2692 H   0  0  0  0  0  0  0  0  0  0  0  0
    8.8351   -3.5269    1.4534 H   0  0  0  0  0  0  0  0  0  0  0  0
    7.1514   -4.0680    1.6597 H   0  0  0  0  0  0  0  0  0  0  0  0
    7.5924   -3.3075   -0.6867 H   0  0  0  0  0  0  0  0  0  0  0  0
    8.0493   -1.7092   -0.1065 H   0  0  0  0  0  0  0  0  0  0  0  0
    0.0424   -1.7484   -3.0264 H   0  0  0  0  0  0  0  0  0  0  0  0
   -1.0697   -2.7624   -3.9212 H   0  0  0  0  0  0  0  0  0  0  0  0
   -1.3824    1.1183   -4.2380 H   0  0  0  0  0  0  0  0  0  0  0  0
   -3.7513   -0.1964   -0.9286 H   0  0  0  0  0  0  0  0  0  0  0  0
   -4.2739   -0.1202    1.9001 H   0  0  0  0  0  0  0  0  0  0  0  0
   -6.5188   -0.8714    2.5583 H   0  0  0  0  0  0  0  0  0  0  0  0
   -8.5110    0.5088    2.0304 H   0  0  0  0  0  0  0  0  0  0  0  0
   -8.2437    2.6735    0.8462 H   0  0  0  0  0  0  0  0  0  0  0  0
   -5.1025    3.9902    0.0230 H   0  0  0  0  0  0  0  0  0  0  0  0
   -1.1294    2.4550    1.1824 H   0  0  0  0  0  0  0  0  0  0  0  0
    4.4378    2.2177    1.2013 H   0  0  0  0  0  0  0  0  0  0  0  0
    3.3843    1.7941    2.5692 H   0  0  0  0  0  0  0  0  0  0  0  0
    4.9621    1.0617    2.4478 H   0  0  0  0  0  0  0  0  0  0  0  0
  1  2  1  0
  2  3  1  0
  3  4  1  0
  4  5  2  0
  4  6  1  0
  6  7  1  0
  7  8  1  0
  8  9  1  0
  9 10  2  0
 10 11  1  0
 11 12  1  0
 12 13  1  0
 13 14  1  0
 14 15  2  0
 14 16  1  0
 11 17  2  0
 17 18  1  0
 18 19  1  0
 19 20  2  0
 19 21  1  0
 21 22  2  0
 22 23  1  0
 23 24  2  0
 24 25  1  0
 25 26  2  0
 26 27  1  0
 18 28  2  0
 28 29  1  0
 29 30  1  0
 30 31  2  0
 30 32  1  0
 32 33  1  0
 33 34  1  0
 33  6  2  0
 32  8  2  0
 29 10  1  0
 26 21  1  0
  1 35  1  0
  1 36  1  0
  1 37  1  0
  2 38  1  0
  2 39  1  0
 13 40  1  0
 13 41  1  0
 16 42  1  0
 17 43  1  0
 22 44  1  0
 23 45  1  0
 24 46  1  0
 25 47  1  0
 27 48  1  0
 28 49  1  0
 34 50  1  0
 34 51  1  0
 34 52  1  0
M  END
$$$$
