
     RDKit          3D

 59 63  0  0  0  0  0  0  0  0999 V2000
   -4.8206    0.3836   -1.1418 C   0  0  0  0  0  0  0  0  0  0  0  0
   -3.6898    1.0758   -1.8977 C   0  0  0  0  0  0  0  0  0  0  0  0
   -2.3859    1.2473   -1.0858 C   0  0  0  0  0  0  0  0  0  0  0  0
   -1.4842    0.0749   -1.0949 N   0  0  0  0  0  0  0  0  0  0  0  0
   -1.6835   -0.8184   -0.0346 C   0  0  0  0  0  0  0  0  0  0  0  0
   -2.4871   -1.8864   -0.2174 N   0  0  0  0  0  0  0  0  0  0  0  0
   -2.6950   -2.7146    0.8240 C   0  0  0  0  0  0  0  0  0  0  0  0
   -3.5257   -3.8180    0.6683 C   0  0  0  0  0  0  0  0  0  0  0  0
   -3.7771   -4.6942    1.7253 C   0  0  0  0  0  0  0  0  0  0  0  0
   -3.1871   -4.4628    2.9609 C   0  0  0  0  0  0  0  0  0  0  0  0
   -2.3514   -3.3578    3.1270 C   0  0  0  0  0  0  0  0  0  0  0  0
   -2.0957   -2.4818    2.0791 C   0  0  0  0  0  0  0  0  0  0  0  0
   -1.2822   -1.4311    2.2712 N   0  0  0  0  0  0  0  0  0  0  0  0
   -1.0513   -0.6142    1.2051 C   0  0  0  0  0  0  0  0  0  0  0  0
   -0.0369    0.5018    1.3592 C   0  0  0  0  0  0  0  0  0  0  0  0
    0.4483    0.6921    2.7353 C   0  0  0  0  0  0  0  0  0  0  0  0
    0.8303    0.9365    3.8058 N   0  0  0  0  0  0  0  0  0  0  0  0
    1.1763    0.2840    0.4566 C   0  0  0  0  0  0  0  0  0  0  0  0
    1.6873   -0.8174    0.2614 O   0  0  0  0  0  0  0  0  0  0  0  0
    1.6735    1.4381   -0.1319 N   0  0  0  0  0  0  0  0  0  0  0  0
    2.8798    1.4191   -0.9308 C   0  0  0  0  0  0  0  0  0  0  0  0
    4.0469    1.9427   -0.1341 C   0  0  0  0  0  0  0  0  0  0  0  0
    4.4658    3.2866   -0.2723 C   0  0  0  0  0  0  0  0  0  0  0  0
    5.5292    3.7894    0.4844 C   0  0  0  0  0  0  0  0  0  0  0  0
    6.1472    2.9342    1.3702 C   0  0  0  0  0  0  0  0  0  0  0  0
    5.7452    1.6280    1.5157 C   0  0  0  0  0  0  0  0  0  0  0  0
    4.7015    1.1033    0.7837 C   0  0  0  0  0  0  0  0  0  0  0  0
    6.4833    0.9580    2.4402 O   0  0  0  0  0  0  0  0  0  0  0  0
    7.3841    1.9974    2.8734 C   0  0  0  0  0  0  0  0  0  0  0  0
    7.1879    3.2514    2.1860 O   0  0  0  0  0  0  0  0  0  0  0  0
   -1.3863   -0.5703   -2.4229 C   0  0  0  0  0  0  0  0  0  0  0  0
   -2.7563   -0.7663   -3.1009 C   0  0  0  0  0  0  0  0  0  0  0  0
   -2.5779   -1.2786   -4.5256 C   0  0  0  0  0  0  0  0  0  0  0  0
   -3.4682    0.4808   -3.1846 O   0  0  0  0  0  0  0  0  0  0  0  0
   -5.7333    0.3931   -1.7481 H   0  0  0  0  0  0  0  0  0  0  0  0
   -5.0300    0.8934   -0.1961 H   0  0  0  0  0  0  0  0  0  0  0  0
   -4.6121   -0.6649   -0.9268 H   0  0  0  0  0  0  0  0  0  0  0  0
   -4.0556    2.0886   -2.1101 H   0  0  0  0  0  0  0  0  0  0  0  0
   -2.6099    1.5867   -0.0668 H   0  0  0  0  0  0  0  0  0  0  0  0
   -1.8158    2.0601   -1.5550 H   0  0  0  0  0  0  0  0  0  0  0  0
   -3.9886   -3.9970   -0.2992 H   0  0  0  0  0  0  0  0  0  0  0  0
   -4.4291   -5.5517    1.5798 H   0  0  0  0  0  0  0  0  0  0  0  0
   -3.3710   -5.1368    3.7938 H   0  0  0  0  0  0  0  0  0  0  0  0
   -1.8845   -3.1750    4.0920 H   0  0  0  0  0  0  0  0  0  0  0  0
   -0.5285    1.4382    1.0670 H   0  0  0  0  0  0  0  0  0  0  0  0
    1.3599    2.3430    0.1921 H   0  0  0  0  0  0  0  0  0  0  0  0
    2.6973    2.0552   -1.8039 H   0  0  0  0  0  0  0  0  0  0  0  0
    3.0940    0.4116   -1.3038 H   0  0  0  0  0  0  0  0  0  0  0  0
    3.9624    3.9476   -0.9748 H   0  0  0  0  0  0  0  0  0  0  0  0
    5.8577    4.8175    0.3826 H   0  0  0  0  0  0  0  0  0  0  0  0
    4.3957    0.0700    0.9238 H   0  0  0  0  0  0  0  0  0  0  0  0
    8.4139    1.6624    2.7029 H   0  0  0  0  0  0  0  0  0  0  0  0
    7.2413    2.1608    3.9480 H   0  0  0  0  0  0  0  0  0  0  0  0
   -0.8348   -1.5177   -2.3643 H   0  0  0  0  0  0  0  0  0  0  0  0
   -0.7783    0.0997   -3.0451 H   0  0  0  0  0  0  0  0  0  0  0  0
   -3.3716   -1.4921   -2.5618 H   0  0  0  0  0  0  0  0  0  0  0  0
   -3.5528   -1.4082   -5.0082 H   0  0  0  0  0  0  0  0  0  0  0  0
   -2.0194   -0.5598   -5.1356 H   0  0  0  0  0  0  0  0  0  0  0  0
   -2.0511   -2.2376   -4.5402 H   0  0  0  0  0  0  0  0  0  0  0  0
  1  2  1  0
  2  3  1  0
  3  4  1  0
  4  5  1  0
  5  6  2  0
  6  7  1  0
  7  8  2  0
  8  9  1  0
  9 10  2  0
 10 11  1  0
 11 12  2  0
 12 13  1  0
 13 14  2  0
 14 15  1  0
 15 16  1  0
 16 17  3  0
 15 18  1  0
 18 19  2  0
 18 20  1  0
 20 21  1  0
 21 22  1  0
 22 23  2  0
 23 24  1  0
 24 25  2  0
 25 26  1  0
 26 27  2  0
 26 28  1  0
 28 29  1  0
 29 30  1  0
  4 31  1  0
 31 32  1  0
 32 33  1  0
 32 34  1  0
 34  2  1  0
 14  5  1  0
 27 22  1  0
 12  7  1  0
 30 25  1  0
  1 35  1  0
  1 36  1  0
  1 37  1  0
  2 38  1  0
  3 39  1  0
  3 40  1  0
  8 41  1  0
  9 42  1  0
 10 43  1  0
 11 44  1  0
 15 45  1  0
 20 46  1  0
 21 47  1  0
 21 48  1  0
 23 49  1  0
 24 50  1  0
 27 51  1  0
 29 52  1  0
 29 53  1  0
 31 54  1  0
 31 55  1  0
 32 56  1  0
 33 57  1  0
 33 58  1  0
 33 59  1  0
M  END
$$$$
