
     RDKit          3D

 46 49  0  0  0  0  0  0  0  0999 V2000
    6.1561   -0.0504    2.0572 N   0  0  0  0  0  0  0  0  0  0  0  0
    5.9321   -1.0478    0.7257 S   0  0  0  0  0  6  0  0  0  0  0  0
    6.7065   -0.4599   -0.3428 O   0  0  0  0  0  0  0  0  0  0  0  0
    6.1609   -2.3943    1.1954 O   0  0  0  0  0  0  0  0  0  0  0  0
    4.2121   -0.8288    0.3883 C   0  0  0  0  0  0  0  0  0  0  0  0
    3.2759   -1.6629    0.9931 C   0  0  0  0  0  0  0  0  0  0  0  0
    1.9178   -1.4952    0.7009 C   0  0  0  0  0  0  0  0  0  0  0  0
    1.4615   -0.5125   -0.1985 C   0  0  0  0  0  0  0  0  0  0  0  0
    0.1006   -0.3706   -0.4653 N   0  0  0  0  0  0  0  0  0  0  0  0
   -0.8152   -1.2074    0.1062 N   0  0  0  0  0  0  0  0  0  0  0  0
   -1.9561   -0.9820   -0.4711 C   0  0  0  0  0  0  0  0  0  0  0  0
   -3.2037   -1.6898   -0.0987 C   0  0  0  0  0  0  0  0  0  0  0  0
   -3.1793   -2.5837    0.9805 C   0  0  0  0  0  0  0  0  0  0  0  0
   -4.3382   -3.2665    1.3589 C   0  0  0  0  0  0  0  0  0  0  0  0
   -5.5226   -3.0559    0.6566 C   0  0  0  0  0  0  0  0  0  0  0  0
   -7.0923   -3.9773    1.1651 Br  0  0  0  0  0  0  0  0  0  0  0  0
   -5.5581   -2.1710   -0.4202 C   0  0  0  0  0  0  0  0  0  0  0  0
   -4.3984   -1.4869   -0.7996 C   0  0  0  0  0  0  0  0  0  0  0  0
   -1.9193    0.0330   -1.5799 C   0  0  0  0  0  0  0  0  0  0  0  0
   -0.4964    0.5710   -1.4145 C   0  0  0  0  0  0  0  0  0  0  0  0
   -0.5134    2.0083   -0.9095 C   0  0  0  0  0  0  0  0  0  0  0  0
   -0.4037    3.0651   -1.8321 C   0  0  0  0  0  0  0  0  0  0  0  0
   -0.4398    4.3920   -1.3994 C   0  0  0  0  0  0  0  0  0  0  0  0
   -0.5911    4.6693   -0.0465 C   0  0  0  0  0  0  0  0  0  0  0  0
   -0.6260    5.9433    0.3652 F   0  0  0  0  0  0  0  0  0  0  0  0
   -0.7091    3.6451    0.8834 C   0  0  0  0  0  0  0  0  0  0  0  0
   -0.6741    2.3176    0.4536 C   0  0  0  0  0  0  0  0  0  0  0  0
    2.4373    0.3015   -0.7987 C   0  0  0  0  0  0  0  0  0  0  0  0
    3.8009    0.1484   -0.5161 C   0  0  0  0  0  0  0  0  0  0  0  0
    6.4332   -0.6080    2.8651 H   0  0  0  0  0  0  0  0  0  0  0  0
    6.8096    0.6974    1.8248 H   0  0  0  0  0  0  0  0  0  0  0  0
    3.5830   -2.4405    1.6878 H   0  0  0  0  0  0  0  0  0  0  0  0
    1.1983   -2.1519    1.1865 H   0  0  0  0  0  0  0  0  0  0  0  0
   -2.2575   -2.7543    1.5341 H   0  0  0  0  0  0  0  0  0  0  0  0
   -4.3032   -3.9562    2.1983 H   0  0  0  0  0  0  0  0  0  0  0  0
   -6.4817   -2.0076   -0.9702 H   0  0  0  0  0  0  0  0  0  0  0  0
   -4.4541   -0.8067   -1.6442 H   0  0  0  0  0  0  0  0  0  0  0  0
   -2.0329   -0.4880   -2.5366 H   0  0  0  0  0  0  0  0  0  0  0  0
   -2.7006    0.7901   -1.4715 H   0  0  0  0  0  0  0  0  0  0  0  0
    0.0231    0.5214   -2.3801 H   0  0  0  0  0  0  0  0  0  0  0  0
   -0.2866    2.8620   -2.8948 H   0  0  0  0  0  0  0  0  0  0  0  0
   -0.3510    5.2105   -2.1067 H   0  0  0  0  0  0  0  0  0  0  0  0
   -0.8248    3.8827    1.9360 H   0  0  0  0  0  0  0  0  0  0  0  0
   -0.7622    1.5209    1.1916 H   0  0  0  0  0  0  0  0  0  0  0  0
    2.1570    1.0808   -1.5009 H   0  0  0  0  0  0  0  0  0  0  0  0
    4.5259    0.7958   -1.0040 H   0  0  0  0  0  0  0  0  0  0  0  0
  1  2  1  0
  2  3  2  0
  2  4  2  0
  2  5  1  0
  5  6  2  0
  6  7  1  0
  7  8  2  0
  8  9  1  0
  9 10  1  0
 10 11  2  0
 11 12  1  0
 12 13  2  0
 13 14  1  0
 14 15  2  0
 15 16  1  0
 15 17  1  0
 17 18  2  0
 11 19  1  0
 19 20  1  0
 20 21  1  0
 21 22  2  0
 22 23  1  0
 23 24  2  0
 24 25  1  0
 24 26  1  0
 26 27  2  0
  8 28  1  0
 28 29  2  0
 29  5  1  0
 20  9  1  0
 27 21  1  0
 18 12  1  0
  1 30  1  0
  1 31  1  0
  6 32  1  0
  7 33  1  0
 13 34  1  0
 14 35  1  0
 17 36  1  0
 18 37  1  0
 19 38  1  0
 19 39  1  0
 20 40  1  0
 22 41  1  0
 23 42  1  0
 26 43  1  0
 27 44  1  0
 28 45  1  0
 29 46  1  0
M  END
$$$$
