
     RDKit          3D

 35 36  0  0  0  0  0  0  0  0999 V2000
   -6.0125   -0.3955    1.1899 C   0  0  0  0  0  0  0  0  0  0  0  0
   -4.5194   -0.6248    1.3415 C   0  0  0  0  0  0  0  0  0  0  0  0
   -3.8409    0.4278    0.6567 O   0  0  0  0  0  0  0  0  0  0  0  0
   -2.4757    0.4091    0.6782 C   0  0  0  0  0  0  0  0  0  0  0  0
   -1.6765   -0.5462    1.2968 C   0  0  0  0  0  0  0  0  0  0  0  0
   -0.2767   -0.4488    1.2461 C   0  0  0  0  0  0  0  0  0  0  0  0
    0.3630    0.6037    0.5798 C   0  0  0  0  0  0  0  0  0  0  0  0
    1.7776    0.7010    0.5250 N   0  0  0  0  0  0  0  0  0  0  0  0
    2.7308   -0.1667    1.0330 C   0  0  0  0  0  0  0  0  0  0  0  0
    2.4943   -1.1741    1.6970 O   0  0  0  0  0  0  0  0  0  0  0  0
    4.1727    0.2738    0.7983 C   0  0  0  0  0  0  0  0  0  0  0  0
    4.4375    1.0467   -0.8211 S   0  0  0  0  0  0  0  0  0  0  0  0
    3.9956   -0.2745   -1.8614 C   0  0  0  0  0  0  0  0  0  0  0  0
    4.1175   -1.5880   -1.5086 N   0  0  0  0  0  0  0  0  0  0  0  0
    3.6616   -2.2213   -2.5636 C   0  0  0  0  0  0  0  0  0  0  0  0
    3.2807   -1.3174   -3.5036 N   0  0  0  0  0  0  0  0  0  0  0  0
    3.4734   -0.0618   -3.0713 N   0  0  0  0  0  0  0  0  0  0  0  0
   -0.4639    1.5630   -0.0453 C   0  0  0  0  0  0  0  0  0  0  0  0
    0.0981    2.7019   -0.7786 N   0  0  0  0  0  4  0  0  0  0  0  0
   -0.6033    3.2287   -1.6538 O   0  0  0  0  0  0  0  0  0  0  0  0
    1.2426    3.0756   -0.4794 O   0  0  0  0  0  1  0  0  0  0  0  0
   -1.8668    1.4648    0.0046 C   0  0  0  0  0  0  0  0  0  0  0  0
   -6.2953   -0.3839    0.1320 H   0  0  0  0  0  0  0  0  0  0  0  0
   -6.2975    0.5762    1.6066 H   0  0  0  0  0  0  0  0  0  0  0  0
   -6.5809   -1.1788    1.6990 H   0  0  0  0  0  0  0  0  0  0  0  0
   -4.2617   -0.6135    2.4068 H   0  0  0  0  0  0  0  0  0  0  0  0
   -4.2595   -1.5942    0.9007 H   0  0  0  0  0  0  0  0  0  0  0  0
   -2.1018   -1.3891    1.8337 H   0  0  0  0  0  0  0  0  0  0  0  0
    0.2841   -1.2298    1.7518 H   0  0  0  0  0  0  0  0  0  0  0  0
    2.1548    1.5135    0.0303 H   0  0  0  0  0  0  0  0  0  0  0  0
    4.8345   -0.5921    0.9027 H   0  0  0  0  0  0  0  0  0  0  0  0
    4.4339    0.9957    1.5785 H   0  0  0  0  0  0  0  0  0  0  0  0
    3.5868   -3.2911   -2.6978 H   0  0  0  0  0  0  0  0  0  0  0  0
    2.8918   -1.4737   -4.4271 H   0  0  0  0  0  0  0  0  0  0  0  0
   -2.4988    2.2093   -0.4774 H   0  0  0  0  0  0  0  0  0  0  0  0
  1  2  1  0
  2  3  1  0
  3  4  1  0
  4  5  2  0
  5  6  1  0
  6  7  2  0
  7  8  1  0
  8  9  1  0
  9 10  2  0
  9 11  1  0
 11 12  1  0
 12 13  1  0
 13 14  1  0
 14 15  2  0
 15 16  1  0
 16 17  1  0
  7 18  1  0
 18 19  1  0
 19 20  2  0
 19 21  1  0
 18 22  2  0
 22  4  1  0
 17 13  2  0
  1 23  1  0
  1 24  1  0
  1 25  1  0
  2 26  1  0
  2 27  1  0
  5 28  1  0
  6 29  1  0
  8 30  1  0
 11 31  1  0
 11 32  1  0
 15 33  1  0
 16 34  1  0
 22 35  1  0
M  CHG  2  19   1  21  -1
M  END
$$$$
