
     RDKit          3D

 43 45  0  0  0  0  0  0  0  0999 V2000
    5.3007   -2.7588   -1.3088 C   0  0  0  0  0  0  0  0  0  0  0  0
    5.7513   -1.8407   -0.3200 O   0  0  0  0  0  0  0  0  0  0  0  0
    4.8657   -0.8693    0.0663 C   0  0  0  0  0  0  0  0  0  0  0  0
    5.3496   -0.0011    1.0450 C   0  0  0  0  0  0  0  0  0  0  0  0
    4.5698    1.0447    1.5486 C   0  0  0  0  0  0  0  0  0  0  0  0
    3.2789    1.1924    1.0323 C   0  0  0  0  0  0  0  0  0  0  0  0
    2.3064    2.1130    1.3379 N   0  0  0  0  0  0  0  0  0  0  0  0
    1.1883    1.8883    0.5816 C   0  0  0  0  0  0  0  0  0  0  0  0
    1.4171    0.7933   -0.2345 C   0  0  0  0  0  0  0  0  0  0  0  0
    0.4731    0.2125   -1.1993 C   0  0  0  0  0  0  0  0  0  0  0  0
    0.7745   -0.7815   -1.8670 O   0  0  0  0  0  0  0  0  0  0  0  0
   -0.8985    0.8689   -1.4016 C   0  0  0  0  0  0  0  0  0  0  0  0
   -1.7871    0.6885   -0.2334 N   0  0  0  0  0  0  0  0  0  0  0  0
   -2.9353    1.6024   -0.3234 C   0  0  0  0  0  0  0  0  0  0  0  0
   -4.0558    1.1973    0.6312 C   0  0  0  0  0  0  0  0  0  0  0  0
   -4.6375   -0.1728    0.2488 C   0  0  0  0  0  0  0  0  0  0  0  0
   -5.2176   -0.8689    1.4799 C   0  0  0  0  0  0  0  0  0  0  0  0
   -3.5933   -1.0494   -0.4617 C   0  0  0  0  0  0  0  0  0  0  0  0
   -2.1689   -0.7176   -0.0156 C   0  0  0  0  0  0  0  0  0  0  0  0
    2.7541    0.3486    0.0528 C   0  0  0  0  0  0  0  0  0  0  0  0
    3.5695   -0.7007   -0.4344 C   0  0  0  0  0  0  0  0  0  0  0  0
    4.4387   -3.3324   -0.9523 H   0  0  0  0  0  0  0  0  0  0  0  0
    6.1131   -3.4661   -1.5019 H   0  0  0  0  0  0  0  0  0  0  0  0
    5.0756   -2.2466   -2.2501 H   0  0  0  0  0  0  0  0  0  0  0  0
    6.3585   -0.1417    1.4274 H   0  0  0  0  0  0  0  0  0  0  0  0
    4.9606    1.7100    2.3112 H   0  0  0  0  0  0  0  0  0  0  0  0
    2.4079    2.8452    2.0273 H   0  0  0  0  0  0  0  0  0  0  0  0
    0.3172    2.5189    0.7025 H   0  0  0  0  0  0  0  0  0  0  0  0
   -1.3568    0.4529   -2.3079 H   0  0  0  0  0  0  0  0  0  0  0  0
   -0.7208    1.9340   -1.5975 H   0  0  0  0  0  0  0  0  0  0  0  0
   -3.3362    1.6363   -1.3455 H   0  0  0  0  0  0  0  0  0  0  0  0
   -2.6012    2.6164   -0.0740 H   0  0  0  0  0  0  0  0  0  0  0  0
   -4.8530    1.9501    0.6124 H   0  0  0  0  0  0  0  0  0  0  0  0
   -3.6679    1.1847    1.6584 H   0  0  0  0  0  0  0  0  0  0  0  0
   -5.4660   -0.0151   -0.4545 H   0  0  0  0  0  0  0  0  0  0  0  0
   -4.4384   -1.0945    2.2158 H   0  0  0  0  0  0  0  0  0  0  0  0
   -5.9700   -0.2372    1.9637 H   0  0  0  0  0  0  0  0  0  0  0  0
   -5.7016   -1.8109    1.2011 H   0  0  0  0  0  0  0  0  0  0  0  0
   -3.6688   -0.8902   -1.5457 H   0  0  0  0  0  0  0  0  0  0  0  0
   -3.7996   -2.1135   -0.2965 H   0  0  0  0  0  0  0  0  0  0  0  0
   -1.4731   -1.4150   -0.4951 H   0  0  0  0  0  0  0  0  0  0  0  0
   -2.0837   -0.9178    1.0601 H   0  0  0  0  0  0  0  0  0  0  0  0
    3.1607   -1.3567   -1.1944 H   0  0  0  0  0  0  0  0  0  0  0  0
  1  2  1  0
  2  3  1  0
  3  4  2  0
  4  5  1  0
  5  6  2  0
  6  7  1  0
  7  8  1  0
  8  9  2  0
  9 10  1  0
 10 11  2  0
 10 12  1  0
 12 13  1  0
 13 14  1  0
 14 15  1  0
 15 16  1  0
 16 17  1  0
 16 18  1  0
 18 19  1  0
  9 20  1  0
 20 21  2  0
 21  3  1  0
 20  6  1  0
 19 13  1  0
  1 22  1  0
  1 23  1  0
  1 24  1  0
  4 25  1  0
  5 26  1  0
  7 27  1  0
  8 28  1  0
 12 29  1  0
 12 30  1  0
 14 31  1  0
 14 32  1  0
 15 33  1  0
 15 34  1  0
 16 35  1  0
 17 36  1  0
 17 37  1  0
 17 38  1  0
 18 39  1  0
 18 40  1  0
 19 41  1  0
 19 42  1  0
 21 43  1  0
M  END
$$$$
