
     RDKit          3D

 56 60  0  0  0  0  0  0  0  0999 V2000
   -5.7628   -2.5236   -2.2397 C   0  0  0  0  0  0  0  0  0  0  0  0
   -5.1470   -1.8227   -1.0637 C   0  0  0  0  0  0  0  0  0  0  0  0
   -4.1569   -2.4605   -0.3036 C   0  0  0  0  0  0  0  0  0  0  0  0
   -3.5609   -1.8058    0.7749 C   0  0  0  0  0  0  0  0  0  0  0  0
   -3.9459   -0.4975    1.0818 C   0  0  0  0  0  0  0  0  0  0  0  0
   -3.1806    0.3374    2.4611 S   0  0  0  0  0  6  0  0  0  0  0  0
   -2.9808   -0.6733    3.4860 O   0  0  0  0  0  0  0  0  0  0  0  0
   -3.9891    1.5089    2.7520 O   0  0  0  0  0  0  0  0  0  0  0  0
   -1.6679    0.8136    1.7857 C   0  0  0  0  0  0  0  0  0  0  0  0
   -1.6087    1.9015    0.9999 C   0  0  0  0  0  0  0  0  0  0  0  0
   -0.3876    2.3014    0.3172 C   0  0  0  0  0  0  0  0  0  0  0  0
   -0.4012    3.5008   -0.5674 C   0  0  0  0  0  0  0  0  0  0  0  0
   -1.4459    4.1391   -0.7137 O   0  0  0  0  0  0  0  0  0  0  0  0
    0.7955    3.8133   -1.1860 N   0  0  0  0  0  0  0  0  0  0  0  0
    0.8676    4.9257   -2.0181 C   0  0  0  0  0  0  0  0  0  0  0  0
    2.0001    5.2625   -2.6475 C   0  0  0  0  0  0  0  0  0  0  0  0
    3.1825    4.4630   -2.4702 C   0  0  0  0  0  0  0  0  0  0  0  0
    3.1574    3.3834   -1.6800 C   0  0  0  0  0  0  0  0  0  0  0  0
    1.8978    3.0056   -0.9780 C   0  0  0  0  0  0  0  0  0  0  0  0
    1.9024    1.9550   -0.2228 N   0  0  0  0  0  0  0  0  0  0  0  0
    0.7561    1.5908    0.4461 C   0  0  0  0  0  0  0  0  0  0  0  0
    0.7508    0.4513    1.2876 N   0  0  0  0  0  0  0  0  0  0  0  0
    1.9905   -0.3381    1.4446 C   0  0  0  0  0  0  0  0  0  0  0  0
    2.0413   -1.4646    0.4082 C   0  0  0  0  0  0  0  0  0  0  0  0
    3.3092   -2.2747    0.5214 C   0  0  0  0  0  0  0  0  0  0  0  0
    4.4251   -1.9641   -0.2668 C   0  0  0  0  0  0  0  0  0  0  0  0
    5.6029   -2.7025   -0.1442 C   0  0  0  0  0  0  0  0  0  0  0  0
    5.6769   -3.7527    0.7694 C   0  0  0  0  0  0  0  0  0  0  0  0
    4.5739   -4.0650    1.5623 C   0  0  0  0  0  0  0  0  0  0  0  0
    3.3950   -3.3285    1.4410 C   0  0  0  0  0  0  0  0  0  0  0  0
   -0.4076    0.0262    1.9591 C   0  0  0  0  0  0  0  0  0  0  0  0
   -0.3556   -1.0358    2.7104 N   0  0  0  0  0  0  0  0  0  0  0  0
   -4.9312    0.1518    0.3340 C   0  0  0  0  0  0  0  0  0  0  0  0
   -5.5216   -0.5104   -0.7434 C   0  0  0  0  0  0  0  0  0  0  0  0
   -5.1326   -2.3924   -3.1247 H   0  0  0  0  0  0  0  0  0  0  0  0
   -6.7606   -2.1275   -2.4558 H   0  0  0  0  0  0  0  0  0  0  0  0
   -5.8751   -3.5940   -2.0376 H   0  0  0  0  0  0  0  0  0  0  0  0
   -3.8495   -3.4762   -0.5459 H   0  0  0  0  0  0  0  0  0  0  0  0
   -2.8056   -2.3233    1.3630 H   0  0  0  0  0  0  0  0  0  0  0  0
   -2.4920    2.5136    0.8235 H   0  0  0  0  0  0  0  0  0  0  0  0
   -0.0386    5.5148   -2.1375 H   0  0  0  0  0  0  0  0  0  0  0  0
    2.0471    6.1326   -3.2945 H   0  0  0  0  0  0  0  0  0  0  0  0
    4.0897    4.7561   -2.9890 H   0  0  0  0  0  0  0  0  0  0  0  0
    4.0255    2.7564   -1.5188 H   0  0  0  0  0  0  0  0  0  0  0  0
    2.8751    0.3050    1.3497 H   0  0  0  0  0  0  0  0  0  0  0  0
    2.0636   -0.7458    2.4612 H   0  0  0  0  0  0  0  0  0  0  0  0
    1.9609   -1.0526   -0.6061 H   0  0  0  0  0  0  0  0  0  0  0  0
    1.1765   -2.1309    0.5202 H   0  0  0  0  0  0  0  0  0  0  0  0
    4.3824   -1.1443   -0.9804 H   0  0  0  0  0  0  0  0  0  0  0  0
    6.4639   -2.4577   -0.7605 H   0  0  0  0  0  0  0  0  0  0  0  0
    6.5945   -4.3269    0.8652 H   0  0  0  0  0  0  0  0  0  0  0  0
    4.6315   -4.8817    2.2773 H   0  0  0  0  0  0  0  0  0  0  0  0
    2.5423   -3.5786    2.0698 H   0  0  0  0  0  0  0  0  0  0  0  0
   -1.2439   -1.2241    3.2050 H   0  0  0  0  0  0  0  0  0  0  0  0
   -5.2462    1.1645    0.5766 H   0  0  0  0  0  0  0  0  0  0  0  0
   -6.2827    0.0015   -1.3297 H   0  0  0  0  0  0  0  0  0  0  0  0
  1  2  1  0
  2  3  2  0
  3  4  1  0
  4  5  2  0
  5  6  1  0
  6  7  2  0
  6  8  2  0
  6  9  1  0
  9 10  2  0
 10 11  1  0
 11 12  1  0
 12 13  2  0
 12 14  1  0
 14 15  1  0
 15 16  2  0
 16 17  1  0
 17 18  2  0
 18 19  1  0
 19 20  2  0
 20 21  1  0
 21 22  1  0
 22 23  1  0
 23 24  1  0
 24 25  1  0
 25 26  2  0
 26 27  1  0
 27 28  2  0
 28 29  1  0
 29 30  2  0
 22 31  1  0
 31 32  2  3
  5 33  1  0
 33 34  2  0
 34  2  1  0
 31  9  1  0
 21 11  2  0
 30 25  1  0
 19 14  1  0
  1 35  1  0
  1 36  1  0
  1 37  1  0
  3 38  1  0
  4 39  1  0
 10 40  1  0
 15 41  1  0
 16 42  1  0
 17 43  1  0
 18 44  1  0
 23 45  1  0
 23 46  1  0
 24 47  1  0
 24 48  1  0
 26 49  1  0
 27 50  1  0
 28 51  1  0
 29 52  1  0
 30 53  1  0
 32 54  1  0
 33 55  1  0
 34 56  1  0
M  END
$$$$
