
     RDKit          3D

 36 38  0  0  0  0  0  0  0  0999 V2000
   -4.3983    2.3337   -0.0855 C   0  0  0  0  0  0  0  0  0  0  0  0
   -3.4166    1.2728   -0.0162 N   0  0  0  0  0  0  0  0  0  0  0  0
   -2.0607    1.4555   -0.1120 C   0  0  0  0  0  0  0  0  0  0  0  0
   -1.4540    0.2226   -0.0029 C   0  0  0  0  0  0  0  0  0  0  0  0
   -0.0479   -0.0392   -0.0552 C   0  0  0  0  0  0  0  0  0  0  0  0
    0.9267    0.8829   -0.1394 C   0  0  0  0  0  0  0  0  0  0  0  0
    2.3548    0.5501   -0.1841 C   0  0  0  0  0  0  0  0  0  0  0  0
    2.8526   -0.4723   -0.9908 C   0  0  0  0  0  0  0  0  0  0  0  0
    4.2187   -0.7298   -1.0132 C   0  0  0  0  0  0  0  0  0  0  0  0
    5.0700    0.0038   -0.2621 N   0  0  0  0  0  4  0  0  0  0  0  0
    6.5139   -0.2834   -0.3078 C   0  0  0  0  0  0  0  0  0  0  0  0
    4.6131    1.0151    0.5097 C   0  0  0  0  0  0  0  0  0  0  0  0
    3.2551    1.3093    0.5606 C   0  0  0  0  0  0  0  0  0  0  0  0
   -2.4905   -0.7500    0.1654 C   0  0  0  0  0  0  0  0  0  0  0  0
   -2.5095   -2.1530    0.3285 C   0  0  0  0  0  0  0  0  0  0  0  0
   -3.7339   -2.8118    0.4705 C   0  0  0  0  0  0  0  0  0  0  0  0
   -3.7498   -4.5230    0.6681 Cl  0  0  0  0  0  0  0  0  0  0  0  0
   -4.9337   -2.1104    0.4547 C   0  0  0  0  0  0  0  0  0  0  0  0
   -4.9434   -0.7218    0.2958 C   0  0  0  0  0  0  0  0  0  0  0  0
   -3.7103   -0.0639    0.1533 C   0  0  0  0  0  0  0  0  0  0  0  0
   -3.8923    3.2927   -0.2225 H   0  0  0  0  0  0  0  0  0  0  0  0
   -4.9626    2.3437    0.8505 H   0  0  0  0  0  0  0  0  0  0  0  0
   -5.0578    2.1388   -0.9350 H   0  0  0  0  0  0  0  0  0  0  0  0
   -1.6520    2.4471   -0.2525 H   0  0  0  0  0  0  0  0  0  0  0  0
    0.2311   -1.0895   -0.0065 H   0  0  0  0  0  0  0  0  0  0  0  0
    0.6835    1.9428   -0.1542 H   0  0  0  0  0  0  0  0  0  0  0  0
    2.1870   -1.0664   -1.6146 H   0  0  0  0  0  0  0  0  0  0  0  0
    4.6401   -1.5165   -1.6328 H   0  0  0  0  0  0  0  0  0  0  0  0
    6.9620   -0.0216    0.6542 H   0  0  0  0  0  0  0  0  0  0  0  0
    6.9416    0.3180   -1.1137 H   0  0  0  0  0  0  0  0  0  0  0  0
    6.6610   -1.3499   -0.4965 H   0  0  0  0  0  0  0  0  0  0  0  0
    5.3413    1.5842    1.0809 H   0  0  0  0  0  0  0  0  0  0  0  0
    2.9057    2.1253    1.1912 H   0  0  0  0  0  0  0  0  0  0  0  0
   -1.5841   -2.7187    0.3454 H   0  0  0  0  0  0  0  0  0  0  0  0
   -5.8776   -2.6391    0.5667 H   0  0  0  0  0  0  0  0  0  0  0  0
   -5.8832   -0.1778    0.2845 H   0  0  0  0  0  0  0  0  0  0  0  0
  1  2  1  0
  2  3  1  0
  3  4  2  0
  4  5  1  0
  5  6  2  3
  6  7  1  0
  7  8  2  0
  8  9  1  0
  9 10  2  0
 10 11  1  0
 10 12  1  0
 12 13  2  0
  4 14  1  0
 14 15  2  0
 15 16  1  0
 16 17  1  0
 16 18  2  0
 18 19  1  0
 19 20  2  0
 20  2  1  0
 13  7  1  0
 20 14  1  0
  1 21  1  0
  1 22  1  0
  1 23  1  0
  3 24  1  0
  5 25  1  0
  6 26  1  0
  8 27  1  0
  9 28  1  0
 11 29  1  0
 11 30  1  0
 11 31  1  0
 12 32  1  0
 13 33  1  0
 15 34  1  0
 18 35  1  0
 19 36  1  0
M  CHG  1  10   1
M  END
$$$$
