
     RDKit          3D

 45 47  0  0  0  0  0  0  0  0999 V2000
   -5.4051    0.1752   -2.1141 C   0  0  0  0  0  0  0  0  0  0  0  0
   -5.4191    0.0730   -0.5955 C   0  0  0  0  0  0  0  0  0  0  0  0
   -4.2577    0.7527   -0.0082 N   0  0  0  0  0  0  0  0  0  0  0  0
   -4.4503    2.1684    0.3327 C   0  0  0  0  0  0  0  0  0  0  0  0
   -4.8998    2.3247    1.7785 C   0  0  0  0  0  0  0  0  0  0  0  0
   -3.0387    0.1093    0.1795 C   0  0  0  0  0  0  0  0  0  0  0  0
   -1.9633    0.7144    0.8523 C   0  0  0  0  0  0  0  0  0  0  0  0
   -0.7295    0.0708    1.0476 C   0  0  0  0  0  0  0  0  0  0  0  0
   -0.5141   -1.2129    0.5575 C   0  0  0  0  0  0  0  0  0  0  0  0
    0.7357   -1.9460    0.7765 C   0  0  0  0  0  0  0  0  0  0  0  0
    1.9817   -1.5289    0.5144 C   0  0  0  0  0  0  0  0  0  0  0  0
    3.1507   -2.4129    0.7820 C   0  0  0  0  0  0  0  0  0  0  0  0
    3.1581   -3.5325    1.2486 O   0  0  0  0  0  0  0  0  0  0  0  0
    4.3271   -1.6466    0.3580 C   0  0  0  0  0  0  0  0  0  0  0  0
    5.6549   -2.0307    0.4034 C   0  0  0  0  0  0  0  0  0  0  0  0
    6.6076   -1.1175   -0.0637 C   0  0  0  0  0  0  0  0  0  0  0  0
    6.2215    0.1499   -0.5629 C   0  0  0  0  0  0  0  0  0  0  0  0
    7.2895    1.0627   -1.0401 C   0  0  0  0  0  0  0  0  0  0  0  0
    8.4812    0.8197   -1.0441 O   0  0  0  0  0  0  0  0  0  0  0  0
    6.8066    2.2336   -1.4868 O   0  0  0  0  0  0  0  0  0  0  0  0
    4.8678    0.5168   -0.5989 C   0  0  0  0  0  0  0  0  0  0  0  0
    3.9425   -0.4016   -0.1319 C   0  0  0  0  0  0  0  0  0  0  0  0
    2.4829   -0.2528   -0.0666 C   0  0  0  0  0  0  0  0  0  0  0  0
    1.8713    0.7302   -0.4233 O   0  0  0  0  0  0  0  0  0  0  0  0
   -1.5662   -1.8478   -0.0990 C   0  0  0  0  0  0  0  0  0  0  0  0
   -2.7960   -1.1947   -0.2842 C   0  0  0  0  0  0  0  0  0  0  0  0
   -5.4155    1.2210   -2.4384 H   0  0  0  0  0  0  0  0  0  0  0  0
   -4.5166   -0.2959   -2.5450 H   0  0  0  0  0  0  0  0  0  0  0  0
   -6.2875   -0.3181   -2.5337 H   0  0  0  0  0  0  0  0  0  0  0  0
   -6.3425    0.5378   -0.2264 H   0  0  0  0  0  0  0  0  0  0  0  0
   -5.4857   -0.9721   -0.2732 H   0  0  0  0  0  0  0  0  0  0  0  0
   -3.5517    2.7633    0.1340 H   0  0  0  0  0  0  0  0  0  0  0  0
   -5.2212    2.6029   -0.3166 H   0  0  0  0  0  0  0  0  0  0  0  0
   -5.8401    1.7927    1.9573 H   0  0  0  0  0  0  0  0  0  0  0  0
   -4.1580    1.9303    2.4795 H   0  0  0  0  0  0  0  0  0  0  0  0
   -5.0589    3.3820    2.0122 H   0  0  0  0  0  0  0  0  0  0  0  0
   -2.0515    1.7153    1.2625 H   0  0  0  0  0  0  0  0  0  0  0  0
    0.0519    0.6009    1.5862 H   0  0  0  0  0  0  0  0  0  0  0  0
    0.5944   -2.9495    1.1789 H   0  0  0  0  0  0  0  0  0  0  0  0
    5.9458   -3.0045    0.7870 H   0  0  0  0  0  0  0  0  0  0  0  0
    7.6629   -1.3913   -0.0410 H   0  0  0  0  0  0  0  0  0  0  0  0
    7.6022    2.7335   -1.7681 H   0  0  0  0  0  0  0  0  0  0  0  0
    4.5414    1.4816   -0.9769 H   0  0  0  0  0  0  0  0  0  0  0  0
   -1.4489   -2.8579   -0.4847 H   0  0  0  0  0  0  0  0  0  0  0  0
   -3.5597   -1.7486   -0.8204 H   0  0  0  0  0  0  0  0  0  0  0  0
  1  2  1  0
  2  3  1  0
  3  4  1  0
  4  5  1  0
  3  6  1  0
  6  7  2  0
  7  8  1  0
  8  9  2  0
  9 10  1  0
 10 11  2  3
 11 12  1  0
 12 13  2  0
 12 14  1  0
 14 15  2  0
 15 16  1  0
 16 17  2  0
 17 18  1  0
 18 19  2  0
 18 20  1  0
 17 21  1  0
 21 22  2  0
 22 23  1  0
 23 24  2  0
  9 25  1  0
 25 26  2  0
 26  6  1  0
 23 11  1  0
 22 14  1  0
  1 27  1  0
  1 28  1  0
  1 29  1  0
  2 30  1  0
  2 31  1  0
  4 32  1  0
  4 33  1  0
  5 34  1  0
  5 35  1  0
  5 36  1  0
  7 37  1  0
  8 38  1  0
 10 39  1  0
 15 40  1  0
 16 41  1  0
 20 42  1  0
 21 43  1  0
 25 44  1  0
 26 45  1  0
M  END
$$$$
