
     RDKit          3D

 65 69  0  0  0  0  0  0  0  0999 V2000
   -3.2033    6.4206   -0.0031 C   0  0  0  0  0  0  0  0  0  0  0  0
   -4.3367    5.5054   -0.4389 C   0  0  0  0  0  0  0  0  0  0  0  0
   -4.4427    4.3710    0.4207 O   0  0  0  0  0  0  0  0  0  0  0  0
   -3.6255    3.2972    0.2148 C   0  0  0  0  0  0  0  0  0  0  0  0
   -3.7455    2.2899    1.1739 C   0  0  0  0  0  0  0  0  0  0  0  0
   -2.9663    1.1320    1.1032 C   0  0  0  0  0  0  0  0  0  0  0  0
   -2.0479    0.9568    0.0583 C   0  0  0  0  0  0  0  0  0  0  0  0
   -1.1374   -0.2603   -0.0384 C   0  0  0  0  0  0  0  0  0  0  0  0
    0.1173   -0.0738    0.8452 C   0  0  0  0  0  0  0  0  0  0  0  0
    1.3564   -0.5605    0.1303 C   0  0  0  0  0  0  0  0  0  0  0  0
    1.2905   -1.4128   -0.7564 O   0  0  0  0  0  0  0  0  0  0  0  0
    2.6934   -0.0028    0.4992 C   0  0  0  0  0  0  0  0  0  0  0  0
    2.9079    0.7291    1.6848 C   0  0  0  0  0  0  0  0  0  0  0  0
    4.1759    1.2399    1.9861 C   0  0  0  0  0  0  0  0  0  0  0  0
    5.2009    1.0102    1.0931 C   0  0  0  0  0  0  0  0  0  0  0  0
    5.0090    0.2836   -0.0672 C   0  0  0  0  0  0  0  0  0  0  0  0
    3.7648   -0.2379   -0.3806 C   0  0  0  0  0  0  0  0  0  0  0  0
    6.2973    0.1419   -0.7818 C   0  0  0  0  0  0  0  0  0  0  0  0
    7.1512    1.1446    0.0137 C   0  0  0  0  0  0  0  0  0  0  0  0
    7.3842    2.4490   -0.7451 C   0  0  0  0  0  0  0  0  0  0  0  0
    6.4836    1.4533    1.2662 O   0  0  0  0  0  0  0  0  0  0  0  0
   -0.2012   -0.9580    2.0073 C   0  0  0  0  0  0  0  0  0  0  0  0
    0.3544   -0.9483    3.0897 O   0  0  0  0  0  0  0  0  0  0  0  0
   -1.3086   -1.9264    1.6175 C   0  0  0  0  0  0  0  0  0  0  0  0
   -1.6456   -2.8882    2.2721 O   0  0  0  0  0  0  0  0  0  0  0  0
   -1.7850   -1.4889    0.4061 N   0  0  0  0  0  0  0  0  0  0  0  0
   -2.7836   -2.1921   -0.3873 C   0  0  0  0  0  0  0  0  0  0  0  0
   -2.1763   -2.9554   -1.5683 C   0  0  0  0  0  0  0  0  0  0  0  0
   -1.3851   -4.2017   -1.1643 C   0  0  0  0  0  0  0  0  0  0  0  0
   -2.2291   -5.3098   -0.7660 N   0  0  0  0  0  0  0  0  0  0  0  0
   -2.4017   -5.7925    0.4979 C   0  0  0  0  0  0  0  0  0  0  0  0
   -3.2779   -6.8435    0.3597 C   0  0  0  0  0  0  0  0  0  0  0  0
   -3.6290   -7.0154   -0.9542 N   0  0  0  0  0  0  0  0  0  0  0  0
   -2.9721   -6.0858   -1.6098 C   0  0  0  0  0  0  0  0  0  0  0  0
   -1.9355    1.9729   -0.9048 C   0  0  0  0  0  0  0  0  0  0  0  0
   -2.7187    3.1313   -0.8284 C   0  0  0  0  0  0  0  0  0  0  0  0
   -3.2852    6.6572    1.0629 H   0  0  0  0  0  0  0  0  0  0  0  0
   -3.2181    7.3547   -0.5742 H   0  0  0  0  0  0  0  0  0  0  0  0
   -2.2295    5.9461   -0.1494 H   0  0  0  0  0  0  0  0  0  0  0  0
   -5.2792    6.0555   -0.3365 H   0  0  0  0  0  0  0  0  0  0  0  0
   -4.2676    5.2256   -1.4961 H   0  0  0  0  0  0  0  0  0  0  0  0
   -4.4513    2.4105    1.9928 H   0  0  0  0  0  0  0  0  0  0  0  0
   -3.0952    0.3812    1.8786 H   0  0  0  0  0  0  0  0  0  0  0  0
   -0.8743   -0.3932   -1.0940 H   0  0  0  0  0  0  0  0  0  0  0  0
    0.2288    0.9689    1.1563 H   0  0  0  0  0  0  0  0  0  0  0  0
    2.1150    0.8984    2.4090 H   0  0  0  0  0  0  0  0  0  0  0  0
    4.3534    1.7957    2.9011 H   0  0  0  0  0  0  0  0  0  0  0  0
    3.6288   -0.8219   -1.2872 H   0  0  0  0  0  0  0  0  0  0  0  0
    6.2314    0.3835   -1.8461 H   0  0  0  0  0  0  0  0  0  0  0  0
    6.6811   -0.8764   -0.6595 H   0  0  0  0  0  0  0  0  0  0  0  0
    8.1255    0.7008    0.2516 H   0  0  0  0  0  0  0  0  0  0  0  0
    6.4369    2.9438   -0.9887 H   0  0  0  0  0  0  0  0  0  0  0  0
    7.9555    3.1500   -0.1279 H   0  0  0  0  0  0  0  0  0  0  0  0
    7.9349    2.2697   -1.6740 H   0  0  0  0  0  0  0  0  0  0  0  0
   -3.3409   -2.8741    0.2633 H   0  0  0  0  0  0  0  0  0  0  0  0
   -3.4935   -1.4458   -0.7600 H   0  0  0  0  0  0  0  0  0  0  0  0
   -1.5124   -2.2936   -2.1355 H   0  0  0  0  0  0  0  0  0  0  0  0
   -2.9871   -3.2396   -2.2502 H   0  0  0  0  0  0  0  0  0  0  0  0
   -0.7975   -4.5566   -2.0198 H   0  0  0  0  0  0  0  0  0  0  0  0
   -0.6796   -3.9942   -0.3533 H   0  0  0  0  0  0  0  0  0  0  0  0
   -1.9155   -5.3668    1.3651 H   0  0  0  0  0  0  0  0  0  0  0  0
   -3.6720   -7.4848    1.1370 H   0  0  0  0  0  0  0  0  0  0  0  0
   -3.0032   -5.9290   -2.6795 H   0  0  0  0  0  0  0  0  0  0  0  0
   -1.2344    1.8749   -1.7323 H   0  0  0  0  0  0  0  0  0  0  0  0
   -2.5872    3.8844   -1.5988 H   0  0  0  0  0  0  0  0  0  0  0  0
  1  2  1  0
  2  3  1  0
  3  4  1  0
  4  5  2  0
  5  6  1  0
  6  7  2  0
  7  8  1  0
  8  9  1  0
  9 10  1  0
 10 11  2  0
 10 12  1  0
 12 13  2  0
 13 14  1  0
 14 15  2  0
 15 16  1  0
 16 17  2  0
 16 18  1  0
 18 19  1  0
 19 20  1  0
 19 21  1  0
  9 22  1  0
 22 23  2  0
 22 24  1  0
 24 25  2  0
 24 26  1  0
 26 27  1  0
 27 28  1  0
 28 29  1  0
 29 30  1  0
 30 31  1  0
 31 32  2  0
 32 33  1  0
 33 34  2  0
  7 35  1  0
 35 36  2  0
 36  4  1  0
 26  8  1  0
 34 30  1  0
 17 12  1  0
 21 15  1  0
  1 37  1  0
  1 38  1  0
  1 39  1  0
  2 40  1  0
  2 41  1  0
  5 42  1  0
  6 43  1  0
  8 44  1  0
  9 45  1  0
 13 46  1  0
 14 47  1  0
 17 48  1  0
 18 49  1  0
 18 50  1  0
 19 51  1  0
 20 52  1  0
 20 53  1  0
 20 54  1  0
 27 55  1  0
 27 56  1  0
 28 57  1  0
 28 58  1  0
 29 59  1  0
 29 60  1  0
 31 61  1  0
 32 62  1  0
 34 63  1  0
 35 64  1  0
 36 65  1  0
M  END
$$$$
