
     RDKit          3D

 35 38  0  0  0  0  0  0  0  0999 V2000
   -1.6795   -2.9272    0.1161 O   0  0  0  0  0  0  0  0  0  0  0  0
   -2.4587   -2.0045   -0.0145 C   0  0  0  0  0  0  0  0  0  0  0  0
   -3.8422   -2.1141   -0.0017 N   0  0  0  0  0  0  0  0  0  0  0  0
   -4.4554   -0.8758   -0.1458 C   0  0  0  0  0  0  0  0  0  0  0  0
   -5.8122   -0.6229   -0.1651 C   0  0  0  0  0  0  0  0  0  0  0  0
   -6.2144    0.7053   -0.3194 C   0  0  0  0  0  0  0  0  0  0  0  0
   -5.2629    1.7335   -0.4484 C   0  0  0  0  0  0  0  0  0  0  0  0
   -3.8916    1.4518   -0.4253 C   0  0  0  0  0  0  0  0  0  0  0  0
   -3.4973    0.1333   -0.2715 C   0  0  0  0  0  0  0  0  0  0  0  0
   -2.1846   -0.5321   -0.2047 C   0  0  0  0  0  0  0  0  0  0  0  0
   -1.0125    0.1165   -0.2780 C   0  0  0  0  0  0  0  0  0  0  0  0
    0.3188   -0.3716   -0.2424 C   0  0  0  0  0  0  0  0  0  0  0  0
    0.8374   -1.5816   -0.6167 C   0  0  0  0  0  0  0  0  0  0  0  0
    2.1812   -1.4755   -0.3844 N   0  0  0  0  0  0  0  0  0  0  0  0
    2.4488   -0.2054    0.0765 C   0  0  0  0  0  0  0  0  0  0  0  0
    3.7855    0.2971    0.4196 C   0  0  0  0  0  0  0  0  0  0  0  0
    3.9306    1.6384    0.8078 C   0  0  0  0  0  0  0  0  0  0  0  0
    5.1819    2.1625    1.1421 C   0  0  0  0  0  0  0  0  0  0  0  0
    6.3106    1.3498    1.0944 C   0  0  0  0  0  0  0  0  0  0  0  0
    6.1873    0.0155    0.7142 C   0  0  0  0  0  0  0  0  0  0  0  0
    4.9337   -0.5085    0.3793 C   0  0  0  0  0  0  0  0  0  0  0  0
    1.3194    0.4815    0.1480 N   0  0  0  0  0  0  0  0  0  0  0  0
   -4.3132   -2.9967    0.1208 H   0  0  0  0  0  0  0  0  0  0  0  0
   -6.5424   -1.4174   -0.0648 H   0  0  0  0  0  0  0  0  0  0  0  0
   -7.2742    0.9502   -0.3398 H   0  0  0  0  0  0  0  0  0  0  0  0
   -5.5984    2.7620   -0.5671 H   0  0  0  0  0  0  0  0  0  0  0  0
   -3.1698    2.2554   -0.5255 H   0  0  0  0  0  0  0  0  0  0  0  0
   -1.0497    1.2006   -0.3557 H   0  0  0  0  0  0  0  0  0  0  0  0
    0.4016   -2.4878   -1.0109 H   0  0  0  0  0  0  0  0  0  0  0  0
    2.8619   -2.2025   -0.5414 H   0  0  0  0  0  0  0  0  0  0  0  0
    3.0557    2.2856    0.8511 H   0  0  0  0  0  0  0  0  0  0  0  0
    5.2695    3.2040    1.4399 H   0  0  0  0  0  0  0  0  0  0  0  0
    7.2846    1.7554    1.3552 H   0  0  0  0  0  0  0  0  0  0  0  0
    7.0683   -0.6205    0.6798 H   0  0  0  0  0  0  0  0  0  0  0  0
    4.8821   -1.5544    0.0942 H   0  0  0  0  0  0  0  0  0  0  0  0
  1  2  2  0
  2  3  1  0
  3  4  1  0
  4  5  2  0
  5  6  1  0
  6  7  2  0
  7  8  1  0
  8  9  2  0
  9 10  1  0
 10 11  2  3
 11 12  1  0
 12 13  2  0
 13 14  1  0
 14 15  1  0
 15 16  1  0
 16 17  2  0
 17 18  1  0
 18 19  2  0
 19 20  1  0
 20 21  2  0
 15 22  2  0
 10  2  1  0
 22 12  1  0
  9  4  1  0
 21 16  1  0
  3 23  1  0
  5 24  1  0
  6 25  1  0
  7 26  1  0
  8 27  1  0
 11 28  1  0
 13 29  1  0
 14 30  1  0
 17 31  1  0
 18 32  1  0
 19 33  1  0
 20 34  1  0
 21 35  1  0
M  END
$$$$
