
     RDKit          3D

 47 49  0  0  0  0  0  0  0  0999 V2000
   -7.6299   -0.8802   -0.3757 C   0  0  0  0  0  0  0  0  0  0  0  0
   -7.0737    0.2836   -0.9695 O   0  0  0  0  0  0  0  0  0  0  0  0
   -5.7052    0.3701   -1.0413 C   0  0  0  0  0  0  0  0  0  0  0  0
   -4.8263   -0.6179   -0.5863 C   0  0  0  0  0  0  0  0  0  0  0  0
   -3.4448   -0.4431   -0.7025 C   0  0  0  0  0  0  0  0  0  0  0  0
   -2.9255    0.7233   -1.2685 C   0  0  0  0  0  0  0  0  0  0  0  0
   -1.4791    0.9161   -1.4168 C   0  0  0  0  0  0  0  0  0  0  0  0
   -0.5933    1.0394   -0.4188 C   0  0  0  0  0  0  0  0  0  0  0  0
   -0.8882    1.0254    1.2712 S   0  0  0  0  0  0  0  0  0  0  0  0
    0.8127    1.2506    1.6671 C   0  0  0  0  0  0  0  0  0  0  0  0
    1.3373    1.3849    3.2460 S   0  0  0  0  0  0  0  0  0  0  0  0
    1.5584    1.3224    0.5064 N   0  0  0  0  0  0  0  0  0  0  0  0
    3.0161    1.4721    0.4453 C   0  0  0  0  0  0  0  0  0  0  0  0
    3.7379    0.2128   -0.0245 C   0  0  0  0  0  0  0  0  0  0  0  0
    3.6006   -0.8893    0.9968 C   0  0  0  0  0  0  0  0  0  0  0  0
    2.5902   -1.5845    1.0502 O   0  0  0  0  0  0  0  0  0  0  0  0
    4.6326   -0.9637    1.8925 N   0  0  0  0  0  0  0  0  0  0  0  0
    5.4913   -1.9132    1.7426 C   0  0  0  0  0  0  0  0  0  0  0  0
    6.5362   -2.1096    2.5975 N   0  0  0  0  0  0  0  0  0  0  0  0
    7.6058   -2.9483    2.1041 C   0  0  0  0  0  0  0  0  0  0  0  0
    6.9479   -3.9786    1.1916 C   0  0  0  0  0  0  0  0  0  0  0  0
    5.5660   -3.0743    0.4213 S   0  0  0  0  0  0  0  0  0  0  0  0
    0.8544    1.2417   -0.6832 C   0  0  0  0  0  0  0  0  0  0  0  0
    1.3336    1.3368   -1.8059 O   0  0  0  0  0  0  0  0  0  0  0  0
   -3.8011    1.7115   -1.7346 C   0  0  0  0  0  0  0  0  0  0  0  0
   -5.1876    1.5466   -1.6209 C   0  0  0  0  0  0  0  0  0  0  0  0
   -6.1152    2.4659   -2.0471 O   0  0  0  0  0  0  0  0  0  0  0  0
   -5.6345    3.6919   -2.5772 C   0  0  0  0  0  0  0  0  0  0  0  0
   -8.7192   -0.7772   -0.3938 H   0  0  0  0  0  0  0  0  0  0  0  0
   -7.3724   -1.7772   -0.9484 H   0  0  0  0  0  0  0  0  0  0  0  0
   -7.3229   -0.9762    0.6708 H   0  0  0  0  0  0  0  0  0  0  0  0
   -5.1824   -1.5389   -0.1371 H   0  0  0  0  0  0  0  0  0  0  0  0
   -2.7813   -1.2290   -0.3475 H   0  0  0  0  0  0  0  0  0  0  0  0
   -1.1362    0.9744   -2.4490 H   0  0  0  0  0  0  0  0  0  0  0  0
    3.4132    1.7942    1.4118 H   0  0  0  0  0  0  0  0  0  0  0  0
    3.2282    2.2777   -0.2686 H   0  0  0  0  0  0  0  0  0  0  0  0
    3.3480   -0.1571   -0.9786 H   0  0  0  0  0  0  0  0  0  0  0  0
    4.8011    0.4300   -0.1797 H   0  0  0  0  0  0  0  0  0  0  0  0
    6.7533   -1.3402    3.2189 H   0  0  0  0  0  0  0  0  0  0  0  0
    8.3251   -2.3385    1.5449 H   0  0  0  0  0  0  0  0  0  0  0  0
    8.1396   -3.4327    2.9274 H   0  0  0  0  0  0  0  0  0  0  0  0
    7.6407   -4.3736    0.4439 H   0  0  0  0  0  0  0  0  0  0  0  0
    6.5358   -4.8087    1.7744 H   0  0  0  0  0  0  0  0  0  0  0  0
   -3.3791    2.6056   -2.1816 H   0  0  0  0  0  0  0  0  0  0  0  0
   -5.0610    3.5260   -3.4952 H   0  0  0  0  0  0  0  0  0  0  0  0
   -6.5016    4.3076   -2.8348 H   0  0  0  0  0  0  0  0  0  0  0  0
   -5.0455    4.2414   -1.8354 H   0  0  0  0  0  0  0  0  0  0  0  0
  1  2  1  0
  2  3  1  0
  3  4  2  0
  4  5  1  0
  5  6  2  0
  6  7  1  0
  7  8  2  3
  8  9  1  0
  9 10  1  0
 10 11  2  0
 10 12  1  0
 12 13  1  0
 13 14  1  0
 14 15  1  0
 15 16  2  0
 15 17  1  0
 17 18  2  3
 18 19  1  0
 19 20  1  0
 20 21  1  0
 21 22  1  0
 12 23  1  0
 23 24  2  0
  6 25  1  0
 25 26  2  0
 26 27  1  0
 27 28  1  0
 26  3  1  0
 23  8  1  0
 22 18  1  0
  1 29  1  0
  1 30  1  0
  1 31  1  0
  4 32  1  0
  5 33  1  0
  7 34  1  0
 13 35  1  0
 13 36  1  0
 14 37  1  0
 14 38  1  0
 19 39  1  0
 20 40  1  0
 20 41  1  0
 21 42  1  0
 21 43  1  0
 25 44  1  0
 28 45  1  0
 28 46  1  0
 28 47  1  0
M  END
$$$$
