
     RDKit          3D

 36 37  0  0  0  0  0  0  0  0999 V2000
   -6.6631    1.8238    0.2052 C   0  0  0  0  0  0  0  0  0  0  0  0
   -5.5254    0.8456    0.0463 C   0  0  0  0  0  0  0  0  0  0  0  0
   -5.7380   -0.3607    0.0149 O   0  0  0  0  0  0  0  0  0  0  0  0
   -4.3037    1.4824   -0.0798 N   0  0  0  0  0  0  0  0  0  0  0  0
   -3.0373    0.8848   -0.2437 C   0  0  0  0  0  0  0  0  0  0  0  0
   -1.9371    1.7393   -0.3658 C   0  0  0  0  0  0  0  0  0  0  0  0
   -0.6459    1.2234   -0.5302 C   0  0  0  0  0  0  0  0  0  0  0  0
   -0.4284   -0.1574   -0.5733 C   0  0  0  0  0  0  0  0  0  0  0  0
    0.9004   -0.5946   -0.7424 N   0  0  0  0  0  0  0  0  0  0  0  0
    1.3689   -1.8984   -0.7525 C   0  0  0  0  0  0  0  0  0  0  0  0
    0.6936   -2.9158   -0.6256 O   0  0  0  0  0  0  0  0  0  0  0  0
    2.8688   -1.9996   -1.0026 C   0  0  0  0  0  0  0  0  0  0  0  0
    3.7131   -1.1401   -0.0879 C   0  0  0  0  0  0  0  0  0  0  0  0
    3.6506   -1.3124    1.3046 C   0  0  0  0  0  0  0  0  0  0  0  0
    4.4266   -0.5173    2.1487 C   0  0  0  0  0  0  0  0  0  0  0  0
    5.2692    0.4428    1.6029 C   0  0  0  0  0  0  0  0  0  0  0  0
    6.0132    1.2064    2.4134 F   0  0  0  0  0  0  0  0  0  0  0  0
    5.3531    0.6217    0.2273 C   0  0  0  0  0  0  0  0  0  0  0  0
    4.5777   -0.1708   -0.6204 C   0  0  0  0  0  0  0  0  0  0  0  0
   -1.5253   -1.0083   -0.4521 C   0  0  0  0  0  0  0  0  0  0  0  0
   -2.8197   -0.4911   -0.2883 C   0  0  0  0  0  0  0  0  0  0  0  0
   -6.3649    2.6733    0.8264 H   0  0  0  0  0  0  0  0  0  0  0  0
   -6.9752    2.1795   -0.7802 H   0  0  0  0  0  0  0  0  0  0  0  0
   -7.5048    1.3255    0.6951 H   0  0  0  0  0  0  0  0  0  0  0  0
   -4.3162    2.4939   -0.0605 H   0  0  0  0  0  0  0  0  0  0  0  0
   -2.0634    2.8182   -0.3351 H   0  0  0  0  0  0  0  0  0  0  0  0
    0.1832    1.9205   -0.6200 H   0  0  0  0  0  0  0  0  0  0  0  0
    1.5999    0.1348   -0.8095 H   0  0  0  0  0  0  0  0  0  0  0  0
    3.0446   -1.7421   -2.0541 H   0  0  0  0  0  0  0  0  0  0  0  0
    3.1763   -3.0448   -0.8753 H   0  0  0  0  0  0  0  0  0  0  0  0
    2.9963   -2.0670    1.7397 H   0  0  0  0  0  0  0  0  0  0  0  0
    4.3809   -0.6435    3.2259 H   0  0  0  0  0  0  0  0  0  0  0  0
    6.0261    1.3726   -0.1747 H   0  0  0  0  0  0  0  0  0  0  0  0
    4.6598   -0.0297   -1.6963 H   0  0  0  0  0  0  0  0  0  0  0  0
   -1.4187   -2.0884   -0.4821 H   0  0  0  0  0  0  0  0  0  0  0  0
   -3.6351   -1.2026   -0.1979 H   0  0  0  0  0  0  0  0  0  0  0  0
  1  2  1  0
  2  3  2  0
  2  4  1  0
  4  5  1  0
  5  6  2  0
  6  7  1  0
  7  8  2  0
  8  9  1  0
  9 10  1  0
 10 11  2  0
 10 12  1  0
 12 13  1  0
 13 14  2  0
 14 15  1  0
 15 16  2  0
 16 17  1  0
 16 18  1  0
 18 19  2  0
  8 20  1  0
 20 21  2  0
 21  5  1  0
 19 13  1  0
  1 22  1  0
  1 23  1  0
  1 24  1  0
  4 25  1  0
  6 26  1  0
  7 27  1  0
  9 28  1  0
 12 29  1  0
 12 30  1  0
 14 31  1  0
 15 32  1  0
 18 33  1  0
 19 34  1  0
 20 35  1  0
 21 36  1  0
M  END
$$$$
