
     RDKit          3D

 58 61  0  0  0  0  0  0  0  0999 V2000
    8.3387   -1.6776    0.7072 C   0  0  0  0  0  0  0  0  0  0  0  0
    7.2938   -0.8741   -0.0084 C   0  0  0  0  0  0  0  0  0  0  0  0
    6.8458    0.3420    0.5182 C   0  0  0  0  0  0  0  0  0  0  0  0
    5.8975    1.1035   -0.1681 C   0  0  0  0  0  0  0  0  0  0  0  0
    5.3917    0.6704   -1.4011 C   0  0  0  0  0  0  0  0  0  0  0  0
    4.3495    1.4856   -2.1211 C   0  0  0  0  0  0  0  0  0  0  0  0
    3.0372    1.2210   -1.5753 N   0  0  0  0  0  0  0  0  0  0  0  0
    2.4303    2.0838   -0.6944 C   0  0  0  0  0  0  0  0  0  0  0  0
    2.8898    3.1849   -0.4029 O   0  0  0  0  0  0  0  0  0  0  0  0
    1.1256    1.5832   -0.0837 C   0  0  0  0  0  0  0  0  0  0  0  0
    1.3533    0.3374    0.7748 C   0  0  0  0  0  0  0  0  0  0  0  0
    0.0823   -0.0847    1.5174 C   0  0  0  0  0  0  0  0  0  0  0  0
   -1.2199    0.2666    0.7704 C   0  0  0  0  0  0  0  0  0  0  0  0
   -2.3429   -0.7042    1.1749 C   0  0  0  0  0  0  0  0  0  0  0  0
   -3.6250   -0.2448    0.6606 N   0  0  0  0  0  0  0  0  0  0  0  0
   -4.8379   -0.9154    0.7548 C   0  0  0  0  0  0  0  0  0  0  0  0
   -4.8398   -2.2436    1.0898 N   0  0  0  0  0  0  0  0  0  0  0  0
   -5.9473   -3.0379    1.2236 C   0  0  0  0  0  0  0  0  0  0  0  0
   -5.7069   -4.6470    1.6305 S   0  0  0  0  0  0  0  0  0  0  0  0
   -7.1786   -2.4834    1.0235 N   0  0  0  0  0  0  0  0  0  0  0  0
   -7.2231   -1.2317    0.6979 C   0  0  0  0  0  0  0  0  0  0  0  0
   -8.5568   -0.6058    0.4738 C   0  0  0  0  0  0  0  0  0  0  0  0
   -8.6612    0.6822    0.1230 C   0  0  0  0  0  0  0  0  0  0  0  0
   -7.5037    1.5215   -0.0635 C   0  0  0  0  0  0  0  0  0  0  0  0
   -6.2629    1.0503    0.1244 C   0  0  0  0  0  0  0  0  0  0  0  0
   -6.0354   -0.3290    0.5240 C   0  0  0  0  0  0  0  0  0  0  0  0
   -0.9834    0.2822   -0.7465 C   0  0  0  0  0  0  0  0  0  0  0  0
    0.0417    1.3485   -1.1476 C   0  0  0  0  0  0  0  0  0  0  0  0
    5.8443   -0.5455   -1.9291 C   0  0  0  0  0  0  0  0  0  0  0  0
    6.7932   -1.3066   -1.2419 C   0  0  0  0  0  0  0  0  0  0  0  0
    9.3290   -1.4482    0.3019 H   0  0  0  0  0  0  0  0  0  0  0  0
    8.3396   -1.4589    1.7800 H   0  0  0  0  0  0  0  0  0  0  0  0
    8.1469   -2.7500    0.5947 H   0  0  0  0  0  0  0  0  0  0  0  0
    7.2304    0.7064    1.4683 H   0  0  0  0  0  0  0  0  0  0  0  0
    5.5516    2.0423    0.2627 H   0  0  0  0  0  0  0  0  0  0  0  0
    4.5932    2.5521   -2.0642 H   0  0  0  0  0  0  0  0  0  0  0  0
    4.3191    1.2157   -3.1826 H   0  0  0  0  0  0  0  0  0  0  0  0
    2.6916    0.2758   -1.6578 H   0  0  0  0  0  0  0  0  0  0  0  0
    0.7752    2.3849    0.5824 H   0  0  0  0  0  0  0  0  0  0  0  0
    1.6835   -0.4985    0.1446 H   0  0  0  0  0  0  0  0  0  0  0  0
    2.1622    0.5056    1.4964 H   0  0  0  0  0  0  0  0  0  0  0  0
    0.0583    0.4010    2.5013 H   0  0  0  0  0  0  0  0  0  0  0  0
    0.1419   -1.1625    1.7146 H   0  0  0  0  0  0  0  0  0  0  0  0
   -1.5177    1.2809    1.0729 H   0  0  0  0  0  0  0  0  0  0  0  0
   -2.4017   -0.7668    2.2680 H   0  0  0  0  0  0  0  0  0  0  0  0
   -2.1139   -1.7049    0.7899 H   0  0  0  0  0  0  0  0  0  0  0  0
   -3.7252    0.7658    0.6718 H   0  0  0  0  0  0  0  0  0  0  0  0
   -3.9585   -2.7086    1.2393 H   0  0  0  0  0  0  0  0  0  0  0  0
   -9.4243   -1.2409    0.6083 H   0  0  0  0  0  0  0  0  0  0  0  0
   -9.6388    1.1271   -0.0391 H   0  0  0  0  0  0  0  0  0  0  0  0
   -7.6676    2.5509   -0.3698 H   0  0  0  0  0  0  0  0  0  0  0  0
   -5.4189    1.7083   -0.0429 H   0  0  0  0  0  0  0  0  0  0  0  0
   -1.9156    0.4679   -1.2923 H   0  0  0  0  0  0  0  0  0  0  0  0
   -0.6254   -0.7039   -1.0705 H   0  0  0  0  0  0  0  0  0  0  0  0
   -0.4798    2.3002   -1.3165 H   0  0  0  0  0  0  0  0  0  0  0  0
    0.4673    1.0754   -2.1203 H   0  0  0  0  0  0  0  0  0  0  0  0
    5.4666   -0.9074   -2.8827 H   0  0  0  0  0  0  0  0  0  0  0  0
    7.1412   -2.2416   -1.6759 H   0  0  0  0  0  0  0  0  0  0  0  0
  1  2  1  0
  2  3  2  0
  3  4  1  0
  4  5  2  0
  5  6  1  0
  6  7  1  0
  7  8  1  0
  8  9  2  0
  8 10  1  0
 10 11  1  0
 11 12  1  0
 12 13  1  0
 13 14  1  0
 14 15  1  0
 15 16  1  0
 16 17  1  0
 17 18  1  0
 18 19  2  0
 18 20  1  0
 20 21  2  0
 21 22  1  0
 22 23  2  0
 23 24  1  0
 24 25  2  0
 25 26  1  0
 13 27  1  0
 27 28  1  0
  5 29  1  0
 29 30  2  0
 30  2  1  0
 28 10  1  0
 26 16  2  0
 26 21  1  0
  1 31  1  0
  1 32  1  0
  1 33  1  0
  3 34  1  0
  4 35  1  0
  6 36  1  0
  6 37  1  0
  7 38  1  0
 10 39  1  0
 11 40  1  0
 11 41  1  0
 12 42  1  0
 12 43  1  0
 13 44  1  0
 14 45  1  0
 14 46  1  0
 15 47  1  0
 17 48  1  0
 22 49  1  0
 23 50  1  0
 24 51  1  0
 25 52  1  0
 27 53  1  0
 27 54  1  0
 28 55  1  0
 28 56  1  0
 29 57  1  0
 30 58  1  0
M  END
$$$$
