
     RDKit          3D

 51 53  0  0  0  0  0  0  0  0999 V2000
    2.1110   -2.7542   -1.5035 O   0  0  0  0  0  0  0  0  0  0  0  0
    1.7961   -1.7966   -0.8017 C   0  0  0  0  0  0  0  0  0  0  0  0
    2.7063   -0.8657   -0.3603 N   0  0  0  0  0  0  0  0  0  0  0  0
    4.1326   -1.0512   -0.5735 C   0  0  0  0  0  0  0  0  0  0  0  0
    4.8885    0.2486   -0.3078 C   0  0  0  0  0  0  0  0  0  0  0  0
    6.3952    0.1126   -0.4329 C   0  0  0  0  0  0  0  0  0  0  0  0
    6.8705    1.2398    0.4485 C   0  0  0  0  0  0  0  0  0  0  0  0
    5.8734    1.1920    1.5873 C   0  0  0  0  0  0  0  0  0  0  0  0
    4.6393    0.6953    1.0453 O   0  0  0  0  0  0  0  0  0  0  0  0
    0.3542   -1.5565   -0.3773 C   0  0  0  0  0  0  0  0  0  0  0  0
    0.1906   -1.5908    1.1509 C   0  0  0  0  0  0  0  0  0  0  0  0
   -0.2824   -0.2528    1.7033 C   0  0  0  0  0  0  0  0  0  0  0  0
   -1.5576    0.2220    1.0124 C   0  0  0  0  0  0  0  0  0  0  0  0
   -1.5080    0.0606   -0.4706 N   0  0  0  0  0  0  0  0  0  0  0  0
   -2.3281    1.2673   -1.3666 S   0  0  0  0  0  6  0  0  0  0  0  0
   -2.3156    0.8914   -2.7634 O   0  0  0  0  0  0  0  0  0  0  0  0
   -1.8202    2.5507   -0.9293 O   0  0  0  0  0  0  0  0  0  0  0  0
   -4.0006    1.0903   -0.7925 C   0  0  0  0  0  0  0  0  0  0  0  0
   -4.5829    2.0865   -0.0063 C   0  0  0  0  0  0  0  0  0  0  0  0
   -5.8972    1.9309    0.4301 C   0  0  0  0  0  0  0  0  0  0  0  0
   -6.6229    0.7894    0.0777 C   0  0  0  0  0  0  0  0  0  0  0  0
   -6.0443   -0.2156   -0.7156 C   0  0  0  0  0  0  0  0  0  0  0  0
   -6.8407   -1.4335   -1.1190 C   0  0  0  0  0  0  0  0  0  0  0  0
   -7.8161   -1.7524   -0.2230 F   0  0  0  0  0  0  0  0  0  0  0  0
   -7.4688   -1.2703   -2.3157 F   0  0  0  0  0  0  0  0  0  0  0  0
   -6.0729   -2.5520   -1.2447 F   0  0  0  0  0  0  0  0  0  0  0  0
   -4.7233   -0.0508   -1.1587 C   0  0  0  0  0  0  0  0  0  0  0  0
   -0.1551   -0.2573   -1.0056 C   0  0  0  0  0  0  0  0  0  0  0  0
    2.4700   -0.2813    0.4341 H   0  0  0  0  0  0  0  0  0  0  0  0
    4.3052   -1.4048   -1.5959 H   0  0  0  0  0  0  0  0  0  0  0  0
    4.4487   -1.8356    0.1239 H   0  0  0  0  0  0  0  0  0  0  0  0
    4.5198    1.0417   -0.9712 H   0  0  0  0  0  0  0  0  0  0  0  0
    6.7455    0.1917   -1.4660 H   0  0  0  0  0  0  0  0  0  0  0  0
    6.7398   -0.8442   -0.0243 H   0  0  0  0  0  0  0  0  0  0  0  0
    7.9054    1.1295    0.7836 H   0  0  0  0  0  0  0  0  0  0  0  0
    6.7824    2.1928   -0.0866 H   0  0  0  0  0  0  0  0  0  0  0  0
    5.7083    2.1719    2.0447 H   0  0  0  0  0  0  0  0  0  0  0  0
    6.1966    0.4947    2.3667 H   0  0  0  0  0  0  0  0  0  0  0  0
   -0.2320   -2.3920   -0.7866 H   0  0  0  0  0  0  0  0  0  0  0  0
   -0.5542   -2.3558    1.4084 H   0  0  0  0  0  0  0  0  0  0  0  0
    1.1165   -1.8910    1.6545 H   0  0  0  0  0  0  0  0  0  0  0  0
   -0.4595   -0.3347    2.7819 H   0  0  0  0  0  0  0  0  0  0  0  0
    0.5079    0.4966    1.5760 H   0  0  0  0  0  0  0  0  0  0  0  0
   -2.4037   -0.3735    1.3762 H   0  0  0  0  0  0  0  0  0  0  0  0
   -1.7396    1.2625    1.2992 H   0  0  0  0  0  0  0  0  0  0  0  0
   -4.0268    2.9815    0.2649 H   0  0  0  0  0  0  0  0  0  0  0  0
   -6.3612    2.7021    1.0416 H   0  0  0  0  0  0  0  0  0  0  0  0
   -7.6513    0.6869    0.4232 H   0  0  0  0  0  0  0  0  0  0  0  0
   -4.2566   -0.8093   -1.7877 H   0  0  0  0  0  0  0  0  0  0  0  0
   -0.2005   -0.3958   -2.0911 H   0  0  0  0  0  0  0  0  0  0  0  0
    0.5181    0.5886   -0.8178 H   0  0  0  0  0  0  0  0  0  0  0  0
  1  2  2  0
  2  3  1  0
  3  4  1  0
  4  5  1  0
  5  6  1  0
  6  7  1  0
  7  8  1  0
  8  9  1  0
  2 10  1  0
 10 11  1  0
 11 12  1  0
 12 13  1  0
 13 14  1  0
 14 15  1  0
 15 16  2  0
 15 17  2  0
 15 18  1  0
 18 19  2  0
 19 20  1  0
 20 21  2  0
 21 22  1  0
 22 23  1  0
 23 24  1  0
 23 25  1  0
 23 26  1  0
 22 27  2  0
 14 28  1  0
  9  5  1  0
 28 10  1  0
 27 18  1  0
  3 29  1  0
  4 30  1  0
  4 31  1  0
  5 32  1  0
  6 33  1  0
  6 34  1  0
  7 35  1  0
  7 36  1  0
  8 37  1  0
  8 38  1  0
 10 39  1  0
 11 40  1  0
 11 41  1  0
 12 42  1  0
 12 43  1  0
 13 44  1  0
 13 45  1  0
 19 46  1  0
 20 47  1  0
 21 48  1  0
 27 49  1  0
 28 50  1  0
 28 51  1  0
M  END
$$$$
