
     RDKit          3D

 41 42  0  0  0  0  0  0  0  0999 V2000
   -0.2244   -0.7586   -0.8119 O   0  0  0  0  0  0  0  0  0  0  0  0
   -0.4894    0.4672   -0.1189 C   0  0  0  0  0  0  0  0  0  0  0  0
    0.8546    1.1734    0.1237 C   0  0  0  0  0  0  0  0  0  0  0  0
    1.6993    0.3088    0.8977 O   0  0  0  0  0  0  0  0  0  0  0  0
    2.9721    0.8950    1.1806 C   0  0  0  0  0  0  0  0  0  0  0  0
    3.9123    0.7967    0.0036 C   0  0  0  0  0  0  0  0  0  0  0  0
    4.6697    1.9074   -0.3960 C   0  0  0  0  0  0  0  0  0  0  0  0
    5.5525    1.8111   -1.4748 C   0  0  0  0  0  0  0  0  0  0  0  0
    5.6873    0.6027   -2.1551 C   0  0  0  0  0  0  0  0  0  0  0  0
    6.7750    0.4867   -3.4831 Cl  0  0  0  0  0  0  0  0  0  0  0  0
    4.9494   -0.5119   -1.7647 C   0  0  0  0  0  0  0  0  0  0  0  0
    4.0678   -0.4158   -0.6858 C   0  0  0  0  0  0  0  0  0  0  0  0
   -1.2293    0.2047    1.2197 C   0  0  0  0  0  0  0  0  0  0  0  0
   -2.6024   -0.3272    1.1645 N   0  0  0  0  0  0  0  0  0  0  0  0
   -2.6559   -1.7819    0.9716 C   0  0  0  0  0  0  0  0  0  0  0  0
   -3.9996   -2.2837    0.4233 C   0  0  0  0  0  0  0  0  0  0  0  0
   -5.1579   -1.4340    0.9255 C   0  0  0  0  0  0  0  0  0  0  0  0
   -4.9533    0.0420    0.5751 C   0  0  0  0  0  0  0  0  0  0  0  0
   -3.4937    0.3950    0.2645 C   0  0  0  0  0  0  0  0  0  0  0  0
    0.4773   -1.1979   -0.2938 H   0  0  0  0  0  0  0  0  0  0  0  0
   -1.0958    1.0982   -0.7762 H   0  0  0  0  0  0  0  0  0  0  0  0
    0.7004    2.1195    0.6543 H   0  0  0  0  0  0  0  0  0  0  0  0
    1.3360    1.3716   -0.8403 H   0  0  0  0  0  0  0  0  0  0  0  0
    3.4116    0.3380    2.0157 H   0  0  0  0  0  0  0  0  0  0  0  0
    2.8414    1.9306    1.5165 H   0  0  0  0  0  0  0  0  0  0  0  0
    4.5783    2.8565    0.1279 H   0  0  0  0  0  0  0  0  0  0  0  0
    6.1316    2.6794   -1.7776 H   0  0  0  0  0  0  0  0  0  0  0  0
    5.0540   -1.4556   -2.2930 H   0  0  0  0  0  0  0  0  0  0  0  0
    3.4946   -1.2910   -0.3854 H   0  0  0  0  0  0  0  0  0  0  0  0
   -1.2818    1.1546    1.7675 H   0  0  0  0  0  0  0  0  0  0  0  0
   -0.6290   -0.4655    1.8487 H   0  0  0  0  0  0  0  0  0  0  0  0
   -1.8724   -2.1455    0.3000 H   0  0  0  0  0  0  0  0  0  0  0  0
   -2.4750   -2.2538    1.9451 H   0  0  0  0  0  0  0  0  0  0  0  0
   -3.9820   -2.2528   -0.6737 H   0  0  0  0  0  0  0  0  0  0  0  0
   -4.1478   -3.3312    0.7090 H   0  0  0  0  0  0  0  0  0  0  0  0
   -5.2350   -1.5397    2.0150 H   0  0  0  0  0  0  0  0  0  0  0  0
   -6.1065   -1.7909    0.5091 H   0  0  0  0  0  0  0  0  0  0  0  0
   -5.3194    0.6551    1.4081 H   0  0  0  0  0  0  0  0  0  0  0  0
   -5.5689    0.3022   -0.2945 H   0  0  0  0  0  0  0  0  0  0  0  0
   -3.3759    1.4789    0.3842 H   0  0  0  0  0  0  0  0  0  0  0  0
   -3.2696    0.1618   -0.7842 H   0  0  0  0  0  0  0  0  0  0  0  0
  1  2  1  0
  2  3  1  0
  3  4  1  0
  4  5  1  0
  5  6  1  0
  6  7  2  0
  7  8  1  0
  8  9  2  0
  9 10  1  0
  9 11  1  0
 11 12  2  0
  2 13  1  0
 13 14  1  0
 14 15  1  0
 15 16  1  0
 16 17  1  0
 17 18  1  0
 18 19  1  0
 12  6  1  0
 19 14  1  0
  1 20  1  0
  2 21  1  0
  3 22  1  0
  3 23  1  0
  5 24  1  0
  5 25  1  0
  7 26  1  0
  8 27  1  0
 11 28  1  0
 12 29  1  0
 13 30  1  0
 13 31  1  0
 15 32  1  0
 15 33  1  0
 16 34  1  0
 16 35  1  0
 17 36  1  0
 17 37  1  0
 18 38  1  0
 18 39  1  0
 19 40  1  0
 19 41  1  0
M  END
$$$$
