
     RDKit          3D

 64 68  0  0  0  0  0  0  0  0999 V2000
    1.4138    1.7607   -1.0526 O   0  0  0  0  0  0  0  0  0  0  0  0
    1.7023    0.8853   -0.2333 C   0  0  0  0  0  0  0  0  0  0  0  0
    0.9025    0.7383    1.0703 C   0  0  0  0  0  0  0  0  0  0  0  0
    0.0648    2.0029    1.3531 C   0  0  0  0  0  0  0  0  0  0  0  0
   -1.0986    1.7052    2.2917 C   0  0  0  0  0  0  0  0  0  0  0  0
   -2.0975    0.7116    1.6688 C   0  0  0  0  0  0  0  0  0  0  0  0
   -3.2666    1.4506    0.9857 C   0  0  0  0  0  0  0  0  0  0  0  0
   -4.3252    0.5044    0.6537 N   0  0  0  0  0  0  0  0  0  0  0  0
   -5.4060    0.7446   -0.1867 C   0  0  0  0  0  0  0  0  0  0  0  0
   -5.2836    1.6908   -1.1707 N   0  0  0  0  0  0  0  0  0  0  0  0
   -6.2471    2.0351   -2.0813 C   0  0  0  0  0  0  0  0  0  0  0  0
   -5.8691    3.2153   -3.2115 S   0  0  0  0  0  0  0  0  0  0  0  0
   -7.4573    1.4057   -2.0229 N   0  0  0  0  0  0  0  0  0  0  0  0
   -7.6143    0.4986   -1.1129 C   0  0  0  0  0  0  0  0  0  0  0  0
   -8.9262   -0.2046   -1.0371 C   0  0  0  0  0  0  0  0  0  0  0  0
   -9.1441   -1.1564   -0.1202 C   0  0  0  0  0  0  0  0  0  0  0  0
   -8.1320   -1.5532    0.8271 C   0  0  0  0  0  0  0  0  0  0  0  0
   -6.9229   -0.9745    0.8394 C   0  0  0  0  0  0  0  0  0  0  0  0
   -6.5821    0.0785   -0.1053 C   0  0  0  0  0  0  0  0  0  0  0  0
   -1.4142   -0.2505    0.6751 C   0  0  0  0  0  0  0  0  0  0  0  0
    0.0367   -0.5382    1.0499 C   0  0  0  0  0  0  0  0  0  0  0  0
    2.7334   -0.0208   -0.4773 N   0  0  0  0  0  0  0  0  0  0  0  0
    3.5756    0.2448   -1.6580 C   0  0  0  0  0  0  0  0  0  0  0  0
    4.2964   -1.0111   -2.1806 C   0  0  0  0  0  0  0  0  0  0  0  0
    5.0387   -1.6813   -1.0842 N   0  0  0  0  0  0  0  0  0  0  0  0
    6.3488   -1.2735   -0.8230 C   0  0  0  0  0  0  0  0  0  0  0  0
    7.2483   -1.0180   -1.8776 C   0  0  0  0  0  0  0  0  0  0  0  0
    8.5769   -0.6367   -1.6519 C   0  0  0  0  0  0  0  0  0  0  0  0
    9.0419   -0.5238   -0.3527 C   0  0  0  0  0  0  0  0  0  0  0  0
   10.3159   -0.1765   -0.1278 F   0  0  0  0  0  0  0  0  0  0  0  0
    8.2021   -0.7844    0.7162 C   0  0  0  0  0  0  0  0  0  0  0  0
    6.8725   -1.1592    0.4787 C   0  0  0  0  0  0  0  0  0  0  0  0
    4.1250   -2.0556    0.0150 C   0  0  0  0  0  0  0  0  0  0  0  0
    3.3824   -0.8244    0.5738 C   0  0  0  0  0  0  0  0  0  0  0  0
    1.6283    0.6561    1.8890 H   0  0  0  0  0  0  0  0  0  0  0  0
    0.7136    2.7687    1.7966 H   0  0  0  0  0  0  0  0  0  0  0  0
   -0.3343    2.4411    0.4304 H   0  0  0  0  0  0  0  0  0  0  0  0
   -0.6988    1.2774    3.2210 H   0  0  0  0  0  0  0  0  0  0  0  0
   -1.5993    2.6367    2.5799 H   0  0  0  0  0  0  0  0  0  0  0  0
   -2.5089    0.1146    2.4941 H   0  0  0  0  0  0  0  0  0  0  0  0
   -3.6794    2.2082    1.6600 H   0  0  0  0  0  0  0  0  0  0  0  0
   -2.8968    1.9676    0.0948 H   0  0  0  0  0  0  0  0  0  0  0  0
   -4.5562   -0.1019    1.4336 H   0  0  0  0  0  0  0  0  0  0  0  0
   -4.3994    2.1617   -1.2836 H   0  0  0  0  0  0  0  0  0  0  0  0
   -9.6826    0.0942   -1.7537 H   0  0  0  0  0  0  0  0  0  0  0  0
  -10.1052   -1.6611   -0.0720 H   0  0  0  0  0  0  0  0  0  0  0  0
   -8.3786   -2.3419    1.5327 H   0  0  0  0  0  0  0  0  0  0  0  0
   -6.1891   -1.3109    1.5612 H   0  0  0  0  0  0  0  0  0  0  0  0
   -1.9753   -1.1914    0.6389 H   0  0  0  0  0  0  0  0  0  0  0  0
   -1.4377    0.1622   -0.3412 H   0  0  0  0  0  0  0  0  0  0  0  0
    0.0556   -0.9970    2.0472 H   0  0  0  0  0  0  0  0  0  0  0  0
    0.4379   -1.2864    0.3560 H   0  0  0  0  0  0  0  0  0  0  0  0
    4.3087    1.0056   -1.3591 H   0  0  0  0  0  0  0  0  0  0  0  0
    2.9691    0.6713   -2.4656 H   0  0  0  0  0  0  0  0  0  0  0  0
    4.9187   -0.7518   -3.0413 H   0  0  0  0  0  0  0  0  0  0  0  0
    3.5464   -1.7174   -2.5603 H   0  0  0  0  0  0  0  0  0  0  0  0
    6.9425   -1.1497   -2.9121 H   0  0  0  0  0  0  0  0  0  0  0  0
    9.2476   -0.4495   -2.4840 H   0  0  0  0  0  0  0  0  0  0  0  0
    8.5823   -0.7066    1.7306 H   0  0  0  0  0  0  0  0  0  0  0  0
    6.2619   -1.3530    1.3542 H   0  0  0  0  0  0  0  0  0  0  0  0
    3.3811   -2.7532   -0.3921 H   0  0  0  0  0  0  0  0  0  0  0  0
    4.6311   -2.6102    0.8119 H   0  0  0  0  0  0  0  0  0  0  0  0
    2.6497   -1.1661    1.3077 H   0  0  0  0  0  0  0  0  0  0  0  0
    4.0761   -0.1549    1.0946 H   0  0  0  0  0  0  0  0  0  0  0  0
  1  2  2  0
  2  3  1  0
  3  4  1  0
  4  5  1  0
  5  6  1  0
  6  7  1  0
  7  8  1  0
  8  9  1  0
  9 10  1  0
 10 11  1  0
 11 12  2  0
 11 13  1  0
 13 14  2  0
 14 15  1  0
 15 16  2  0
 16 17  1  0
 17 18  2  0
 18 19  1  0
  6 20  1  0
 20 21  1  0
  2 22  1  0
 22 23  1  0
 23 24  1  0
 24 25  1  0
 25 26  1  0
 26 27  2  0
 27 28  1  0
 28 29  2  0
 29 30  1  0
 29 31  1  0
 31 32  2  0
 25 33  1  0
 33 34  1  0
 21  3  1  0
 34 22  1  0
 19  9  2  0
 32 26  1  0
 19 14  1  0
  3 35  1  0
  4 36  1  0
  4 37  1  0
  5 38  1  0
  5 39  1  0
  6 40  1  0
  7 41  1  0
  7 42  1  0
  8 43  1  0
 10 44  1  0
 15 45  1  0
 16 46  1  0
 17 47  1  0
 18 48  1  0
 20 49  1  0
 20 50  1  0
 21 51  1  0
 21 52  1  0
 23 53  1  0
 23 54  1  0
 24 55  1  0
 24 56  1  0
 27 57  1  0
 28 58  1  0
 31 59  1  0
 32 60  1  0
 33 61  1  0
 33 62  1  0
 34 63  1  0
 34 64  1  0
M  END
$$$$
