
     RDKit          3D

 40 42  0  0  0  0  0  0  0  0999 V2000
   -5.5400    1.7798    0.4687 C   0  0  0  0  0  0  0  0  0  0  0  0
   -4.3198    0.9760    0.0247 C   0  0  0  0  0  0  0  0  0  0  0  0
   -3.1305    1.2110    0.9785 C   0  0  0  0  0  0  0  0  0  0  0  0
   -1.8616    0.5048    0.4759 C   0  0  0  0  0  0  0  0  0  0  0  0
   -2.1302   -0.9167    0.0649 C   0  0  0  0  0  0  0  0  0  0  0  0
   -1.1661   -1.9845   -0.0971 C   0  0  0  0  0  0  0  0  0  0  0  0
    0.2948   -1.9374    0.0595 C   0  0  0  0  0  0  0  0  0  0  0  0
    0.9019   -2.8770    0.5588 O   0  0  0  0  0  0  0  0  0  0  0  0
    0.8607   -0.7888   -0.4588 N   0  0  0  0  0  0  0  0  0  0  0  0
    2.2157   -0.4066   -0.4319 C   0  0  0  0  0  0  0  0  0  0  0  0
    2.5640    0.7630   -1.1141 C   0  0  0  0  0  0  0  0  0  0  0  0
    3.8888    1.2109   -1.1265 C   0  0  0  0  0  0  0  0  0  0  0  0
    4.8887    0.5028   -0.4568 C   0  0  0  0  0  0  0  0  0  0  0  0
    6.1333    1.0535   -0.5528 O   0  0  0  0  0  0  0  0  0  0  0  0
    7.2016    0.3904    0.1016 C   0  0  0  0  0  0  0  0  0  0  0  0
    6.9943    0.3288    1.4342 F   0  0  0  0  0  0  0  0  0  0  0  0
    8.3389    1.0888   -0.1131 F   0  0  0  0  0  0  0  0  0  0  0  0
    7.3767   -0.8552   -0.3881 F   0  0  0  0  0  0  0  0  0  0  0  0
    4.5436   -0.6607    0.2278 C   0  0  0  0  0  0  0  0  0  0  0  0
    3.2147   -1.1105    0.2405 C   0  0  0  0  0  0  0  0  0  0  0  0
   -1.8070   -3.1749   -0.4008 C   0  0  0  0  0  0  0  0  0  0  0  0
   -3.4957   -3.0064   -0.5719 S   0  0  0  0  0  0  0  0  0  0  0  0
   -3.4201   -1.3547   -0.1818 C   0  0  0  0  0  0  0  0  0  0  0  0
   -4.6649   -0.5260   -0.0644 C   0  0  0  0  0  0  0  0  0  0  0  0
   -6.3777    1.6247   -0.2193 H   0  0  0  0  0  0  0  0  0  0  0  0
   -5.3135    2.8510    0.4854 H   0  0  0  0  0  0  0  0  0  0  0  0
   -5.8661    1.4877    1.4726 H   0  0  0  0  0  0  0  0  0  0  0  0
   -4.0288    1.3267   -0.9752 H   0  0  0  0  0  0  0  0  0  0  0  0
   -3.3845    0.8392    1.9801 H   0  0  0  0  0  0  0  0  0  0  0  0
   -2.9267    2.2837    1.0788 H   0  0  0  0  0  0  0  0  0  0  0  0
   -1.4734    1.0540   -0.3903 H   0  0  0  0  0  0  0  0  0  0  0  0
   -1.0978    0.5371    1.2609 H   0  0  0  0  0  0  0  0  0  0  0  0
    0.2395   -0.1920   -0.9862 H   0  0  0  0  0  0  0  0  0  0  0  0
    1.8165    1.3431   -1.6488 H   0  0  0  0  0  0  0  0  0  0  0  0
    4.1393    2.1218   -1.6660 H   0  0  0  0  0  0  0  0  0  0  0  0
    5.2739   -1.2555    0.7697 H   0  0  0  0  0  0  0  0  0  0  0  0
    2.9975   -2.0194    0.7945 H   0  0  0  0  0  0  0  0  0  0  0  0
   -1.3466   -4.1437   -0.5478 H   0  0  0  0  0  0  0  0  0  0  0  0
   -5.3259   -0.6980   -0.9225 H   0  0  0  0  0  0  0  0  0  0  0  0
   -5.2077   -0.8392    0.8370 H   0  0  0  0  0  0  0  0  0  0  0  0
  1  2  1  0
  2  3  1  0
  3  4  1  0
  4  5  1  0
  5  6  1  0
  6  7  1  0
  7  8  2  0
  7  9  1  0
  9 10  1  0
 10 11  2  0
 11 12  1  0
 12 13  2  0
 13 14  1  0
 14 15  1  0
 15 16  1  0
 15 17  1  0
 15 18  1  0
 13 19  1  0
 19 20  2  0
  6 21  2  0
 21 22  1  0
 22 23  1  0
 23 24  1  0
 24  2  1  0
 23  5  2  0
 20 10  1  0
  1 25  1  0
  1 26  1  0
  1 27  1  0
  2 28  1  0
  3 29  1  0
  3 30  1  0
  4 31  1  0
  4 32  1  0
  9 33  1  0
 11 34  1  0
 12 35  1  0
 19 36  1  0
 20 37  1  0
 21 38  1  0
 24 39  1  0
 24 40  1  0
M  END
$$$$
