
     RDKit          3D

 71 76  0  0  0  0  0  0  0  0999 V2000
    9.1190    3.8085   -0.0745 C   0  0  0  0  0  0  0  0  0  0  0  0
    7.7956    3.4310    0.2848 O   0  0  0  0  0  0  0  0  0  0  0  0
    7.2822    2.3184   -0.3234 C   0  0  0  0  0  0  0  0  0  0  0  0
    7.9297    1.5300   -1.2704 C   0  0  0  0  0  0  0  0  0  0  0  0
    7.2732    0.4280   -1.8166 C   0  0  0  0  0  0  0  0  0  0  0  0
    5.9714    0.1066   -1.4166 C   0  0  0  0  0  0  0  0  0  0  0  0
    5.2980    0.8712   -0.4550 C   0  0  0  0  0  0  0  0  0  0  0  0
    3.9915    0.5955   -0.0133 N   0  0  0  0  0  0  0  0  0  0  0  0
    3.1538   -0.2855   -0.8523 C   0  0  0  0  0  0  0  0  0  0  0  0
    1.6948   -0.2788   -0.3589 C   0  0  0  0  0  0  0  0  0  0  0  0
    1.5885   -0.5959    1.0724 N   0  0  0  0  0  0  0  0  0  0  0  0
    0.4626   -1.1575    1.6689 C   0  0  0  0  0  0  0  0  0  0  0  0
    0.2850   -1.0910    2.8869 O   0  0  0  0  0  0  0  0  0  0  0  0
   -0.5106   -1.9242    0.7744 C   0  0  0  0  0  0  0  0  0  0  0  0
    0.1408   -3.2183    0.2320 C   0  0  0  0  0  0  0  0  0  0  0  0
   -0.6518   -4.4847    0.5752 C   0  0  0  0  0  0  0  0  0  0  0  0
   -2.1311   -4.3325    0.2125 C   0  0  0  0  0  0  0  0  0  0  0  0
   -2.6714   -3.0719    0.7216 N   0  0  0  0  0  0  0  0  0  0  0  0
   -3.7379   -2.5328    0.0075 C   0  0  0  0  0  0  0  0  0  0  0  0
   -4.5606   -3.4001   -0.6624 N   0  0  0  0  0  0  0  0  0  0  0  0
   -5.6295   -2.9285   -1.3351 C   0  0  0  0  0  0  0  0  0  0  0  0
   -6.0303   -1.6541   -1.4696 N   0  0  0  0  0  0  0  0  0  0  0  0
   -5.1983   -0.8222   -0.8227 C   0  0  0  0  0  0  0  0  0  0  0  0
   -4.0672   -1.1550   -0.0938 C   0  0  0  0  0  0  0  0  0  0  0  0
   -3.4660   -0.0028    0.3813 N   0  0  0  0  0  0  0  0  0  0  0  0
   -4.2304    1.0051   -0.0022 C   0  0  0  0  0  0  0  0  0  0  0  0
   -5.2940    0.5418   -0.7440 N   0  0  0  0  0  0  0  0  0  0  0  0
   -6.3303    1.3390   -1.3552 C   0  0  0  0  0  0  0  0  0  0  0  0
   -7.2090    2.0711   -0.3442 C   0  0  0  0  0  0  0  0  0  0  0  0
   -6.4612    2.9069    0.7011 C   0  0  0  0  0  0  0  0  0  0  0  0
   -5.1105    3.4334    0.2198 C   0  0  0  0  0  0  0  0  0  0  0  0
   -3.9625    2.4319    0.3649 C   0  0  0  0  0  0  0  0  0  0  0  0
   -1.7960   -2.2400    1.5479 C   0  0  0  0  0  0  0  0  0  0  0  0
    2.4808    0.1998    1.9270 C   0  0  0  0  0  0  0  0  0  0  0  0
    3.9356    0.2271    1.4239 C   0  0  0  0  0  0  0  0  0  0  0  0
    5.9795    1.9844    0.0691 C   0  0  0  0  0  0  0  0  0  0  0  0
    9.8384    3.0322    0.2063 H   0  0  0  0  0  0  0  0  0  0  0  0
    9.3710    4.7152    0.4837 H   0  0  0  0  0  0  0  0  0  0  0  0
    9.1883    4.0463   -1.1413 H   0  0  0  0  0  0  0  0  0  0  0  0
    8.9376    1.7445   -1.6071 H   0  0  0  0  0  0  0  0  0  0  0  0
    7.7779   -0.1899   -2.5548 H   0  0  0  0  0  0  0  0  0  0  0  0
    5.5122   -0.7704   -1.8611 H   0  0  0  0  0  0  0  0  0  0  0  0
    3.5337   -1.3158   -0.8164 H   0  0  0  0  0  0  0  0  0  0  0  0
    3.1642    0.0547   -1.8955 H   0  0  0  0  0  0  0  0  0  0  0  0
    1.1169   -0.9763   -0.9670 H   0  0  0  0  0  0  0  0  0  0  0  0
    1.2521    0.7165   -0.4952 H   0  0  0  0  0  0  0  0  0  0  0  0
   -0.7878   -1.2749   -0.0646 H   0  0  0  0  0  0  0  0  0  0  0  0
    1.1678   -3.3364    0.5958 H   0  0  0  0  0  0  0  0  0  0  0  0
    0.2093   -3.1432   -0.8606 H   0  0  0  0  0  0  0  0  0  0  0  0
   -0.2278   -5.3453    0.0449 H   0  0  0  0  0  0  0  0  0  0  0  0
   -0.5492   -4.7004    1.6464 H   0  0  0  0  0  0  0  0  0  0  0  0
   -2.2070   -4.3787   -0.8819 H   0  0  0  0  0  0  0  0  0  0  0  0
   -2.6993   -5.1754    0.6233 H   0  0  0  0  0  0  0  0  0  0  0  0
   -6.2421   -3.6760   -1.8313 H   0  0  0  0  0  0  0  0  0  0  0  0
   -6.9598    0.6900   -1.9735 H   0  0  0  0  0  0  0  0  0  0  0  0
   -5.8402    2.0355   -2.0451 H   0  0  0  0  0  0  0  0  0  0  0  0
   -7.8837    2.7318   -0.9030 H   0  0  0  0  0  0  0  0  0  0  0  0
   -7.8519    1.3532    0.1799 H   0  0  0  0  0  0  0  0  0  0  0  0
   -7.1010    3.7544    0.9793 H   0  0  0  0  0  0  0  0  0  0  0  0
   -6.3259    2.3194    1.6187 H   0  0  0  0  0  0  0  0  0  0  0  0
   -4.8507    4.3218    0.8111 H   0  0  0  0  0  0  0  0  0  0  0  0
   -5.1844    3.7853   -0.8171 H   0  0  0  0  0  0  0  0  0  0  0  0
   -3.6384    2.4399    1.4153 H   0  0  0  0  0  0  0  0  0  0  0  0
   -3.1051    2.7900   -0.2197 H   0  0  0  0  0  0  0  0  0  0  0  0
   -2.2817   -1.3337    1.9207 H   0  0  0  0  0  0  0  0  0  0  0  0
   -1.5636   -2.8020    2.4628 H   0  0  0  0  0  0  0  0  0  0  0  0
    2.0729    1.2184    1.9494 H   0  0  0  0  0  0  0  0  0  0  0  0
    2.4673   -0.1819    2.9530 H   0  0  0  0  0  0  0  0  0  0  0  0
    4.4936    0.9341    2.0482 H   0  0  0  0  0  0  0  0  0  0  0  0
    4.3860   -0.7651    1.5605 H   0  0  0  0  0  0  0  0  0  0  0  0
    5.4770    2.6285    0.7870 H   0  0  0  0  0  0  0  0  0  0  0  0
  1  2  1  0
  2  3  1  0
  3  4  2  0
  4  5  1  0
  5  6  2  0
  6  7  1  0
  7  8  1  0
  8  9  1  0
  9 10  1  0
 10 11  1  0
 11 12  1  0
 12 13  2  0
 12 14  1  0
 14 15  1  0
 15 16  1  0
 16 17  1  0
 17 18  1  0
 18 19  1  0
 19 20  2  0
 20 21  1  0
 21 22  2  0
 22 23  1  0
 23 24  2  0
 24 25  1  0
 25 26  2  0
 26 27  1  0
 27 28  1  0
 28 29  1  0
 29 30  1  0
 30 31  1  0
 31 32  1  0
 18 33  1  0
 11 34  1  0
 34 35  1  0
  7 36  2  0
 36  3  1  0
 35  8  1  0
 33 14  1  0
 24 19  1  0
 32 26  1  0
 27 23  1  0
  1 37  1  0
  1 38  1  0
  1 39  1  0
  4 40  1  0
  5 41  1  0
  6 42  1  0
  9 43  1  0
  9 44  1  0
 10 45  1  0
 10 46  1  0
 14 47  1  0
 15 48  1  0
 15 49  1  0
 16 50  1  0
 16 51  1  0
 17 52  1  0
 17 53  1  0
 21 54  1  0
 28 55  1  0
 28 56  1  0
 29 57  1  0
 29 58  1  0
 30 59  1  0
 30 60  1  0
 31 61  1  0
 31 62  1  0
 32 63  1  0
 32 64  1  0
 33 65  1  0
 33 66  1  0
 34 67  1  0
 34 68  1  0
 35 69  1  0
 35 70  1  0
 36 71  1  0
M  END
$$$$
