
     RDKit          3D

 43 45  0  0  0  0  0  0  0  0999 V2000
    6.5207   -2.4069    0.0883 C   0  0  0  0  0  0  0  0  0  0  0  0
    5.7513   -1.1280   -0.0646 C   0  0  0  0  0  0  0  0  0  0  0  0
    6.4157    0.0899   -0.2225 C   0  0  0  0  0  0  0  0  0  0  0  0
    5.6912    1.2754   -0.3455 C   0  0  0  0  0  0  0  0  0  0  0  0
    4.2901    1.2641   -0.3025 C   0  0  0  0  0  0  0  0  0  0  0  0
    3.5290    2.5546   -0.4391 C   0  0  0  0  0  0  0  0  0  0  0  0
    3.6142    0.0435   -0.1283 C   0  0  0  0  0  0  0  0  0  0  0  0
    2.2467    0.1280   -0.0906 O   0  0  0  0  0  0  0  0  0  0  0  0
    1.5199   -1.0694    0.1755 C   0  0  0  0  0  0  0  0  0  0  0  0
    0.0846   -0.7068    0.2417 C   0  0  0  0  0  0  0  0  0  0  0  0
   -0.6275    0.4668    0.2117 C   0  0  0  0  0  0  0  0  0  0  0  0
   -1.9916    0.0773    0.3242 C   0  0  0  0  0  0  0  0  0  0  0  0
   -3.1387    1.0001    0.3804 C   0  0  0  0  0  0  0  0  0  0  0  0
   -2.9390    2.1894    0.6427 O   0  0  0  0  0  0  0  0  0  0  0  0
   -4.4455    0.5487    0.1397 N   0  0  0  0  0  0  0  0  0  0  0  0
   -4.8192   -0.8228   -0.2126 C   0  0  0  0  0  0  0  0  0  0  0  0
   -6.1543   -0.8751   -0.9526 C   0  0  0  0  0  0  0  0  0  0  0  0
   -7.1995   -0.1966   -0.2275 N   0  0  0  0  0  0  0  0  0  0  0  0
   -6.9773    1.0212    0.3591 C   0  0  0  0  0  0  0  0  0  0  0  0
   -7.9307    1.7169    0.7037 O   0  0  0  0  0  0  0  0  0  0  0  0
   -5.5194    1.4441    0.5909 C   0  0  0  0  0  0  0  0  0  0  0  0
   -2.0760   -1.2591    0.4485 N   0  0  0  0  0  0  0  0  0  0  0  0
   -0.7853   -1.7419    0.3796 O   0  0  0  0  0  0  0  0  0  0  0  0
    4.3489   -1.1424   -0.0119 C   0  0  0  0  0  0  0  0  0  0  0  0
    7.5715   -2.2772   -0.1914 H   0  0  0  0  0  0  0  0  0  0  0  0
    6.1013   -3.1845   -0.5588 H   0  0  0  0  0  0  0  0  0  0  0  0
    6.4808   -2.7459    1.1279 H   0  0  0  0  0  0  0  0  0  0  0  0
    7.5024    0.1269   -0.2529 H   0  0  0  0  0  0  0  0  0  0  0  0
    6.2293    2.2124   -0.4727 H   0  0  0  0  0  0  0  0  0  0  0  0
    2.9224    2.7345    0.4545 H   0  0  0  0  0  0  0  0  0  0  0  0
    4.2037    3.4092   -0.5579 H   0  0  0  0  0  0  0  0  0  0  0  0
    2.8792    2.5194   -1.3196 H   0  0  0  0  0  0  0  0  0  0  0  0
    1.8236   -1.4994    1.1373 H   0  0  0  0  0  0  0  0  0  0  0  0
    1.6725   -1.7931   -0.6342 H   0  0  0  0  0  0  0  0  0  0  0  0
   -0.2332    1.4697    0.1251 H   0  0  0  0  0  0  0  0  0  0  0  0
   -4.0625   -1.2667   -0.8635 H   0  0  0  0  0  0  0  0  0  0  0  0
   -4.8764   -1.3955    0.7204 H   0  0  0  0  0  0  0  0  0  0  0  0
   -6.4695   -1.9107   -1.1109 H   0  0  0  0  0  0  0  0  0  0  0  0
   -6.0676   -0.3847   -1.9287 H   0  0  0  0  0  0  0  0  0  0  0  0
   -8.1720   -0.3811   -0.4458 H   0  0  0  0  0  0  0  0  0  0  0  0
   -5.3782    2.4157    0.1020 H   0  0  0  0  0  0  0  0  0  0  0  0
   -5.3937    1.5814    1.6721 H   0  0  0  0  0  0  0  0  0  0  0  0
    3.8580   -2.1015    0.1197 H   0  0  0  0  0  0  0  0  0  0  0  0
  1  2  1  0
  2  3  2  0
  3  4  1  0
  4  5  2  0
  5  6  1  0
  5  7  1  0
  7  8  1  0
  8  9  1  0
  9 10  1  0
 10 11  2  0
 11 12  1  0
 12 13  1  0
 13 14  2  0
 13 15  1  0
 15 16  1  0
 16 17  1  0
 17 18  1  0
 18 19  1  0
 19 20  2  0
 19 21  1  0
 12 22  2  0
 22 23  1  0
  7 24  2  0
 24  2  1  0
 23 10  1  0
 21 15  1  0
  1 25  1  0
  1 26  1  0
  1 27  1  0
  3 28  1  0
  4 29  1  0
  6 30  1  0
  6 31  1  0
  6 32  1  0
  9 33  1  0
  9 34  1  0
 11 35  1  0
 16 36  1  0
 16 37  1  0
 17 38  1  0
 17 39  1  0
 18 40  1  0
 21 41  1  0
 21 42  1  0
 24 43  1  0
M  END
$$$$
