
     RDKit          3D

 38 42  0  0  0  0  0  0  0  0999 V2000
    0.3871    0.9720   -1.9559 O   0  0  0  0  0  0  0  0  0  0  0  0
   -0.1114    0.6163   -0.7774 C   0  0  0  0  0  0  0  0  0  0  0  0
   -1.3700    0.1796   -0.4653 C   0  0  0  0  0  0  0  0  0  0  0  0
   -1.4165   -0.1099    0.9383 C   0  0  0  0  0  0  0  0  0  0  0  0
   -0.1865    0.1786    1.4660 C   0  0  0  0  0  0  0  0  0  0  0  0
    0.2857    0.0932    2.7030 O   0  0  0  0  0  0  0  0  0  0  0  0
    0.6037    0.6392    0.4179 N   0  0  0  0  0  0  0  0  0  0  0  0
    1.9501    1.1805    0.5943 C   0  0  0  0  0  0  0  0  0  0  0  0
    3.0168    0.3266   -0.0503 C   0  0  0  0  0  0  0  0  0  0  0  0
    3.9645    0.9117   -0.9048 C   0  0  0  0  0  0  0  0  0  0  0  0
    4.9615    0.1345   -1.4968 C   0  0  0  0  0  0  0  0  0  0  0  0
    5.0300   -1.2319   -1.2337 C   0  0  0  0  0  0  0  0  0  0  0  0
    4.1064   -1.8219   -0.3737 C   0  0  0  0  0  0  0  0  0  0  0  0
    3.1091   -1.0470    0.2199 C   0  0  0  0  0  0  0  0  0  0  0  0
   -2.7707   -0.6261    1.3990 C   0  0  0  0  0  0  0  0  0  0  0  0
   -3.0503   -1.8523    0.4824 C   0  0  0  0  0  0  0  0  0  0  0  0
   -3.0025   -1.5778   -0.8491 C   0  0  0  0  0  0  0  0  0  0  0  0
   -2.6766   -0.0920   -1.1894 C   0  0  0  0  0  0  0  0  0  0  0  0
   -3.8213    0.7232   -0.4999 C   0  0  0  0  0  0  0  0  0  0  0  0
   -3.6290    1.8233    0.5235 C   0  0  0  0  0  0  0  0  0  0  0  0
   -3.8750    0.4115    1.0143 C   0  0  0  0  0  0  0  0  0  0  0  0
    1.3537    0.8691   -1.9346 H   0  0  0  0  0  0  0  0  0  0  0  0
   -0.4379   -0.2453    3.2593 H   0  0  0  0  0  0  0  0  0  0  0  0
    1.9299    2.1875    0.1602 H   0  0  0  0  0  0  0  0  0  0  0  0
    2.1633    1.2905    1.6625 H   0  0  0  0  0  0  0  0  0  0  0  0
    3.9360    1.9791   -1.1158 H   0  0  0  0  0  0  0  0  0  0  0  0
    5.6888    0.5955   -2.1605 H   0  0  0  0  0  0  0  0  0  0  0  0
    5.8068   -1.8369   -1.6941 H   0  0  0  0  0  0  0  0  0  0  0  0
    4.1623   -2.8868   -0.1625 H   0  0  0  0  0  0  0  0  0  0  0  0
    2.3990   -1.5242    0.8940 H   0  0  0  0  0  0  0  0  0  0  0  0
   -2.7952   -0.8829    2.4605 H   0  0  0  0  0  0  0  0  0  0  0  0
   -3.2512   -2.8318    0.8930 H   0  0  0  0  0  0  0  0  0  0  0  0
   -3.1580   -2.3096   -1.6293 H   0  0  0  0  0  0  0  0  0  0  0  0
   -2.6245    0.0913   -2.2649 H   0  0  0  0  0  0  0  0  0  0  0  0
   -4.7498    0.6858   -1.0558 H   0  0  0  0  0  0  0  0  0  0  0  0
   -2.6528    2.2771    0.6446 H   0  0  0  0  0  0  0  0  0  0  0  0
   -4.4351    2.5410    0.6398 H   0  0  0  0  0  0  0  0  0  0  0  0
   -4.8403    0.1692    1.4413 H   0  0  0  0  0  0  0  0  0  0  0  0
  1  2  1  0
  2  3  2  0
  3  4  1  0
  4  5  2  0
  5  6  1  0
  5  7  1  0
  7  8  1  0
  8  9  1  0
  9 10  2  0
 10 11  1  0
 11 12  2  0
 12 13  1  0
 13 14  2  0
  4 15  1  0
 15 16  1  0
 16 17  2  0
 17 18  1  0
 18 19  1  0
 19 20  1  0
 20 21  1  0
  7  2  1  0
 14  9  1  0
 21 15  1  0
 18  3  1  0
 21 19  1  0
  1 22  1  0
  6 23  1  0
  8 24  1  0
  8 25  1  0
 10 26  1  0
 11 27  1  0
 12 28  1  0
 13 29  1  0
 14 30  1  0
 15 31  1  0
 16 32  1  0
 17 33  1  0
 18 34  1  0
 19 35  1  0
 20 36  1  0
 20 37  1  0
 21 38  1  0
M  END
$$$$
