
     RDKit          3D

 55 58  0  0  0  0  0  0  0  0999 V2000
   -3.6441    1.7732   -2.2696 C   0  0  0  0  0  0  0  0  0  0  0  0
   -3.5857    1.8139   -0.7419 C   0  0  0  0  0  0  0  0  0  0  0  0
   -4.8805    2.3584   -0.1349 C   0  0  0  0  0  0  0  0  0  0  0  0
   -3.1955    0.5309   -0.1630 N   0  0  0  0  0  0  0  0  0  0  0  0
   -2.0595    0.3040    0.5969 C   0  0  0  0  0  0  0  0  0  0  0  0
   -1.1193    1.2709    0.8028 N   0  0  0  0  0  0  0  0  0  0  0  0
   -0.4374    1.2089    2.1173 C   0  0  0  0  0  0  0  0  0  0  0  0
    0.7533    0.2196    2.1283 C   0  0  0  0  0  0  0  0  0  0  0  0
    1.7533    0.4178    1.0488 N   0  0  0  0  0  0  0  0  0  0  0  0
    2.5518    1.6448    1.2870 C   0  0  0  0  0  0  0  0  0  0  0  0
    3.7890    1.6635    0.3821 C   0  0  0  0  0  0  0  0  0  0  0  0
    4.2059    2.6866   -0.1525 O   0  0  0  0  0  0  0  0  0  0  0  0
    4.3958    0.4334    0.2626 N   0  0  0  0  0  0  0  0  0  0  0  0
    5.4846    0.2324   -0.6569 C   0  0  0  0  0  0  0  0  0  0  0  0
    5.9722   -1.1724   -0.5209 C   0  0  0  0  0  0  0  0  0  0  0  0
    5.5182   -2.3015   -1.1759 C   0  0  0  0  0  0  0  0  0  0  0  0
    6.2259   -3.4757   -0.7883 C   0  0  0  0  0  0  0  0  0  0  0  0
    7.1960   -3.2053    0.1505 C   0  0  0  0  0  0  0  0  0  0  0  0
    7.2509   -1.5458    0.5582 S   0  0  0  0  0  0  0  0  0  0  0  0
    1.0235    0.4702   -0.2448 C   0  0  0  0  0  0  0  0  0  0  0  0
   -0.1608    1.4674   -0.3089 C   0  0  0  0  0  0  0  0  0  0  0  0
   -2.0590   -0.9102    1.0944 N   0  0  0  0  0  0  0  0  0  0  0  0
   -3.1788   -1.5191    0.5996 C   0  0  0  0  0  0  0  0  0  0  0  0
   -3.6307   -2.8324    0.8019 C   0  0  0  0  0  0  0  0  0  0  0  0
   -4.8198   -3.2413    0.1903 C   0  0  0  0  0  0  0  0  0  0  0  0
   -5.5468   -2.3573   -0.6055 C   0  0  0  0  0  0  0  0  0  0  0  0
   -5.1122   -1.0427   -0.8157 C   0  0  0  0  0  0  0  0  0  0  0  0
   -3.9154   -0.6485   -0.1997 C   0  0  0  0  0  0  0  0  0  0  0  0
   -2.7132    1.3769   -2.6886 H   0  0  0  0  0  0  0  0  0  0  0  0
   -3.7917    2.7806   -2.6732 H   0  0  0  0  0  0  0  0  0  0  0  0
   -4.4643    1.1502   -2.6369 H   0  0  0  0  0  0  0  0  0  0  0  0
   -2.8032    2.5347   -0.4792 H   0  0  0  0  0  0  0  0  0  0  0  0
   -5.0679    3.3790   -0.4852 H   0  0  0  0  0  0  0  0  0  0  0  0
   -4.8176    2.3848    0.9585 H   0  0  0  0  0  0  0  0  0  0  0  0
   -5.7515    1.7541   -0.4040 H   0  0  0  0  0  0  0  0  0  0  0  0
   -0.0768    2.2164    2.3591 H   0  0  0  0  0  0  0  0  0  0  0  0
   -1.1478    0.9456    2.9116 H   0  0  0  0  0  0  0  0  0  0  0  0
    1.2501    0.2626    3.1056 H   0  0  0  0  0  0  0  0  0  0  0  0
    0.3754   -0.8068    2.0445 H   0  0  0  0  0  0  0  0  0  0  0  0
    1.9792    2.5633    1.1274 H   0  0  0  0  0  0  0  0  0  0  0  0
    2.9321    1.6574    2.3157 H   0  0  0  0  0  0  0  0  0  0  0  0
    3.8048   -0.3538    0.5198 H   0  0  0  0  0  0  0  0  0  0  0  0
    6.2688    0.9701   -0.4545 H   0  0  0  0  0  0  0  0  0  0  0  0
    5.1128    0.4155   -1.6715 H   0  0  0  0  0  0  0  0  0  0  0  0
    4.7125   -2.2866   -1.9007 H   0  0  0  0  0  0  0  0  0  0  0  0
    6.0331   -4.4681   -1.1773 H   0  0  0  0  0  0  0  0  0  0  0  0
    7.8775   -3.9022    0.6188 H   0  0  0  0  0  0  0  0  0  0  0  0
    1.7185    0.6860   -1.0649 H   0  0  0  0  0  0  0  0  0  0  0  0
    0.6425   -0.5394   -0.4482 H   0  0  0  0  0  0  0  0  0  0  0  0
   -0.6578    1.3701   -1.2816 H   0  0  0  0  0  0  0  0  0  0  0  0
    0.2120    2.4972   -0.2630 H   0  0  0  0  0  0  0  0  0  0  0  0
   -3.0584   -3.5109    1.4248 H   0  0  0  0  0  0  0  0  0  0  0  0
   -5.1782   -4.2566    0.3403 H   0  0  0  0  0  0  0  0  0  0  0  0
   -6.4713   -2.6940   -1.0705 H   0  0  0  0  0  0  0  0  0  0  0  0
   -5.6949   -0.3698   -1.4338 H   0  0  0  0  0  0  0  0  0  0  0  0
  1  2  1  0
  2  3  1  0
  2  4  1  0
  4  5  1  0
  5  6  1  0
  6  7  1  0
  7  8  1  0
  8  9  1  0
  9 10  1  0
 10 11  1  0
 11 12  2  0
 11 13  1  0
 13 14  1  0
 14 15  1  0
 15 16  2  0
 16 17  1  0
 17 18  2  0
 18 19  1  0
  9 20  1  0
 20 21  1  0
  5 22  2  0
 22 23  1  0
 23 24  2  0
 24 25  1  0
 25 26  2  0
 26 27  1  0
 27 28  2  0
 28  4  1  0
 21  6  1  0
 28 23  1  0
 19 15  1  0
  1 29  1  0
  1 30  1  0
  1 31  1  0
  2 32  1  0
  3 33  1  0
  3 34  1  0
  3 35  1  0
  7 36  1  0
  7 37  1  0
  8 38  1  0
  8 39  1  0
 10 40  1  0
 10 41  1  0
 13 42  1  0
 14 43  1  0
 14 44  1  0
 16 45  1  0
 17 46  1  0
 18 47  1  0
 20 48  1  0
 20 49  1  0
 21 50  1  0
 21 51  1  0
 24 52  1  0
 25 53  1  0
 26 54  1  0
 27 55  1  0
M  END
$$$$
