
     RDKit          3D

 38 41  0  0  0  0  0  0  0  0999 V2000
    8.2412    1.4105    0.3337 C   0  0  0  0  0  0  0  0  0  0  0  0
    6.8780    0.9489   -0.0272 C   0  0  0  0  0  0  0  0  0  0  0  0
    6.5873    0.1782   -1.0543 N   0  0  0  0  0  0  0  0  0  0  0  0
    5.2337   -0.0824   -1.1335 N   0  0  0  0  0  0  0  0  0  0  0  0
    4.5567    0.4976   -0.1680 C   0  0  0  0  0  0  0  0  0  0  0  0
    3.1991    0.3602   -0.0529 N   0  0  0  0  0  0  0  0  0  0  0  0
    2.3752    0.8898    0.9168 C   0  0  0  0  0  0  0  0  0  0  0  0
    2.7480    1.6186    1.8292 O   0  0  0  0  0  0  0  0  0  0  0  0
    0.9756    0.5045    0.7373 C   0  0  0  0  0  0  0  0  0  0  0  0
   -0.2335    1.5558    1.3373 S   0  0  0  0  0  0  0  0  0  0  0  0
   -1.4825    0.6135    0.6785 C   0  0  0  0  0  0  0  0  0  0  0  0
   -2.7585    1.0136    0.8191 N   0  0  0  0  0  0  0  0  0  0  0  0
   -3.6851    0.2137    0.2678 C   0  0  0  0  0  0  0  0  0  0  0  0
   -5.0850    0.6557    0.4105 C   0  0  0  0  0  0  0  0  0  0  0  0
   -6.2508   -0.0945    0.3820 C   0  0  0  0  0  0  0  0  0  0  0  0
   -7.4299    0.6970    0.5256 C   0  0  0  0  0  0  0  0  0  0  0  0
   -7.1368    2.0323    0.6633 C   0  0  0  0  0  0  0  0  0  0  0  0
   -5.4552    2.3248    0.6255 S   0  0  0  0  0  0  0  0  0  0  0  0
   -3.3693   -0.9654   -0.3931 C   0  0  0  0  0  0  0  0  0  0  0  0
   -2.0269   -1.3756   -0.5258 C   0  0  0  0  0  0  0  0  0  0  0  0
   -1.7214   -2.6685   -1.2286 C   0  0  0  0  0  0  0  0  0  0  0  0
   -0.8402   -2.5212   -2.2589 F   0  0  0  0  0  0  0  0  0  0  0  0
   -2.8193   -3.2729   -1.7624 F   0  0  0  0  0  0  0  0  0  0  0  0
   -1.1575   -3.5892   -0.3932 F   0  0  0  0  0  0  0  0  0  0  0  0
   -1.0274   -0.5318    0.0339 C   0  0  0  0  0  0  0  0  0  0  0  0
    0.4147   -0.6014    0.1167 C   0  0  0  0  0  0  0  0  0  0  0  0
    1.1654   -1.6257   -0.3748 N   0  0  0  0  0  0  0  0  0  0  0  0
    5.5136    1.4049    0.9095 S   0  0  0  0  0  0  0  0  0  0  0  0
    8.9887    0.9221   -0.3017 H   0  0  0  0  0  0  0  0  0  0  0  0
    8.3317    2.4942    0.1937 H   0  0  0  0  0  0  0  0  0  0  0  0
    8.4750    1.1674    1.3761 H   0  0  0  0  0  0  0  0  0  0  0  0
    2.7794   -0.1995   -0.7863 H   0  0  0  0  0  0  0  0  0  0  0  0
   -6.2704   -1.1707    0.2673 H   0  0  0  0  0  0  0  0  0  0  0  0
   -8.4396    0.3039    0.5301 H   0  0  0  0  0  0  0  0  0  0  0  0
   -7.8273    2.8537    0.7911 H   0  0  0  0  0  0  0  0  0  0  0  0
   -4.1617   -1.5764   -0.8217 H   0  0  0  0  0  0  0  0  0  0  0  0
    0.7275   -2.4559   -0.7746 H   0  0  0  0  0  0  0  0  0  0  0  0
    1.9877   -1.9298    0.1523 H   0  0  0  0  0  0  0  0  0  0  0  0
  1  2  1  0
  2  3  2  0
  3  4  1  0
  4  5  2  0
  5  6  1  0
  6  7  1  0
  7  8  2  0
  7  9  1  0
  9 10  1  0
 10 11  1  0
 11 12  2  0
 12 13  1  0
 13 14  1  0
 14 15  2  0
 15 16  1  0
 16 17  2  0
 17 18  1  0
 13 19  2  0
 19 20  1  0
 20 21  1  0
 21 22  1  0
 21 23  1  0
 21 24  1  0
 20 25  2  0
 25 26  1  0
 26 27  1  0
  5 28  1  0
 28  2  1  0
 26  9  2  0
 25 11  1  0
 18 14  1  0
  1 29  1  0
  1 30  1  0
  1 31  1  0
  6 32  1  0
 15 33  1  0
 16 34  1  0
 17 35  1  0
 19 36  1  0
 27 37  1  0
 27 38  1  0
M  END
$$$$
