
     RDKit          3D

 71 76  0  0  0  0  0  0  0  0999 V2000
   -3.1193   -2.3082    2.5973 C   0  0  0  0  0  0  0  0  0  0  0  0
   -3.5327   -3.1759    1.5449 O   0  0  0  0  0  0  0  0  0  0  0  0
   -3.1644   -2.8134    0.2764 C   0  0  0  0  0  0  0  0  0  0  0  0
   -3.7914   -3.5532   -0.7472 C   0  0  0  0  0  0  0  0  0  0  0  0
   -3.5466   -3.2808   -2.0961 C   0  0  0  0  0  0  0  0  0  0  0  0
   -2.6574   -2.2685   -2.3839 C   0  0  0  0  0  0  0  0  0  0  0  0
   -1.9957   -1.5430   -1.3887 C   0  0  0  0  0  0  0  0  0  0  0  0
   -2.2509   -1.8049   -0.0452 C   0  0  0  0  0  0  0  0  0  0  0  0
   -1.1115   -0.5135   -2.0505 C   0  0  1  0  0  0  0  0  0  0  0  0
   -1.4362   -0.7135   -3.5617 C   0  0  0  0  0  0  0  0  0  0  0  0
   -1.0144   -0.0986   -4.5311 O   0  0  0  0  0  0  0  0  0  0  0  0
   -2.3150   -1.7979   -3.6434 N   0  0  0  0  0  0  0  0  0  0  0  0
   -1.4889    0.8073   -1.5087 C   0  0  0  0  0  0  0  0  0  0  0  0
   -0.3785    1.4832   -0.9959 C   0  0  0  0  0  0  0  0  0  0  0  0
   -0.7963    2.6871   -0.4970 C   0  0  0  0  0  0  0  0  0  0  0  0
   -0.1376    3.6942    0.0610 O   0  0  0  0  0  0  0  0  0  0  0  0
   -2.1774    2.7237   -0.6542 N   0  0  0  0  0  0  0  0  0  0  0  0
   -3.0168    3.8191   -0.1781 C   0  0  0  0  0  0  0  0  0  0  0  0
   -3.5558    3.5386    1.2051 C   0  0  0  0  0  0  0  0  0  0  0  0
   -4.8605    3.0569    1.3954 C   0  0  0  0  0  0  0  0  0  0  0  0
   -5.3330    2.7771    2.6796 C   0  0  0  0  0  0  0  0  0  0  0  0
   -4.5119    2.9791    3.7875 C   0  0  0  0  0  0  0  0  0  0  0  0
   -3.2156    3.4619    3.6137 C   0  0  0  0  0  0  0  0  0  0  0  0
   -2.7400    3.7405    2.3309 C   0  0  0  0  0  0  0  0  0  0  0  0
   -2.6047    1.5824   -1.3253 C   0  0  0  0  0  0  0  0  0  0  0  0
   -3.8582    1.3239   -1.6733 O   0  0  0  0  0  0  0  0  0  0  0  0
    0.8596    0.6978   -1.1709 C   0  0  1  0  0  0  0  0  0  0  0  0
    1.6354    0.4515    0.1360 C   0  0  0  0  0  0  0  0  0  0  0  0
    2.7136   -0.5166   -0.0605 N   0  0  0  0  0  0  0  0  0  0  0  0
    3.9580   -0.2910    0.4885 C   0  0  0  0  0  0  0  0  0  0  0  0
    4.2148    0.6628    1.2114 O   0  0  0  0  0  0  0  0  0  0  0  0
    4.8507   -1.2451    0.1195 O   0  0  0  0  0  0  0  0  0  0  0  0
    6.2381   -1.1763    0.5381 C   0  0  0  0  0  0  0  0  0  0  0  0
    6.9236    0.0804   -0.0119 C   0  0  0  0  0  0  0  0  0  0  0  0
    6.8952   -2.4105   -0.1014 C   0  0  0  0  0  0  0  0  0  0  0  0
    6.3708   -1.2849    2.0622 C   0  0  0  0  0  0  0  0  0  0  0  0
    2.4346   -1.6458   -0.9539 C   0  0  0  0  0  0  0  0  0  0  0  0
    0.9326   -1.7921   -1.2690 C   0  0  0  0  0  0  0  0  0  0  0  0
    0.3726   -0.5640   -1.8317 N   0  0  0  0  0  0  0  0  0  0  0  0
   -2.0325   -2.3527    2.7378 H   0  0  0  0  0  0  0  0  0  0  0  0
   -3.5866   -2.6579    3.5218 H   0  0  0  0  0  0  0  0  0  0  0  0
   -3.4548   -1.2807    2.4208 H   0  0  0  0  0  0  0  0  0  0  0  0
   -4.4978   -4.3373   -0.4795 H   0  0  0  0  0  0  0  0  0  0  0  0
   -4.0543   -3.8371   -2.8758 H   0  0  0  0  0  0  0  0  0  0  0  0
   -1.7521   -1.2117    0.7127 H   0  0  0  0  0  0  0  0  0  0  0  0
   -2.6935   -2.1212   -4.5201 H   0  0  0  0  0  0  0  0  0  0  0  0
    0.8146    3.5015   -0.0041 H   0  0  0  0  0  0  0  0  0  0  0  0
   -3.8272    3.9690   -0.9008 H   0  0  0  0  0  0  0  0  0  0  0  0
   -2.4277    4.7444   -0.1847 H   0  0  0  0  0  0  0  0  0  0  0  0
   -5.5253    2.8889    0.5510 H   0  0  0  0  0  0  0  0  0  0  0  0
   -6.3426    2.3982    2.8161 H   0  0  0  0  0  0  0  0  0  0  0  0
   -4.8831    2.7620    4.7867 H   0  0  0  0  0  0  0  0  0  0  0  0
   -2.5712    3.6201    4.4759 H   0  0  0  0  0  0  0  0  0  0  0  0
   -1.7206    4.1114    2.2130 H   0  0  0  0  0  0  0  0  0  0  0  0
   -4.4466    2.0368   -1.3851 H   0  0  0  0  0  0  0  0  0  0  0  0
    1.5181    1.2027   -1.8879 H   0  0  0  0  0  0  0  0  0  0  0  0
    0.9764    0.0440    0.9143 H   0  0  0  0  0  0  0  0  0  0  0  0
    2.0318    1.3975    0.5246 H   0  0  0  0  0  0  0  0  0  0  0  0
    6.5507    0.9912    0.4672 H   0  0  0  0  0  0  0  0  0  0  0  0
    6.7303    0.1867   -1.0860 H   0  0  0  0  0  0  0  0  0  0  0  0
    8.0075    0.0473    0.1463 H   0  0  0  0  0  0  0  0  0  0  0  0
    6.7908   -2.3854   -1.1931 H   0  0  0  0  0  0  0  0  0  0  0  0
    7.9611   -2.4795    0.1430 H   0  0  0  0  0  0  0  0  0  0  0  0
    6.4008   -3.3301    0.2356 H   0  0  0  0  0  0  0  0  0  0  0  0
    5.9630   -0.4102    2.5769 H   0  0  0  0  0  0  0  0  0  0  0  0
    5.8190   -2.1534    2.4394 H   0  0  0  0  0  0  0  0  0  0  0  0
    7.4188   -1.3808    2.3636 H   0  0  0  0  0  0  0  0  0  0  0  0
    3.0068   -1.4852   -1.8765 H   0  0  0  0  0  0  0  0  0  0  0  0
    2.8097   -2.5637   -0.4854 H   0  0  0  0  0  0  0  0  0  0  0  0
    0.4347   -2.0629   -0.3309 H   0  0  0  0  0  0  0  0  0  0  0  0
    0.7929   -2.6217   -1.9702 H   0  0  0  0  0  0  0  0  0  0  0  0
  1  2  1  0
  2  3  1  0
  3  4  2  0
  4  5  1  0
  5  6  2  0
  6  7  1  0
  7  8  2  0
  7  9  1  0
  9 10  1  0
 10 11  2  0
 10 12  1  0
  9 13  1  0
 13 14  1  0
 14 15  2  0
 15 16  1  0
 15 17  1  0
 17 18  1  0
 18 19  1  0
 19 20  2  0
 20 21  1  0
 21 22  2  0
 22 23  1  0
 23 24  2  0
 17 25  1  0
 25 26  1  0
 14 27  1  0
 27 28  1  0
 28 29  1  0
 29 30  1  0
 30 31  2  0
 30 32  1  0
 32 33  1  0
 33 34  1  0
 33 35  1  0
 33 36  1  0
 29 37  1  0
 37 38  1  0
 38 39  1  0
  8  3  1  0
  9 39  1  6
 12  6  1  0
 25 13  2  0
 39 27  1  0
 24 19  1  0
  1 40  1  0
  1 41  1  0
  1 42  1  0
  4 43  1  0
  5 44  1  0
  8 45  1  0
 12 46  1  0
 16 47  1  0
 18 48  1  0
 18 49  1  0
 20 50  1  0
 21 51  1  0
 22 52  1  0
 23 53  1  0
 24 54  1  0
 26 55  1  0
 27 56  1  6
 28 57  1  0
 28 58  1  0
 34 59  1  0
 34 60  1  0
 34 61  1  0
 35 62  1  0
 35 63  1  0
 35 64  1  0
 36 65  1  0
 36 66  1  0
 36 67  1  0
 37 68  1  0
 37 69  1  0
 38 70  1  0
 38 71  1  0
M  END
$$$$
