
     RDKit          3D

 46 50  0  0  0  0  0  0  0  0999 V2000
    5.0621   -0.8084    1.2138 O   0  0  0  0  0  0  0  0  0  0  0  0
    5.2932   -0.3197    0.1184 C   0  0  0  0  0  0  0  0  0  0  0  0
    4.3723    0.1158   -0.8146 O   0  0  0  0  0  0  0  0  0  0  0  0
    3.0466   -0.0482   -0.4050 C   0  0  0  0  0  0  0  0  0  0  0  0
    2.2997   -1.0767   -0.9793 C   0  0  0  0  0  0  0  0  0  0  0  0
    0.9618   -1.2316   -0.6156 C   0  0  0  0  0  0  0  0  0  0  0  0
    0.3856   -0.3469    0.3054 C   0  0  0  0  0  0  0  0  0  0  0  0
   -1.0268   -0.4981    0.7044 C   0  0  0  0  0  0  0  0  0  0  0  0
   -1.6965   -1.4373    0.2934 O   0  0  0  0  0  0  0  0  0  0  0  0
   -1.5555    0.5390    1.6336 C   0  0  0  0  0  0  0  0  0  0  0  0
   -2.8705    0.5124    2.0726 O   0  0  0  0  0  0  0  0  0  0  0  0
   -3.8644    0.5019    1.1213 C   0  0  0  0  0  0  0  0  0  0  0  0
   -3.8581    1.3506    0.0148 C   0  0  0  0  0  0  0  0  0  0  0  0
   -4.9249    1.3211   -0.8863 C   0  0  0  0  0  0  0  0  0  0  0  0
   -6.0125    0.4556   -0.6843 C   0  0  0  0  0  0  0  0  0  0  0  0
   -7.0921    0.4151   -1.5813 C   0  0  0  0  0  0  0  0  0  0  0  0
   -8.1675   -0.4483   -1.3652 C   0  0  0  0  0  0  0  0  0  0  0  0
   -8.1777   -1.2816   -0.2505 C   0  0  0  0  0  0  0  0  0  0  0  0
   -7.1126   -1.2537    0.6512 C   0  0  0  0  0  0  0  0  0  0  0  0
   -6.0232   -0.3912    0.4487 C   0  0  0  0  0  0  0  0  0  0  0  0
   -4.9451   -0.3514    1.3469 C   0  0  0  0  0  0  0  0  0  0  0  0
   -0.6982    1.4544    2.1006 C   0  0  0  0  0  0  0  0  0  0  0  0
    0.6267    1.5824    1.7651 O   0  0  0  0  0  0  0  0  0  0  0  0
    1.1410    0.6888    0.8589 C   0  0  0  0  0  0  0  0  0  0  0  0
    2.4782    0.8492    0.4994 C   0  0  0  0  0  0  0  0  0  0  0  0
    6.6675   -0.1145   -0.3924 C   0  0  0  0  0  0  0  0  0  0  0  0
    6.9353    0.4537   -1.6332 C   0  0  0  0  0  0  0  0  0  0  0  0
    8.1867    0.6512   -2.1187 N   0  0  0  0  0  0  0  0  0  0  0  0
    9.2160    0.2626   -1.3281 C   0  0  0  0  0  0  0  0  0  0  0  0
    9.0464   -0.3120   -0.0778 C   0  0  0  0  0  0  0  0  0  0  0  0
   10.5362   -0.8234    0.9575 Br  0  0  0  0  0  0  0  0  0  0  0  0
    7.7537   -0.5042    0.3991 C   0  0  0  0  0  0  0  0  0  0  0  0
    2.7515   -1.7560   -1.6964 H   0  0  0  0  0  0  0  0  0  0  0  0
    0.3703   -2.0370   -1.0468 H   0  0  0  0  0  0  0  0  0  0  0  0
   -3.0406    2.0439   -0.1551 H   0  0  0  0  0  0  0  0  0  0  0  0
   -4.9039    1.9836   -1.7485 H   0  0  0  0  0  0  0  0  0  0  0  0
   -7.1022    1.0574   -2.4589 H   0  0  0  0  0  0  0  0  0  0  0  0
   -8.9957   -0.4705   -2.0685 H   0  0  0  0  0  0  0  0  0  0  0  0
   -9.0132   -1.9559   -0.0821 H   0  0  0  0  0  0  0  0  0  0  0  0
   -7.1366   -1.9146    1.5149 H   0  0  0  0  0  0  0  0  0  0  0  0
   -4.9344   -0.9958    2.2224 H   0  0  0  0  0  0  0  0  0  0  0  0
   -0.9846    2.2209    2.8090 H   0  0  0  0  0  0  0  0  0  0  0  0
    3.0681    1.6539    0.9268 H   0  0  0  0  0  0  0  0  0  0  0  0
    6.1464    0.7821   -2.3049 H   0  0  0  0  0  0  0  0  0  0  0  0
   10.2042    0.4343   -1.7465 H   0  0  0  0  0  0  0  0  0  0  0  0
    7.5870   -0.9528    1.3761 H   0  0  0  0  0  0  0  0  0  0  0  0
  1  2  2  0
  2  3  1  0
  3  4  1  0
  4  5  2  0
  5  6  1  0
  6  7  2  0
  7  8  1  0
  8  9  2  0
  8 10  1  0
 10 11  1  0
 11 12  1  0
 12 13  2  0
 13 14  1  0
 14 15  2  0
 15 16  1  0
 16 17  2  0
 17 18  1  0
 18 19  2  0
 19 20  1  0
 20 21  2  0
 10 22  2  0
 22 23  1  0
 23 24  1  0
 24 25  2  0
  2 26  1  0
 26 27  2  0
 27 28  1  0
 28 29  2  0
 29 30  1  0
 30 31  1  0
 30 32  2  0
 25  4  1  0
 32 26  1  0
 24  7  1  0
 21 12  1  0
 20 15  1  0
  5 33  1  0
  6 34  1  0
 13 35  1  0
 14 36  1  0
 16 37  1  0
 17 38  1  0
 18 39  1  0
 19 40  1  0
 21 41  1  0
 22 42  1  0
 25 43  1  0
 27 44  1  0
 29 45  1  0
 32 46  1  0
M  END
$$$$
