
     RDKit          3D

 42 44  0  0  0  0  0  0  0  0999 V2000
   -5.5230    0.7515    0.4470 C   0  0  0  0  0  0  0  0  0  0  0  0
   -4.9137   -0.4721   -0.1810 C   0  0  0  0  0  0  0  0  0  0  0  0
   -5.4179   -1.7410    0.1423 C   0  0  0  0  0  0  0  0  0  0  0  0
   -4.8686   -2.8871   -0.4283 C   0  0  0  0  0  0  0  0  0  0  0  0
   -3.8116   -2.7750   -1.3259 C   0  0  0  0  0  0  0  0  0  0  0  0
   -3.3007   -1.5174   -1.6576 C   0  0  0  0  0  0  0  0  0  0  0  0
   -3.8471   -0.3607   -1.0927 C   0  0  0  0  0  0  0  0  0  0  0  0
   -3.4131    0.9170   -1.3352 O   0  0  0  0  0  0  0  0  0  0  0  0
   -2.3971    1.1164   -2.3097 C   0  0  0  0  0  0  0  0  0  0  0  0
   -0.9780    0.8180   -1.8183 C   0  0  0  0  0  0  0  0  0  0  0  0
   -0.0626    0.5269   -2.5849 O   0  0  0  0  0  0  0  0  0  0  0  0
   -0.8098    0.9506   -0.4557 N   0  0  0  0  0  0  0  0  0  0  0  0
    0.4352    0.5884    0.1944 C   0  0  0  0  0  0  0  0  0  0  0  0
    1.5367    1.6250   -0.0269 C   0  0  0  0  0  0  0  0  0  0  0  0
    2.8360    1.1394    0.5119 C   0  0  0  0  0  0  0  0  0  0  0  0
    3.2269    1.1625    1.7691 N   0  0  0  0  0  0  0  0  0  0  0  0
    4.4810    0.6011    1.7752 C   0  0  0  0  0  0  0  0  0  0  0  0
    5.3595    0.3773    2.8448 C   0  0  0  0  0  0  0  0  0  0  0  0
    6.5981   -0.2224    2.5827 C   0  0  0  0  0  0  0  0  0  0  0  0
    6.9537   -0.5915    1.2827 C   0  0  0  0  0  0  0  0  0  0  0  0
    6.0896   -0.3761    0.2024 C   0  0  0  0  0  0  0  0  0  0  0  0
    4.8623    0.2234    0.4927 C   0  0  0  0  0  0  0  0  0  0  0  0
    3.7967    0.5770   -0.2936 N   0  0  0  0  0  0  0  0  0  0  0  0
   -5.9457    1.4026   -0.3250 H   0  0  0  0  0  0  0  0  0  0  0  0
   -6.3302    0.4892    1.1391 H   0  0  0  0  0  0  0  0  0  0  0  0
   -4.7666    1.3028    1.0149 H   0  0  0  0  0  0  0  0  0  0  0  0
   -6.2439   -1.8432    0.8428 H   0  0  0  0  0  0  0  0  0  0  0  0
   -5.2646   -3.8663   -0.1717 H   0  0  0  0  0  0  0  0  0  0  0  0
   -3.3803   -3.6690   -1.7696 H   0  0  0  0  0  0  0  0  0  0  0  0
   -2.4718   -1.4866   -2.3573 H   0  0  0  0  0  0  0  0  0  0  0  0
   -2.4150    2.1800   -2.5742 H   0  0  0  0  0  0  0  0  0  0  0  0
   -2.6071    0.5608   -3.2308 H   0  0  0  0  0  0  0  0  0  0  0  0
   -1.6564    0.9959    0.1048 H   0  0  0  0  0  0  0  0  0  0  0  0
    0.7412   -0.3936   -0.1866 H   0  0  0  0  0  0  0  0  0  0  0  0
    0.2234    0.4776    1.2640 H   0  0  0  0  0  0  0  0  0  0  0  0
    1.6431    1.8627   -1.0917 H   0  0  0  0  0  0  0  0  0  0  0  0
    1.2636    2.5641    0.4696 H   0  0  0  0  0  0  0  0  0  0  0  0
    5.0759    0.6667    3.8502 H   0  0  0  0  0  0  0  0  0  0  0  0
    7.2890   -0.4012    3.4032 H   0  0  0  0  0  0  0  0  0  0  0  0
    7.9221   -1.0555    1.1061 H   0  0  0  0  0  0  0  0  0  0  0  0
    6.3664   -0.6624   -0.8061 H   0  0  0  0  0  0  0  0  0  0  0  0
    3.7243    0.4442   -1.2925 H   0  0  0  0  0  0  0  0  0  0  0  0
  1  2  1  0
  2  3  2  0
  3  4  1  0
  4  5  2  0
  5  6  1  0
  6  7  2  0
  7  8  1  0
  8  9  1  0
  9 10  1  0
 10 11  2  0
 10 12  1  0
 12 13  1  0
 13 14  1  0
 14 15  1  0
 15 16  2  0
 16 17  1  0
 17 18  2  0
 18 19  1  0
 19 20  2  0
 20 21  1  0
 21 22  2  0
 22 23  1  0
  7  2  1  0
 23 15  1  0
 22 17  1  0
  1 24  1  0
  1 25  1  0
  1 26  1  0
  3 27  1  0
  4 28  1  0
  5 29  1  0
  6 30  1  0
  9 31  1  0
  9 32  1  0
 12 33  1  0
 13 34  1  0
 13 35  1  0
 14 36  1  0
 14 37  1  0
 18 38  1  0
 19 39  1  0
 20 40  1  0
 21 41  1  0
 23 42  1  0
M  END
$$$$
