
     RDKit          3D

 36 37  0  0  0  0  0  0  0  0999 V2000
    5.3776    1.7004    1.9167 C   0  0  0  0  0  0  0  0  0  0  0  0
    5.0394    0.3192    1.9066 O   0  0  0  0  0  0  0  0  0  0  0  0
    3.8975   -0.0342    1.2421 C   0  0  0  0  0  0  0  0  0  0  0  0
    3.6196   -1.4056    1.2525 C   0  0  0  0  0  0  0  0  0  0  0  0
    2.4850   -1.9099    0.6136 C   0  0  0  0  0  0  0  0  0  0  0  0
    1.6162   -1.0281   -0.0314 C   0  0  0  0  0  0  0  0  0  0  0  0
    0.1874   -1.6594   -0.8815 S   0  0  0  0  0  6  0  0  0  0  0  0
   -0.1352   -0.7381   -1.9519 O   0  0  0  0  0  0  0  0  0  0  0  0
    0.4081   -3.0689   -1.1316 O   0  0  0  0  0  0  0  0  0  0  0  0
   -1.0270   -1.5606    0.3272 N   0  0  0  0  0  0  0  0  0  0  0  0
   -1.2355   -0.2553    1.0111 N   0  0  0  0  0  0  0  0  0  0  0  0
   -2.1755    0.4988    0.5198 C   0  0  0  0  0  0  0  0  0  0  0  0
   -2.3510    1.8779    1.1082 C   0  0  0  0  0  0  0  0  0  0  0  0
   -3.1046    0.1204   -0.5667 C   0  0  0  0  0  0  0  0  0  0  0  0
   -3.0941    0.8291   -1.7637 C   0  0  0  0  0  0  0  0  0  0  0  0
   -4.0016    0.4486   -2.7342 C   0  0  0  0  0  0  0  0  0  0  0  0
   -4.8981   -0.5505   -2.5740 N   0  0  0  0  0  0  0  0  0  0  0  0
   -4.8724   -1.2200   -1.4007 C   0  0  0  0  0  0  0  0  0  0  0  0
   -4.0021   -0.9250   -0.3689 C   0  0  0  0  0  0  0  0  0  0  0  0
    1.8911    0.3418   -0.0633 C   0  0  0  0  0  0  0  0  0  0  0  0
    3.0300    0.8377    0.5798 C   0  0  0  0  0  0  0  0  0  0  0  0
    5.5561    2.0707    0.9018 H   0  0  0  0  0  0  0  0  0  0  0  0
    6.3088    1.8124    2.4804 H   0  0  0  0  0  0  0  0  0  0  0  0
    4.6080    2.2913    2.4244 H   0  0  0  0  0  0  0  0  0  0  0  0
    4.2997   -2.0867    1.7597 H   0  0  0  0  0  0  0  0  0  0  0  0
    2.2959   -2.9805    0.6218 H   0  0  0  0  0  0  0  0  0  0  0  0
   -0.9572   -2.3772    0.9406 H   0  0  0  0  0  0  0  0  0  0  0  0
   -2.4060    1.8023    2.1983 H   0  0  0  0  0  0  0  0  0  0  0  0
   -1.4890    2.4946    0.8378 H   0  0  0  0  0  0  0  0  0  0  0  0
   -3.2635    2.3594    0.7466 H   0  0  0  0  0  0  0  0  0  0  0  0
   -2.3881    1.6291   -1.9507 H   0  0  0  0  0  0  0  0  0  0  0  0
   -4.0342    0.9486   -3.6982 H   0  0  0  0  0  0  0  0  0  0  0  0
   -5.5962   -2.0252   -1.3123 H   0  0  0  0  0  0  0  0  0  0  0  0
   -4.0228   -1.4902    0.5550 H   0  0  0  0  0  0  0  0  0  0  0  0
    1.2223    1.0265   -0.5799 H   0  0  0  0  0  0  0  0  0  0  0  0
    3.2113    1.9067    0.5427 H   0  0  0  0  0  0  0  0  0  0  0  0
  1  2  1  0
  2  3  1  0
  3  4  2  0
  4  5  1  0
  5  6  2  0
  6  7  1  0
  7  8  2  0
  7  9  2  0
  7 10  1  0
 10 11  1  0
 11 12  2  3
 12 13  1  0
 12 14  1  0
 14 15  2  0
 15 16  1  0
 16 17  2  0
 17 18  1  0
 18 19  2  0
  6 20  1  0
 20 21  2  0
 21  3  1  0
 19 14  1  0
  1 22  1  0
  1 23  1  0
  1 24  1  0
  4 25  1  0
  5 26  1  0
 10 27  1  0
 13 28  1  0
 13 29  1  0
 13 30  1  0
 15 31  1  0
 16 32  1  0
 18 33  1  0
 19 34  1  0
 20 35  1  0
 21 36  1  0
M  END
$$$$
