
     RDKit          3D

 49 52  0  0  0  0  0  0  0  0999 V2000
   -8.0326   -1.0910   -2.4527 C   0  0  0  0  0  0  0  0  0  0  0  0
   -7.1303   -1.8835   -1.6918 O   0  0  0  0  0  0  0  0  0  0  0  0
   -6.4495   -1.2533   -0.6868 C   0  0  0  0  0  0  0  0  0  0  0  0
   -6.5443    0.0974   -0.3516 C   0  0  0  0  0  0  0  0  0  0  0  0
   -5.7864    0.6165    0.7050 C   0  0  0  0  0  0  0  0  0  0  0  0
   -4.9297   -0.2097    1.4441 C   0  0  0  0  0  0  0  0  0  0  0  0
   -4.0934    0.3484    2.5660 C   0  0  0  0  0  0  0  0  0  0  0  0
   -2.7607    0.6496    2.1051 N   0  0  0  0  0  0  0  0  0  0  0  0
   -1.6898   -0.1860    2.3377 C   0  0  0  0  0  0  0  0  0  0  0  0
   -1.7863   -1.1724    3.0649 O   0  0  0  0  0  0  0  0  0  0  0  0
   -0.4473    0.1743    1.6639 C   0  0  0  0  0  0  0  0  0  0  0  0
    0.7733   -0.4906    1.7643 C   0  0  0  0  0  0  0  0  0  0  0  0
    1.7589    0.1323    0.9728 C   0  0  0  0  0  0  0  0  0  0  0  0
    1.2726    1.2174    0.3130 C   0  0  0  0  0  0  0  0  0  0  0  0
   -0.3375    1.5394    0.5956 S   0  0  0  0  0  0  0  0  0  0  0  0
    2.3008    1.8704   -0.5160 C   0  0  0  0  0  0  0  0  0  0  0  0
    3.5500    1.2074   -0.0372 N   0  0  0  0  0  0  0  0  0  0  0  0
    4.5221    1.0243   -1.1134 C   0  0  0  0  0  0  0  0  0  0  0  0
    5.8650    0.5291   -0.6204 C   0  0  0  0  0  0  0  0  0  0  0  0
    6.5974    1.2724    0.3176 C   0  0  0  0  0  0  0  0  0  0  0  0
    7.8388    0.8215    0.7682 C   0  0  0  0  0  0  0  0  0  0  0  0
    8.3633   -0.3751    0.2839 C   0  0  0  0  0  0  0  0  0  0  0  0
    7.6474   -1.1214   -0.6505 C   0  0  0  0  0  0  0  0  0  0  0  0
    6.4049   -0.6721   -1.1020 C   0  0  0  0  0  0  0  0  0  0  0  0
    3.1905   -0.0739    0.6513 C   0  0  0  0  0  0  0  0  0  0  0  0
   -4.8325   -1.5626    1.0968 C   0  0  0  0  0  0  0  0  0  0  0  0
   -5.5892   -2.0771    0.0416 C   0  0  0  0  0  0  0  0  0  0  0  0
   -7.5043   -0.2935   -2.9857 H   0  0  0  0  0  0  0  0  0  0  0  0
   -8.8304   -0.6848   -1.8221 H   0  0  0  0  0  0  0  0  0  0  0  0
   -8.4979   -1.7396   -3.2011 H   0  0  0  0  0  0  0  0  0  0  0  0
   -7.1961    0.7754   -0.8920 H   0  0  0  0  0  0  0  0  0  0  0  0
   -5.8729    1.6737    0.9463 H   0  0  0  0  0  0  0  0  0  0  0  0
   -4.5277    1.2836    2.9363 H   0  0  0  0  0  0  0  0  0  0  0  0
   -4.0710   -0.3526    3.4078 H   0  0  0  0  0  0  0  0  0  0  0  0
   -2.6452    1.3726    1.4082 H   0  0  0  0  0  0  0  0  0  0  0  0
    0.9178   -1.3707    2.3803 H   0  0  0  0  0  0  0  0  0  0  0  0
    2.1072    1.6712   -1.5766 H   0  0  0  0  0  0  0  0  0  0  0  0
    2.3588    2.9492   -0.3451 H   0  0  0  0  0  0  0  0  0  0  0  0
    4.1259    0.3454   -1.8801 H   0  0  0  0  0  0  0  0  0  0  0  0
    4.7015    1.9844   -1.6154 H   0  0  0  0  0  0  0  0  0  0  0  0
    6.1924    2.2046    0.7067 H   0  0  0  0  0  0  0  0  0  0  0  0
    8.3941    1.4035    1.4988 H   0  0  0  0  0  0  0  0  0  0  0  0
    9.3297   -0.7263    0.6356 H   0  0  0  0  0  0  0  0  0  0  0  0
    8.0574   -2.0546   -1.0278 H   0  0  0  0  0  0  0  0  0  0  0  0
    5.8612   -1.2680   -1.8314 H   0  0  0  0  0  0  0  0  0  0  0  0
    3.7977   -0.2079    1.5512 H   0  0  0  0  0  0  0  0  0  0  0  0
    3.2938   -0.9443   -0.0070 H   0  0  0  0  0  0  0  0  0  0  0  0
   -4.1626   -2.2229    1.6455 H   0  0  0  0  0  0  0  0  0  0  0  0
   -5.5048   -3.1302   -0.2155 H   0  0  0  0  0  0  0  0  0  0  0  0
  1  2  1  0
  2  3  1  0
  3  4  2  0
  4  5  1  0
  5  6  2  0
  6  7  1  0
  7  8  1  0
  8  9  1  0
  9 10  2  0
  9 11  1  0
 11 12  2  0
 12 13  1  0
 13 14  2  0
 14 15  1  0
 14 16  1  0
 16 17  1  0
 17 18  1  0
 18 19  1  0
 19 20  2  0
 20 21  1  0
 21 22  2  0
 22 23  1  0
 23 24  2  0
 17 25  1  0
  6 26  1  0
 26 27  2  0
 27  3  1  0
 15 11  1  0
 24 19  1  0
 25 13  1  0
  1 28  1  0
  1 29  1  0
  1 30  1  0
  4 31  1  0
  5 32  1  0
  7 33  1  0
  7 34  1  0
  8 35  1  0
 12 36  1  0
 16 37  1  0
 16 38  1  0
 18 39  1  0
 18 40  1  0
 20 41  1  0
 21 42  1  0
 22 43  1  0
 23 44  1  0
 24 45  1  0
 25 46  1  0
 25 47  1  0
 26 48  1  0
 27 49  1  0
M  END
$$$$
