
     RDKit          3D

 29 31  0  0  0  0  0  0  0  0999 V2000
   -0.6861   -0.4466   -0.3225 O   0  0  0  0  0  0  0  0  0  0  0  0
   -0.5297    0.6108    0.2738 C   0  0  0  0  0  0  0  0  0  0  0  0
   -1.6602    1.5357    0.5884 C   0  0  0  0  0  0  0  0  0  0  0  0
   -2.9825    1.3747    0.4347 C   0  0  0  0  0  0  0  0  0  0  0  0
   -3.6629    0.2163   -0.0265 C   0  0  0  0  0  0  0  0  0  0  0  0
   -3.4446   -1.1419    0.1782 C   0  0  0  0  0  0  0  0  0  0  0  0
   -4.4648   -1.8607   -0.4900 C   0  0  0  0  0  0  0  0  0  0  0  0
   -5.2785   -0.9141   -1.0530 C   0  0  0  0  0  0  0  0  0  0  0  0
   -4.8214    0.3280   -0.7692 O   0  0  0  0  0  0  0  0  0  0  0  0
   -1.0260    3.0216    1.2011 S   0  0  0  0  0  0  0  0  0  0  0  0
    0.6242    2.4139    1.2757 C   0  0  0  0  0  0  0  0  0  0  0  0
    1.7948    3.3080    2.0728 S   0  0  0  0  0  0  0  0  0  0  0  0
    0.6897    1.1570    0.6884 N   0  0  0  0  0  0  0  0  0  0  0  0
    1.9037    0.4175    0.4809 C   0  0  0  0  0  0  0  0  0  0  0  0
    1.9363   -0.9727    0.6823 C   0  0  0  0  0  0  0  0  0  0  0  0
    3.1113   -1.7045    0.4838 C   0  0  0  0  0  0  0  0  0  0  0  0
    4.2650   -1.0564    0.0700 C   0  0  0  0  0  0  0  0  0  0  0  0
    5.3876   -1.8062   -0.1098 O   0  0  0  0  0  0  0  0  0  0  0  0
    4.2607    0.3127   -0.1580 C   0  0  0  0  0  0  0  0  0  0  0  0
    3.0826    1.0428    0.0423 C   0  0  0  0  0  0  0  0  0  0  0  0
   -3.6412    2.2121    0.6575 H   0  0  0  0  0  0  0  0  0  0  0  0
   -2.6339   -1.5741    0.7483 H   0  0  0  0  0  0  0  0  0  0  0  0
   -4.5897   -2.9325   -0.5463 H   0  0  0  0  0  0  0  0  0  0  0  0
   -6.1787   -0.9570   -1.6498 H   0  0  0  0  0  0  0  0  0  0  0  0
    1.0550   -1.5140    1.0191 H   0  0  0  0  0  0  0  0  0  0  0  0
    3.1207   -2.7779    0.6526 H   0  0  0  0  0  0  0  0  0  0  0  0
    6.1106   -1.2244   -0.3963 H   0  0  0  0  0  0  0  0  0  0  0  0
    5.1525    0.8295   -0.4993 H   0  0  0  0  0  0  0  0  0  0  0  0
    3.1052    2.1027   -0.1971 H   0  0  0  0  0  0  0  0  0  0  0  0
  1  2  2  0
  2  3  1  0
  3  4  2  3
  4  5  1  0
  5  6  2  0
  6  7  1  0
  7  8  2  0
  8  9  1  0
  3 10  1  0
 10 11  1  0
 11 12  2  0
 11 13  1  0
 13 14  1  0
 14 15  2  0
 15 16  1  0
 16 17  2  0
 17 18  1  0
 17 19  1  0
 19 20  2  0
 13  2  1  0
 20 14  1  0
  9  5  1  0
  4 21  1  0
  6 22  1  0
  7 23  1  0
  8 24  1  0
 15 25  1  0
 16 26  1  0
 18 27  1  0
 19 28  1  0
 20 29  1  0
M  END
$$$$
