
     RDKit          3D

 46 47  0  0  0  0  0  0  0  0999 V2000
    7.2946   -0.7038   -0.1720 O   0  0  0  0  0  0  0  0  0  0  0  0
    7.5540   -0.6519    1.0185 C   0  0  0  0  0  0  0  0  0  0  0  0
    8.6386    0.0100    1.4620 O   0  0  0  0  0  0  0  0  0  0  0  0
    6.7976   -1.3218    2.1322 C   0  0  0  0  0  0  0  0  0  0  0  0
    5.4150   -1.7526    1.6541 C   0  0  0  0  0  0  0  0  0  0  0  0
    4.4943   -0.5574    1.4515 C   0  0  0  0  0  0  0  0  0  0  0  0
    4.6807    0.4999    2.0426 O   0  0  0  0  0  0  0  0  0  0  0  0
    3.4494   -0.8462    0.5907 N   0  0  0  0  0  0  0  0  0  0  0  0
    2.3854    0.0013    0.2181 C   0  0  0  0  0  0  0  0  0  0  0  0
    2.1802    1.2779    0.7488 C   0  0  0  0  0  0  0  0  0  0  0  0
    1.0932    2.0558    0.3350 C   0  0  0  0  0  0  0  0  0  0  0  0
    0.2015    1.5512   -0.6113 C   0  0  0  0  0  0  0  0  0  0  0  0
   -1.1632    2.5493   -1.1498 S   0  0  0  0  0  6  0  0  0  0  0  0
   -1.6541    2.0242   -2.4047 O   0  0  0  0  0  0  0  0  0  0  0  0
   -0.7884    3.9375   -0.9975 O   0  0  0  0  0  0  0  0  0  0  0  0
   -2.3050    2.2412    0.0337 N   0  0  0  0  0  0  0  0  0  0  0  0
   -3.1218    1.0283   -0.0299 C   0  0  0  0  0  0  0  0  0  0  0  0
   -4.4566    1.3205   -0.7164 C   0  0  0  0  0  0  0  0  0  0  0  0
   -5.2480    0.0589   -0.9509 C   0  0  0  0  0  0  0  0  0  0  0  0
   -6.0301   -0.4966    0.0706 C   0  0  0  0  0  0  0  0  0  0  0  0
   -6.7437   -1.6757   -0.1499 C   0  0  0  0  0  0  0  0  0  0  0  0
   -6.6817   -2.3088   -1.3899 C   0  0  0  0  0  0  0  0  0  0  0  0
   -5.9015   -1.7673   -2.4098 C   0  0  0  0  0  0  0  0  0  0  0  0
   -5.1847   -0.5906   -2.1914 C   0  0  0  0  0  0  0  0  0  0  0  0
    0.4009    0.2856   -1.1642 C   0  0  0  0  0  0  0  0  0  0  0  0
    1.4865   -0.4871   -0.7411 C   0  0  0  0  0  0  0  0  0  0  0  0
    9.0202    0.4181    0.6574 H   0  0  0  0  0  0  0  0  0  0  0  0
    7.3700   -2.2027    2.4412 H   0  0  0  0  0  0  0  0  0  0  0  0
    6.7241   -0.6352    2.9817 H   0  0  0  0  0  0  0  0  0  0  0  0
    5.4891   -2.3341    0.7279 H   0  0  0  0  0  0  0  0  0  0  0  0
    4.9501   -2.3913    2.4146 H   0  0  0  0  0  0  0  0  0  0  0  0
    3.4747   -1.7490    0.1333 H   0  0  0  0  0  0  0  0  0  0  0  0
    2.8500    1.7029    1.4903 H   0  0  0  0  0  0  0  0  0  0  0  0
    0.9561    3.0495    0.7555 H   0  0  0  0  0  0  0  0  0  0  0  0
   -2.6387    3.0607    0.5378 H   0  0  0  0  0  0  0  0  0  0  0  0
   -2.5816    0.2226   -0.5390 H   0  0  0  0  0  0  0  0  0  0  0  0
   -3.2934    0.6810    0.9962 H   0  0  0  0  0  0  0  0  0  0  0  0
   -4.2989    1.8360   -1.6715 H   0  0  0  0  0  0  0  0  0  0  0  0
   -5.0483    2.0153   -0.1067 H   0  0  0  0  0  0  0  0  0  0  0  0
   -6.0907   -0.0147    1.0443 H   0  0  0  0  0  0  0  0  0  0  0  0
   -7.3521   -2.0983    0.6451 H   0  0  0  0  0  0  0  0  0  0  0  0
   -7.2402   -3.2244   -1.5624 H   0  0  0  0  0  0  0  0  0  0  0  0
   -5.8509   -2.2610   -3.3769 H   0  0  0  0  0  0  0  0  0  0  0  0
   -4.5771   -0.1805   -2.9961 H   0  0  0  0  0  0  0  0  0  0  0  0
   -0.2772   -0.1045   -1.9196 H   0  0  0  0  0  0  0  0  0  0  0  0
    1.6217   -1.4720   -1.1816 H   0  0  0  0  0  0  0  0  0  0  0  0
  1  2  2  0
  2  3  1  0
  2  4  1  0
  4  5  1  0
  5  6  1  0
  6  7  2  0
  6  8  1  0
  8  9  1  0
  9 10  2  0
 10 11  1  0
 11 12  2  0
 12 13  1  0
 13 14  2  0
 13 15  2  0
 13 16  1  0
 16 17  1  0
 17 18  1  0
 18 19  1  0
 19 20  2  0
 20 21  1  0
 21 22  2  0
 22 23  1  0
 23 24  2  0
 12 25  1  0
 25 26  2  0
 26  9  1  0
 24 19  1  0
  3 27  1  0
  4 28  1  0
  4 29  1  0
  5 30  1  0
  5 31  1  0
  8 32  1  0
 10 33  1  0
 11 34  1  0
 16 35  1  0
 17 36  1  0
 17 37  1  0
 18 38  1  0
 18 39  1  0
 20 40  1  0
 21 41  1  0
 22 42  1  0
 23 43  1  0
 24 44  1  0
 25 45  1  0
 26 46  1  0
M  END
$$$$
