
     RDKit          3D

 48 49  0  0  0  0  0  0  0  0999 V2000
   -5.1897   -2.6294   -2.1995 C   0  0  0  0  0  0  0  0  0  0  0  0
   -4.1575   -1.6552   -1.7153 C   0  0  0  0  0  0  0  0  0  0  0  0
   -4.0289   -1.3786   -0.3501 C   0  0  0  0  0  0  0  0  0  0  0  0
   -3.0876   -0.4499    0.1003 C   0  0  0  0  0  0  0  0  0  0  0  0
   -2.2639    0.2256   -0.8088 C   0  0  0  0  0  0  0  0  0  0  0  0
   -1.2387    1.2234   -0.3231 C   0  0  0  0  0  0  0  0  0  0  0  0
   -0.0392    0.5733    0.3824 C   0  0  0  0  0  0  0  0  0  0  0  0
    0.7453   -0.2663   -0.5200 N   0  0  0  0  0  0  0  0  0  0  0  0
    1.4707   -1.3248   -0.0122 C   0  0  0  0  0  0  0  0  0  0  0  0
    1.4106   -1.6817    1.1592 O   0  0  0  0  0  0  0  0  0  0  0  0
    2.3901   -2.0054   -0.9651 C   0  0  0  0  0  0  0  0  0  0  0  0
    3.5175   -2.6607   -0.4554 C   0  0  0  0  0  0  0  0  0  0  0  0
    4.4007   -3.3108   -1.3190 C   0  0  0  0  0  0  0  0  0  0  0  0
    4.1556   -3.3166   -2.6919 C   0  0  0  0  0  0  0  0  0  0  0  0
    3.0249   -2.6797   -3.2039 C   0  0  0  0  0  0  0  0  0  0  0  0
    2.1391   -2.0269   -2.3435 C   0  0  0  0  0  0  0  0  0  0  0  0
    0.8789    1.6978    0.8943 C   0  0  0  0  0  0  0  0  0  0  0  0
    1.7892    2.1693    0.2134 O   0  0  0  0  0  0  0  0  0  0  0  0
    0.5453    2.1892    2.1364 N   0  0  0  0  0  0  0  0  0  0  0  0
    1.3610    3.2066    2.8003 C   0  0  0  0  0  0  0  0  0  0  0  0
    1.0241    4.5994    2.2854 C   0  0  0  0  0  0  0  0  0  0  0  0
    1.1021    3.1174    4.3019 C   0  0  0  0  0  0  0  0  0  0  0  0
    0.2529    2.4211    4.8408 O   0  0  0  0  0  0  0  0  0  0  0  0
    1.9239    3.8890    5.0389 O   0  0  0  0  0  0  0  0  0  0  0  0
   -2.4044   -0.0409   -2.1764 C   0  0  0  0  0  0  0  0  0  0  0  0
   -3.3469   -0.9690   -2.6256 C   0  0  0  0  0  0  0  0  0  0  0  0
   -6.1348   -2.1107   -2.3874 H   0  0  0  0  0  0  0  0  0  0  0  0
   -5.3598   -3.4185   -1.4595 H   0  0  0  0  0  0  0  0  0  0  0  0
   -4.8634   -3.1170   -3.1242 H   0  0  0  0  0  0  0  0  0  0  0  0
   -4.6596   -1.8887    0.3746 H   0  0  0  0  0  0  0  0  0  0  0  0
   -3.0044   -0.2610    1.1680 H   0  0  0  0  0  0  0  0  0  0  0  0
   -0.8897    1.8327   -1.1681 H   0  0  0  0  0  0  0  0  0  0  0  0
   -1.7407    1.9276    0.3539 H   0  0  0  0  0  0  0  0  0  0  0  0
   -0.3734   -0.0301    1.2345 H   0  0  0  0  0  0  0  0  0  0  0  0
    1.1454    0.2076   -1.3209 H   0  0  0  0  0  0  0  0  0  0  0  0
    3.7102   -2.6626    0.6155 H   0  0  0  0  0  0  0  0  0  0  0  0
    5.2771   -3.8148   -0.9193 H   0  0  0  0  0  0  0  0  0  0  0  0
    4.8427   -3.8263   -3.3631 H   0  0  0  0  0  0  0  0  0  0  0  0
    2.8288   -2.6999   -4.2731 H   0  0  0  0  0  0  0  0  0  0  0  0
    1.2470   -1.5646   -2.7568 H   0  0  0  0  0  0  0  0  0  0  0  0
   -0.0520    1.6273    2.7388 H   0  0  0  0  0  0  0  0  0  0  0  0
    2.4152    2.9671    2.6199 H   0  0  0  0  0  0  0  0  0  0  0  0
    1.1901    4.6761    1.2060 H   0  0  0  0  0  0  0  0  0  0  0  0
   -0.0261    4.8473    2.4781 H   0  0  0  0  0  0  0  0  0  0  0  0
    1.6391    5.3610    2.7762 H   0  0  0  0  0  0  0  0  0  0  0  0
    1.6578    3.7141    5.9663 H   0  0  0  0  0  0  0  0  0  0  0  0
   -1.7818    0.4725   -2.9052 H   0  0  0  0  0  0  0  0  0  0  0  0
   -3.4425   -1.1550   -3.6929 H   0  0  0  0  0  0  0  0  0  0  0  0
  1  2  1  0
  2  3  2  0
  3  4  1  0
  4  5  2  0
  5  6  1  0
  6  7  1  0
  7  8  1  0
  8  9  1  0
  9 10  2  0
  9 11  1  0
 11 12  2  0
 12 13  1  0
 13 14  2  0
 14 15  1  0
 15 16  2  0
  7 17  1  0
 17 18  2  0
 17 19  1  0
 19 20  1  0
 20 21  1  0
 20 22  1  0
 22 23  2  0
 22 24  1  0
  5 25  1  0
 25 26  2  0
 26  2  1  0
 16 11  1  0
  1 27  1  0
  1 28  1  0
  1 29  1  0
  3 30  1  0
  4 31  1  0
  6 32  1  0
  6 33  1  0
  7 34  1  0
  8 35  1  0
 12 36  1  0
 13 37  1  0
 14 38  1  0
 15 39  1  0
 16 40  1  0
 19 41  1  0
 20 42  1  0
 21 43  1  0
 21 44  1  0
 21 45  1  0
 24 46  1  0
 25 47  1  0
 26 48  1  0
M  END
$$$$
