
     RDKit          3D

 52 55  0  0  0  0  0  0  0  0999 V2000
    7.7971    1.4128    0.3616 C   0  0  0  0  0  0  0  0  0  0  0  0
    6.3297    1.0980    0.4262 C   0  0  0  0  0  0  0  0  0  0  0  0
    5.4007    2.1230    0.6571 C   0  0  0  0  0  0  0  0  0  0  0  0
    4.0301    1.8587    0.7565 C   0  0  0  0  0  0  0  0  0  0  0  0
    3.6413    0.5289    0.6238 C   0  0  0  0  0  0  0  0  0  0  0  0
    2.3638    0.0753    0.6954 O   0  0  0  0  0  0  0  0  0  0  0  0
    2.3945   -1.2816    0.5066 C   0  0  0  0  0  0  0  0  0  0  0  0
    1.1588   -2.0485    0.5844 C   0  0  0  0  0  0  0  0  0  0  0  0
    1.1635   -3.2258    0.9503 O   0  0  0  0  0  0  0  0  0  0  0  0
   -0.0504   -1.4034    0.2628 N   0  0  0  0  0  0  0  0  0  0  0  0
   -0.1344   -0.4414   -0.8348 C   0  0  0  0  0  0  0  0  0  0  0  0
   -1.2777    0.5435   -0.6113 C   0  0  0  0  0  0  0  0  0  0  0  0
   -2.6224   -0.1824   -0.4078 C   0  0  0  0  0  0  0  0  0  0  0  0
   -2.9084   -0.8800   -1.6318 O   0  0  0  0  0  0  0  0  0  0  0  0
   -3.8160    0.7385   -0.1271 C   0  0  0  0  0  0  0  0  0  0  0  0
   -3.6821    2.1060    0.1549 C   0  0  0  0  0  0  0  0  0  0  0  0
   -4.8024    2.9050    0.4011 C   0  0  0  0  0  0  0  0  0  0  0  0
   -6.0813    2.3537    0.3733 C   0  0  0  0  0  0  0  0  0  0  0  0
   -6.2556    0.9917    0.1049 C   0  0  0  0  0  0  0  0  0  0  0  0
   -7.6360    0.3844    0.0504 C   0  0  0  0  0  0  0  0  0  0  0  0
   -8.1165    0.3094   -1.2215 F   0  0  0  0  0  0  0  0  0  0  0  0
   -8.5629    1.0878    0.7593 F   0  0  0  0  0  0  0  0  0  0  0  0
   -7.6785   -0.8853    0.5422 F   0  0  0  0  0  0  0  0  0  0  0  0
   -5.1211    0.2015   -0.1498 C   0  0  0  0  0  0  0  0  0  0  0  0
   -2.4729   -1.2225    0.7185 C   0  0  0  0  0  0  0  0  0  0  0  0
   -1.2806   -2.1501    0.4970 C   0  0  0  0  0  0  0  0  0  0  0  0
    3.7112   -1.7019    0.3455 C   0  0  0  0  0  0  0  0  0  0  0  0
    4.1726   -3.1010    0.1562 C   0  0  0  0  0  0  0  0  0  0  0  0
    4.5174   -0.5240    0.4065 C   0  0  0  0  0  0  0  0  0  0  0  0
    5.8934   -0.2364    0.3139 C   0  0  0  0  0  0  0  0  0  0  0  0
    7.9638    2.4118   -0.0548 H   0  0  0  0  0  0  0  0  0  0  0  0
    8.3215    0.7007   -0.2842 H   0  0  0  0  0  0  0  0  0  0  0  0
    8.2329    1.3691    1.3645 H   0  0  0  0  0  0  0  0  0  0  0  0
    5.7428    3.1511    0.7651 H   0  0  0  0  0  0  0  0  0  0  0  0
    3.3054    2.6432    0.9348 H   0  0  0  0  0  0  0  0  0  0  0  0
   -0.2847   -1.0144   -1.7586 H   0  0  0  0  0  0  0  0  0  0  0  0
    0.7957    0.1090   -0.9792 H   0  0  0  0  0  0  0  0  0  0  0  0
   -1.0331    1.1510    0.2691 H   0  0  0  0  0  0  0  0  0  0  0  0
   -1.3321    1.2140   -1.4781 H   0  0  0  0  0  0  0  0  0  0  0  0
   -3.3582   -0.2532   -2.2263 H   0  0  0  0  0  0  0  0  0  0  0  0
   -2.7078    2.5864    0.1926 H   0  0  0  0  0  0  0  0  0  0  0  0
   -4.6741    3.9637    0.6167 H   0  0  0  0  0  0  0  0  0  0  0  0
   -6.9426    2.9918    0.5656 H   0  0  0  0  0  0  0  0  0  0  0  0
   -5.2588   -0.8587   -0.3721 H   0  0  0  0  0  0  0  0  0  0  0  0
   -3.3705   -1.8475    0.8002 H   0  0  0  0  0  0  0  0  0  0  0  0
   -2.3506   -0.7061    1.6801 H   0  0  0  0  0  0  0  0  0  0  0  0
   -1.1648   -2.7923    1.3777 H   0  0  0  0  0  0  0  0  0  0  0  0
   -1.4458   -2.8087   -0.3643 H   0  0  0  0  0  0  0  0  0  0  0  0
    5.2193   -3.1389   -0.1606 H   0  0  0  0  0  0  0  0  0  0  0  0
    3.5766   -3.6055   -0.6113 H   0  0  0  0  0  0  0  0  0  0  0  0
    4.0814   -3.6614    1.0921 H   0  0  0  0  0  0  0  0  0  0  0  0
    6.6087   -1.0389    0.1572 H   0  0  0  0  0  0  0  0  0  0  0  0
  1  2  1  0
  2  3  2  0
  3  4  1  0
  4  5  2  0
  5  6  1  0
  6  7  1  0
  7  8  1  0
  8  9  2  0
  8 10  1  0
 10 11  1  0
 11 12  1  0
 12 13  1  0
 13 14  1  0
 13 15  1  0
 15 16  2  0
 16 17  1  0
 17 18  2  0
 18 19  1  0
 19 20  1  0
 20 21  1  0
 20 22  1  0
 20 23  1  0
 19 24  2  0
 13 25  1  0
 25 26  1  0
  7 27  2  0
 27 28  1  0
 27 29  1  0
 29 30  2  0
 30  2  1  0
 29  5  1  0
 26 10  1  0
 24 15  1  0
  1 31  1  0
  1 32  1  0
  1 33  1  0
  3 34  1  0
  4 35  1  0
 11 36  1  0
 11 37  1  0
 12 38  1  0
 12 39  1  0
 14 40  1  0
 16 41  1  0
 17 42  1  0
 18 43  1  0
 24 44  1  0
 25 45  1  0
 25 46  1  0
 26 47  1  0
 26 48  1  0
 28 49  1  0
 28 50  1  0
 28 51  1  0
 30 52  1  0
M  END
$$$$
