
     RDKit          3D

 34 34  0  0  0  0  0  0  0  0999 V2000
    5.1718    0.2577    0.8311 C   0  0  0  0  0  0  0  0  0  0  0  0
    4.0715    0.3185   -0.0639 O   0  0  0  0  0  0  0  0  0  0  0  0
    2.8132    0.4079    0.4787 C   0  0  0  0  0  0  0  0  0  0  0  0
    2.5374    0.3457    1.8489 C   0  0  0  0  0  0  0  0  0  0  0  0
    1.2222    0.4386    2.3135 C   0  0  0  0  0  0  0  0  0  0  0  0
    0.1622    0.5980    1.4161 C   0  0  0  0  0  0  0  0  0  0  0  0
   -1.2599    0.7026    1.9066 C   0  0  0  0  0  0  0  0  0  0  0  0
   -2.0492   -0.4097    1.4262 N   0  0  0  0  0  0  0  0  0  0  0  0
   -3.0855   -0.2257    0.5518 C   0  0  0  0  0  0  0  0  0  0  0  0
   -3.5439    0.8518    0.2022 O   0  0  0  0  0  0  0  0  0  0  0  0
   -3.6505   -1.5025    0.0692 C   0  0  0  0  0  0  0  0  0  0  0  0
   -3.8279   -1.7634   -1.2323 C   0  0  0  0  0  0  0  0  0  0  0  0
   -3.3497   -0.8856   -2.3073 C   0  0  0  0  0  0  0  0  0  0  0  0
   -2.3332   -0.2209   -2.3284 O   0  0  0  0  0  0  0  0  0  0  0  0
   -4.1888   -0.9551   -3.3526 O   0  0  0  0  0  0  0  0  0  0  0  0
    0.4400    0.6636    0.0407 C   0  0  0  0  0  0  0  0  0  0  0  0
    1.7525    0.5604   -0.4356 C   0  0  0  0  0  0  0  0  0  0  0  0
    2.0989    0.6116   -1.7640 O   0  0  0  0  0  0  0  0  0  0  0  0
    1.0404    0.5765   -2.7128 C   0  0  0  0  0  0  0  0  0  0  0  0
    6.0884    0.2392    0.2337 H   0  0  0  0  0  0  0  0  0  0  0  0
    5.2116    1.1443    1.4725 H   0  0  0  0  0  0  0  0  0  0  0  0
    5.1452   -0.6611    1.4259 H   0  0  0  0  0  0  0  0  0  0  0  0
    3.3258    0.2229    2.5836 H   0  0  0  0  0  0  0  0  0  0  0  0
    1.0367    0.3885    3.3842 H   0  0  0  0  0  0  0  0  0  0  0  0
   -1.6884    1.6624    1.5983 H   0  0  0  0  0  0  0  0  0  0  0  0
   -1.2944    0.6604    3.0006 H   0  0  0  0  0  0  0  0  0  0  0  0
   -1.6788   -1.3379    1.5741 H   0  0  0  0  0  0  0  0  0  0  0  0
   -3.9849   -2.1968    0.8296 H   0  0  0  0  0  0  0  0  0  0  0  0
   -4.3288   -2.6693   -1.5511 H   0  0  0  0  0  0  0  0  0  0  0  0
   -3.8085   -0.3228   -3.9975 H   0  0  0  0  0  0  0  0  0  0  0  0
   -0.3955    0.8003   -0.6421 H   0  0  0  0  0  0  0  0  0  0  0  0
    0.4350   -0.3280   -2.5958 H   0  0  0  0  0  0  0  0  0  0  0  0
    1.4888    0.5471   -3.7106 H   0  0  0  0  0  0  0  0  0  0  0  0
    0.4264    1.4809   -2.6534 H   0  0  0  0  0  0  0  0  0  0  0  0
  1  2  1  0
  2  3  1  0
  3  4  2  0
  4  5  1  0
  5  6  2  0
  6  7  1  0
  7  8  1  0
  8  9  1  0
  9 10  2  0
  9 11  1  0
 11 12  2  3
 12 13  1  0
 13 14  2  0
 13 15  1  0
  6 16  1  0
 16 17  2  0
 17 18  1  0
 18 19  1  0
 17  3  1  0
  1 20  1  0
  1 21  1  0
  1 22  1  0
  4 23  1  0
  5 24  1  0
  7 25  1  0
  7 26  1  0
  8 27  1  0
 11 28  1  0
 12 29  1  0
 15 30  1  0
 16 31  1  0
 19 32  1  0
 19 33  1  0
 19 34  1  0
M  END
$$$$
