
     RDKit          3D

 45 47  0  0  0  0  0  0  0  0999 V2000
    3.9217    1.4734   -3.9078 C   0  0  0  0  0  0  0  0  0  0  0  0
    3.6584    1.4361   -2.4252 C   0  0  0  0  0  0  0  0  0  0  0  0
    4.1428    2.2849   -1.6851 O   0  0  0  0  0  0  0  0  0  0  0  0
    2.8752    0.3568   -2.0546 N   0  0  0  0  0  0  0  0  0  0  0  0
    2.3894    0.0571   -0.7653 C   0  0  0  0  0  0  0  0  0  0  0  0
    2.6100    0.8550    0.3592 C   0  0  0  0  0  0  0  0  0  0  0  0
    2.0417    0.5200    1.5937 C   0  0  0  0  0  0  0  0  0  0  0  0
    1.2334   -0.6131    1.7011 C   0  0  0  0  0  0  0  0  0  0  0  0
    0.4871   -1.0216    3.2667 S   0  0  0  0  0  6  0  0  0  0  0  0
    0.2486   -2.4471    3.2773 O   0  0  0  0  0  0  0  0  0  0  0  0
    1.3073   -0.4138    4.2962 O   0  0  0  0  0  0  0  0  0  0  0  0
   -0.9524   -0.1817    3.2038 N   0  0  0  0  0  0  0  0  0  0  0  0
   -0.9145    1.2582    3.4621 C   0  0  0  0  0  0  0  0  0  0  0  0
   -2.3785    1.6259    3.2132 C   0  0  0  0  0  0  0  0  0  0  0  0
   -3.0028    0.4874    2.5011 N   0  0  0  0  0  0  0  0  0  0  0  0
   -2.1544   -0.4896    2.5641 C   0  0  0  0  0  0  0  0  0  0  0  0
   -2.4938   -2.0469    1.9221 S   0  0  0  0  0  0  0  0  0  0  0  0
   -3.5244   -1.6119    0.5000 C   0  0  0  0  0  0  0  0  0  0  0  0
   -2.6926   -1.2496   -0.7078 C   0  0  0  0  0  0  0  0  0  0  0  0
   -2.4177    0.0934   -1.0095 C   0  0  0  0  0  0  0  0  0  0  0  0
   -1.6416    0.4226   -2.1220 C   0  0  0  0  0  0  0  0  0  0  0  0
   -1.1447   -0.5888   -2.9345 C   0  0  0  0  0  0  0  0  0  0  0  0
   -0.3960   -0.2727   -3.9999 F   0  0  0  0  0  0  0  0  0  0  0  0
   -1.4036   -1.9236   -2.6546 C   0  0  0  0  0  0  0  0  0  0  0  0
   -2.1706   -2.2563   -1.5373 C   0  0  0  0  0  0  0  0  0  0  0  0
    1.0464   -1.4482    0.6009 C   0  0  0  0  0  0  0  0  0  0  0  0
    1.6241   -1.1086   -0.6280 C   0  0  0  0  0  0  0  0  0  0  0  0
    4.8290    0.9083   -4.1330 H   0  0  0  0  0  0  0  0  0  0  0  0
    3.0813    1.0564   -4.4712 H   0  0  0  0  0  0  0  0  0  0  0  0
    4.0540    2.5131   -4.2191 H   0  0  0  0  0  0  0  0  0  0  0  0
    2.6092   -0.2879   -2.7888 H   0  0  0  0  0  0  0  0  0  0  0  0
    3.2155    1.7535    0.3094 H   0  0  0  0  0  0  0  0  0  0  0  0
    2.2315    1.1553    2.4566 H   0  0  0  0  0  0  0  0  0  0  0  0
   -0.2757    1.7789    2.7436 H   0  0  0  0  0  0  0  0  0  0  0  0
   -0.6115    1.5015    4.4811 H   0  0  0  0  0  0  0  0  0  0  0  0
   -2.9099    1.7883    4.1540 H   0  0  0  0  0  0  0  0  0  0  0  0
   -2.4589    2.5379    2.6150 H   0  0  0  0  0  0  0  0  0  0  0  0
   -4.2425   -0.8193    0.7252 H   0  0  0  0  0  0  0  0  0  0  0  0
   -4.1308   -2.4902    0.2530 H   0  0  0  0  0  0  0  0  0  0  0  0
   -2.8086    0.8906   -0.3771 H   0  0  0  0  0  0  0  0  0  0  0  0
   -1.4243    1.4580   -2.3601 H   0  0  0  0  0  0  0  0  0  0  0  0
   -1.0042   -2.6980   -3.3042 H   0  0  0  0  0  0  0  0  0  0  0  0
   -2.3655   -3.3050   -1.3169 H   0  0  0  0  0  0  0  0  0  0  0  0
    0.4536   -2.3577    0.6805 H   0  0  0  0  0  0  0  0  0  0  0  0
    1.4594   -1.7689   -1.4778 H   0  0  0  0  0  0  0  0  0  0  0  0
  1  2  1  0
  2  3  2  0
  2  4  1  0
  4  5  1  0
  5  6  2  0
  6  7  1  0
  7  8  2  0
  8  9  1  0
  9 10  2  0
  9 11  2  0
  9 12  1  0
 12 13  1  0
 13 14  1  0
 14 15  1  0
 15 16  2  0
 16 17  1  0
 17 18  1  0
 18 19  1  0
 19 20  2  0
 20 21  1  0
 21 22  2  0
 22 23  1  0
 22 24  1  0
 24 25  2  0
  8 26  1  0
 26 27  2  0
 27  5  1  0
 16 12  1  0
 25 19  1  0
  1 28  1  0
  1 29  1  0
  1 30  1  0
  4 31  1  0
  6 32  1  0
  7 33  1  0
 13 34  1  0
 13 35  1  0
 14 36  1  0
 14 37  1  0
 18 38  1  0
 18 39  1  0
 20 40  1  0
 21 41  1  0
 24 42  1  0
 25 43  1  0
 26 44  1  0
 27 45  1  0
M  END
$$$$
