
     RDKit          3D

 48 50  0  0  0  0  0  0  0  0999 V2000
    7.6264    0.6667   -1.2503 C   0  0  0  0  0  0  0  0  0  0  0  0
    7.5361    0.8310    0.2611 C   0  0  0  0  0  0  0  0  0  0  0  0
    6.7131   -0.2722    0.9172 C   0  0  0  0  0  0  0  0  0  0  0  0
    5.3475   -0.1453    0.5005 O   0  0  0  0  0  0  0  0  0  0  0  0
    4.5066   -1.0424    1.0753 C   0  0  0  0  0  0  0  0  0  0  0  0
    4.8294   -1.9275    1.8513 O   0  0  0  0  0  0  0  0  0  0  0  0
    3.1043   -0.7972    0.6412 C   0  0  0  0  0  0  0  0  0  0  0  0
    2.0932   -1.6038    1.1760 C   0  0  0  0  0  0  0  0  0  0  0  0
    0.7548   -1.4048    0.8138 C   0  0  0  0  0  0  0  0  0  0  0  0
    0.4062   -0.3963   -0.0855 C   0  0  0  0  0  0  0  0  0  0  0  0
   -0.9166   -0.1152   -0.4843 N   0  0  0  0  0  0  0  0  0  0  0  0
   -2.0725   -0.7880   -0.1164 C   0  0  0  0  0  0  0  0  0  0  0  0
   -2.1283   -1.7951    0.5797 O   0  0  0  0  0  0  0  0  0  0  0  0
   -3.3252   -0.1251   -0.6923 C   0  0  0  0  0  0  0  0  0  0  0  0
   -3.5849    1.2513   -0.0248 C   0  0  0  0  0  0  0  0  0  0  0  0
   -4.5592    2.0394   -0.9150 C   0  0  0  0  0  0  0  0  0  0  0  0
   -5.8862    1.2995   -0.7034 C   0  0  0  0  0  0  0  0  0  0  0  0
   -5.5126    0.1775    0.2859 C   0  0  0  0  0  0  0  0  0  0  0  0
   -4.4812    0.8885    1.1618 C   0  0  0  0  0  0  0  0  0  0  0  0
   -4.6292   -0.9035   -0.3825 C   0  0  0  0  0  0  0  0  0  0  0  0
   -5.2762   -1.5472   -1.5831 C   0  0  0  0  0  0  0  0  0  0  0  0
   -6.4710   -1.7269   -1.7497 O   0  0  0  0  0  0  0  0  0  0  0  0
   -4.3933   -2.0012   -2.4931 O   0  0  0  0  0  0  0  0  0  0  0  0
    1.4202    0.4087   -0.6221 C   0  0  0  0  0  0  0  0  0  0  0  0
    2.7599    0.2116   -0.2650 C   0  0  0  0  0  0  0  0  0  0  0  0
    8.0910   -0.2905   -1.5084 H   0  0  0  0  0  0  0  0  0  0  0  0
    6.6384    0.7072   -1.7165 H   0  0  0  0  0  0  0  0  0  0  0  0
    8.2326    1.4709   -1.6775 H   0  0  0  0  0  0  0  0  0  0  0  0
    7.0858    1.8067    0.4768 H   0  0  0  0  0  0  0  0  0  0  0  0
    8.5461    0.8277    0.6838 H   0  0  0  0  0  0  0  0  0  0  0  0
    6.7705   -0.1606    2.0064 H   0  0  0  0  0  0  0  0  0  0  0  0
    7.0993   -1.2579    0.6313 H   0  0  0  0  0  0  0  0  0  0  0  0
    2.3370   -2.3927    1.8870 H   0  0  0  0  0  0  0  0  0  0  0  0
    0.0101   -2.0549    1.2632 H   0  0  0  0  0  0  0  0  0  0  0  0
   -1.0294    0.6622   -1.1230 H   0  0  0  0  0  0  0  0  0  0  0  0
   -3.1587   -0.0044   -1.7702 H   0  0  0  0  0  0  0  0  0  0  0  0
   -2.6886    1.8164    0.2408 H   0  0  0  0  0  0  0  0  0  0  0  0
   -4.6464    3.0770   -0.5753 H   0  0  0  0  0  0  0  0  0  0  0  0
   -4.2564    2.0508   -1.9663 H   0  0  0  0  0  0  0  0  0  0  0  0
   -6.6210    1.9771   -0.2538 H   0  0  0  0  0  0  0  0  0  0  0  0
   -6.3054    0.9346   -1.6449 H   0  0  0  0  0  0  0  0  0  0  0  0
   -6.3735   -0.2322    0.8194 H   0  0  0  0  0  0  0  0  0  0  0  0
   -4.8846    1.7651    1.6798 H   0  0  0  0  0  0  0  0  0  0  0  0
   -3.9962    0.2282    1.8877 H   0  0  0  0  0  0  0  0  0  0  0  0
   -4.4638   -1.7142    0.3373 H   0  0  0  0  0  0  0  0  0  0  0  0
   -4.9545   -2.4578   -3.1550 H   0  0  0  0  0  0  0  0  0  0  0  0
    1.1859    1.2026   -1.3277 H   0  0  0  0  0  0  0  0  0  0  0  0
    3.5204    0.8563   -0.6986 H   0  0  0  0  0  0  0  0  0  0  0  0
  1  2  1  0
  2  3  1  0
  3  4  1  0
  4  5  1  0
  5  6  2  0
  5  7  1  0
  7  8  2  0
  8  9  1  0
  9 10  2  0
 10 11  1  0
 11 12  1  0
 12 13  2  0
 12 14  1  0
 14 15  1  0
 15 16  1  0
 16 17  1  0
 17 18  1  0
 18 19  1  0
 18 20  1  0
 20 21  1  0
 21 22  2  0
 21 23  1  0
 10 24  1  0
 24 25  2  0
 25  7  1  0
 20 14  1  0
 19 15  1  0
  1 26  1  0
  1 27  1  0
  1 28  1  0
  2 29  1  0
  2 30  1  0
  3 31  1  0
  3 32  1  0
  8 33  1  0
  9 34  1  0
 11 35  1  0
 14 36  1  0
 15 37  1  0
 16 38  1  0
 16 39  1  0
 17 40  1  0
 17 41  1  0
 18 42  1  0
 19 43  1  0
 19 44  1  0
 20 45  1  0
 23 46  1  0
 24 47  1  0
 25 48  1  0
M  END
$$$$
