
     RDKit          3D

 52 54  0  0  0  0  0  0  0  0999 V2000
    3.0249   -2.3609   -3.6937 C   0  0  0  0  0  0  0  0  0  0  0  0
    2.1148   -1.9052   -2.5701 C   0  0  0  0  0  0  0  0  0  0  0  0
    2.9356   -1.5082   -1.4635 O   0  0  0  0  0  0  0  0  0  0  0  0
    2.2438   -1.0641   -0.3859 C   0  0  0  0  0  0  0  0  0  0  0  0
    1.0255   -0.9838   -0.3097 O   0  0  0  0  0  0  0  0  0  0  0  0
    3.1531   -0.6769    0.7343 C   0  0  0  0  0  0  0  0  0  0  0  0
    4.5483   -0.7233    0.5527 C   0  0  0  0  0  0  0  0  0  0  0  0
    5.4096   -0.3611    1.5863 C   0  0  0  0  0  0  0  0  0  0  0  0
    4.8866    0.0496    2.8061 C   0  0  0  0  0  0  0  0  0  0  0  0
    3.5026    0.1009    3.0002 C   0  0  0  0  0  0  0  0  0  0  0  0
    2.6147   -0.2562    1.9770 C   0  0  0  0  0  0  0  0  0  0  0  0
    1.2047   -0.2151    2.1525 N   0  0  0  0  0  0  0  0  0  0  0  0
    0.4846    0.1848    3.2593 C   0  0  0  0  0  0  0  0  0  0  0  0
    0.9557    0.6165    4.3085 O   0  0  0  0  0  0  0  0  0  0  0  0
   -1.0262    0.0822    3.1075 C   0  0  0  0  0  0  0  0  0  0  0  0
   -1.5060   -1.3258    2.7650 C   0  0  0  0  0  0  0  0  0  0  0  0
   -2.2845   -1.1738    1.4886 C   0  0  0  0  0  0  0  0  0  0  0  0
   -2.7616   -2.1042    0.8579 O   0  0  0  0  0  0  0  0  0  0  0  0
   -2.3744    0.1713    1.1680 N   0  0  0  0  0  0  0  0  0  0  0  0
   -2.9322    0.6267   -0.1094 C   0  0  0  0  0  0  0  0  0  0  0  0
   -1.8961    0.5561   -1.2372 C   0  0  0  0  0  0  0  0  0  0  0  0
   -2.5113    0.8513   -2.6078 C   0  0  0  0  0  0  0  0  0  0  0  0
   -3.7955    1.6778   -2.5429 C   0  0  0  0  0  0  0  0  0  0  0  0
   -3.7588    2.6862   -1.4048 C   0  0  0  0  0  0  0  0  0  0  0  0
   -3.5749    2.0231   -0.0360 C   0  0  0  0  0  0  0  0  0  0  0  0
   -1.5494    1.0004    2.0149 C   0  0  0  0  0  0  0  0  0  0  0  0
    3.6987   -1.5521   -3.9949 H   0  0  0  0  0  0  0  0  0  0  0  0
    3.6546   -3.1939   -3.3650 H   0  0  0  0  0  0  0  0  0  0  0  0
    2.4429   -2.6794   -4.5625 H   0  0  0  0  0  0  0  0  0  0  0  0
    1.4601   -2.7294   -2.2660 H   0  0  0  0  0  0  0  0  0  0  0  0
    1.5088   -1.0555   -2.9049 H   0  0  0  0  0  0  0  0  0  0  0  0
    4.9821   -1.0398   -0.3935 H   0  0  0  0  0  0  0  0  0  0  0  0
    6.4867   -0.3997    1.4399 H   0  0  0  0  0  0  0  0  0  0  0  0
    5.5536    0.3318    3.6182 H   0  0  0  0  0  0  0  0  0  0  0  0
    3.1524    0.4253    3.9754 H   0  0  0  0  0  0  0  0  0  0  0  0
    0.6707   -0.5119    1.3309 H   0  0  0  0  0  0  0  0  0  0  0  0
   -1.4603    0.3781    4.0720 H   0  0  0  0  0  0  0  0  0  0  0  0
   -2.1825   -1.7027    3.5392 H   0  0  0  0  0  0  0  0  0  0  0  0
   -0.6946   -2.0442    2.6201 H   0  0  0  0  0  0  0  0  0  0  0  0
   -3.7263   -0.0899   -0.3620 H   0  0  0  0  0  0  0  0  0  0  0  0
   -1.0906    1.2758   -1.0405 H   0  0  0  0  0  0  0  0  0  0  0  0
   -1.4195   -0.4304   -1.2670 H   0  0  0  0  0  0  0  0  0  0  0  0
   -2.7267   -0.0903   -3.1274 H   0  0  0  0  0  0  0  0  0  0  0  0
   -1.7662    1.3715   -3.2218 H   0  0  0  0  0  0  0  0  0  0  0  0
   -4.6544    1.0088   -2.4066 H   0  0  0  0  0  0  0  0  0  0  0  0
   -3.9506    2.1904   -3.4989 H   0  0  0  0  0  0  0  0  0  0  0  0
   -2.9300    3.3849   -1.5784 H   0  0  0  0  0  0  0  0  0  0  0  0
   -4.6749    3.2880   -1.4015 H   0  0  0  0  0  0  0  0  0  0  0  0
   -2.9874    2.7091    0.5836 H   0  0  0  0  0  0  0  0  0  0  0  0
   -4.5478    1.9322    0.4640 H   0  0  0  0  0  0  0  0  0  0  0  0
   -2.1712    1.7910    2.4472 H   0  0  0  0  0  0  0  0  0  0  0  0
   -0.7611    1.4638    1.4131 H   0  0  0  0  0  0  0  0  0  0  0  0
  1  2  1  0
  2  3  1  0
  3  4  1  0
  4  5  2  0
  4  6  1  0
  6  7  2  0
  7  8  1  0
  8  9  2  0
  9 10  1  0
 10 11  2  0
 11 12  1  0
 12 13  1  0
 13 14  2  0
 13 15  1  0
 15 16  1  0
 16 17  1  0
 17 18  2  0
 17 19  1  0
 19 20  1  0
 20 21  1  0
 21 22  1  0
 22 23  1  0
 23 24  1  0
 24 25  1  0
 19 26  1  0
 11  6  1  0
 26 15  1  0
 25 20  1  0
  1 27  1  0
  1 28  1  0
  1 29  1  0
  2 30  1  0
  2 31  1  0
  7 32  1  0
  8 33  1  0
  9 34  1  0
 10 35  1  0
 12 36  1  0
 15 37  1  0
 16 38  1  0
 16 39  1  0
 20 40  1  0
 21 41  1  0
 21 42  1  0
 22 43  1  0
 22 44  1  0
 23 45  1  0
 23 46  1  0
 24 47  1  0
 24 48  1  0
 25 49  1  0
 25 50  1  0
 26 51  1  0
 26 52  1  0
M  END
$$$$
