
     RDKit          3D

 46 48  0  0  0  0  0  0  0  0999 V2000
    3.8911   -1.7977    2.8999 C   0  0  0  0  0  0  0  0  0  0  0  0
    3.3727   -2.2584    1.6582 O   0  0  0  0  0  0  0  0  0  0  0  0
    3.1866   -1.3218    0.6793 C   0  0  0  0  0  0  0  0  0  0  0  0
    2.7506   -1.8399   -0.5460 C   0  0  0  0  0  0  0  0  0  0  0  0
    2.5100   -0.9966   -1.6314 C   0  0  0  0  0  0  0  0  0  0  0  0
    2.7002    0.3758   -1.4789 C   0  0  0  0  0  0  0  0  0  0  0  0
    2.4189    1.2741   -2.6119 C   0  0  0  0  0  0  0  0  0  0  0  0
    3.3019    1.4430   -3.4504 O   0  0  0  0  0  0  0  0  0  0  0  0
    1.0574    1.9525   -2.7094 C   0  0  0  0  0  0  0  0  0  0  0  0
    0.1326    1.6186   -1.6479 N   0  0  0  0  0  0  0  0  0  0  0  0
    0.0074    2.3114   -0.4872 C   0  0  0  0  0  0  0  0  0  0  0  0
    0.6528    3.2831   -0.1336 O   0  0  0  0  0  0  0  0  0  0  0  0
   -0.9726    1.7200    0.2715 N   0  0  0  0  0  0  0  0  0  0  0  0
   -1.5021    0.5105   -0.3308 C   0  0  0  0  0  0  0  0  0  0  0  0
   -2.9997    0.6307   -0.6445 C   0  0  0  0  0  0  0  0  0  0  0  0
   -3.8873    0.8666    0.5765 C   0  0  0  0  0  0  0  0  0  0  0  0
   -4.3103   -0.3926    1.3263 C   0  0  0  0  0  0  0  0  0  0  0  0
   -3.2633   -1.4883    1.4965 C   0  0  0  0  0  0  0  0  0  0  0  0
   -1.8433   -0.9944    1.7517 C   0  0  0  0  0  0  0  0  0  0  0  0
   -1.0720   -0.7312    0.4577 C   0  0  0  0  0  0  0  0  0  0  0  0
   -0.7115    0.5446   -1.6596 C   0  0  0  0  0  0  0  0  0  0  0  0
   -0.8094   -0.2755   -2.5631 O   0  0  0  0  0  0  0  0  0  0  0  0
    3.1466    0.9079   -0.2684 C   0  0  0  0  0  0  0  0  0  0  0  0
    3.3858    0.0550    0.8133 C   0  0  0  0  0  0  0  0  0  0  0  0
    4.8757   -1.3360    2.7712 H   0  0  0  0  0  0  0  0  0  0  0  0
    4.0136   -2.6664    3.5539 H   0  0  0  0  0  0  0  0  0  0  0  0
    3.1917   -1.1103    3.3871 H   0  0  0  0  0  0  0  0  0  0  0  0
    2.6008   -2.9120   -0.6540 H   0  0  0  0  0  0  0  0  0  0  0  0
    2.1731   -1.4106   -2.5787 H   0  0  0  0  0  0  0  0  0  0  0  0
    1.2263    3.0345   -2.7013 H   0  0  0  0  0  0  0  0  0  0  0  0
    0.6108    1.6574   -3.6648 H   0  0  0  0  0  0  0  0  0  0  0  0
   -1.1638    2.0499    1.2089 H   0  0  0  0  0  0  0  0  0  0  0  0
   -3.3467   -0.2495   -1.2005 H   0  0  0  0  0  0  0  0  0  0  0  0
   -3.1446    1.4834   -1.3232 H   0  0  0  0  0  0  0  0  0  0  0  0
   -3.4073    1.5623    1.2740 H   0  0  0  0  0  0  0  0  0  0  0  0
   -4.8034    1.3738    0.2467 H   0  0  0  0  0  0  0  0  0  0  0  0
   -4.6696   -0.0879    2.3178 H   0  0  0  0  0  0  0  0  0  0  0  0
   -5.1802   -0.8326    0.8219 H   0  0  0  0  0  0  0  0  0  0  0  0
   -3.2782   -2.1471    0.6193 H   0  0  0  0  0  0  0  0  0  0  0  0
   -3.5756   -2.1156    2.3412 H   0  0  0  0  0  0  0  0  0  0  0  0
   -1.8364   -0.1165    2.4071 H   0  0  0  0  0  0  0  0  0  0  0  0
   -1.3076   -1.7862    2.2912 H   0  0  0  0  0  0  0  0  0  0  0  0
   -0.0079   -0.6441    0.7155 H   0  0  0  0  0  0  0  0  0  0  0  0
   -1.1433   -1.6200   -0.1836 H   0  0  0  0  0  0  0  0  0  0  0  0
    3.3040    1.9790   -0.1586 H   0  0  0  0  0  0  0  0  0  0  0  0
    3.7256    0.4971    1.7443 H   0  0  0  0  0  0  0  0  0  0  0  0
  1  2  1  0
  2  3  1  0
  3  4  2  0
  4  5  1  0
  5  6  2  0
  6  7  1  0
  7  8  2  0
  7  9  1  0
  9 10  1  0
 10 11  1  0
 11 12  2  0
 11 13  1  0
 13 14  1  0
 14 15  1  0
 15 16  1  0
 16 17  1  0
 17 18  1  0
 18 19  1  0
 19 20  1  0
 14 21  1  0
 21 22  2  0
  6 23  1  0
 23 24  2  0
 24  3  1  0
 21 10  1  0
 20 14  1  0
  1 25  1  0
  1 26  1  0
  1 27  1  0
  4 28  1  0
  5 29  1  0
  9 30  1  0
  9 31  1  0
 13 32  1  0
 15 33  1  0
 15 34  1  0
 16 35  1  0
 16 36  1  0
 17 37  1  0
 17 38  1  0
 18 39  1  0
 18 40  1  0
 19 41  1  0
 19 42  1  0
 20 43  1  0
 20 44  1  0
 23 45  1  0
 24 46  1  0
M  END
$$$$
