
     RDKit          3D

 51 54  0  0  0  0  0  0  0  0999 V2000
    1.0368    3.0489    0.5673 O   0  0  0  0  0  0  0  0  0  0  0  0
    1.3096    1.9229    0.1478 C   0  0  0  0  0  0  0  0  0  0  0  0
    2.6698    1.4062    0.1311 C   0  0  0  0  0  0  0  0  0  0  0  0
    3.3510    0.7488   -0.8788 C   0  0  0  0  0  0  0  0  0  0  0  0
    4.6855    0.4056   -0.5054 C   0  0  0  0  0  0  0  0  0  0  0  0
    4.9708    0.8317    0.7767 C   0  0  0  0  0  0  0  0  0  0  0  0
    3.6668    1.6436    1.5049 S   0  0  0  0  0  0  0  0  0  0  0  0
    6.2894    0.6660    1.4676 C   0  0  0  0  0  0  0  0  0  0  0  0
    7.1538   -0.3724    0.7346 C   0  0  0  0  0  0  0  0  0  0  0  0
    7.1137   -0.1760   -0.7883 C   0  0  0  0  0  0  0  0  0  0  0  0
    5.6885   -0.3292   -1.3428 C   0  0  0  0  0  0  0  0  0  0  0  0
    0.2926    1.1004   -0.3508 N   0  0  0  0  0  0  0  0  0  0  0  0
    0.4016   -0.3578   -0.4990 C   0  0  0  0  0  0  0  0  0  0  0  0
   -0.8998   -1.0911   -0.1341 C   0  0  0  0  0  0  0  0  0  0  0  0
   -2.0376   -0.5671   -0.9168 N   0  0  0  0  0  0  0  0  0  0  0  0
   -3.4604   -1.4405   -1.0625 S   0  0  0  0  0  6  0  0  0  0  0  0
   -4.0169   -1.0776   -2.3464 O   0  0  0  0  0  0  0  0  0  0  0  0
   -3.1934   -2.8098   -0.6866 O   0  0  0  0  0  0  0  0  0  0  0  0
   -4.5770   -0.7893    0.1747 C   0  0  0  0  0  0  0  0  0  0  0  0
   -4.0632   -0.1118    1.2902 C   0  0  0  0  0  0  0  0  0  0  0  0
   -4.9234    0.4411    2.2390 C   0  0  0  0  0  0  0  0  0  0  0  0
   -6.2994    0.3233    2.0822 C   0  0  0  0  0  0  0  0  0  0  0  0
   -6.8180   -0.3581    0.9813 C   0  0  0  0  0  0  0  0  0  0  0  0
   -5.9704   -0.9370    0.0142 C   0  0  0  0  0  0  0  0  0  0  0  0
   -6.6021   -1.6756   -1.1462 C   0  0  0  0  0  0  0  0  0  0  0  0
   -7.8782   -2.0777   -0.8622 F   0  0  0  0  0  0  0  0  0  0  0  0
   -5.9525   -2.8131   -1.4998 F   0  0  0  0  0  0  0  0  0  0  0  0
   -6.7160   -0.9069   -2.2604 F   0  0  0  0  0  0  0  0  0  0  0  0
   -1.9800    0.8415   -1.3660 C   0  0  0  0  0  0  0  0  0  0  0  0
   -1.0470    1.6755   -0.4808 C   0  0  0  0  0  0  0  0  0  0  0  0
    2.9148    0.5317   -1.8466 H   0  0  0  0  0  0  0  0  0  0  0  0
    6.1527    0.3559    2.5097 H   0  0  0  0  0  0  0  0  0  0  0  0
    6.8106    1.6313    1.4734 H   0  0  0  0  0  0  0  0  0  0  0  0
    6.7959   -1.3822    0.9741 H   0  0  0  0  0  0  0  0  0  0  0  0
    8.1869   -0.3062    1.0940 H   0  0  0  0  0  0  0  0  0  0  0  0
    7.4968    0.8236   -1.0306 H   0  0  0  0  0  0  0  0  0  0  0  0
    7.7754   -0.8999   -1.2771 H   0  0  0  0  0  0  0  0  0  0  0  0
    5.4169   -1.3920   -1.3570 H   0  0  0  0  0  0  0  0  0  0  0  0
    5.6573    0.0309   -2.3774 H   0  0  0  0  0  0  0  0  0  0  0  0
    1.2128   -0.7471    0.1229 H   0  0  0  0  0  0  0  0  0  0  0  0
    0.6486   -0.5487   -1.5500 H   0  0  0  0  0  0  0  0  0  0  0  0
   -1.0988   -0.9733    0.9350 H   0  0  0  0  0  0  0  0  0  0  0  0
   -0.7576   -2.1565   -0.3415 H   0  0  0  0  0  0  0  0  0  0  0  0
   -2.9972   -0.0025    1.4479 H   0  0  0  0  0  0  0  0  0  0  0  0
   -4.5189    0.9658    3.1021 H   0  0  0  0  0  0  0  0  0  0  0  0
   -6.9714    0.7568    2.8199 H   0  0  0  0  0  0  0  0  0  0  0  0
   -7.9007   -0.4440    0.8818 H   0  0  0  0  0  0  0  0  0  0  0  0
   -1.6162    0.8506   -2.4001 H   0  0  0  0  0  0  0  0  0  0  0  0
   -2.9764    1.2951   -1.3565 H   0  0  0  0  0  0  0  0  0  0  0  0
   -0.9669    2.6933   -0.8794 H   0  0  0  0  0  0  0  0  0  0  0  0
   -1.4594    1.7526    0.5326 H   0  0  0  0  0  0  0  0  0  0  0  0
  1  2  2  0
  2  3  1  0
  3  4  2  0
  4  5  1  0
  5  6  2  0
  6  7  1  0
  6  8  1  0
  8  9  1  0
  9 10  1  0
 10 11  1  0
  2 12  1  0
 12 13  1  0
 13 14  1  0
 14 15  1  0
 15 16  1  0
 16 17  2  0
 16 18  2  0
 16 19  1  0
 19 20  2  0
 20 21  1  0
 21 22  2  0
 22 23  1  0
 23 24  2  0
 24 25  1  0
 25 26  1  0
 25 27  1  0
 25 28  1  0
 15 29  1  0
 29 30  1  0
  7  3  1  0
 30 12  1  0
 11  5  1  0
 24 19  1  0
  4 31  1  0
  8 32  1  0
  8 33  1  0
  9 34  1  0
  9 35  1  0
 10 36  1  0
 10 37  1  0
 11 38  1  0
 11 39  1  0
 13 40  1  0
 13 41  1  0
 14 42  1  0
 14 43  1  0
 20 44  1  0
 21 45  1  0
 22 46  1  0
 23 47  1  0
 29 48  1  0
 29 49  1  0
 30 50  1  0
 30 51  1  0
M  END
$$$$
