
     RDKit          3D

 57 60  0  0  0  0  0  0  0  0999 V2000
    7.7822    3.4178   -0.8101 C   0  0  0  0  0  0  0  0  0  0  0  0
    6.4811    2.6311   -0.7347 C   0  0  0  0  0  0  0  0  0  0  0  0
    6.5261    1.4585    0.2594 C   0  0  0  0  0  0  0  0  0  0  0  0
    7.5758    0.4124   -0.1133 C   0  0  0  0  0  0  0  0  0  0  0  0
    5.2192    0.8126    0.3386 N   0  0  0  0  0  0  0  0  0  0  0  0
    4.1954    1.3364    1.1040 C   0  0  0  0  0  0  0  0  0  0  0  0
    4.3065    2.3372    1.8025 O   0  0  0  0  0  0  0  0  0  0  0  0
    2.8937    0.6198    1.0211 C   0  0  0  0  0  0  0  0  0  0  0  0
    2.8325   -0.7647    0.8290 C   0  0  0  0  0  0  0  0  0  0  0  0
    1.5940   -1.4100    0.7769 C   0  0  0  0  0  0  0  0  0  0  0  0
    0.4030   -0.6824    0.9282 C   0  0  0  0  0  0  0  0  0  0  0  0
   -0.9329   -1.3829    0.8985 C   0  0  0  0  0  0  0  0  0  0  0  0
   -1.5242   -1.7086   -0.7872 S   0  0  0  0  0  0  0  0  0  0  0  0
   -2.6629   -0.4159   -0.9710 C   0  0  0  0  0  0  0  0  0  0  0  0
   -2.3829    0.8526   -0.7798 N   0  0  0  0  0  0  0  0  0  0  0  0
   -3.5457    1.5252   -1.0547 C   0  0  0  0  0  0  0  0  0  0  0  0
   -3.8039    2.8966   -1.0218 C   0  0  0  0  0  0  0  0  0  0  0  0
   -5.0954    3.2726   -1.3497 C   0  0  0  0  0  0  0  0  0  0  0  0
   -6.0889    2.4147   -1.6911 N   0  0  0  0  0  0  0  0  0  0  0  0
   -5.8363    1.0852   -1.7287 C   0  0  0  0  0  0  0  0  0  0  0  0
   -4.5616    0.6399   -1.4075 C   0  0  0  0  0  0  0  0  0  0  0  0
   -3.9738   -0.6068   -1.3349 N   0  0  0  0  0  0  0  0  0  0  0  0
   -4.6396   -1.8724   -1.6115 C   0  0  0  0  0  0  0  0  0  0  0  0
   -4.9392   -2.6518   -0.3493 C   0  0  0  0  0  0  0  0  0  0  0  0
   -5.7334   -2.1057    0.6783 C   0  0  0  0  0  0  0  0  0  0  0  0
   -5.9963   -2.8379    1.8391 C   0  0  0  0  0  0  0  0  0  0  0  0
   -5.4768   -4.1186    1.9726 C   0  0  0  0  0  0  0  0  0  0  0  0
   -5.7230   -4.8169    3.0886 F   0  0  0  0  0  0  0  0  0  0  0  0
   -4.7027   -4.6844    0.9648 C   0  0  0  0  0  0  0  0  0  0  0  0
   -4.4367   -3.9550   -0.1966 C   0  0  0  0  0  0  0  0  0  0  0  0
    0.4735    0.7061    1.1155 C   0  0  0  0  0  0  0  0  0  0  0  0
    1.7111    1.3521    1.1719 C   0  0  0  0  0  0  0  0  0  0  0  0
    8.0885    3.7616    0.1801 H   0  0  0  0  0  0  0  0  0  0  0  0
    7.6537    4.2968   -1.4477 H   0  0  0  0  0  0  0  0  0  0  0  0
    8.5912    2.8205   -1.2385 H   0  0  0  0  0  0  0  0  0  0  0  0
    6.2205    2.2671   -1.7347 H   0  0  0  0  0  0  0  0  0  0  0  0
    5.6813    3.3212   -0.4432 H   0  0  0  0  0  0  0  0  0  0  0  0
    6.7625    1.8491    1.2577 H   0  0  0  0  0  0  0  0  0  0  0  0
    7.5376   -0.4368    0.5781 H   0  0  0  0  0  0  0  0  0  0  0  0
    7.4059    0.0200   -1.1212 H   0  0  0  0  0  0  0  0  0  0  0  0
    8.5880    0.8244   -0.0711 H   0  0  0  0  0  0  0  0  0  0  0  0
    4.9701    0.1712   -0.4011 H   0  0  0  0  0  0  0  0  0  0  0  0
    3.7397   -1.3583    0.7487 H   0  0  0  0  0  0  0  0  0  0  0  0
    1.5632   -2.4892    0.6279 H   0  0  0  0  0  0  0  0  0  0  0  0
   -1.6772   -0.8227    1.4778 H   0  0  0  0  0  0  0  0  0  0  0  0
   -0.8345   -2.3501    1.4075 H   0  0  0  0  0  0  0  0  0  0  0  0
   -3.0391    3.6166   -0.7566 H   0  0  0  0  0  0  0  0  0  0  0  0
   -5.3805    4.3229   -1.3471 H   0  0  0  0  0  0  0  0  0  0  0  0
   -6.6590    0.4382   -2.0085 H   0  0  0  0  0  0  0  0  0  0  0  0
   -3.9999   -2.4357   -2.3027 H   0  0  0  0  0  0  0  0  0  0  0  0
   -5.5773   -1.6746   -2.1453 H   0  0  0  0  0  0  0  0  0  0  0  0
   -6.1491   -1.1040    0.5919 H   0  0  0  0  0  0  0  0  0  0  0  0
   -6.6011   -2.4163    2.6400 H   0  0  0  0  0  0  0  0  0  0  0  0
   -4.3095   -5.6877    1.0908 H   0  0  0  0  0  0  0  0  0  0  0  0
   -3.8249   -4.4102   -0.9767 H   0  0  0  0  0  0  0  0  0  0  0  0
   -0.4391    1.2920    1.2195 H   0  0  0  0  0  0  0  0  0  0  0  0
    1.7511    2.4269    1.3272 H   0  0  0  0  0  0  0  0  0  0  0  0
  1  2  1  0
  2  3  1  0
  3  4  1  0
  3  5  1  0
  5  6  1  0
  6  7  2  0
  6  8  1  0
  8  9  2  0
  9 10  1  0
 10 11  2  0
 11 12  1  0
 12 13  1  0
 13 14  1  0
 14 15  2  0
 15 16  1  0
 16 17  2  0
 17 18  1  0
 18 19  2  0
 19 20  1  0
 20 21  2  0
 21 22  1  0
 22 23  1  0
 23 24  1  0
 24 25  2  0
 25 26  1  0
 26 27  2  0
 27 28  1  0
 27 29  1  0
 29 30  2  0
 11 31  1  0
 31 32  2  0
 32  8  1  0
 22 14  1  0
 30 24  1  0
 21 16  1  0
  1 33  1  0
  1 34  1  0
  1 35  1  0
  2 36  1  0
  2 37  1  0
  3 38  1  0
  4 39  1  0
  4 40  1  0
  4 41  1  0
  5 42  1  0
  9 43  1  0
 10 44  1  0
 12 45  1  0
 12 46  1  0
 17 47  1  0
 18 48  1  0
 20 49  1  0
 23 50  1  0
 23 51  1  0
 25 52  1  0
 26 53  1  0
 29 54  1  0
 30 55  1  0
 31 56  1  0
 32 57  1  0
M  END
$$$$
