
     RDKit          3D

 48 50  0  0  0  0  0  0  0  0999 V2000
    5.0899    3.1968   -0.7696 C   0  0  0  0  0  0  0  0  0  0  0  0
    4.3729    2.3060   -1.6093 O   0  0  0  0  0  0  0  0  0  0  0  0
    3.8161    1.2043   -1.0255 C   0  0  0  0  0  0  0  0  0  0  0  0
    3.8607    0.8809    0.3293 C   0  0  0  0  0  0  0  0  0  0  0  0
    3.2637   -0.2965    0.7895 C   0  0  0  0  0  0  0  0  0  0  0  0
    2.6063   -1.1585   -0.0981 C   0  0  0  0  0  0  0  0  0  0  0  0
    1.9488   -2.4230    0.4031 C   0  0  0  0  0  0  0  0  0  0  0  0
    0.4322   -2.4773    0.2437 C   0  0  0  0  0  0  0  0  0  0  0  0
   -0.1178   -3.5523    0.0200 O   0  0  0  0  0  0  0  0  0  0  0  0
   -0.2037   -1.2690    0.4677 N   0  0  0  0  0  0  0  0  0  0  0  0
   -1.5716   -1.0582    0.4015 C   0  0  0  0  0  0  0  0  0  0  0  0
   -2.6177   -1.8856    0.0586 C   0  0  0  0  0  0  0  0  0  0  0  0
   -3.7721   -1.1219    0.1997 C   0  0  0  0  0  0  0  0  0  0  0  0
   -3.5367    0.1126    0.6152 N   0  0  0  0  0  0  0  0  0  0  0  0
   -2.1775    0.1729    0.6938 N   0  0  0  0  0  0  0  0  0  0  0  0
   -1.5547    1.4660    1.0623 C   0  0  0  0  0  0  0  0  0  0  0  0
   -2.6235    2.5681    1.2983 C   0  0  0  0  0  0  0  0  0  0  0  0
   -0.6486    1.9706   -0.0782 C   0  0  0  0  0  0  0  0  0  0  0  0
   -0.7624    1.3351    2.3796 C   0  0  0  0  0  0  0  0  0  0  0  0
   -5.0709   -1.7341   -0.0954 C   0  0  0  0  0  0  0  0  0  0  0  0
   -4.6538   -3.4322   -0.7277 S   0  0  0  0  0  3  0  0  0  0  0  0
   -4.8589   -3.4081   -2.3758 O   0  0  0  0  0  1  0  0  0  0  0  0
   -2.8165   -3.2703   -0.3874 C   0  0  0  0  0  0  0  0  0  0  0  0
    2.5601   -0.8263   -1.4571 C   0  0  0  0  0  0  0  0  0  0  0  0
    3.1582    0.3482   -1.9125 C   0  0  0  0  0  0  0  0  0  0  0  0
    4.4188    3.6875   -0.0563 H   0  0  0  0  0  0  0  0  0  0  0  0
    5.9112    2.6884   -0.2560 H   0  0  0  0  0  0  0  0  0  0  0  0
    5.5299    3.9681   -1.4084 H   0  0  0  0  0  0  0  0  0  0  0  0
    4.3616    1.5157    1.0518 H   0  0  0  0  0  0  0  0  0  0  0  0
    3.3274   -0.5373    1.8472 H   0  0  0  0  0  0  0  0  0  0  0  0
    2.1657   -2.5688    1.4693 H   0  0  0  0  0  0  0  0  0  0  0  0
    2.3864   -3.2777   -0.1306 H   0  0  0  0  0  0  0  0  0  0  0  0
    0.3922   -0.4825    0.6826 H   0  0  0  0  0  0  0  0  0  0  0  0
   -3.2248    2.7471    0.3973 H   0  0  0  0  0  0  0  0  0  0  0  0
   -2.1549    3.5219    1.5716 H   0  0  0  0  0  0  0  0  0  0  0  0
   -3.3070    2.2962    2.1123 H   0  0  0  0  0  0  0  0  0  0  0  0
   -1.2091    2.0505   -1.0181 H   0  0  0  0  0  0  0  0  0  0  0  0
   -0.2384    2.9609    0.1504 H   0  0  0  0  0  0  0  0  0  0  0  0
    0.2021    1.3135   -0.2664 H   0  0  0  0  0  0  0  0  0  0  0  0
   -1.3893    0.9180    3.1727 H   0  0  0  0  0  0  0  0  0  0  0  0
    0.1158    0.6945    2.2924 H   0  0  0  0  0  0  0  0  0  0  0  0
   -0.4022    2.3107    2.7200 H   0  0  0  0  0  0  0  0  0  0  0  0
   -5.6290   -1.2044   -0.8716 H   0  0  0  0  0  0  0  0  0  0  0  0
   -5.6838   -1.8612    0.7994 H   0  0  0  0  0  0  0  0  0  0  0  0
   -2.2935   -3.5128   -1.3138 H   0  0  0  0  0  0  0  0  0  0  0  0
   -2.5899   -3.9946    0.3994 H   0  0  0  0  0  0  0  0  0  0  0  0
    2.0660   -1.4762   -2.1718 H   0  0  0  0  0  0  0  0  0  0  0  0
    3.1224    0.5945   -2.9706 H   0  0  0  0  0  0  0  0  0  0  0  0
  1  2  1  0
  2  3  1  0
  3  4  2  0
  4  5  1  0
  5  6  2  0
  6  7  1  0
  7  8  1  0
  8  9  2  0
  8 10  1  0
 10 11  1  0
 11 12  2  0
 12 13  1  0
 13 14  2  0
 14 15  1  0
 15 16  1  0
 16 17  1  0
 16 18  1  0
 16 19  1  0
 13 20  1  0
 20 21  1  0
 21 22  1  0
 21 23  1  0
  6 24  1  0
 24 25  2  0
 25  3  1  0
 15 11  1  0
 23 12  1  0
  1 26  1  0
  1 27  1  0
  1 28  1  0
  4 29  1  0
  5 30  1  0
  7 31  1  0
  7 32  1  0
 10 33  1  0
 17 34  1  0
 17 35  1  0
 17 36  1  0
 18 37  1  0
 18 38  1  0
 18 39  1  0
 19 40  1  0
 19 41  1  0
 19 42  1  0
 20 43  1  0
 20 44  1  0
 23 45  1  0
 23 46  1  0
 24 47  1  0
 25 48  1  0
M  CHG  2  21   1  22  -1
M  END
$$$$
