
     RDKit          3D

 50 52  0  0  0  0  0  0  0  0999 V2000
    2.1246   -1.8260   -0.4175 O   0  0  0  0  0  0  0  0  0  0  0  0
    2.0846   -0.7995   -1.4212 C   0  0  0  0  0  0  0  0  0  0  0  0
    3.4261   -0.8273   -2.1725 C   0  0  0  0  0  0  0  0  0  0  0  0
    4.5057   -0.6649   -1.2425 O   0  0  0  0  0  0  0  0  0  0  0  0
    4.8376    0.7066   -1.0168 C   0  0  0  0  0  0  0  0  0  0  0  0
    5.8899    0.7286    0.0443 C   0  0  0  0  0  0  0  0  0  0  0  0
    5.8634    0.1412    1.2952 C   0  0  0  0  0  0  0  0  0  0  0  0
    7.0507    0.3932    2.0405 C   0  0  0  0  0  0  0  0  0  0  0  0
    7.9438    1.1696    1.3376 C   0  0  0  0  0  0  0  0  0  0  0  0
    7.3499    1.5907   -0.2086 S   0  0  0  0  0  0  0  0  0  0  0  0
    0.9123   -1.0416   -2.4000 C   0  0  0  0  0  0  0  0  0  0  0  0
   -0.4612   -0.7562   -1.9473 N   0  0  0  0  0  0  0  0  0  0  0  0
   -0.8415   -1.5081   -0.7335 C   0  0  0  0  0  0  0  0  0  0  0  0
   -2.3206   -1.2766   -0.3381 C   0  0  0  0  0  0  0  0  0  0  0  0
   -2.5983    0.1748   -0.1725 N   0  0  0  0  0  0  0  0  0  0  0  0
   -3.8439    0.4514    0.4113 C   0  0  0  0  0  0  0  0  0  0  0  0
   -4.8445    1.2079   -0.2139 C   0  0  0  0  0  0  0  0  0  0  0  0
   -6.0664    1.4706    0.4156 C   0  0  0  0  0  0  0  0  0  0  0  0
   -6.3132    0.9859    1.6962 C   0  0  0  0  0  0  0  0  0  0  0  0
   -5.3380    0.2337    2.3585 C   0  0  0  0  0  0  0  0  0  0  0  0
   -5.5671   -0.2683    3.7600 C   0  0  0  0  0  0  0  0  0  0  0  0
   -5.0579    0.5706    4.7040 F   0  0  0  0  0  0  0  0  0  0  0  0
   -6.8873   -0.4165    4.0680 F   0  0  0  0  0  0  0  0  0  0  0  0
   -4.9969   -1.4840    3.9933 F   0  0  0  0  0  0  0  0  0  0  0  0
   -4.1138   -0.0128    1.7104 C   0  0  0  0  0  0  0  0  0  0  0  0
   -2.1979    0.9539   -1.3635 C   0  0  0  0  0  0  0  0  0  0  0  0
   -0.7176    0.6794   -1.7251 C   0  0  0  0  0  0  0  0  0  0  0  0
    3.0322   -1.8072   -0.0542 H   0  0  0  0  0  0  0  0  0  0  0  0
    1.9742    0.1549   -0.8989 H   0  0  0  0  0  0  0  0  0  0  0  0
    3.5674   -1.8121   -2.6314 H   0  0  0  0  0  0  0  0  0  0  0  0
    3.4733   -0.0719   -2.9651 H   0  0  0  0  0  0  0  0  0  0  0  0
    3.9600    1.2615   -0.6696 H   0  0  0  0  0  0  0  0  0  0  0  0
    5.1924    1.1493   -1.9539 H   0  0  0  0  0  0  0  0  0  0  0  0
    5.0299   -0.4503    1.6545 H   0  0  0  0  0  0  0  0  0  0  0  0
    7.2407    0.0220    3.0400 H   0  0  0  0  0  0  0  0  0  0  0  0
    8.9188    1.5112    1.6572 H   0  0  0  0  0  0  0  0  0  0  0  0
    0.9360   -2.0935   -2.7147 H   0  0  0  0  0  0  0  0  0  0  0  0
    1.0818   -0.4563   -3.3130 H   0  0  0  0  0  0  0  0  0  0  0  0
   -0.2187   -1.2102    0.1183 H   0  0  0  0  0  0  0  0  0  0  0  0
   -0.6954   -2.5815   -0.9011 H   0  0  0  0  0  0  0  0  0  0  0  0
   -2.5064   -1.8336    0.5871 H   0  0  0  0  0  0  0  0  0  0  0  0
   -2.9794   -1.6910   -1.1128 H   0  0  0  0  0  0  0  0  0  0  0  0
   -4.7044    1.6016   -1.2159 H   0  0  0  0  0  0  0  0  0  0  0  0
   -6.8232    2.0573   -0.0988 H   0  0  0  0  0  0  0  0  0  0  0  0
   -7.2652    1.2018    2.1779 H   0  0  0  0  0  0  0  0  0  0  0  0
   -3.3403   -0.5609    2.2476 H   0  0  0  0  0  0  0  0  0  0  0  0
   -2.8301    0.6929   -2.2222 H   0  0  0  0  0  0  0  0  0  0  0  0
   -2.3038    2.0280   -1.1670 H   0  0  0  0  0  0  0  0  0  0  0  0
   -0.0809    1.0703   -0.9222 H   0  0  0  0  0  0  0  0  0  0  0  0
   -0.4817    1.2412   -2.6366 H   0  0  0  0  0  0  0  0  0  0  0  0
  1  2  1  0
  2  3  1  0
  3  4  1  0
  4  5  1  0
  5  6  1  0
  6  7  2  0
  7  8  1  0
  8  9  2  0
  9 10  1  0
  2 11  1  0
 11 12  1  0
 12 13  1  0
 13 14  1  0
 14 15  1  0
 15 16  1  0
 16 17  2  0
 17 18  1  0
 18 19  2  0
 19 20  1  0
 20 21  1  0
 21 22  1  0
 21 23  1  0
 21 24  1  0
 20 25  2  0
 15 26  1  0
 26 27  1  0
 10  6  1  0
 27 12  1  0
 25 16  1  0
  1 28  1  0
  2 29  1  0
  3 30  1  0
  3 31  1  0
  5 32  1  0
  5 33  1  0
  7 34  1  0
  8 35  1  0
  9 36  1  0
 11 37  1  0
 11 38  1  0
 13 39  1  0
 13 40  1  0
 14 41  1  0
 14 42  1  0
 17 43  1  0
 18 44  1  0
 19 45  1  0
 25 46  1  0
 26 47  1  0
 26 48  1  0
 27 49  1  0
 27 50  1  0
M  END
$$$$
