
     RDKit          3D

 65 69  0  0  0  0  0  0  0  0999 V2000
    5.4820   -2.5346   -1.8973 C   0  0  0  0  0  0  0  0  0  0  0  0
    4.9440   -1.2967   -1.4513 O   0  0  0  0  0  0  0  0  0  0  0  0
    3.5875   -1.2166   -1.2760 C   0  0  0  0  0  0  0  0  0  0  0  0
    2.7024   -2.2823   -1.4549 C   0  0  0  0  0  0  0  0  0  0  0  0
    1.3307   -2.1145   -1.2428 C   0  0  0  0  0  0  0  0  0  0  0  0
    0.8055   -0.8746   -0.8572 C   0  0  0  0  0  0  0  0  0  0  0  0
   -0.7015   -0.7405   -0.6538 C   0  0  0  0  0  0  0  0  0  0  0  0
   -1.3866   -0.3069   -1.9621 C   0  0  0  0  0  0  0  0  0  0  0  0
   -1.0431    1.0640   -2.3735 C   0  0  0  0  0  0  0  0  0  0  0  0
   -0.7332    2.1454   -2.6584 N   0  0  0  0  0  0  0  0  0  0  0  0
   -2.8953   -0.4076   -1.7699 C   0  0  0  0  0  0  0  0  0  0  0  0
   -3.6212   -0.8370   -2.7639 N   0  0  0  0  0  0  0  0  0  0  0  0
   -3.4390   -0.0381   -0.5217 N   0  0  0  0  0  0  0  0  0  0  0  0
   -4.8615   -0.2187   -0.3734 C   0  0  0  0  0  0  0  0  0  0  0  0
   -5.3407   -1.2892    0.4095 C   0  0  0  0  0  0  0  0  0  0  0  0
   -6.7108   -1.5065    0.5626 C   0  0  0  0  0  0  0  0  0  0  0  0
   -7.6240   -0.6624   -0.0637 C   0  0  0  0  0  0  0  0  0  0  0  0
   -7.1686    0.4020   -0.8442 C   0  0  0  0  0  0  0  0  0  0  0  0
   -5.7932    0.6302   -1.0043 C   0  0  0  0  0  0  0  0  0  0  0  0
   -5.3685    1.7618   -1.7760 C   0  0  0  0  0  0  0  0  0  0  0  0
   -5.0453    2.7043   -2.3703 N   0  0  0  0  0  0  0  0  0  0  0  0
   -2.6633    0.3209    0.6079 C   0  0  0  0  0  0  0  0  0  0  0  0
   -3.1645    0.8044    1.7699 C   0  0  0  0  0  0  0  0  0  0  0  0
   -2.3700    1.1100    3.0130 C   0  0  0  0  0  0  0  0  0  0  0  0
   -0.9043    0.6862    2.9863 C   0  0  0  0  0  0  0  0  0  0  0  0
   -0.6728   -0.2988    1.8677 C   0  0  0  0  0  0  0  0  0  0  0  0
   -0.1435   -1.3896    2.0701 O   0  0  0  0  0  0  0  0  0  0  0  0
   -1.1449    0.1828    0.4991 C   0  0  0  0  0  0  0  0  0  0  0  0
    1.6951    0.1958   -0.6986 C   0  0  0  0  0  0  0  0  0  0  0  0
    3.0840    0.0372   -0.8851 C   0  0  0  0  0  0  0  0  0  0  0  0
    3.9955    1.2341   -0.6711 C   0  0  0  0  0  0  0  0  0  0  0  0
    4.4553    1.4973    0.6936 N   0  0  0  0  0  0  0  0  0  0  0  0
    3.4342    1.8215    1.6772 C   0  0  0  0  0  0  0  0  0  0  0  0
    4.2386    1.8671    2.9679 C   0  0  0  0  0  0  0  0  0  0  0  0
    5.4202    0.9281    2.7307 C   0  0  0  0  0  0  0  0  0  0  0  0
    5.2683    0.4472    1.2935 C   0  0  0  0  0  0  0  0  0  0  0  0
    5.2484   -3.3469   -1.2046 H   0  0  0  0  0  0  0  0  0  0  0  0
    6.5695   -2.4346   -1.9289 H   0  0  0  0  0  0  0  0  0  0  0  0
    5.1347   -2.7664   -2.9084 H   0  0  0  0  0  0  0  0  0  0  0  0
    3.0475   -3.2663   -1.7518 H   0  0  0  0  0  0  0  0  0  0  0  0
    0.6790   -2.9762   -1.3732 H   0  0  0  0  0  0  0  0  0  0  0  0
   -1.0707   -1.7485   -0.4054 H   0  0  0  0  0  0  0  0  0  0  0  0
   -1.0964   -0.9962   -2.7662 H   0  0  0  0  0  0  0  0  0  0  0  0
   -3.0664   -1.0388   -3.6020 H   0  0  0  0  0  0  0  0  0  0  0  0
   -4.6390   -1.9670    0.8918 H   0  0  0  0  0  0  0  0  0  0  0  0
   -7.0641   -2.3405    1.1647 H   0  0  0  0  0  0  0  0  0  0  0  0
   -8.6914   -0.8355    0.0505 H   0  0  0  0  0  0  0  0  0  0  0  0
   -7.8930    1.0547   -1.3278 H   0  0  0  0  0  0  0  0  0  0  0  0
   -4.2340    0.9760    1.8782 H   0  0  0  0  0  0  0  0  0  0  0  0
   -2.4352    2.1850    3.2275 H   0  0  0  0  0  0  0  0  0  0  0  0
   -2.8614    0.6032    3.8552 H   0  0  0  0  0  0  0  0  0  0  0  0
   -0.6192    0.2348    3.9437 H   0  0  0  0  0  0  0  0  0  0  0  0
   -0.2487    1.5499    2.8214 H   0  0  0  0  0  0  0  0  0  0  0  0
   -0.7277    1.1880    0.3530 H   0  0  0  0  0  0  0  0  0  0  0  0
    1.3334    1.1863   -0.4295 H   0  0  0  0  0  0  0  0  0  0  0  0
    4.8702    1.1539   -1.3284 H   0  0  0  0  0  0  0  0  0  0  0  0
    3.4784    2.1297   -1.0421 H   0  0  0  0  0  0  0  0  0  0  0  0
    2.9445    2.7766    1.4722 H   0  0  0  0  0  0  0  0  0  0  0  0
    2.6687    1.0427    1.7604 H   0  0  0  0  0  0  0  0  0  0  0  0
    3.6388    1.5558    3.8291 H   0  0  0  0  0  0  0  0  0  0  0  0
    4.6061    2.8822    3.1628 H   0  0  0  0  0  0  0  0  0  0  0  0
    5.4161    0.0903    3.4352 H   0  0  0  0  0  0  0  0  0  0  0  0
    6.3632    1.4705    2.8683 H   0  0  0  0  0  0  0  0  0  0  0  0
    4.7625   -0.5257    1.2945 H   0  0  0  0  0  0  0  0  0  0  0  0
    6.2388    0.3371    0.8011 H   0  0  0  0  0  0  0  0  0  0  0  0
  1  2  1  0
  2  3  1  0
  3  4  2  0
  4  5  1  0
  5  6  2  0
  6  7  1  0
  7  8  1  0
  8  9  1  0
  9 10  3  0
  8 11  1  0
 11 12  2  3
 11 13  1  0
 13 14  1  0
 14 15  2  0
 15 16  1  0
 16 17  2  0
 17 18  1  0
 18 19  2  0
 19 20  1  0
 20 21  3  0
 13 22  1  0
 22 23  2  0
 23 24  1  0
 24 25  1  0
 25 26  1  0
 26 27  2  0
 26 28  1  0
  6 29  1  0
 29 30  2  0
 30 31  1  0
 31 32  1  0
 32 33  1  0
 33 34  1  0
 34 35  1  0
 35 36  1  0
 30  3  1  0
 36 32  1  0
 28  7  1  0
 19 14  1  0
 28 22  1  0
  1 37  1  0
  1 38  1  0
  1 39  1  0
  4 40  1  0
  5 41  1  0
  7 42  1  0
  8 43  1  0
 12 44  1  0
 15 45  1  0
 16 46  1  0
 17 47  1  0
 18 48  1  0
 23 49  1  0
 24 50  1  0
 24 51  1  0
 25 52  1  0
 25 53  1  0
 28 54  1  0
 29 55  1  0
 31 56  1  0
 31 57  1  0
 33 58  1  0
 33 59  1  0
 34 60  1  0
 34 61  1  0
 35 62  1  0
 35 63  1  0
 36 64  1  0
 36 65  1  0
M  END
$$$$
