
     RDKit          3D

 51 54  0  0  0  0  0  0  0  0999 V2000
    2.8212    2.1257   -1.2846 C   0  0  0  0  0  0  0  0  0  0  0  0
    2.7383    0.6101   -1.5109 C   0  0  0  0  0  0  0  0  0  0  0  0
    1.5475    0.2779   -2.4353 C   0  0  0  0  0  0  0  0  0  0  0  0
    0.5228   -0.1870   -1.4481 C   0  0  0  0  0  0  0  0  0  0  0  0
   -0.8196   -0.4402   -1.6882 C   0  0  0  0  0  0  0  0  0  0  0  0
   -1.5790   -0.9603   -0.6368 C   0  0  0  0  0  0  0  0  0  0  0  0
   -3.3078   -1.2936   -0.8718 S   0  0  0  0  0  6  0  0  0  0  0  0
   -3.7076   -0.7584   -2.1574 O   0  0  0  0  0  0  0  0  0  0  0  0
   -3.5207   -2.6851   -0.5379 O   0  0  0  0  0  0  0  0  0  0  0  0
   -4.0498   -0.3233    0.3325 N   0  0  0  0  0  0  0  0  0  0  0  0
   -3.8875    1.1451    0.1327 C   0  0  0  0  0  0  0  0  0  0  0  0
   -4.3572    1.8813    1.3846 C   0  0  0  0  0  0  0  0  0  0  0  0
   -5.8046    1.5332    1.7186 C   0  0  0  0  0  0  0  0  0  0  0  0
   -5.9858    0.0217    1.8171 C   0  0  0  0  0  0  0  0  0  0  0  0
   -5.4784   -0.6829    0.5613 C   0  0  0  0  0  0  0  0  0  0  0  0
   -1.0003   -1.2382    0.6136 C   0  0  0  0  0  0  0  0  0  0  0  0
    0.3575   -0.9818    0.8320 C   0  0  0  0  0  0  0  0  0  0  0  0
    1.1076   -0.4457   -0.2031 C   0  0  0  0  0  0  0  0  0  0  0  0
    2.4778   -0.1051   -0.2350 N   0  0  0  0  0  0  0  0  0  0  0  0
    3.4035   -0.3867    0.7683 C   0  0  0  0  0  0  0  0  0  0  0  0
    3.0793   -0.8559    1.8662 O   0  0  0  0  0  0  0  0  0  0  0  0
    4.9013   -0.1144    0.4168 C   0  0  0  0  0  0  0  0  0  0  0  0
    5.9674   -0.4252    1.5074 C   0  0  0  0  0  0  0  0  0  0  0  0
    6.1704   -1.7980    0.8444 C   0  0  0  0  0  0  0  0  0  0  0  0
    5.6224   -1.1824   -0.4543 C   0  0  0  0  0  0  0  0  0  0  0  0
    3.0187    2.6435   -2.2291 H   0  0  0  0  0  0  0  0  0  0  0  0
    3.6164    2.3924   -0.5840 H   0  0  0  0  0  0  0  0  0  0  0  0
    1.8859    2.5202   -0.8715 H   0  0  0  0  0  0  0  0  0  0  0  0
    3.6771    0.2618   -1.9534 H   0  0  0  0  0  0  0  0  0  0  0  0
    1.2068    1.1336   -3.0256 H   0  0  0  0  0  0  0  0  0  0  0  0
    1.8027   -0.5509   -3.1051 H   0  0  0  0  0  0  0  0  0  0  0  0
   -1.2580   -0.2540   -2.6642 H   0  0  0  0  0  0  0  0  0  0  0  0
   -2.8362    1.3952   -0.0373 H   0  0  0  0  0  0  0  0  0  0  0  0
   -4.4649    1.4745   -0.7390 H   0  0  0  0  0  0  0  0  0  0  0  0
   -3.7147    1.6111    2.2320 H   0  0  0  0  0  0  0  0  0  0  0  0
   -4.2612    2.9627    1.2375 H   0  0  0  0  0  0  0  0  0  0  0  0
   -6.4672    1.9325    0.9410 H   0  0  0  0  0  0  0  0  0  0  0  0
   -6.0942    2.0065    2.6633 H   0  0  0  0  0  0  0  0  0  0  0  0
   -5.4382   -0.3509    2.6920 H   0  0  0  0  0  0  0  0  0  0  0  0
   -7.0441   -0.2150    1.9735 H   0  0  0  0  0  0  0  0  0  0  0  0
   -5.5770   -1.7628    0.7126 H   0  0  0  0  0  0  0  0  0  0  0  0
   -6.0820   -0.3987   -0.3086 H   0  0  0  0  0  0  0  0  0  0  0  0
   -1.6049   -1.6570    1.4160 H   0  0  0  0  0  0  0  0  0  0  0  0
    0.7900   -1.2009    1.8024 H   0  0  0  0  0  0  0  0  0  0  0  0
    5.0454    0.9021    0.0358 H   0  0  0  0  0  0  0  0  0  0  0  0
    6.8490    0.2249    1.4532 H   0  0  0  0  0  0  0  0  0  0  0  0
    5.6199   -0.4509    2.5435 H   0  0  0  0  0  0  0  0  0  0  0  0
    7.2014   -2.1578    0.8020 H   0  0  0  0  0  0  0  0  0  0  0  0
    5.5343   -2.5875    1.2606 H   0  0  0  0  0  0  0  0  0  0  0  0
    4.9812   -1.8421   -1.0453 H   0  0  0  0  0  0  0  0  0  0  0  0
    6.3954   -0.7632   -1.1090 H   0  0  0  0  0  0  0  0  0  0  0  0
  1  2  1  0
  2  3  1  0
  3  4  1  0
  4  5  2  0
  5  6  1  0
  6  7  1  0
  7  8  2  0
  7  9  2  0
  7 10  1  0
 10 11  1  0
 11 12  1  0
 12 13  1  0
 13 14  1  0
 14 15  1  0
  6 16  2  0
 16 17  1  0
 17 18  2  0
 18 19  1  0
 19 20  1  0
 20 21  2  0
 20 22  1  0
 22 23  1  0
 23 24  1  0
 24 25  1  0
 19  2  1  0
 25 22  1  0
 18  4  1  0
 15 10  1  0
  1 26  1  0
  1 27  1  0
  1 28  1  0
  2 29  1  0
  3 30  1  0
  3 31  1  0
  5 32  1  0
 11 33  1  0
 11 34  1  0
 12 35  1  0
 12 36  1  0
 13 37  1  0
 13 38  1  0
 14 39  1  0
 14 40  1  0
 15 41  1  0
 15 42  1  0
 16 43  1  0
 17 44  1  0
 22 45  1  0
 23 46  1  0
 23 47  1  0
 24 48  1  0
 24 49  1  0
 25 50  1  0
 25 51  1  0
M  END
$$$$
