
     RDKit          3D

 61 65  0  0  0  0  0  0  0  0999 V2000
   -9.6132    0.0710    3.0306 C   0  0  0  0  0  0  0  0  0  0  0  0
   -9.5107    0.2049    1.6186 O   0  0  0  0  0  0  0  0  0  0  0  0
   -8.2713    0.0299    1.0688 C   0  0  0  0  0  0  0  0  0  0  0  0
   -7.0891   -0.2092    1.7670 C   0  0  0  0  0  0  0  0  0  0  0  0
   -5.8803   -0.3660    1.0759 C   0  0  0  0  0  0  0  0  0  0  0  0
   -5.8405   -0.2809   -0.3241 C   0  0  0  0  0  0  0  0  0  0  0  0
   -4.5988   -0.4428   -1.0206 N   0  0  0  0  0  0  0  0  0  0  0  0
   -4.4242   -1.0123   -2.2823 C   0  0  0  0  0  0  0  0  0  0  0  0
   -5.4411   -1.4367   -3.0313 O   0  0  0  0  0  0  0  0  0  0  0  0
   -3.0713   -1.1166   -2.5235 C   0  0  0  0  0  0  0  0  0  0  0  0
   -2.3795   -0.5572   -1.4272 C   0  0  0  0  0  0  0  0  0  0  0  0
   -1.0250   -0.4588   -1.3018 N   0  0  0  0  0  0  0  0  0  0  0  0
   -0.3899   -0.1205   -0.0152 C   0  0  0  0  0  0  0  0  0  0  0  0
    1.0605   -0.6483    0.0847 C   0  0  0  0  0  0  0  0  0  0  0  0
    1.9042   -0.1903   -1.0345 N   0  0  0  0  0  0  0  0  0  0  0  0
    3.2676   -0.0052   -0.8910 C   0  0  0  0  0  0  0  0  0  0  0  0
    4.0001   -0.6626    0.1122 C   0  0  0  0  0  0  0  0  0  0  0  0
    5.3813   -0.4815    0.2703 C   0  0  0  0  0  0  0  0  0  0  0  0
    6.0689    0.3858   -0.5768 C   0  0  0  0  0  0  0  0  0  0  0  0
    7.5298    0.6094   -0.4542 C   0  0  0  0  0  0  0  0  0  0  0  0
    8.2032    0.7328   -1.4739 O   0  0  0  0  0  0  0  0  0  0  0  0
    8.1956    0.6949    0.8636 C   0  0  0  0  0  0  0  0  0  0  0  0
    7.5637    1.1850    2.0088 C   0  0  0  0  0  0  0  0  0  0  0  0
    8.2731    1.2425    3.2073 C   0  0  0  0  0  0  0  0  0  0  0  0
    9.5931    0.8173    3.2150 C   0  0  0  0  0  0  0  0  0  0  0  0
   10.2380    0.3546    2.1220 N   0  0  0  0  0  0  0  0  0  0  0  0
    9.5283    0.3148    0.9664 C   0  0  0  0  0  0  0  0  0  0  0  0
    5.3772    1.0308   -1.6001 C   0  0  0  0  0  0  0  0  0  0  0  0
    3.9974    0.8374   -1.7459 C   0  0  0  0  0  0  0  0  0  0  0  0
    1.1999    0.1415   -2.2850 C   0  0  0  0  0  0  0  0  0  0  0  0
   -0.1140   -0.6585   -2.4393 C   0  0  0  0  0  0  0  0  0  0  0  0
   -3.3320   -0.0801   -0.5416 C   0  0  0  0  0  0  0  0  0  0  0  0
   -3.1487    0.6648    0.5569 O   0  0  0  0  0  0  0  0  0  0  0  0
   -7.0310   -0.0555   -1.0211 C   0  0  0  0  0  0  0  0  0  0  0  0
   -8.2336    0.1049   -0.3245 C   0  0  0  0  0  0  0  0  0  0  0  0
   -9.0255    0.8398    3.5435 H   0  0  0  0  0  0  0  0  0  0  0  0
  -10.6626    0.2160    3.3046 H   0  0  0  0  0  0  0  0  0  0  0  0
   -9.3201   -0.9332    3.3551 H   0  0  0  0  0  0  0  0  0  0  0  0
   -7.0716   -0.2939    2.8487 H   0  0  0  0  0  0  0  0  0  0  0  0
   -4.9897   -0.6069    1.6533 H   0  0  0  0  0  0  0  0  0  0  0  0
   -5.0658   -1.8608   -3.8235 H   0  0  0  0  0  0  0  0  0  0  0  0
   -2.6335   -1.5653   -3.4032 H   0  0  0  0  0  0  0  0  0  0  0  0
   -0.3895    0.9701    0.1042 H   0  0  0  0  0  0  0  0  0  0  0  0
   -0.9467   -0.5581    0.8218 H   0  0  0  0  0  0  0  0  0  0  0  0
    1.0508   -1.7448    0.0922 H   0  0  0  0  0  0  0  0  0  0  0  0
    1.4640   -0.3057    1.0450 H   0  0  0  0  0  0  0  0  0  0  0  0
    3.5068   -1.3652    0.7786 H   0  0  0  0  0  0  0  0  0  0  0  0
    5.8985   -1.0438    1.0431 H   0  0  0  0  0  0  0  0  0  0  0  0
    6.5374    1.5404    1.9819 H   0  0  0  0  0  0  0  0  0  0  0  0
    7.8102    1.6178    4.1144 H   0  0  0  0  0  0  0  0  0  0  0  0
   10.1857    0.8447    4.1253 H   0  0  0  0  0  0  0  0  0  0  0  0
   10.0808   -0.0463    0.1016 H   0  0  0  0  0  0  0  0  0  0  0  0
    5.9028    1.6906   -2.2872 H   0  0  0  0  0  0  0  0  0  0  0  0
    3.4992    1.3845   -2.5417 H   0  0  0  0  0  0  0  0  0  0  0  0
    0.9798    1.2160   -2.2979 H   0  0  0  0  0  0  0  0  0  0  0  0
    1.8255   -0.0904   -3.1553 H   0  0  0  0  0  0  0  0  0  0  0  0
    0.1132   -1.7283   -2.5249 H   0  0  0  0  0  0  0  0  0  0  0  0
   -0.5841   -0.3399   -3.3771 H   0  0  0  0  0  0  0  0  0  0  0  0
   -3.9496    1.2020    0.6926 H   0  0  0  0  0  0  0  0  0  0  0  0
   -7.0519    0.0329   -2.1039 H   0  0  0  0  0  0  0  0  0  0  0  0
   -9.1518    0.2888   -0.8777 H   0  0  0  0  0  0  0  0  0  0  0  0
  1  2  1  0
  2  3  1  0
  3  4  2  0
  4  5  1  0
  5  6  2  0
  6  7  1  0
  7  8  1  0
  8  9  1  0
  8 10  2  0
 10 11  1  0
 11 12  1  0
 12 13  1  0
 13 14  1  0
 14 15  1  0
 15 16  1  0
 16 17  2  0
 17 18  1  0
 18 19  2  0
 19 20  1  0
 20 21  2  0
 20 22  1  0
 22 23  2  0
 23 24  1  0
 24 25  2  0
 25 26  1  0
 26 27  2  0
 19 28  1  0
 28 29  2  0
 15 30  1  0
 30 31  1  0
 11 32  2  0
 32 33  1  0
  6 34  1  0
 34 35  2  0
 35  3  1  0
 32  7  1  0
 31 12  1  0
 29 16  1  0
 27 22  1  0
  1 36  1  0
  1 37  1  0
  1 38  1  0
  4 39  1  0
  5 40  1  0
  9 41  1  0
 10 42  1  0
 13 43  1  0
 13 44  1  0
 14 45  1  0
 14 46  1  0
 17 47  1  0
 18 48  1  0
 23 49  1  0
 24 50  1  0
 25 51  1  0
 27 52  1  0
 28 53  1  0
 29 54  1  0
 30 55  1  0
 30 56  1  0
 31 57  1  0
 31 58  1  0
 33 59  1  0
 34 60  1  0
 35 61  1  0
M  END
$$$$
