
     RDKit          3D

 37 39  0  0  0  0  0  0  0  0999 V2000
    0.1871    0.2877   -1.2311 O   0  0  0  0  0  0  0  0  0  0  0  0
    0.6499    0.2109   -0.0991 C   0  0  0  0  0  0  0  0  0  0  0  0
    2.1152    0.2667    0.1717 C   0  0  0  0  0  0  0  0  0  0  0  0
    3.0096    0.3295   -0.8250 C   0  0  0  0  0  0  0  0  0  0  0  0
    4.4661    0.4069   -0.6719 C   0  0  0  0  0  0  0  0  0  0  0  0
    5.1381    1.5623   -1.0889 C   0  0  0  0  0  0  0  0  0  0  0  0
    6.5261    1.6555   -0.9647 C   0  0  0  0  0  0  0  0  0  0  0  0
    7.2519    0.5922   -0.4289 C   0  0  0  0  0  0  0  0  0  0  0  0
    6.5849   -0.5620   -0.0227 C   0  0  0  0  0  0  0  0  0  0  0  0
    7.5685   -2.0074    0.6975 Br  0  0  0  0  0  0  0  0  0  0  0  0
    5.1987   -0.6629   -0.1443 C   0  0  0  0  0  0  0  0  0  0  0  0
    2.4211    0.2807    1.8624 S   0  0  0  0  0  0  0  0  0  0  0  0
    0.7126    0.2022    2.2701 C   0  0  0  0  0  0  0  0  0  0  0  0
    0.1636    0.2202    3.8487 S   0  0  0  0  0  0  0  0  0  0  0  0
   -0.0419    0.1075    1.1084 N   0  0  0  0  0  0  0  0  0  0  0  0
   -1.4274    0.1027    1.2129 N   0  0  0  0  0  0  0  0  0  0  0  0
   -2.1340   -0.3665    0.2343 C   0  0  0  0  0  0  0  0  0  0  0  0
   -3.6136   -0.3409    0.2837 C   0  0  0  0  0  0  0  0  0  0  0  0
   -4.3090   -0.8359   -0.8261 C   0  0  0  0  0  0  0  0  0  0  0  0
   -5.7124   -0.8259   -0.8190 C   0  0  0  0  0  0  0  0  0  0  0  0
   -6.4468   -1.3458   -1.9800 N   0  0  0  0  0  4  0  0  0  0  0  0
   -5.7822   -1.8230   -2.9104 O   0  0  0  0  0  0  0  0  0  0  0  0
   -7.6832   -1.2779   -1.9590 O   0  0  0  0  0  1  0  0  0  0  0  0
   -6.4207   -0.3271    0.2822 C   0  0  0  0  0  0  0  0  0  0  0  0
   -5.7182    0.1642    1.3837 C   0  0  0  0  0  0  0  0  0  0  0  0
   -4.3234    0.1568    1.3847 C   0  0  0  0  0  0  0  0  0  0  0  0
   -3.7246    0.6540    2.5077 O   0  0  0  0  0  0  0  0  0  0  0  0
    2.6663    0.3484   -1.8590 H   0  0  0  0  0  0  0  0  0  0  0  0
    4.5870    2.4015   -1.5087 H   0  0  0  0  0  0  0  0  0  0  0  0
    7.0412    2.5578   -1.2855 H   0  0  0  0  0  0  0  0  0  0  0  0
    8.3317    0.6721   -0.3343 H   0  0  0  0  0  0  0  0  0  0  0  0
    4.6933   -1.5725    0.1700 H   0  0  0  0  0  0  0  0  0  0  0  0
   -1.6949   -0.8348   -0.6621 H   0  0  0  0  0  0  0  0  0  0  0  0
   -3.7634   -1.2199   -1.6861 H   0  0  0  0  0  0  0  0  0  0  0  0
   -7.5090   -0.3136    0.3001 H   0  0  0  0  0  0  0  0  0  0  0  0
   -6.2563    0.5536    2.2456 H   0  0  0  0  0  0  0  0  0  0  0  0
   -2.7518    0.5828    2.4041 H   0  0  0  0  0  0  0  0  0  0  0  0
  1  2  2  0
  2  3  1  0
  3  4  2  3
  4  5  1  0
  5  6  2  0
  6  7  1  0
  7  8  2  0
  8  9  1  0
  9 10  1  0
  9 11  2  0
  3 12  1  0
 12 13  1  0
 13 14  2  0
 13 15  1  0
 15 16  1  0
 16 17  2  3
 17 18  1  0
 18 19  2  0
 19 20  1  0
 20 21  1  0
 21 22  2  0
 21 23  1  0
 20 24  2  0
 24 25  1  0
 25 26  2  0
 26 27  1  0
 15  2  1  0
 26 18  1  0
 11  5  1  0
  4 28  1  0
  6 29  1  0
  7 30  1  0
  8 31  1  0
 11 32  1  0
 17 33  1  0
 19 34  1  0
 24 35  1  0
 25 36  1  0
 27 37  1  0
M  CHG  2  21   1  23  -1
M  END
$$$$
