
     RDKit          3D

 48 51  0  0  0  0  0  0  0  0999 V2000
    9.0542    0.3584   -0.4150 C   0  0  0  0  0  0  0  0  0  0  0  0
    8.1850    0.9443    0.5457 O   0  0  0  0  0  0  0  0  0  0  0  0
    6.8450    0.7378    0.3713 C   0  0  0  0  0  0  0  0  0  0  0  0
    6.0304    1.3409    1.3293 C   0  0  0  0  0  0  0  0  0  0  0  0
    4.6372    1.2116    1.2704 C   0  0  0  0  0  0  0  0  0  0  0  0
    4.0168    0.4761    0.2465 C   0  0  0  0  0  0  0  0  0  0  0  0
    2.5490    0.3283    0.1584 C   0  0  0  0  0  0  0  0  0  0  0  0
    1.6598    1.3105    0.5812 C   0  0  0  0  0  0  0  0  0  0  0  0
    0.2881    1.0869    0.4569 C   0  0  0  0  0  0  0  0  0  0  0  0
   -0.1917   -0.1100   -0.0908 C   0  0  0  0  0  0  0  0  0  0  0  0
   -1.6306   -0.3096   -0.2112 C   0  0  0  0  0  0  0  0  0  0  0  0
   -2.2278   -1.2016   -1.0147 N   0  0  0  0  0  0  0  0  0  0  0  0
   -3.5864   -0.9975   -0.7946 O   0  0  0  0  0  0  0  0  0  0  0  0
   -3.6959    0.0164    0.1103 C   0  0  0  0  0  0  0  0  0  0  0  0
   -5.0330    0.4322    0.5415 C   0  0  0  0  0  0  0  0  0  0  0  0
   -5.1102    1.3201    1.6361 C   0  0  0  0  0  0  0  0  0  0  0  0
   -6.3369    1.7702    2.1231 C   0  0  0  0  0  0  0  0  0  0  0  0
   -7.5126    1.3415    1.5206 C   0  0  0  0  0  0  0  0  0  0  0  0
   -7.4630    0.4666    0.4320 C   0  0  0  0  0  0  0  0  0  0  0  0
   -6.2345    0.0058   -0.0673 C   0  0  0  0  0  0  0  0  0  0  0  0
   -6.1303   -0.8383   -1.1434 O   0  0  0  0  0  0  0  0  0  0  0  0
   -7.3252   -1.3365   -1.7304 C   0  0  0  0  0  0  0  0  0  0  0  0
   -2.5229    0.4731    0.4988 N   0  0  0  0  0  0  0  0  0  0  0  0
    0.7664   -1.0412   -0.4881 C   0  0  0  0  0  0  0  0  0  0  0  0
    0.3475   -2.2535   -0.9963 O   0  0  0  0  0  0  0  0  0  0  0  0
    1.4067   -3.1183   -1.3887 C   0  0  0  0  0  0  0  0  0  0  0  0
    2.1064   -0.8361   -0.3769 N   0  0  0  0  0  0  0  0  0  0  0  0
    4.8579   -0.1323   -0.7036 C   0  0  0  0  0  0  0  0  0  0  0  0
    6.2528   -0.0035   -0.6472 C   0  0  0  0  0  0  0  0  0  0  0  0
    8.9732   -0.7336   -0.4072 H   0  0  0  0  0  0  0  0  0  0  0  0
   10.0809    0.6176   -0.1387 H   0  0  0  0  0  0  0  0  0  0  0  0
    8.8665    0.7623   -1.4152 H   0  0  0  0  0  0  0  0  0  0  0  0
    6.4832    1.9140    2.1352 H   0  0  0  0  0  0  0  0  0  0  0  0
    4.0480    1.6828    2.0537 H   0  0  0  0  0  0  0  0  0  0  0  0
    2.0104    2.2534    0.9881 H   0  0  0  0  0  0  0  0  0  0  0  0
   -0.4047    1.8600    0.7843 H   0  0  0  0  0  0  0  0  0  0  0  0
   -4.1973    1.6660    2.1216 H   0  0  0  0  0  0  0  0  0  0  0  0
   -6.3704    2.4529    2.9694 H   0  0  0  0  0  0  0  0  0  0  0  0
   -8.4728    1.6893    1.8943 H   0  0  0  0  0  0  0  0  0  0  0  0
   -8.4083    0.1658   -0.0100 H   0  0  0  0  0  0  0  0  0  0  0  0
   -7.9136   -0.5256   -2.1729 H   0  0  0  0  0  0  0  0  0  0  0  0
   -7.9149   -1.9067   -1.0049 H   0  0  0  0  0  0  0  0  0  0  0  0
   -7.0413   -2.0196   -2.5374 H   0  0  0  0  0  0  0  0  0  0  0  0
    0.9587   -4.0318   -1.7930 H   0  0  0  0  0  0  0  0  0  0  0  0
    2.0248   -3.4037   -0.5300 H   0  0  0  0  0  0  0  0  0  0  0  0
    2.0152   -2.6686   -2.1814 H   0  0  0  0  0  0  0  0  0  0  0  0
    4.4210   -0.7192   -1.5112 H   0  0  0  0  0  0  0  0  0  0  0  0
    6.8390   -0.4978   -1.4145 H   0  0  0  0  0  0  0  0  0  0  0  0
  1  2  1  0
  2  3  1  0
  3  4  2  0
  4  5  1  0
  5  6  2  0
  6  7  1  0
  7  8  2  0
  8  9  1  0
  9 10  2  0
 10 11  1  0
 11 12  2  0
 12 13  1  0
 13 14  1  0
 14 15  1  0
 15 16  2  0
 16 17  1  0
 17 18  2  0
 18 19  1  0
 19 20  2  0
 20 21  1  0
 21 22  1  0
 14 23  2  0
 10 24  1  0
 24 25  1  0
 25 26  1  0
 24 27  2  0
  6 28  1  0
 28 29  2  0
 29  3  1  0
 27  7  1  0
 23 11  1  0
 20 15  1  0
  1 30  1  0
  1 31  1  0
  1 32  1  0
  4 33  1  0
  5 34  1  0
  8 35  1  0
  9 36  1  0
 16 37  1  0
 17 38  1  0
 18 39  1  0
 19 40  1  0
 22 41  1  0
 22 42  1  0
 22 43  1  0
 26 44  1  0
 26 45  1  0
 26 46  1  0
 28 47  1  0
 29 48  1  0
M  END
$$$$
