
     RDKit          3D

 59 62  0  0  0  0  0  0  0  0999 V2000
    5.6347    1.3835    2.1946 C   0  0  0  0  0  0  0  0  0  0  0  0
    6.0452    0.8623    0.9379 O   0  0  0  0  0  0  0  0  0  0  0  0
    5.0942    0.2417    0.1690 C   0  0  0  0  0  0  0  0  0  0  0  0
    3.7166    0.3139    0.3915 C   0  0  0  0  0  0  0  0  0  0  0  0
    2.8154   -0.3434   -0.4607 C   0  0  0  0  0  0  0  0  0  0  0  0
    1.4391   -0.2032   -0.1651 N   0  0  0  0  0  0  0  0  0  0  0  0
    0.3731   -0.7979   -0.8176 C   0  0  0  0  0  0  0  0  0  0  0  0
    0.4328   -1.6143   -1.7268 O   0  0  0  0  0  0  0  0  0  0  0  0
   -0.9648   -0.4054   -0.3133 C   0  0  0  0  0  0  0  0  0  0  0  0
   -1.2441    0.8938    0.1341 C   0  0  0  0  0  0  0  0  0  0  0  0
   -2.5214    1.2079    0.6062 C   0  0  0  0  0  0  0  0  0  0  0  0
   -2.8559    2.5616    1.1025 C   0  0  0  0  0  0  0  0  0  0  0  0
   -1.9430    3.3268    1.8548 C   0  0  0  0  0  0  0  0  0  0  0  0
   -2.2750    4.6046    2.3181 C   0  0  0  0  0  0  0  0  0  0  0  0
   -3.5300    5.1420    2.0431 C   0  0  0  0  0  0  0  0  0  0  0  0
   -4.4537    4.4036    1.3083 C   0  0  0  0  0  0  0  0  0  0  0  0
   -4.1191    3.1274    0.8455 C   0  0  0  0  0  0  0  0  0  0  0  0
   -3.5431    0.3181    0.6420 N   0  0  0  0  0  0  0  0  0  0  0  0
   -3.2376   -0.9089    0.1796 C   0  0  0  0  0  0  0  0  0  0  0  0
   -2.0124   -1.3359   -0.3056 C   0  0  0  0  0  0  0  0  0  0  0  0
   -2.2282   -2.6853   -0.6603 C   0  0  0  0  0  0  0  0  0  0  0  0
   -3.4783   -3.0936   -0.4174 N   0  0  0  0  0  0  0  0  0  0  0  0
   -4.0770   -1.9913    0.0944 N   0  0  0  0  0  0  0  0  0  0  0  0
   -5.4826   -2.0271    0.4806 C   0  0  0  0  0  0  0  0  0  0  0  0
   -5.7638   -3.1364    1.4952 C   0  0  0  0  0  0  0  0  0  0  0  0
   -6.3867   -2.1514   -0.7446 C   0  0  0  0  0  0  0  0  0  0  0  0
    3.3062   -1.0779   -1.5453 C   0  0  0  0  0  0  0  0  0  0  0  0
    4.6813   -1.1648   -1.7884 C   0  0  0  0  0  0  0  0  0  0  0  0
    5.2507   -1.8747   -2.8157 O   0  0  0  0  0  0  0  0  0  0  0  0
    4.3803   -2.5856   -3.6850 C   0  0  0  0  0  0  0  0  0  0  0  0
    5.5655   -0.4850   -0.9355 C   0  0  0  0  0  0  0  0  0  0  0  0
    6.9265   -0.5788   -1.1282 O   0  0  0  0  0  0  0  0  0  0  0  0
    7.3446    0.3569   -2.1220 C   0  0  0  0  0  0  0  0  0  0  0  0
    4.9813    2.2520    2.0615 H   0  0  0  0  0  0  0  0  0  0  0  0
    5.1516    0.6160    2.8083 H   0  0  0  0  0  0  0  0  0  0  0  0
    6.5297    1.7207    2.7271 H   0  0  0  0  0  0  0  0  0  0  0  0
    3.3289    0.8886    1.2247 H   0  0  0  0  0  0  0  0  0  0  0  0
    1.2277    0.3419    0.6603 H   0  0  0  0  0  0  0  0  0  0  0  0
   -0.4869    1.6687    0.0732 H   0  0  0  0  0  0  0  0  0  0  0  0
   -0.9635    2.9291    2.1114 H   0  0  0  0  0  0  0  0  0  0  0  0
   -1.5567    5.1753    2.9029 H   0  0  0  0  0  0  0  0  0  0  0  0
   -3.7917    6.1319    2.4096 H   0  0  0  0  0  0  0  0  0  0  0  0
   -5.4386    4.8151    1.0975 H   0  0  0  0  0  0  0  0  0  0  0  0
   -4.8594    2.5663    0.2752 H   0  0  0  0  0  0  0  0  0  0  0  0
   -1.5212   -3.3862   -1.0878 H   0  0  0  0  0  0  0  0  0  0  0  0
   -5.7023   -1.0699    0.9686 H   0  0  0  0  0  0  0  0  0  0  0  0
   -5.1140   -3.0354    2.3713 H   0  0  0  0  0  0  0  0  0  0  0  0
   -5.5953   -4.1300    1.0672 H   0  0  0  0  0  0  0  0  0  0  0  0
   -6.8025   -3.0914    1.8389 H   0  0  0  0  0  0  0  0  0  0  0  0
   -6.2008   -1.3350   -1.4509 H   0  0  0  0  0  0  0  0  0  0  0  0
   -6.2184   -3.0943   -1.2760 H   0  0  0  0  0  0  0  0  0  0  0  0
   -7.4416   -2.1114   -0.4525 H   0  0  0  0  0  0  0  0  0  0  0  0
    2.6148   -1.5855   -2.2050 H   0  0  0  0  0  0  0  0  0  0  0  0
    4.9978   -3.0937   -4.4329 H   0  0  0  0  0  0  0  0  0  0  0  0
    3.7118   -1.9014   -4.2170 H   0  0  0  0  0  0  0  0  0  0  0  0
    3.8174   -3.3519   -3.1428 H   0  0  0  0  0  0  0  0  0  0  0  0
    8.4360    0.4283   -2.0742 H   0  0  0  0  0  0  0  0  0  0  0  0
    6.9342    1.3591   -1.9432 H   0  0  0  0  0  0  0  0  0  0  0  0
    7.0725    0.0099   -3.1251 H   0  0  0  0  0  0  0  0  0  0  0  0
  1  2  1  0
  2  3  1  0
  3  4  2  0
  4  5  1  0
  5  6  1  0
  6  7  1  0
  7  8  2  0
  7  9  1  0
  9 10  2  0
 10 11  1  0
 11 12  1  0
 12 13  2  0
 13 14  1  0
 14 15  2  0
 15 16  1  0
 16 17  2  0
 11 18  2  0
 18 19  1  0
 19 20  2  0
 20 21  1  0
 21 22  2  0
 22 23  1  0
 23 24  1  0
 24 25  1  0
 24 26  1  0
  5 27  2  0
 27 28  1  0
 28 29  1  0
 29 30  1  0
 28 31  2  0
 31 32  1  0
 32 33  1  0
 31  3  1  0
 20  9  1  0
 17 12  1  0
 23 19  1  0
  1 34  1  0
  1 35  1  0
  1 36  1  0
  4 37  1  0
  6 38  1  0
 10 39  1  0
 13 40  1  0
 14 41  1  0
 15 42  1  0
 16 43  1  0
 17 44  1  0
 21 45  1  0
 24 46  1  0
 25 47  1  0
 25 48  1  0
 25 49  1  0
 26 50  1  0
 26 51  1  0
 26 52  1  0
 27 53  1  0
 30 54  1  0
 30 55  1  0
 30 56  1  0
 33 57  1  0
 33 58  1  0
 33 59  1  0
M  END
$$$$
