
     RDKit          3D

 57 61  0  0  0  0  0  0  0  0999 V2000
   -7.7686    0.9245    3.9525 C   0  0  0  0  0  0  0  0  0  0  0  0
   -6.7613    0.7471    2.8562 C   0  0  0  0  0  0  0  0  0  0  0  0
   -5.4117    0.5472    3.1555 C   0  0  0  0  0  0  0  0  0  0  0  0
   -4.4662    0.4135    2.1303 C   0  0  0  0  0  0  0  0  0  0  0  0
   -4.8353    0.4900    0.7749 C   0  0  0  0  0  0  0  0  0  0  0  0
   -3.8535    0.3575   -0.3248 C   0  0  0  0  0  0  0  0  0  0  0  0
   -2.5164    0.6892   -0.1950 C   0  0  0  0  0  0  0  0  0  0  0  0
   -1.6744    0.5140   -1.2946 C   0  0  0  0  0  0  0  0  0  0  0  0
   -0.2417    0.8203   -1.0759 C   0  0  0  0  0  0  0  0  0  0  0  0
    0.0538    1.9388   -0.6787 O   0  0  0  0  0  0  0  0  0  0  0  0
    0.6003   -0.2528   -1.2975 N   0  0  0  0  0  0  0  0  0  0  0  0
    2.0067   -0.2702   -1.2060 C   0  0  0  0  0  0  0  0  0  0  0  0
    2.6460   -1.4965   -1.4403 C   0  0  0  0  0  0  0  0  0  0  0  0
    4.0386   -1.5989   -1.3807 C   0  0  0  0  0  0  0  0  0  0  0  0
    4.7985   -0.4675   -1.0778 C   0  0  0  0  0  0  0  0  0  0  0  0
    6.5703   -0.5925   -1.0477 S   0  0  0  0  0  6  0  0  0  0  0  0
    7.1467    0.7322   -0.9594 O   0  0  0  0  0  0  0  0  0  0  0  0
    6.9327   -1.4685   -2.1460 O   0  0  0  0  0  0  0  0  0  0  0  0
    6.8869   -1.4516    0.3380 N   0  0  0  0  0  0  0  0  0  0  0  0
    6.9059   -0.7446    1.5335 C   0  0  0  0  0  0  0  0  0  0  0  0
    5.9106    0.1004    1.8046 N   0  0  0  0  0  0  0  0  0  0  0  0
    5.9194    0.6307    3.0408 C   0  0  0  0  0  0  0  0  0  0  0  0
    6.8523    0.3053    3.9977 C   0  0  0  0  0  0  0  0  0  0  0  0
    7.7947   -0.6217    3.6154 C   0  0  0  0  0  0  0  0  0  0  0  0
    7.8326   -1.1820    2.3919 N   0  0  0  0  0  0  0  0  0  0  0  0
    4.1771    0.7622   -0.8574 C   0  0  0  0  0  0  0  0  0  0  0  0
    2.7821    0.8559   -0.9165 C   0  0  0  0  0  0  0  0  0  0  0  0
   -2.1714    0.0616   -2.5352 C   0  0  0  0  0  0  0  0  0  0  0  0
   -1.4080   -0.0716   -3.7246 C   0  0  0  0  0  0  0  0  0  0  0  0
   -1.9881   -0.5379   -4.9024 C   0  0  0  0  0  0  0  0  0  0  0  0
   -3.3349   -0.8687   -4.9140 C   0  0  0  0  0  0  0  0  0  0  0  0
   -4.0936   -0.7188   -3.7510 C   0  0  0  0  0  0  0  0  0  0  0  0
   -3.5407   -0.2522   -2.5658 C   0  0  0  0  0  0  0  0  0  0  0  0
   -4.3446   -0.1181   -1.4976 N   0  0  0  0  0  0  0  0  0  0  0  0
   -6.1990    0.6984    0.4965 C   0  0  0  0  0  0  0  0  0  0  0  0
   -7.1471    0.8325    1.5172 C   0  0  0  0  0  0  0  0  0  0  0  0
   -7.8468    1.9824    4.2212 H   0  0  0  0  0  0  0  0  0  0  0  0
   -8.7545    0.5649    3.6393 H   0  0  0  0  0  0  0  0  0  0  0  0
   -7.4826    0.3532    4.8419 H   0  0  0  0  0  0  0  0  0  0  0  0
   -5.0827    0.4888    4.1910 H   0  0  0  0  0  0  0  0  0  0  0  0
   -3.4327    0.2350    2.4172 H   0  0  0  0  0  0  0  0  0  0  0  0
   -2.1159    1.0868    0.7318 H   0  0  0  0  0  0  0  0  0  0  0  0
    0.1612   -1.1344   -1.5368 H   0  0  0  0  0  0  0  0  0  0  0  0
    2.0711   -2.3887   -1.6754 H   0  0  0  0  0  0  0  0  0  0  0  0
    4.5214   -2.5541   -1.5736 H   0  0  0  0  0  0  0  0  0  0  0  0
    7.6633   -2.0957    0.2458 H   0  0  0  0  0  0  0  0  0  0  0  0
    5.1250    1.3427    3.2467 H   0  0  0  0  0  0  0  0  0  0  0  0
    6.8398    0.7415    4.9871 H   0  0  0  0  0  0  0  0  0  0  0  0
    8.5663   -0.9545    4.3040 H   0  0  0  0  0  0  0  0  0  0  0  0
    4.7648    1.6495   -0.6312 H   0  0  0  0  0  0  0  0  0  0  0  0
    2.3326    1.8280   -0.7376 H   0  0  0  0  0  0  0  0  0  0  0  0
   -0.3563    0.2089   -3.7496 H   0  0  0  0  0  0  0  0  0  0  0  0
   -1.3923   -0.6317   -5.8071 H   0  0  0  0  0  0  0  0  0  0  0  0
   -3.8042   -1.2307   -5.8253 H   0  0  0  0  0  0  0  0  0  0  0  0
   -5.1529   -0.9669   -3.7721 H   0  0  0  0  0  0  0  0  0  0  0  0
   -6.5355    0.7652   -0.5375 H   0  0  0  0  0  0  0  0  0  0  0  0
   -8.1883    1.0024    1.2524 H   0  0  0  0  0  0  0  0  0  0  0  0
  1  2  1  0
  2  3  2  0
  3  4  1  0
  4  5  2  0
  5  6  1  0
  6  7  2  0
  7  8  1  0
  8  9  1  0
  9 10  2  0
  9 11  1  0
 11 12  1  0
 12 13  2  0
 13 14  1  0
 14 15  2  0
 15 16  1  0
 16 17  2  0
 16 18  2  0
 16 19  1  0
 19 20  1  0
 20 21  2  0
 21 22  1  0
 22 23  2  0
 23 24  1  0
 24 25  2  0
 15 26  1  0
 26 27  2  0
  8 28  2  0
 28 29  1  0
 29 30  2  0
 30 31  1  0
 31 32  2  0
 32 33  1  0
 33 34  2  0
  5 35  1  0
 35 36  2  0
 36  2  1  0
 34  6  1  0
 27 12  1  0
 33 28  1  0
 25 20  1  0
  1 37  1  0
  1 38  1  0
  1 39  1  0
  3 40  1  0
  4 41  1  0
  7 42  1  0
 11 43  1  0
 13 44  1  0
 14 45  1  0
 19 46  1  0
 22 47  1  0
 23 48  1  0
 24 49  1  0
 26 50  1  0
 27 51  1  0
 29 52  1  0
 30 53  1  0
 31 54  1  0
 32 55  1  0
 35 56  1  0
 36 57  1  0
M  END
$$$$
