
     RDKit          3D

 80 86  0  0  0  0  0  0  0  0999 V2000
   -5.5770   -1.8176    1.1654 C   0  0  0  0  0  0  0  0  0  0  0  0
   -4.3532   -1.0630    1.5946 C   0  0  0  0  0  0  0  0  0  0  0  0
   -4.3536   -0.3108    2.7964 C   0  0  0  0  0  0  0  0  0  0  0  0
   -5.7401   -0.2204    3.8363 Cl  0  0  0  0  0  0  0  0  0  0  0  0
   -3.2224    0.4019    3.2311 C   0  0  0  0  0  0  0  0  0  0  0  0
   -2.0518    0.3890    2.4873 C   0  0  0  0  0  0  0  0  0  0  0  0
   -2.0342   -0.3459    1.3104 C   0  0  0  0  0  0  0  0  0  0  0  0
   -3.1552   -1.0787    0.8642 C   0  0  0  0  0  0  0  0  0  0  0  0
   -2.7931   -1.7539   -0.3324 N   0  0  0  0  0  0  0  0  0  0  0  0
   -3.6039   -2.6315   -1.1412 C   0  0  0  0  0  0  0  0  0  0  0  0
   -4.5081   -1.9521   -2.1493 C   0  0  0  0  0  0  0  0  0  0  0  0
   -5.5449   -2.7011   -2.7327 C   0  0  0  0  0  0  0  0  0  0  0  0
   -6.3873   -2.1333   -3.6908 C   0  0  0  0  0  0  0  0  0  0  0  0
   -6.1992   -0.8117   -4.0876 C   0  0  0  0  0  0  0  0  0  0  0  0
   -5.1692   -0.0590   -3.5288 C   0  0  0  0  0  0  0  0  0  0  0  0
   -4.3251   -0.6270   -2.5710 C   0  0  0  0  0  0  0  0  0  0  0  0
   -1.4595   -1.4802   -0.7048 C   0  0  0  0  0  0  0  0  0  0  0  0
   -0.8686   -1.9402   -1.6740 O   0  0  0  0  0  0  0  0  0  0  0  0
   -0.8963   -0.5213    0.3527 C   0  0  1  0  0  0  0  0  0  0  0  0
   -0.5034    0.8018   -0.2006 C   0  0  0  0  0  0  0  0  0  0  0  0
    0.8955    0.8902   -0.2861 C   0  0  0  0  0  0  0  0  0  0  0  0
    1.2393    2.1241   -0.7587 C   0  0  0  0  0  0  0  0  0  0  0  0
    2.4588    2.6421   -0.8924 O   0  0  0  0  0  0  0  0  0  0  0  0
    0.0348    2.8041   -1.0269 N   0  0  0  0  0  0  0  0  0  0  0  0
   -0.0794    4.1260   -1.5457 C   0  0  0  0  0  0  0  0  0  0  0  0
   -1.0488    4.9973   -1.0311 C   0  0  0  0  0  0  0  0  0  0  0  0
   -1.1595    6.2916   -1.5407 C   0  0  0  0  0  0  0  0  0  0  0  0
   -0.3116    6.7159   -2.5634 C   0  0  0  0  0  0  0  0  0  0  0  0
    0.6521    5.8490   -3.0785 C   0  0  0  0  0  0  0  0  0  0  0  0
    0.7730    4.5542   -2.5715 C   0  0  0  0  0  0  0  0  0  0  0  0
   -1.0432    1.9558   -0.7019 C   0  0  0  0  0  0  0  0  0  0  0  0
   -2.3263    2.2373   -0.9227 O   0  0  0  0  0  0  0  0  0  0  0  0
    1.5113   -0.3749    0.1564 C   0  0  1  0  0  0  0  0  0  0  0  0
    2.7749   -0.3388    1.0086 C   0  0  0  0  0  0  0  0  0  0  0  0
    3.0786   -1.6908    1.5298 N   0  0  0  0  0  0  0  0  0  0  0  0
    4.3595   -2.0649    1.8975 C   0  0  0  0  0  0  0  0  0  0  0  0
    4.6127   -3.0959    2.5080 O   0  0  0  0  0  0  0  0  0  0  0  0
    5.2912   -1.1635    1.4966 O   0  0  0  0  0  0  0  0  0  0  0  0
    6.7040   -1.3877    1.7351 C   0  0  0  0  0  0  0  0  0  0  0  0
    7.1978   -2.6359    0.9947 C   0  0  0  0  0  0  0  0  0  0  0  0
    7.0193   -1.4460    3.2338 C   0  0  0  0  0  0  0  0  0  0  0  0
    7.3981   -0.1552    1.1351 C   0  0  0  0  0  0  0  0  0  0  0  0
    1.9500   -2.4545    2.0872 C   0  0  0  0  0  0  0  0  0  0  0  0
    0.6386   -2.3410    1.2680 C   0  0  0  0  0  0  0  0  0  0  0  0
    0.3865   -0.9410    0.9714 N   0  0  0  0  0  0  0  0  0  0  0  0
   -5.4158   -2.8928    1.2793 H   0  0  0  0  0  0  0  0  0  0  0  0
   -5.8367   -1.5769    0.1348 H   0  0  0  0  0  0  0  0  0  0  0  0
   -6.4715   -1.5707    1.7423 H   0  0  0  0  0  0  0  0  0  0  0  0
   -3.2556    0.9700    4.1581 H   0  0  0  0  0  0  0  0  0  0  0  0
   -1.1737    0.9370    2.8160 H   0  0  0  0  0  0  0  0  0  0  0  0
   -2.9349   -3.2891   -1.7114 H   0  0  0  0  0  0  0  0  0  0  0  0
   -4.1755   -3.2921   -0.4843 H   0  0  0  0  0  0  0  0  0  0  0  0
   -5.7011   -3.7388   -2.4446 H   0  0  0  0  0  0  0  0  0  0  0  0
   -7.1826   -2.7254   -4.1343 H   0  0  0  0  0  0  0  0  0  0  0  0
   -6.8517   -0.3702   -4.8370 H   0  0  0  0  0  0  0  0  0  0  0  0
   -5.0129    0.9694   -3.8438 H   0  0  0  0  0  0  0  0  0  0  0  0
   -3.5245   -0.0159   -2.1621 H   0  0  0  0  0  0  0  0  0  0  0  0
    2.3917    3.6134   -0.9195 H   0  0  0  0  0  0  0  0  0  0  0  0
   -1.6947    4.7028   -0.2053 H   0  0  0  0  0  0  0  0  0  0  0  0
   -1.9023    6.9744   -1.1347 H   0  0  0  0  0  0  0  0  0  0  0  0
   -0.4036    7.7242   -2.9606 H   0  0  0  0  0  0  0  0  0  0  0  0
    1.3016    6.1799   -3.8859 H   0  0  0  0  0  0  0  0  0  0  0  0
    1.5021    3.8816   -3.0206 H   0  0  0  0  0  0  0  0  0  0  0  0
   -2.3886    2.9608   -1.5718 H   0  0  0  0  0  0  0  0  0  0  0  0
    1.6853   -1.0038   -0.7291 H   0  0  0  0  0  0  0  0  0  0  0  0
    3.6137    0.0405    0.4149 H   0  0  0  0  0  0  0  0  0  0  0  0
    2.6614    0.3253    1.8754 H   0  0  0  0  0  0  0  0  0  0  0  0
    6.7958   -3.5556    1.4307 H   0  0  0  0  0  0  0  0  0  0  0  0
    8.2913   -2.7107    1.0213 H   0  0  0  0  0  0  0  0  0  0  0  0
    6.8749   -2.6183   -0.0531 H   0  0  0  0  0  0  0  0  0  0  0  0
    6.6212   -2.3513    3.7018 H   0  0  0  0  0  0  0  0  0  0  0  0
    8.0994   -1.4335    3.4152 H   0  0  0  0  0  0  0  0  0  0  0  0
    6.5669   -0.5982    3.7592 H   0  0  0  0  0  0  0  0  0  0  0  0
    7.1548   -0.0501    0.0714 H   0  0  0  0  0  0  0  0  0  0  0  0
    7.0513    0.7626    1.6232 H   0  0  0  0  0  0  0  0  0  0  0  0
    8.4869   -0.2108    1.2366 H   0  0  0  0  0  0  0  0  0  0  0  0
    1.7845   -2.0690    3.1014 H   0  0  0  0  0  0  0  0  0  0  0  0
    2.2278   -3.5098    2.1826 H   0  0  0  0  0  0  0  0  0  0  0  0
    0.7335   -2.9319    0.3486 H   0  0  0  0  0  0  0  0  0  0  0  0
   -0.1798   -2.7692    1.8576 H   0  0  0  0  0  0  0  0  0  0  0  0
  1  2  1  0
  2  3  2  0
  3  4  1  0
  3  5  1  0
  5  6  2  0
  6  7  1  0
  7  8  2  0
  8  9  1  0
  9 10  1  0
 10 11  1  0
 11 12  2  0
 12 13  1  0
 13 14  2  0
 14 15  1  0
 15 16  2  0
  9 17  1  0
 17 18  2  0
 17 19  1  0
 19 20  1  0
 20 21  1  0
 21 22  2  0
 22 23  1  0
 22 24  1  0
 24 25  1  0
 25 26  2  0
 26 27  1  0
 27 28  2  0
 28 29  1  0
 29 30  2  0
 24 31  1  0
 31 32  1  0
 21 33  1  0
 33 34  1  0
 34 35  1  0
 35 36  1  0
 36 37  2  0
 36 38  1  0
 38 39  1  0
 39 40  1  0
 39 41  1  0
 39 42  1  0
 35 43  1  0
 43 44  1  0
 44 45  1  0
  8  2  1  0
 16 11  1  0
 19 45  1  1
 19  7  1  0
 31 20  2  0
 45 33  1  0
 30 25  1  0
  1 46  1  0
  1 47  1  0
  1 48  1  0
  5 49  1  0
  6 50  1  0
 10 51  1  0
 10 52  1  0
 12 53  1  0
 13 54  1  0
 14 55  1  0
 15 56  1  0
 16 57  1  0
 23 58  1  0
 26 59  1  0
 27 60  1  0
 28 61  1  0
 29 62  1  0
 30 63  1  0
 32 64  1  0
 33 65  1  6
 34 66  1  0
 34 67  1  0
 40 68  1  0
 40 69  1  0
 40 70  1  0
 41 71  1  0
 41 72  1  0
 41 73  1  0
 42 74  1  0
 42 75  1  0
 42 76  1  0
 43 77  1  0
 43 78  1  0
 44 79  1  0
 44 80  1  0
M  END
$$$$
