
     RDKit          3D

 57 61  0  0  0  0  0  0  0  0999 V2000
   -7.7524    1.2103    3.8953 C   0  0  0  0  0  0  0  0  0  0  0  0
   -6.7414    1.0117    2.8059 C   0  0  0  0  0  0  0  0  0  0  0  0
   -7.1509    0.8324    1.4834 C   0  0  0  0  0  0  0  0  0  0  0  0
   -6.2079    0.6141    0.4726 C   0  0  0  0  0  0  0  0  0  0  0  0
   -4.8286    0.5615    0.7460 C   0  0  0  0  0  0  0  0  0  0  0  0
   -3.8530    0.3317   -0.3424 C   0  0  0  0  0  0  0  0  0  0  0  0
   -2.5495    0.7943   -0.3045 C   0  0  0  0  0  0  0  0  0  0  0  0
   -1.7077    0.5070   -1.3803 C   0  0  0  0  0  0  0  0  0  0  0  0
   -0.3060    0.9677   -1.2539 C   0  0  0  0  0  0  0  0  0  0  0  0
   -0.1059    2.1613   -1.0780 O   0  0  0  0  0  0  0  0  0  0  0  0
    0.6231   -0.0543   -1.2897 N   0  0  0  0  0  0  0  0  0  0  0  0
    2.0255    0.0611   -1.2093 C   0  0  0  0  0  0  0  0  0  0  0  0
    2.7644   -1.1308   -1.2197 C   0  0  0  0  0  0  0  0  0  0  0  0
    4.1599   -1.1072   -1.1475 C   0  0  0  0  0  0  0  0  0  0  0  0
    4.8216    0.1177   -1.0606 C   0  0  0  0  0  0  0  0  0  0  0  0
    6.5957    0.1702   -0.9961 S   0  0  0  0  0  6  0  0  0  0  0  0
    7.1187   -1.1731   -1.1310 O   0  0  0  0  0  0  0  0  0  0  0  0
    7.0061    1.2044   -1.9254 O   0  0  0  0  0  0  0  0  0  0  0  0
    6.9212    0.7598    0.5203 N   0  0  0  0  0  0  0  0  0  0  0  0
    6.8906   -0.1396    1.5777 C   0  0  0  0  0  0  0  0  0  0  0  0
    7.8088    0.1159    2.5152 N   0  0  0  0  0  0  0  0  0  0  0  0
    7.7265   -0.6408    3.6255 C   0  0  0  0  0  0  0  0  0  0  0  0
    6.7501   -1.5885    3.8274 C   0  0  0  0  0  0  0  0  0  0  0  0
    5.8324   -1.7192    2.8109 C   0  0  0  0  0  0  0  0  0  0  0  0
    5.8675   -0.9898    1.6811 N   0  0  0  0  0  0  0  0  0  0  0  0
    4.1008    1.3134   -1.0644 C   0  0  0  0  0  0  0  0  0  0  0  0
    2.7038    1.2808   -1.1343 C   0  0  0  0  0  0  0  0  0  0  0  0
   -2.1752   -0.1925   -2.5127 C   0  0  0  0  0  0  0  0  0  0  0  0
   -1.4141   -0.4641   -3.6797 C   0  0  0  0  0  0  0  0  0  0  0  0
   -1.9634   -1.1716   -4.7470 C   0  0  0  0  0  0  0  0  0  0  0  0
   -3.2770   -1.6099   -4.6701 C   0  0  0  0  0  0  0  0  0  0  0  0
   -4.0344   -1.3276   -3.5312 C   0  0  0  0  0  0  0  0  0  0  0  0
   -3.5122   -0.6212   -2.4557 C   0  0  0  0  0  0  0  0  0  0  0  0
   -4.3135   -0.3760   -1.4055 N   0  0  0  0  0  0  0  0  0  0  0  0
   -4.4379    0.7233    2.0876 C   0  0  0  0  0  0  0  0  0  0  0  0
   -5.3782    0.9418    3.1029 C   0  0  0  0  0  0  0  0  0  0  0  0
   -8.0831    0.2406    4.2802 H   0  0  0  0  0  0  0  0  0  0  0  0
   -8.6236    1.7600    3.5232 H   0  0  0  0  0  0  0  0  0  0  0  0
   -7.3296    1.7935    4.7205 H   0  0  0  0  0  0  0  0  0  0  0  0
   -8.2068    0.8603    1.2240 H   0  0  0  0  0  0  0  0  0  0  0  0
   -6.5615    0.4839   -0.5494 H   0  0  0  0  0  0  0  0  0  0  0  0
   -2.1764    1.3765    0.5320 H   0  0  0  0  0  0  0  0  0  0  0  0
    0.2598   -0.9978   -1.3594 H   0  0  0  0  0  0  0  0  0  0  0  0
    2.2666   -2.0953   -1.2811 H   0  0  0  0  0  0  0  0  0  0  0  0
    4.7183   -2.0404   -1.1501 H   0  0  0  0  0  0  0  0  0  0  0  0
    7.7102    1.3944    0.5540 H   0  0  0  0  0  0  0  0  0  0  0  0
    8.4904   -0.4527    4.3749 H   0  0  0  0  0  0  0  0  0  0  0  0
    6.7020   -2.1847    4.7282 H   0  0  0  0  0  0  0  0  0  0  0  0
    5.0144   -2.4309    2.8792 H   0  0  0  0  0  0  0  0  0  0  0  0
    4.6142    2.2711   -1.0155 H   0  0  0  0  0  0  0  0  0  0  0  0
    2.1743    2.2287   -1.1345 H   0  0  0  0  0  0  0  0  0  0  0  0
   -0.3905   -0.1061   -3.7767 H   0  0  0  0  0  0  0  0  0  0  0  0
   -1.3707   -1.3693   -5.6368 H   0  0  0  0  0  0  0  0  0  0  0  0
   -3.7223   -2.1596   -5.4956 H   0  0  0  0  0  0  0  0  0  0  0  0
   -5.0685   -1.6633   -3.4842 H   0  0  0  0  0  0  0  0  0  0  0  0
   -3.3904    0.6635    2.3734 H   0  0  0  0  0  0  0  0  0  0  0  0
   -5.0344    1.0534    4.1292 H   0  0  0  0  0  0  0  0  0  0  0  0
  1  2  1  0
  2  3  2  0
  3  4  1  0
  4  5  2  0
  5  6  1  0
  6  7  2  0
  7  8  1  0
  8  9  1  0
  9 10  2  0
  9 11  1  0
 11 12  1  0
 12 13  2  0
 13 14  1  0
 14 15  2  0
 15 16  1  0
 16 17  2  0
 16 18  2  0
 16 19  1  0
 19 20  1  0
 20 21  2  0
 21 22  1  0
 22 23  2  0
 23 24  1  0
 24 25  2  0
 15 26  1  0
 26 27  2  0
  8 28  2  0
 28 29  1  0
 29 30  2  0
 30 31  1  0
 31 32  2  0
 32 33  1  0
 33 34  2  0
  5 35  1  0
 35 36  2  0
 36  2  1  0
 34  6  1  0
 27 12  1  0
 33 28  1  0
 25 20  1  0
  1 37  1  0
  1 38  1  0
  1 39  1  0
  3 40  1  0
  4 41  1  0
  7 42  1  0
 11 43  1  0
 13 44  1  0
 14 45  1  0
 19 46  1  0
 22 47  1  0
 23 48  1  0
 24 49  1  0
 26 50  1  0
 27 51  1  0
 29 52  1  0
 30 53  1  0
 31 54  1  0
 32 55  1  0
 35 56  1  0
 36 57  1  0
M  END
$$$$
