
     RDKit          3D

 52 55  0  0  0  0  0  0  0  0999 V2000
    6.5774   -0.0526    0.8482 C   0  0  0  0  0  0  0  0  0  0  0  0
    5.9737    1.1163    0.0889 C   0  0  0  0  0  0  0  0  0  0  0  0
    5.1865    0.7719   -1.1969 C   0  0  0  0  0  0  0  0  0  0  0  0
    6.0802    0.2726   -2.3372 C   0  0  0  0  0  0  0  0  0  0  0  0
    3.9139    0.0243   -0.9337 N   0  0  0  0  0  0  0  0  0  0  0  0
    2.8470    0.8712   -0.5703 C   0  0  0  0  0  0  0  0  0  0  0  0
    2.9782    2.0895   -0.4293 O   0  0  0  0  0  0  0  0  0  0  0  0
    1.5152    0.2448   -0.3417 C   0  0  0  0  0  0  0  0  0  0  0  0
    0.4817    1.0817   -0.1122 C   0  0  0  0  0  0  0  0  0  0  0  0
   -0.9157    0.7234    0.1404 C   0  0  0  0  0  0  0  0  0  0  0  0
   -1.3973    0.6730    1.4479 C   0  0  0  0  0  0  0  0  0  0  0  0
   -2.7419    0.3532    1.7050 C   0  0  0  0  0  0  0  0  0  0  0  0
   -3.6238    0.0552    0.6438 C   0  0  0  0  0  0  0  0  0  0  0  0
   -3.1305    0.1344   -0.6765 C   0  0  0  0  0  0  0  0  0  0  0  0
   -1.7835    0.4565   -0.9179 C   0  0  0  0  0  0  0  0  0  0  0  0
   -4.0141   -0.1833   -1.8565 C   0  0  0  0  0  0  0  0  0  0  0  0
   -5.4897   -0.1405   -1.4916 C   0  0  0  0  0  0  0  0  0  0  0  0
   -5.7076   -0.8980   -0.1926 C   0  0  0  0  0  0  0  0  0  0  0  0
   -4.9726   -0.2493    0.8919 N   0  0  0  0  0  0  0  0  0  0  0  0
   -5.3101   -0.6711    2.2502 C   0  0  0  0  0  0  0  0  0  0  0  0
   -4.7155    0.2994    3.2567 C   0  0  0  0  0  0  0  0  0  0  0  0
   -3.1995    0.2780    3.1400 C   0  0  0  0  0  0  0  0  0  0  0  0
    1.3877   -1.2188   -0.3627 C   0  0  0  0  0  0  0  0  0  0  0  0
    0.3577   -1.8528   -0.1782 O   0  0  0  0  0  0  0  0  0  0  0  0
    2.5563   -1.8734   -0.6146 N   0  0  0  0  0  0  0  0  0  0  0  0
    3.7935   -1.3638   -0.9084 C   0  0  0  0  0  0  0  0  0  0  0  0
    4.9488   -2.5431   -1.1986 S   0  0  0  0  0  0  0  0  0  0  0  0
    7.2608   -0.6337    0.2236 H   0  0  0  0  0  0  0  0  0  0  0  0
    5.8015   -0.7123    1.2456 H   0  0  0  0  0  0  0  0  0  0  0  0
    7.1526    0.3199    1.7027 H   0  0  0  0  0  0  0  0  0  0  0  0
    6.7854    1.8062   -0.1753 H   0  0  0  0  0  0  0  0  0  0  0  0
    5.3220    1.6654    0.7794 H   0  0  0  0  0  0  0  0  0  0  0  0
    4.8661    1.7498   -1.5849 H   0  0  0  0  0  0  0  0  0  0  0  0
    5.4834   -0.0300   -3.2039 H   0  0  0  0  0  0  0  0  0  0  0  0
    6.7454    1.0806   -2.6654 H   0  0  0  0  0  0  0  0  0  0  0  0
    6.7349   -0.5510   -2.0474 H   0  0  0  0  0  0  0  0  0  0  0  0
    0.6402    2.1601   -0.0969 H   0  0  0  0  0  0  0  0  0  0  0  0
   -0.7287    0.8803    2.2803 H   0  0  0  0  0  0  0  0  0  0  0  0
   -1.4179    0.4917   -1.9413 H   0  0  0  0  0  0  0  0  0  0  0  0
   -3.8273    0.5265   -2.6710 H   0  0  0  0  0  0  0  0  0  0  0  0
   -3.7537   -1.1852   -2.2201 H   0  0  0  0  0  0  0  0  0  0  0  0
   -5.8143    0.9015   -1.3728 H   0  0  0  0  0  0  0  0  0  0  0  0
   -6.0879   -0.5784   -2.2981 H   0  0  0  0  0  0  0  0  0  0  0  0
   -5.3960   -1.9458   -0.2913 H   0  0  0  0  0  0  0  0  0  0  0  0
   -6.7793   -0.8978    0.0385 H   0  0  0  0  0  0  0  0  0  0  0  0
   -6.3997   -0.6799    2.3720 H   0  0  0  0  0  0  0  0  0  0  0  0
   -4.9540   -1.6933    2.4317 H   0  0  0  0  0  0  0  0  0  0  0  0
   -5.0903    1.3126    3.0617 H   0  0  0  0  0  0  0  0  0  0  0  0
   -5.0166    0.0309    4.2752 H   0  0  0  0  0  0  0  0  0  0  0  0
   -2.7858    1.1160    3.7134 H   0  0  0  0  0  0  0  0  0  0  0  0
   -2.8098   -0.6502    3.5761 H   0  0  0  0  0  0  0  0  0  0  0  0
    2.4730   -2.8827   -0.6219 H   0  0  0  0  0  0  0  0  0  0  0  0
  1  2  1  0
  2  3  1  0
  3  4  1  0
  3  5  1  0
  5  6  1  0
  6  7  2  0
  6  8  1  0
  8  9  2  3
  9 10  1  0
 10 11  2  0
 11 12  1  0
 12 13  2  0
 13 14  1  0
 14 15  2  0
 14 16  1  0
 16 17  1  0
 17 18  1  0
 18 19  1  0
 19 20  1  0
 20 21  1  0
 21 22  1  0
  8 23  1  0
 23 24  2  0
 23 25  1  0
 25 26  1  0
 26 27  2  0
 26  5  1  0
 15 10  1  0
 22 12  1  0
 19 13  1  0
  1 28  1  0
  1 29  1  0
  1 30  1  0
  2 31  1  0
  2 32  1  0
  3 33  1  0
  4 34  1  0
  4 35  1  0
  4 36  1  0
  9 37  1  0
 11 38  1  0
 15 39  1  0
 16 40  1  0
 16 41  1  0
 17 42  1  0
 17 43  1  0
 18 44  1  0
 18 45  1  0
 20 46  1  0
 20 47  1  0
 21 48  1  0
 21 49  1  0
 22 50  1  0
 22 51  1  0
 25 52  1  0
M  END
$$$$
