
     RDKit          3D

 54 56  0  0  0  0  0  0  0  0999 V2000
   -0.6884   -3.9364    1.3976 N   0  0  0  0  0  0  0  0  0  0  0  0
   -1.6041   -3.1391    0.8201 C   0  0  0  0  0  0  0  0  0  0  0  0
   -2.6612   -3.6222    0.2348 N   0  0  0  0  0  0  0  0  0  0  0  0
   -3.3796   -2.4180   -0.2682 C   0  0  0  0  0  0  0  0  0  0  0  0
   -2.6742   -1.1863    0.3419 C   0  0  0  0  0  0  0  0  0  0  0  0
   -2.4103   -0.0851   -0.6914 C   0  0  0  0  0  0  0  0  0  0  0  0
   -3.6730    0.6021   -1.1547 C   0  0  0  0  0  0  0  0  0  0  0  0
   -4.3397    1.5056   -0.3142 C   0  0  0  0  0  0  0  0  0  0  0  0
   -5.5119    2.1336   -0.7386 C   0  0  0  0  0  0  0  0  0  0  0  0
   -6.0279    1.8654   -2.0051 C   0  0  0  0  0  0  0  0  0  0  0  0
   -5.3734    0.9697   -2.8480 C   0  0  0  0  0  0  0  0  0  0  0  0
   -4.2010    0.3408   -2.4260 C   0  0  0  0  0  0  0  0  0  0  0  0
   -1.4373   -1.7900    0.8441 N   0  0  0  0  0  0  0  0  0  0  0  0
   -0.5985   -1.0344    1.7576 C   0  0  0  0  0  0  0  0  0  0  0  0
    0.8800   -1.0651    1.3555 C   0  0  0  0  0  0  0  0  0  0  0  0
    1.1410   -0.4494   -0.0224 C   0  0  0  0  0  0  0  0  0  0  0  0
    2.6147   -0.4887   -0.4465 C   0  0  0  0  0  0  0  0  0  0  0  0
    3.6075    0.2583    0.4723 C   0  0  0  0  0  0  0  0  0  0  0  0
    5.0487    0.1185   -0.0541 C   0  0  0  0  0  0  0  0  0  0  0  0
    5.3192    0.9599   -1.3007 C   0  0  0  0  0  0  0  0  0  0  0  0
    4.9410    2.4228   -1.0922 C   0  0  0  0  0  0  0  0  0  0  0  0
    3.5110    2.5784   -0.5858 C   0  0  0  0  0  0  0  0  0  0  0  0
    3.2724    1.7454    0.6715 C   0  0  0  0  0  0  0  0  0  0  0  0
   -0.3985   -3.6404    2.3177 H   0  0  0  0  0  0  0  0  0  0  0  0
   -1.0236   -4.8934    1.4111 H   0  0  0  0  0  0  0  0  0  0  0  0
   -3.3416   -2.4282   -1.3629 H   0  0  0  0  0  0  0  0  0  0  0  0
   -4.4301   -2.4565    0.0388 H   0  0  0  0  0  0  0  0  0  0  0  0
   -3.2643   -0.8112    1.1881 H   0  0  0  0  0  0  0  0  0  0  0  0
   -1.7495    0.6828   -0.2710 H   0  0  0  0  0  0  0  0  0  0  0  0
   -1.8639   -0.4923   -1.5527 H   0  0  0  0  0  0  0  0  0  0  0  0
   -3.9483    1.7304    0.6751 H   0  0  0  0  0  0  0  0  0  0  0  0
   -6.0222    2.8329   -0.0819 H   0  0  0  0  0  0  0  0  0  0  0  0
   -6.9391    2.3557   -2.3360 H   0  0  0  0  0  0  0  0  0  0  0  0
   -5.7748    0.7610   -3.8368 H   0  0  0  0  0  0  0  0  0  0  0  0
   -3.7032   -0.3538   -3.0983 H   0  0  0  0  0  0  0  0  0  0  0  0
   -0.7105   -1.4295    2.7741 H   0  0  0  0  0  0  0  0  0  0  0  0
   -0.9269    0.0107    1.8072 H   0  0  0  0  0  0  0  0  0  0  0  0
    1.4380   -0.5100    2.1184 H   0  0  0  0  0  0  0  0  0  0  0  0
    1.2622   -2.0917    1.3724 H   0  0  0  0  0  0  0  0  0  0  0  0
    0.5697   -1.0019   -0.7784 H   0  0  0  0  0  0  0  0  0  0  0  0
    0.7686    0.5802   -0.0495 H   0  0  0  0  0  0  0  0  0  0  0  0
    2.9249   -1.5401   -0.5136 H   0  0  0  0  0  0  0  0  0  0  0  0
    2.6740   -0.0941   -1.4668 H   0  0  0  0  0  0  0  0  0  0  0  0
    3.5801   -0.2267    1.4560 H   0  0  0  0  0  0  0  0  0  0  0  0
    5.7427    0.4326    0.7363 H   0  0  0  0  0  0  0  0  0  0  0  0
    5.2763   -0.9326   -0.2644 H   0  0  0  0  0  0  0  0  0  0  0  0
    4.7628    0.5553   -2.1539 H   0  0  0  0  0  0  0  0  0  0  0  0
    6.3814    0.8920   -1.5622 H   0  0  0  0  0  0  0  0  0  0  0  0
    5.6315    2.8742   -0.3687 H   0  0  0  0  0  0  0  0  0  0  0  0
    5.0615    2.9730   -2.0316 H   0  0  0  0  0  0  0  0  0  0  0  0
    2.8055    2.2842   -1.3716 H   0  0  0  0  0  0  0  0  0  0  0  0
    3.3154    3.6347   -0.3670 H   0  0  0  0  0  0  0  0  0  0  0  0
    3.9063    2.1410    1.4768 H   0  0  0  0  0  0  0  0  0  0  0  0
    2.2410    1.8761    1.0136 H   0  0  0  0  0  0  0  0  0  0  0  0
  1  2  1  0
  2  3  2  0
  3  4  1  0
  4  5  1  0
  5  6  1  0
  6  7  1  0
  7  8  2  0
  8  9  1  0
  9 10  2  0
 10 11  1  0
 11 12  2  0
  5 13  1  0
 13 14  1  0
 14 15  1  0
 15 16  1  0
 16 17  1  0
 17 18  1  0
 18 19  1  0
 19 20  1  0
 20 21  1  0
 21 22  1  0
 22 23  1  0
 13  2  1  0
 23 18  1  0
 12  7  1  0
  1 24  1  0
  1 25  1  0
  4 26  1  0
  4 27  1  0
  5 28  1  0
  6 29  1  0
  6 30  1  0
  8 31  1  0
  9 32  1  0
 10 33  1  0
 11 34  1  0
 12 35  1  0
 14 36  1  0
 14 37  1  0
 15 38  1  0
 15 39  1  0
 16 40  1  0
 16 41  1  0
 17 42  1  0
 17 43  1  0
 18 44  1  0
 19 45  1  0
 19 46  1  0
 20 47  1  0
 20 48  1  0
 21 49  1  0
 21 50  1  0
 22 51  1  0
 22 52  1  0
 23 53  1  0
 23 54  1  0
M  END
$$$$
