
     RDKit          3D

 45 47  0  0  0  0  0  0  0  0999 V2000
    7.0820    0.6045    0.1674 C   0  0  0  0  0  0  0  0  0  0  0  0
    6.2867    0.6841   -1.0126 O   0  0  0  0  0  0  0  0  0  0  0  0
    4.9441    0.5801   -0.7501 C   0  0  0  0  0  0  0  0  0  0  0  0
    4.1598    1.6484   -1.1922 C   0  0  0  0  0  0  0  0  0  0  0  0
    2.7793    1.6325   -0.9907 C   0  0  0  0  0  0  0  0  0  0  0  0
    2.1672    0.5424   -0.3588 C   0  0  0  0  0  0  0  0  0  0  0  0
    0.7643    0.5946   -0.2063 N   0  0  0  0  0  0  0  0  0  0  0  0
   -0.0384   -0.2605    0.5180 C   0  0  0  0  0  0  0  0  0  0  0  0
    0.3737   -1.1420    1.2678 O   0  0  0  0  0  0  0  0  0  0  0  0
   -1.4066   -0.0389    0.3494 N   0  0  0  0  0  0  0  0  0  0  0  0
   -2.0045    0.7452   -0.7368 C   0  0  0  0  0  0  0  0  0  0  0  0
   -3.3658    0.2011   -1.1470 C   0  0  0  0  0  0  0  0  0  0  0  0
   -4.3338    0.1737    0.0385 C   0  0  0  0  0  0  0  0  0  0  0  0
   -3.6385   -0.0475    1.3872 C   0  0  0  0  0  0  0  0  0  0  0  0
   -2.3276   -0.7951    1.2008 C   0  0  0  0  0  0  0  0  0  0  0  0
   -5.0428    1.4306    0.0861 O   0  0  0  0  0  0  0  0  0  0  0  0
   -6.4161    1.0687    0.2397 C   0  0  0  0  0  0  0  0  0  0  0  0
   -6.5101   -0.2346   -0.5063 C   0  0  0  0  0  0  0  0  0  0  0  0
   -5.2852   -0.8908   -0.1748 O   0  0  0  0  0  0  0  0  0  0  0  0
    2.9576   -0.5368    0.0560 C   0  0  0  0  0  0  0  0  0  0  0  0
    4.3466   -0.5390   -0.1462 C   0  0  0  0  0  0  0  0  0  0  0  0
    5.1749   -1.5760    0.2002 O   0  0  0  0  0  0  0  0  0  0  0  0
    4.5628   -2.8033    0.5845 C   0  0  0  0  0  0  0  0  0  0  0  0
    8.0172    1.1438   -0.0295 H   0  0  0  0  0  0  0  0  0  0  0  0
    7.3391   -0.4388    0.3859 H   0  0  0  0  0  0  0  0  0  0  0  0
    6.6030    1.0828    1.0336 H   0  0  0  0  0  0  0  0  0  0  0  0
    4.6284    2.4937   -1.6861 H   0  0  0  0  0  0  0  0  0  0  0  0
    2.1959    2.4847   -1.3282 H   0  0  0  0  0  0  0  0  0  0  0  0
    0.3191    1.4400   -0.5241 H   0  0  0  0  0  0  0  0  0  0  0  0
   -2.0882    1.7799   -0.3860 H   0  0  0  0  0  0  0  0  0  0  0  0
   -1.3410    0.7367   -1.6077 H   0  0  0  0  0  0  0  0  0  0  0  0
   -3.7726    0.8117   -1.9613 H   0  0  0  0  0  0  0  0  0  0  0  0
   -3.2383   -0.8115   -1.5491 H   0  0  0  0  0  0  0  0  0  0  0  0
   -3.4354    0.9195    1.8695 H   0  0  0  0  0  0  0  0  0  0  0  0
   -4.2882   -0.6109    2.0695 H   0  0  0  0  0  0  0  0  0  0  0  0
   -1.8662   -0.9810    2.1759 H   0  0  0  0  0  0  0  0  0  0  0  0
   -2.4947   -1.7688    0.7255 H   0  0  0  0  0  0  0  0  0  0  0  0
   -6.6173    0.9384    1.3081 H   0  0  0  0  0  0  0  0  0  0  0  0
   -7.0701    1.8503   -0.1603 H   0  0  0  0  0  0  0  0  0  0  0  0
   -6.5292   -0.0776   -1.5907 H   0  0  0  0  0  0  0  0  0  0  0  0
   -7.3691   -0.8444   -0.2138 H   0  0  0  0  0  0  0  0  0  0  0  0
    2.4864   -1.3849    0.5344 H   0  0  0  0  0  0  0  0  0  0  0  0
    5.3570   -3.5499    0.6956 H   0  0  0  0  0  0  0  0  0  0  0  0
    3.8754   -3.1651   -0.1885 H   0  0  0  0  0  0  0  0  0  0  0  0
    4.0590   -2.7053    1.5532 H   0  0  0  0  0  0  0  0  0  0  0  0
  1  2  1  0
  2  3  1  0
  3  4  2  0
  4  5  1  0
  5  6  2  0
  6  7  1  0
  7  8  1  0
  8  9  2  0
  8 10  1  0
 10 11  1  0
 11 12  1  0
 12 13  1  0
 13 14  1  0
 14 15  1  0
 13 16  1  0
 16 17  1  0
 17 18  1  0
 18 19  1  0
  6 20  1  0
 20 21  2  0
 21 22  1  0
 22 23  1  0
 21  3  1  0
 15 10  1  0
 19 13  1  0
  1 24  1  0
  1 25  1  0
  1 26  1  0
  4 27  1  0
  5 28  1  0
  7 29  1  0
 11 30  1  0
 11 31  1  0
 12 32  1  0
 12 33  1  0
 14 34  1  0
 14 35  1  0
 15 36  1  0
 15 37  1  0
 17 38  1  0
 17 39  1  0
 18 40  1  0
 18 41  1  0
 20 42  1  0
 23 43  1  0
 23 44  1  0
 23 45  1  0
M  END
$$$$
