
     RDKit          3D

 71 76  0  0  0  0  0  0  0  0999 V2000
   10.0512   -3.1554   -1.1127 C   0  0  0  0  0  0  0  0  0  0  0  0
    8.6978   -2.8050   -0.8548 O   0  0  0  0  0  0  0  0  0  0  0  0
    8.4823   -1.6484   -0.1536 C   0  0  0  0  0  0  0  0  0  0  0  0
    9.4621   -0.8757    0.4646 C   0  0  0  0  0  0  0  0  0  0  0  0
    9.0976    0.2824    1.1472 C   0  0  0  0  0  0  0  0  0  0  0  0
    7.7561    0.6694    1.2059 C   0  0  0  0  0  0  0  0  0  0  0  0
    6.7444   -0.0821    0.5875 C   0  0  0  0  0  0  0  0  0  0  0  0
    5.4100    0.3510    0.6859 N   0  0  0  0  0  0  0  0  0  0  0  0
    5.1704    1.6541    0.0172 C   0  0  0  0  0  0  0  0  0  0  0  0
    3.7963    2.2211    0.4139 C   0  0  0  0  0  0  0  0  0  0  0  0
    2.6929    1.2626    0.2529 N   0  0  0  0  0  0  0  0  0  0  0  0
    1.4074    1.8010    0.1674 C   0  0  0  0  0  0  0  0  0  0  0  0
    1.2284    3.0183    0.0771 O   0  0  0  0  0  0  0  0  0  0  0  0
    0.2285    0.8286    0.1246 C   0  0  0  0  0  0  0  0  0  0  0  0
    0.2052    0.0481   -1.2056 C   0  0  0  0  0  0  0  0  0  0  0  0
   -0.9987    0.4100   -2.0711 C   0  0  0  0  0  0  0  0  0  0  0  0
   -2.3173    0.2201   -1.3131 C   0  0  0  0  0  0  0  0  0  0  0  0
   -2.2068    0.6892    0.0694 N   0  0  0  0  0  0  0  0  0  0  0  0
   -3.3811    0.8128    0.8138 C   0  0  0  0  0  0  0  0  0  0  0  0
   -3.3545    1.5359    1.9757 N   0  0  0  0  0  0  0  0  0  0  0  0
   -4.4648    1.6353    2.7338 C   0  0  0  0  0  0  0  0  0  0  0  0
   -5.6726    1.0907    2.5143 N   0  0  0  0  0  0  0  0  0  0  0  0
   -5.6757    0.3869    1.3716 C   0  0  0  0  0  0  0  0  0  0  0  0
   -4.6239    0.2035    0.4886 C   0  0  0  0  0  0  0  0  0  0  0  0
   -5.0400   -0.5773   -0.5777 N   0  0  0  0  0  0  0  0  0  0  0  0
   -6.3133   -0.8585   -0.3591 C   0  0  0  0  0  0  0  0  0  0  0  0
   -6.7241   -0.3123    0.8368 N   0  0  0  0  0  0  0  0  0  0  0  0
   -8.0255   -0.4535    1.4449 C   0  0  0  0  0  0  0  0  0  0  0  0
   -9.1412    0.2190    0.6502 C   0  0  0  0  0  0  0  0  0  0  0  0
   -9.2064   -0.1488   -0.8376 C   0  0  0  0  0  0  0  0  0  0  0  0
   -8.6855   -1.5504   -1.1514 C   0  0  0  0  0  0  0  0  0  0  0  0
   -7.1659   -1.6353   -1.3153 C   0  0  0  0  0  0  0  0  0  0  0  0
   -1.0890    1.5811    0.3838 C   0  0  0  0  0  0  0  0  0  0  0  0
    2.9687   -0.0791    0.7891 C   0  0  0  0  0  0  0  0  0  0  0  0
    4.3488   -0.6275    0.3785 C   0  0  0  0  0  0  0  0  0  0  0  0
    7.1382   -1.2542   -0.0763 C   0  0  0  0  0  0  0  0  0  0  0  0
   10.5893   -2.3414   -1.6108 H   0  0  0  0  0  0  0  0  0  0  0  0
   10.5577   -3.4618   -0.1924 H   0  0  0  0  0  0  0  0  0  0  0  0
   10.0479   -4.0095   -1.7963 H   0  0  0  0  0  0  0  0  0  0  0  0
   10.5101   -1.1530    0.4428 H   0  0  0  0  0  0  0  0  0  0  0  0
    9.8544    0.8854    1.6423 H   0  0  0  0  0  0  0  0  0  0  0  0
    7.4961    1.5614    1.7709 H   0  0  0  0  0  0  0  0  0  0  0  0
    5.2070    1.5138   -1.0720 H   0  0  0  0  0  0  0  0  0  0  0  0
    5.9301    2.3987    0.2819 H   0  0  0  0  0  0  0  0  0  0  0  0
    3.5996    3.1221   -0.1789 H   0  0  0  0  0  0  0  0  0  0  0  0
    3.8091    2.5192    1.4712 H   0  0  0  0  0  0  0  0  0  0  0  0
    0.3469    0.1161    0.9515 H   0  0  0  0  0  0  0  0  0  0  0  0
    1.1230    0.2025   -1.7838 H   0  0  0  0  0  0  0  0  0  0  0  0
    0.1600   -1.0251   -0.9821 H   0  0  0  0  0  0  0  0  0  0  0  0
   -0.9066    1.4544   -2.3965 H   0  0  0  0  0  0  0  0  0  0  0  0
   -1.0067   -0.1995   -2.9818 H   0  0  0  0  0  0  0  0  0  0  0  0
   -3.1017    0.7621   -1.8568 H   0  0  0  0  0  0  0  0  0  0  0  0
   -2.5655   -0.8488   -1.3155 H   0  0  0  0  0  0  0  0  0  0  0  0
   -4.3662    2.2300    3.6377 H   0  0  0  0  0  0  0  0  0  0  0  0
   -7.9933   -0.0286    2.4550 H   0  0  0  0  0  0  0  0  0  0  0  0
   -8.2084   -1.5273    1.5725 H   0  0  0  0  0  0  0  0  0  0  0  0
  -10.0957   -0.0475    1.1216 H   0  0  0  0  0  0  0  0  0  0  0  0
   -9.0546    1.3094    0.7334 H   0  0  0  0  0  0  0  0  0  0  0  0
  -10.2523   -0.0694   -1.1595 H   0  0  0  0  0  0  0  0  0  0  0  0
   -8.6544    0.5926   -1.4283 H   0  0  0  0  0  0  0  0  0  0  0  0
   -9.1379   -1.8864   -2.0942 H   0  0  0  0  0  0  0  0  0  0  0  0
   -9.0305   -2.2650   -0.3942 H   0  0  0  0  0  0  0  0  0  0  0  0
   -6.8616   -2.6887   -1.2785 H   0  0  0  0  0  0  0  0  0  0  0  0
   -6.9159   -1.2835   -2.3261 H   0  0  0  0  0  0  0  0  0  0  0  0
   -1.1752    2.4942   -0.2185 H   0  0  0  0  0  0  0  0  0  0  0  0
   -1.0788    1.9023    1.4324 H   0  0  0  0  0  0  0  0  0  0  0  0
    2.2068   -0.7894    0.4641 H   0  0  0  0  0  0  0  0  0  0  0  0
    2.9034   -0.0010    1.8810 H   0  0  0  0  0  0  0  0  0  0  0  0
    4.3380   -0.8456   -0.6967 H   0  0  0  0  0  0  0  0  0  0  0  0
    4.5180   -1.5639    0.9227 H   0  0  0  0  0  0  0  0  0  0  0  0
    6.4078   -1.8866   -0.5724 H   0  0  0  0  0  0  0  0  0  0  0  0
  1  2  1  0
  2  3  1  0
  3  4  2  0
  4  5  1  0
  5  6  2  0
  6  7  1  0
  7  8  1  0
  8  9  1  0
  9 10  1  0
 10 11  1  0
 11 12  1  0
 12 13  2  0
 12 14  1  0
 14 15  1  0
 15 16  1  0
 16 17  1  0
 17 18  1  0
 18 19  1  0
 19 20  2  0
 20 21  1  0
 21 22  2  0
 22 23  1  0
 23 24  2  0
 24 25  1  0
 25 26  2  0
 26 27  1  0
 27 28  1  0
 28 29  1  0
 29 30  1  0
 30 31  1  0
 31 32  1  0
 18 33  1  0
 11 34  1  0
 34 35  1  0
  7 36  2  0
 36  3  1  0
 35  8  1  0
 33 14  1  0
 24 19  1  0
 32 26  1  0
 27 23  1  0
  1 37  1  0
  1 38  1  0
  1 39  1  0
  4 40  1  0
  5 41  1  0
  6 42  1  0
  9 43  1  0
  9 44  1  0
 10 45  1  0
 10 46  1  0
 14 47  1  0
 15 48  1  0
 15 49  1  0
 16 50  1  0
 16 51  1  0
 17 52  1  0
 17 53  1  0
 21 54  1  0
 28 55  1  0
 28 56  1  0
 29 57  1  0
 29 58  1  0
 30 59  1  0
 30 60  1  0
 31 61  1  0
 31 62  1  0
 32 63  1  0
 32 64  1  0
 33 65  1  0
 33 66  1  0
 34 67  1  0
 34 68  1  0
 35 69  1  0
 35 70  1  0
 36 71  1  0
M  END
$$$$
