
     RDKit          3D

 38 41  0  0  0  0  0  0  0  0999 V2000
   -5.1819    2.4711    0.5885 C   0  0  0  0  0  0  0  0  0  0  0  0
   -4.0353    1.5163    0.4153 C   0  0  0  0  0  0  0  0  0  0  0  0
   -4.2940    0.1572    0.2740 C   0  0  0  0  0  0  0  0  0  0  0  0
   -3.2346   -0.7486    0.1116 C   0  0  0  0  0  0  0  0  0  0  0  0
   -3.5238   -2.2159   -0.0385 C   0  0  0  0  0  0  0  0  0  0  0  0
   -1.9192   -0.2111    0.1007 C   0  0  0  0  0  0  0  0  0  0  0  0
   -1.7987    1.1623    0.2524 C   0  0  0  0  0  0  0  0  0  0  0  0
   -2.7996    2.0510    0.4082 N   0  0  0  0  0  0  0  0  0  0  0  0
   -0.1894    1.7001    0.2285 S   0  0  0  0  0  0  0  0  0  0  0  0
    0.4279    0.1069    0.0110 C   0  0  0  0  0  0  0  0  0  0  0  0
    1.7682   -0.3276   -0.1080 C   0  0  0  0  0  0  0  0  0  0  0  0
    2.8704    0.6388   -0.0500 C   0  0  0  0  0  0  0  0  0  0  0  0
    3.3027    1.3031   -1.2084 C   0  0  0  0  0  0  0  0  0  0  0  0
    4.3546    2.2197   -1.1527 C   0  0  0  0  0  0  0  0  0  0  0  0
    4.9870    2.4830    0.0604 C   0  0  0  0  0  0  0  0  0  0  0  0
    4.5688    1.8319    1.2187 C   0  0  0  0  0  0  0  0  0  0  0  0
    3.5168    0.9153    1.1647 C   0  0  0  0  0  0  0  0  0  0  0  0
    1.9690   -1.7103   -0.2769 C   0  0  0  0  0  0  0  0  0  0  0  0
    3.2929   -2.2458   -0.4077 C   0  0  0  0  0  0  0  0  0  0  0  0
    4.3564   -2.6922   -0.5434 N   0  0  0  0  0  0  0  0  0  0  0  0
    0.8681   -2.5632   -0.3285 C   0  0  0  0  0  0  0  0  0  0  0  0
    1.0024   -3.9472   -0.4522 N   0  0  0  0  0  0  0  0  0  0  0  0
   -0.3994   -2.1502   -0.2090 N   0  0  0  0  0  0  0  0  0  0  0  0
   -0.6169   -0.8166   -0.0411 C   0  0  0  0  0  0  0  0  0  0  0  0
   -5.8464    2.4250   -0.2799 H   0  0  0  0  0  0  0  0  0  0  0  0
   -4.8214    3.5002    0.6871 H   0  0  0  0  0  0  0  0  0  0  0  0
   -5.7489    2.2210    1.4905 H   0  0  0  0  0  0  0  0  0  0  0  0
   -5.3210   -0.1993    0.2908 H   0  0  0  0  0  0  0  0  0  0  0  0
   -3.0496   -2.7777    0.7723 H   0  0  0  0  0  0  0  0  0  0  0  0
   -4.5987   -2.4217   -0.0039 H   0  0  0  0  0  0  0  0  0  0  0  0
   -3.1451   -2.5777   -0.9995 H   0  0  0  0  0  0  0  0  0  0  0  0
    2.8212    1.1129   -2.1654 H   0  0  0  0  0  0  0  0  0  0  0  0
    4.6811    2.7278   -2.0565 H   0  0  0  0  0  0  0  0  0  0  0  0
    5.8068    3.1956    0.1030 H   0  0  0  0  0  0  0  0  0  0  0  0
    5.0624    2.0367    2.1653 H   0  0  0  0  0  0  0  0  0  0  0  0
    3.2043    0.4187    2.0812 H   0  0  0  0  0  0  0  0  0  0  0  0
    1.5912   -4.2356   -1.2272 H   0  0  0  0  0  0  0  0  0  0  0  0
    0.0715   -4.3542   -0.5088 H   0  0  0  0  0  0  0  0  0  0  0  0
  1  2  1  0
  2  3  2  0
  3  4  1  0
  4  5  1  0
  4  6  2  0
  6  7  1  0
  7  8  2  0
  7  9  1  0
  9 10  1  0
 10 11  2  0
 11 12  1  0
 12 13  2  0
 13 14  1  0
 14 15  2  0
 15 16  1  0
 16 17  2  0
 11 18  1  0
 18 19  1  0
 19 20  3  0
 18 21  2  0
 21 22  1  0
 21 23  1  0
 23 24  2  0
  8  2  1  0
 24 10  1  0
 24  6  1  0
 17 12  1  0
  1 25  1  0
  1 26  1  0
  1 27  1  0
  3 28  1  0
  5 29  1  0
  5 30  1  0
  5 31  1  0
 13 32  1  0
 14 33  1  0
 15 34  1  0
 16 35  1  0
 17 36  1  0
 22 37  1  0
 22 38  1  0
M  END
$$$$
