
     RDKit          3D

 45 47  0  0  0  0  0  0  0  0999 V2000
   -5.1548   -2.6516   -1.3315 C   0  0  0  0  0  0  0  0  0  0  0  0
   -4.3446   -1.4369   -1.6761 C   0  0  0  0  0  0  0  0  0  0  0  0
   -4.6372   -0.6934   -2.8241 C   0  0  0  0  0  0  0  0  0  0  0  0
   -3.9142    0.4617   -3.1195 C   0  0  0  0  0  0  0  0  0  0  0  0
   -2.8960    0.8876   -2.2675 C   0  0  0  0  0  0  0  0  0  0  0  0
   -2.5910    0.1620   -1.1082 C   0  0  0  0  0  0  0  0  0  0  0  0
   -1.4951    0.6247   -0.1846 C   0  0  0  0  0  0  0  0  0  0  0  0
   -2.1670    1.7821    1.0126 S   0  0  0  0  0  6  0  0  0  0  0  0
   -2.5017    3.0274    0.3412 O   0  0  0  0  0  0  0  0  0  0  0  0
   -3.1671    1.0931    1.8132 O   0  0  0  0  0  0  0  0  0  0  0  0
   -0.7966    2.1017    2.1108 C   0  0  0  0  0  0  0  0  0  0  0  0
    0.3662    2.5937    1.3423 C   0  0  0  0  0  0  0  0  0  0  0  0
    0.7169    3.8248    0.8309 C   0  0  0  0  0  0  0  0  0  0  0  0
    1.9686    3.6502    0.1947 C   0  0  0  0  0  0  0  0  0  0  0  0
    2.3207    2.3244    0.3575 C   0  0  0  0  0  0  0  0  0  0  0  0
    3.4877    1.5887   -0.0849 C   0  0  0  0  0  0  0  0  0  0  0  0
    4.3925    2.0847   -0.7502 O   0  0  0  0  0  0  0  0  0  0  0  0
    3.4927    0.2673    0.2931 N   0  0  0  0  0  0  0  0  0  0  0  0
    4.4721   -0.6558   -0.2194 C   0  0  0  0  0  0  0  0  0  0  0  0
    4.3516   -1.9341    0.5205 C   0  0  0  0  0  0  0  0  0  0  0  0
    5.2252   -2.6665    1.2973 C   0  0  0  0  0  0  0  0  0  0  0  0
    4.5116   -3.8089    1.7333 C   0  0  0  0  0  0  0  0  0  0  0  0
    3.2499   -3.7012    1.1980 C   0  0  0  0  0  0  0  0  0  0  0  0
    3.1401   -2.5649    0.4630 O   0  0  0  0  0  0  0  0  0  0  0  0
    1.3349    1.6759    1.0591 O   0  0  0  0  0  0  0  0  0  0  0  0
   -3.3293   -0.9954   -0.8169 C   0  0  0  0  0  0  0  0  0  0  0  0
   -5.5221   -3.1464   -2.2368 H   0  0  0  0  0  0  0  0  0  0  0  0
   -6.0106   -2.3671   -0.7118 H   0  0  0  0  0  0  0  0  0  0  0  0
   -4.5489   -3.3826   -0.7858 H   0  0  0  0  0  0  0  0  0  0  0  0
   -5.4371   -1.0050   -3.4919 H   0  0  0  0  0  0  0  0  0  0  0  0
   -4.1522    1.0374   -4.0103 H   0  0  0  0  0  0  0  0  0  0  0  0
   -2.3538    1.8002   -2.5085 H   0  0  0  0  0  0  0  0  0  0  0  0
   -0.7053    1.1218   -0.7543 H   0  0  0  0  0  0  0  0  0  0  0  0
   -1.0611   -0.2172    0.3639 H   0  0  0  0  0  0  0  0  0  0  0  0
   -1.1309    2.8447    2.8410 H   0  0  0  0  0  0  0  0  0  0  0  0
   -0.5696    1.1705    2.6385 H   0  0  0  0  0  0  0  0  0  0  0  0
    0.1355    4.7358    0.8997 H   0  0  0  0  0  0  0  0  0  0  0  0
    2.5574    4.3951   -0.3246 H   0  0  0  0  0  0  0  0  0  0  0  0
    2.6510   -0.1092    0.7120 H   0  0  0  0  0  0  0  0  0  0  0  0
    5.4713   -0.2215   -0.1090 H   0  0  0  0  0  0  0  0  0  0  0  0
    4.2785   -0.8063   -1.2866 H   0  0  0  0  0  0  0  0  0  0  0  0
    6.2510   -2.4064    1.5205 H   0  0  0  0  0  0  0  0  0  0  0  0
    4.8718   -4.6130    2.3598 H   0  0  0  0  0  0  0  0  0  0  0  0
    2.3624   -4.3171    1.2433 H   0  0  0  0  0  0  0  0  0  0  0  0
   -3.1233   -1.5548    0.0945 H   0  0  0  0  0  0  0  0  0  0  0  0
  1  2  1  0
  2  3  2  0
  3  4  1  0
  4  5  2  0
  5  6  1  0
  6  7  1  0
  7  8  1  0
  8  9  2  0
  8 10  2  0
  8 11  1  0
 11 12  1  0
 12 13  2  0
 13 14  1  0
 14 15  2  0
 15 16  1  0
 16 17  2  0
 16 18  1  0
 18 19  1  0
 19 20  1  0
 20 21  2  0
 21 22  1  0
 22 23  2  0
 23 24  1  0
 15 25  1  0
  6 26  2  0
 26  2  1  0
 25 12  1  0
 24 20  1  0
  1 27  1  0
  1 28  1  0
  1 29  1  0
  3 30  1  0
  4 31  1  0
  5 32  1  0
  7 33  1  0
  7 34  1  0
 11 35  1  0
 11 36  1  0
 13 37  1  0
 14 38  1  0
 18 39  1  0
 19 40  1  0
 19 41  1  0
 21 42  1  0
 22 43  1  0
 23 44  1  0
 26 45  1  0
M  END
$$$$
