
     RDKit          3D

 52 55  0  0  0  0  0  0  0  0999 V2000
   -6.5610   -0.7764    0.8792 C   0  0  0  0  0  0  0  0  0  0  0  0
   -5.3869    0.1549    0.8854 C   0  0  0  0  0  0  0  0  0  0  0  0
   -4.1959   -0.1911    1.5367 C   0  0  0  0  0  0  0  0  0  0  0  0
   -3.1226    0.7099    1.5509 C   0  0  0  0  0  0  0  0  0  0  0  0
   -1.6199    0.2551    2.3866 S   0  0  0  0  0  6  0  0  0  0  0  0
   -0.8104    1.4433    2.5353 O   0  0  0  0  0  0  0  0  0  0  0  0
   -1.9790   -0.5776    3.5122 O   0  0  0  0  0  0  0  0  0  0  0  0
   -0.8835   -0.7421    1.2702 N   0  0  0  0  0  0  0  0  0  0  0  0
   -0.4822   -0.2210   -0.0439 C   0  0  0  0  0  0  0  0  0  0  0  0
    0.7837   -0.9576   -0.5876 C   0  0  0  0  0  0  0  0  0  0  0  0
    2.0074   -0.8478    0.3247 C   0  0  0  0  0  0  0  0  0  0  0  0
    2.8152   -1.9953    0.5402 C   0  0  0  0  0  0  0  0  0  0  0  0
    3.9462   -1.9502    1.3624 C   0  0  0  0  0  0  0  0  0  0  0  0
    4.2533   -0.7502    1.9608 C   0  0  0  0  0  0  0  0  0  0  0  0
    3.4840    0.3704    1.7652 C   0  0  0  0  0  0  0  0  0  0  0  0
    2.3620    0.3558    0.9616 C   0  0  0  0  0  0  0  0  0  0  0  0
    3.9608    1.4509    2.4399 O   0  0  0  0  0  0  0  0  0  0  0  0
    5.1031    0.8730    3.1037 C   0  0  0  0  0  0  0  0  0  0  0  0
    5.3085   -0.5197    2.7865 O   0  0  0  0  0  0  0  0  0  0  0  0
    1.0195   -0.6090   -2.0108 N   0  0  0  0  0  0  0  0  0  0  0  0
    1.9026   -1.5644   -2.7092 C   0  0  0  0  0  0  0  0  0  0  0  0
    1.9976   -1.2300   -4.2073 C   0  0  0  0  0  0  0  0  0  0  0  0
    2.4799    0.1037   -4.4121 O   0  0  0  0  0  0  0  0  0  0  0  0
    1.6183    1.0464   -3.7618 C   0  0  0  0  0  0  0  0  0  0  0  0
    1.5124    0.7612   -2.2528 C   0  0  0  0  0  0  0  0  0  0  0  0
   -3.2329    1.9685    0.9511 C   0  0  0  0  0  0  0  0  0  0  0  0
   -4.4226    2.3181    0.3140 C   0  0  0  0  0  0  0  0  0  0  0  0
   -5.4843    1.4158    0.2875 C   0  0  0  0  0  0  0  0  0  0  0  0
   -6.6216    1.7769   -0.3233 F   0  0  0  0  0  0  0  0  0  0  0  0
   -7.0695   -0.7523   -0.0903 H   0  0  0  0  0  0  0  0  0  0  0  0
   -6.2453   -1.8103    1.0541 H   0  0  0  0  0  0  0  0  0  0  0  0
   -7.2700   -0.4909    1.6624 H   0  0  0  0  0  0  0  0  0  0  0  0
   -4.1053   -1.1542    2.0359 H   0  0  0  0  0  0  0  0  0  0  0  0
   -1.0140   -1.7412    1.4108 H   0  0  0  0  0  0  0  0  0  0  0  0
   -1.3167   -0.3898   -0.7359 H   0  0  0  0  0  0  0  0  0  0  0  0
   -0.3142    0.8587    0.0089 H   0  0  0  0  0  0  0  0  0  0  0  0
    0.4884   -2.0180   -0.5765 H   0  0  0  0  0  0  0  0  0  0  0  0
    2.5603   -2.9383    0.0600 H   0  0  0  0  0  0  0  0  0  0  0  0
    4.5609   -2.8280    1.5248 H   0  0  0  0  0  0  0  0  0  0  0  0
    1.7829    1.2653    0.8459 H   0  0  0  0  0  0  0  0  0  0  0  0
    4.9661    0.9697    4.1871 H   0  0  0  0  0  0  0  0  0  0  0  0
    5.9984    1.4337    2.8116 H   0  0  0  0  0  0  0  0  0  0  0  0
    2.9129   -1.5336   -2.2841 H   0  0  0  0  0  0  0  0  0  0  0  0
    1.5165   -2.5846   -2.6051 H   0  0  0  0  0  0  0  0  0  0  0  0
    1.0252   -1.3426   -4.7020 H   0  0  0  0  0  0  0  0  0  0  0  0
    2.6994   -1.9139   -4.6953 H   0  0  0  0  0  0  0  0  0  0  0  0
    0.6314    1.0234   -4.2399 H   0  0  0  0  0  0  0  0  0  0  0  0
    2.0407    2.0438   -3.9206 H   0  0  0  0  0  0  0  0  0  0  0  0
    0.8380    1.5030   -1.8140 H   0  0  0  0  0  0  0  0  0  0  0  0
    2.5067    0.8949   -1.8107 H   0  0  0  0  0  0  0  0  0  0  0  0
   -2.4084    2.6775    0.9827 H   0  0  0  0  0  0  0  0  0  0  0  0
   -4.5361    3.2910   -0.1550 H   0  0  0  0  0  0  0  0  0  0  0  0
  1  2  1  0
  2  3  2  0
  3  4  1  0
  4  5  1  0
  5  6  2  0
  5  7  2  0
  5  8  1  0
  8  9  1  0
  9 10  1  0
 10 11  1  0
 11 12  2  0
 12 13  1  0
 13 14  2  0
 14 15  1  0
 15 16  2  0
 15 17  1  0
 17 18  1  0
 18 19  1  0
 10 20  1  0
 20 21  1  0
 21 22  1  0
 22 23  1  0
 23 24  1  0
 24 25  1  0
  4 26  2  0
 26 27  1  0
 27 28  2  0
 28 29  1  0
 28  2  1  0
 16 11  1  0
 25 20  1  0
 19 14  1  0
  1 30  1  0
  1 31  1  0
  1 32  1  0
  3 33  1  0
  8 34  1  0
  9 35  1  0
  9 36  1  0
 10 37  1  0
 12 38  1  0
 13 39  1  0
 16 40  1  0
 18 41  1  0
 18 42  1  0
 21 43  1  0
 21 44  1  0
 22 45  1  0
 22 46  1  0
 24 47  1  0
 24 48  1  0
 25 49  1  0
 25 50  1  0
 26 51  1  0
 27 52  1  0
M  END
$$$$
