
     RDKit          3D

 49 52  0  0  0  0  0  0  0  0999 V2000
    3.0165    0.8880   -2.3185 N   0  0  0  0  0  0  0  0  0  0  0  0
    2.5271    0.8868   -1.2640 C   0  0  0  0  0  0  0  0  0  0  0  0
    1.8852    0.9255    0.0569 C   0  0  0  0  0  0  0  0  0  0  0  0
    2.4586   -0.1949    0.9198 C   0  0  0  0  0  0  0  0  0  0  0  0
    3.4029    0.0092    1.6861 O   0  0  0  0  0  0  0  0  0  0  0  0
    1.9242   -1.4533    0.7610 N   0  0  0  0  0  0  0  0  0  0  0  0
    2.3201   -2.5478    1.6128 C   0  0  0  0  0  0  0  0  0  0  0  0
    1.5834   -3.8035    1.2315 C   0  0  0  0  0  0  0  0  0  0  0  0
    2.0110   -4.5708    0.1386 C   0  0  0  0  0  0  0  0  0  0  0  0
    1.3121   -5.7189   -0.2371 C   0  0  0  0  0  0  0  0  0  0  0  0
    0.1755   -6.1066    0.4699 C   0  0  0  0  0  0  0  0  0  0  0  0
   -0.2659   -5.3449    1.5509 C   0  0  0  0  0  0  0  0  0  0  0  0
    0.4314   -4.1957    1.9279 C   0  0  0  0  0  0  0  0  0  0  0  0
    0.3715    0.9399   -0.0735 C   0  0  0  0  0  0  0  0  0  0  0  0
   -0.2972   -0.2531   -0.0649 N   0  0  0  0  0  0  0  0  0  0  0  0
   -1.6327   -0.2159   -0.2175 C   0  0  0  0  0  0  0  0  0  0  0  0
   -2.3576   -1.4015   -0.2124 C   0  0  0  0  0  0  0  0  0  0  0  0
   -3.7440   -1.4020   -0.3677 C   0  0  0  0  0  0  0  0  0  0  0  0
   -4.4151   -0.1969   -0.5293 C   0  0  0  0  0  0  0  0  0  0  0  0
   -3.6933    0.9976   -0.5359 C   0  0  0  0  0  0  0  0  0  0  0  0
   -2.3117    1.0094   -0.3844 C   0  0  0  0  0  0  0  0  0  0  0  0
   -1.6476    2.1809   -0.4053 N   0  0  0  0  0  0  0  0  0  0  0  0
   -0.3037    2.1577   -0.2573 C   0  0  0  0  0  0  0  0  0  0  0  0
    0.4211    3.3601   -0.3474 N   0  0  0  0  0  0  0  0  0  0  0  0
    0.5690    3.7842   -1.7608 C   0  0  0  0  0  0  0  0  0  0  0  0
   -0.0904    5.1571   -1.8487 C   0  0  0  0  0  0  0  0  0  0  0  0
    0.0851    5.7037   -0.4461 C   0  0  0  0  0  0  0  0  0  0  0  0
   -0.1931    4.4725    0.4070 C   0  0  0  0  0  0  0  0  0  0  0  0
    2.1900    1.8439    0.5766 H   0  0  0  0  0  0  0  0  0  0  0  0
    0.9878   -1.4939    0.3565 H   0  0  0  0  0  0  0  0  0  0  0  0
    2.1126   -2.2722    2.6531 H   0  0  0  0  0  0  0  0  0  0  0  0
    3.4037   -2.6928    1.5298 H   0  0  0  0  0  0  0  0  0  0  0  0
    2.8913   -4.2720   -0.4277 H   0  0  0  0  0  0  0  0  0  0  0  0
    1.6557   -6.3093   -1.0830 H   0  0  0  0  0  0  0  0  0  0  0  0
   -0.3661   -7.0032    0.1780 H   0  0  0  0  0  0  0  0  0  0  0  0
   -1.1533   -5.6469    2.1011 H   0  0  0  0  0  0  0  0  0  0  0  0
    0.0712   -3.6075    2.7695 H   0  0  0  0  0  0  0  0  0  0  0  0
   -1.8318   -2.3458   -0.0893 H   0  0  0  0  0  0  0  0  0  0  0  0
   -4.2921   -2.3410   -0.3655 H   0  0  0  0  0  0  0  0  0  0  0  0
   -5.4951   -0.1820   -0.6543 H   0  0  0  0  0  0  0  0  0  0  0  0
   -4.2168    1.9416   -0.6661 H   0  0  0  0  0  0  0  0  0  0  0  0
    1.6406    3.8736   -1.9765 H   0  0  0  0  0  0  0  0  0  0  0  0
    0.1372    3.0905   -2.4926 H   0  0  0  0  0  0  0  0  0  0  0  0
    0.3657    5.7917   -2.6141 H   0  0  0  0  0  0  0  0  0  0  0  0
   -1.1567    5.0490   -2.0814 H   0  0  0  0  0  0  0  0  0  0  0  0
   -0.5935    6.5309   -0.2229 H   0  0  0  0  0  0  0  0  0  0  0  0
    1.1156    6.0487   -0.2975 H   0  0  0  0  0  0  0  0  0  0  0  0
    0.2680    4.5622    1.3959 H   0  0  0  0  0  0  0  0  0  0  0  0
   -1.2765    4.3676    0.5443 H   0  0  0  0  0  0  0  0  0  0  0  0
  1  2  3  0
  2  3  1  0
  3  4  1  0
  4  5  2  0
  4  6  1  0
  6  7  1  0
  7  8  1  0
  8  9  2  0
  9 10  1  0
 10 11  2  0
 11 12  1  0
 12 13  2  0
  3 14  1  0
 14 15  2  0
 15 16  1  0
 16 17  2  0
 17 18  1  0
 18 19  2  0
 19 20  1  0
 20 21  2  0
 21 22  1  0
 22 23  2  0
 23 24  1  0
 24 25  1  0
 25 26  1  0
 26 27  1  0
 27 28  1  0
 13  8  1  0
 23 14  1  0
 28 24  1  0
 21 16  1  0
  3 29  1  0
  6 30  1  0
  7 31  1  0
  7 32  1  0
  9 33  1  0
 10 34  1  0
 11 35  1  0
 12 36  1  0
 13 37  1  0
 17 38  1  0
 18 39  1  0
 19 40  1  0
 20 41  1  0
 25 42  1  0
 25 43  1  0
 26 44  1  0
 26 45  1  0
 27 46  1  0
 27 47  1  0
 28 48  1  0
 28 49  1  0
M  END
$$$$
