
     RDKit          3D

 43 46  0  0  0  0  0  0  0  0999 V2000
    0.5387    5.8691   -1.7053 N   0  0  0  0  0  0  0  0  0  0  0  0
   -0.0878    5.2959   -2.4962 C   0  0  0  0  0  0  0  0  0  0  0  0
   -0.8944    4.5832   -3.4947 C   0  0  0  0  0  0  0  0  0  0  0  0
   -1.9860    3.7503   -2.8256 C   0  0  0  0  0  0  0  0  0  0  0  0
   -1.4589    2.5428   -2.2155 N   0  0  0  0  0  0  0  0  0  0  0  0
   -1.2289    2.3307   -0.8914 C   0  0  0  0  0  0  0  0  0  0  0  0
   -0.7416    1.0526   -0.7940 C   0  0  0  0  0  0  0  0  0  0  0  0
   -0.3804    0.4541    0.4508 C   0  0  0  0  0  0  0  0  0  0  0  0
    0.7334   -0.2473    0.7548 C   0  0  0  0  0  0  0  0  0  0  0  0
    1.8027   -0.4257   -0.1693 C   0  0  0  0  0  0  0  0  0  0  0  0
    2.6940   -0.5553   -0.9012 N   0  0  0  0  0  0  0  0  0  0  0  0
    0.8496   -0.7529    2.0935 C   0  0  0  0  0  0  0  0  0  0  0  0
    0.3663   -0.1748    3.1797 N   0  0  0  0  0  0  0  0  0  0  0  0
    0.6225   -0.9264    4.3116 C   0  0  0  0  0  0  0  0  0  0  0  0
    0.2759   -0.5882    5.6301 C   0  0  0  0  0  0  0  0  0  0  0  0
    0.5862   -1.4591    6.6779 C   0  0  0  0  0  0  0  0  0  0  0  0
    1.2294   -2.6631    6.4239 C   0  0  0  0  0  0  0  0  0  0  0  0
    1.5939   -3.0199    5.1227 C   0  0  0  0  0  0  0  0  0  0  0  0
    1.2859   -2.1319    4.0797 C   0  0  0  0  0  0  0  0  0  0  0  0
    1.6146   -2.2773    2.3992 S   0  0  0  0  0  0  0  0  0  0  0  0
   -0.7615    0.5394   -2.1307 C   0  0  0  0  0  0  0  0  0  0  0  0
   -0.4201   -0.7941   -2.6202 C   0  0  0  0  0  0  0  0  0  0  0  0
    0.4428   -0.9305   -3.7186 C   0  0  0  0  0  0  0  0  0  0  0  0
    0.8231   -2.1979   -4.1656 C   0  0  0  0  0  0  0  0  0  0  0  0
    0.3337   -3.3260   -3.5184 C   0  0  0  0  0  0  0  0  0  0  0  0
    0.7239   -4.5434   -3.9302 F   0  0  0  0  0  0  0  0  0  0  0  0
   -0.5435   -3.2117   -2.4432 C   0  0  0  0  0  0  0  0  0  0  0  0
   -0.9255   -1.9450   -1.9953 C   0  0  0  0  0  0  0  0  0  0  0  0
   -1.1761    1.4822   -2.9920 N   0  0  0  0  0  0  0  0  0  0  0  0
   -1.3655    5.3241   -4.1502 H   0  0  0  0  0  0  0  0  0  0  0  0
   -0.2468    3.9573   -4.1239 H   0  0  0  0  0  0  0  0  0  0  0  0
   -2.5149    4.3236   -2.0476 H   0  0  0  0  0  0  0  0  0  0  0  0
   -2.7294    3.4256   -3.5641 H   0  0  0  0  0  0  0  0  0  0  0  0
   -1.4112    3.0925   -0.1481 H   0  0  0  0  0  0  0  0  0  0  0  0
   -1.1082    0.6209    1.2517 H   0  0  0  0  0  0  0  0  0  0  0  0
   -0.2269    0.3456    5.8238 H   0  0  0  0  0  0  0  0  0  0  0  0
    0.3102   -1.1910    7.6998 H   0  0  0  0  0  0  0  0  0  0  0  0
    1.4670   -3.3388    7.2462 H   0  0  0  0  0  0  0  0  0  0  0  0
    2.1014   -3.9574    4.9260 H   0  0  0  0  0  0  0  0  0  0  0  0
    0.8404   -0.0470   -4.2145 H   0  0  0  0  0  0  0  0  0  0  0  0
    1.5092   -2.3095   -5.0023 H   0  0  0  0  0  0  0  0  0  0  0  0
   -0.9173   -4.1100   -1.9615 H   0  0  0  0  0  0  0  0  0  0  0  0
   -1.6199   -1.8658   -1.1644 H   0  0  0  0  0  0  0  0  0  0  0  0
  1  2  3  0
  2  3  1  0
  3  4  1  0
  4  5  1  0
  5  6  1  0
  6  7  2  0
  7  8  1  0
  8  9  2  3
  9 10  1  0
 10 11  3  0
  9 12  1  0
 12 13  2  0
 13 14  1  0
 14 15  2  0
 15 16  1  0
 16 17  2  0
 17 18  1  0
 18 19  2  0
 19 20  1  0
  7 21  1  0
 21 22  1  0
 22 23  2  0
 23 24  1  0
 24 25  2  0
 25 26  1  0
 25 27  1  0
 27 28  2  0
 21 29  2  0
 29  5  1  0
 20 12  1  0
 28 22  1  0
 19 14  1  0
  3 30  1  0
  3 31  1  0
  4 32  1  0
  4 33  1  0
  6 34  1  0
  8 35  1  0
 15 36  1  0
 16 37  1  0
 17 38  1  0
 18 39  1  0
 23 40  1  0
 24 41  1  0
 27 42  1  0
 28 43  1  0
M  END
$$$$
