
     RDKit          3D

 49 52  0  0  0  0  0  0  0  0999 V2000
   -5.1255    2.0313    2.3908 C   0  0  0  0  0  0  0  0  0  0  0  0
   -4.7298    1.3610    1.1079 C   0  0  0  0  0  0  0  0  0  0  0  0
   -4.1678    2.1110    0.0660 C   0  0  0  0  0  0  0  0  0  0  0  0
   -3.8252    1.4998   -1.1409 C   0  0  0  0  0  0  0  0  0  0  0  0
   -4.0450    0.1295   -1.3056 C   0  0  0  0  0  0  0  0  0  0  0  0
   -3.6122   -0.6436   -2.8397 S   0  0  0  0  0  6  0  0  0  0  0  0
   -3.7452    0.3328   -3.9036 O   0  0  0  0  0  0  0  0  0  0  0  0
   -4.2352   -1.9516   -2.9006 O   0  0  0  0  0  0  0  0  0  0  0  0
   -1.9162   -0.9694   -2.7441 C   0  0  0  0  0  0  0  0  0  0  0  0
   -1.1751   -0.6264   -1.6157 N   0  0  0  0  0  0  0  0  0  0  0  0
    0.0873   -0.9578   -1.7705 C   0  0  0  0  0  0  0  0  0  0  0  0
    1.0889   -0.7660   -0.8931 N   0  0  0  0  0  0  0  0  0  0  0  0
    1.0832   -0.1889    0.3971 C   0  0  0  0  0  0  0  0  0  0  0  0
   -0.0642    0.2555    1.0611 C   0  0  0  0  0  0  0  0  0  0  0  0
    0.0240    0.8170    2.3370 C   0  0  0  0  0  0  0  0  0  0  0  0
    1.2607    0.9445    2.9634 C   0  0  0  0  0  0  0  0  0  0  0  0
    2.4183    0.5100    2.3180 C   0  0  0  0  0  0  0  0  0  0  0  0
    2.3471   -0.0603    1.0387 C   0  0  0  0  0  0  0  0  0  0  0  0
    3.4959   -0.5079    0.3233 N   0  0  0  0  0  0  0  0  0  0  0  0
    4.3484    0.6335   -0.0953 C   0  0  0  0  0  0  0  0  0  0  0  0
    5.5291    0.1020   -0.9254 C   0  0  0  0  0  0  0  0  0  0  0  0
    6.2968   -0.8655   -0.1879 O   0  0  0  0  0  0  0  0  0  0  0  0
    5.4667   -1.9753    0.1998 C   0  0  0  0  0  0  0  0  0  0  0  0
    4.2883   -1.5127    1.0731 C   0  0  0  0  0  0  0  0  0  0  0  0
    0.4409   -1.7078   -3.2913 S   0  0  0  0  0  0  0  0  0  0  0  0
   -1.1897   -1.5663   -3.7405 C   0  0  0  0  0  0  0  0  0  0  0  0
   -1.6893   -2.1401   -5.2765 Cl  0  0  0  0  0  0  0  0  0  0  0  0
   -4.6312   -0.6252   -0.2869 C   0  0  0  0  0  0  0  0  0  0  0  0
   -4.9725   -0.0063    0.9168 C   0  0  0  0  0  0  0  0  0  0  0  0
   -5.1546    1.3132    3.2170 H   0  0  0  0  0  0  0  0  0  0  0  0
   -4.4021    2.8083    2.6607 H   0  0  0  0  0  0  0  0  0  0  0  0
   -6.1156    2.4858    2.2854 H   0  0  0  0  0  0  0  0  0  0  0  0
   -3.9942    3.1779    0.1895 H   0  0  0  0  0  0  0  0  0  0  0  0
   -3.3865    2.0946   -1.9391 H   0  0  0  0  0  0  0  0  0  0  0  0
    2.0400   -1.0394   -1.1373 H   0  0  0  0  0  0  0  0  0  0  0  0
   -1.0463    0.1711    0.6074 H   0  0  0  0  0  0  0  0  0  0  0  0
   -0.8796    1.1548    2.8383 H   0  0  0  0  0  0  0  0  0  0  0  0
    1.3240    1.3854    3.9547 H   0  0  0  0  0  0  0  0  0  0  0  0
    3.3732    0.6305    2.8206 H   0  0  0  0  0  0  0  0  0  0  0  0
    3.7699    1.3401   -0.7019 H   0  0  0  0  0  0  0  0  0  0  0  0
    4.7394    1.1623    0.7835 H   0  0  0  0  0  0  0  0  0  0  0  0
    6.1998    0.9258   -1.1902 H   0  0  0  0  0  0  0  0  0  0  0  0
    5.1790   -0.3595   -1.8568 H   0  0  0  0  0  0  0  0  0  0  0  0
    6.0926   -2.6768    0.7603 H   0  0  0  0  0  0  0  0  0  0  0  0
    5.1123   -2.4867   -0.7033 H   0  0  0  0  0  0  0  0  0  0  0  0
    4.6884   -1.0815    1.9986 H   0  0  0  0  0  0  0  0  0  0  0  0
    3.6631   -2.3761    1.3269 H   0  0  0  0  0  0  0  0  0  0  0  0
   -4.8231   -1.6881   -0.4160 H   0  0  0  0  0  0  0  0  0  0  0  0
   -5.4312   -0.5985    1.7060 H   0  0  0  0  0  0  0  0  0  0  0  0
  1  2  1  0
  2  3  2  0
  3  4  1  0
  4  5  2  0
  5  6  1  0
  6  7  2  0
  6  8  2  0
  6  9  1  0
  9 10  1  0
 10 11  2  0
 11 12  1  0
 12 13  1  0
 13 14  2  0
 14 15  1  0
 15 16  2  0
 16 17  1  0
 17 18  2  0
 18 19  1  0
 19 20  1  0
 20 21  1  0
 21 22  1  0
 22 23  1  0
 23 24  1  0
 11 25  1  0
 25 26  1  0
 26 27  1  0
  5 28  1  0
 28 29  2  0
 29  2  1  0
 26  9  2  0
 18 13  1  0
 24 19  1  0
  1 30  1  0
  1 31  1  0
  1 32  1  0
  3 33  1  0
  4 34  1  0
 12 35  1  0
 14 36  1  0
 15 37  1  0
 16 38  1  0
 17 39  1  0
 20 40  1  0
 20 41  1  0
 21 42  1  0
 21 43  1  0
 23 44  1  0
 23 45  1  0
 24 46  1  0
 24 47  1  0
 28 48  1  0
 29 49  1  0
M  END
$$$$
