
     RDKit          3D

 58 61  0  0  0  0  0  0  0  0999 V2000
    4.7869   -0.1239   -6.3262 C   0  0  0  0  0  0  0  0  0  0  0  0
    3.9730    1.0099   -6.0419 O   0  0  0  0  0  0  0  0  0  0  0  0
    3.7774    1.3081   -4.7206 C   0  0  0  0  0  0  0  0  0  0  0  0
    4.3589    0.6511   -3.6354 C   0  0  0  0  0  0  0  0  0  0  0  0
    4.0692    1.0603   -2.3289 C   0  0  0  0  0  0  0  0  0  0  0  0
    3.1987    2.1347   -2.0885 C   0  0  0  0  0  0  0  0  0  0  0  0
    2.8603    2.5376   -0.6771 C   0  0  0  0  0  0  0  0  0  0  0  0
    1.8047    1.7029   -0.1536 N   0  0  0  0  0  0  0  0  0  0  0  0
    2.0447    0.5747    0.5913 C   0  0  0  0  0  0  0  0  0  0  0  0
    3.1813    0.2985    0.9861 O   0  0  0  0  0  0  0  0  0  0  0  0
    0.8742   -0.3570    0.8906 C   0  0  0  0  0  0  0  0  0  0  0  0
    0.9685   -1.5376    0.0186 C   0  0  0  0  0  0  0  0  0  0  0  0
    1.0061   -2.4895   -0.6458 N   0  0  0  0  0  0  0  0  0  0  0  0
   -0.5226    0.2392    0.8268 C   0  0  0  0  0  0  0  0  0  0  0  0
   -0.7969    1.1832   -0.1247 N   0  0  0  0  0  0  0  0  0  0  0  0
   -2.0553    1.6592   -0.1744 C   0  0  0  0  0  0  0  0  0  0  0  0
   -2.3887    2.6269   -1.1152 C   0  0  0  0  0  0  0  0  0  0  0  0
   -3.6811    3.1513   -1.1902 C   0  0  0  0  0  0  0  0  0  0  0  0
   -4.6550    2.6995   -0.3100 C   0  0  0  0  0  0  0  0  0  0  0  0
   -4.3295    1.7249    0.6350 C   0  0  0  0  0  0  0  0  0  0  0  0
   -3.0475    1.1949    0.7166 C   0  0  0  0  0  0  0  0  0  0  0  0
   -2.7773    0.2505    1.6361 N   0  0  0  0  0  0  0  0  0  0  0  0
   -1.5205   -0.2406    1.6932 C   0  0  0  0  0  0  0  0  0  0  0  0
   -1.2360   -1.2939    2.5852 N   0  0  0  0  0  0  0  0  0  0  0  0
   -1.8039   -2.5736    2.0717 C   0  0  0  0  0  0  0  0  0  0  0  0
   -2.9921   -3.0832    2.9197 C   0  0  0  0  0  0  0  0  0  0  0  0
   -2.7049   -3.2422    4.3634 N   0  0  0  0  0  0  0  0  0  0  0  0
   -2.2737   -4.6008    4.6863 C   0  0  0  0  0  0  0  0  0  0  0  0
   -1.7038   -2.2534    4.8253 C   0  0  0  0  0  0  0  0  0  0  0  0
   -1.6743   -0.9695    3.9649 C   0  0  0  0  0  0  0  0  0  0  0  0
    2.6136    2.7855   -3.1813 C   0  0  0  0  0  0  0  0  0  0  0  0
    2.9073    2.3759   -4.4851 C   0  0  0  0  0  0  0  0  0  0  0  0
    4.8189   -0.2485   -7.4133 H   0  0  0  0  0  0  0  0  0  0  0  0
    4.3577   -1.0381   -5.8999 H   0  0  0  0  0  0  0  0  0  0  0  0
    5.8139    0.0320   -5.9776 H   0  0  0  0  0  0  0  0  0  0  0  0
    5.0381   -0.1865   -3.7651 H   0  0  0  0  0  0  0  0  0  0  0  0
    4.5216    0.5265   -1.4918 H   0  0  0  0  0  0  0  0  0  0  0  0
    3.7509    2.4842   -0.0427 H   0  0  0  0  0  0  0  0  0  0  0  0
    2.5017    3.5704   -0.6499 H   0  0  0  0  0  0  0  0  0  0  0  0
    0.8725    1.8141   -0.5513 H   0  0  0  0  0  0  0  0  0  0  0  0
    1.0623   -0.6665    1.9287 H   0  0  0  0  0  0  0  0  0  0  0  0
   -1.6269    2.9807   -1.8056 H   0  0  0  0  0  0  0  0  0  0  0  0
   -3.9223    3.9071   -1.9341 H   0  0  0  0  0  0  0  0  0  0  0  0
   -5.6659    3.0991   -0.3557 H   0  0  0  0  0  0  0  0  0  0  0  0
   -5.0922    1.3676    1.3230 H   0  0  0  0  0  0  0  0  0  0  0  0
   -0.9997   -3.3209    2.0988 H   0  0  0  0  0  0  0  0  0  0  0  0
   -2.1151   -2.4987    1.0201 H   0  0  0  0  0  0  0  0  0  0  0  0
   -3.3774   -4.0171    2.4920 H   0  0  0  0  0  0  0  0  0  0  0  0
   -3.8149   -2.3617    2.8309 H   0  0  0  0  0  0  0  0  0  0  0  0
   -2.0707   -4.6971    5.7599 H   0  0  0  0  0  0  0  0  0  0  0  0
   -3.0680   -5.3202    4.4515 H   0  0  0  0  0  0  0  0  0  0  0  0
   -1.3704   -4.8922    4.1349 H   0  0  0  0  0  0  0  0  0  0  0  0
   -0.6926   -2.6875    4.8155 H   0  0  0  0  0  0  0  0  0  0  0  0
   -1.9328   -1.9878    5.8648 H   0  0  0  0  0  0  0  0  0  0  0  0
   -0.9593   -0.2638    4.4010 H   0  0  0  0  0  0  0  0  0  0  0  0
   -2.6641   -0.4985    3.9978 H   0  0  0  0  0  0  0  0  0  0  0  0
    1.9240    3.6122   -3.0291 H   0  0  0  0  0  0  0  0  0  0  0  0
    2.4491    2.8875   -5.3281 H   0  0  0  0  0  0  0  0  0  0  0  0
  1  2  1  0
  2  3  1  0
  3  4  2  0
  4  5  1  0
  5  6  2  0
  6  7  1  0
  7  8  1  0
  8  9  1  0
  9 10  2  0
  9 11  1  0
 11 12  1  0
 12 13  3  0
 11 14  1  0
 14 15  2  0
 15 16  1  0
 16 17  2  0
 17 18  1  0
 18 19  2  0
 19 20  1  0
 20 21  2  0
 21 22  1  0
 22 23  2  0
 23 24  1  0
 24 25  1  0
 25 26  1  0
 26 27  1  0
 27 28  1  0
 27 29  1  0
 29 30  1  0
  6 31  1  0
 31 32  2  0
 32  3  1  0
 23 14  1  0
 30 24  1  0
 21 16  1  0
  1 33  1  0
  1 34  1  0
  1 35  1  0
  4 36  1  0
  5 37  1  0
  7 38  1  0
  7 39  1  0
  8 40  1  0
 11 41  1  0
 17 42  1  0
 18 43  1  0
 19 44  1  0
 20 45  1  0
 25 46  1  0
 25 47  1  0
 26 48  1  0
 26 49  1  0
 28 50  1  0
 28 51  1  0
 28 52  1  0
 29 53  1  0
 29 54  1  0
 30 55  1  0
 30 56  1  0
 31 57  1  0
 32 58  1  0
M  END
$$$$
