
     RDKit          3D

 61 63  0  0  0  0  0  0  0  0999 V2000
    7.4371    3.6849    2.1602 C   0  0  0  0  0  0  0  0  0  0  0  0
    7.0811    2.3717    1.4794 C   0  0  0  0  0  0  0  0  0  0  0  0
    5.5686    2.1573    1.4376 C   0  0  0  0  0  0  0  0  0  0  0  0
    5.2127    0.8638    0.7089 C   0  0  0  0  0  0  0  0  0  0  0  0
    3.7818    0.6228    0.7037 N   0  0  0  0  0  0  0  0  0  0  0  0
    2.9554    1.2459   -0.2118 C   0  0  0  0  0  0  0  0  0  0  0  0
    3.3459    2.0973   -1.0121 O   0  0  0  0  0  0  0  0  0  0  0  0
    1.4880    0.8060   -0.1591 C   0  0  0  0  0  0  0  0  0  0  0  0
    0.6456    1.9424    0.4308 C   0  0  0  0  0  0  0  0  0  0  0  0
   -0.7789    1.5236    0.7198 C   0  0  0  0  0  0  0  0  0  0  0  0
   -1.8234    1.9274   -0.1231 C   0  0  0  0  0  0  0  0  0  0  0  0
   -3.1368    1.5370    0.1417 C   0  0  0  0  0  0  0  0  0  0  0  0
   -3.4182    0.7280    1.2432 C   0  0  0  0  0  0  0  0  0  0  0  0
   -2.3874    0.3167    2.0852 C   0  0  0  0  0  0  0  0  0  0  0  0
   -1.0742    0.7165    1.8287 C   0  0  0  0  0  0  0  0  0  0  0  0
    1.0798    0.5261   -1.5539 N   0  0  0  0  0  0  0  0  0  0  0  0
    1.2053   -1.0509   -2.0942 S   0  0  0  0  0  6  0  0  0  0  0  0
    2.2483   -1.7048   -1.3289 O   0  0  0  0  0  0  0  0  0  0  0  0
    1.2085   -1.0157   -3.5389 O   0  0  0  0  0  0  0  0  0  0  0  0
   -0.3595   -1.7170   -1.5871 C   0  0  0  0  0  0  0  0  0  0  0  0
   -0.4127   -2.7581   -0.6614 C   0  0  0  0  0  0  0  0  0  0  0  0
   -1.6562   -3.2222   -0.2173 C   0  0  0  0  0  0  0  0  0  0  0  0
   -2.8547   -2.6524   -0.6874 C   0  0  0  0  0  0  0  0  0  0  0  0
   -2.7738   -1.6346   -1.6387 C   0  0  0  0  0  0  0  0  0  0  0  0
   -1.5344   -1.1629   -2.0967 C   0  0  0  0  0  0  0  0  0  0  0  0
   -4.0108   -1.0270   -2.1510 C   0  0  0  0  0  0  0  0  0  0  0  0
   -3.9300   -0.1153   -2.9726 O   0  0  0  0  0  0  0  0  0  0  0  0
   -5.2023   -1.5246   -1.6526 N   0  0  0  0  0  0  0  0  0  0  0  0
   -6.4358   -0.9318   -2.1323 C   0  0  0  0  0  0  0  0  0  0  0  0
   -5.3118   -2.4827   -0.6525 C   0  0  0  0  0  0  0  0  0  0  0  0
   -6.4076   -2.7970   -0.1805 O   0  0  0  0  0  0  0  0  0  0  0  0
   -4.1274   -3.0631   -0.2081 N   0  0  0  0  0  0  0  0  0  0  0  0
   -4.2118   -4.0970    0.8147 C   0  0  0  0  0  0  0  0  0  0  0  0
    8.5223    3.8240    2.1648 H   0  0  0  0  0  0  0  0  0  0  0  0
    6.9864    4.5340    1.6354 H   0  0  0  0  0  0  0  0  0  0  0  0
    7.0882    3.6925    3.1988 H   0  0  0  0  0  0  0  0  0  0  0  0
    7.5596    1.5461    2.0203 H   0  0  0  0  0  0  0  0  0  0  0  0
    7.4879    2.3705    0.4606 H   0  0  0  0  0  0  0  0  0  0  0  0
    5.1719    2.1244    2.4595 H   0  0  0  0  0  0  0  0  0  0  0  0
    5.0865    3.0092    0.9423 H   0  0  0  0  0  0  0  0  0  0  0  0
    5.5689    0.8911   -0.3276 H   0  0  0  0  0  0  0  0  0  0  0  0
    5.6786    0.0037    1.2055 H   0  0  0  0  0  0  0  0  0  0  0  0
    3.4596   -0.2370    1.1293 H   0  0  0  0  0  0  0  0  0  0  0  0
    1.3813   -0.0852    0.4644 H   0  0  0  0  0  0  0  0  0  0  0  0
    0.6456    2.8121   -0.2384 H   0  0  0  0  0  0  0  0  0  0  0  0
    1.0960    2.2960    1.3687 H   0  0  0  0  0  0  0  0  0  0  0  0
   -1.6236    2.5465   -0.9968 H   0  0  0  0  0  0  0  0  0  0  0  0
   -3.9400    1.8563   -0.5200 H   0  0  0  0  0  0  0  0  0  0  0  0
   -4.4427    0.4243    1.4436 H   0  0  0  0  0  0  0  0  0  0  0  0
   -2.6072   -0.3094    2.9466 H   0  0  0  0  0  0  0  0  0  0  0  0
   -0.2863    0.3983    2.5067 H   0  0  0  0  0  0  0  0  0  0  0  0
    1.3814    1.2149   -2.2492 H   0  0  0  0  0  0  0  0  0  0  0  0
    0.5005   -3.2048   -0.2699 H   0  0  0  0  0  0  0  0  0  0  0  0
   -1.6540   -4.0273    0.5137 H   0  0  0  0  0  0  0  0  0  0  0  0
   -1.4889   -0.3516   -2.8225 H   0  0  0  0  0  0  0  0  0  0  0  0
   -6.2891   -0.3754   -3.0610 H   0  0  0  0  0  0  0  0  0  0  0  0
   -6.8119   -0.2480   -1.3636 H   0  0  0  0  0  0  0  0  0  0  0  0
   -7.1861   -1.7109   -2.3065 H   0  0  0  0  0  0  0  0  0  0  0  0
   -3.6806   -3.7657    1.7125 H   0  0  0  0  0  0  0  0  0  0  0  0
   -5.2427   -4.3147    1.1009 H   0  0  0  0  0  0  0  0  0  0  0  0
   -3.7719   -5.0239    0.4326 H   0  0  0  0  0  0  0  0  0  0  0  0
  1  2  1  0
  2  3  1  0
  3  4  1  0
  4  5  1  0
  5  6  1  0
  6  7  2  0
  6  8  1  0
  8  9  1  0
  9 10  1  0
 10 11  2  0
 11 12  1  0
 12 13  2  0
 13 14  1  0
 14 15  2  0
  8 16  1  0
 16 17  1  0
 17 18  2  0
 17 19  2  0
 17 20  1  0
 20 21  2  0
 21 22  1  0
 22 23  2  0
 23 24  1  0
 24 25  2  0
 24 26  1  0
 26 27  2  0
 26 28  1  0
 28 29  1  0
 28 30  1  0
 30 31  2  0
 30 32  1  0
 32 33  1  0
 15 10  1  0
 25 20  1  0
 32 23  1  0
  1 34  1  0
  1 35  1  0
  1 36  1  0
  2 37  1  0
  2 38  1  0
  3 39  1  0
  3 40  1  0
  4 41  1  0
  4 42  1  0
  5 43  1  0
  8 44  1  0
  9 45  1  0
  9 46  1  0
 11 47  1  0
 12 48  1  0
 13 49  1  0
 14 50  1  0
 15 51  1  0
 16 52  1  0
 21 53  1  0
 22 54  1  0
 25 55  1  0
 29 56  1  0
 29 57  1  0
 29 58  1  0
 33 59  1  0
 33 60  1  0
 33 61  1  0
M  END
$$$$
