
     RDKit          3D

 45 47  0  0  0  0  0  0  0  0999 V2000
   -0.2397   -1.6161   -2.0335 C   0  0  0  0  0  0  0  0  0  0  0  0
    0.2464   -1.1278   -0.7190 C   0  0  0  0  0  0  0  0  0  0  0  0
    1.5124   -0.9129   -0.4219 N   0  0  0  0  0  0  0  0  0  0  0  0
    1.4900   -0.6166    0.9267 C   0  0  0  0  0  0  0  0  0  0  0  0
    2.7288   -0.3165    1.6818 C   0  0  0  0  0  0  0  0  0  0  0  0
    2.7330   -0.0254    2.8733 O   0  0  0  0  0  0  0  0  0  0  0  0
    3.8447   -0.4051    0.8661 N   0  0  0  0  0  0  0  0  0  0  0  0
    5.2012   -0.1984    1.1922 C   0  0  0  0  0  0  0  0  0  0  0  0
    5.6351    0.1455    2.4758 C   0  0  0  0  0  0  0  0  0  0  0  0
    6.9969    0.3372    2.7377 C   0  0  0  0  0  0  0  0  0  0  0  0
    7.9330    0.1861    1.7180 C   0  0  0  0  0  0  0  0  0  0  0  0
    9.6039    0.4238    2.0491 Cl  0  0  0  0  0  0  0  0  0  0  0  0
    7.5249   -0.1558    0.4336 C   0  0  0  0  0  0  0  0  0  0  0  0
    6.1656   -0.3463    0.1753 C   0  0  0  0  0  0  0  0  0  0  0  0
    5.6998   -0.7702   -1.4389 Cl  0  0  0  0  0  0  0  0  0  0  0  0
    0.2619   -0.6320    1.4589 N   0  0  0  0  0  0  0  0  0  0  0  0
   -0.5369   -0.9286    0.4118 N   0  0  0  0  0  0  0  0  0  0  0  0
   -1.9503   -0.8918    0.5439 C   0  0  0  0  0  0  0  0  0  0  0  0
   -2.7164   -0.3582   -0.5073 C   0  0  0  0  0  0  0  0  0  0  0  0
   -4.1063   -0.2512   -0.3885 C   0  0  0  0  0  0  0  0  0  0  0  0
   -4.8386    0.2393   -1.4371 O   0  0  0  0  0  0  0  0  0  0  0  0
   -4.6391    1.6471   -1.6555 C   0  0  0  0  0  0  0  0  0  0  0  0
   -4.2226    1.8388   -3.1098 C   0  0  0  0  0  0  0  0  0  0  0  0
   -5.9558    2.3643   -1.3775 C   0  0  0  0  0  0  0  0  0  0  0  0
   -4.7490   -0.7162    0.7592 C   0  0  0  0  0  0  0  0  0  0  0  0
   -6.4649   -0.6581    0.9197 Cl  0  0  0  0  0  0  0  0  0  0  0  0
   -3.9977   -1.2434    1.8082 C   0  0  0  0  0  0  0  0  0  0  0  0
   -2.6016   -1.3297    1.7115 C   0  0  0  0  0  0  0  0  0  0  0  0
   -1.8093   -2.1242    3.0294 Cl  0  0  0  0  0  0  0  0  0  0  0  0
   -1.0868   -2.2999   -1.9284 H   0  0  0  0  0  0  0  0  0  0  0  0
   -0.5266   -0.7785   -2.6755 H   0  0  0  0  0  0  0  0  0  0  0  0
    0.5584   -2.1647   -2.5450 H   0  0  0  0  0  0  0  0  0  0  0  0
    3.6433   -0.6566   -0.1018 H   0  0  0  0  0  0  0  0  0  0  0  0
    4.9411    0.2729    3.3016 H   0  0  0  0  0  0  0  0  0  0  0  0
    7.3146    0.6041    3.7432 H   0  0  0  0  0  0  0  0  0  0  0  0
    8.2573   -0.2732   -0.3600 H   0  0  0  0  0  0  0  0  0  0  0  0
   -2.2530    0.0255   -1.4107 H   0  0  0  0  0  0  0  0  0  0  0  0
   -3.8639    2.0680   -1.0013 H   0  0  0  0  0  0  0  0  0  0  0  0
   -4.9735    1.4244   -3.7916 H   0  0  0  0  0  0  0  0  0  0  0  0
   -4.0804    2.8978   -3.3460 H   0  0  0  0  0  0  0  0  0  0  0  0
   -3.2866    1.3088   -3.3148 H   0  0  0  0  0  0  0  0  0  0  0  0
   -5.8788    3.4345   -1.5928 H   0  0  0  0  0  0  0  0  0  0  0  0
   -6.7698    1.9415   -1.9766 H   0  0  0  0  0  0  0  0  0  0  0  0
   -6.2416    2.2456   -0.3273 H   0  0  0  0  0  0  0  0  0  0  0  0
   -4.5030   -1.6080    2.7004 H   0  0  0  0  0  0  0  0  0  0  0  0
  1  2  1  0
  2  3  2  0
  3  4  1  0
  4  5  1  0
  5  6  2  0
  5  7  1  0
  7  8  1  0
  8  9  2  0
  9 10  1  0
 10 11  2  0
 11 12  1  0
 11 13  1  0
 13 14  2  0
 14 15  1  0
  4 16  2  0
 16 17  1  0
 17 18  1  0
 18 19  2  0
 19 20  1  0
 20 21  1  0
 21 22  1  0
 22 23  1  0
 22 24  1  0
 20 25  2  0
 25 26  1  0
 25 27  1  0
 27 28  2  0
 28 29  1  0
 17  2  1  0
 28 18  1  0
 14  8  1  0
  1 30  1  0
  1 31  1  0
  1 32  1  0
  7 33  1  0
  9 34  1  0
 10 35  1  0
 13 36  1  0
 19 37  1  0
 22 38  1  0
 23 39  1  0
 23 40  1  0
 23 41  1  0
 24 42  1  0
 24 43  1  0
 24 44  1  0
 27 45  1  0
M  END
$$$$
