
     RDKit          3D

 55 57  0  0  0  0  0  0  0  0999 V2000
    2.0856    1.7353   -2.5074 O   0  0  0  0  0  0  0  0  0  0  0  0
    1.5907    1.6421   -1.3891 C   0  0  0  0  0  0  0  0  0  0  0  0
    0.3666    2.4586   -0.9700 C   0  0  0  0  0  0  0  0  0  0  0  0
   -0.4201    1.8066    0.0311 O   0  0  0  0  0  0  0  0  0  0  0  0
   -1.2551    0.8408   -0.4414 C   0  0  0  0  0  0  0  0  0  0  0  0
   -1.3644    0.5118   -1.6176 O   0  0  0  0  0  0  0  0  0  0  0  0
   -2.0426    0.1900    0.6931 C   0  0  0  0  0  0  0  0  0  0  0  0
   -3.4085    0.8692    0.8532 C   0  0  0  0  0  0  0  0  0  0  0  0
   -3.3113    2.2636    1.4229 C   0  0  0  0  0  0  0  0  0  0  0  0
   -3.0460    2.4508    2.7864 C   0  0  0  0  0  0  0  0  0  0  0  0
   -2.9310    3.7376    3.3131 C   0  0  0  0  0  0  0  0  0  0  0  0
   -3.0799    4.8471    2.4832 C   0  0  0  0  0  0  0  0  0  0  0  0
   -3.3468    4.6715    1.1267 C   0  0  0  0  0  0  0  0  0  0  0  0
   -3.4630    3.3856    0.5971 C   0  0  0  0  0  0  0  0  0  0  0  0
   -2.1929   -1.2246    0.3393 N   0  0  0  0  0  0  0  0  0  0  0  0
   -2.4321   -2.1909    1.2934 C   0  0  0  0  0  0  0  0  0  0  0  0
   -2.4948   -1.8791    2.4817 O   0  0  0  0  0  0  0  0  0  0  0  0
   -2.5999   -3.5465    0.7828 C   0  0  0  0  0  0  0  0  0  0  0  0
   -2.4565   -4.0526   -0.4991 C   0  0  0  0  0  0  0  0  0  0  0  0
   -2.7145   -5.4546   -0.5710 C   0  0  0  0  0  0  0  0  0  0  0  0
   -3.0446   -5.9809    0.6558 C   0  0  0  0  0  0  0  0  0  0  0  0
   -3.0419   -4.7933    1.8823 S   0  0  0  0  0  0  0  0  0  0  0  0
    2.0991    0.8518   -0.3767 N   0  0  0  0  0  0  0  0  0  0  0  0
    3.2383   -0.0449   -0.5137 C   0  0  0  0  0  0  0  0  0  0  0  0
    2.9722   -1.1749   -1.5165 C   0  0  0  0  0  0  0  0  0  0  0  0
    4.1588   -2.1320   -1.6037 C   0  0  0  0  0  0  0  0  0  0  0  0
    5.4574   -1.3933   -1.9160 C   0  0  0  0  0  0  0  0  0  0  0  0
    5.7231   -0.2702   -0.9172 C   0  0  0  0  0  0  0  0  0  0  0  0
    4.5436    0.6963   -0.8285 C   0  0  0  0  0  0  0  0  0  0  0  0
    0.7245    3.4026   -0.5458 H   0  0  0  0  0  0  0  0  0  0  0  0
   -0.2406    2.6969   -1.8509 H   0  0  0  0  0  0  0  0  0  0  0  0
   -1.4501    0.2394    1.6145 H   0  0  0  0  0  0  0  0  0  0  0  0
   -3.9314    0.8997   -0.1123 H   0  0  0  0  0  0  0  0  0  0  0  0
   -4.0552    0.2759    1.5130 H   0  0  0  0  0  0  0  0  0  0  0  0
   -2.9310    1.5936    3.4480 H   0  0  0  0  0  0  0  0  0  0  0  0
   -2.7281    3.8743    4.3723 H   0  0  0  0  0  0  0  0  0  0  0  0
   -2.9927    5.8493    2.8951 H   0  0  0  0  0  0  0  0  0  0  0  0
   -3.4676    5.5378    0.4810 H   0  0  0  0  0  0  0  0  0  0  0  0
   -3.6737    3.2694   -0.4639 H   0  0  0  0  0  0  0  0  0  0  0  0
   -2.2203   -1.4514   -0.6475 H   0  0  0  0  0  0  0  0  0  0  0  0
   -2.1720   -3.4636   -1.3617 H   0  0  0  0  0  0  0  0  0  0  0  0
   -2.6564   -6.0457   -1.4769 H   0  0  0  0  0  0  0  0  0  0  0  0
   -3.2861   -7.0078    0.8944 H   0  0  0  0  0  0  0  0  0  0  0  0
    1.6194    0.8752    0.5155 H   0  0  0  0  0  0  0  0  0  0  0  0
    3.3491   -0.5022    0.4790 H   0  0  0  0  0  0  0  0  0  0  0  0
    2.7713   -0.7657   -2.5140 H   0  0  0  0  0  0  0  0  0  0  0  0
    2.0734   -1.7314   -1.2232 H   0  0  0  0  0  0  0  0  0  0  0  0
    3.9680   -2.8853   -2.3760 H   0  0  0  0  0  0  0  0  0  0  0  0
    4.2645   -2.6698   -0.6533 H   0  0  0  0  0  0  0  0  0  0  0  0
    6.2938   -2.1009   -1.9050 H   0  0  0  0  0  0  0  0  0  0  0  0
    5.4043   -0.9762   -2.9288 H   0  0  0  0  0  0  0  0  0  0  0  0
    5.9170   -0.7011    0.0728 H   0  0  0  0  0  0  0  0  0  0  0  0
    6.6262    0.2767   -1.2096 H   0  0  0  0  0  0  0  0  0  0  0  0
    4.4616    1.2408   -1.7762 H   0  0  0  0  0  0  0  0  0  0  0  0
    4.7431    1.4484   -0.0563 H   0  0  0  0  0  0  0  0  0  0  0  0
  1  2  2  0
  2  3  1  0
  3  4  1  0
  4  5  1  0
  5  6  2  0
  5  7  1  0
  7  8  1  0
  8  9  1  0
  9 10  2  0
 10 11  1  0
 11 12  2  0
 12 13  1  0
 13 14  2  0
  7 15  1  0
 15 16  1  0
 16 17  2  0
 16 18  1  0
 18 19  2  0
 19 20  1  0
 20 21  2  0
 21 22  1  0
  2 23  1  0
 23 24  1  0
 24 25  1  0
 25 26  1  0
 26 27  1  0
 27 28  1  0
 28 29  1  0
 14  9  1  0
 22 18  1  0
 29 24  1  0
  3 30  1  0
  3 31  1  0
  7 32  1  0
  8 33  1  0
  8 34  1  0
 10 35  1  0
 11 36  1  0
 12 37  1  0
 13 38  1  0
 14 39  1  0
 15 40  1  0
 19 41  1  0
 20 42  1  0
 21 43  1  0
 23 44  1  0
 24 45  1  0
 25 46  1  0
 25 47  1  0
 26 48  1  0
 26 49  1  0
 27 50  1  0
 27 51  1  0
 28 52  1  0
 28 53  1  0
 29 54  1  0
 29 55  1  0
M  END
$$$$
