
     RDKit          3D

 53 56  0  0  0  0  0  0  0  0999 V2000
   -7.7468   -1.6063    2.4087 C   0  0  0  0  0  0  0  0  0  0  0  0
   -7.6007   -1.0425    1.1114 O   0  0  0  0  0  0  0  0  0  0  0  0
   -6.4871   -0.1484    1.0514 C   0  0  0  0  0  0  0  0  0  0  0  0
   -6.3861    0.4166   -0.3693 C   0  0  0  0  0  0  0  0  0  0  0  0
   -6.0123   -0.6509   -1.4037 C   0  0  0  0  0  0  0  0  0  0  0  0
   -4.4925   -0.7316   -1.3110 C   0  0  0  0  0  0  0  0  0  0  0  0
   -4.0793    0.5856   -0.8435 N   0  0  0  0  0  0  0  0  0  0  0  0
   -2.7918    1.1011   -0.7371 C   0  0  0  0  0  0  0  0  0  0  0  0
   -2.6224    2.2691   -0.3743 O   0  0  0  0  0  0  0  0  0  0  0  0
   -1.6225    0.2598   -1.0473 C   0  0  0  0  0  0  0  0  0  0  0  0
   -0.2741    0.7123   -1.0982 C   0  0  0  0  0  0  0  0  0  0  0  0
    0.4705   -0.4010   -1.3974 C   0  0  0  0  0  0  0  0  0  0  0  0
    1.9111   -0.6824   -1.5994 C   0  0  0  0  0  0  0  0  0  0  0  0
    2.6229    0.5526   -1.4472 O   0  0  0  0  0  0  0  0  0  0  0  0
    3.6530    0.4343   -0.5465 C   0  0  0  0  0  0  0  0  0  0  0  0
    3.3487    0.4477    0.8155 C   0  0  0  0  0  0  0  0  0  0  0  0
    4.3727    0.3660    1.7556 C   0  0  0  0  0  0  0  0  0  0  0  0
    5.7084    0.2855    1.3400 C   0  0  0  0  0  0  0  0  0  0  0  0
    6.7757    0.2075    2.2058 O   0  0  0  0  0  0  0  0  0  0  0  0
    6.4924    0.0774    3.5929 C   0  0  0  0  0  0  0  0  0  0  0  0
    6.0292    0.2990   -0.0447 C   0  0  0  0  0  0  0  0  0  0  0  0
    7.3622    0.2391   -0.5144 C   0  0  0  0  0  0  0  0  0  0  0  0
    7.6632    0.2545   -1.8779 C   0  0  0  0  0  0  0  0  0  0  0  0
    6.6369    0.3352   -2.8095 C   0  0  0  0  0  0  0  0  0  0  0  0
    5.3118    0.4002   -2.3760 C   0  0  0  0  0  0  0  0  0  0  0  0
    4.9851    0.3799   -1.0021 C   0  0  0  0  0  0  0  0  0  0  0  0
   -0.3664   -1.4659   -1.5097 O   0  0  0  0  0  0  0  0  0  0  0  0
   -1.6671   -1.0629   -1.2861 N   0  0  0  0  0  0  0  0  0  0  0  0
   -5.2290    1.4028   -0.4929 C   0  0  0  0  0  0  0  0  0  0  0  0
   -6.8619   -2.1935    2.6716 H   0  0  0  0  0  0  0  0  0  0  0  0
   -7.9103   -0.8196    3.1511 H   0  0  0  0  0  0  0  0  0  0  0  0
   -8.6169   -2.2690    2.4017 H   0  0  0  0  0  0  0  0  0  0  0  0
   -6.6483    0.6690    1.7646 H   0  0  0  0  0  0  0  0  0  0  0  0
   -5.5735   -0.6833    1.3379 H   0  0  0  0  0  0  0  0  0  0  0  0
   -7.3433    0.8828   -0.6309 H   0  0  0  0  0  0  0  0  0  0  0  0
   -6.2974   -0.3008   -2.4036 H   0  0  0  0  0  0  0  0  0  0  0  0
   -6.4893   -1.6216   -1.2402 H   0  0  0  0  0  0  0  0  0  0  0  0
   -4.1841   -1.4759   -0.5698 H   0  0  0  0  0  0  0  0  0  0  0  0
   -4.0432   -0.9617   -2.2814 H   0  0  0  0  0  0  0  0  0  0  0  0
    0.0875    1.7194   -0.9382 H   0  0  0  0  0  0  0  0  0  0  0  0
    2.0763   -1.0377   -2.6222 H   0  0  0  0  0  0  0  0  0  0  0  0
    2.2460   -1.4692   -0.9089 H   0  0  0  0  0  0  0  0  0  0  0  0
    2.3174    0.5291    1.1479 H   0  0  0  0  0  0  0  0  0  0  0  0
    4.0958    0.3805    2.8056 H   0  0  0  0  0  0  0  0  0  0  0  0
    5.9944    0.9737    3.9790 H   0  0  0  0  0  0  0  0  0  0  0  0
    7.4461   -0.0263    4.1203 H   0  0  0  0  0  0  0  0  0  0  0  0
    5.9024   -0.8235    3.7946 H   0  0  0  0  0  0  0  0  0  0  0  0
    8.1871    0.1807    0.1949 H   0  0  0  0  0  0  0  0  0  0  0  0
    8.6997    0.2079   -2.2059 H   0  0  0  0  0  0  0  0  0  0  0  0
    6.8652    0.3501   -3.8722 H   0  0  0  0  0  0  0  0  0  0  0  0
    4.5242    0.4727   -3.1240 H   0  0  0  0  0  0  0  0  0  0  0  0
   -5.0428    1.9822    0.4171 H   0  0  0  0  0  0  0  0  0  0  0  0
   -5.3969    2.0997   -1.3217 H   0  0  0  0  0  0  0  0  0  0  0  0
  1  2  1  0
  2  3  1  0
  3  4  1  0
  4  5  1  0
  5  6  1  0
  6  7  1  0
  7  8  1  0
  8  9  2  0
  8 10  1  0
 10 11  1  0
 11 12  2  0
 12 13  1  0
 13 14  1  0
 14 15  1  0
 15 16  2  0
 16 17  1  0
 17 18  2  0
 18 19  1  0
 19 20  1  0
 18 21  1  0
 21 22  2  0
 22 23  1  0
 23 24  2  0
 24 25  1  0
 25 26  2  0
 12 27  1  0
 27 28  1  0
  7 29  1  0
 29  4  1  0
 28 10  2  0
 26 15  1  0
 26 21  1  0
  1 30  1  0
  1 31  1  0
  1 32  1  0
  3 33  1  0
  3 34  1  0
  4 35  1  0
  5 36  1  0
  5 37  1  0
  6 38  1  0
  6 39  1  0
 11 40  1  0
 13 41  1  0
 13 42  1  0
 16 43  1  0
 17 44  1  0
 20 45  1  0
 20 46  1  0
 20 47  1  0
 22 48  1  0
 23 49  1  0
 24 50  1  0
 25 51  1  0
 29 52  1  0
 29 53  1  0
M  END
$$$$
