
     RDKit          3D

 49 51  0  0  0  0  0  0  0  0999 V2000
   -4.1474    1.8938   -2.6683 C   0  0  0  0  0  0  0  0  0  0  0  0
   -3.0529    0.8528   -2.5109 C   0  0  0  0  0  0  0  0  0  0  0  0
   -2.1767    1.1335   -1.3938 N   0  0  0  0  0  0  0  0  0  0  0  0
   -1.0359    1.8872   -1.3956 C   0  0  0  0  0  0  0  0  0  0  0  0
   -0.3123    2.5717   -2.8054 S   0  0  0  0  0  0  0  0  0  0  0  0
    1.3712    2.9036   -2.2046 C   0  0  0  0  0  0  0  0  0  0  0  0
    2.1432    1.6123   -1.9920 C   0  0  0  0  0  0  0  0  0  0  0  0
    2.8352    1.1239   -2.8847 O   0  0  0  0  0  0  0  0  0  0  0  0
    1.9834    1.0840   -0.7172 N   0  0  0  0  0  0  0  0  0  0  0  0
    2.5554   -0.1119   -0.3906 N   0  0  0  0  0  0  0  0  0  0  0  0
    2.1890   -0.5889    0.7537 C   0  0  0  0  0  0  0  0  0  0  0  0
    2.6541   -1.8975    1.2734 C   0  0  0  0  0  0  0  0  0  0  0  0
    1.5401   -2.8946    1.4182 C   0  0  0  0  0  0  0  0  0  0  0  0
    3.9224   -2.1963    1.5962 C   0  0  0  0  0  0  0  0  0  0  0  0
    5.0701   -1.3543    1.5767 C   0  0  0  0  0  0  0  0  0  0  0  0
    5.2736   -0.0086    1.2935 C   0  0  0  0  0  0  0  0  0  0  0  0
    6.6507    0.2826    1.4502 C   0  0  0  0  0  0  0  0  0  0  0  0
    7.2358   -0.8930    1.8323 C   0  0  0  0  0  0  0  0  0  0  0  0
    6.3079   -1.8722    1.9179 O   0  0  0  0  0  0  0  0  0  0  0  0
   -0.5675    1.9932   -0.1746 N   0  0  0  0  0  0  0  0  0  0  0  0
   -1.3700    1.2490    0.6460 N   0  0  0  0  0  0  0  0  0  0  0  0
   -2.3401    0.7232   -0.0844 C   0  0  0  0  0  0  0  0  0  0  0  0
   -3.4291   -0.1004    0.4260 C   0  0  0  0  0  0  0  0  0  0  0  0
   -4.3422    0.4495    1.3338 C   0  0  0  0  0  0  0  0  0  0  0  0
   -5.3986   -0.3184    1.8260 C   0  0  0  0  0  0  0  0  0  0  0  0
   -5.5423   -1.6463    1.4227 C   0  0  0  0  0  0  0  0  0  0  0  0
   -4.6267   -2.2079    0.5344 C   0  0  0  0  0  0  0  0  0  0  0  0
   -3.5688   -1.4408    0.0421 C   0  0  0  0  0  0  0  0  0  0  0  0
   -4.7769    1.9408   -1.7723 H   0  0  0  0  0  0  0  0  0  0  0  0
   -4.7829    1.6398   -3.5217 H   0  0  0  0  0  0  0  0  0  0  0  0
   -3.7301    2.8915   -2.8349 H   0  0  0  0  0  0  0  0  0  0  0  0
   -2.4518    0.7851   -3.4234 H   0  0  0  0  0  0  0  0  0  0  0  0
   -3.4980   -0.1364   -2.3681 H   0  0  0  0  0  0  0  0  0  0  0  0
    1.9011    3.4937   -2.9597 H   0  0  0  0  0  0  0  0  0  0  0  0
    1.3563    3.5015   -1.2883 H   0  0  0  0  0  0  0  0  0  0  0  0
    1.2197    1.4341   -0.1321 H   0  0  0  0  0  0  0  0  0  0  0  0
    1.4535   -0.0739    1.3996 H   0  0  0  0  0  0  0  0  0  0  0  0
    1.8955   -3.8592    1.7958 H   0  0  0  0  0  0  0  0  0  0  0  0
    1.0604   -3.0699    0.4490 H   0  0  0  0  0  0  0  0  0  0  0  0
    0.7829   -2.5219    2.1165 H   0  0  0  0  0  0  0  0  0  0  0  0
    4.1281   -3.2061    1.9440 H   0  0  0  0  0  0  0  0  0  0  0  0
    4.5187    0.7011    0.9950 H   0  0  0  0  0  0  0  0  0  0  0  0
    7.1452    1.2307    1.2974 H   0  0  0  0  0  0  0  0  0  0  0  0
    8.2465   -1.1863    2.0711 H   0  0  0  0  0  0  0  0  0  0  0  0
   -4.2321    1.4813    1.6635 H   0  0  0  0  0  0  0  0  0  0  0  0
   -6.1057    0.1166    2.5276 H   0  0  0  0  0  0  0  0  0  0  0  0
   -6.3654   -2.2450    1.8077 H   0  0  0  0  0  0  0  0  0  0  0  0
   -4.7354   -3.2465    0.2311 H   0  0  0  0  0  0  0  0  0  0  0  0
   -2.8513   -1.8997   -0.6335 H   0  0  0  0  0  0  0  0  0  0  0  0
  1  2  1  0
  2  3  1  0
  3  4  1  0
  4  5  1  0
  5  6  1  0
  6  7  1  0
  7  8  2  0
  7  9  1  0
  9 10  1  0
 10 11  2  3
 11 12  1  0
 12 13  1  0
 12 14  2  3
 14 15  1  0
 15 16  2  0
 16 17  1  0
 17 18  2  0
 18 19  1  0
  4 20  2  0
 20 21  1  0
 21 22  2  0
 22 23  1  0
 23 24  2  0
 24 25  1  0
 25 26  2  0
 26 27  1  0
 27 28  2  0
 22  3  1  0
 28 23  1  0
 19 15  1  0
  1 29  1  0
  1 30  1  0
  1 31  1  0
  2 32  1  0
  2 33  1  0
  6 34  1  0
  6 35  1  0
  9 36  1  0
 11 37  1  0
 13 38  1  0
 13 39  1  0
 13 40  1  0
 14 41  1  0
 16 42  1  0
 17 43  1  0
 18 44  1  0
 24 45  1  0
 25 46  1  0
 26 47  1  0
 27 48  1  0
 28 49  1  0
M  END
$$$$
