
     RDKit          3D

 40 41  0  0  0  0  0  0  0  0999 V2000
    0.8563   -3.9817    0.8712 C   0  0  0  0  0  0  0  0  0  0  0  0
    1.2381   -2.6743    0.4426 O   0  0  0  0  0  0  0  0  0  0  0  0
    0.9791   -1.7032    1.3500 C   0  0  0  0  0  0  0  0  0  0  0  0
    0.4838   -1.8472    2.4559 O   0  0  0  0  0  0  0  0  0  0  0  0
    1.3246   -0.3810    0.7868 C   0  0  0  0  0  0  0  0  0  0  0  0
    2.5385   -0.0928    0.2824 C   0  0  0  0  0  0  0  0  0  0  0  0
    3.7198   -1.0140    0.2129 C   0  0  0  0  0  0  0  0  0  0  0  0
    2.8069    1.1789   -0.2895 O   0  0  0  0  0  0  0  0  0  0  0  0
    1.9399    2.2095   -0.1253 C   0  0  0  0  0  0  0  0  0  0  0  0
    2.1432    3.2778   -0.8180 N   0  0  0  0  0  0  0  0  0  0  0  0
    0.8799    2.0610    0.9237 C   0  0  0  0  0  0  0  0  0  0  0  0
   -0.1184    3.1388    0.9028 C   0  0  0  0  0  0  0  0  0  0  0  0
   -0.9311    3.9664    0.9686 N   0  0  0  0  0  0  0  0  0  0  0  0
    0.2458    0.6640    0.8846 C   0  0  0  0  0  0  0  0  0  0  0  0
   -0.8480    0.4691   -0.1490 C   0  0  0  0  0  0  0  0  0  0  0  0
   -0.7651    0.1631   -1.5453 C   0  0  0  0  0  0  0  0  0  0  0  0
    0.4187   -0.0574   -2.4154 C   0  0  0  0  0  0  0  0  0  0  0  0
   -1.9751    0.0633   -2.1023 N   0  0  0  0  0  0  0  0  0  0  0  0
   -2.8320    0.3170   -1.1075 N   0  0  0  0  0  0  0  0  0  0  0  0
   -4.2501    0.3206   -1.3841 C   0  0  0  0  0  0  0  0  0  0  0  0
   -2.2167    0.5571    0.0920 C   0  0  0  0  0  0  0  0  0  0  0  0
   -2.9908    0.8550    1.3282 C   0  0  0  0  0  0  0  0  0  0  0  0
    1.0977   -4.6850    0.0695 H   0  0  0  0  0  0  0  0  0  0  0  0
    1.4168   -4.2700    1.7660 H   0  0  0  0  0  0  0  0  0  0  0  0
   -0.2214   -4.0248    1.0574 H   0  0  0  0  0  0  0  0  0  0  0  0
    3.8468   -1.3862   -0.8084 H   0  0  0  0  0  0  0  0  0  0  0  0
    4.6304   -0.4748    0.4960 H   0  0  0  0  0  0  0  0  0  0  0  0
    3.6364   -1.8680    0.8903 H   0  0  0  0  0  0  0  0  0  0  0  0
    2.9515    3.1122   -1.4302 H   0  0  0  0  0  0  0  0  0  0  0  0
    1.4230    2.1580    1.8771 H   0  0  0  0  0  0  0  0  0  0  0  0
   -0.2282    0.5358    1.8690 H   0  0  0  0  0  0  0  0  0  0  0  0
    0.1216   -0.2426   -3.4538 H   0  0  0  0  0  0  0  0  0  0  0  0
    0.9894   -0.9286   -2.0829 H   0  0  0  0  0  0  0  0  0  0  0  0
    1.0680    0.8210   -2.4189 H   0  0  0  0  0  0  0  0  0  0  0  0
   -4.6074    1.3513   -1.3219 H   0  0  0  0  0  0  0  0  0  0  0  0
   -4.4280   -0.0772   -2.3868 H   0  0  0  0  0  0  0  0  0  0  0  0
   -4.7528   -0.3096   -0.6465 H   0  0  0  0  0  0  0  0  0  0  0  0
   -2.3454    1.1941    2.1427 H   0  0  0  0  0  0  0  0  0  0  0  0
   -3.5192   -0.0408    1.6698 H   0  0  0  0  0  0  0  0  0  0  0  0
   -3.7266    1.6451    1.1462 H   0  0  0  0  0  0  0  0  0  0  0  0
  1  2  1  0
  2  3  1  0
  3  4  2  0
  3  5  1  0
  5  6  2  0
  6  7  1  0
  6  8  1  0
  8  9  1  0
  9 10  2  3
  9 11  1  0
 11 12  1  0
 12 13  3  0
 11 14  1  0
 14 15  1  0
 15 16  1  0
 16 17  1  0
 16 18  2  0
 18 19  1  0
 19 20  1  0
 19 21  1  0
 21 22  1  0
 14  5  1  0
 21 15  2  0
  1 23  1  0
  1 24  1  0
  1 25  1  0
  7 26  1  0
  7 27  1  0
  7 28  1  0
 10 29  1  0
 11 30  1  0
 14 31  1  0
 17 32  1  0
 17 33  1  0
 17 34  1  0
 20 35  1  0
 20 36  1  0
 20 37  1  0
 22 38  1  0
 22 39  1  0
 22 40  1  0
M  END
$$$$
