
     RDKit          3D

 53 56  0  0  0  0  0  0  0  0999 V2000
   -5.7474    2.7916   -2.1324 C   0  0  0  0  0  0  0  0  0  0  0  0
   -4.7454    1.9301   -1.4233 C   0  0  0  0  0  0  0  0  0  0  0  0
   -3.7843    2.5066   -0.5871 C   0  0  0  0  0  0  0  0  0  0  0  0
   -2.8694    1.7068    0.1070 C   0  0  0  0  0  0  0  0  0  0  0  0
   -2.9203    0.3169   -0.0016 C   0  0  0  0  0  0  0  0  0  0  0  0
   -2.0134   -0.5525    0.6463 N   0  0  0  0  0  0  0  0  0  0  0  0
   -1.2838   -0.3762    1.8149 C   0  0  0  0  0  0  0  0  0  0  0  0
   -1.8061    0.5940    3.0905 S   0  0  0  0  0  0  0  0  0  0  0  0
   -0.0927   -1.1392    1.8387 N   0  0  0  0  0  0  0  0  0  0  0  0
    0.7556   -1.2592    3.0424 C   0  0  0  0  0  0  0  0  0  0  0  0
    0.5500   -2.6083    3.6741 C   0  0  0  0  0  0  0  0  0  0  0  0
   -0.6111   -3.1605    4.1843 C   0  0  0  0  0  0  0  0  0  0  0  0
   -0.4072   -4.4693    4.7118 C   0  0  0  0  0  0  0  0  0  0  0  0
    0.9036   -4.8728    4.5947 C   0  0  0  0  0  0  0  0  0  0  0  0
    1.8800   -3.6781    3.8595 S   0  0  0  0  0  0  0  0  0  0  0  0
    0.4902   -1.7483    0.6220 C   0  0  0  0  0  0  0  0  0  0  0  0
    1.3553   -0.7884   -0.1554 C   0  0  0  0  0  0  0  0  0  0  0  0
    1.5446    0.5209    0.0879 C   0  0  0  0  0  0  0  0  0  0  0  0
    2.4358    1.3307   -0.7443 C   0  0  0  0  0  0  0  0  0  0  0  0
    2.6240    2.6895   -0.4797 C   0  0  0  0  0  0  0  0  0  0  0  0
    3.4859    3.4416   -1.2769 C   0  0  0  0  0  0  0  0  0  0  0  0
    4.1625    2.8397   -2.3396 C   0  0  0  0  0  0  0  0  0  0  0  0
    3.9869    1.4762   -2.6242 C   0  0  0  0  0  0  0  0  0  0  0  0
    4.7338    0.8617   -3.7735 C   0  0  0  0  0  0  0  0  0  0  0  0
    3.1140    0.7293   -1.8150 C   0  0  0  0  0  0  0  0  0  0  0  0
    2.8958   -0.6351   -2.0557 N   0  0  0  0  0  0  0  0  0  0  0  0
    2.0604   -1.4220   -1.3130 C   0  0  0  0  0  0  0  0  0  0  0  0
    1.9005   -2.6083   -1.5869 O   0  0  0  0  0  0  0  0  0  0  0  0
   -3.8689   -0.2593   -0.8546 C   0  0  0  0  0  0  0  0  0  0  0  0
   -4.7842    0.5385   -1.5480 C   0  0  0  0  0  0  0  0  0  0  0  0
   -5.2871    3.7291   -2.4617 H   0  0  0  0  0  0  0  0  0  0  0  0
   -6.5839    3.0212   -1.4648 H   0  0  0  0  0  0  0  0  0  0  0  0
   -6.1379    2.2887   -3.0241 H   0  0  0  0  0  0  0  0  0  0  0  0
   -3.7361    3.5874   -0.4690 H   0  0  0  0  0  0  0  0  0  0  0  0
   -2.1127    2.2007    0.7087 H   0  0  0  0  0  0  0  0  0  0  0  0
   -2.1045   -1.5232    0.3766 H   0  0  0  0  0  0  0  0  0  0  0  0
    1.7986   -1.1093    2.7403 H   0  0  0  0  0  0  0  0  0  0  0  0
    0.5419   -0.4859    3.7836 H   0  0  0  0  0  0  0  0  0  0  0  0
   -1.5678   -2.6497    4.1788 H   0  0  0  0  0  0  0  0  0  0  0  0
   -1.1825   -5.0805    5.1542 H   0  0  0  0  0  0  0  0  0  0  0  0
    1.3402   -5.8111    4.9078 H   0  0  0  0  0  0  0  0  0  0  0  0
    1.0806   -2.6198    0.9262 H   0  0  0  0  0  0  0  0  0  0  0  0
   -0.2979   -2.1300   -0.0322 H   0  0  0  0  0  0  0  0  0  0  0  0
    1.0480    1.0233    0.9107 H   0  0  0  0  0  0  0  0  0  0  0  0
    2.1049    3.1731    0.3444 H   0  0  0  0  0  0  0  0  0  0  0  0
    3.6315    4.4996   -1.0705 H   0  0  0  0  0  0  0  0  0  0  0  0
    4.8313    3.4473   -2.9468 H   0  0  0  0  0  0  0  0  0  0  0  0
    5.3657    1.5964   -4.2850 H   0  0  0  0  0  0  0  0  0  0  0  0
    4.0319    0.4601   -4.5118 H   0  0  0  0  0  0  0  0  0  0  0  0
    5.3866    0.0593   -3.4145 H   0  0  0  0  0  0  0  0  0  0  0  0
    3.3572   -1.0997   -2.8242 H   0  0  0  0  0  0  0  0  0  0  0  0
   -3.9245   -1.3377   -0.9772 H   0  0  0  0  0  0  0  0  0  0  0  0
   -5.5280    0.0641   -2.1816 H   0  0  0  0  0  0  0  0  0  0  0  0
  1  2  1  0
  2  3  2  0
  3  4  1  0
  4  5  2  0
  5  6  1  0
  6  7  1  0
  7  8  2  0
  7  9  1  0
  9 10  1  0
 10 11  1  0
 11 12  2  0
 12 13  1  0
 13 14  2  0
 14 15  1  0
  9 16  1  0
 16 17  1  0
 17 18  2  0
 18 19  1  0
 19 20  2  0
 20 21  1  0
 21 22  2  0
 22 23  1  0
 23 24  1  0
 23 25  2  0
 25 26  1  0
 26 27  1  0
 27 28  2  0
  5 29  1  0
 29 30  2  0
 30  2  1  0
 15 11  1  0
 27 17  1  0
 25 19  1  0
  1 31  1  0
  1 32  1  0
  1 33  1  0
  3 34  1  0
  4 35  1  0
  6 36  1  0
 10 37  1  0
 10 38  1  0
 12 39  1  0
 13 40  1  0
 14 41  1  0
 16 42  1  0
 16 43  1  0
 18 44  1  0
 20 45  1  0
 21 46  1  0
 22 47  1  0
 24 48  1  0
 24 49  1  0
 24 50  1  0
 26 51  1  0
 29 52  1  0
 30 53  1  0
M  END
$$$$
