
     RDKit          3D

 55 58  0  0  0  0  0  0  0  0999 V2000
    3.6242   -3.9913   -3.9365 C   0  0  0  0  0  0  0  0  0  0  0  0
    2.5950   -3.1660   -3.4075 O   0  0  0  0  0  0  0  0  0  0  0  0
    2.7513   -2.6984   -2.1288 C   0  0  0  0  0  0  0  0  0  0  0  0
    3.8442   -2.9910   -1.3089 C   0  0  0  0  0  0  0  0  0  0  0  0
    3.9425   -2.4301   -0.0342 C   0  0  0  0  0  0  0  0  0  0  0  0
    2.9542   -1.5660    0.4333 C   0  0  0  0  0  0  0  0  0  0  0  0
    1.8365   -1.2644   -0.3591 C   0  0  0  0  0  0  0  0  0  0  0  0
    0.7721   -0.3009    0.1193 C   0  0  0  0  0  0  0  0  0  0  0  0
    1.0980    1.1291   -0.3291 C   0  0  0  0  0  0  0  0  0  0  0  0
    0.6971    1.9503    0.8677 C   0  0  0  0  0  0  0  0  0  0  0  0
    0.6124    3.4285    0.8037 C   0  0  0  0  0  0  0  0  0  0  0  0
    0.1602    4.1324    1.9273 C   0  0  0  0  0  0  0  0  0  0  0  0
    0.0667    5.5250    1.8948 C   0  0  0  0  0  0  0  0  0  0  0  0
    0.4254    6.2207    0.7419 C   0  0  0  0  0  0  0  0  0  0  0  0
    0.8801    5.5263   -0.3784 C   0  0  0  0  0  0  0  0  0  0  0  0
    0.9754    4.1323   -0.3503 C   0  0  0  0  0  0  0  0  0  0  0  0
    0.4518    1.2762    1.9490 N   0  0  0  0  0  0  0  0  0  0  0  0
    0.6443   -0.1701    1.5959 N   0  0  0  0  0  0  0  0  0  0  0  0
   -0.3485   -1.3277    2.3931 S   0  0  0  0  0  6  0  0  0  0  0  0
   -0.2798   -1.1133    3.8252 O   0  0  0  0  0  0  0  0  0  0  0  0
   -0.0792   -2.6372    1.8308 O   0  0  0  0  0  0  0  0  0  0  0  0
   -1.9881   -0.8567    1.8720 C   0  0  0  0  0  0  0  0  0  0  0  0
   -2.6055    0.2436    2.4716 C   0  0  0  0  0  0  0  0  0  0  0  0
   -3.8918    0.6117    2.0757 C   0  0  0  0  0  0  0  0  0  0  0  0
   -4.5655   -0.1165    1.0854 C   0  0  0  0  0  0  0  0  0  0  0  0
   -5.9633    0.2597    0.6889 C   0  0  0  0  0  0  0  0  0  0  0  0
   -3.9472   -1.2390    0.5168 C   0  0  0  0  0  0  0  0  0  0  0  0
   -2.6602   -1.6123    0.9076 C   0  0  0  0  0  0  0  0  0  0  0  0
    1.7397   -1.8509   -1.6354 C   0  0  0  0  0  0  0  0  0  0  0  0
    0.6474   -1.4964   -2.3959 O   0  0  0  0  0  0  0  0  0  0  0  0
   -0.1665   -2.6267   -2.7166 C   0  0  0  0  0  0  0  0  0  0  0  0
    4.5772   -3.4542   -3.9833 H   0  0  0  0  0  0  0  0  0  0  0  0
    3.7185   -4.9199   -3.3641 H   0  0  0  0  0  0  0  0  0  0  0  0
    3.3438   -4.2595   -4.9597 H   0  0  0  0  0  0  0  0  0  0  0  0
    4.6448   -3.6478   -1.6317 H   0  0  0  0  0  0  0  0  0  0  0  0
    4.7972   -2.6627    0.5970 H   0  0  0  0  0  0  0  0  0  0  0  0
    3.0623   -1.1325    1.4264 H   0  0  0  0  0  0  0  0  0  0  0  0
   -0.2063   -0.5786   -0.2879 H   0  0  0  0  0  0  0  0  0  0  0  0
    2.1651    1.2872   -0.5218 H   0  0  0  0  0  0  0  0  0  0  0  0
    0.5230    1.4020   -1.2188 H   0  0  0  0  0  0  0  0  0  0  0  0
   -0.1202    3.6043    2.8365 H   0  0  0  0  0  0  0  0  0  0  0  0
   -0.2839    6.0655    2.7707 H   0  0  0  0  0  0  0  0  0  0  0  0
    0.3539    7.3055    0.7178 H   0  0  0  0  0  0  0  0  0  0  0  0
    1.1637    6.0724   -1.2752 H   0  0  0  0  0  0  0  0  0  0  0  0
    1.3404    3.6230   -1.2373 H   0  0  0  0  0  0  0  0  0  0  0  0
   -2.0893    0.8127    3.2423 H   0  0  0  0  0  0  0  0  0  0  0  0
   -4.3678    1.4684    2.5484 H   0  0  0  0  0  0  0  0  0  0  0  0
   -6.6856   -0.2642    1.3223 H   0  0  0  0  0  0  0  0  0  0  0  0
   -6.1208    1.3388    0.7896 H   0  0  0  0  0  0  0  0  0  0  0  0
   -6.1549    0.0002   -0.3575 H   0  0  0  0  0  0  0  0  0  0  0  0
   -4.4699   -1.8330   -0.2303 H   0  0  0  0  0  0  0  0  0  0  0  0
   -2.1961   -2.4895    0.4625 H   0  0  0  0  0  0  0  0  0  0  0  0
   -1.2026   -2.2797   -2.7794 H   0  0  0  0  0  0  0  0  0  0  0  0
    0.1087   -3.0268   -3.6965 H   0  0  0  0  0  0  0  0  0  0  0  0
   -0.1239   -3.4123   -1.9529 H   0  0  0  0  0  0  0  0  0  0  0  0
  1  2  1  0
  2  3  1  0
  3  4  2  0
  4  5  1  0
  5  6  2  0
  6  7  1  0
  7  8  1  0
  8  9  1  0
  9 10  1  0
 10 11  1  0
 11 12  2  0
 12 13  1  0
 13 14  2  0
 14 15  1  0
 15 16  2  0
 10 17  2  0
 17 18  1  0
 18 19  1  0
 19 20  2  0
 19 21  2  0
 19 22  1  0
 22 23  2  0
 23 24  1  0
 24 25  2  0
 25 26  1  0
 25 27  1  0
 27 28  2  0
  7 29  2  0
 29 30  1  0
 30 31  1  0
 29  3  1  0
 18  8  1  0
 28 22  1  0
 16 11  1  0
  1 32  1  0
  1 33  1  0
  1 34  1  0
  4 35  1  0
  5 36  1  0
  6 37  1  0
  8 38  1  0
  9 39  1  0
  9 40  1  0
 12 41  1  0
 13 42  1  0
 14 43  1  0
 15 44  1  0
 16 45  1  0
 23 46  1  0
 24 47  1  0
 26 48  1  0
 26 49  1  0
 26 50  1  0
 27 51  1  0
 28 52  1  0
 31 53  1  0
 31 54  1  0
 31 55  1  0
M  END
$$$$
