
     RDKit          3D

 70 72  0  0  0  0  0  0  0  0999 V2000
    6.5126    0.5710   -2.4551 C   0  0  0  0  0  0  0  0  0  0  0  0
    5.2939    0.0247   -1.7281 C   0  0  0  0  0  0  0  0  0  0  0  0
    4.0378    0.8784   -1.9164 C   0  0  0  0  0  0  0  0  0  0  0  0
    4.1343    2.3193   -1.4042 C   0  0  0  0  0  0  0  0  0  0  0  0
    4.5001    2.4751    0.0758 C   0  0  0  0  0  0  0  0  0  0  0  0
    3.5726    1.7606    1.0640 C   0  0  0  0  0  0  0  0  0  0  0  0
    2.1315    2.2755    1.0217 C   0  0  0  0  0  0  0  0  0  0  0  0
    1.2457    1.6796    2.1214 C   0  0  0  0  0  0  0  0  0  0  0  0
    1.0981    0.1522    2.0991 C   0  0  0  0  0  0  0  0  0  0  0  0
    0.4784   -0.3538    0.7951 C   0  0  0  0  0  0  0  0  0  0  0  0
    0.2031   -1.8712    0.7867 N   0  0  0  0  0  4  0  0  0  0  0  0
   -0.4107   -2.2214   -0.5772 C   0  0  0  0  0  0  0  0  0  0  0  0
    1.5270   -2.6439    0.8785 C   0  0  0  0  0  0  0  0  0  0  0  0
   -0.7106   -2.3613    1.9366 C   0  0  0  0  0  0  0  0  0  0  0  0
   -2.0073   -1.5605    2.1686 C   0  0  0  0  0  0  0  0  0  0  0  0
   -3.0953   -1.7901    1.1508 C   0  0  0  0  0  0  0  0  0  0  0  0
   -3.7515   -0.8892    0.3821 C   0  0  0  0  0  0  0  0  0  0  0  0
   -4.6476   -1.4225   -0.6818 C   0  0  0  0  0  0  0  0  0  0  0  0
   -5.6299   -2.3882   -0.4162 C   0  0  0  0  0  0  0  0  0  0  0  0
   -6.4565   -2.8539   -1.4400 C   0  0  0  0  0  0  0  0  0  0  0  0
   -6.3149   -2.3561   -2.7342 C   0  0  0  0  0  0  0  0  0  0  0  0
   -5.3499   -1.3869   -3.0093 C   0  0  0  0  0  0  0  0  0  0  0  0
   -4.5236   -0.9048   -1.9877 C   0  0  0  0  0  0  0  0  0  0  0  0
   -3.3154    0.3627   -2.3866 S   0  0  0  0  0  0  0  0  0  0  0  0
   -3.2189    1.2273   -0.8187 C   0  0  0  0  0  0  0  0  0  0  0  0
   -2.9161    2.5949   -0.8272 C   0  0  0  0  0  0  0  0  0  0  0  0
   -2.8731    3.3127    0.3694 C   0  0  0  0  0  0  0  0  0  0  0  0
   -3.1529    2.6682    1.5713 C   0  0  0  0  0  0  0  0  0  0  0  0
   -3.1040    3.5504    3.0459 Cl  0  0  0  0  0  0  0  0  0  0  0  0
   -3.4579    1.3078    1.5936 C   0  0  0  0  0  0  0  0  0  0  0  0
   -3.4503    0.5654    0.4049 C   0  0  0  0  0  0  0  0  0  0  0  0
    7.3487   -0.1301   -2.3656 H   0  0  0  0  0  0  0  0  0  0  0  0
    6.8358    1.5268   -2.0328 H   0  0  0  0  0  0  0  0  0  0  0  0
    6.3027    0.7142   -3.5195 H   0  0  0  0  0  0  0  0  0  0  0  0
    5.5253   -0.0899   -0.6637 H   0  0  0  0  0  0  0  0  0  0  0  0
    5.0847   -0.9825   -2.1090 H   0  0  0  0  0  0  0  0  0  0  0  0
    3.1962    0.3729   -1.4295 H   0  0  0  0  0  0  0  0  0  0  0  0
    3.7889    0.9100   -2.9848 H   0  0  0  0  0  0  0  0  0  0  0  0
    4.8731    2.8669   -2.0019 H   0  0  0  0  0  0  0  0  0  0  0  0
    3.1769    2.8185   -1.5961 H   0  0  0  0  0  0  0  0  0  0  0  0
    4.5173    3.5458    0.3164 H   0  0  0  0  0  0  0  0  0  0  0  0
    5.5239    2.1166    0.2364 H   0  0  0  0  0  0  0  0  0  0  0  0
    3.5983    0.6826    0.8766 H   0  0  0  0  0  0  0  0  0  0  0  0
    3.9734    1.9087    2.0743 H   0  0  0  0  0  0  0  0  0  0  0  0
    1.6838    2.0785    0.0421 H   0  0  0  0  0  0  0  0  0  0  0  0
    2.1373    3.3660    1.1444 H   0  0  0  0  0  0  0  0  0  0  0  0
    1.6472    1.9747    3.0988 H   0  0  0  0  0  0  0  0  0  0  0  0
    0.2494    2.1334    2.0483 H   0  0  0  0  0  0  0  0  0  0  0  0
    2.0762   -0.3077    2.2699 H   0  0  0  0  0  0  0  0  0  0  0  0
    0.4741   -0.1248    2.9549 H   0  0  0  0  0  0  0  0  0  0  0  0
   -0.4696    0.1516    0.5903 H   0  0  0  0  0  0  0  0  0  0  0  0
    1.1464   -0.1612   -0.0515 H   0  0  0  0  0  0  0  0  0  0  0  0
    0.3471   -2.0515   -1.3486 H   0  0  0  0  0  0  0  0  0  0  0  0
   -1.2613   -1.5696   -0.7634 H   0  0  0  0  0  0  0  0  0  0  0  0
   -0.7112   -3.2724   -0.5667 H   0  0  0  0  0  0  0  0  0  0  0  0
    1.3153   -3.7063    0.7232 H   0  0  0  0  0  0  0  0  0  0  0  0
    1.9586   -2.4931    1.8709 H   0  0  0  0  0  0  0  0  0  0  0  0
    2.2038   -2.2710    0.1038 H   0  0  0  0  0  0  0  0  0  0  0  0
   -0.9306   -3.4181    1.7405 H   0  0  0  0  0  0  0  0  0  0  0  0
   -0.1056   -2.3196    2.8500 H   0  0  0  0  0  0  0  0  0  0  0  0
   -1.7661   -0.5068    2.3033 H   0  0  0  0  0  0  0  0  0  0  0  0
   -2.4191   -1.8873    3.1328 H   0  0  0  0  0  0  0  0  0  0  0  0
   -3.3452   -2.8465    1.0302 H   0  0  0  0  0  0  0  0  0  0  0  0
   -5.7778   -2.7725    0.5906 H   0  0  0  0  0  0  0  0  0  0  0  0
   -7.2251   -3.5925   -1.2246 H   0  0  0  0  0  0  0  0  0  0  0  0
   -6.9664   -2.7152   -3.5283 H   0  0  0  0  0  0  0  0  0  0  0  0
   -5.2640   -0.9981   -4.0217 H   0  0  0  0  0  0  0  0  0  0  0  0
   -2.7324    3.1172   -1.7646 H   0  0  0  0  0  0  0  0  0  0  0  0
   -2.6469    4.3769    0.3534 H   0  0  0  0  0  0  0  0  0  0  0  0
   -3.7115    0.8333    2.5388 H   0  0  0  0  0  0  0  0  0  0  0  0
  1  2  1  0
  2  3  1  0
  3  4  1  0
  4  5  1  0
  5  6  1  0
  6  7  1  0
  7  8  1  0
  8  9  1  0
  9 10  1  0
 10 11  1  0
 11 12  1  0
 11 13  1  0
 11 14  1  0
 14 15  1  0
 15 16  1  0
 16 17  2  3
 17 18  1  0
 18 19  2  0
 19 20  1  0
 20 21  2  0
 21 22  1  0
 22 23  2  0
 23 24  1  0
 24 25  1  0
 25 26  2  0
 26 27  1  0
 27 28  2  0
 28 29  1  0
 28 30  1  0
 30 31  2  0
 31 17  1  0
 23 18  1  0
 31 25  1  0
  1 32  1  0
  1 33  1  0
  1 34  1  0
  2 35  1  0
  2 36  1  0
  3 37  1  0
  3 38  1  0
  4 39  1  0
  4 40  1  0
  5 41  1  0
  5 42  1  0
  6 43  1  0
  6 44  1  0
  7 45  1  0
  7 46  1  0
  8 47  1  0
  8 48  1  0
  9 49  1  0
  9 50  1  0
 10 51  1  0
 10 52  1  0
 12 53  1  0
 12 54  1  0
 12 55  1  0
 13 56  1  0
 13 57  1  0
 13 58  1  0
 14 59  1  0
 14 60  1  0
 15 61  1  0
 15 62  1  0
 16 63  1  0
 19 64  1  0
 20 65  1  0
 21 66  1  0
 22 67  1  0
 26 68  1  0
 27 69  1  0
 30 70  1  0
M  CHG  1  11   1
M  END
$$$$
