
     RDKit          3D

 46 49  0  0  0  0  0  0  0  0999 V2000
   -6.1480    0.6228    1.6909 C   0  0  0  0  0  0  0  0  0  0  0  0
   -4.7343    0.6558    1.8350 O   0  0  0  0  0  0  0  0  0  0  0  0
   -3.9903    0.1877    0.7866 C   0  0  0  0  0  0  0  0  0  0  0  0
   -4.4911   -0.2663   -0.4316 C   0  0  0  0  0  0  0  0  0  0  0  0
   -3.6185   -0.6994   -1.4358 C   0  0  0  0  0  0  0  0  0  0  0  0
   -2.2379   -0.6869   -1.2230 C   0  0  0  0  0  0  0  0  0  0  0  0
   -1.2935   -1.0819   -2.1436 O   0  0  0  0  0  0  0  0  0  0  0  0
   -1.7713   -1.5530   -3.3980 C   0  0  0  0  0  0  0  0  0  0  0  0
   -1.7175   -0.2536    0.0174 C   0  0  0  0  0  0  0  0  0  0  0  0
   -0.3134   -0.2090    0.1802 N   0  0  0  0  0  0  0  0  0  0  0  0
    0.4847   -0.3602    1.3494 C   0  0  0  0  0  0  0  0  0  0  0  0
   -0.1199   -0.5802    2.5471 N   0  0  0  0  0  0  0  0  0  0  0  0
    0.7816   -0.7435    3.5493 C   0  0  0  0  0  0  0  0  0  0  0  0
    0.5066   -0.9803    4.8322 N   0  0  0  0  0  0  0  0  0  0  0  0
    1.7532   -1.0750    5.4496 O   0  0  0  0  0  0  0  0  0  0  0  0
    2.8015   -0.8943    4.5474 N   0  0  0  0  0  0  0  0  0  0  0  0
    2.2038   -0.6884    3.3736 C   0  0  0  0  0  0  0  0  0  0  0  0
    2.8219   -0.4571    2.1852 N   0  0  0  0  0  0  0  0  0  0  0  0
    1.9326   -0.2694    1.1726 C   0  0  0  0  0  0  0  0  0  0  0  0
    2.4524   -0.0085   -0.1271 N   0  0  0  0  0  0  0  0  0  0  0  0
    2.0973    1.3358   -0.6346 C   0  0  0  0  0  0  0  0  0  0  0  0
    3.3315    2.1402   -1.0401 C   0  0  0  0  0  0  0  0  0  0  0  0
    4.2079    1.3830   -2.0360 C   0  0  0  0  0  0  0  0  0  0  0  0
    4.2896   -0.1137   -1.7308 C   0  0  0  0  0  0  0  0  0  0  0  0
    3.8529   -0.4225   -0.3009 C   0  0  0  0  0  0  0  0  0  0  0  0
   -2.6081    0.1967    0.9993 C   0  0  0  0  0  0  0  0  0  0  0  0
   -6.5878    1.0057    2.6168 H   0  0  0  0  0  0  0  0  0  0  0  0
   -6.4760    1.2734    0.8734 H   0  0  0  0  0  0  0  0  0  0  0  0
   -6.5076   -0.4020    1.5499 H   0  0  0  0  0  0  0  0  0  0  0  0
   -5.5558   -0.2882   -0.6379 H   0  0  0  0  0  0  0  0  0  0  0  0
   -4.0517   -1.0353   -2.3717 H   0  0  0  0  0  0  0  0  0  0  0  0
   -2.3843   -2.4521   -3.2742 H   0  0  0  0  0  0  0  0  0  0  0  0
   -0.9023   -1.8242   -4.0056 H   0  0  0  0  0  0  0  0  0  0  0  0
   -2.3182   -0.7687   -3.9324 H   0  0  0  0  0  0  0  0  0  0  0  0
    0.1549   -0.6663   -0.6050 H   0  0  0  0  0  0  0  0  0  0  0  0
    1.4525    1.2088   -1.5128 H   0  0  0  0  0  0  0  0  0  0  0  0
    1.5329    1.9256    0.0993 H   0  0  0  0  0  0  0  0  0  0  0  0
    3.9218    2.3726   -0.1440 H   0  0  0  0  0  0  0  0  0  0  0  0
    3.0297    3.1017   -1.4710 H   0  0  0  0  0  0  0  0  0  0  0  0
    3.8201    1.5186   -3.0528 H   0  0  0  0  0  0  0  0  0  0  0  0
    5.2132    1.8211   -2.0303 H   0  0  0  0  0  0  0  0  0  0  0  0
    3.6434   -0.6573   -2.4326 H   0  0  0  0  0  0  0  0  0  0  0  0
    5.3108   -0.4726   -1.9026 H   0  0  0  0  0  0  0  0  0  0  0  0
    4.5225    0.0880    0.4039 H   0  0  0  0  0  0  0  0  0  0  0  0
    3.9433   -1.5027   -0.1316 H   0  0  0  0  0  0  0  0  0  0  0  0
   -2.2351    0.5751    1.9470 H   0  0  0  0  0  0  0  0  0  0  0  0
  1  2  1  0
  2  3  1  0
  3  4  2  0
  4  5  1  0
  5  6  2  0
  6  7  1  0
  7  8  1  0
  6  9  1  0
  9 10  1  0
 10 11  1  0
 11 12  2  0
 12 13  1  0
 13 14  2  0
 14 15  1  0
 15 16  1  0
 16 17  2  0
 17 18  1  0
 18 19  2  0
 19 20  1  0
 20 21  1  0
 21 22  1  0
 22 23  1  0
 23 24  1  0
 24 25  1  0
  9 26  2  0
 26  3  1  0
 19 11  1  0
 25 20  1  0
 17 13  1  0
  1 27  1  0
  1 28  1  0
  1 29  1  0
  4 30  1  0
  5 31  1  0
  8 32  1  0
  8 33  1  0
  8 34  1  0
 10 35  1  0
 21 36  1  0
 21 37  1  0
 22 38  1  0
 22 39  1  0
 23 40  1  0
 23 41  1  0
 24 42  1  0
 24 43  1  0
 25 44  1  0
 25 45  1  0
 26 46  1  0
M  END
$$$$
