
     RDKit          3D

 47 49  0  0  0  0  0  0  0  0999 V2000
   -8.4593    0.7729   -0.3450 C   0  0  0  0  0  0  0  0  0  0  0  0
   -7.5563   -0.1023   -1.0047 O   0  0  0  0  0  0  0  0  0  0  0  0
   -6.2621   -0.1452   -0.5484 C   0  0  0  0  0  0  0  0  0  0  0  0
   -5.7866    0.5807    0.5483 C   0  0  0  0  0  0  0  0  0  0  0  0
   -4.4502    0.4727    0.9420 C   0  0  0  0  0  0  0  0  0  0  0  0
   -3.5724   -0.3565    0.2406 C   0  0  0  0  0  0  0  0  0  0  0  0
   -2.1702   -0.4963    0.6481 C   0  0  0  0  0  0  0  0  0  0  0  0
   -1.2378    0.4650    0.6082 C   0  0  0  0  0  0  0  0  0  0  0  0
   -1.4058    2.0865    0.0716 S   0  0  0  0  0  0  0  0  0  0  0  0
    0.2858    2.4638    0.3753 C   0  0  0  0  0  0  0  0  0  0  0  0
    0.9318    3.9651    0.0431 S   0  0  0  0  0  0  0  0  0  0  0  0
    0.9243    1.3587    0.8994 N   0  0  0  0  0  0  0  0  0  0  0  0
    2.3465    1.3007    1.2523 C   0  0  0  0  0  0  0  0  0  0  0  0
    3.1981    0.8066    0.0885 C   0  0  0  0  0  0  0  0  0  0  0  0
    4.6599    0.7408    0.4728 C   0  0  0  0  0  0  0  0  0  0  0  0
    5.0675    1.1127    1.5715 O   0  0  0  0  0  0  0  0  0  0  0  0
    5.4464    0.2626   -0.5423 N   0  0  0  0  0  0  0  0  0  0  0  0
    6.6117   -0.1833   -0.2468 C   0  0  0  0  0  0  0  0  0  0  0  0
    7.2644   -0.2931    0.9477 N   0  0  0  0  0  0  0  0  0  0  0  0
    8.7023   -0.4267    0.8477 C   0  0  0  0  0  0  0  0  0  0  0  0
    8.9628   -1.2547   -0.4063 C   0  0  0  0  0  0  0  0  0  0  0  0
    7.6443   -0.7525   -1.5593 S   0  0  0  0  0  0  0  0  0  0  0  0
    0.1642    0.2089    1.0296 C   0  0  0  0  0  0  0  0  0  0  0  0
    0.5692   -0.8790    1.4160 O   0  0  0  0  0  0  0  0  0  0  0  0
   -4.0459   -1.0941   -0.8515 C   0  0  0  0  0  0  0  0  0  0  0  0
   -5.3837   -0.9923   -1.2543 C   0  0  0  0  0  0  0  0  0  0  0  0
   -5.9286   -1.6752   -2.3144 O   0  0  0  0  0  0  0  0  0  0  0  0
   -5.0689   -2.5108   -3.0753 C   0  0  0  0  0  0  0  0  0  0  0  0
   -8.1277    1.8139   -0.4195 H   0  0  0  0  0  0  0  0  0  0  0  0
   -8.6043    0.4764    0.6989 H   0  0  0  0  0  0  0  0  0  0  0  0
   -9.4276    0.6964   -0.8490 H   0  0  0  0  0  0  0  0  0  0  0  0
   -6.4308    1.2387    1.1214 H   0  0  0  0  0  0  0  0  0  0  0  0
   -4.1063    1.0419    1.8028 H   0  0  0  0  0  0  0  0  0  0  0  0
   -1.8984   -1.4947    0.9892 H   0  0  0  0  0  0  0  0  0  0  0  0
    2.6842    2.2877    1.5856 H   0  0  0  0  0  0  0  0  0  0  0  0
    2.4634    0.6256    2.1095 H   0  0  0  0  0  0  0  0  0  0  0  0
    2.8760   -0.1947   -0.2199 H   0  0  0  0  0  0  0  0  0  0  0  0
    3.0962    1.4752   -0.7734 H   0  0  0  0  0  0  0  0  0  0  0  0
    6.8887    0.3006    1.6873 H   0  0  0  0  0  0  0  0  0  0  0  0
    9.1151   -0.9132    1.7366 H   0  0  0  0  0  0  0  0  0  0  0  0
    9.1608    0.5655    0.7602 H   0  0  0  0  0  0  0  0  0  0  0  0
    9.9568   -1.0742   -0.8235 H   0  0  0  0  0  0  0  0  0  0  0  0
    8.8495   -2.3232   -0.1969 H   0  0  0  0  0  0  0  0  0  0  0  0
   -3.3517   -1.7410   -1.3779 H   0  0  0  0  0  0  0  0  0  0  0  0
   -4.2617   -1.9326   -3.5371 H   0  0  0  0  0  0  0  0  0  0  0  0
   -4.6723   -3.3288   -2.4652 H   0  0  0  0  0  0  0  0  0  0  0  0
   -5.6613   -2.9551   -3.8809 H   0  0  0  0  0  0  0  0  0  0  0  0
  1  2  1  0
  2  3  1  0
  3  4  2  0
  4  5  1  0
  5  6  2  0
  6  7  1  0
  7  8  2  3
  8  9  1  0
  9 10  1  0
 10 11  2  0
 10 12  1  0
 12 13  1  0
 13 14  1  0
 14 15  1  0
 15 16  2  0
 15 17  1  0
 17 18  2  3
 18 19  1  0
 19 20  1  0
 20 21  1  0
 21 22  1  0
 12 23  1  0
 23 24  2  0
  6 25  1  0
 25 26  2  0
 26 27  1  0
 27 28  1  0
 26  3  1  0
 23  8  1  0
 22 18  1  0
  1 29  1  0
  1 30  1  0
  1 31  1  0
  4 32  1  0
  5 33  1  0
  7 34  1  0
 13 35  1  0
 13 36  1  0
 14 37  1  0
 14 38  1  0
 19 39  1  0
 20 40  1  0
 20 41  1  0
 21 42  1  0
 21 43  1  0
 25 44  1  0
 28 45  1  0
 28 46  1  0
 28 47  1  0
M  END
$$$$
