
     RDKit          3D

 40 44  0  0  0  0  0  0  0  0999 V2000
    8.0696   -0.6000   -2.5040 O   0  0  0  0  0  0  0  0  0  0  0  0
    6.9227   -0.9132   -2.2442 C   0  0  0  0  0  0  0  0  0  0  0  0
    6.3455   -1.9836   -2.8183 O   0  0  0  0  0  0  0  0  0  0  0  0
    6.0207   -0.2066   -1.3030 C   0  0  0  0  0  0  0  0  0  0  0  0
    6.5113    0.9238   -0.6416 C   0  0  0  0  0  0  0  0  0  0  0  0
    5.6955    1.6159    0.2503 C   0  0  0  0  0  0  0  0  0  0  0  0
    4.3886    1.1795    0.4829 C   0  0  0  0  0  0  0  0  0  0  0  0
    3.8740    0.0471   -0.1691 C   0  0  0  0  0  0  0  0  0  0  0  0
    2.5071   -0.4108    0.0730 C   0  0  0  0  0  0  0  0  0  0  0  0
    1.7380   -1.4499   -0.3998 C   0  0  0  0  0  0  0  0  0  0  0  0
    0.4805   -1.3438    0.2436 C   0  0  0  0  0  0  0  0  0  0  0  0
    0.5114   -0.2292    1.0704 C   0  0  0  0  0  0  0  0  0  0  0  0
   -0.4461    0.3267    1.9595 C   0  0  0  0  0  0  0  0  0  0  0  0
   -1.7678    0.4263    1.7565 C   0  0  0  0  0  0  0  0  0  0  0  0
   -2.7984    1.1537    2.9945 S   0  0  0  0  0  0  0  0  0  0  0  0
   -4.1755    0.9199    1.9966 C   0  0  0  0  0  0  0  0  0  0  0  0
   -5.4410    1.1862    2.1586 N   0  0  0  0  0  0  0  0  0  0  0  0
   -6.0111    0.7518    0.9781 C   0  0  0  0  0  0  0  0  0  0  0  0
   -7.3548    0.7824    0.5766 C   0  0  0  0  0  0  0  0  0  0  0  0
   -7.6940    0.2771   -0.6850 C   0  0  0  0  0  0  0  0  0  0  0  0
   -6.7172   -0.2495   -1.5337 C   0  0  0  0  0  0  0  0  0  0  0  0
   -5.3705   -0.2917   -1.1565 C   0  0  0  0  0  0  0  0  0  0  0  0
   -5.0533    0.2176    0.1069 C   0  0  0  0  0  0  0  0  0  0  0  0
   -3.8805    0.3446    0.8077 N   0  0  0  0  0  0  0  0  0  0  0  0
   -2.5638    0.0244    0.5527 C   0  0  0  0  0  0  0  0  0  0  0  0
   -2.2247   -0.4840   -0.4976 O   0  0  0  0  0  0  0  0  0  0  0  0
    1.7748    0.3115    0.9683 O   0  0  0  0  0  0  0  0  0  0  0  0
    4.7074   -0.6401   -1.0656 C   0  0  0  0  0  0  0  0  0  0  0  0
    7.0468   -2.3407   -3.4031 H   0  0  0  0  0  0  0  0  0  0  0  0
    7.5284    1.2679   -0.8194 H   0  0  0  0  0  0  0  0  0  0  0  0
    6.0740    2.4955    0.7655 H   0  0  0  0  0  0  0  0  0  0  0  0
    3.7704    1.7378    1.1838 H   0  0  0  0  0  0  0  0  0  0  0  0
    2.0378   -2.2022   -1.1151 H   0  0  0  0  0  0  0  0  0  0  0  0
   -0.3557   -2.0171    0.1131 H   0  0  0  0  0  0  0  0  0  0  0  0
   -0.0213    0.7383    2.8733 H   0  0  0  0  0  0  0  0  0  0  0  0
   -8.1116    1.1923    1.2370 H   0  0  0  0  0  0  0  0  0  0  0  0
   -8.7332    0.2966   -1.0064 H   0  0  0  0  0  0  0  0  0  0  0  0
   -7.0086   -0.6347   -2.5095 H   0  0  0  0  0  0  0  0  0  0  0  0
   -4.6117   -0.7003   -1.8177 H   0  0  0  0  0  0  0  0  0  0  0  0
    4.3361   -1.5195   -1.5857 H   0  0  0  0  0  0  0  0  0  0  0  0
  1  2  2  0
  2  3  1  0
  2  4  1  0
  4  5  2  0
  5  6  1  0
  6  7  2  0
  7  8  1  0
  8  9  1  0
  9 10  2  0
 10 11  1  0
 11 12  2  0
 12 13  1  0
 13 14  2  3
 14 15  1  0
 15 16  1  0
 16 17  2  0
 17 18  1  0
 18 19  2  0
 19 20  1  0
 20 21  2  0
 21 22  1  0
 22 23  2  0
 23 24  1  0
 24 25  1  0
 25 26  2  0
 12 27  1  0
  8 28  2  0
 28  4  1  0
 27  9  1  0
 25 14  1  0
 24 16  1  0
 23 18  1  0
  3 29  1  0
  5 30  1  0
  6 31  1  0
  7 32  1  0
 10 33  1  0
 11 34  1  0
 13 35  1  0
 19 36  1  0
 20 37  1  0
 21 38  1  0
 22 39  1  0
 28 40  1  0
M  END
$$$$
