
     RDKit          3D

 58 60  0  0  0  0  0  0  0  0999 V2000
    1.5859   -5.2053   -1.8133 C   0  0  0  0  0  0  0  0  0  0  0  0
    2.0833   -3.8124   -1.4620 C   0  0  0  0  0  0  0  0  0  0  0  0
    1.8497   -3.4889    0.0150 C   0  0  0  0  0  0  0  0  0  0  0  0
    2.3608   -2.1197    0.3616 C   0  0  0  0  0  0  0  0  0  0  0  0
    3.7055   -1.9599    0.6798 N   0  0  0  0  0  0  0  0  0  0  0  0
    3.8697   -0.6181    1.0517 N   0  0  0  0  0  0  0  0  0  0  0  0
    5.1433   -0.1149    1.3981 C   0  0  0  0  0  0  0  0  0  0  0  0
    5.3133    1.2126    1.8198 C   0  0  0  0  0  0  0  0  0  0  0  0
    6.5775    1.7117    2.1613 C   0  0  0  0  0  0  0  0  0  0  0  0
    7.6951    0.8779    2.0769 C   0  0  0  0  0  0  0  0  0  0  0  0
    9.0227    1.3965    2.4254 N   0  0  0  0  0  4  0  0  0  0  0  0
    9.9816    0.6164    2.3504 O   0  0  0  0  0  0  0  0  0  0  0  0
    9.1072    2.5811    2.7781 O   0  0  0  0  0  1  0  0  0  0  0  0
    7.5530   -0.4485    1.6559 C   0  0  0  0  0  0  0  0  0  0  0  0
    6.2832   -0.9360    1.3208 C   0  0  0  0  0  0  0  0  0  0  0  0
    2.6496    0.0584    0.9043 C   0  0  0  0  0  0  0  0  0  0  0  0
    2.3942    1.2313    1.1183 O   0  0  0  0  0  0  0  0  0  0  0  0
    1.6709   -0.9651    0.4351 C   0  0  0  0  0  0  0  0  0  0  0  0
    0.2460   -0.7740    0.1369 C   0  0  0  0  0  0  0  0  0  0  0  0
   -0.3452    0.3634    0.1385 N   0  0  0  0  0  0  0  0  0  0  0  0
   -1.7731    0.3125   -0.1951 C   0  0  0  0  0  0  0  0  0  0  0  0
   -2.2259    1.7169   -0.6057 C   0  0  0  0  0  0  0  0  0  0  0  0
   -3.7054    1.7673   -0.9010 C   0  0  0  0  0  0  0  0  0  0  0  0
   -4.1908    1.4003   -2.1623 C   0  0  0  0  0  0  0  0  0  0  0  0
   -5.5619    1.4200   -2.4275 C   0  0  0  0  0  0  0  0  0  0  0  0
   -6.4690    1.8079   -1.4346 C   0  0  0  0  0  0  0  0  0  0  0  0
   -7.8308    1.8579   -1.6055 O   0  0  0  0  0  0  0  0  0  0  0  0
   -8.3528    1.4498   -2.8637 C   0  0  0  0  0  0  0  0  0  0  0  0
   -5.9892    2.1884   -0.1629 C   0  0  0  0  0  0  0  0  0  0  0  0
   -6.9398    2.5588    0.7586 O   0  0  0  0  0  0  0  0  0  0  0  0
   -6.4817    3.1426    1.9641 C   0  0  0  0  0  0  0  0  0  0  0  0
   -4.6134    2.1565    0.0959 C   0  0  0  0  0  0  0  0  0  0  0  0
    1.7501   -5.4086   -2.8765 H   0  0  0  0  0  0  0  0  0  0  0  0
    2.1166   -5.9675   -1.2356 H   0  0  0  0  0  0  0  0  0  0  0  0
    0.5154   -5.3027   -1.6103 H   0  0  0  0  0  0  0  0  0  0  0  0
    1.5657   -3.0789   -2.0923 H   0  0  0  0  0  0  0  0  0  0  0  0
    3.1514   -3.7437   -1.7024 H   0  0  0  0  0  0  0  0  0  0  0  0
    2.3533   -4.2339    0.6452 H   0  0  0  0  0  0  0  0  0  0  0  0
    0.7830   -3.5762    0.2505 H   0  0  0  0  0  0  0  0  0  0  0  0
    4.0078   -2.6161    1.4035 H   0  0  0  0  0  0  0  0  0  0  0  0
    4.4671    1.8920    1.8992 H   0  0  0  0  0  0  0  0  0  0  0  0
    6.6643    2.7481    2.4840 H   0  0  0  0  0  0  0  0  0  0  0  0
    8.4130   -1.1104    1.5730 H   0  0  0  0  0  0  0  0  0  0  0  0
    6.2088   -1.9645    0.9754 H   0  0  0  0  0  0  0  0  0  0  0  0
   -0.3147   -1.6911   -0.1073 H   0  0  0  0  0  0  0  0  0  0  0  0
   -2.3397   -0.0261    0.6842 H   0  0  0  0  0  0  0  0  0  0  0  0
   -1.9674   -0.3939   -1.0161 H   0  0  0  0  0  0  0  0  0  0  0  0
   -1.9799    2.4370    0.1853 H   0  0  0  0  0  0  0  0  0  0  0  0
   -1.6669    2.0488   -1.4888 H   0  0  0  0  0  0  0  0  0  0  0  0
   -3.5032    1.0962   -2.9502 H   0  0  0  0  0  0  0  0  0  0  0  0
   -5.8898    1.1290   -3.4219 H   0  0  0  0  0  0  0  0  0  0  0  0
   -8.1016    0.4040   -3.0784 H   0  0  0  0  0  0  0  0  0  0  0  0
   -8.0129    2.1143   -3.6679 H   0  0  0  0  0  0  0  0  0  0  0  0
   -9.4434    1.5233   -2.8128 H   0  0  0  0  0  0  0  0  0  0  0  0
   -5.8492    4.0135    1.7732 H   0  0  0  0  0  0  0  0  0  0  0  0
   -5.9624    2.4088    2.5832 H   0  0  0  0  0  0  0  0  0  0  0  0
   -7.3594    3.4869    2.5173 H   0  0  0  0  0  0  0  0  0  0  0  0
   -4.2193    2.4264    1.0733 H   0  0  0  0  0  0  0  0  0  0  0  0
  1  2  1  0
  2  3  1  0
  3  4  1  0
  4  5  1  0
  5  6  1  0
  6  7  1  0
  7  8  2  0
  8  9  1  0
  9 10  2  0
 10 11  1  0
 11 12  2  0
 11 13  1  0
 10 14  1  0
 14 15  2  0
  6 16  1  0
 16 17  2  0
 16 18  1  0
 18 19  1  0
 19 20  2  3
 20 21  1  0
 21 22  1  0
 22 23  1  0
 23 24  2  0
 24 25  1  0
 25 26  2  0
 26 27  1  0
 27 28  1  0
 26 29  1  0
 29 30  1  0
 30 31  1  0
 29 32  2  0
 18  4  2  0
 32 23  1  0
 15  7  1  0
  1 33  1  0
  1 34  1  0
  1 35  1  0
  2 36  1  0
  2 37  1  0
  3 38  1  0
  3 39  1  0
  5 40  1  0
  8 41  1  0
  9 42  1  0
 14 43  1  0
 15 44  1  0
 19 45  1  0
 21 46  1  0
 21 47  1  0
 22 48  1  0
 22 49  1  0
 24 50  1  0
 25 51  1  0
 28 52  1  0
 28 53  1  0
 28 54  1  0
 31 55  1  0
 31 56  1  0
 31 57  1  0
 32 58  1  0
M  CHG  2  11   1  13  -1
M  END
$$$$
