
     RDKit          3D

 62 64  0  0  0  0  0  0  0  0999 V2000
    3.3066    2.4492    4.0820 C   0  0  0  0  0  0  0  0  0  0  0  0
    4.1888    1.7124    3.2462 O   0  0  0  0  0  0  0  0  0  0  0  0
    3.8649    1.6534    1.9161 C   0  0  0  0  0  0  0  0  0  0  0  0
    2.6470    2.0347    1.3535 C   0  0  0  0  0  0  0  0  0  0  0  0
    2.4571    1.9502   -0.0295 C   0  0  0  0  0  0  0  0  0  0  0  0
    3.4787    1.4811   -0.8658 C   0  0  0  0  0  0  0  0  0  0  0  0
    3.2674    1.3860   -2.3600 C   0  0  0  0  0  0  0  0  0  0  0  0
    2.8438   -0.0048   -2.8211 C   0  0  0  0  0  0  0  0  0  0  0  0
    1.4121   -0.2869   -2.4168 C   0  0  0  0  0  0  0  0  0  0  0  0
    0.4771    0.2057   -3.0438 O   0  0  0  0  0  0  0  0  0  0  0  0
    1.3142   -1.0459   -1.2782 N   0  0  0  0  0  0  0  0  0  0  0  0
    0.1487   -1.5220   -0.6429 C   0  0  0  0  0  0  0  0  0  0  0  0
   -1.1303   -1.3784   -1.1696 C   0  0  0  0  0  0  0  0  0  0  0  0
   -2.2279   -1.8787   -0.4640 C   0  0  0  0  0  0  0  0  0  0  0  0
   -3.8434   -1.7882   -1.2113 S   0  0  0  0  0  6  0  0  0  0  0  0
   -4.7126   -2.6760   -0.4664 O   0  0  0  0  0  0  0  0  0  0  0  0
   -3.6689   -1.9583   -2.6386 O   0  0  0  0  0  0  0  0  0  0  0  0
   -4.3411   -0.1893   -0.9130 N   0  0  0  0  0  0  0  0  0  0  0  0
   -3.6102    0.8851   -1.6287 C   0  0  0  0  0  0  0  0  0  0  0  0
   -4.4666    2.1480   -1.6525 C   0  0  0  0  0  0  0  0  0  0  0  0
   -4.8843    2.5695   -0.2443 C   0  0  0  0  0  0  0  0  0  0  0  0
   -5.5449    1.4134    0.5020 C   0  0  0  0  0  0  0  0  0  0  0  0
   -4.6696    0.1640    0.4894 C   0  0  0  0  0  0  0  0  0  0  0  0
   -2.0550   -2.5461    0.7506 C   0  0  0  0  0  0  0  0  0  0  0  0
   -0.7677   -2.7105    1.2692 C   0  0  0  0  0  0  0  0  0  0  0  0
    0.3467   -2.2067    0.5816 C   0  0  0  0  0  0  0  0  0  0  0  0
    1.6875   -2.4180    1.0203 N   0  0  0  0  0  0  0  0  0  0  0  0
    1.9293   -1.9810    2.4035 C   0  0  0  0  0  0  0  0  0  0  0  0
    2.0910   -3.8072    0.7563 C   0  0  0  0  0  0  0  0  0  0  0  0
    4.6892    1.0785   -0.2923 C   0  0  0  0  0  0  0  0  0  0  0  0
    4.8772    1.1616    1.0890 C   0  0  0  0  0  0  0  0  0  0  0  0
    2.3724    1.8984    4.2444 H   0  0  0  0  0  0  0  0  0  0  0  0
    3.1082    3.4484    3.6753 H   0  0  0  0  0  0  0  0  0  0  0  0
    3.7977    2.5789    5.0533 H   0  0  0  0  0  0  0  0  0  0  0  0
    1.8261    2.4020    1.9618 H   0  0  0  0  0  0  0  0  0  0  0  0
    1.5003    2.2499   -0.4532 H   0  0  0  0  0  0  0  0  0  0  0  0
    2.5259    2.1334   -2.6726 H   0  0  0  0  0  0  0  0  0  0  0  0
    4.2005    1.6723   -2.8588 H   0  0  0  0  0  0  0  0  0  0  0  0
    3.5149   -0.7791   -2.4326 H   0  0  0  0  0  0  0  0  0  0  0  0
    2.8906   -0.0686   -3.9148 H   0  0  0  0  0  0  0  0  0  0  0  0
    2.1588   -1.2784   -0.7536 H   0  0  0  0  0  0  0  0  0  0  0  0
   -1.2919   -0.9107   -2.1351 H   0  0  0  0  0  0  0  0  0  0  0  0
   -2.6591    1.0903   -1.1226 H   0  0  0  0  0  0  0  0  0  0  0  0
   -3.4095    0.5943   -2.6630 H   0  0  0  0  0  0  0  0  0  0  0  0
   -5.3719    1.9745   -2.2469 H   0  0  0  0  0  0  0  0  0  0  0  0
   -3.9146    2.9651   -2.1337 H   0  0  0  0  0  0  0  0  0  0  0  0
   -4.0059    2.9160    0.3170 H   0  0  0  0  0  0  0  0  0  0  0  0
   -5.5765    3.4166   -0.3051 H   0  0  0  0  0  0  0  0  0  0  0  0
   -6.5066    1.1842    0.0300 H   0  0  0  0  0  0  0  0  0  0  0  0
   -5.7518    1.7126    1.5330 H   0  0  0  0  0  0  0  0  0  0  0  0
   -5.2279   -0.6481    0.9695 H   0  0  0  0  0  0  0  0  0  0  0  0
   -3.7506    0.3327    1.0623 H   0  0  0  0  0  0  0  0  0  0  0  0
   -2.9049   -2.9747    1.2763 H   0  0  0  0  0  0  0  0  0  0  0  0
   -0.6418   -3.2676    2.1931 H   0  0  0  0  0  0  0  0  0  0  0  0
    2.9978   -2.0673    2.6243 H   0  0  0  0  0  0  0  0  0  0  0  0
    1.6657   -0.9283    2.5336 H   0  0  0  0  0  0  0  0  0  0  0  0
    1.3889   -2.5880    3.1385 H   0  0  0  0  0  0  0  0  0  0  0  0
    1.5876   -4.5135    1.4307 H   0  0  0  0  0  0  0  0  0  0  0  0
    1.8741   -4.0815   -0.2809 H   0  0  0  0  0  0  0  0  0  0  0  0
    3.1733   -3.9173    0.9040 H   0  0  0  0  0  0  0  0  0  0  0  0
    5.5006    0.7060   -0.9149 H   0  0  0  0  0  0  0  0  0  0  0  0
    5.8244    0.8527    1.5236 H   0  0  0  0  0  0  0  0  0  0  0  0
  1  2  1  0
  2  3  1  0
  3  4  2  0
  4  5  1  0
  5  6  2  0
  6  7  1  0
  7  8  1  0
  8  9  1  0
  9 10  2  0
  9 11  1  0
 11 12  1  0
 12 13  2  0
 13 14  1  0
 14 15  1  0
 15 16  2  0
 15 17  2  0
 15 18  1  0
 18 19  1  0
 19 20  1  0
 20 21  1  0
 21 22  1  0
 22 23  1  0
 14 24  2  0
 24 25  1  0
 25 26  2  0
 26 27  1  0
 27 28  1  0
 27 29  1  0
  6 30  1  0
 30 31  2  0
 31  3  1  0
 26 12  1  0
 23 18  1  0
  1 32  1  0
  1 33  1  0
  1 34  1  0
  4 35  1  0
  5 36  1  0
  7 37  1  0
  7 38  1  0
  8 39  1  0
  8 40  1  0
 11 41  1  0
 13 42  1  0
 19 43  1  0
 19 44  1  0
 20 45  1  0
 20 46  1  0
 21 47  1  0
 21 48  1  0
 22 49  1  0
 22 50  1  0
 23 51  1  0
 23 52  1  0
 24 53  1  0
 25 54  1  0
 28 55  1  0
 28 56  1  0
 28 57  1  0
 29 58  1  0
 29 59  1  0
 29 60  1  0
 30 61  1  0
 31 62  1  0
M  END
$$$$
