
     RDKit          3D

 32 33  0  0  0  0  0  0  0  0999 V2000
   -6.3050   -1.6601    0.0157 C   0  0  0  0  0  0  0  0  0  0  0  0
   -5.7226   -0.3243   -0.4029 C   0  0  0  0  0  0  0  0  0  0  0  0
   -4.2945   -0.4216   -0.3431 O   0  0  0  0  0  0  0  0  0  0  0  0
   -3.6449    0.7159   -0.6959 C   0  0  0  0  0  0  0  0  0  0  0  0
   -4.1733    1.7605   -1.0433 O   0  0  0  0  0  0  0  0  0  0  0  0
   -2.1710    0.5289   -0.6060 C   0  0  0  0  0  0  0  0  0  0  0  0
   -1.5888   -0.6803   -0.2051 C   0  0  0  0  0  0  0  0  0  0  0  0
   -0.1975   -0.8030   -0.1367 C   0  0  0  0  0  0  0  0  0  0  0  0
    0.6321    0.2772   -0.4719 C   0  0  0  0  0  0  0  0  0  0  0  0
    2.1341    0.1476   -0.3819 C   0  0  0  0  0  0  0  0  0  0  0  0
    2.7358    0.6037    1.2703 S   0  0  0  0  0  0  0  0  0  0  0  0
    4.4535    0.3690    1.0537 C   0  0  0  0  0  0  0  0  0  0  0  0
    4.9768   -0.0916   -0.0607 N   0  0  0  0  0  0  0  0  0  0  0  0
    6.3530   -0.1839    0.0164 N   0  0  0  0  0  0  0  0  0  0  0  0
    6.8172    0.2071    1.1821 C   0  0  0  0  0  0  0  0  0  0  0  0
    8.1203    0.2116    1.5230 N   0  0  0  0  0  0  0  0  0  0  0  0
    5.5972    0.7106    2.2817 S   0  0  0  0  0  0  0  0  0  0  0  0
    0.0445    1.4878   -0.8657 C   0  0  0  0  0  0  0  0  0  0  0  0
   -1.3458    1.6117   -0.9346 C   0  0  0  0  0  0  0  0  0  0  0  0
   -7.3979   -1.6359   -0.0139 H   0  0  0  0  0  0  0  0  0  0  0  0
   -5.9507   -2.4588   -0.6444 H   0  0  0  0  0  0  0  0  0  0  0  0
   -5.9841   -1.9196    1.0300 H   0  0  0  0  0  0  0  0  0  0  0  0
   -6.0349   -0.0889   -1.4265 H   0  0  0  0  0  0  0  0  0  0  0  0
   -6.0689    0.4604    0.2792 H   0  0  0  0  0  0  0  0  0  0  0  0
   -2.2043   -1.5363    0.0604 H   0  0  0  0  0  0  0  0  0  0  0  0
    0.2354   -1.7489    0.1839 H   0  0  0  0  0  0  0  0  0  0  0  0
    2.6015    0.7896   -1.1377 H   0  0  0  0  0  0  0  0  0  0  0  0
    2.4247   -0.8843   -0.6115 H   0  0  0  0  0  0  0  0  0  0  0  0
    8.7262   -0.3554    0.9387 H   0  0  0  0  0  0  0  0  0  0  0  0
    8.3488    0.1680    2.5091 H   0  0  0  0  0  0  0  0  0  0  0  0
    0.6656    2.3451   -1.1189 H   0  0  0  0  0  0  0  0  0  0  0  0
   -1.7826    2.5599   -1.2436 H   0  0  0  0  0  0  0  0  0  0  0  0
  1  2  1  0
  2  3  1  0
  3  4  1  0
  4  5  2  0
  4  6  1  0
  6  7  2  0
  7  8  1  0
  8  9  2  0
  9 10  1  0
 10 11  1  0
 11 12  1  0
 12 13  2  0
 13 14  1  0
 14 15  2  0
 15 16  1  0
 15 17  1  0
  9 18  1  0
 18 19  2  0
 19  6  1  0
 17 12  1  0
  1 20  1  0
  1 21  1  0
  1 22  1  0
  2 23  1  0
  2 24  1  0
  7 25  1  0
  8 26  1  0
 10 27  1  0
 10 28  1  0
 16 29  1  0
 16 30  1  0
 18 31  1  0
 19 32  1  0
M  END
$$$$
