
     RDKit          3D

 43 45  0  0  0  0  0  0  0  0999 V2000
   -3.8117    1.4266    0.3627 C   0  0  0  0  0  0  0  0  0  0  0  0
   -3.1947    1.9629   -0.9205 C   0  0  0  0  0  0  0  0  0  0  0  0
   -3.1645    0.9391   -2.0584 C   0  0  0  0  0  0  0  0  0  0  0  0
   -1.9351    0.0228   -2.0710 C   0  0  0  0  0  0  0  0  0  0  0  0
   -1.8049   -0.8546   -0.9099 N   0  0  0  0  0  0  0  0  0  0  0  0
   -2.5102   -2.0615   -0.7491 C   0  0  0  0  0  0  0  0  0  0  0  0
   -3.8611   -2.6180   -1.5258 S   0  0  0  0  0  0  0  0  0  0  0  0
   -1.8709   -2.8071    0.2280 N   0  0  0  0  0  0  0  0  0  0  0  0
   -0.7897   -2.0765    0.8249 C   0  0  0  0  0  0  0  0  0  0  0  0
   -0.5325   -0.9438   -0.1756 C   0  0  0  0  0  0  0  0  0  0  0  0
   -0.0976    0.3624    0.5048 C   0  0  0  0  0  0  0  0  0  0  0  0
    1.2475    0.2503    1.1993 C   0  0  0  0  0  0  0  0  0  0  0  0
    1.2510    0.1006    2.5982 C   0  0  0  0  0  0  0  0  0  0  0  0
    2.4442   -0.0399    3.2968 C   0  0  0  0  0  0  0  0  0  0  0  0
    3.6537   -0.0325    2.6095 C   0  0  0  0  0  0  0  0  0  0  0  0
    3.6897    0.1225    1.2165 C   0  0  0  0  0  0  0  0  0  0  0  0
    4.9237    0.1318    0.5454 C   0  0  0  0  0  0  0  0  0  0  0  0
    4.9885    0.2904   -0.8372 C   0  0  0  0  0  0  0  0  0  0  0  0
    3.8182    0.4451   -1.5667 C   0  0  0  0  0  0  0  0  0  0  0  0
    2.5831    0.4375   -0.9134 C   0  0  0  0  0  0  0  0  0  0  0  0
    2.4815    0.2714    0.4879 C   0  0  0  0  0  0  0  0  0  0  0  0
   -3.8587    2.2206    1.1150 H   0  0  0  0  0  0  0  0  0  0  0  0
   -3.2332    0.6036    0.7865 H   0  0  0  0  0  0  0  0  0  0  0  0
   -4.8321    1.0712    0.1865 H   0  0  0  0  0  0  0  0  0  0  0  0
   -3.8020    2.8169   -1.2455 H   0  0  0  0  0  0  0  0  0  0  0  0
   -2.1905    2.3527   -0.7231 H   0  0  0  0  0  0  0  0  0  0  0  0
   -4.0932    0.3605   -2.0623 H   0  0  0  0  0  0  0  0  0  0  0  0
   -3.1522    1.4962   -3.0044 H   0  0  0  0  0  0  0  0  0  0  0  0
   -1.9641   -0.6084   -2.9671 H   0  0  0  0  0  0  0  0  0  0  0  0
   -1.0318    0.6364   -2.1543 H   0  0  0  0  0  0  0  0  0  0  0  0
   -2.2730   -3.6662    0.5827 H   0  0  0  0  0  0  0  0  0  0  0  0
    0.0750   -2.7306    0.9638 H   0  0  0  0  0  0  0  0  0  0  0  0
   -1.1416   -1.7163    1.7968 H   0  0  0  0  0  0  0  0  0  0  0  0
    0.2155   -1.2817   -0.9044 H   0  0  0  0  0  0  0  0  0  0  0  0
   -0.0528    1.1895   -0.2122 H   0  0  0  0  0  0  0  0  0  0  0  0
   -0.8615    0.6746    1.2289 H   0  0  0  0  0  0  0  0  0  0  0  0
    0.3161    0.0931    3.1557 H   0  0  0  0  0  0  0  0  0  0  0  0
    2.4339   -0.1546    4.3777 H   0  0  0  0  0  0  0  0  0  0  0  0
    4.5765   -0.1446    3.1750 H   0  0  0  0  0  0  0  0  0  0  0  0
    5.8525    0.0165    1.1005 H   0  0  0  0  0  0  0  0  0  0  0  0
    5.9516    0.2964   -1.3404 H   0  0  0  0  0  0  0  0  0  0  0  0
    3.8618    0.5745   -2.6451 H   0  0  0  0  0  0  0  0  0  0  0  0
    1.6955    0.5706   -1.5259 H   0  0  0  0  0  0  0  0  0  0  0  0
  1  2  1  0
  2  3  1  0
  3  4  1  0
  4  5  1  0
  5  6  1  0
  6  7  2  0
  6  8  1  0
  8  9  1  0
  9 10  1  0
 10 11  1  0
 11 12  1  0
 12 13  2  0
 13 14  1  0
 14 15  2  0
 15 16  1  0
 16 17  2  0
 17 18  1  0
 18 19  2  0
 19 20  1  0
 20 21  2  0
 10  5  1  0
 21 12  1  0
 21 16  1  0
  1 22  1  0
  1 23  1  0
  1 24  1  0
  2 25  1  0
  2 26  1  0
  3 27  1  0
  3 28  1  0
  4 29  1  0
  4 30  1  0
  8 31  1  0
  9 32  1  0
  9 33  1  0
 10 34  1  0
 11 35  1  0
 11 36  1  0
 13 37  1  0
 14 38  1  0
 15 39  1  0
 17 40  1  0
 18 41  1  0
 19 42  1  0
 20 43  1  0
M  END
$$$$
