
     RDKit          3D

 40 42  0  0  0  0  0  0  0  0999 V2000
   -2.0307   -0.7138    1.8266 O   0  0  0  0  0  0  0  0  0  0  0  0
   -1.4396   -0.7942    0.7492 C   0  0  0  0  0  0  0  0  0  0  0  0
   -2.1746   -0.7652   -0.5888 C   0  0  0  0  0  0  0  0  0  0  0  0
   -3.6087   -0.2933   -0.5006 C   0  0  0  0  0  0  0  0  0  0  0  0
   -4.6456   -1.2079   -0.2650 C   0  0  0  0  0  0  0  0  0  0  0  0
   -5.9689   -0.7706   -0.1751 C   0  0  0  0  0  0  0  0  0  0  0  0
   -6.2598    0.5845   -0.3147 C   0  0  0  0  0  0  0  0  0  0  0  0
   -8.0510    1.1773   -0.1928 Br  0  0  0  0  0  0  0  0  0  0  0  0
   -5.2402    1.5069   -0.5392 C   0  0  0  0  0  0  0  0  0  0  0  0
   -3.9170    1.0691   -0.6285 C   0  0  0  0  0  0  0  0  0  0  0  0
   -0.0587   -0.9372    0.6919 N   0  0  0  0  0  0  0  0  0  0  0  0
    0.7217   -0.9121    1.9356 C   0  0  0  0  0  0  0  0  0  0  0  0
    2.0650   -0.1797    1.7595 C   0  0  0  0  0  0  0  0  0  0  0  0
    2.8739   -0.7351    0.6446 N   0  0  0  0  0  0  0  0  0  0  0  0
    3.6519    0.2521    0.0089 C   0  0  0  0  0  0  0  0  0  0  0  0
    4.5879    0.9746    0.7539 C   0  0  0  0  0  0  0  0  0  0  0  0
    5.3634    1.9551    0.1377 C   0  0  0  0  0  0  0  0  0  0  0  0
    5.1952    2.1962   -1.2162 C   0  0  0  0  0  0  0  0  0  0  0  0
    4.2584    1.4385   -1.8927 C   0  0  0  0  0  0  0  0  0  0  0  0
    3.4951    0.4837   -1.3134 N   0  0  0  0  0  0  0  0  0  0  0  0
    2.1412   -1.6203   -0.2839 C   0  0  0  0  0  0  0  0  0  0  0  0
    0.7139   -1.1137   -0.5494 C   0  0  0  0  0  0  0  0  0  0  0  0
   -2.1539   -1.7760   -1.0137 H   0  0  0  0  0  0  0  0  0  0  0  0
   -1.6411   -0.1090   -1.2861 H   0  0  0  0  0  0  0  0  0  0  0  0
   -4.4272   -2.2660   -0.1381 H   0  0  0  0  0  0  0  0  0  0  0  0
   -6.7598   -1.4918    0.0113 H   0  0  0  0  0  0  0  0  0  0  0  0
   -5.4624    2.5657   -0.6393 H   0  0  0  0  0  0  0  0  0  0  0  0
   -3.1277    1.7995   -0.7923 H   0  0  0  0  0  0  0  0  0  0  0  0
    0.8926   -1.9558    2.2259 H   0  0  0  0  0  0  0  0  0  0  0  0
    0.1502   -0.4384    2.7406 H   0  0  0  0  0  0  0  0  0  0  0  0
    1.8398    0.8816    1.5836 H   0  0  0  0  0  0  0  0  0  0  0  0
    2.6386   -0.2520    2.6906 H   0  0  0  0  0  0  0  0  0  0  0  0
    4.7303    0.7627    1.8082 H   0  0  0  0  0  0  0  0  0  0  0  0
    6.0948    2.5155    0.7123 H   0  0  0  0  0  0  0  0  0  0  0  0
    5.7815    2.9477   -1.7319 H   0  0  0  0  0  0  0  0  0  0  0  0
    4.0889    1.5805   -2.9561 H   0  0  0  0  0  0  0  0  0  0  0  0
    2.0801   -2.6091    0.1899 H   0  0  0  0  0  0  0  0  0  0  0  0
    2.6783   -1.7895   -1.2252 H   0  0  0  0  0  0  0  0  0  0  0  0
    0.7365   -0.1410   -1.0534 H   0  0  0  0  0  0  0  0  0  0  0  0
    0.1876   -1.8196   -1.1995 H   0  0  0  0  0  0  0  0  0  0  0  0
  1  2  2  0
  2  3  1  0
  3  4  1  0
  4  5  2  0
  5  6  1  0
  6  7  2  0
  7  8  1  0
  7  9  1  0
  9 10  2  0
  2 11  1  0
 11 12  1  0
 12 13  1  0
 13 14  1  0
 14 15  1  0
 15 16  2  0
 16 17  1  0
 17 18  2  0
 18 19  1  0
 19 20  2  0
 14 21  1  0
 21 22  1  0
 10  4  1  0
 22 11  1  0
 20 15  1  0
  3 23  1  0
  3 24  1  0
  5 25  1  0
  6 26  1  0
  9 27  1  0
 10 28  1  0
 12 29  1  0
 12 30  1  0
 13 31  1  0
 13 32  1  0
 16 33  1  0
 17 34  1  0
 18 35  1  0
 19 36  1  0
 21 37  1  0
 21 38  1  0
 22 39  1  0
 22 40  1  0
M  END
$$$$
