
     RDKit          3D

 62 64  0  0  0  0  0  0  0  0999 V2000
    8.1287    4.4220    2.2708 C   0  0  0  0  0  0  0  0  0  0  0  0
    7.9179    3.1812    1.6045 O   0  0  0  0  0  0  0  0  0  0  0  0
    6.6632    2.9532    1.1090 C   0  0  0  0  0  0  0  0  0  0  0  0
    5.5538    3.7833    1.2652 C   0  0  0  0  0  0  0  0  0  0  0  0
    4.3197    3.4224    0.7104 C   0  0  0  0  0  0  0  0  0  0  0  0
    4.1802    2.2311   -0.0121 C   0  0  0  0  0  0  0  0  0  0  0  0
    2.8442    1.8384   -0.5932 C   0  0  0  0  0  0  0  0  0  0  0  0
    2.1895    0.7178    0.2102 C   0  0  0  0  0  0  0  0  0  0  0  0
    0.8418    0.3330   -0.3700 C   0  0  0  0  0  0  0  0  0  0  0  0
    0.1723    1.1137   -1.0377 O   0  0  0  0  0  0  0  0  0  0  0  0
    0.4685   -0.9417    0.0015 N   0  0  0  0  0  0  0  0  0  0  0  0
   -0.6909   -1.6536   -0.3638 C   0  0  0  0  0  0  0  0  0  0  0  0
   -1.6076   -1.2084   -1.3129 C   0  0  0  0  0  0  0  0  0  0  0  0
   -2.7502   -1.9693   -1.5706 C   0  0  0  0  0  0  0  0  0  0  0  0
   -3.9270   -1.4029   -2.7832 S   0  0  0  0  0  6  0  0  0  0  0  0
   -3.1918   -0.7122   -3.8190 O   0  0  0  0  0  0  0  0  0  0  0  0
   -4.7820   -2.5280   -3.1012 O   0  0  0  0  0  0  0  0  0  0  0  0
   -4.8564   -0.2719   -1.9233 N   0  0  0  0  0  0  0  0  0  0  0  0
   -5.7871   -0.8089   -0.9051 C   0  0  0  0  0  0  0  0  0  0  0  0
   -6.5657    0.3248   -0.2452 C   0  0  0  0  0  0  0  0  0  0  0  0
   -5.6424    1.3186    0.4593 C   0  0  0  0  0  0  0  0  0  0  0  0
   -4.2333    1.3267   -0.1317 C   0  0  0  0  0  0  0  0  0  0  0  0
   -4.2555    1.0526   -1.6299 C   0  0  0  0  0  0  0  0  0  0  0  0
   -2.9556   -3.1954   -0.9301 C   0  0  0  0  0  0  0  0  0  0  0  0
   -2.0235   -3.6552   -0.0005 C   0  0  0  0  0  0  0  0  0  0  0  0
   -0.8853   -2.8929    0.2985 C   0  0  0  0  0  0  0  0  0  0  0  0
    0.1102   -3.3212    1.2237 N   0  0  0  0  0  0  0  0  0  0  0  0
    0.9492   -4.3681    0.6220 C   0  0  0  0  0  0  0  0  0  0  0  0
   -0.4423   -3.6880    2.5313 C   0  0  0  0  0  0  0  0  0  0  0  0
    5.2960    1.4019   -0.1658 C   0  0  0  0  0  0  0  0  0  0  0  0
    6.5249    1.7616    0.3934 C   0  0  0  0  0  0  0  0  0  0  0  0
    9.1754    4.4556    2.5889 H   0  0  0  0  0  0  0  0  0  0  0  0
    7.5054    4.5023    3.1694 H   0  0  0  0  0  0  0  0  0  0  0  0
    7.9583    5.2677    1.5936 H   0  0  0  0  0  0  0  0  0  0  0  0
    5.6116    4.7181    1.8147 H   0  0  0  0  0  0  0  0  0  0  0  0
    3.4651    4.0813    0.8476 H   0  0  0  0  0  0  0  0  0  0  0  0
    2.1853    2.7137   -0.6343 H   0  0  0  0  0  0  0  0  0  0  0  0
    2.9826    1.5287   -1.6363 H   0  0  0  0  0  0  0  0  0  0  0  0
    2.0265    1.0344    1.2461 H   0  0  0  0  0  0  0  0  0  0  0  0
    2.8429   -0.1647    0.2324 H   0  0  0  0  0  0  0  0  0  0  0  0
    1.0233   -1.4418    0.6954 H   0  0  0  0  0  0  0  0  0  0  0  0
   -1.4439   -0.2873   -1.8615 H   0  0  0  0  0  0  0  0  0  0  0  0
   -5.2395   -1.3745   -0.1426 H   0  0  0  0  0  0  0  0  0  0  0  0
   -6.5014   -1.4845   -1.3887 H   0  0  0  0  0  0  0  0  0  0  0  0
   -7.1451    0.8584   -1.0111 H   0  0  0  0  0  0  0  0  0  0  0  0
   -7.2916   -0.0787    0.4696 H   0  0  0  0  0  0  0  0  0  0  0  0
   -6.0795    2.3221    0.3825 H   0  0  0  0  0  0  0  0  0  0  0  0
   -5.5843    1.0842    1.5280 H   0  0  0  0  0  0  0  0  0  0  0  0
   -3.6265    0.5628    0.3727 H   0  0  0  0  0  0  0  0  0  0  0  0
   -3.7558    2.2906    0.0733 H   0  0  0  0  0  0  0  0  0  0  0  0
   -4.8504    1.8136   -2.1484 H   0  0  0  0  0  0  0  0  0  0  0  0
   -3.2414    1.1345   -2.0282 H   0  0  0  0  0  0  0  0  0  0  0  0
   -3.8312   -3.8012   -1.1574 H   0  0  0  0  0  0  0  0  0  0  0  0
   -2.1872   -4.6197    0.4719 H   0  0  0  0  0  0  0  0  0  0  0  0
    1.7776   -4.6075    1.2989 H   0  0  0  0  0  0  0  0  0  0  0  0
    1.3884   -4.0235   -0.3222 H   0  0  0  0  0  0  0  0  0  0  0  0
    0.3843   -5.2894    0.4359 H   0  0  0  0  0  0  0  0  0  0  0  0
   -0.9852   -4.6387    2.4999 H   0  0  0  0  0  0  0  0  0  0  0  0
   -1.1083   -2.9070    2.9136 H   0  0  0  0  0  0  0  0  0  0  0  0
    0.3775   -3.7915    3.2510 H   0  0  0  0  0  0  0  0  0  0  0  0
    5.2188    0.4696   -0.7211 H   0  0  0  0  0  0  0  0  0  0  0  0
    7.3848    1.1080    0.2654 H   0  0  0  0  0  0  0  0  0  0  0  0
  1  2  1  0
  2  3  1  0
  3  4  2  0
  4  5  1  0
  5  6  2  0
  6  7  1  0
  7  8  1  0
  8  9  1  0
  9 10  2  0
  9 11  1  0
 11 12  1  0
 12 13  2  0
 13 14  1  0
 14 15  1  0
 15 16  2  0
 15 17  2  0
 15 18  1  0
 18 19  1  0
 19 20  1  0
 20 21  1  0
 21 22  1  0
 22 23  1  0
 14 24  2  0
 24 25  1  0
 25 26  2  0
 26 27  1  0
 27 28  1  0
 27 29  1  0
  6 30  1  0
 30 31  2  0
 31  3  1  0
 26 12  1  0
 23 18  1  0
  1 32  1  0
  1 33  1  0
  1 34  1  0
  4 35  1  0
  5 36  1  0
  7 37  1  0
  7 38  1  0
  8 39  1  0
  8 40  1  0
 11 41  1  0
 13 42  1  0
 19 43  1  0
 19 44  1  0
 20 45  1  0
 20 46  1  0
 21 47  1  0
 21 48  1  0
 22 49  1  0
 22 50  1  0
 23 51  1  0
 23 52  1  0
 24 53  1  0
 25 54  1  0
 28 55  1  0
 28 56  1  0
 28 57  1  0
 29 58  1  0
 29 59  1  0
 29 60  1  0
 30 61  1  0
 31 62  1  0
M  END
$$$$
