
     RDKit          3D

 30 31  0  0  0  0  0  0  0  0999 V2000
    0.1995    1.1052   -2.7361 C   0  0  0  0  0  0  0  0  0  0  0  0
    0.4744    0.5480   -1.4538 O   0  0  0  0  0  0  0  0  0  0  0  0
   -0.5752    0.0453   -0.7252 C   0  0  0  0  0  0  0  0  0  0  0  0
   -1.9053    0.0726   -1.1783 C   0  0  0  0  0  0  0  0  0  0  0  0
   -2.9510   -0.4424   -0.4011 C   0  0  0  0  0  0  0  0  0  0  0  0
   -4.6120   -0.3861   -1.0522 S   0  0  0  0  0  0  0  0  0  0  0  0
   -5.4892    0.3651    0.3463 C   0  0  0  0  0  0  0  0  0  0  0  0
   -2.6627   -1.0157    0.8342 C   0  0  0  0  0  0  0  0  0  0  0  0
   -1.3464   -1.0487    1.2988 C   0  0  0  0  0  0  0  0  0  0  0  0
   -0.2875   -0.5201    0.5358 C   0  0  0  0  0  0  0  0  0  0  0  0
    1.0876   -0.6148    1.1527 C   0  0  0  0  0  0  0  0  0  0  0  0
    1.1799   -1.0950    2.2786 O   0  0  0  0  0  0  0  0  0  0  0  0
    2.1297   -0.1498    0.3901 N   0  0  0  0  0  0  0  0  0  0  0  0
    3.4618   -0.1214    0.7064 C   0  0  0  0  0  0  0  0  0  0  0  0
    4.3455    0.3649   -0.1364 N   0  0  0  0  0  0  0  0  0  0  0  0
    5.6082    0.2779    0.4170 C   0  0  0  0  0  0  0  0  0  0  0  0
    5.6656   -0.2753    1.6770 C   0  0  0  0  0  0  0  0  0  0  0  0
    4.0854   -0.7000    2.1833 S   0  0  0  0  0  0  0  0  0  0  0  0
   -0.4550    1.9788   -2.6535 H   0  0  0  0  0  0  0  0  0  0  0  0
   -0.2200    0.3524   -3.4112 H   0  0  0  0  0  0  0  0  0  0  0  0
    1.1498    1.4410   -3.1622 H   0  0  0  0  0  0  0  0  0  0  0  0
   -2.1594    0.4979   -2.1449 H   0  0  0  0  0  0  0  0  0  0  0  0
   -5.0026    1.2959    0.6505 H   0  0  0  0  0  0  0  0  0  0  0  0
   -5.5309   -0.3212    1.1959 H   0  0  0  0  0  0  0  0  0  0  0  0
   -6.5139    0.5936    0.0410 H   0  0  0  0  0  0  0  0  0  0  0  0
   -3.4455   -1.4559    1.4463 H   0  0  0  0  0  0  0  0  0  0  0  0
   -1.1495   -1.5019    2.2702 H   0  0  0  0  0  0  0  0  0  0  0  0
    1.9295    0.2328   -0.5260 H   0  0  0  0  0  0  0  0  0  0  0  0
    6.4605    0.6362   -0.1470 H   0  0  0  0  0  0  0  0  0  0  0  0
    6.5287   -0.4454    2.3037 H   0  0  0  0  0  0  0  0  0  0  0  0
  1  2  1  0
  2  3  1  0
  3  4  2  0
  4  5  1  0
  5  6  1  0
  6  7  1  0
  5  8  2  0
  8  9  1  0
  9 10  2  0
 10 11  1  0
 11 12  2  0
 11 13  1  0
 13 14  1  0
 14 15  2  0
 15 16  1  0
 16 17  2  0
 17 18  1  0
 10  3  1  0
 18 14  1  0
  1 19  1  0
  1 20  1  0
  1 21  1  0
  4 22  1  0
  7 23  1  0
  7 24  1  0
  7 25  1  0
  8 26  1  0
  9 27  1  0
 13 28  1  0
 16 29  1  0
 17 30  1  0
M  END
$$$$
