
     RDKit          3D

 52 55  0  0  0  0  0  0  0  0999 V2000
    6.6296   -1.6601    3.5075 C   0  0  0  0  0  0  0  0  0  0  0  0
    5.4115   -1.3570    2.6826 C   0  0  0  0  0  0  0  0  0  0  0  0
    4.2856   -2.1939    2.7354 C   0  0  0  0  0  0  0  0  0  0  0  0
    3.1402   -1.9243    1.9781 C   0  0  0  0  0  0  0  0  0  0  0  0
    3.1791   -0.7926    1.1698 C   0  0  0  0  0  0  0  0  0  0  0  0
    2.1705   -0.3658    0.3696 O   0  0  0  0  0  0  0  0  0  0  0  0
    2.5801    0.7874   -0.2438 C   0  0  0  0  0  0  0  0  0  0  0  0
    1.7035    1.4664   -1.1917 C   0  0  0  0  0  0  0  0  0  0  0  0
    2.1638    2.2257   -2.0476 O   0  0  0  0  0  0  0  0  0  0  0  0
    0.3189    1.2476   -1.1302 N   0  0  0  0  0  0  0  0  0  0  0  0
   -0.3794    0.6402    0.0033 C   0  0  0  0  0  0  0  0  0  0  0  0
   -1.8016    1.1722    0.1520 C   0  0  0  0  0  0  0  0  0  0  0  0
   -2.6506    0.9844   -1.1299 C   0  0  0  0  0  0  0  0  0  0  0  0
   -3.4172    2.1985   -1.2860 O   0  0  0  0  0  0  0  0  0  0  0  0
   -3.6767   -0.1441   -0.9634 C   0  0  0  0  0  0  0  0  0  0  0  0
   -3.6728   -1.3247   -1.7177 C   0  0  0  0  0  0  0  0  0  0  0  0
   -4.6425   -2.3148   -1.5183 C   0  0  0  0  0  0  0  0  0  0  0  0
   -5.6390   -2.1458   -0.5585 C   0  0  0  0  0  0  0  0  0  0  0  0
   -5.6759   -0.9835    0.2176 C   0  0  0  0  0  0  0  0  0  0  0  0
   -6.7665   -0.7653    1.2388 C   0  0  0  0  0  0  0  0  0  0  0  0
   -7.2778   -1.9254    1.7393 F   0  0  0  0  0  0  0  0  0  0  0  0
   -7.8251   -0.0809    0.7260 F   0  0  0  0  0  0  0  0  0  0  0  0
   -6.3478   -0.0500    2.3185 F   0  0  0  0  0  0  0  0  0  0  0  0
   -4.7001    0.0053    0.0007 C   0  0  0  0  0  0  0  0  0  0  0  0
   -1.7568    0.9005   -2.3857 C   0  0  0  0  0  0  0  0  0  0  0  0
   -0.5131    1.7648   -2.2143 C   0  0  0  0  0  0  0  0  0  0  0  0
    3.8863    1.0785    0.1425 C   0  0  0  0  0  0  0  0  0  0  0  0
    4.7047    2.2308   -0.3158 C   0  0  0  0  0  0  0  0  0  0  0  0
    4.2647    0.0655    1.0762 C   0  0  0  0  0  0  0  0  0  0  0  0
    5.4068   -0.2203    1.8504 C   0  0  0  0  0  0  0  0  0  0  0  0
    7.4964   -1.8101    2.8579 H   0  0  0  0  0  0  0  0  0  0  0  0
    6.4963   -2.5681    4.1040 H   0  0  0  0  0  0  0  0  0  0  0  0
    6.8346   -0.8332    4.1943 H   0  0  0  0  0  0  0  0  0  0  0  0
    4.2898   -3.0711    3.3789 H   0  0  0  0  0  0  0  0  0  0  0  0
    2.2648   -2.5580    2.0174 H   0  0  0  0  0  0  0  0  0  0  0  0
   -0.3936   -0.4423   -0.1581 H   0  0  0  0  0  0  0  0  0  0  0  0
    0.1660    0.8484    0.9296 H   0  0  0  0  0  0  0  0  0  0  0  0
   -1.7444    2.2407    0.4017 H   0  0  0  0  0  0  0  0  0  0  0  0
   -2.2620    0.6923    1.0233 H   0  0  0  0  0  0  0  0  0  0  0  0
   -4.1719    1.9953   -1.8686 H   0  0  0  0  0  0  0  0  0  0  0  0
   -2.9282   -1.5110   -2.4846 H   0  0  0  0  0  0  0  0  0  0  0  0
   -4.6192   -3.2218   -2.1210 H   0  0  0  0  0  0  0  0  0  0  0  0
   -6.3884   -2.9233   -0.4202 H   0  0  0  0  0  0  0  0  0  0  0  0
   -4.7387    0.9221    0.5972 H   0  0  0  0  0  0  0  0  0  0  0  0
   -1.4057   -0.1203   -2.5690 H   0  0  0  0  0  0  0  0  0  0  0  0
   -2.3092    1.2255   -3.2756 H   0  0  0  0  0  0  0  0  0  0  0  0
    0.0590    1.7743   -3.1479 H   0  0  0  0  0  0  0  0  0  0  0  0
   -0.7744    2.8024   -1.9753 H   0  0  0  0  0  0  0  0  0  0  0  0
    4.7799    2.2459   -1.4101 H   0  0  0  0  0  0  0  0  0  0  0  0
    5.7218    2.1904    0.0859 H   0  0  0  0  0  0  0  0  0  0  0  0
    4.2491    3.1696    0.0178 H   0  0  0  0  0  0  0  0  0  0  0  0
    6.2758    0.4327    1.8074 H   0  0  0  0  0  0  0  0  0  0  0  0
  1  2  1  0
  2  3  2  0
  3  4  1  0
  4  5  2  0
  5  6  1  0
  6  7  1  0
  7  8  1  0
  8  9  2  0
  8 10  1  0
 10 11  1  0
 11 12  1  0
 12 13  1  0
 13 14  1  0
 13 15  1  0
 15 16  2  0
 16 17  1  0
 17 18  2  0
 18 19  1  0
 19 20  1  0
 20 21  1  0
 20 22  1  0
 20 23  1  0
 19 24  2  0
 13 25  1  0
 25 26  1  0
  7 27  2  0
 27 28  1  0
 27 29  1  0
 29 30  2  0
 30  2  1  0
 29  5  1  0
 26 10  1  0
 24 15  1  0
  1 31  1  0
  1 32  1  0
  1 33  1  0
  3 34  1  0
  4 35  1  0
 11 36  1  0
 11 37  1  0
 12 38  1  0
 12 39  1  0
 14 40  1  0
 16 41  1  0
 17 42  1  0
 18 43  1  0
 24 44  1  0
 25 45  1  0
 25 46  1  0
 26 47  1  0
 26 48  1  0
 28 49  1  0
 28 50  1  0
 28 51  1  0
 30 52  1  0
M  END
$$$$
