
     RDKit          3D

 55 57  0  0  0  0  0  0  0  0999 V2000
   -7.9349    0.2336   -1.1799 C   0  0  0  0  0  0  0  0  0  0  0  0
   -6.7058   -0.2230   -0.4504 C   0  0  0  0  0  0  0  0  0  0  0  0
   -6.7078   -1.4339    0.2471 C   0  0  0  0  0  0  0  0  0  0  0  0
   -5.5789   -1.8451    0.9595 C   0  0  0  0  0  0  0  0  0  0  0  0
   -4.4199   -1.0549    0.9928 C   0  0  0  0  0  0  0  0  0  0  0  0
   -3.2264   -1.5418    1.7675 C   0  0  0  0  0  0  0  0  0  0  0  0
   -4.4246    0.1754    0.3099 C   0  0  0  0  0  0  0  0  0  0  0  0
   -3.2360    1.0711    0.3378 C   0  0  0  0  0  0  0  0  0  0  0  0
   -2.6444    1.2784    1.3956 O   0  0  0  0  0  0  0  0  0  0  0  0
   -2.8092    1.7032   -0.9845 C   0  0  0  0  0  0  0  0  0  0  0  0
   -1.4416    2.1170   -0.9628 O   0  0  0  0  0  0  0  0  0  0  0  0
   -0.5569    1.0911   -1.0205 C   0  0  0  0  0  0  0  0  0  0  0  0
   -0.8400   -0.0849   -1.1865 O   0  0  0  0  0  0  0  0  0  0  0  0
    0.8364    1.5858   -0.8660 C   0  0  0  0  0  0  0  0  0  0  0  0
    1.1296    2.9030   -0.5034 C   0  0  0  0  0  0  0  0  0  0  0  0
    2.4588    3.3149   -0.3621 C   0  0  0  0  0  0  0  0  0  0  0  0
    3.5265    2.4244   -0.5729 C   0  0  0  0  0  0  0  0  0  0  0  0
    4.9268    2.9476   -0.4197 C   0  0  0  0  0  0  0  0  0  0  0  0
    3.2215    1.0939   -0.9106 C   0  0  0  0  0  0  0  0  0  0  0  0
    4.4619   -0.1659   -1.1605 S   0  0  0  0  0  6  0  0  0  0  0  0
    4.3766   -0.5611   -2.5497 O   0  0  0  0  0  0  0  0  0  0  0  0
    5.7201    0.2425   -0.5754 O   0  0  0  0  0  0  0  0  0  0  0  0
    3.8894   -1.4615   -0.2023 N   0  0  0  0  0  0  0  0  0  0  0  0
    3.7898   -1.1743    1.2693 C   0  0  0  0  0  0  0  0  0  0  0  0
    3.7149   -2.4819    2.0636 C   0  0  0  0  0  0  0  0  0  0  0  0
    4.8940   -3.2875    1.9280 O   0  0  0  0  0  0  0  0  0  0  0  0
    5.5509   -3.1203    0.6628 C   0  0  0  0  0  0  0  0  0  0  0  0
    4.5857   -2.7659   -0.4715 C   0  0  0  0  0  0  0  0  0  0  0  0
    1.8852    0.6848   -1.0706 C   0  0  0  0  0  0  0  0  0  0  0  0
   -5.5639    0.5864   -0.4020 C   0  0  0  0  0  0  0  0  0  0  0  0
   -8.5801    0.8042   -0.5048 H   0  0  0  0  0  0  0  0  0  0  0  0
   -7.6701    0.8645   -2.0350 H   0  0  0  0  0  0  0  0  0  0  0  0
   -8.4976   -0.6212   -1.5698 H   0  0  0  0  0  0  0  0  0  0  0  0
   -7.5920   -2.0687    0.2446 H   0  0  0  0  0  0  0  0  0  0  0  0
   -5.6109   -2.7942    1.4920 H   0  0  0  0  0  0  0  0  0  0  0  0
   -2.3098   -1.4375    1.1781 H   0  0  0  0  0  0  0  0  0  0  0  0
   -3.3222   -2.6045    2.0168 H   0  0  0  0  0  0  0  0  0  0  0  0
   -3.1295   -0.9857    2.7047 H   0  0  0  0  0  0  0  0  0  0  0  0
   -2.9878    1.0239   -1.8259 H   0  0  0  0  0  0  0  0  0  0  0  0
   -3.4111    2.6045   -1.1388 H   0  0  0  0  0  0  0  0  0  0  0  0
    0.3347    3.6231   -0.3226 H   0  0  0  0  0  0  0  0  0  0  0  0
    2.6545    4.3505   -0.0852 H   0  0  0  0  0  0  0  0  0  0  0  0
    4.9364    4.0401   -0.3331 H   0  0  0  0  0  0  0  0  0  0  0  0
    5.3879    2.5458    0.4875 H   0  0  0  0  0  0  0  0  0  0  0  0
    5.5310    2.7020   -1.2984 H   0  0  0  0  0  0  0  0  0  0  0  0
    4.6627   -0.6029    1.6029 H   0  0  0  0  0  0  0  0  0  0  0  0
    2.8872   -0.5859    1.4579 H   0  0  0  0  0  0  0  0  0  0  0  0
    3.5845   -2.2701    3.1297 H   0  0  0  0  0  0  0  0  0  0  0  0
    2.8564   -3.0827    1.7414 H   0  0  0  0  0  0  0  0  0  0  0  0
    6.3164   -2.3449    0.7803 H   0  0  0  0  0  0  0  0  0  0  0  0
    6.0679   -4.0587    0.4388 H   0  0  0  0  0  0  0  0  0  0  0  0
    5.1249   -2.7437   -1.4234 H   0  0  0  0  0  0  0  0  0  0  0  0
    3.8068   -3.5322   -0.5609 H   0  0  0  0  0  0  0  0  0  0  0  0
    1.6638   -0.3452   -1.3518 H   0  0  0  0  0  0  0  0  0  0  0  0
   -5.5816    1.5488   -0.9078 H   0  0  0  0  0  0  0  0  0  0  0  0
  1  2  1  0
  2  3  2  0
  3  4  1  0
  4  5  2  0
  5  6  1  0
  5  7  1  0
  7  8  1  0
  8  9  2  0
  8 10  1  0
 10 11  1  0
 11 12  1  0
 12 13  2  0
 12 14  1  0
 14 15  2  0
 15 16  1  0
 16 17  2  0
 17 18  1  0
 17 19  1  0
 19 20  1  0
 20 21  2  0
 20 22  2  0
 20 23  1  0
 23 24  1  0
 24 25  1  0
 25 26  1  0
 26 27  1  0
 27 28  1  0
 19 29  2  0
  7 30  2  0
 30  2  1  0
 29 14  1  0
 28 23  1  0
  1 31  1  0
  1 32  1  0
  1 33  1  0
  3 34  1  0
  4 35  1  0
  6 36  1  0
  6 37  1  0
  6 38  1  0
 10 39  1  0
 10 40  1  0
 15 41  1  0
 16 42  1  0
 18 43  1  0
 18 44  1  0
 18 45  1  0
 24 46  1  0
 24 47  1  0
 25 48  1  0
 25 49  1  0
 27 50  1  0
 27 51  1  0
 28 52  1  0
 28 53  1  0
 29 54  1  0
 30 55  1  0
M  END
$$$$
