
     RDKit          3D

 51 53  0  0  0  0  0  0  0  0999 V2000
   -6.0785    0.5576   -1.1912 C   0  0  0  0  0  0  0  0  0  0  0  0
   -4.9321    1.3420   -0.8975 O   0  0  0  0  0  0  0  0  0  0  0  0
   -3.8352    0.7013   -0.3763 C   0  0  0  0  0  0  0  0  0  0  0  0
   -3.7573   -0.6764   -0.1492 C   0  0  0  0  0  0  0  0  0  0  0  0
   -2.5944   -1.2528    0.3870 C   0  0  0  0  0  0  0  0  0  0  0  0
   -1.4749   -0.4505    0.6707 C   0  0  0  0  0  0  0  0  0  0  0  0
   -1.5754    0.9404    0.4718 C   0  0  0  0  0  0  0  0  0  0  0  0
   -2.7333    1.5176   -0.0627 C   0  0  0  0  0  0  0  0  0  0  0  0
   -2.8875    2.8611   -0.3022 O   0  0  0  0  0  0  0  0  0  0  0  0
   -1.7416    3.6898   -0.1642 C   0  0  0  0  0  0  0  0  0  0  0  0
   -0.1997   -1.0606    1.2635 C   0  0  0  0  0  0  0  0  0  0  0  0
    1.0964   -0.5035    0.6716 C   0  0  0  0  0  0  0  0  0  0  0  0
    1.2709   -0.3812   -0.7213 C   0  0  0  0  0  0  0  0  0  0  0  0
    2.4554    0.1318   -1.2529 C   0  0  0  0  0  0  0  0  0  0  0  0
    2.6972    0.3028   -2.5918 O   0  0  0  0  0  0  0  0  0  0  0  0
    1.5720    0.2687   -3.4598 C   0  0  0  0  0  0  0  0  0  0  0  0
    3.4964    0.4805   -0.3771 C   0  0  0  0  0  0  0  0  0  0  0  0
    4.6563    1.0203   -0.8908 O   0  0  0  0  0  0  0  0  0  0  0  0
    5.5937   -0.0212   -1.1575 C   0  0  0  0  0  0  0  0  0  0  0  0
    3.3513    0.3622    1.0157 C   0  0  0  0  0  0  0  0  0  0  0  0
    4.4268    0.7497    1.7728 O   0  0  0  0  0  0  0  0  0  0  0  0
    4.2917    0.6880    3.1854 C   0  0  0  0  0  0  0  0  0  0  0  0
    2.1520   -0.1388    1.5280 C   0  0  0  0  0  0  0  0  0  0  0  0
   -0.1448   -2.5324    1.1735 N   0  0  0  0  0  0  0  0  0  0  0  0
   -1.4172   -3.1243    1.5860 C   0  0  0  0  0  0  0  0  0  0  0  0
   -2.5431   -2.7416    0.6235 C   0  0  0  0  0  0  0  0  0  0  0  0
   -6.8525    1.2279   -1.5772 H   0  0  0  0  0  0  0  0  0  0  0  0
   -6.4733    0.0799   -0.2885 H   0  0  0  0  0  0  0  0  0  0  0  0
   -5.8620   -0.1819   -1.9692 H   0  0  0  0  0  0  0  0  0  0  0  0
   -4.5937   -1.3293   -0.3777 H   0  0  0  0  0  0  0  0  0  0  0  0
   -0.7265    1.5618    0.7415 H   0  0  0  0  0  0  0  0  0  0  0  0
   -0.9252    3.3526   -0.8116 H   0  0  0  0  0  0  0  0  0  0  0  0
   -2.0199    4.7000   -0.4799 H   0  0  0  0  0  0  0  0  0  0  0  0
   -1.4220    3.7457    0.8814 H   0  0  0  0  0  0  0  0  0  0  0  0
   -0.2245   -0.7988    2.3311 H   0  0  0  0  0  0  0  0  0  0  0  0
    0.4594   -0.6911   -1.3728 H   0  0  0  0  0  0  0  0  0  0  0  0
    1.1772   -0.7487   -3.5459 H   0  0  0  0  0  0  0  0  0  0  0  0
    0.7942    0.9691   -3.1369 H   0  0  0  0  0  0  0  0  0  0  0  0
    1.9076    0.5793   -4.4539 H   0  0  0  0  0  0  0  0  0  0  0  0
    6.4997    0.4402   -1.5617 H   0  0  0  0  0  0  0  0  0  0  0  0
    5.2104   -0.7230   -1.9062 H   0  0  0  0  0  0  0  0  0  0  0  0
    5.8682   -0.5569   -0.2422 H   0  0  0  0  0  0  0  0  0  0  0  0
    3.4792    1.3338    3.5345 H   0  0  0  0  0  0  0  0  0  0  0  0
    5.2224    1.0576    3.6267 H   0  0  0  0  0  0  0  0  0  0  0  0
    4.1512   -0.3440    3.5230 H   0  0  0  0  0  0  0  0  0  0  0  0
    2.0109   -0.2646    2.5971 H   0  0  0  0  0  0  0  0  0  0  0  0
    0.0386   -2.7813    0.2024 H   0  0  0  0  0  0  0  0  0  0  0  0
   -1.6596   -2.8152    2.6109 H   0  0  0  0  0  0  0  0  0  0  0  0
   -1.3145   -4.2149    1.6060 H   0  0  0  0  0  0  0  0  0  0  0  0
   -3.4965   -3.0885    1.0391 H   0  0  0  0  0  0  0  0  0  0  0  0
   -2.3940   -3.2402   -0.3424 H   0  0  0  0  0  0  0  0  0  0  0  0
  1  2  1  0
  2  3  1  0
  3  4  2  0
  4  5  1  0
  5  6  2  0
  6  7  1  0
  7  8  2  0
  8  9  1  0
  9 10  1  0
  6 11  1  0
 11 12  1  0
 12 13  2  0
 13 14  1  0
 14 15  1  0
 15 16  1  0
 14 17  2  0
 17 18  1  0
 18 19  1  0
 17 20  1  0
 20 21  1  0
 21 22  1  0
 20 23  2  0
 11 24  1  0
 24 25  1  0
 25 26  1  0
  8  3  1  0
 23 12  1  0
 26  5  1  0
  1 27  1  0
  1 28  1  0
  1 29  1  0
  4 30  1  0
  7 31  1  0
 10 32  1  0
 10 33  1  0
 10 34  1  0
 11 35  1  0
 13 36  1  0
 16 37  1  0
 16 38  1  0
 16 39  1  0
 19 40  1  0
 19 41  1  0
 19 42  1  0
 22 43  1  0
 22 44  1  0
 22 45  1  0
 23 46  1  0
 24 47  1  0
 25 48  1  0
 25 49  1  0
 26 50  1  0
 26 51  1  0
M  END
$$$$
