
     RDKit          3D

 40 43  0  0  0  0  0  0  0  0999 V2000
   -2.7530    2.5047    3.9082 C   0  0  0  0  0  0  0  0  0  0  0  0
   -3.6008    1.2892    3.8024 C   0  0  0  0  0  0  0  0  0  0  0  0
   -4.6460    1.1415    4.7088 N   0  0  0  0  0  0  0  0  0  0  0  0
   -5.3359    0.0370    4.4898 N   0  0  0  0  0  0  0  0  0  0  0  0
   -4.7617   -0.8340    3.1897 S   0  0  0  0  0  0  0  0  0  0  0  0
   -3.4719    0.2489    2.8879 C   0  0  0  0  0  0  0  0  0  0  0  0
   -2.5224    0.1182    1.8311 C   0  0  0  0  0  0  0  0  0  0  0  0
   -2.1944    1.1281    1.0441 N   0  0  0  0  0  0  0  0  0  0  0  0
   -1.1579    0.7311    0.2366 N   0  0  0  0  0  0  0  0  0  0  0  0
   -0.8529   -0.5059    0.5581 C   0  0  0  0  0  0  0  0  0  0  0  0
    0.4900   -1.3934   -0.0703 S   0  0  0  0  0  0  0  0  0  0  0  0
    1.1579   -0.1802   -1.2463 C   0  0  0  0  0  0  0  0  0  0  0  0
    2.3764   -0.7064   -1.9857 C   0  0  0  0  0  0  0  0  0  0  0  0
    2.8469   -1.8308   -1.8231 O   0  0  0  0  0  0  0  0  0  0  0  0
    3.0420    0.2027   -2.9742 C   0  0  0  0  0  0  0  0  0  0  0  0
    2.5743    1.4956   -3.2456 C   0  0  0  0  0  0  0  0  0  0  0  0
    3.2358    2.3031   -4.1801 C   0  0  0  0  0  0  0  0  0  0  0  0
    4.3678    1.8287   -4.8512 C   0  0  0  0  0  0  0  0  0  0  0  0
    5.0408    2.6593   -5.8069 C   0  0  0  0  0  0  0  0  0  0  0  0
    5.5821    3.3347   -6.5797 N   0  0  0  0  0  0  0  0  0  0  0  0
    4.8377    0.5404   -4.5843 C   0  0  0  0  0  0  0  0  0  0  0  0
    4.1781   -0.2668   -3.6515 C   0  0  0  0  0  0  0  0  0  0  0  0
   -1.7278   -0.9622    1.5115 N   0  0  0  0  0  0  0  0  0  0  0  0
   -1.6629   -2.2541    2.2448 C   0  0  0  0  0  0  0  0  0  0  0  0
   -1.4123   -3.5919    1.5793 C   0  0  0  0  0  0  0  0  0  0  0  0
   -2.7566   -3.2978    2.1556 C   0  0  0  0  0  0  0  0  0  0  0  0
   -1.6913    2.2389    3.9229 H   0  0  0  0  0  0  0  0  0  0  0  0
   -2.9733    3.0557    4.8281 H   0  0  0  0  0  0  0  0  0  0  0  0
   -2.9364    3.1729    3.0611 H   0  0  0  0  0  0  0  0  0  0  0  0
    1.4471    0.7167   -0.6896 H   0  0  0  0  0  0  0  0  0  0  0  0
    0.3805    0.0562   -1.9796 H   0  0  0  0  0  0  0  0  0  0  0  0
    1.6988    1.9072   -2.7501 H   0  0  0  0  0  0  0  0  0  0  0  0
    2.8594    3.3059   -4.3800 H   0  0  0  0  0  0  0  0  0  0  0  0
    5.7171    0.1533   -5.0966 H   0  0  0  0  0  0  0  0  0  0  0  0
    4.5590   -1.2691   -3.4564 H   0  0  0  0  0  0  0  0  0  0  0  0
   -1.1964   -2.1242    3.2195 H   0  0  0  0  0  0  0  0  0  0  0  0
   -1.3518   -3.6652    0.4992 H   0  0  0  0  0  0  0  0  0  0  0  0
   -0.7764   -4.3023    2.0972 H   0  0  0  0  0  0  0  0  0  0  0  0
   -3.5687   -3.1659    1.4487 H   0  0  0  0  0  0  0  0  0  0  0  0
   -3.0406   -3.8197    3.0633 H   0  0  0  0  0  0  0  0  0  0  0  0
  1  2  1  0
  2  3  1  0
  3  4  2  0
  4  5  1  0
  5  6  1  0
  6  7  1  0
  7  8  2  0
  8  9  1  0
  9 10  2  0
 10 11  1  0
 11 12  1  0
 12 13  1  0
 13 14  2  0
 13 15  1  0
 15 16  2  0
 16 17  1  0
 17 18  2  0
 18 19  1  0
 19 20  3  0
 18 21  1  0
 21 22  2  0
 10 23  1  0
 23 24  1  0
 24 25  1  0
 25 26  1  0
  6  2  2  0
 23  7  1  0
 26 24  1  0
 22 15  1  0
  1 27  1  0
  1 28  1  0
  1 29  1  0
 12 30  1  0
 12 31  1  0
 16 32  1  0
 17 33  1  0
 21 34  1  0
 22 35  1  0
 24 36  1  0
 25 37  1  0
 25 38  1  0
 26 39  1  0
 26 40  1  0
M  END
$$$$
