
     RDKit          3D

 52 56  0  0  0  0  0  0  0  0999 V2000
   -2.9835   -2.0840    0.9059 O   0  0  0  0  0  0  0  0  0  0  0  0
   -3.2275   -1.1724    1.6802 C   0  0  0  0  0  0  0  0  0  0  0  0
   -4.4017   -1.0985    2.3766 O   0  0  0  0  0  0  0  0  0  0  0  0
   -4.2784   -0.0857    3.3754 C   0  0  0  0  0  0  0  0  0  0  0  0
   -3.0298    0.6780    3.0271 C   0  0  0  0  0  0  0  0  0  0  0  0
   -2.4221   -0.0930    1.9859 N   0  0  0  0  0  0  0  0  0  0  0  0
   -1.0731    0.0412    1.7001 C   0  0  0  0  0  0  0  0  0  0  0  0
   -0.3135    0.5587    2.5297 O   0  0  0  0  0  0  0  0  0  0  0  0
   -0.5606   -0.4475    0.3229 C   0  0  0  0  0  0  0  0  0  0  0  0
    0.9584   -0.7152    0.4073 C   0  0  0  0  0  0  0  0  0  0  0  0
    1.3945   -1.9191   -0.4158 C   0  0  0  0  0  0  0  0  0  0  0  0
    1.3256   -1.9225   -1.8202 C   0  0  0  0  0  0  0  0  0  0  0  0
    1.7221   -3.0464   -2.5471 C   0  0  0  0  0  0  0  0  0  0  0  0
    2.1824   -4.1708   -1.8754 C   0  0  0  0  0  0  0  0  0  0  0  0
    2.5605   -5.2496   -2.5726 F   0  0  0  0  0  0  0  0  0  0  0  0
    2.2515   -4.1949   -0.4884 C   0  0  0  0  0  0  0  0  0  0  0  0
    1.8550   -3.0732    0.2417 C   0  0  0  0  0  0  0  0  0  0  0  0
    1.4677    0.6052   -0.1433 C   0  0  0  0  0  0  0  0  0  0  0  0
    2.8908    1.0204   -0.0436 C   0  0  0  0  0  0  0  0  0  0  0  0
    3.2936    2.1993   -0.6902 C   0  0  0  0  0  0  0  0  0  0  0  0
    4.6208    2.6280   -0.6225 C   0  0  0  0  0  0  0  0  0  0  0  0
    5.5549    1.8826    0.0941 C   0  0  0  0  0  0  0  0  0  0  0  0
    5.1558    0.7124    0.7383 C   0  0  0  0  0  0  0  0  0  0  0  0
    6.3097   -0.2064    1.6268 Cl  0  0  0  0  0  0  0  0  0  0  0  0
    3.8311    0.2763    0.6754 C   0  0  0  0  0  0  0  0  0  0  0  0
    0.5647    1.3422   -0.7236 N   0  0  0  0  0  0  0  0  0  0  0  0
   -0.6183    0.6681   -0.6381 N   0  0  0  0  0  0  0  0  0  0  0  0
   -1.7951    1.2300   -1.1277 C   0  0  0  0  0  0  0  0  0  0  0  0
   -1.8685    2.5943   -1.4507 C   0  0  0  0  0  0  0  0  0  0  0  0
   -3.0454    3.1738   -1.9366 C   0  0  0  0  0  0  0  0  0  0  0  0
   -4.1769    2.3906   -2.1290 C   0  0  0  0  0  0  0  0  0  0  0  0
   -4.1247    1.0302   -1.8455 C   0  0  0  0  0  0  0  0  0  0  0  0
   -2.9438    0.4595   -1.3573 C   0  0  0  0  0  0  0  0  0  0  0  0
   -4.1976   -0.5726    4.3539 H   0  0  0  0  0  0  0  0  0  0  0  0
   -5.1695    0.5511    3.3718 H   0  0  0  0  0  0  0  0  0  0  0  0
   -3.2624    1.6707    2.6251 H   0  0  0  0  0  0  0  0  0  0  0  0
   -2.3708    0.8110    3.8913 H   0  0  0  0  0  0  0  0  0  0  0  0
   -1.0875   -1.3302   -0.0353 H   0  0  0  0  0  0  0  0  0  0  0  0
    1.2984   -0.8412    1.4402 H   0  0  0  0  0  0  0  0  0  0  0  0
    0.9586   -1.0515   -2.3631 H   0  0  0  0  0  0  0  0  0  0  0  0
    1.6704   -3.0501   -3.6311 H   0  0  0  0  0  0  0  0  0  0  0  0
    2.6099   -5.0871    0.0147 H   0  0  0  0  0  0  0  0  0  0  0  0
    1.9090   -3.1114    1.3274 H   0  0  0  0  0  0  0  0  0  0  0  0
    2.5740    2.7912   -1.2542 H   0  0  0  0  0  0  0  0  0  0  0  0
    4.9224    3.5433   -1.1271 H   0  0  0  0  0  0  0  0  0  0  0  0
    6.5876    2.2180    0.1473 H   0  0  0  0  0  0  0  0  0  0  0  0
    3.5584   -0.6360    1.1936 H   0  0  0  0  0  0  0  0  0  0  0  0
   -0.9947    3.2259   -1.3101 H   0  0  0  0  0  0  0  0  0  0  0  0
   -3.0681    4.2346   -2.1690 H   0  0  0  0  0  0  0  0  0  0  0  0
   -5.0903    2.8349   -2.5154 H   0  0  0  0  0  0  0  0  0  0  0  0
   -4.9944    0.4033   -2.0199 H   0  0  0  0  0  0  0  0  0  0  0  0
   -2.9294   -0.6152   -1.1998 H   0  0  0  0  0  0  0  0  0  0  0  0
  1  2  2  0
  2  3  1  0
  3  4  1  0
  4  5  1  0
  5  6  1  0
  6  7  1  0
  7  8  2  0
  7  9  1  0
  9 10  1  0
 10 11  1  0
 11 12  2  0
 12 13  1  0
 13 14  2  0
 14 15  1  0
 14 16  1  0
 16 17  2  0
 10 18  1  0
 18 19  1  0
 19 20  2  0
 20 21  1  0
 21 22  2  0
 22 23  1  0
 23 24  1  0
 23 25  2  0
 18 26  2  0
 26 27  1  0
 27 28  1  0
 28 29  2  0
 29 30  1  0
 30 31  2  0
 31 32  1  0
 32 33  2  0
  6  2  1  0
 27  9  1  0
 33 28  1  0
 17 11  1  0
 25 19  1  0
  4 34  1  0
  4 35  1  0
  5 36  1  0
  5 37  1  0
  9 38  1  0
 10 39  1  0
 12 40  1  0
 13 41  1  0
 16 42  1  0
 17 43  1  0
 20 44  1  0
 21 45  1  0
 22 46  1  0
 25 47  1  0
 29 48  1  0
 30 49  1  0
 31 50  1  0
 32 51  1  0
 33 52  1  0
M  END
$$$$
