
     RDKit          3D

 46 49  0  0  0  0  0  0  0  0999 V2000
    1.5380   -0.2607   -1.1528 O   0  0  0  0  0  0  0  0  0  0  0  0
    1.9388   -0.2307    0.0060 C   0  0  0  0  0  0  0  0  0  0  0  0
    1.0136    0.0048    1.2007 C   0  0  0  0  0  0  0  0  0  0  0  0
   -0.3440    0.1474    0.7935 O   0  0  0  0  0  0  0  0  0  0  0  0
   -1.1781    0.4846    1.8045 C   0  0  0  0  0  0  0  0  0  0  0  0
   -0.8754    0.6451    2.9741 O   0  0  0  0  0  0  0  0  0  0  0  0
   -2.5492    0.5845    1.2680 C   0  0  0  0  0  0  0  0  0  0  0  0
   -3.4797   -0.4384    1.6032 C   0  0  0  0  0  0  0  0  0  0  0  0
   -3.1852   -1.5580    2.4223 C   0  0  0  0  0  0  0  0  0  0  0  0
   -4.1442   -2.5322    2.7065 C   0  0  0  0  0  0  0  0  0  0  0  0
   -5.4228   -2.4160    2.1802 C   0  0  0  0  0  0  0  0  0  0  0  0
   -5.7407   -1.3254    1.3727 C   0  0  0  0  0  0  0  0  0  0  0  0
   -4.7860   -0.3365    1.0792 C   0  0  0  0  0  0  0  0  0  0  0  0
   -5.1275    0.7545    0.2652 C   0  0  0  0  0  0  0  0  0  0  0  0
   -4.2084    1.7670   -0.0501 C   0  0  0  0  0  0  0  0  0  0  0  0
   -4.5977    2.8462   -0.8622 C   0  0  0  0  0  0  0  0  0  0  0  0
   -3.7031    3.8656   -1.1826 C   0  0  0  0  0  0  0  0  0  0  0  0
   -2.4056    3.8205   -0.6931 C   0  0  0  0  0  0  0  0  0  0  0  0
   -2.0048    2.7545    0.1147 C   0  0  0  0  0  0  0  0  0  0  0  0
   -2.8913    1.7003    0.4526 C   0  0  0  0  0  0  0  0  0  0  0  0
    3.2489   -0.4421    0.4004 N   0  0  0  0  0  0  0  0  0  0  0  0
    4.3084   -0.6828   -0.4843 C   0  0  0  0  0  0  0  0  0  0  0  0
    5.1294   -1.6673   -0.0414 N   0  0  0  0  0  0  0  0  0  0  0  0
    6.1699   -2.0245   -0.8309 C   0  0  0  0  0  0  0  0  0  0  0  0
    6.4614   -1.4258   -2.0457 C   0  0  0  0  0  0  0  0  0  0  0  0
    7.6493   -1.8716   -2.8399 C   0  0  0  0  0  0  0  0  0  0  0  0
    8.7981   -1.2718   -2.4264 F   0  0  0  0  0  0  0  0  0  0  0  0
    7.8731   -3.2112   -2.7516 F   0  0  0  0  0  0  0  0  0  0  0  0
    7.5388   -1.5979   -4.1682 F   0  0  0  0  0  0  0  0  0  0  0  0
    5.6468   -0.3636   -2.4500 C   0  0  0  0  0  0  0  0  0  0  0  0
    4.5614    0.0296   -1.6615 C   0  0  0  0  0  0  0  0  0  0  0  0
    3.7468    1.4814   -2.1184 Cl  0  0  0  0  0  0  0  0  0  0  0  0
    1.3521    0.9180    1.7052 H   0  0  0  0  0  0  0  0  0  0  0  0
    1.0978   -0.8551    1.8756 H   0  0  0  0  0  0  0  0  0  0  0  0
   -2.1959   -1.6820    2.8597 H   0  0  0  0  0  0  0  0  0  0  0  0
   -3.8889   -3.3775    3.3404 H   0  0  0  0  0  0  0  0  0  0  0  0
   -6.1740   -3.1706    2.3976 H   0  0  0  0  0  0  0  0  0  0  0  0
   -6.7497   -1.2528    0.9711 H   0  0  0  0  0  0  0  0  0  0  0  0
   -6.1403    0.8194   -0.1322 H   0  0  0  0  0  0  0  0  0  0  0  0
   -5.6110    2.9019   -1.2554 H   0  0  0  0  0  0  0  0  0  0  0  0
   -4.0205    4.6915   -1.8135 H   0  0  0  0  0  0  0  0  0  0  0  0
   -1.7006    4.6104   -0.9394 H   0  0  0  0  0  0  0  0  0  0  0  0
   -0.9787    2.7569    0.4770 H   0  0  0  0  0  0  0  0  0  0  0  0
    3.3786   -0.9277    1.2790 H   0  0  0  0  0  0  0  0  0  0  0  0
    6.7800   -2.8365   -0.4377 H   0  0  0  0  0  0  0  0  0  0  0  0
    5.8722    0.1746   -3.3697 H   0  0  0  0  0  0  0  0  0  0  0  0
  1  2  2  0
  2  3  1  0
  3  4  1  0
  4  5  1  0
  5  6  2  0
  5  7  1  0
  7  8  1  0
  8  9  2  0
  9 10  1  0
 10 11  2  0
 11 12  1  0
 12 13  2  0
 13 14  1  0
 14 15  2  0
 15 16  1  0
 16 17  2  0
 17 18  1  0
 18 19  2  0
 19 20  1  0
  2 21  1  0
 21 22  1  0
 22 23  2  0
 23 24  1  0
 24 25  2  0
 25 26  1  0
 26 27  1  0
 26 28  1  0
 26 29  1  0
 25 30  1  0
 30 31  2  0
 31 32  1  0
 20  7  2  0
 31 22  1  0
 13  8  1  0
 20 15  1  0
  3 33  1  0
  3 34  1  0
  9 35  1  0
 10 36  1  0
 11 37  1  0
 12 38  1  0
 14 39  1  0
 16 40  1  0
 17 41  1  0
 18 42  1  0
 19 43  1  0
 21 44  1  0
 24 45  1  0
 30 46  1  0
M  END
$$$$
