
     RDKit          3D

 51 54  0  0  0  0  0  0  0  0999 V2000
   -2.6683   -0.8468    3.3135 C   0  0  0  0  0  0  0  0  0  0  0  0
   -2.5679   -0.6267    1.9136 O   0  0  0  0  0  0  0  0  0  0  0  0
   -3.7196   -0.3453    1.2264 C   0  0  0  0  0  0  0  0  0  0  0  0
   -4.9960   -0.3470    1.8038 C   0  0  0  0  0  0  0  0  0  0  0  0
   -6.1266   -0.0599    1.0363 C   0  0  0  0  0  0  0  0  0  0  0  0
   -5.9939    0.2298   -0.3158 C   0  0  0  0  0  0  0  0  0  0  0  0
   -4.7294    0.2332   -0.9021 C   0  0  0  0  0  0  0  0  0  0  0  0
   -3.5757   -0.0523   -0.1463 C   0  0  0  0  0  0  0  0  0  0  0  0
   -2.2280   -0.0215   -0.8585 C   0  0  0  0  0  0  0  0  0  0  0  0
   -1.2903    1.0705   -0.3284 C   0  0  0  0  0  0  0  0  0  0  0  0
    0.0106    1.1333   -1.1435 C   0  0  0  0  0  0  0  0  0  0  0  0
    0.4358   -0.1646   -1.6736 N   0  0  0  0  0  0  0  0  0  0  0  0
    1.8323   -0.2164   -2.1189 C   0  0  0  0  0  0  0  0  0  0  0  0
    2.8500   -0.0945   -1.0167 C   0  0  0  0  0  0  0  0  0  0  0  0
    3.3812   -1.1144   -0.2343 C   0  0  0  0  0  0  0  0  0  0  0  0
    3.1318   -2.5790   -0.2199 C   0  0  0  0  0  0  0  0  0  0  0  0
    4.2773   -0.5505    0.6395 N   0  0  0  0  0  0  0  0  0  0  0  0
    4.4021    0.7966    0.4091 C   0  0  0  0  0  0  0  0  0  0  0  0
    5.2197    1.7455    1.0353 C   0  0  0  0  0  0  0  0  0  0  0  0
    5.1488    3.0647    0.5799 C   0  0  0  0  0  0  0  0  0  0  0  0
    4.2946    3.4170   -0.4610 C   0  0  0  0  0  0  0  0  0  0  0  0
    3.4840    2.4541   -1.0734 C   0  0  0  0  0  0  0  0  0  0  0  0
    3.5304    1.1141   -0.6301 C   0  0  0  0  0  0  0  0  0  0  0  0
   -0.0006   -1.2864   -0.8553 C   0  0  0  0  0  0  0  0  0  0  0  0
   -1.5296   -1.3959   -0.8954 C   0  0  0  0  0  0  0  0  0  0  0  0
   -3.0786    0.0302    3.8248 H   0  0  0  0  0  0  0  0  0  0  0  0
   -1.6573   -1.0120    3.6983 H   0  0  0  0  0  0  0  0  0  0  0  0
   -3.2561   -1.7448    3.5298 H   0  0  0  0  0  0  0  0  0  0  0  0
   -5.1476   -0.5726    2.8539 H   0  0  0  0  0  0  0  0  0  0  0  0
   -7.1110   -0.0650    1.4968 H   0  0  0  0  0  0  0  0  0  0  0  0
   -6.8720    0.4528   -0.9159 H   0  0  0  0  0  0  0  0  0  0  0  0
   -4.6475    0.4626   -1.9627 H   0  0  0  0  0  0  0  0  0  0  0  0
   -2.4228    0.2440   -1.9089 H   0  0  0  0  0  0  0  0  0  0  0  0
   -1.0327    0.8843    0.7208 H   0  0  0  0  0  0  0  0  0  0  0  0
   -1.7844    2.0497   -0.3549 H   0  0  0  0  0  0  0  0  0  0  0  0
    0.7647    1.5851   -0.4923 H   0  0  0  0  0  0  0  0  0  0  0  0
   -0.1318    1.8171   -1.9888 H   0  0  0  0  0  0  0  0  0  0  0  0
    1.9981    0.5736   -2.8624 H   0  0  0  0  0  0  0  0  0  0  0  0
    2.0018   -1.1518   -2.6673 H   0  0  0  0  0  0  0  0  0  0  0  0
    4.0373   -3.1290    0.0577 H   0  0  0  0  0  0  0  0  0  0  0  0
    2.8197   -2.9371   -1.2053 H   0  0  0  0  0  0  0  0  0  0  0  0
    2.3487   -2.8248    0.5038 H   0  0  0  0  0  0  0  0  0  0  0  0
    4.8038   -1.0570    1.3369 H   0  0  0  0  0  0  0  0  0  0  0  0
    5.8893    1.4721    1.8439 H   0  0  0  0  0  0  0  0  0  0  0  0
    5.7715    3.8254    1.0448 H   0  0  0  0  0  0  0  0  0  0  0  0
    4.2542    4.4480   -0.8029 H   0  0  0  0  0  0  0  0  0  0  0  0
    2.8206    2.7424   -1.8832 H   0  0  0  0  0  0  0  0  0  0  0  0
    0.4024   -2.2319   -1.2362 H   0  0  0  0  0  0  0  0  0  0  0  0
    0.3419   -1.1803    0.1815 H   0  0  0  0  0  0  0  0  0  0  0  0
   -1.8504   -2.0527   -0.0791 H   0  0  0  0  0  0  0  0  0  0  0  0
   -1.8345   -1.9094   -1.8177 H   0  0  0  0  0  0  0  0  0  0  0  0
  1  2  1  0
  2  3  1  0
  3  4  2  0
  4  5  1  0
  5  6  2  0
  6  7  1  0
  7  8  2  0
  8  9  1  0
  9 10  1  0
 10 11  1  0
 11 12  1  0
 12 13  1  0
 13 14  1  0
 14 15  2  0
 15 16  1  0
 15 17  1  0
 17 18  1  0
 18 19  2  0
 19 20  1  0
 20 21  2  0
 21 22  1  0
 22 23  2  0
 12 24  1  0
 24 25  1  0
  8  3  1  0
 25  9  1  0
 23 14  1  0
 23 18  1  0
  1 26  1  0
  1 27  1  0
  1 28  1  0
  4 29  1  0
  5 30  1  0
  6 31  1  0
  7 32  1  0
  9 33  1  0
 10 34  1  0
 10 35  1  0
 11 36  1  0
 11 37  1  0
 13 38  1  0
 13 39  1  0
 16 40  1  0
 16 41  1  0
 16 42  1  0
 17 43  1  0
 19 44  1  0
 20 45  1  0
 21 46  1  0
 22 47  1  0
 24 48  1  0
 24 49  1  0
 25 50  1  0
 25 51  1  0
M  END
$$$$
