
     RDKit          3D

 57 61  0  0  0  0  0  0  0  0999 V2000
   -3.3690   -0.7843    4.4538 C   0  0  0  0  0  0  0  0  0  0  0  0
   -4.4704    0.0220    4.1860 C   0  0  0  0  0  0  0  0  0  0  0  0
   -4.4780    0.8395    3.0539 C   0  0  0  0  0  0  0  0  0  0  0  0
   -3.3817    0.8750    2.1678 C   0  0  0  0  0  0  0  0  0  0  0  0
   -3.4898    1.7843    0.9465 C   0  0  0  0  0  0  0  0  0  0  0  0
   -4.2514    1.2227   -0.2452 C   0  0  0  0  0  0  0  0  0  0  0  0
   -5.0768    2.0762   -1.0007 C   0  0  0  0  0  0  0  0  0  0  0  0
   -5.7903    1.5959   -2.1005 C   0  0  0  0  0  0  0  0  0  0  0  0
   -5.6863    0.2567   -2.4682 C   0  0  0  0  0  0  0  0  0  0  0  0
   -4.8704   -0.6026   -1.7372 C   0  0  0  0  0  0  0  0  0  0  0  0
   -4.1571   -0.1243   -0.6355 C   0  0  0  0  0  0  0  0  0  0  0  0
   -2.1278    2.1850    0.4585 C   0  0  0  0  0  0  0  0  0  0  0  0
   -1.6115    3.3949    0.7375 N   0  0  0  0  0  0  0  0  0  0  0  0
   -0.3685    3.3755    0.1068 O   0  0  0  0  0  0  0  0  0  0  0  0
   -0.2593    2.1618   -0.5038 C   0  0  0  0  0  0  0  0  0  0  0  0
    0.9898    1.9064   -1.2823 C   0  0  0  0  0  0  0  0  0  0  0  0
    2.0266    1.1641   -0.5308 N   0  0  0  0  0  0  0  0  0  0  0  0
    1.5526   -0.1711   -0.1279 C   0  0  0  0  0  0  0  0  0  0  0  0
    2.7007   -1.1452    0.1274 C   0  0  0  0  0  0  0  0  0  0  0  0
    3.4812   -1.3956   -1.1742 C   0  0  0  0  0  0  0  0  0  0  0  0
    4.8450   -2.0099   -0.9176 C   0  0  0  0  0  0  0  0  0  0  0  0
    5.1620   -3.2603   -1.4612 C   0  0  0  0  0  0  0  0  0  0  0  0
    6.4188   -3.7977   -1.2241 C   0  0  0  0  0  0  0  0  0  0  0  0
    7.3728   -3.1852   -0.4933 N   0  0  0  0  0  0  0  0  0  0  0  0
    7.0529   -1.9812    0.0242 C   0  0  0  0  0  0  0  0  0  0  0  0
    5.8246   -1.3614   -0.1580 C   0  0  0  0  0  0  0  0  0  0  0  0
    3.5570   -0.1302   -2.0505 C   0  0  0  0  0  0  0  0  0  0  0  0
    3.3104    1.1446   -1.2457 C   0  0  0  0  0  0  0  0  0  0  0  0
   -1.3090    1.3909   -0.3218 N   0  0  0  0  0  0  0  0  0  0  0  0
   -2.2881    0.0384    2.4521 C   0  0  0  0  0  0  0  0  0  0  0  0
   -2.2802   -0.7783    3.5868 C   0  0  0  0  0  0  0  0  0  0  0  0
   -3.3601   -1.4199    5.3348 H   0  0  0  0  0  0  0  0  0  0  0  0
   -5.3263    0.0151    4.8560 H   0  0  0  0  0  0  0  0  0  0  0  0
   -5.3563    1.4541    2.8617 H   0  0  0  0  0  0  0  0  0  0  0  0
   -4.0028    2.6980    1.2819 H   0  0  0  0  0  0  0  0  0  0  0  0
   -5.1693    3.1280   -0.7362 H   0  0  0  0  0  0  0  0  0  0  0  0
   -6.4253    2.2675   -2.6725 H   0  0  0  0  0  0  0  0  0  0  0  0
   -6.2407   -0.1167   -3.3250 H   0  0  0  0  0  0  0  0  0  0  0  0
   -4.7844   -1.6474   -2.0242 H   0  0  0  0  0  0  0  0  0  0  0  0
   -3.5198   -0.8155   -0.0887 H   0  0  0  0  0  0  0  0  0  0  0  0
    0.7333    1.3758   -2.2079 H   0  0  0  0  0  0  0  0  0  0  0  0
    1.3906    2.8831   -1.5821 H   0  0  0  0  0  0  0  0  0  0  0  0
    0.9606   -0.0780    0.7890 H   0  0  0  0  0  0  0  0  0  0  0  0
    0.9000   -0.6076   -0.8952 H   0  0  0  0  0  0  0  0  0  0  0  0
    3.3422   -0.7444    0.9217 H   0  0  0  0  0  0  0  0  0  0  0  0
    2.3075   -2.0963    0.5073 H   0  0  0  0  0  0  0  0  0  0  0  0
    2.9002   -2.1280   -1.7527 H   0  0  0  0  0  0  0  0  0  0  0  0
    4.4484   -3.8148   -2.0626 H   0  0  0  0  0  0  0  0  0  0  0  0
    6.6990   -4.7656   -1.6296 H   0  0  0  0  0  0  0  0  0  0  0  0
    7.8350   -1.5072    0.6105 H   0  0  0  0  0  0  0  0  0  0  0  0
    5.6486   -0.3910    0.2938 H   0  0  0  0  0  0  0  0  0  0  0  0
    4.5179   -0.0599   -2.5753 H   0  0  0  0  0  0  0  0  0  0  0  0
    2.7901   -0.1969   -2.8343 H   0  0  0  0  0  0  0  0  0  0  0  0
    4.1065    1.2541   -0.4994 H   0  0  0  0  0  0  0  0  0  0  0  0
    3.4182    2.0179   -1.9011 H   0  0  0  0  0  0  0  0  0  0  0  0
   -1.4219    0.0005    1.7962 H   0  0  0  0  0  0  0  0  0  0  0  0
   -1.4203   -1.4115    3.7910 H   0  0  0  0  0  0  0  0  0  0  0  0
  1  2  2  0
  2  3  1  0
  3  4  2  0
  4  5  1  0
  5  6  1  0
  6  7  2  0
  7  8  1  0
  8  9  2  0
  9 10  1  0
 10 11  2  0
  5 12  1  0
 12 13  2  0
 13 14  1  0
 14 15  1  0
 15 16  1  0
 16 17  1  0
 17 18  1  0
 18 19  1  0
 19 20  1  0
 20 21  1  0
 21 22  2  0
 22 23  1  0
 23 24  2  0
 24 25  1  0
 25 26  2  0
 20 27  1  0
 27 28  1  0
 15 29  2  0
  4 30  1  0
 30 31  2  0
 31  1  1  0
 11  6  1  0
 29 12  1  0
 28 17  1  0
 26 21  1  0
  1 32  1  0
  2 33  1  0
  3 34  1  0
  5 35  1  0
  7 36  1  0
  8 37  1  0
  9 38  1  0
 10 39  1  0
 11 40  1  0
 16 41  1  0
 16 42  1  0
 18 43  1  0
 18 44  1  0
 19 45  1  0
 19 46  1  0
 20 47  1  0
 22 48  1  0
 23 49  1  0
 25 50  1  0
 26 51  1  0
 27 52  1  0
 27 53  1  0
 28 54  1  0
 28 55  1  0
 30 56  1  0
 31 57  1  0
M  END
$$$$
