
     RDKit          3D

 49 52  0  0  0  0  0  0  0  0999 V2000
   -4.3957    3.9201    0.6299 C   0  0  0  0  0  0  0  0  0  0  0  0
   -4.7276    2.4565    0.4084 C   0  0  0  0  0  0  0  0  0  0  0  0
   -3.8148    1.8794   -0.5378 O   0  0  0  0  0  0  0  0  0  0  0  0
   -2.6511    1.3897   -0.0157 C   0  0  0  0  0  0  0  0  0  0  0  0
   -2.3390    1.4392    1.1650 O   0  0  0  0  0  0  0  0  0  0  0  0
   -1.8009    0.8286   -1.1362 C   0  0  0  0  0  0  0  0  0  0  0  0
   -0.7029   -0.1057   -0.6680 C   0  0  0  0  0  0  0  0  0  0  0  0
    0.5677    0.4997   -0.5467 C   0  0  0  0  0  0  0  0  0  0  0  0
    1.6637   -0.2473   -0.1623 C   0  0  0  0  0  0  0  0  0  0  0  0
    3.0230    0.3117   -0.0176 C   0  0  0  0  0  0  0  0  0  0  0  0
    3.9065   -0.1948    0.9507 C   0  0  0  0  0  0  0  0  0  0  0  0
    5.1962    0.3256    1.1055 C   0  0  0  0  0  0  0  0  0  0  0  0
    5.6457    1.3646    0.2925 C   0  0  0  0  0  0  0  0  0  0  0  0
    6.9229    1.7808    0.5457 O   0  0  0  0  0  0  0  0  0  0  0  0
    7.4282    2.8347   -0.2637 C   0  0  0  0  0  0  0  0  0  0  0  0
    4.7918    1.8766   -0.6813 C   0  0  0  0  0  0  0  0  0  0  0  0
    3.4983    1.3541   -0.8336 C   0  0  0  0  0  0  0  0  0  0  0  0
    1.5339   -1.5581    0.1065 N   0  0  0  0  0  0  0  0  0  0  0  0
    0.3339   -2.1467    0.0150 C   0  0  0  0  0  0  0  0  0  0  0  0
    0.3568   -3.4908    0.3129 C   0  0  0  0  0  0  0  0  0  0  0  0
   -0.7848   -4.2759    0.2744 C   0  0  0  0  0  0  0  0  0  0  0  0
   -2.0110   -3.7162   -0.0556 C   0  0  0  0  0  0  0  0  0  0  0  0
   -3.1336   -4.5632   -0.0624 C   0  0  0  0  0  0  0  0  0  0  0  0
   -4.3981   -4.0791   -0.3640 C   0  0  0  0  0  0  0  0  0  0  0  0
   -4.5467   -2.7376   -0.6552 C   0  0  0  0  0  0  0  0  0  0  0  0
   -3.4288   -1.8912   -0.6518 C   0  0  0  0  0  0  0  0  0  0  0  0
   -2.1059   -2.3303   -0.3660 C   0  0  0  0  0  0  0  0  0  0  0  0
   -0.8789   -1.5035   -0.3537 C   0  0  0  0  0  0  0  0  0  0  0  0
   -3.3954    4.0360    1.0587 H   0  0  0  0  0  0  0  0  0  0  0  0
   -4.3994    4.4631   -0.3209 H   0  0  0  0  0  0  0  0  0  0  0  0
   -5.1207    4.3843    1.3043 H   0  0  0  0  0  0  0  0  0  0  0  0
   -5.7308    2.3676   -0.0212 H   0  0  0  0  0  0  0  0  0  0  0  0
   -4.7312    1.8973    1.3511 H   0  0  0  0  0  0  0  0  0  0  0  0
   -1.3606    1.6938   -1.6505 H   0  0  0  0  0  0  0  0  0  0  0  0
   -2.4059    0.3357   -1.9016 H   0  0  0  0  0  0  0  0  0  0  0  0
    0.6845    1.5628   -0.7372 H   0  0  0  0  0  0  0  0  0  0  0  0
    3.5877   -1.0078    1.6016 H   0  0  0  0  0  0  0  0  0  0  0  0
    5.8525   -0.0881    1.8671 H   0  0  0  0  0  0  0  0  0  0  0  0
    6.8407    3.7496   -0.1329 H   0  0  0  0  0  0  0  0  0  0  0  0
    7.4702    2.5383   -1.3170 H   0  0  0  0  0  0  0  0  0  0  0  0
    8.4508    3.0466    0.0633 H   0  0  0  0  0  0  0  0  0  0  0  0
    5.0978    2.6780   -1.3452 H   0  0  0  0  0  0  0  0  0  0  0  0
    2.8715    1.7667   -1.6209 H   0  0  0  0  0  0  0  0  0  0  0  0
    1.3035   -3.9542    0.5855 H   0  0  0  0  0  0  0  0  0  0  0  0
   -0.6946   -5.3323    0.5181 H   0  0  0  0  0  0  0  0  0  0  0  0
   -3.0296   -5.6205    0.1757 H   0  0  0  0  0  0  0  0  0  0  0  0
   -5.2571   -4.7436   -0.3623 H   0  0  0  0  0  0  0  0  0  0  0  0
   -5.5306   -2.3347   -0.8823 H   0  0  0  0  0  0  0  0  0  0  0  0
   -3.6519   -0.8594   -0.8716 H   0  0  0  0  0  0  0  0  0  0  0  0
  1  2  1  0
  2  3  1  0
  3  4  1  0
  4  5  2  0
  4  6  1  0
  6  7  1  0
  7  8  2  0
  8  9  1  0
  9 10  1  0
 10 11  2  0
 11 12  1  0
 12 13  2  0
 13 14  1  0
 14 15  1  0
 13 16  1  0
 16 17  2  0
  9 18  2  0
 18 19  1  0
 19 20  2  0
 20 21  1  0
 21 22  2  0
 22 23  1  0
 23 24  2  0
 24 25  1  0
 25 26  2  0
 26 27  1  0
 27 28  2  0
 28  7  1  0
 17 10  1  0
 28 19  1  0
 27 22  1  0
  1 29  1  0
  1 30  1  0
  1 31  1  0
  2 32  1  0
  2 33  1  0
  6 34  1  0
  6 35  1  0
  8 36  1  0
 11 37  1  0
 12 38  1  0
 15 39  1  0
 15 40  1  0
 15 41  1  0
 16 42  1  0
 17 43  1  0
 20 44  1  0
 21 45  1  0
 23 46  1  0
 24 47  1  0
 25 48  1  0
 26 49  1  0
M  END
$$$$
