
     RDKit          3D

 35 36  0  0  0  0  0  0  0  0999 V2000
    2.0568   -1.6456    1.0529 O   0  0  0  0  0  0  0  0  0  0  0  0
    2.4359   -0.9222    0.1391 C   0  0  0  0  0  0  0  0  0  0  0  0
    1.6681   -0.6367   -0.9729 N   0  0  0  0  0  0  0  0  0  0  0  0
    0.3248   -1.1677   -1.1137 C   0  0  0  0  0  0  0  0  0  0  0  0
   -0.6952   -0.3446   -0.3317 C   0  0  0  0  0  0  0  0  0  0  0  0
   -2.1092   -0.8666   -0.5668 C   0  0  0  0  0  0  0  0  0  0  0  0
   -3.1216   -0.1980    0.2364 N   0  0  0  0  0  0  0  0  0  0  0  0
   -3.2496    1.2378    0.2938 C   0  0  0  0  0  0  0  0  0  0  0  0
   -4.4053    1.4431    1.2514 C   0  0  0  0  0  0  0  0  0  0  0  0
   -5.3105    0.2508    0.9772 C   0  0  0  0  0  0  0  0  0  0  0  0
   -4.3526   -0.8074    0.4847 C   0  0  0  0  0  0  0  0  0  0  0  0
   -4.6416   -1.9759    0.2851 O   0  0  0  0  0  0  0  0  0  0  0  0
    3.7641   -0.2722    0.2201 C   0  0  0  0  0  0  0  0  0  0  0  0
    4.3393   -0.0287    1.4692 C   0  0  0  0  0  0  0  0  0  0  0  0
    5.5898    0.5810    1.5426 C   0  0  0  0  0  0  0  0  0  0  0  0
    6.2255    0.9213    0.3589 C   0  0  0  0  0  0  0  0  0  0  0  0
    5.7053    0.6879   -0.8668 N   0  0  0  0  0  0  0  0  0  0  0  0
    4.4913    0.0841   -0.9075 C   0  0  0  0  0  0  0  0  0  0  0  0
    1.9365    0.1194   -1.5882 H   0  0  0  0  0  0  0  0  0  0  0  0
    0.0902   -1.1555   -2.1834 H   0  0  0  0  0  0  0  0  0  0  0  0
    0.3178   -2.2096   -0.7742 H   0  0  0  0  0  0  0  0  0  0  0  0
   -0.4613   -0.3719    0.7397 H   0  0  0  0  0  0  0  0  0  0  0  0
   -0.6245    0.7065   -0.6373 H   0  0  0  0  0  0  0  0  0  0  0  0
   -2.1547   -1.9402   -0.3488 H   0  0  0  0  0  0  0  0  0  0  0  0
   -2.3936   -0.7411   -1.6185 H   0  0  0  0  0  0  0  0  0  0  0  0
   -3.4878    1.6100   -0.7086 H   0  0  0  0  0  0  0  0  0  0  0  0
   -2.3304    1.7022    0.6593 H   0  0  0  0  0  0  0  0  0  0  0  0
   -4.9095    2.4034    1.1117 H   0  0  0  0  0  0  0  0  0  0  0  0
   -4.0452    1.3979    2.2869 H   0  0  0  0  0  0  0  0  0  0  0  0
   -5.8306   -0.0804    1.8790 H   0  0  0  0  0  0  0  0  0  0  0  0
   -6.0299    0.4711    0.1825 H   0  0  0  0  0  0  0  0  0  0  0  0
    3.8161   -0.3126    2.3796 H   0  0  0  0  0  0  0  0  0  0  0  0
    6.0569    0.7826    2.5004 H   0  0  0  0  0  0  0  0  0  0  0  0
    7.2014    1.3994    0.3651 H   0  0  0  0  0  0  0  0  0  0  0  0
    4.1333   -0.1214   -1.9114 H   0  0  0  0  0  0  0  0  0  0  0  0
  1  2  2  0
  2  3  1  0
  3  4  1  0
  4  5  1  0
  5  6  1  0
  6  7  1  0
  7  8  1  0
  8  9  1  0
  9 10  1  0
 10 11  1  0
 11 12  2  0
  2 13  1  0
 13 14  2  0
 14 15  1  0
 15 16  2  0
 16 17  1  0
 17 18  2  0
 11  7  1  0
 18 13  1  0
  3 19  1  0
  4 20  1  0
  4 21  1  0
  5 22  1  0
  5 23  1  0
  6 24  1  0
  6 25  1  0
  8 26  1  0
  8 27  1  0
  9 28  1  0
  9 29  1  0
 10 30  1  0
 10 31  1  0
 14 32  1  0
 15 33  1  0
 16 34  1  0
 18 35  1  0
M  END
$$$$
