
     RDKit          3D

 40 41  0  0  0  0  0  0  0  0999 V2000
    5.4901   -3.0338    0.5815 C   0  0  0  0  0  0  0  0  0  0  0  0
    5.1748   -2.0726   -0.4176 O   0  0  0  0  0  0  0  0  0  0  0  0
    4.5134   -0.9483   -0.0073 C   0  0  0  0  0  0  0  0  0  0  0  0
    4.0967   -0.6690    1.2936 C   0  0  0  0  0  0  0  0  0  0  0  0
    3.4204    0.5230    1.5758 C   0  0  0  0  0  0  0  0  0  0  0  0
    3.1558    1.4519    0.5612 C   0  0  0  0  0  0  0  0  0  0  0  0
    2.3910    2.7197    0.8674 C   0  0  0  0  0  0  0  0  0  0  0  0
    0.9036    2.5191    1.0569 C   0  0  0  0  0  0  0  0  0  0  0  0
    0.2474    3.1537    1.8770 O   0  0  0  0  0  0  0  0  0  0  0  0
    0.4334    1.5926    0.1607 O   0  0  0  0  0  0  0  0  0  0  0  0
   -0.9558    1.4265    0.3024 N   0  0  0  0  0  0  0  0  0  0  0  0
   -1.3913    0.4754   -0.4719 C   0  0  0  0  0  0  0  0  0  0  0  0
   -0.5656   -0.2678   -1.2895 N   0  0  0  0  0  0  0  0  0  0  0  0
   -2.8577    0.1663   -0.4503 C   0  0  0  0  0  0  0  0  0  0  0  0
   -3.6390    0.5699    0.6385 C   0  0  0  0  0  0  0  0  0  0  0  0
   -5.0040    0.2734    0.6729 C   0  0  0  0  0  0  0  0  0  0  0  0
   -5.6057   -0.4268   -0.3802 C   0  0  0  0  0  0  0  0  0  0  0  0
   -7.0758   -0.7229   -0.3369 C   0  0  0  0  0  0  0  0  0  0  0  0
   -4.8251   -0.8131   -1.4761 C   0  0  0  0  0  0  0  0  0  0  0  0
   -3.4582   -0.5202   -1.5121 C   0  0  0  0  0  0  0  0  0  0  0  0
    3.5757    1.1675   -0.7433 C   0  0  0  0  0  0  0  0  0  0  0  0
    4.2490   -0.0243   -1.0206 C   0  0  0  0  0  0  0  0  0  0  0  0
    4.5813   -3.4460    1.0321 H   0  0  0  0  0  0  0  0  0  0  0  0
    6.0239   -3.8567    0.0969 H   0  0  0  0  0  0  0  0  0  0  0  0
    6.1533   -2.6097    1.3431 H   0  0  0  0  0  0  0  0  0  0  0  0
    4.2794   -1.3559    2.1135 H   0  0  0  0  0  0  0  0  0  0  0  0
    3.0992    0.7178    2.5979 H   0  0  0  0  0  0  0  0  0  0  0  0
    2.5334    3.4600    0.0719 H   0  0  0  0  0  0  0  0  0  0  0  0
    2.7993    3.1568    1.7867 H   0  0  0  0  0  0  0  0  0  0  0  0
   -0.8105   -1.2484   -1.3685 H   0  0  0  0  0  0  0  0  0  0  0  0
    0.4138   -0.1487   -1.0456 H   0  0  0  0  0  0  0  0  0  0  0  0
   -3.1902    1.1148    1.4669 H   0  0  0  0  0  0  0  0  0  0  0  0
   -5.5947    0.5962    1.5283 H   0  0  0  0  0  0  0  0  0  0  0  0
   -7.3348   -1.2187    0.6040 H   0  0  0  0  0  0  0  0  0  0  0  0
   -7.3752   -1.3871   -1.1542 H   0  0  0  0  0  0  0  0  0  0  0  0
   -7.6485    0.2054   -0.4246 H   0  0  0  0  0  0  0  0  0  0  0  0
   -5.2759   -1.3387   -2.3148 H   0  0  0  0  0  0  0  0  0  0  0  0
   -2.8809   -0.8103   -2.3855 H   0  0  0  0  0  0  0  0  0  0  0  0
    3.3811    1.8651   -1.5556 H   0  0  0  0  0  0  0  0  0  0  0  0
    4.5726   -0.2357   -2.0368 H   0  0  0  0  0  0  0  0  0  0  0  0
  1  2  1  0
  2  3  1  0
  3  4  2  0
  4  5  1  0
  5  6  2  0
  6  7  1  0
  7  8  1  0
  8  9  2  0
  8 10  1  0
 10 11  1  0
 11 12  2  3
 12 13  1  0
 12 14  1  0
 14 15  2  0
 15 16  1  0
 16 17  2  0
 17 18  1  0
 17 19  1  0
 19 20  2  0
  6 21  1  0
 21 22  2  0
 22  3  1  0
 20 14  1  0
  1 23  1  0
  1 24  1  0
  1 25  1  0
  4 26  1  0
  5 27  1  0
  7 28  1  0
  7 29  1  0
 13 30  1  0
 13 31  1  0
 15 32  1  0
 16 33  1  0
 18 34  1  0
 18 35  1  0
 18 36  1  0
 19 37  1  0
 20 38  1  0
 21 39  1  0
 22 40  1  0
M  END
$$$$
