
     RDKit          3D

 35 37  0  0  0  0  0  0  0  0999 V2000
    1.1211   -0.3590   -2.8347 O   0  0  0  0  0  0  0  0  0  0  0  0
    1.9118   -0.1307   -1.7928 C   0  0  0  0  0  0  0  0  0  0  0  0
    3.2528    0.0423   -1.9762 N   0  0  0  0  0  0  0  0  0  0  0  0
    3.8752    0.2648   -0.7701 C   0  0  0  0  0  0  0  0  0  0  0  0
    5.2260    0.4916   -0.4813 C   0  0  0  0  0  0  0  0  0  0  0  0
    5.5782    0.6887    0.8566 C   0  0  0  0  0  0  0  0  0  0  0  0
    4.6165    0.6594    1.8633 C   0  0  0  0  0  0  0  0  0  0  0  0
    3.2693    0.4314    1.5580 C   0  0  0  0  0  0  0  0  0  0  0  0
    2.8849    0.2294    0.2152 C   0  0  0  0  0  0  0  0  0  0  0  0
    1.6383   -0.0220   -0.4424 C   0  0  0  0  0  0  0  0  0  0  0  0
    0.3260   -0.1430    0.1541 C   0  0  0  0  0  0  0  0  0  0  0  0
   -0.6852   -0.3830   -0.6224 N   0  0  0  0  0  0  0  0  0  0  0  0
   -1.9275   -0.4641   -0.0400 N   0  0  0  0  0  0  0  0  0  0  0  0
   -2.3437    0.4832    1.0019 C   0  0  0  0  0  0  0  0  0  0  0  0
   -3.7806    0.9596    0.8106 C   0  0  0  0  0  0  0  0  0  0  0  0
   -4.7652   -0.2049    0.7026 C   0  0  0  0  0  0  0  0  0  0  0  0
   -4.1914   -1.4153   -0.0389 C   0  0  0  0  0  0  0  0  0  0  0  0
   -2.9732   -1.0520   -0.8770 C   0  0  0  0  0  0  0  0  0  0  0  0
    0.2165   -0.4535   -2.4578 H   0  0  0  0  0  0  0  0  0  0  0  0
    3.7091    0.0087   -2.8756 H   0  0  0  0  0  0  0  0  0  0  0  0
    5.9777    0.5144   -1.2638 H   0  0  0  0  0  0  0  0  0  0  0  0
    6.6200    0.8670    1.1138 H   0  0  0  0  0  0  0  0  0  0  0  0
    4.9139    0.8145    2.8977 H   0  0  0  0  0  0  0  0  0  0  0  0
    2.5334    0.4108    2.3562 H   0  0  0  0  0  0  0  0  0  0  0  0
    0.2423   -0.0397    1.2485 H   0  0  0  0  0  0  0  0  0  0  0  0
   -2.2391   -0.0328    1.9626 H   0  0  0  0  0  0  0  0  0  0  0  0
   -1.6757    1.3512    0.9992 H   0  0  0  0  0  0  0  0  0  0  0  0
   -3.8382    1.5576   -0.1082 H   0  0  0  0  0  0  0  0  0  0  0  0
   -4.0744    1.6214    1.6330 H   0  0  0  0  0  0  0  0  0  0  0  0
   -5.0784   -0.5203    1.7053 H   0  0  0  0  0  0  0  0  0  0  0  0
   -5.6727    0.1452    0.1961 H   0  0  0  0  0  0  0  0  0  0  0  0
   -4.9656   -1.8694   -0.6674 H   0  0  0  0  0  0  0  0  0  0  0  0
   -3.9021   -2.1743    0.6996 H   0  0  0  0  0  0  0  0  0  0  0  0
   -2.5657   -1.9478   -1.3585 H   0  0  0  0  0  0  0  0  0  0  0  0
   -3.2344   -0.3295   -1.6589 H   0  0  0  0  0  0  0  0  0  0  0  0
  1  2  1  0
  2  3  1  0
  3  4  1  0
  4  5  2  0
  5  6  1  0
  6  7  2  0
  7  8  1  0
  8  9  2  0
  9 10  1  0
 10 11  1  0
 11 12  2  3
 12 13  1  0
 13 14  1  0
 14 15  1  0
 15 16  1  0
 16 17  1  0
 17 18  1  0
 10  2  2  0
 18 13  1  0
  9  4  1  0
  1 19  1  0
  3 20  1  0
  5 21  1  0
  6 22  1  0
  7 23  1  0
  8 24  1  0
 11 25  1  0
 14 26  1  0
 14 27  1  0
 15 28  1  0
 15 29  1  0
 16 30  1  0
 16 31  1  0
 17 32  1  0
 17 33  1  0
 18 34  1  0
 18 35  1  0
M  END
$$$$
