
     RDKit          3D

 52 55  0  0  0  0  0  0  0  0999 V2000
    7.3890   -2.3051    2.3502 C   0  0  0  0  0  0  0  0  0  0  0  0
    7.1078   -0.8528    2.0135 C   0  0  0  0  0  0  0  0  0  0  0  0
    5.7325   -0.6907    1.6379 O   0  0  0  0  0  0  0  0  0  0  0  0
    5.4402   -0.9084    0.3224 C   0  0  0  0  0  0  0  0  0  0  0  0
    6.2768   -1.2200   -0.5172 O   0  0  0  0  0  0  0  0  0  0  0  0
    4.0200   -0.6892    0.0798 C   0  0  0  0  0  0  0  0  0  0  0  0
    3.5401   -0.4093   -1.5457 S   0  0  0  0  0  0  0  0  0  0  0  0
    1.9180   -0.1704   -1.1134 C   0  0  0  0  0  0  0  0  0  0  0  0
    0.9897    0.1263   -2.0484 N   0  0  0  0  0  0  0  0  0  0  0  0
   -0.2290    0.2807   -1.6170 C   0  0  0  0  0  0  0  0  0  0  0  0
   -1.3515    0.5934   -2.5845 C   0  0  0  0  0  0  0  0  0  0  0  0
   -1.0099    0.7236   -4.2789 S   0  0  0  0  0  0  0  0  0  0  0  0
   -0.5732   -0.9940   -4.6800 C   0  0  0  0  0  0  0  0  0  0  0  0
   -1.7743   -1.8956   -4.5666 C   0  0  0  0  0  0  0  0  0  0  0  0
   -2.6003   -2.1206   -5.4364 O   0  0  0  0  0  0  0  0  0  0  0  0
   -1.9069   -2.4562   -3.3450 O   0  0  0  0  0  0  0  0  0  0  0  0
   -2.5941    0.7856   -2.1218 C   0  0  0  0  0  0  0  0  0  0  0  0
   -2.8928    0.6844   -0.7154 C   0  0  0  0  0  0  0  0  0  0  0  0
   -4.3008    0.8356   -0.2471 C   0  0  0  0  0  0  0  0  0  0  0  0
   -5.2125    0.2543   -0.8350 O   0  0  0  0  0  0  0  0  0  0  0  0
   -4.6171    1.6671    0.9439 C   0  0  0  0  0  0  0  0  0  0  0  0
   -3.7898    2.7270    1.3444 C   0  0  0  0  0  0  0  0  0  0  0  0
   -4.1115    3.4793    2.4777 C   0  0  0  0  0  0  0  0  0  0  0  0
   -5.2622    3.1877    3.2093 C   0  0  0  0  0  0  0  0  0  0  0  0
   -6.1036    2.1532    2.8031 C   0  0  0  0  0  0  0  0  0  0  0  0
   -5.7891    1.4065    1.6700 C   0  0  0  0  0  0  0  0  0  0  0  0
   -6.6813    0.4263    1.3245 O   0  0  0  0  0  0  0  0  0  0  0  0
   -1.9170    0.3631    0.1457 C   0  0  0  0  0  0  0  0  0  0  0  0
   -0.5958    0.1705   -0.2604 N   0  0  0  0  0  0  0  0  0  0  0  0
    0.3612   -0.1222    0.7313 C   0  0  0  0  0  0  0  0  0  0  0  0
    0.0940   -0.1870    1.9305 O   0  0  0  0  0  0  0  0  0  0  0  0
    1.7147   -0.3215    0.2350 C   0  0  0  0  0  0  0  0  0  0  0  0
    2.9266   -0.6676    0.9472 C   0  0  0  0  0  0  0  0  0  0  0  0
    2.9835   -0.9531    2.4183 C   0  0  0  0  0  0  0  0  0  0  0  0
    7.2326   -2.9483    1.4784 H   0  0  0  0  0  0  0  0  0  0  0  0
    8.4187   -2.4306    2.6966 H   0  0  0  0  0  0  0  0  0  0  0  0
    6.7075   -2.6571    3.1317 H   0  0  0  0  0  0  0  0  0  0  0  0
    7.2712   -0.2321    2.9006 H   0  0  0  0  0  0  0  0  0  0  0  0
    7.7827   -0.4817    1.2338 H   0  0  0  0  0  0  0  0  0  0  0  0
    0.2412   -1.3773   -4.0593 H   0  0  0  0  0  0  0  0  0  0  0  0
   -0.2192   -1.0366   -5.7153 H   0  0  0  0  0  0  0  0  0  0  0  0
   -2.7300   -2.9860   -3.4203 H   0  0  0  0  0  0  0  0  0  0  0  0
   -3.4201    1.0088   -2.7940 H   0  0  0  0  0  0  0  0  0  0  0  0
   -2.8986    2.9975    0.7847 H   0  0  0  0  0  0  0  0  0  0  0  0
   -3.4667    4.2984    2.7893 H   0  0  0  0  0  0  0  0  0  0  0  0
   -5.5116    3.7735    4.0910 H   0  0  0  0  0  0  0  0  0  0  0  0
   -7.0094    1.9333    3.3626 H   0  0  0  0  0  0  0  0  0  0  0  0
   -6.4576    0.1140    0.4194 H   0  0  0  0  0  0  0  0  0  0  0  0
   -2.1168    0.2289    1.2076 H   0  0  0  0  0  0  0  0  0  0  0  0
    2.0345   -1.3435    2.7941 H   0  0  0  0  0  0  0  0  0  0  0  0
    3.2299   -0.0418    2.9717 H   0  0  0  0  0  0  0  0  0  0  0  0
    3.7299   -1.7206    2.6459 H   0  0  0  0  0  0  0  0  0  0  0  0
  1  2  1  0
  2  3  1  0
  3  4  1  0
  4  5  2  0
  4  6  1  0
  6  7  1  0
  7  8  1  0
  8  9  1  0
  9 10  2  0
 10 11  1  0
 11 12  1  0
 12 13  1  0
 13 14  1  0
 14 15  2  0
 14 16  1  0
 11 17  2  0
 17 18  1  0
 18 19  1  0
 19 20  2  0
 19 21  1  0
 21 22  2  0
 22 23  1  0
 23 24  2  0
 24 25  1  0
 25 26  2  0
 26 27  1  0
 18 28  2  0
 28 29  1  0
 29 30  1  0
 30 31  2  0
 30 32  1  0
 32 33  1  0
 33 34  1  0
 33  6  2  0
 32  8  2  0
 29 10  1  0
 26 21  1  0
  1 35  1  0
  1 36  1  0
  1 37  1  0
  2 38  1  0
  2 39  1  0
 13 40  1  0
 13 41  1  0
 16 42  1  0
 17 43  1  0
 22 44  1  0
 23 45  1  0
 24 46  1  0
 25 47  1  0
 27 48  1  0
 28 49  1  0
 34 50  1  0
 34 51  1  0
 34 52  1  0
M  END
$$$$
