
     RDKit          3D

 43 45  0  0  0  0  0  0  0  0999 V2000
   -6.2381   -0.6117    0.7159 C   0  0  0  0  0  0  0  0  0  0  0  0
   -4.7827   -0.6865    0.8318 N   0  0  0  0  0  0  0  0  0  0  0  0
   -4.2172   -1.4987   -0.2717 C   0  0  0  0  0  0  0  0  0  0  0  0
   -2.6720   -1.5625   -0.2276 C   0  0  0  0  0  0  0  0  0  0  0  0
   -2.1053   -0.1899   -0.2414 N   0  0  0  0  0  0  0  0  0  0  0  0
   -0.7107   -0.1858   -0.3929 C   0  0  0  0  0  0  0  0  0  0  0  0
    0.1579   -0.4015    0.6885 C   0  0  0  0  0  0  0  0  0  0  0  0
    1.5504   -0.3939    0.5203 C   0  0  0  0  0  0  0  0  0  0  0  0
    2.1090   -0.1592   -0.7415 C   0  0  0  0  0  0  0  0  0  0  0  0
    3.5763   -0.1637   -0.9589 C   0  0  0  0  0  0  0  0  0  0  0  0
    4.0167   -0.6215   -2.0094 O   0  0  0  0  0  0  0  0  0  0  0  0
    4.5198    0.3656    0.0575 C   0  0  0  0  0  0  0  0  0  0  0  0
    4.2021    1.4759    0.8502 C   0  0  0  0  0  0  0  0  0  0  0  0
    5.1253    1.9509    1.7862 C   0  0  0  0  0  0  0  0  0  0  0  0
    6.3648    1.3245    1.9183 C   0  0  0  0  0  0  0  0  0  0  0  0
    7.6099    1.9704    3.1851 Br  0  0  0  0  0  0  0  0  0  0  0  0
    6.6959    0.2320    1.1181 C   0  0  0  0  0  0  0  0  0  0  0  0
    5.7749   -0.2436    0.1820 C   0  0  0  0  0  0  0  0  0  0  0  0
    1.2752    0.0292   -1.8435 C   0  0  0  0  0  0  0  0  0  0  0  0
   -0.1116    0.0118   -1.6508 C   0  0  0  0  0  0  0  0  0  0  0  0
   -0.9427    0.2418   -2.8127 N   0  0  0  0  0  4  0  0  0  0  0  0
   -1.0227    1.4099   -3.2202 O   0  0  0  0  0  0  0  0  0  0  0  0
   -1.4583   -0.7501   -3.3485 O   0  0  0  0  0  1  0  0  0  0  0  0
   -2.6433    0.6324    0.8663 C   0  0  0  0  0  0  0  0  0  0  0  0
   -4.1885    0.6697    0.7917 C   0  0  0  0  0  0  0  0  0  0  0  0
   -6.5585   -0.1468   -0.2235 H   0  0  0  0  0  0  0  0  0  0  0  0
   -6.6786   -1.6132    0.7726 H   0  0  0  0  0  0  0  0  0  0  0  0
   -6.6589   -0.0349    1.5468 H   0  0  0  0  0  0  0  0  0  0  0  0
   -4.5273   -1.0885   -1.2424 H   0  0  0  0  0  0  0  0  0  0  0  0
   -4.6047   -2.5224   -0.2068 H   0  0  0  0  0  0  0  0  0  0  0  0
   -2.3217   -2.1337   -1.0955 H   0  0  0  0  0  0  0  0  0  0  0  0
   -2.3520   -2.0973    0.6766 H   0  0  0  0  0  0  0  0  0  0  0  0
   -0.2399   -0.6027    1.6808 H   0  0  0  0  0  0  0  0  0  0  0  0
    2.1812   -0.5961    1.3834 H   0  0  0  0  0  0  0  0  0  0  0  0
    3.2535    1.9949    0.7389 H   0  0  0  0  0  0  0  0  0  0  0  0
    4.8743    2.8138    2.3984 H   0  0  0  0  0  0  0  0  0  0  0  0
    7.6658   -0.2507    1.2086 H   0  0  0  0  0  0  0  0  0  0  0  0
    6.0382   -1.0888   -0.4518 H   0  0  0  0  0  0  0  0  0  0  0  0
    1.6975    0.1876   -2.8342 H   0  0  0  0  0  0  0  0  0  0  0  0
   -2.2617    1.6577    0.7888 H   0  0  0  0  0  0  0  0  0  0  0  0
   -2.3439    0.2286    1.8416 H   0  0  0  0  0  0  0  0  0  0  0  0
   -4.4893    1.1910   -0.1272 H   0  0  0  0  0  0  0  0  0  0  0  0
   -4.5588    1.2561    1.6410 H   0  0  0  0  0  0  0  0  0  0  0  0
  1  2  1  0
  2  3  1  0
  3  4  1  0
  4  5  1  0
  5  6  1  0
  6  7  2  0
  7  8  1  0
  8  9  2  0
  9 10  1  0
 10 11  2  0
 10 12  1  0
 12 13  2  0
 13 14  1  0
 14 15  2  0
 15 16  1  0
 15 17  1  0
 17 18  2  0
  9 19  1  0
 19 20  2  0
 20 21  1  0
 21 22  2  0
 21 23  1  0
  5 24  1  0
 24 25  1  0
 25  2  1  0
 20  6  1  0
 18 12  1  0
  1 26  1  0
  1 27  1  0
  1 28  1  0
  3 29  1  0
  3 30  1  0
  4 31  1  0
  4 32  1  0
  7 33  1  0
  8 34  1  0
 13 35  1  0
 14 36  1  0
 17 37  1  0
 18 38  1  0
 19 39  1  0
 24 40  1  0
 24 41  1  0
 25 42  1  0
 25 43  1  0
M  CHG  2  21   1  23  -1
M  END
$$$$
