
     RDKit          3D

 67 70  0  0  0  0  0  0  0  0999 V2000
   -2.7827    1.5078   -2.0222 C   0  0  0  0  0  0  0  0  0  0  0  0
   -1.4554    1.7583   -1.5507 O   0  0  0  0  0  0  0  0  0  0  0  0
   -1.3628    1.6216   -0.1887 C   0  0  0  0  0  0  0  0  0  0  0  0
   -2.0904    2.4885    0.6412 C   0  0  0  0  0  0  0  0  0  0  0  0
   -1.9902    2.4001    2.0325 C   0  0  0  0  0  0  0  0  0  0  0  0
   -2.6678    3.2083    2.9111 O   0  0  0  0  0  0  0  0  0  0  0  0
   -3.4552    4.2597    2.3668 C   0  0  0  0  0  0  0  0  0  0  0  0
   -1.1460    1.4303    2.5968 C   0  0  0  0  0  0  0  0  0  0  0  0
   -0.9863    1.2755    4.0421 C   0  0  0  0  0  0  0  0  0  0  0  0
   -0.1582    0.3543    4.5408 C   0  0  0  0  0  0  0  0  0  0  0  0
    0.6186   -0.5462    3.6798 C   0  0  0  0  0  0  0  0  0  0  0  0
    1.3635   -1.3893    4.1655 O   0  0  0  0  0  0  0  0  0  0  0  0
    0.4437   -0.3937    2.3147 O   0  0  0  0  0  0  0  0  0  0  0  0
   -0.4114    0.5888    1.7501 C   0  0  0  0  0  0  0  0  0  0  0  0
   -0.4781    0.6731    0.3456 C   0  0  0  0  0  0  0  0  0  0  0  0
    0.3922   -0.2314   -0.5308 C   0  0  0  0  0  0  0  0  0  0  0  0
    1.4039    0.5603   -1.4051 C   0  0  0  0  0  0  0  0  0  0  0  0
    2.3027    1.5375   -0.6242 C   0  0  0  0  0  0  0  0  0  0  0  0
    3.0154    0.9243    0.4993 N   0  0  0  0  0  0  0  0  0  0  0  0
    4.0915    0.0081    0.0999 C   0  0  0  0  0  0  0  0  0  0  0  0
    5.4936    0.5127    0.4375 C   0  0  0  0  0  0  0  0  0  0  0  0
    5.6418    0.8212    1.9269 C   0  0  0  0  0  0  0  0  0  0  0  0
    4.3371    1.3178    2.5487 C   0  0  0  0  0  0  0  0  0  0  0  0
    3.4169    1.9252    1.4941 C   0  0  0  0  0  0  0  0  0  0  0  0
   -0.4454   -1.2690   -1.2865 C   0  0  0  0  0  0  0  0  0  0  0  0
   -1.0251   -2.3262   -0.5731 C   0  0  0  0  0  0  0  0  0  0  0  0
   -1.8152   -3.2923   -1.2151 C   0  0  0  0  0  0  0  0  0  0  0  0
   -2.0792   -3.2474   -2.5933 C   0  0  0  0  0  0  0  0  0  0  0  0
   -2.8620   -4.2098   -3.2428 N   0  0  0  0  0  0  0  0  0  0  0  0
   -3.5319   -3.8262   -4.4844 C   0  0  0  0  0  0  0  0  0  0  0  0
   -3.5343   -5.2375   -2.4525 C   0  0  0  0  0  0  0  0  0  0  0  0
   -1.4710   -2.1931   -3.2957 C   0  0  0  0  0  0  0  0  0  0  0  0
   -0.6753   -1.2239   -2.6629 C   0  0  0  0  0  0  0  0  0  0  0  0
   -2.7259    1.3268   -3.0999 H   0  0  0  0  0  0  0  0  0  0  0  0
   -3.4184    2.3853   -1.8648 H   0  0  0  0  0  0  0  0  0  0  0  0
   -3.2239    0.6217   -1.5517 H   0  0  0  0  0  0  0  0  0  0  0  0
   -2.7145    3.2405    0.1721 H   0  0  0  0  0  0  0  0  0  0  0  0
   -4.2792    3.8637    1.7636 H   0  0  0  0  0  0  0  0  0  0  0  0
   -3.8926    4.8152    3.2021 H   0  0  0  0  0  0  0  0  0  0  0  0
   -2.8385    4.9566    1.7886 H   0  0  0  0  0  0  0  0  0  0  0  0
   -1.5499    1.9256    4.7029 H   0  0  0  0  0  0  0  0  0  0  0  0
   -0.0229    0.2223    5.6071 H   0  0  0  0  0  0  0  0  0  0  0  0
    1.0296   -0.8446    0.1195 H   0  0  0  0  0  0  0  0  0  0  0  0
    0.8867    1.1457   -2.1736 H   0  0  0  0  0  0  0  0  0  0  0  0
    2.0314   -0.1532   -1.9546 H   0  0  0  0  0  0  0  0  0  0  0  0
    1.6645    2.3508   -0.2562 H   0  0  0  0  0  0  0  0  0  0  0  0
    3.0137    2.0082   -1.3159 H   0  0  0  0  0  0  0  0  0  0  0  0
    4.0515   -0.2354   -0.9689 H   0  0  0  0  0  0  0  0  0  0  0  0
    3.9279   -0.9409    0.6287 H   0  0  0  0  0  0  0  0  0  0  0  0
    6.2441   -0.2279    0.1382 H   0  0  0  0  0  0  0  0  0  0  0  0
    5.7028    1.4203   -0.1427 H   0  0  0  0  0  0  0  0  0  0  0  0
    6.4257    1.5794    2.0515 H   0  0  0  0  0  0  0  0  0  0  0  0
    5.9861   -0.0685    2.4686 H   0  0  0  0  0  0  0  0  0  0  0  0
    4.5550    2.0514    3.3329 H   0  0  0  0  0  0  0  0  0  0  0  0
    3.8236    0.4820    3.0420 H   0  0  0  0  0  0  0  0  0  0  0  0
    2.5230    2.3200    1.9906 H   0  0  0  0  0  0  0  0  0  0  0  0
    3.9239    2.7733    1.0163 H   0  0  0  0  0  0  0  0  0  0  0  0
   -0.8632   -2.4130    0.5003 H   0  0  0  0  0  0  0  0  0  0  0  0
   -2.2241   -4.0805   -0.5901 H   0  0  0  0  0  0  0  0  0  0  0  0
   -4.2114   -4.6118   -4.8306 H   0  0  0  0  0  0  0  0  0  0  0  0
   -4.1265   -2.9170   -4.3446 H   0  0  0  0  0  0  0  0  0  0  0  0
   -2.8116   -3.6703   -5.2939 H   0  0  0  0  0  0  0  0  0  0  0  0
   -2.8171   -5.8104   -1.8543 H   0  0  0  0  0  0  0  0  0  0  0  0
   -4.0319   -5.9668   -3.1023 H   0  0  0  0  0  0  0  0  0  0  0  0
   -4.2956   -4.7990   -1.7975 H   0  0  0  0  0  0  0  0  0  0  0  0
   -1.5886   -2.1021   -4.3716 H   0  0  0  0  0  0  0  0  0  0  0  0
   -0.2507   -0.4351   -3.2770 H   0  0  0  0  0  0  0  0  0  0  0  0
  1  2  1  0
  2  3  1  0
  3  4  2  0
  4  5  1  0
  5  6  1  0
  6  7  1  0
  5  8  2  0
  8  9  1  0
  9 10  2  0
 10 11  1  0
 11 12  2  0
 11 13  1  0
 13 14  1  0
 14 15  2  0
 15 16  1  0
 16 17  1  0
 17 18  1  0
 18 19  1  0
 19 20  1  0
 20 21  1  0
 21 22  1  0
 22 23  1  0
 23 24  1  0
 16 25  1  0
 25 26  2  0
 26 27  1  0
 27 28  2  0
 28 29  1  0
 29 30  1  0
 29 31  1  0
 28 32  1  0
 32 33  2  0
 15  3  1  0
 24 19  1  0
 33 25  1  0
 14  8  1  0
  1 34  1  0
  1 35  1  0
  1 36  1  0
  4 37  1  0
  7 38  1  0
  7 39  1  0
  7 40  1  0
  9 41  1  0
 10 42  1  0
 16 43  1  0
 17 44  1  0
 17 45  1  0
 18 46  1  0
 18 47  1  0
 20 48  1  0
 20 49  1  0
 21 50  1  0
 21 51  1  0
 22 52  1  0
 22 53  1  0
 23 54  1  0
 23 55  1  0
 24 56  1  0
 24 57  1  0
 26 58  1  0
 27 59  1  0
 30 60  1  0
 30 61  1  0
 30 62  1  0
 31 63  1  0
 31 64  1  0
 31 65  1  0
 32 66  1  0
 33 67  1  0
M  END
$$$$
