
     RDKit          3D

 47 49  0  0  0  0  0  0  0  0999 V2000
   -0.8171    4.7154    1.8772 C   0  0  0  0  0  0  0  0  0  0  0  0
   -1.4185    4.2319    0.6710 O   0  0  0  0  0  0  0  0  0  0  0  0
   -0.8165    3.1392    0.1279 C   0  0  0  0  0  0  0  0  0  0  0  0
    0.2104    2.6142    0.5526 O   0  0  0  0  0  0  0  0  0  0  0  0
   -1.5686    2.6734   -1.1108 C   0  0  0  0  0  0  0  0  0  0  0  0
   -1.5307    1.2145   -1.2003 N   0  0  0  0  0  0  0  0  0  0  0  0
   -0.4925    0.4647   -1.7418 C   0  0  0  0  0  0  0  0  0  0  0  0
    0.7562    1.0401   -2.3298 C   0  0  0  0  0  0  0  0  0  0  0  0
    2.0217    0.4711   -1.6867 C   0  0  0  0  0  0  0  0  0  0  0  0
    2.8338   -0.1591   -2.3590 O   0  0  0  0  0  0  0  0  0  0  0  0
    2.1512    0.8050   -0.3476 N   0  0  0  0  0  0  0  0  0  0  0  0
    3.1704    0.4158    0.5437 C   0  0  0  0  0  0  0  0  0  0  0  0
    3.0878    0.9040    1.8540 C   0  0  0  0  0  0  0  0  0  0  0  0
    4.0518    0.5599    2.8051 C   0  0  0  0  0  0  0  0  0  0  0  0
    5.1056   -0.2775    2.4479 C   0  0  0  0  0  0  0  0  0  0  0  0
    6.2930   -0.7060    3.6144 Cl  0  0  0  0  0  0  0  0  0  0  0  0
    5.2002   -0.7695    1.1515 C   0  0  0  0  0  0  0  0  0  0  0  0
    4.2340   -0.4224    0.2007 C   0  0  0  0  0  0  0  0  0  0  0  0
   -0.7922   -0.8343   -1.5948 C   0  0  0  0  0  0  0  0  0  0  0  0
    0.0167   -1.8708   -1.9353 O   0  0  0  0  0  0  0  0  0  0  0  0
   -1.9924   -1.0016   -0.9236 N   0  0  0  0  0  0  0  0  0  0  0  0
   -2.6324   -2.2340   -0.6137 C   0  0  0  0  0  0  0  0  0  0  0  0
   -2.6096   -3.2936   -1.5348 C   0  0  0  0  0  0  0  0  0  0  0  0
   -3.2114   -4.5204   -1.2356 C   0  0  0  0  0  0  0  0  0  0  0  0
   -3.8388   -4.7011   -0.0076 C   0  0  0  0  0  0  0  0  0  0  0  0
   -4.5747   -6.2082    0.3663 Cl  0  0  0  0  0  0  0  0  0  0  0  0
   -3.8651   -3.6677    0.9221 C   0  0  0  0  0  0  0  0  0  0  0  0
   -3.2623   -2.4423    0.6201 C   0  0  0  0  0  0  0  0  0  0  0  0
   -2.5122    0.3230   -0.6503 C   0  0  0  0  0  0  0  0  0  0  0  0
   -3.9441    0.7884    0.0695 S   0  0  0  0  0  0  0  0  0  0  0  0
    0.0498    5.3367    1.6288 H   0  0  0  0  0  0  0  0  0  0  0  0
   -1.5524    5.3327    2.4028 H   0  0  0  0  0  0  0  0  0  0  0  0
   -0.5253    3.8923    2.5405 H   0  0  0  0  0  0  0  0  0  0  0  0
   -2.6072    3.0106   -1.0543 H   0  0  0  0  0  0  0  0  0  0  0  0
   -1.1242    3.1237   -2.0019 H   0  0  0  0  0  0  0  0  0  0  0  0
    0.8107    2.1285   -2.2344 H   0  0  0  0  0  0  0  0  0  0  0  0
    0.7854    0.8229   -3.4041 H   0  0  0  0  0  0  0  0  0  0  0  0
    1.4272    1.4091    0.0493 H   0  0  0  0  0  0  0  0  0  0  0  0
    2.2721    1.5593    2.1500 H   0  0  0  0  0  0  0  0  0  0  0  0
    3.9718    0.9475    3.8174 H   0  0  0  0  0  0  0  0  0  0  0  0
    6.0197   -1.4246    0.8681 H   0  0  0  0  0  0  0  0  0  0  0  0
    4.3406   -0.8296   -0.7994 H   0  0  0  0  0  0  0  0  0  0  0  0
   -0.1667   -2.5898   -1.3084 H   0  0  0  0  0  0  0  0  0  0  0  0
   -2.1588   -3.1655   -2.5162 H   0  0  0  0  0  0  0  0  0  0  0  0
   -3.1930   -5.3243   -1.9673 H   0  0  0  0  0  0  0  0  0  0  0  0
   -4.3435   -3.8063    1.8871 H   0  0  0  0  0  0  0  0  0  0  0  0
   -3.2601   -1.6754    1.3897 H   0  0  0  0  0  0  0  0  0  0  0  0
  1  2  1  0
  2  3  1  0
  3  4  2  0
  3  5  1  0
  5  6  1  0
  6  7  1  0
  7  8  1  0
  8  9  1  0
  9 10  2  0
  9 11  1  0
 11 12  1  0
 12 13  2  0
 13 14  1  0
 14 15  2  0
 15 16  1  0
 15 17  1  0
 17 18  2  0
  7 19  2  0
 19 20  1  0
 19 21  1  0
 21 22  1  0
 22 23  2  0
 23 24  1  0
 24 25  2  0
 25 26  1  0
 25 27  1  0
 27 28  2  0
 21 29  1  0
 29 30  2  0
 29  6  1  0
 18 12  1  0
 28 22  1  0
  1 31  1  0
  1 32  1  0
  1 33  1  0
  5 34  1  0
  5 35  1  0
  8 36  1  0
  8 37  1  0
 11 38  1  0
 13 39  1  0
 14 40  1  0
 17 41  1  0
 18 42  1  0
 20 43  1  0
 23 44  1  0
 24 45  1  0
 27 46  1  0
 28 47  1  0
M  END
$$$$
