
     RDKit          3D

 52 55  0  0  0  0  0  0  0  0999 V2000
    6.3870   -1.7215    3.4395 C   0  0  0  0  0  0  0  0  0  0  0  0
    5.3074   -1.6082    2.4013 C   0  0  0  0  0  0  0  0  0  0  0  0
    4.7617   -2.7654    1.8259 C   0  0  0  0  0  0  0  0  0  0  0  0
    3.7790   -2.6947    0.8321 C   0  0  0  0  0  0  0  0  0  0  0  0
    3.3810   -1.4202    0.4397 C   0  0  0  0  0  0  0  0  0  0  0  0
    2.4457   -1.1467   -0.5055 O   0  0  0  0  0  0  0  0  0  0  0  0
    2.3363    0.2132   -0.5920 C   0  0  0  0  0  0  0  0  0  0  0  0
    1.3824    0.7520   -1.5419 C   0  0  0  0  0  0  0  0  0  0  0  0
    1.4007    0.4325   -2.7306 O   0  0  0  0  0  0  0  0  0  0  0  0
    0.4383    1.6727   -1.0535 N   0  0  0  0  0  0  0  0  0  0  0  0
   -0.0720    1.6270    0.3149 C   0  0  0  0  0  0  0  0  0  0  0  0
   -1.3426    0.7743    0.3603 C   0  0  0  0  0  0  0  0  0  0  0  0
   -2.4144    1.2919   -0.6280 C   0  0  0  0  0  0  0  0  0  0  0  0
   -2.7948    2.5996   -0.1613 O   0  0  0  0  0  0  0  0  0  0  0  0
   -3.6923    0.4455   -0.6924 C   0  0  0  0  0  0  0  0  0  0  0  0
   -4.8065    0.9373   -1.4013 C   0  0  0  0  0  0  0  0  0  0  0  0
   -5.9953    0.2117   -1.4865 C   0  0  0  0  0  0  0  0  0  0  0  0
   -6.0992   -1.0285   -0.8646 C   0  0  0  0  0  0  0  0  0  0  0  0
   -5.0116   -1.5562   -0.1574 C   0  0  0  0  0  0  0  0  0  0  0  0
   -5.1270   -2.8913    0.5391 C   0  0  0  0  0  0  0  0  0  0  0  0
   -5.5242   -2.7621    1.8351 F   0  0  0  0  0  0  0  0  0  0  0  0
   -3.9504   -3.5768    0.5764 F   0  0  0  0  0  0  0  0  0  0  0  0
   -6.0272   -3.7291   -0.0468 F   0  0  0  0  0  0  0  0  0  0  0  0
   -3.8202   -0.8087   -0.0717 C   0  0  0  0  0  0  0  0  0  0  0  0
   -1.7995    1.4469   -2.0381 C   0  0  0  0  0  0  0  0  0  0  0  0
   -0.5025    2.2546   -2.0016 C   0  0  0  0  0  0  0  0  0  0  0  0
    3.2311    0.8205    0.2829 C   0  0  0  0  0  0  0  0  0  0  0  0
    3.4599    2.2757    0.4663 C   0  0  0  0  0  0  0  0  0  0  0  0
    3.8963   -0.2442    0.9657 C   0  0  0  0  0  0  0  0  0  0  0  0
    4.8868   -0.3376    1.9631 C   0  0  0  0  0  0  0  0  0  0  0  0
    7.3690   -1.7376    2.9569 H   0  0  0  0  0  0  0  0  0  0  0  0
    6.2670   -2.6359    4.0300 H   0  0  0  0  0  0  0  0  0  0  0  0
    6.3479   -0.8778    4.1365 H   0  0  0  0  0  0  0  0  0  0  0  0
    5.1041   -3.7468    2.1504 H   0  0  0  0  0  0  0  0  0  0  0  0
    3.3507   -3.5819    0.3820 H   0  0  0  0  0  0  0  0  0  0  0  0
    0.6575    1.2077    1.0099 H   0  0  0  0  0  0  0  0  0  0  0  0
   -0.2722    2.6555    0.6361 H   0  0  0  0  0  0  0  0  0  0  0  0
   -1.0666   -0.2591    0.1154 H   0  0  0  0  0  0  0  0  0  0  0  0
   -1.7310    0.7853    1.3863 H   0  0  0  0  0  0  0  0  0  0  0  0
   -3.5568    2.4880    0.4350 H   0  0  0  0  0  0  0  0  0  0  0  0
   -4.7536    1.9072   -1.8957 H   0  0  0  0  0  0  0  0  0  0  0  0
   -6.8396    0.6168   -2.0397 H   0  0  0  0  0  0  0  0  0  0  0  0
   -7.0321   -1.5859   -0.9359 H   0  0  0  0  0  0  0  0  0  0  0  0
   -2.9938   -1.2400    0.4908 H   0  0  0  0  0  0  0  0  0  0  0  0
   -1.6009    0.4550   -2.4649 H   0  0  0  0  0  0  0  0  0  0  0  0
   -2.4927    1.9600   -2.7154 H   0  0  0  0  0  0  0  0  0  0  0  0
   -0.6961    3.2876   -1.6893 H   0  0  0  0  0  0  0  0  0  0  0  0
   -0.0612    2.3021   -3.0030 H   0  0  0  0  0  0  0  0  0  0  0  0
    4.5177    2.4831    0.6576 H   0  0  0  0  0  0  0  0  0  0  0  0
    2.8785    2.6472    1.3157 H   0  0  0  0  0  0  0  0  0  0  0  0
    3.1696    2.8418   -0.4242 H   0  0  0  0  0  0  0  0  0  0  0  0
    5.3203    0.5636    2.3872 H   0  0  0  0  0  0  0  0  0  0  0  0
  1  2  1  0
  2  3  2  0
  3  4  1  0
  4  5  2  0
  5  6  1  0
  6  7  1  0
  7  8  1  0
  8  9  2  0
  8 10  1  0
 10 11  1  0
 11 12  1  0
 12 13  1  0
 13 14  1  0
 13 15  1  0
 15 16  2  0
 16 17  1  0
 17 18  2  0
 18 19  1  0
 19 20  1  0
 20 21  1  0
 20 22  1  0
 20 23  1  0
 19 24  2  0
 13 25  1  0
 25 26  1  0
  7 27  2  0
 27 28  1  0
 27 29  1  0
 29 30  2  0
 30  2  1  0
 29  5  1  0
 26 10  1  0
 24 15  1  0
  1 31  1  0
  1 32  1  0
  1 33  1  0
  3 34  1  0
  4 35  1  0
 11 36  1  0
 11 37  1  0
 12 38  1  0
 12 39  1  0
 14 40  1  0
 16 41  1  0
 17 42  1  0
 18 43  1  0
 24 44  1  0
 25 45  1  0
 25 46  1  0
 26 47  1  0
 26 48  1  0
 28 49  1  0
 28 50  1  0
 28 51  1  0
 30 52  1  0
M  END
$$$$
