
     RDKit          3D

 52 55  0  0  0  0  0  0  0  0999 V2000
    7.2011    1.5764   -1.0145 C   0  0  0  0  0  0  0  0  0  0  0  0
    6.1665    2.5428   -1.5703 C   0  0  0  0  0  0  0  0  0  0  0  0
    4.7652    2.0034   -1.4332 C   0  0  0  0  0  0  0  0  0  0  0  0
    4.0155    2.2616   -0.2795 C   0  0  0  0  0  0  0  0  0  0  0  0
    2.7234    1.7478   -0.1453 C   0  0  0  0  0  0  0  0  0  0  0  0
    2.1655    0.9635   -1.1610 C   0  0  0  0  0  0  0  0  0  0  0  0
    0.7936    0.4323   -0.9858 C   0  0  0  0  0  0  0  0  0  0  0  0
    0.0385    0.7344    0.0269 N   0  0  0  0  0  0  0  0  0  0  0  0
   -1.1353    0.0525   -0.1249 N   0  0  0  0  0  0  0  0  0  0  0  0
   -2.2108    0.2845    0.7300 C   0  0  0  0  0  0  0  0  0  0  0  0
   -2.0914    1.1885    1.8035 C   0  0  0  0  0  0  0  0  0  0  0  0
   -3.1502    1.4466    2.6803 C   0  0  0  0  0  0  0  0  0  0  0  0
   -4.3675    0.8005    2.4851 C   0  0  0  0  0  0  0  0  0  0  0  0
   -5.7222    1.1193    3.5802 S   0  0  0  0  0  6  0  0  0  0  0  0
   -6.4744    2.4157    2.8088 N   0  0  0  0  0  0  0  0  0  0  0  0
   -5.2011    1.6525    4.8178 O   0  0  0  0  0  0  0  0  0  0  0  0
   -6.6266   -0.0048    3.5370 O   0  0  0  0  0  0  0  0  0  0  0  0
   -4.5221   -0.1115    1.4429 C   0  0  0  0  0  0  0  0  0  0  0  0
   -3.4503   -0.3595    0.5761 C   0  0  0  0  0  0  0  0  0  0  0  0
   -1.1144   -0.8780   -1.2557 C   0  0  0  0  0  0  0  0  0  0  0  0
   -1.0648   -2.3416   -0.8354 C   0  0  0  0  0  0  0  0  0  0  0  0
   -1.6906   -3.3119   -1.6396 C   0  0  0  0  0  0  0  0  0  0  0  0
   -1.6404   -4.6630   -1.2909 C   0  0  0  0  0  0  0  0  0  0  0  0
   -0.9614   -5.0512   -0.1427 C   0  0  0  0  0  0  0  0  0  0  0  0
   -0.9135   -6.3483    0.1877 F   0  0  0  0  0  0  0  0  0  0  0  0
   -0.3293   -4.1146    0.6639 C   0  0  0  0  0  0  0  0  0  0  0  0
   -0.3770   -2.7633    0.3172 C   0  0  0  0  0  0  0  0  0  0  0  0
    0.1609   -0.4793   -2.0010 C   0  0  0  0  0  0  0  0  0  0  0  0
    2.9114    0.6986   -2.3136 C   0  0  0  0  0  0  0  0  0  0  0  0
    4.2047    1.2142   -2.4457 C   0  0  0  0  0  0  0  0  0  0  0  0
    8.2070    1.9930   -1.1271 H   0  0  0  0  0  0  0  0  0  0  0  0
    7.1708    0.6161   -1.5404 H   0  0  0  0  0  0  0  0  0  0  0  0
    7.0316    1.3817    0.0500 H   0  0  0  0  0  0  0  0  0  0  0  0
    6.3807    2.7486   -2.6261 H   0  0  0  0  0  0  0  0  0  0  0  0
    6.2432    3.5065   -1.0522 H   0  0  0  0  0  0  0  0  0  0  0  0
    4.4324    2.8643    0.5248 H   0  0  0  0  0  0  0  0  0  0  0  0
    2.1580    1.9621    0.7595 H   0  0  0  0  0  0  0  0  0  0  0  0
   -1.1447    1.7007    1.9678 H   0  0  0  0  0  0  0  0  0  0  0  0
   -3.0067    2.1428    3.5031 H   0  0  0  0  0  0  0  0  0  0  0  0
   -6.0980    2.5982    1.8791 H   0  0  0  0  0  0  0  0  0  0  0  0
   -6.4092    3.2367    3.4130 H   0  0  0  0  0  0  0  0  0  0  0  0
   -5.4636   -0.6378    1.2981 H   0  0  0  0  0  0  0  0  0  0  0  0
   -3.6075   -1.0801   -0.2211 H   0  0  0  0  0  0  0  0  0  0  0  0
   -1.9819   -0.7067   -1.9057 H   0  0  0  0  0  0  0  0  0  0  0  0
   -2.2240   -3.0224   -2.5427 H   0  0  0  0  0  0  0  0  0  0  0  0
   -2.1254   -5.4148   -1.9053 H   0  0  0  0  0  0  0  0  0  0  0  0
    0.1940   -4.4380    1.5580 H   0  0  0  0  0  0  0  0  0  0  0  0
    0.1183   -2.0359    0.9597 H   0  0  0  0  0  0  0  0  0  0  0  0
    0.8092   -1.3201   -2.2620 H   0  0  0  0  0  0  0  0  0  0  0  0
   -0.0749    0.1044   -2.8972 H   0  0  0  0  0  0  0  0  0  0  0  0
    2.5123    0.0967   -3.1240 H   0  0  0  0  0  0  0  0  0  0  0  0
    4.7752    0.9955   -3.3464 H   0  0  0  0  0  0  0  0  0  0  0  0
  1  2  1  0
  2  3  1  0
  3  4  2  0
  4  5  1  0
  5  6  2  0
  6  7  1  0
  7  8  2  0
  8  9  1  0
  9 10  1  0
 10 11  2  0
 11 12  1  0
 12 13  2  0
 13 14  1  0
 14 15  1  0
 14 16  2  0
 14 17  2  0
 13 18  1  0
 18 19  2  0
  9 20  1  0
 20 21  1  0
 21 22  2  0
 22 23  1  0
 23 24  2  0
 24 25  1  0
 24 26  1  0
 26 27  2  0
 20 28  1  0
  6 29  1  0
 29 30  2  0
 30  3  1  0
 28  7  1  0
 19 10  1  0
 27 21  1  0
  1 31  1  0
  1 32  1  0
  1 33  1  0
  2 34  1  0
  2 35  1  0
  4 36  1  0
  5 37  1  0
 11 38  1  0
 12 39  1  0
 15 40  1  0
 15 41  1  0
 18 42  1  0
 19 43  1  0
 20 44  1  0
 22 45  1  0
 23 46  1  0
 26 47  1  0
 27 48  1  0
 28 49  1  0
 28 50  1  0
 29 51  1  0
 30 52  1  0
M  END
$$$$
