
     RDKit          3D

 38 39  0  0  0  0  0  0  0  0999 V2000
    5.9159    0.8389   -1.9112 C   0  0  0  0  0  0  0  0  0  0  0  0
    4.6427    0.0959   -1.5394 C   0  0  0  0  0  0  0  0  0  0  0  0
    4.3648    0.1775   -0.0398 C   0  0  0  0  0  0  0  0  0  0  0  0
    3.1277   -0.5530    0.3172 C   0  0  0  0  0  0  0  0  0  0  0  0
    2.9765   -1.7890    0.7398 N   0  0  0  0  0  0  0  0  0  0  0  0
    1.6212   -1.9709    0.9221 N   0  0  0  0  0  0  0  0  0  0  0  0
    1.0396   -0.8330    0.5975 C   0  0  0  0  0  0  0  0  0  0  0  0
   -0.3727   -0.4683    0.6025 C   0  0  0  0  0  0  0  0  0  0  0  0
   -0.8061    0.8083    0.2048 C   0  0  0  0  0  0  0  0  0  0  0  0
   -2.1639    1.1382    0.2144 C   0  0  0  0  0  0  0  0  0  0  0  0
   -2.6765    2.3541   -0.1577 O   0  0  0  0  0  0  0  0  0  0  0  0
   -1.7573    3.4143   -0.3808 C   0  0  0  0  0  0  0  0  0  0  0  0
   -3.0963    0.1652    0.6112 C   0  0  0  0  0  0  0  0  0  0  0  0
   -4.4327    0.4969    0.6636 O   0  0  0  0  0  0  0  0  0  0  0  0
   -5.0607    0.1715   -0.5752 C   0  0  0  0  0  0  0  0  0  0  0  0
   -2.6861   -1.1100    1.0330 C   0  0  0  0  0  0  0  0  0  0  0  0
   -3.6790   -1.9713    1.4215 O   0  0  0  0  0  0  0  0  0  0  0  0
   -3.2847   -3.2120    1.9921 C   0  0  0  0  0  0  0  0  0  0  0  0
   -1.3240   -1.4177    1.0157 C   0  0  0  0  0  0  0  0  0  0  0  0
    1.9423    0.1216    0.2005 O   0  0  0  0  0  0  0  0  0  0  0  0
    6.7826    0.4155   -1.3936 H   0  0  0  0  0  0  0  0  0  0  0  0
    6.0956    0.7676   -2.9885 H   0  0  0  0  0  0  0  0  0  0  0  0
    5.8423    1.8991   -1.6486 H   0  0  0  0  0  0  0  0  0  0  0  0
    4.7340   -0.9526   -1.8488 H   0  0  0  0  0  0  0  0  0  0  0  0
    3.8016    0.5194   -2.1022 H   0  0  0  0  0  0  0  0  0  0  0  0
    5.2062   -0.2486    0.5191 H   0  0  0  0  0  0  0  0  0  0  0  0
    4.2740    1.2255    0.2697 H   0  0  0  0  0  0  0  0  0  0  0  0
   -0.0653    1.5344   -0.1146 H   0  0  0  0  0  0  0  0  0  0  0  0
   -2.3353    4.3239   -0.5703 H   0  0  0  0  0  0  0  0  0  0  0  0
   -1.1339    3.5937    0.5016 H   0  0  0  0  0  0  0  0  0  0  0  0
   -1.1436    3.2202   -1.2664 H   0  0  0  0  0  0  0  0  0  0  0  0
   -5.0142   -0.9041   -0.7773 H   0  0  0  0  0  0  0  0  0  0  0  0
   -6.1149    0.4547   -0.5000 H   0  0  0  0  0  0  0  0  0  0  0  0
   -4.6194    0.7322   -1.4064 H   0  0  0  0  0  0  0  0  0  0  0  0
   -4.1907   -3.7353    2.3125 H   0  0  0  0  0  0  0  0  0  0  0  0
   -2.7817   -3.8419    1.2514 H   0  0  0  0  0  0  0  0  0  0  0  0
   -2.6570   -3.0613    2.8768 H   0  0  0  0  0  0  0  0  0  0  0  0
   -0.9708   -2.3997    1.3201 H   0  0  0  0  0  0  0  0  0  0  0  0
  1  2  1  0
  2  3  1  0
  3  4  1  0
  4  5  2  0
  5  6  1  0
  6  7  2  0
  7  8  1  0
  8  9  2  0
  9 10  1  0
 10 11  1  0
 11 12  1  0
 10 13  2  0
 13 14  1  0
 14 15  1  0
 13 16  1  0
 16 17  1  0
 17 18  1  0
 16 19  2  0
  7 20  1  0
 20  4  1  0
 19  8  1  0
  1 21  1  0
  1 22  1  0
  1 23  1  0
  2 24  1  0
  2 25  1  0
  3 26  1  0
  3 27  1  0
  9 28  1  0
 12 29  1  0
 12 30  1  0
 12 31  1  0
 15 32  1  0
 15 33  1  0
 15 34  1  0
 18 35  1  0
 18 36  1  0
 18 37  1  0
 19 38  1  0
M  END
$$$$
