
     RDKit          3D

 55 58  0  0  0  0  0  0  0  0999 V2000
   -7.5553    1.5113    2.8798 C   0  0  0  0  0  0  0  0  0  0  0  0
   -7.6185    1.4362    1.3627 C   0  0  0  0  0  0  0  0  0  0  0  0
   -6.2442    1.1534    0.7585 C   0  0  0  0  0  0  0  0  0  0  0  0
   -6.3124    1.0808   -0.7654 C   0  0  0  0  0  0  0  0  0  0  0  0
   -5.0067    0.8447   -1.3475 N   0  0  0  0  0  0  0  0  0  0  0  0
   -4.4782   -0.4280   -1.4316 C   0  0  0  0  0  0  0  0  0  0  0  0
   -5.0781   -1.4361   -1.0767 O   0  0  0  0  0  0  0  0  0  0  0  0
   -3.0865   -0.5292   -1.9511 C   0  0  0  0  0  0  0  0  0  0  0  0
   -2.5671    0.3922   -2.8662 C   0  0  0  0  0  0  0  0  0  0  0  0
   -1.2529    0.2585   -3.3262 C   0  0  0  0  0  0  0  0  0  0  0  0
   -0.4379   -0.7937   -2.8811 C   0  0  0  0  0  0  0  0  0  0  0  0
    0.9897   -0.9304   -3.3799 C   0  0  0  0  0  0  0  0  0  0  0  0
    1.9900   -0.6747   -2.3357 N   0  0  0  0  0  0  0  0  0  0  0  0
    2.4361    0.6317   -2.0443 C   0  0  0  0  0  0  0  0  0  0  0  0
    1.9735    2.0539   -2.8120 S   0  0  0  0  0  0  0  0  0  0  0  0
    3.3586    0.7767   -1.0292 N   0  0  0  0  0  0  0  0  0  0  0  0
    3.8478   -0.2925   -0.3297 C   0  0  0  0  0  0  0  0  0  0  0  0
    3.4182   -1.5455   -0.6457 C   0  0  0  0  0  0  0  0  0  0  0  0
    4.0518   -2.4287    0.1832 N   0  0  0  0  0  0  0  0  0  0  0  0
    4.8920   -1.7414    1.0370 C   0  0  0  0  0  0  0  0  0  0  0  0
    5.7350   -2.2131    2.0478 C   0  0  0  0  0  0  0  0  0  0  0  0
    6.4850   -1.2702    2.7650 C   0  0  0  0  0  0  0  0  0  0  0  0
    6.3959    0.0932    2.4827 C   0  0  0  0  0  0  0  0  0  0  0  0
    7.0832    1.0911    3.1216 O   0  0  0  0  0  0  0  0  0  0  0  0
    7.9620    0.7007    4.1691 C   0  0  0  0  0  0  0  0  0  0  0  0
    5.5442    0.5441    1.4647 C   0  0  0  0  0  0  0  0  0  0  0  0
    4.7793   -0.3810    0.7291 C   0  0  0  0  0  0  0  0  0  0  0  0
    2.4704   -1.8258   -1.6758 C   0  0  0  0  0  0  0  0  0  0  0  0
    2.1324   -2.9760   -1.9412 O   0  0  0  0  0  0  0  0  0  0  0  0
   -0.9786   -1.7279   -1.9849 C   0  0  0  0  0  0  0  0  0  0  0  0
   -2.2924   -1.5986   -1.5258 C   0  0  0  0  0  0  0  0  0  0  0  0
   -6.8829    2.3114    3.2054 H   0  0  0  0  0  0  0  0  0  0  0  0
   -7.1983    0.5678    3.3048 H   0  0  0  0  0  0  0  0  0  0  0  0
   -8.5491    1.7145    3.2910 H   0  0  0  0  0  0  0  0  0  0  0  0
   -8.0096    2.3828    0.9718 H   0  0  0  0  0  0  0  0  0  0  0  0
   -8.3228    0.6486    1.0707 H   0  0  0  0  0  0  0  0  0  0  0  0
   -5.8508    0.2113    1.1597 H   0  0  0  0  0  0  0  0  0  0  0  0
   -5.5385    1.9390    1.0566 H   0  0  0  0  0  0  0  0  0  0  0  0
   -6.9933    0.2823   -1.0808 H   0  0  0  0  0  0  0  0  0  0  0  0
   -6.6793    2.0262   -1.1788 H   0  0  0  0  0  0  0  0  0  0  0  0
   -4.3893    1.6382   -1.4505 H   0  0  0  0  0  0  0  0  0  0  0  0
   -3.1768    1.2034   -3.2536 H   0  0  0  0  0  0  0  0  0  0  0  0
   -0.8736    0.9851   -4.0428 H   0  0  0  0  0  0  0  0  0  0  0  0
    1.1615   -0.2576   -4.2274 H   0  0  0  0  0  0  0  0  0  0  0  0
    1.1127   -1.9397   -3.7921 H   0  0  0  0  0  0  0  0  0  0  0  0
    3.6864    1.7079   -0.8001 H   0  0  0  0  0  0  0  0  0  0  0  0
    3.9195   -3.4319    0.1671 H   0  0  0  0  0  0  0  0  0  0  0  0
    5.8121   -3.2716    2.2759 H   0  0  0  0  0  0  0  0  0  0  0  0
    7.1372   -1.6442    3.5482 H   0  0  0  0  0  0  0  0  0  0  0  0
    8.4256    1.6067    4.5713 H   0  0  0  0  0  0  0  0  0  0  0  0
    8.7631    0.0562    3.7926 H   0  0  0  0  0  0  0  0  0  0  0  0
    7.4142    0.2172    4.9846 H   0  0  0  0  0  0  0  0  0  0  0  0
    5.4788    1.6065    1.2497 H   0  0  0  0  0  0  0  0  0  0  0  0
   -0.3880   -2.5750   -1.6412 H   0  0  0  0  0  0  0  0  0  0  0  0
   -2.6952   -2.3358   -0.8334 H   0  0  0  0  0  0  0  0  0  0  0  0
  1  2  1  0
  2  3  1  0
  3  4  1  0
  4  5  1  0
  5  6  1  0
  6  7  2  0
  6  8  1  0
  8  9  2  0
  9 10  1  0
 10 11  2  0
 11 12  1  0
 12 13  1  0
 13 14  1  0
 14 15  2  0
 14 16  1  0
 16 17  1  0
 17 18  2  0
 18 19  1  0
 19 20  1  0
 20 21  2  0
 21 22  1  0
 22 23  2  0
 23 24  1  0
 24 25  1  0
 23 26  1  0
 26 27  2  0
 18 28  1  0
 28 29  2  0
 11 30  1  0
 30 31  2  0
 31  8  1  0
 28 13  1  0
 27 17  1  0
 27 20  1  0
  1 32  1  0
  1 33  1  0
  1 34  1  0
  2 35  1  0
  2 36  1  0
  3 37  1  0
  3 38  1  0
  4 39  1  0
  4 40  1  0
  5 41  1  0
  9 42  1  0
 10 43  1  0
 12 44  1  0
 12 45  1  0
 16 46  1  0
 19 47  1  0
 21 48  1  0
 22 49  1  0
 25 50  1  0
 25 51  1  0
 25 52  1  0
 26 53  1  0
 30 54  1  0
 31 55  1  0
M  END
$$$$
