
     RDKit          3D

 36 38  0  0  0  0  0  0  0  0999 V2000
    4.7404    1.2906    1.6378 C   0  0  0  0  0  0  0  0  0  0  0  0
    5.0125    0.2245    0.6943 N   0  0  0  0  0  0  0  0  0  0  0  0
    6.2519   -0.0079    0.1499 C   0  0  0  0  0  0  0  0  0  0  0  0
    6.1466   -1.0663   -0.7209 C   0  0  0  0  0  0  0  0  0  0  0  0
    4.7977   -1.4894   -0.7014 C   0  0  0  0  0  0  0  0  0  0  0  0
    4.1003   -0.6774    0.1776 C   0  0  0  0  0  0  0  0  0  0  0  0
    2.7475   -0.6482    0.6118 C   0  0  0  0  0  0  0  0  0  0  0  0
    1.6824   -0.7993   -0.1881 C   0  0  0  0  0  0  0  0  0  0  0  0
    1.6185   -1.0207   -1.8987 S   0  0  0  0  0  0  0  0  0  0  0  0
   -0.1391   -1.0419   -1.9383 C   0  0  0  0  0  0  0  0  0  0  0  0
   -1.0309   -1.2771   -3.3291 S   0  0  0  0  0  0  0  0  0  0  0  0
   -0.6107   -0.8788   -0.6531 N   0  0  0  0  0  0  0  0  0  0  0  0
   -1.9768   -0.7551   -0.3660 N   0  0  0  0  0  0  0  0  0  0  0  0
   -2.5220    0.5135   -0.3817 C   0  0  0  0  0  0  0  0  0  0  0  0
   -1.8708    1.5292   -0.6042 O   0  0  0  0  0  0  0  0  0  0  0  0
   -3.9898    0.5950   -0.1579 C   0  0  0  0  0  0  0  0  0  0  0  0
   -4.6693   -0.3322    0.6466 C   0  0  0  0  0  0  0  0  0  0  0  0
   -6.0496   -0.2131    0.8287 C   0  0  0  0  0  0  0  0  0  0  0  0
   -6.7389    0.8290    0.2164 C   0  0  0  0  0  0  0  0  0  0  0  0
   -8.0613    0.9379    0.3955 F   0  0  0  0  0  0  0  0  0  0  0  0
   -6.0748    1.7628   -0.5706 C   0  0  0  0  0  0  0  0  0  0  0  0
   -4.6956    1.6500   -0.7550 C   0  0  0  0  0  0  0  0  0  0  0  0
    0.3036   -0.7506    0.3789 C   0  0  0  0  0  0  0  0  0  0  0  0
    0.0524   -0.6491    1.5732 O   0  0  0  0  0  0  0  0  0  0  0  0
    3.9144    1.8954    1.2550 H   0  0  0  0  0  0  0  0  0  0  0  0
    5.6294    1.9175    1.7475 H   0  0  0  0  0  0  0  0  0  0  0  0
    4.4851    0.8408    2.6004 H   0  0  0  0  0  0  0  0  0  0  0  0
    7.1075    0.5966    0.4220 H   0  0  0  0  0  0  0  0  0  0  0  0
    6.9534   -1.4904   -1.3042 H   0  0  0  0  0  0  0  0  0  0  0  0
    4.3845   -2.3144   -1.2672 H   0  0  0  0  0  0  0  0  0  0  0  0
    2.5712   -0.4812    1.6741 H   0  0  0  0  0  0  0  0  0  0  0  0
   -2.5332   -1.6002   -0.3915 H   0  0  0  0  0  0  0  0  0  0  0  0
   -4.1410   -1.1287    1.1633 H   0  0  0  0  0  0  0  0  0  0  0  0
   -6.5915   -0.9177    1.4526 H   0  0  0  0  0  0  0  0  0  0  0  0
   -6.6315    2.5731   -1.0315 H   0  0  0  0  0  0  0  0  0  0  0  0
   -4.1723    2.3837   -1.3661 H   0  0  0  0  0  0  0  0  0  0  0  0
  1  2  1  0
  2  3  1  0
  3  4  2  0
  4  5  1  0
  5  6  2  0
  6  7  1  0
  7  8  2  3
  8  9  1  0
  9 10  1  0
 10 11  2  0
 10 12  1  0
 12 13  1  0
 13 14  1  0
 14 15  2  0
 14 16  1  0
 16 17  2  0
 17 18  1  0
 18 19  2  0
 19 20  1  0
 19 21  1  0
 21 22  2  0
 12 23  1  0
 23 24  2  0
  6  2  1  0
 23  8  1  0
 22 16  1  0
  1 25  1  0
  1 26  1  0
  1 27  1  0
  3 28  1  0
  4 29  1  0
  5 30  1  0
  7 31  1  0
 13 32  1  0
 17 33  1  0
 18 34  1  0
 21 35  1  0
 22 36  1  0
M  END
$$$$
