
     RDKit          3D

 43 45  0  0  0  0  0  0  0  0999 V2000
   -3.2526    1.5976   -3.3101 C   0  0  0  0  0  0  0  0  0  0  0  0
   -3.9371    0.4211   -2.6316 C   0  0  0  0  0  0  0  0  0  0  0  0
   -3.1124   -0.1905   -1.4980 C   0  0  0  0  0  0  0  0  0  0  0  0
   -2.9198    0.7577   -0.3139 C   0  0  0  0  0  0  0  0  0  0  0  0
   -2.2076    0.1081    0.7857 N   0  0  0  0  0  0  0  0  0  0  0  0
   -2.7960   -0.5433    1.8736 C   0  0  0  0  0  0  0  0  0  0  0  0
   -4.3761   -0.9666    2.1195 S   0  0  0  0  0  0  0  0  0  0  0  0
   -1.8003   -0.8234    2.7956 N   0  0  0  0  0  0  0  0  0  0  0  0
   -0.4970   -0.5399    2.2570 C   0  0  0  0  0  0  0  0  0  0  0  0
   -0.7889    0.3708    1.0577 C   0  0  0  0  0  0  0  0  0  0  0  0
    0.1421    0.1247   -0.1382 C   0  0  0  0  0  0  0  0  0  0  0  0
    1.5926    0.4540    0.1651 C   0  0  0  0  0  0  0  0  0  0  0  0
    1.9348    1.8187    0.2333 C   0  0  0  0  0  0  0  0  0  0  0  0
    3.2318    2.2175    0.5310 C   0  0  0  0  0  0  0  0  0  0  0  0
    4.2112    1.2592    0.7662 C   0  0  0  0  0  0  0  0  0  0  0  0
    3.9112   -0.1087    0.7028 C   0  0  0  0  0  0  0  0  0  0  0  0
    4.9240   -1.0519    0.9439 C   0  0  0  0  0  0  0  0  0  0  0  0
    4.6625   -2.4185    0.8867 C   0  0  0  0  0  0  0  0  0  0  0  0
    3.3826   -2.8590    0.5851 C   0  0  0  0  0  0  0  0  0  0  0  0
    2.3641   -1.9328    0.3427 C   0  0  0  0  0  0  0  0  0  0  0  0
    2.5921   -0.5364    0.3965 C   0  0  0  0  0  0  0  0  0  0  0  0
   -3.1508    2.4490   -2.6309 H   0  0  0  0  0  0  0  0  0  0  0  0
   -3.8422    1.9296   -4.1707 H   0  0  0  0  0  0  0  0  0  0  0  0
   -2.2566    1.3194   -3.6688 H   0  0  0  0  0  0  0  0  0  0  0  0
   -4.9165    0.7363   -2.2534 H   0  0  0  0  0  0  0  0  0  0  0  0
   -4.1227   -0.3548   -3.3839 H   0  0  0  0  0  0  0  0  0  0  0  0
   -3.6185   -1.1017   -1.1567 H   0  0  0  0  0  0  0  0  0  0  0  0
   -2.1388   -0.5124   -1.8854 H   0  0  0  0  0  0  0  0  0  0  0  0
   -3.8947    1.1003    0.0488 H   0  0  0  0  0  0  0  0  0  0  0  0
   -2.3550    1.6497   -0.6031 H   0  0  0  0  0  0  0  0  0  0  0  0
   -1.9859   -1.4220    3.5911 H   0  0  0  0  0  0  0  0  0  0  0  0
    0.1278   -0.0632    3.0166 H   0  0  0  0  0  0  0  0  0  0  0  0
   -0.0595   -1.4993    1.9678 H   0  0  0  0  0  0  0  0  0  0  0  0
   -0.7339    1.4188    1.3815 H   0  0  0  0  0  0  0  0  0  0  0  0
   -0.1661    0.7558   -0.9826 H   0  0  0  0  0  0  0  0  0  0  0  0
    0.0203   -0.8959   -0.5127 H   0  0  0  0  0  0  0  0  0  0  0  0
    1.1827    2.5844    0.0505 H   0  0  0  0  0  0  0  0  0  0  0  0
    3.4814    3.2742    0.5795 H   0  0  0  0  0  0  0  0  0  0  0  0
    5.2210    1.5915    0.9983 H   0  0  0  0  0  0  0  0  0  0  0  0
    5.9351   -0.7253    1.1789 H   0  0  0  0  0  0  0  0  0  0  0  0
    5.4581   -3.1344    1.0746 H   0  0  0  0  0  0  0  0  0  0  0  0
    3.1708   -3.9241    0.5342 H   0  0  0  0  0  0  0  0  0  0  0  0
    1.3831   -2.3345    0.1065 H   0  0  0  0  0  0  0  0  0  0  0  0
  1  2  1  0
  2  3  1  0
  3  4  1  0
  4  5  1  0
  5  6  1  0
  6  7  2  0
  6  8  1  0
  8  9  1  0
  9 10  1  0
 10 11  1  0
 11 12  1  0
 12 13  2  0
 13 14  1  0
 14 15  2  0
 15 16  1  0
 16 17  2  0
 17 18  1  0
 18 19  2  0
 19 20  1  0
 20 21  2  0
 10  5  1  0
 21 12  1  0
 21 16  1  0
  1 22  1  0
  1 23  1  0
  1 24  1  0
  2 25  1  0
  2 26  1  0
  3 27  1  0
  3 28  1  0
  4 29  1  0
  4 30  1  0
  8 31  1  0
  9 32  1  0
  9 33  1  0
 10 34  1  0
 11 35  1  0
 11 36  1  0
 13 37  1  0
 14 38  1  0
 15 39  1  0
 17 40  1  0
 18 41  1  0
 19 42  1  0
 20 43  1  0
M  END
$$$$
