
     RDKit          3D

 45 47  0  0  0  0  0  0  0  0999 V2000
    7.2878    0.3460    1.7915 N   0  0  0  0  0  0  0  0  0  0  0  0
    6.1462    0.1907    1.9378 C   0  0  0  0  0  0  0  0  0  0  0  0
    4.7404   -0.0012    2.0924 C   0  0  0  0  0  0  0  0  0  0  0  0
    4.2526   -0.0286    3.4315 C   0  0  0  0  0  0  0  0  0  0  0  0
    3.8542   -0.0417    4.5198 N   0  0  0  0  0  0  0  0  0  0  0  0
    3.9235   -0.1436    1.0182 C   0  0  0  0  0  0  0  0  0  0  0  0
    2.4795   -0.3803    1.1360 C   0  0  0  0  0  0  0  0  0  0  0  0
    1.6330   -0.3918    0.0872 C   0  0  0  0  0  0  0  0  0  0  0  0
    0.2164   -0.6676    0.2733 C   0  0  0  0  0  0  0  0  0  0  0  0
   -0.7295   -0.5558   -0.6854 C   0  0  0  0  0  0  0  0  0  0  0  0
   -2.0904   -0.8867   -0.4899 N   0  0  0  0  0  0  0  0  0  0  0  0
   -3.1124   -0.8010   -1.5457 C   0  0  0  0  0  0  0  0  0  0  0  0
   -3.8977    0.5034   -1.4517 C   0  0  0  0  0  0  0  0  0  0  0  0
   -4.6861    0.6572   -0.1453 C   0  0  0  0  0  0  0  0  0  0  0  0
   -3.8207    1.0646    1.0469 C   0  0  0  0  0  0  0  0  0  0  0  0
   -2.9333   -0.0214    1.6708 C   0  0  0  0  0  0  0  0  0  0  0  0
   -2.6602   -1.2537    0.8172 C   0  0  0  0  0  0  0  0  0  0  0  0
   -0.3143   -0.0405   -2.0612 C   0  0  0  0  0  0  0  0  0  0  0  0
    1.0388    0.6738   -2.0851 C   0  0  0  0  0  0  0  0  0  0  0  0
    2.0927   -0.1311   -1.3280 C   0  0  0  0  0  0  0  0  0  0  0  0
    3.4440    0.5910   -1.3544 C   0  0  0  0  0  0  0  0  0  0  0  0
    4.4379   -0.0882   -0.4145 C   0  0  0  0  0  0  0  0  0  0  0  0
    2.0701   -0.5587    2.1300 H   0  0  0  0  0  0  0  0  0  0  0  0
   -0.0633   -1.0008    1.2675 H   0  0  0  0  0  0  0  0  0  0  0  0
   -2.6741   -0.9028   -2.5426 H   0  0  0  0  0  0  0  0  0  0  0  0
   -3.8025   -1.6512   -1.4657 H   0  0  0  0  0  0  0  0  0  0  0  0
   -3.2360    1.3668   -1.5915 H   0  0  0  0  0  0  0  0  0  0  0  0
   -4.6145    0.5190   -2.2830 H   0  0  0  0  0  0  0  0  0  0  0  0
   -5.4341    1.4443   -0.3018 H   0  0  0  0  0  0  0  0  0  0  0  0
   -5.2488   -0.2580    0.0797 H   0  0  0  0  0  0  0  0  0  0  0  0
   -3.1851    1.9105    0.7530 H   0  0  0  0  0  0  0  0  0  0  0  0
   -4.4768    1.4424    1.8367 H   0  0  0  0  0  0  0  0  0  0  0  0
   -3.3989   -0.3570    2.6070 H   0  0  0  0  0  0  0  0  0  0  0  0
   -1.9842    0.4512    1.9569 H   0  0  0  0  0  0  0  0  0  0  0  0
   -2.0013   -1.9453    1.3468 H   0  0  0  0  0  0  0  0  0  0  0  0
   -3.5931   -1.8116    0.6872 H   0  0  0  0  0  0  0  0  0  0  0  0
   -1.0532    0.6721   -2.4435 H   0  0  0  0  0  0  0  0  0  0  0  0
   -0.2849   -0.8916   -2.7537 H   0  0  0  0  0  0  0  0  0  0  0  0
    1.3511    0.8302   -3.1245 H   0  0  0  0  0  0  0  0  0  0  0  0
    0.9285    1.6697   -1.6356 H   0  0  0  0  0  0  0  0  0  0  0  0
    2.2147   -1.1034   -1.8229 H   0  0  0  0  0  0  0  0  0  0  0  0
    3.8461    0.5944   -2.3754 H   0  0  0  0  0  0  0  0  0  0  0  0
    3.3243    1.6433   -1.0587 H   0  0  0  0  0  0  0  0  0  0  0  0
    4.6279   -1.1103   -0.7568 H   0  0  0  0  0  0  0  0  0  0  0  0
    5.3857    0.4533   -0.4907 H   0  0  0  0  0  0  0  0  0  0  0  0
  1  2  3  0
  2  3  1  0
  3  4  1  0
  4  5  3  0
  3  6  2  3
  6  7  1  0
  7  8  2  0
  8  9  1  0
  9 10  2  0
 10 11  1  0
 11 12  1  0
 12 13  1  0
 13 14  1  0
 14 15  1  0
 15 16  1  0
 16 17  1  0
 10 18  1  0
 18 19  1  0
 19 20  1  0
 20 21  1  0
 21 22  1  0
 22  6  1  0
 20  8  1  0
 17 11  1  0
  7 23  1  0
  9 24  1  0
 12 25  1  0
 12 26  1  0
 13 27  1  0
 13 28  1  0
 14 29  1  0
 14 30  1  0
 15 31  1  0
 15 32  1  0
 16 33  1  0
 16 34  1  0
 17 35  1  0
 17 36  1  0
 18 37  1  0
 18 38  1  0
 19 39  1  0
 19 40  1  0
 20 41  1  0
 21 42  1  0
 21 43  1  0
 22 44  1  0
 22 45  1  0
M  END
$$$$
