
     RDKit          3D

 43 46  0  0  0  0  0  0  0  0999 V2000
   -4.1348   -3.0426    0.9964 C   0  0  0  0  0  0  0  0  0  0  0  0
   -3.8762   -1.8416    1.8866 C   0  0  0  0  0  0  0  0  0  0  0  0
   -3.8582   -0.6401    1.1049 O   0  0  0  0  0  0  0  0  0  0  0  0
   -2.6595   -0.3101    0.5479 C   0  0  0  0  0  0  0  0  0  0  0  0
   -1.6358   -0.9750    0.6482 O   0  0  0  0  0  0  0  0  0  0  0  0
   -2.7810    0.9343   -0.1923 C   0  0  0  0  0  0  0  0  0  0  0  0
   -3.9170    1.7139   -0.3794 C   0  0  0  0  0  0  0  0  0  0  0  0
   -3.5205    2.8380   -1.1522 C   0  0  0  0  0  0  0  0  0  0  0  0
   -4.2170    4.2674   -1.8372 S   0  0  0  0  0  0  0  0  0  0  0  0
   -2.6785    4.7105   -2.4645 C   0  0  0  0  0  0  0  0  0  0  0  0
   -1.6708    3.8144   -2.1768 C   0  0  0  0  0  0  0  0  0  0  0  0
   -2.1885    2.7293   -1.4145 C   0  0  0  0  0  0  0  0  0  0  0  0
   -1.7291    1.5629   -0.8393 N   0  0  0  0  0  0  0  0  0  0  0  0
   -0.3516    1.1000   -0.9489 C   0  0  0  0  0  0  0  0  0  0  0  0
    0.4457    1.3165    0.3222 C   0  0  0  0  0  0  0  0  0  0  0  0
    0.1430    2.1582    1.1675 O   0  0  0  0  0  0  0  0  0  0  0  0
    1.6763    0.4985    0.5368 C   0  0  0  0  0  0  0  0  0  0  0  0
    2.2419    0.4712    1.8212 C   0  0  0  0  0  0  0  0  0  0  0  0
    3.4027   -0.2654    2.0699 C   0  0  0  0  0  0  0  0  0  0  0  0
    4.0077   -0.9723    1.0352 C   0  0  0  0  0  0  0  0  0  0  0  0
    3.4376   -0.9658   -0.2415 C   0  0  0  0  0  0  0  0  0  0  0  0
    2.2848   -0.2214   -0.4982 C   0  0  0  0  0  0  0  0  0  0  0  0
    3.9642   -1.6602   -1.3017 O   0  0  0  0  0  0  0  0  0  0  0  0
    4.9121   -2.6415   -0.8629 C   0  0  0  0  0  0  0  0  0  0  0  0
    5.8644   -2.0466    0.1611 C   0  0  0  0  0  0  0  0  0  0  0  0
    5.1557   -1.6549    1.3425 O   0  0  0  0  0  0  0  0  0  0  0  0
   -5.0597   -2.9072    0.4264 H   0  0  0  0  0  0  0  0  0  0  0  0
   -3.3282   -3.1736    0.2679 H   0  0  0  0  0  0  0  0  0  0  0  0
   -4.2179   -3.9559    1.5926 H   0  0  0  0  0  0  0  0  0  0  0  0
   -2.9495   -1.9589    2.4601 H   0  0  0  0  0  0  0  0  0  0  0  0
   -4.6906   -1.7395    2.6114 H   0  0  0  0  0  0  0  0  0  0  0  0
   -4.9096    1.5067   -0.0012 H   0  0  0  0  0  0  0  0  0  0  0  0
   -2.5929    5.6320   -3.0236 H   0  0  0  0  0  0  0  0  0  0  0  0
   -0.6424    3.9397   -2.4882 H   0  0  0  0  0  0  0  0  0  0  0  0
   -0.3977    0.0425   -1.2236 H   0  0  0  0  0  0  0  0  0  0  0  0
    0.1318    1.6457   -1.7657 H   0  0  0  0  0  0  0  0  0  0  0  0
    1.7801    1.0266    2.6364 H   0  0  0  0  0  0  0  0  0  0  0  0
    3.8372   -0.2766    3.0659 H   0  0  0  0  0  0  0  0  0  0  0  0
    1.8898   -0.2242   -1.5087 H   0  0  0  0  0  0  0  0  0  0  0  0
    5.4669   -2.9828   -1.7426 H   0  0  0  0  0  0  0  0  0  0  0  0
    4.3627   -3.4973   -0.4515 H   0  0  0  0  0  0  0  0  0  0  0  0
    6.6155   -2.7864    0.4545 H   0  0  0  0  0  0  0  0  0  0  0  0
    6.3866   -1.1684   -0.2390 H   0  0  0  0  0  0  0  0  0  0  0  0
  1  2  1  0
  2  3  1  0
  3  4  1  0
  4  5  2  0
  4  6  1  0
  6  7  2  0
  7  8  1  0
  8  9  1  0
  9 10  1  0
 10 11  2  0
 11 12  1  0
 12 13  1  0
 13 14  1  0
 14 15  1  0
 15 16  2  0
 15 17  1  0
 17 18  2  0
 18 19  1  0
 19 20  2  0
 20 21  1  0
 21 22  2  0
 21 23  1  0
 23 24  1  0
 24 25  1  0
 25 26  1  0
 13  6  1  0
 22 17  1  0
 12  8  2  0
 26 20  1  0
  1 27  1  0
  1 28  1  0
  1 29  1  0
  2 30  1  0
  2 31  1  0
  7 32  1  0
 10 33  1  0
 11 34  1  0
 14 35  1  0
 14 36  1  0
 18 37  1  0
 19 38  1  0
 22 39  1  0
 24 40  1  0
 24 41  1  0
 25 42  1  0
 25 43  1  0
M  END
$$$$
