
     RDKit          3D

 63 67  0  0  0  0  0  0  0  0999 V2000
   -4.7793    6.3563    1.9876 C   0  0  0  0  0  0  0  0  0  0  0  0
   -5.3941    5.2262    1.3819 O   0  0  0  0  0  0  0  0  0  0  0  0
   -4.5759    4.1837    1.0383 C   0  0  0  0  0  0  0  0  0  0  0  0
   -3.2002    4.1353    1.2178 C   0  0  0  0  0  0  0  0  0  0  0  0
   -2.4732    3.0049    0.8211 C   0  0  0  0  0  0  0  0  0  0  0  0
   -3.1211    1.8908    0.2288 C   0  0  0  0  0  0  0  0  0  0  0  0
   -2.5941    0.6337   -0.2532 C   0  0  0  0  0  0  0  0  0  0  0  0
   -1.1917    0.2347   -0.2457 C   0  0  0  0  0  0  0  0  0  0  0  0
   -0.7405   -0.7533    0.6354 C   0  0  0  0  0  0  0  0  0  0  0  0
    0.6073   -1.1293    0.6474 C   0  0  0  0  0  0  0  0  0  0  0  0
    1.5135   -0.5157   -0.2179 C   0  0  0  0  0  0  0  0  0  0  0  0
    2.8506   -0.7858   -0.3075 O   0  0  0  0  0  0  0  0  0  0  0  0
    3.3770   -1.7767    0.5791 C   0  0  0  0  0  0  0  0  0  0  0  0
    4.8947   -1.9202    0.3485 C   0  0  0  0  0  0  0  0  0  0  0  0
    5.7190   -0.9233    1.0616 N   0  0  0  0  0  0  0  0  0  0  0  0
    7.1652   -1.2006    0.9146 C   0  0  0  0  0  0  0  0  0  0  0  0
    7.8640   -0.2983   -0.1146 C   0  0  0  0  0  0  0  0  0  0  0  0
    7.7637    1.0962    0.2012 O   0  0  0  0  0  0  0  0  0  0  0  0
    6.5723    1.4216    0.9319 C   0  0  0  0  0  0  0  0  0  0  0  0
    5.4105    0.4610    0.6353 C   0  0  0  0  0  0  0  0  0  0  0  0
    1.0604    0.4738   -1.0950 C   0  0  0  0  0  0  0  0  0  0  0  0
   -0.2843    0.8510   -1.1111 C   0  0  0  0  0  0  0  0  0  0  0  0
   -3.5834   -0.1957   -0.7547 C   0  0  0  0  0  0  0  0  0  0  0  0
   -3.4795   -1.5335   -1.3525 C   0  0  0  0  0  0  0  0  0  0  0  0
   -3.1294   -1.6381   -2.7087 C   0  0  0  0  0  0  0  0  0  0  0  0
   -3.0128   -2.8869   -3.3161 C   0  0  0  0  0  0  0  0  0  0  0  0
   -3.2413   -4.0409   -2.5728 C   0  0  0  0  0  0  0  0  0  0  0  0
   -3.5855   -3.9517   -1.2207 C   0  0  0  0  0  0  0  0  0  0  0  0
   -3.7090   -2.7033   -0.5991 C   0  0  0  0  0  0  0  0  0  0  0  0
   -4.0204   -2.5273    0.7262 O   0  0  0  0  0  0  0  0  0  0  0  0
   -4.4438   -3.6700    1.4564 C   0  0  0  0  0  0  0  0  0  0  0  0
   -5.1272    0.5322   -0.6599 S   0  0  0  0  0  0  0  0  0  0  0  0
   -4.5048    1.9617    0.0624 C   0  0  0  0  0  0  0  0  0  0  0  0
   -5.2388    3.0973    0.4595 C   0  0  0  0  0  0  0  0  0  0  0  0
   -4.0611    6.8266    1.3080 H   0  0  0  0  0  0  0  0  0  0  0  0
   -5.5636    7.0888    2.2014 H   0  0  0  0  0  0  0  0  0  0  0  0
   -4.3075    6.0869    2.9384 H   0  0  0  0  0  0  0  0  0  0  0  0
   -2.6505    4.9566    1.6654 H   0  0  0  0  0  0  0  0  0  0  0  0
   -1.3965    2.9831    0.9751 H   0  0  0  0  0  0  0  0  0  0  0  0
   -1.4373   -1.2380    1.3164 H   0  0  0  0  0  0  0  0  0  0  0  0
    0.9110   -1.9030    1.3441 H   0  0  0  0  0  0  0  0  0  0  0  0
    2.9057   -2.7416    0.3541 H   0  0  0  0  0  0  0  0  0  0  0  0
    3.1821   -1.5118    1.6259 H   0  0  0  0  0  0  0  0  0  0  0  0
    5.1138   -1.8980   -0.7266 H   0  0  0  0  0  0  0  0  0  0  0  0
    5.1748   -2.9114    0.7266 H   0  0  0  0  0  0  0  0  0  0  0  0
    7.3550   -2.2545    0.6793 H   0  0  0  0  0  0  0  0  0  0  0  0
    7.6225   -1.0191    1.8956 H   0  0  0  0  0  0  0  0  0  0  0  0
    7.4455   -0.4543   -1.1156 H   0  0  0  0  0  0  0  0  0  0  0  0
    8.9295   -0.5445   -0.1669 H   0  0  0  0  0  0  0  0  0  0  0  0
    6.2928    2.4450    0.6611 H   0  0  0  0  0  0  0  0  0  0  0  0
    6.8154    1.4233    2.0010 H   0  0  0  0  0  0  0  0  0  0  0  0
    4.5145    0.8107    1.1591 H   0  0  0  0  0  0  0  0  0  0  0  0
    5.2155    0.4942   -0.4445 H   0  0  0  0  0  0  0  0  0  0  0  0
    1.7611    0.9543   -1.7732 H   0  0  0  0  0  0  0  0  0  0  0  0
   -0.6165    1.6210   -1.8030 H   0  0  0  0  0  0  0  0  0  0  0  0
   -2.9464   -0.7405   -3.2951 H   0  0  0  0  0  0  0  0  0  0  0  0
   -2.7420   -2.9574   -4.3663 H   0  0  0  0  0  0  0  0  0  0  0  0
   -3.1475   -5.0161   -3.0445 H   0  0  0  0  0  0  0  0  0  0  0  0
   -3.7426   -4.8780   -0.6785 H   0  0  0  0  0  0  0  0  0  0  0  0
   -3.6223   -4.3829    1.5787 H   0  0  0  0  0  0  0  0  0  0  0  0
   -4.7441   -3.3360    2.4542 H   0  0  0  0  0  0  0  0  0  0  0  0
   -5.3136   -4.1428    0.9884 H   0  0  0  0  0  0  0  0  0  0  0  0
   -6.3159    3.1299    0.3191 H   0  0  0  0  0  0  0  0  0  0  0  0
  1  2  1  0
  2  3  1  0
  3  4  2  0
  4  5  1  0
  5  6  2  0
  6  7  1  0
  7  8  1  0
  8  9  2  0
  9 10  1  0
 10 11  2  0
 11 12  1  0
 12 13  1  0
 13 14  1  0
 14 15  1  0
 15 16  1  0
 16 17  1  0
 17 18  1  0
 18 19  1  0
 19 20  1  0
 11 21  1  0
 21 22  2  0
  7 23  2  0
 23 24  1  0
 24 25  2  0
 25 26  1  0
 26 27  2  0
 27 28  1  0
 28 29  2  0
 29 30  1  0
 30 31  1  0
 23 32  1  0
 32 33  1  0
 33 34  2  0
 34  3  1  0
 33  6  1  0
 22  8  1  0
 29 24  1  0
 20 15  1  0
  1 35  1  0
  1 36  1  0
  1 37  1  0
  4 38  1  0
  5 39  1  0
  9 40  1  0
 10 41  1  0
 13 42  1  0
 13 43  1  0
 14 44  1  0
 14 45  1  0
 16 46  1  0
 16 47  1  0
 17 48  1  0
 17 49  1  0
 19 50  1  0
 19 51  1  0
 20 52  1  0
 20 53  1  0
 21 54  1  0
 22 55  1  0
 25 56  1  0
 26 57  1  0
 27 58  1  0
 28 59  1  0
 31 60  1  0
 31 61  1  0
 31 62  1  0
 34 63  1  0
M  END
$$$$
