
     RDKit          3D

 31 33  0  0  0  0  0  0  0  0999 V2000
    1.5114   -0.8300    1.7291 O   0  0  0  0  0  0  0  0  0  0  0  0
    1.9042   -0.7780    0.5674 C   0  0  0  0  0  0  0  0  0  0  0  0
    1.2418   -1.3805   -0.4912 N   0  0  0  0  0  0  0  0  0  0  0  0
   -0.0452   -1.8806   -0.2014 N   0  0  0  0  0  0  0  0  0  0  0  0
   -1.1266   -1.0211   -0.3123 C   0  0  0  0  0  0  0  0  0  0  0  0
   -1.0655    0.1120   -0.7688 O   0  0  0  0  0  0  0  0  0  0  0  0
   -2.3624   -1.7271    0.1432 C   0  0  0  0  0  0  0  0  0  0  0  0
   -3.6198   -1.2727    0.2481 C   0  0  0  0  0  0  0  0  0  0  0  0
   -4.0468    0.0584   -0.0155 C   0  0  0  0  0  0  0  0  0  0  0  0
   -3.5159    1.2779    0.3681 C   0  0  0  0  0  0  0  0  0  0  0  0
   -4.2792    2.3910   -0.0912 C   0  0  0  0  0  0  0  0  0  0  0  0
   -5.3899    1.9950   -0.7977 C   0  0  0  0  0  0  0  0  0  0  0  0
   -5.5117    0.2952   -0.8968 S   0  0  0  0  0  0  0  0  0  0  0  0
   -1.9744   -3.3823    0.5295 S   0  0  0  0  0  0  0  0  0  0  0  0
   -0.2591   -3.1808    0.1984 C   0  0  0  0  0  0  0  0  0  0  0  0
    0.8533   -4.4167    0.3254 S   0  0  0  0  0  0  0  0  0  0  0  0
    3.1207   -0.0066    0.2282 C   0  0  0  0  0  0  0  0  0  0  0  0
    3.5258    1.0455    1.0521 C   0  0  0  0  0  0  0  0  0  0  0  0
    4.6712    1.7687    0.7272 C   0  0  0  0  0  0  0  0  0  0  0  0
    5.3757    1.4081   -0.4106 C   0  0  0  0  0  0  0  0  0  0  0  0
    5.0194    0.3866   -1.2214 N   0  0  0  0  0  0  0  0  0  0  0  0
    3.9066   -0.3059   -0.8770 C   0  0  0  0  0  0  0  0  0  0  0  0
    1.3242   -0.9643   -1.4149 H   0  0  0  0  0  0  0  0  0  0  0  0
   -4.4021   -1.9690    0.5487 H   0  0  0  0  0  0  0  0  0  0  0  0
   -2.6083    1.3780    0.9521 H   0  0  0  0  0  0  0  0  0  0  0  0
   -4.0240    3.4276    0.0915 H   0  0  0  0  0  0  0  0  0  0  0  0
   -6.1414    2.6226   -1.2565 H   0  0  0  0  0  0  0  0  0  0  0  0
    2.9531    1.3029    1.9404 H   0  0  0  0  0  0  0  0  0  0  0  0
    5.0061    2.5927    1.3480 H   0  0  0  0  0  0  0  0  0  0  0  0
    6.2742    1.9433   -0.7061 H   0  0  0  0  0  0  0  0  0  0  0  0
    3.6848   -1.1399   -1.5363 H   0  0  0  0  0  0  0  0  0  0  0  0
  1  2  2  0
  2  3  1  0
  3  4  1  0
  4  5  1  0
  5  6  2  0
  5  7  1  0
  7  8  2  3
  8  9  1  0
  9 10  2  0
 10 11  1  0
 11 12  2  0
 12 13  1  0
  7 14  1  0
 14 15  1  0
 15 16  2  0
  2 17  1  0
 17 18  2  0
 18 19  1  0
 19 20  2  0
 20 21  1  0
 21 22  2  0
 15  4  1  0
 22 17  1  0
 13  9  1  0
  3 23  1  0
  8 24  1  0
 10 25  1  0
 11 26  1  0
 12 27  1  0
 18 28  1  0
 19 29  1  0
 20 30  1  0
 22 31  1  0
M  END
$$$$
