
     RDKit          3D

 39 42  0  0  0  0  0  0  0  0999 V2000
    5.6999   -3.0453   -1.1070 C   0  0  0  0  0  0  0  0  0  0  0  0
    5.0576   -1.8626   -0.6293 O   0  0  0  0  0  0  0  0  0  0  0  0
    3.9075   -1.5590   -1.2818 C   0  0  0  0  0  0  0  0  0  0  0  0
    3.4214   -2.1948   -2.2042 O   0  0  0  0  0  0  0  0  0  0  0  0
    3.2951   -0.3227   -0.7230 C   0  0  0  0  0  0  0  0  0  0  0  0
    2.0770    0.1122   -1.2599 C   0  0  0  0  0  0  0  0  0  0  0  0
    1.4607    1.2670   -0.7710 C   0  0  0  0  0  0  0  0  0  0  0  0
    2.0520    2.0069    0.2626 C   0  0  0  0  0  0  0  0  0  0  0  0
    1.3771    3.2465    0.8000 C   0  0  0  0  0  0  0  0  0  0  0  0
    0.6374    3.0091    2.4407 S   0  0  0  0  0  0  0  0  0  0  0  0
   -0.6623    1.8779    2.0020 C   0  0  0  0  0  0  0  0  0  0  0  0
   -0.7529    0.7428    2.7474 N   0  0  0  0  0  0  0  0  0  0  0  0
   -1.6978   -0.1675    2.5015 N   0  0  0  0  0  0  0  0  0  0  0  0
   -2.5516    0.1146    1.4879 C   0  0  0  0  0  0  0  0  0  0  0  0
   -2.4116    1.2928    0.7769 C   0  0  0  0  0  0  0  0  0  0  0  0
   -1.4764    2.2359    0.9811 N   0  0  0  0  0  0  0  0  0  0  0  0
   -3.3951    1.3273   -0.1696 N   0  0  0  0  0  0  0  0  0  0  0  0
   -4.1689    0.1875   -0.0940 C   0  0  0  0  0  0  0  0  0  0  0  0
   -5.2734   -0.2068   -0.8580 C   0  0  0  0  0  0  0  0  0  0  0  0
   -5.8677   -1.4345   -0.5492 C   0  0  0  0  0  0  0  0  0  0  0  0
   -5.3779   -2.2344    0.4816 C   0  0  0  0  0  0  0  0  0  0  0  0
   -4.2734   -1.8275    1.2379 C   0  0  0  0  0  0  0  0  0  0  0  0
   -3.6552   -0.5951    0.9474 C   0  0  0  0  0  0  0  0  0  0  0  0
    3.2724    1.5681    0.7974 C   0  0  0  0  0  0  0  0  0  0  0  0
    3.8903    0.4125    0.3094 C   0  0  0  0  0  0  0  0  0  0  0  0
    5.9869   -2.9283   -2.1567 H   0  0  0  0  0  0  0  0  0  0  0  0
    6.6065   -3.2005   -0.5157 H   0  0  0  0  0  0  0  0  0  0  0  0
    5.0484   -3.9151   -0.9769 H   0  0  0  0  0  0  0  0  0  0  0  0
    1.5992   -0.4505   -2.0601 H   0  0  0  0  0  0  0  0  0  0  0  0
    0.5106    1.5795   -1.2003 H   0  0  0  0  0  0  0  0  0  0  0  0
    0.6258    3.6217    0.0958 H   0  0  0  0  0  0  0  0  0  0  0  0
    2.1273    4.0420    0.8826 H   0  0  0  0  0  0  0  0  0  0  0  0
   -3.5281    2.0839   -0.8236 H   0  0  0  0  0  0  0  0  0  0  0  0
   -5.6617    0.4101   -1.6625 H   0  0  0  0  0  0  0  0  0  0  0  0
   -6.7280   -1.7711   -1.1244 H   0  0  0  0  0  0  0  0  0  0  0  0
   -5.8574   -3.1854    0.7024 H   0  0  0  0  0  0  0  0  0  0  0  0
   -3.8951   -2.4550    2.0408 H   0  0  0  0  0  0  0  0  0  0  0  0
    3.7478    2.1207    1.6062 H   0  0  0  0  0  0  0  0  0  0  0  0
    4.8336    0.0971    0.7486 H   0  0  0  0  0  0  0  0  0  0  0  0
  1  2  1  0
  2  3  1  0
  3  4  2  0
  3  5  1  0
  5  6  2  0
  6  7  1  0
  7  8  2  0
  8  9  1  0
  9 10  1  0
 10 11  1  0
 11 12  2  0
 12 13  1  0
 13 14  2  0
 14 15  1  0
 15 16  2  0
 15 17  1  0
 17 18  1  0
 18 19  2  0
 19 20  1  0
 20 21  2  0
 21 22  1  0
 22 23  2  0
  8 24  1  0
 24 25  2  0
 25  5  1  0
 16 11  1  0
 23 18  1  0
 23 14  1  0
  1 26  1  0
  1 27  1  0
  1 28  1  0
  6 29  1  0
  7 30  1  0
  9 31  1  0
  9 32  1  0
 17 33  1  0
 19 34  1  0
 20 35  1  0
 21 36  1  0
 22 37  1  0
 24 38  1  0
 25 39  1  0
M  END
$$$$
