
     RDKit          3D

 31 33  0  0  0  0  0  0  0  0999 V2000
   -0.3063   -1.2347   -2.2307 C   0  0  0  0  0  0  0  0  0  0  0  0
   -1.5735   -0.6026   -1.9527 N   0  0  0  0  0  0  0  0  0  0  0  0
   -2.5857   -0.4545   -2.8623 C   0  0  0  0  0  0  0  0  0  0  0  0
   -3.6572    0.0749   -2.3176 N   0  0  0  0  0  0  0  0  0  0  0  0
   -3.3173    0.2766   -0.9907 C   0  0  0  0  0  0  0  0  0  0  0  0
   -4.2682    0.8396   -0.0607 N   0  0  0  0  0  4  0  0  0  0  0  0
   -3.8685    1.0751    1.0886 O   0  0  0  0  0  0  0  0  0  0  0  0
   -5.4165    1.0527   -0.4742 O   0  0  0  0  0  1  0  0  0  0  0  0
   -2.0092   -0.1022   -0.7437 C   0  0  0  0  0  0  0  0  0  0  0  0
   -1.2798   -0.1092    0.3746 O   0  0  0  0  0  0  0  0  0  0  0  0
   -0.0597    0.5381    0.4223 C   0  0  0  0  0  0  0  0  0  0  0  0
    0.0960    1.8140   -0.1327 C   0  0  0  0  0  0  0  0  0  0  0  0
    1.3325    2.4485   -0.0744 C   0  0  0  0  0  0  0  0  0  0  0  0
    2.4104    1.8169    0.5458 C   0  0  0  0  0  0  0  0  0  0  0  0
    2.2665    0.5471    1.1288 C   0  0  0  0  0  0  0  0  0  0  0  0
    3.3521   -0.0796    1.7628 C   0  0  0  0  0  0  0  0  0  0  0  0
    3.2109   -1.3375    2.3493 C   0  0  0  0  0  0  0  0  0  0  0  0
    1.9819   -1.9856    2.3123 C   0  0  0  0  0  0  0  0  0  0  0  0
    0.8935   -1.3773    1.6850 C   0  0  0  0  0  0  0  0  0  0  0  0
    1.0123   -0.1071    1.0805 C   0  0  0  0  0  0  0  0  0  0  0  0
    0.4518   -0.4567   -2.3450 H   0  0  0  0  0  0  0  0  0  0  0  0
   -0.3856   -1.8115   -3.1562 H   0  0  0  0  0  0  0  0  0  0  0  0
   -0.0565   -1.9099   -1.4091 H   0  0  0  0  0  0  0  0  0  0  0  0
   -2.4933   -0.7572   -3.8985 H   0  0  0  0  0  0  0  0  0  0  0  0
   -0.7418    2.3258   -0.5978 H   0  0  0  0  0  0  0  0  0  0  0  0
    1.4568    3.4401   -0.5025 H   0  0  0  0  0  0  0  0  0  0  0  0
    3.3682    2.3327    0.5834 H   0  0  0  0  0  0  0  0  0  0  0  0
    4.3211    0.4131    1.8093 H   0  0  0  0  0  0  0  0  0  0  0  0
    4.0596   -1.8065    2.8405 H   0  0  0  0  0  0  0  0  0  0  0  0
    1.8656   -2.9619    2.7760 H   0  0  0  0  0  0  0  0  0  0  0  0
   -0.0605   -1.9010    1.6773 H   0  0  0  0  0  0  0  0  0  0  0  0
  1  2  1  0
  2  3  1  0
  3  4  2  0
  4  5  1  0
  5  6  1  0
  6  7  2  0
  6  8  1  0
  5  9  2  0
  9 10  1  0
 10 11  1  0
 11 12  2  0
 12 13  1  0
 13 14  2  0
 14 15  1  0
 15 16  2  0
 16 17  1  0
 17 18  2  0
 18 19  1  0
 19 20  2  0
  9  2  1  0
 20 11  1  0
 20 15  1  0
  1 21  1  0
  1 22  1  0
  1 23  1  0
  3 24  1  0
 12 25  1  0
 13 26  1  0
 14 27  1  0
 16 28  1  0
 17 29  1  0
 18 30  1  0
 19 31  1  0
M  CHG  2   6   1   8  -1
M  END
$$$$
