
     RDKit          3D

 21 21  0  0  0  0  0  0  0  0999 V2000
   -1.7724   -2.3101   -0.1599 C   0  0  0  0  0  0  0  0  0  0  0  0
   -0.5593   -1.7768   -0.6745 O   0  0  0  0  0  0  0  0  0  0  0  0
   -0.1733   -0.5348   -0.2454 C   0  0  0  0  0  0  0  0  0  0  0  0
   -0.9845    0.3236    0.5113 C   0  0  0  0  0  0  0  0  0  0  0  0
   -0.5442    1.6011    0.8930 C   0  0  0  0  0  0  0  0  0  0  0  0
   -1.4442    2.4605    1.5478 N   0  0  0  0  0  0  0  0  0  0  0  0
    0.6965    2.0519    0.4142 C   0  0  0  0  0  0  0  0  0  0  0  0
    1.3171    3.8054    0.8033 Br  0  0  0  0  0  0  0  0  0  0  0  0
    1.5192    1.2155   -0.3380 C   0  0  0  0  0  0  0  0  0  0  0  0
    1.0938   -0.0825   -0.6457 C   0  0  0  0  0  0  0  0  0  0  0  0
    2.0245   -0.9124   -1.4347 C   0  0  0  0  0  0  0  0  0  0  0  0
    2.6833   -0.5261   -2.3827 O   0  0  0  0  0  0  0  0  0  0  0  0
    2.1742   -2.1454   -0.9222 O   0  0  0  0  0  0  0  0  0  0  0  0
   -1.8700   -3.3353   -0.5298 H   0  0  0  0  0  0  0  0  0  0  0  0
   -1.7568   -2.3511    0.9343 H   0  0  0  0  0  0  0  0  0  0  0  0
   -2.6348   -1.7423   -0.5236 H   0  0  0  0  0  0  0  0  0  0  0  0
   -1.9857    0.0253    0.8052 H   0  0  0  0  0  0  0  0  0  0  0  0
   -0.9844    3.2514    1.9949 H   0  0  0  0  0  0  0  0  0  0  0  0
   -2.1057    1.9956    2.1610 H   0  0  0  0  0  0  0  0  0  0  0  0
    2.4879    1.5640   -0.6897 H   0  0  0  0  0  0  0  0  0  0  0  0
    2.8188   -2.5774   -1.5187 H   0  0  0  0  0  0  0  0  0  0  0  0
  1  2  1  0
  2  3  1  0
  3  4  2  0
  4  5  1  0
  5  6  1  0
  5  7  2  0
  7  8  1  0
  7  9  1  0
  9 10  2  0
 10 11  1  0
 11 12  2  0
 11 13  1  0
 10  3  1  0
  1 14  1  0
  1 15  1  0
  1 16  1  0
  4 17  1  0
  6 18  1  0
  6 19  1  0
  9 20  1  0
 13 21  1  0
M  END
$$$$
