
     RDKit          3D

 50 53  0  0  0  0  0  0  0  0999 V2000
  -10.1617    1.0711   -0.2658 C   0  0  0  0  0  0  0  0  0  0  0  0
   -8.7488    0.6413   -0.5397 C   0  0  0  0  0  0  0  0  0  0  0  0
   -8.4331    0.0258   -1.7544 C   0  0  0  0  0  0  0  0  0  0  0  0
   -7.1195   -0.3618   -2.0432 C   0  0  0  0  0  0  0  0  0  0  0  0
   -6.0969   -0.1268   -1.1032 C   0  0  0  0  0  0  0  0  0  0  0  0
   -4.7608   -0.4537   -1.2570 N   0  0  0  0  0  0  0  0  0  0  0  0
   -4.0684   -0.1030   -0.1899 C   0  0  0  0  0  0  0  0  0  0  0  0
   -2.6109   -0.3115   -0.0587 C   0  0  0  0  0  0  0  0  0  0  0  0
   -1.8769   -0.6929   -1.1928 C   0  0  0  0  0  0  0  0  0  0  0  0
   -0.4936   -0.9028   -1.1295 C   0  0  0  0  0  0  0  0  0  0  0  0
    0.1975   -0.7409    0.0743 C   0  0  0  0  0  0  0  0  0  0  0  0
    1.5896   -0.9646    0.0539 N   0  0  0  0  0  0  0  0  0  0  0  0
    2.4739   -0.8686    1.1145 C   0  0  0  0  0  0  0  0  0  0  0  0
    2.2024   -0.5733    2.2720 O   0  0  0  0  0  0  0  0  0  0  0  0
    3.8969   -1.1560    0.6825 C   0  0  0  0  0  0  0  0  0  0  0  0
    4.8395   -1.1668    1.8745 C   0  0  0  0  0  0  0  0  0  0  0  0
    6.5282   -1.4444    1.3994 S   0  0  0  0  0  6  0  0  0  0  0  0
    7.3444   -1.4516    2.5984 O   0  0  0  0  0  0  0  0  0  0  0  0
    6.5535   -2.5665    0.4790 O   0  0  0  0  0  0  0  0  0  0  0  0
    6.9749    0.0148    0.4871 C   0  0  0  0  0  0  0  0  0  0  0  0
    7.1891   -0.0593   -0.8916 C   0  0  0  0  0  0  0  0  0  0  0  0
    7.5342    1.0959   -1.5934 C   0  0  0  0  0  0  0  0  0  0  0  0
    7.6699    2.3098   -0.9182 C   0  0  0  0  0  0  0  0  0  0  0  0
    7.4703    2.3737    0.4621 C   0  0  0  0  0  0  0  0  0  0  0  0
    7.1266    1.2238    1.1720 C   0  0  0  0  0  0  0  0  0  0  0  0
   -0.5206   -0.3706    1.2101 C   0  0  0  0  0  0  0  0  0  0  0  0
   -1.9074   -0.1605    1.1448 C   0  0  0  0  0  0  0  0  0  0  0  0
   -4.9977    0.6561    1.0467 S   0  0  0  0  0  0  0  0  0  0  0  0
   -6.4231    0.4941    0.1006 C   0  0  0  0  0  0  0  0  0  0  0  0
   -7.7379    0.8911    0.4018 C   0  0  0  0  0  0  0  0  0  0  0  0
  -10.3979    1.9710   -0.8428 H   0  0  0  0  0  0  0  0  0  0  0  0
  -10.3121    1.2921    0.7971 H   0  0  0  0  0  0  0  0  0  0  0  0
  -10.8629    0.2751   -0.5372 H   0  0  0  0  0  0  0  0  0  0  0  0
   -9.2102   -0.1585   -2.4933 H   0  0  0  0  0  0  0  0  0  0  0  0
   -6.8793   -0.8422   -2.9863 H   0  0  0  0  0  0  0  0  0  0  0  0
   -2.3855   -0.8289   -2.1468 H   0  0  0  0  0  0  0  0  0  0  0  0
    0.0244   -1.1944   -2.0395 H   0  0  0  0  0  0  0  0  0  0  0  0
    1.9772   -1.2294   -0.8437 H   0  0  0  0  0  0  0  0  0  0  0  0
    4.1908   -0.3858   -0.0388 H   0  0  0  0  0  0  0  0  0  0  0  0
    3.9199   -2.1257    0.1720 H   0  0  0  0  0  0  0  0  0  0  0  0
    4.5739   -1.9761    2.5644 H   0  0  0  0  0  0  0  0  0  0  0  0
    4.8012   -0.2284    2.4381 H   0  0  0  0  0  0  0  0  0  0  0  0
    7.0997   -1.0037   -1.4235 H   0  0  0  0  0  0  0  0  0  0  0  0
    7.7075    1.0497   -2.6662 H   0  0  0  0  0  0  0  0  0  0  0  0
    7.9455    3.2076   -1.4673 H   0  0  0  0  0  0  0  0  0  0  0  0
    7.5934    3.3197    0.9846 H   0  0  0  0  0  0  0  0  0  0  0  0
    6.9934    1.2768    2.2505 H   0  0  0  0  0  0  0  0  0  0  0  0
   -0.0378   -0.2369    2.1731 H   0  0  0  0  0  0  0  0  0  0  0  0
   -2.4149    0.1171    2.0657 H   0  0  0  0  0  0  0  0  0  0  0  0
   -7.9598    1.3792    1.3469 H   0  0  0  0  0  0  0  0  0  0  0  0
  1  2  1  0
  2  3  2  0
  3  4  1  0
  4  5  2  0
  5  6  1  0
  6  7  2  0
  7  8  1  0
  8  9  2  0
  9 10  1  0
 10 11  2  0
 11 12  1  0
 12 13  1  0
 13 14  2  0
 13 15  1  0
 15 16  1  0
 16 17  1  0
 17 18  2  0
 17 19  2  0
 17 20  1  0
 20 21  2  0
 21 22  1  0
 22 23  2  0
 23 24  1  0
 24 25  2  0
 11 26  1  0
 26 27  2  0
  7 28  1  0
 28 29  1  0
 29 30  2  0
 30  2  1  0
 29  5  1  0
 27  8  1  0
 25 20  1  0
  1 31  1  0
  1 32  1  0
  1 33  1  0
  3 34  1  0
  4 35  1  0
  9 36  1  0
 10 37  1  0
 12 38  1  0
 15 39  1  0
 15 40  1  0
 16 41  1  0
 16 42  1  0
 21 43  1  0
 22 44  1  0
 23 45  1  0
 24 46  1  0
 25 47  1  0
 26 48  1  0
 27 49  1  0
 30 50  1  0
M  END
$$$$
