
     RDKit          3D

 52 53  0  0  0  0  0  0  0  0999 V2000
   -5.3739    0.9307   -2.2678 C   0  0  0  0  0  0  0  0  0  0  0  0
   -5.8327    0.6551   -0.8412 C   0  0  0  0  0  0  0  0  0  0  0  0
   -5.1319   -0.5253   -0.1351 C   0  0  0  0  0  0  0  0  0  0  0  0
   -5.4011   -1.8626   -0.8360 C   0  0  0  0  0  0  0  0  0  0  0  0
   -3.6616   -0.2378    0.1317 C   0  0  0  0  0  0  0  0  0  0  0  0
   -3.3100    0.5169    1.2613 C   0  0  0  0  0  0  0  0  0  0  0  0
   -1.9737    0.8157    1.5437 C   0  0  0  0  0  0  0  0  0  0  0  0
   -0.9473    0.3799    0.6947 C   0  0  0  0  0  0  0  0  0  0  0  0
    0.5191    0.6678    0.9841 C   0  0  0  0  0  0  0  0  0  0  0  0
    0.7690    2.1409    1.3224 C   0  0  0  0  0  0  0  0  0  0  0  0
    0.9787   -0.2092    2.0555 N   0  0  0  0  0  0  0  0  0  0  0  0
    2.1915   -0.4545    2.5642 C   0  0  0  0  0  0  0  0  0  0  0  0
    2.2732   -1.1474    4.0835 S   0  0  0  0  0  0  0  0  0  0  0  0
    3.3485   -0.1860    1.9419 N   0  0  0  0  0  0  0  0  0  0  0  0
    3.6703    0.0096    0.5295 C   0  0  0  0  0  0  0  0  0  0  0  0
    5.1286    0.4714    0.3854 C   0  0  0  0  0  0  0  0  0  0  0  0
    5.5214    0.6450   -1.0795 C   0  0  0  0  0  0  0  0  0  0  0  0
    5.2656   -0.6258   -1.8841 C   0  0  0  0  0  0  0  0  0  0  0  0
    3.8239   -1.1035   -1.7390 C   0  0  0  0  0  0  0  0  0  0  0  0
    3.4324   -1.2763   -0.2737 C   0  0  0  0  0  0  0  0  0  0  0  0
   -1.2969   -0.3814   -0.4298 C   0  0  0  0  0  0  0  0  0  0  0  0
   -2.6346   -0.6800   -0.7109 C   0  0  0  0  0  0  0  0  0  0  0  0
   -4.3113    1.1862   -2.3079 H   0  0  0  0  0  0  0  0  0  0  0  0
   -5.9318    1.7789   -2.6784 H   0  0  0  0  0  0  0  0  0  0  0  0
   -5.5521    0.0730   -2.9224 H   0  0  0  0  0  0  0  0  0  0  0  0
   -5.6956    1.5702   -0.2512 H   0  0  0  0  0  0  0  0  0  0  0  0
   -6.9130    0.4623   -0.8603 H   0  0  0  0  0  0  0  0  0  0  0  0
   -5.6091   -0.6231    0.8514 H   0  0  0  0  0  0  0  0  0  0  0  0
   -6.4786   -2.0517   -0.8966 H   0  0  0  0  0  0  0  0  0  0  0  0
   -4.9495   -2.6908   -0.2782 H   0  0  0  0  0  0  0  0  0  0  0  0
   -5.0042   -1.8945   -1.8550 H   0  0  0  0  0  0  0  0  0  0  0  0
   -4.0819    0.8773    1.9390 H   0  0  0  0  0  0  0  0  0  0  0  0
   -1.7482    1.3887    2.4401 H   0  0  0  0  0  0  0  0  0  0  0  0
    1.0790    0.4282    0.0790 H   0  0  0  0  0  0  0  0  0  0  0  0
    1.8388    2.3465    1.4308 H   0  0  0  0  0  0  0  0  0  0  0  0
    0.2982    2.4308    2.2682 H   0  0  0  0  0  0  0  0  0  0  0  0
    0.3799    2.7957    0.5350 H   0  0  0  0  0  0  0  0  0  0  0  0
    0.2448   -0.4985    2.6922 H   0  0  0  0  0  0  0  0  0  0  0  0
    4.1309   -0.4999    2.5068 H   0  0  0  0  0  0  0  0  0  0  0  0
    3.0429    0.8117    0.1389 H   0  0  0  0  0  0  0  0  0  0  0  0
    5.2742    1.4189    0.9186 H   0  0  0  0  0  0  0  0  0  0  0  0
    5.8013   -0.2567    0.8574 H   0  0  0  0  0  0  0  0  0  0  0  0
    4.9498    1.4740   -1.5146 H   0  0  0  0  0  0  0  0  0  0  0  0
    6.5807    0.9173   -1.1474 H   0  0  0  0  0  0  0  0  0  0  0  0
    5.9468   -1.4154   -1.5437 H   0  0  0  0  0  0  0  0  0  0  0  0
    5.4898   -0.4446   -2.9413 H   0  0  0  0  0  0  0  0  0  0  0  0
    3.1493   -0.3799   -2.2130 H   0  0  0  0  0  0  0  0  0  0  0  0
    3.6962   -2.0540   -2.2690 H   0  0  0  0  0  0  0  0  0  0  0  0
    2.3810   -1.5797   -0.2144 H   0  0  0  0  0  0  0  0  0  0  0  0
    4.0134   -2.0990    0.1635 H   0  0  0  0  0  0  0  0  0  0  0  0
   -0.5263   -0.7544   -1.1016 H   0  0  0  0  0  0  0  0  0  0  0  0
   -2.8541   -1.2607   -1.6028 H   0  0  0  0  0  0  0  0  0  0  0  0
  1  2  1  0
  2  3  1  0
  3  4  1  0
  3  5  1  0
  5  6  2  0
  6  7  1  0
  7  8  2  0
  8  9  1  0
  9 10  1  0
  9 11  1  0
 11 12  1  0
 12 13  2  0
 12 14  1  0
 14 15  1  0
 15 16  1  0
 16 17  1  0
 17 18  1  0
 18 19  1  0
 19 20  1  0
  8 21  1  0
 21 22  2  0
 22  5  1  0
 20 15  1  0
  1 23  1  0
  1 24  1  0
  1 25  1  0
  2 26  1  0
  2 27  1  0
  3 28  1  0
  4 29  1  0
  4 30  1  0
  4 31  1  0
  6 32  1  0
  7 33  1  0
  9 34  1  0
 10 35  1  0
 10 36  1  0
 10 37  1  0
 11 38  1  0
 14 39  1  0
 15 40  1  0
 16 41  1  0
 16 42  1  0
 17 43  1  0
 17 44  1  0
 18 45  1  0
 18 46  1  0
 19 47  1  0
 19 48  1  0
 20 49  1  0
 20 50  1  0
 21 51  1  0
 22 52  1  0
M  END
$$$$
