
     RDKit          3D

 46 47  0  0  0  0  0  0  0  0999 V2000
    0.2671    0.6745   -2.7290 O   0  0  0  0  0  0  0  0  0  0  0  0
    0.3330    1.1376   -1.5992 C   0  0  0  0  0  0  0  0  0  0  0  0
   -0.6380    1.8801   -0.9648 N   0  0  0  0  0  0  0  0  0  0  0  0
   -1.9269    2.1496   -1.5590 C   0  0  0  0  0  0  0  0  0  0  0  0
   -2.9144    0.9935   -1.3920 C   0  0  0  0  0  0  0  0  0  0  0  0
   -3.3375    0.8029    0.0711 C   0  0  0  0  0  0  0  0  0  0  0  0
   -4.2202   -0.3594    0.2668 N   0  0  0  0  0  0  0  0  0  0  0  0
   -4.3883   -0.6331    1.7130 C   0  0  0  0  0  0  0  0  0  0  0  0
   -5.3466   -1.8080    1.9606 C   0  0  0  0  0  0  0  0  0  0  0  0
   -6.6323   -1.5542    1.3808 O   0  0  0  0  0  0  0  0  0  0  0  0
   -6.4951   -1.3445   -0.0301 C   0  0  0  0  0  0  0  0  0  0  0  0
   -5.5593   -0.1612   -0.3313 C   0  0  0  0  0  0  0  0  0  0  0  0
    1.5969    0.9073   -0.7462 C   0  0  0  0  0  0  0  0  0  0  0  0
    1.6537    1.3925    0.3765 O   0  0  0  0  0  0  0  0  0  0  0  0
    2.5427    0.1529   -1.4223 N   0  0  0  0  0  0  0  0  0  0  0  0
    3.8289   -0.1053   -1.0281 N   0  0  0  0  0  0  0  0  0  0  0  0
    4.0989   -0.1363    0.2405 C   0  0  0  0  0  0  0  0  0  0  0  0
    5.4790   -0.3664    0.7214 C   0  0  0  0  0  0  0  0  0  0  0  0
    5.6953   -0.3902    2.1043 C   0  0  0  0  0  0  0  0  0  0  0  0
    6.9817   -0.6048    2.6049 C   0  0  0  0  0  0  0  0  0  0  0  0
    8.0507   -0.7951    1.7283 C   0  0  0  0  0  0  0  0  0  0  0  0
    7.8380   -0.7707    0.3494 C   0  0  0  0  0  0  0  0  0  0  0  0
    6.5565   -0.5565   -0.1521 C   0  0  0  0  0  0  0  0  0  0  0  0
    6.4272   -0.5452   -1.5141 O   0  0  0  0  0  0  0  0  0  0  0  0
   -0.4356    2.1699   -0.0107 H   0  0  0  0  0  0  0  0  0  0  0  0
   -1.7770    2.3435   -2.6271 H   0  0  0  0  0  0  0  0  0  0  0  0
   -2.3165    3.0648   -1.1014 H   0  0  0  0  0  0  0  0  0  0  0  0
   -3.7919    1.2164   -2.0089 H   0  0  0  0  0  0  0  0  0  0  0  0
   -2.4737    0.0651   -1.7755 H   0  0  0  0  0  0  0  0  0  0  0  0
   -2.4281    0.6498    0.6659 H   0  0  0  0  0  0  0  0  0  0  0  0
   -3.8110    1.7196    0.4463 H   0  0  0  0  0  0  0  0  0  0  0  0
   -3.4180   -0.8740    2.1622 H   0  0  0  0  0  0  0  0  0  0  0  0
   -4.7837    0.2593    2.2162 H   0  0  0  0  0  0  0  0  0  0  0  0
   -4.9432   -2.7439    1.5553 H   0  0  0  0  0  0  0  0  0  0  0  0
   -5.4912   -1.9472    3.0367 H   0  0  0  0  0  0  0  0  0  0  0  0
   -6.1328   -2.2669   -0.5001 H   0  0  0  0  0  0  0  0  0  0  0  0
   -7.4925   -1.1377   -0.4313 H   0  0  0  0  0  0  0  0  0  0  0  0
   -5.4845   -0.0629   -1.4188 H   0  0  0  0  0  0  0  0  0  0  0  0
   -6.0111    0.7575    0.0646 H   0  0  0  0  0  0  0  0  0  0  0  0
    2.3418   -0.0237   -2.4085 H   0  0  0  0  0  0  0  0  0  0  0  0
    3.3314   -0.0252    1.0236 H   0  0  0  0  0  0  0  0  0  0  0  0
    4.8736   -0.2412    2.8004 H   0  0  0  0  0  0  0  0  0  0  0  0
    7.1520   -0.6230    3.6788 H   0  0  0  0  0  0  0  0  0  0  0  0
    9.0520   -0.9618    2.1178 H   0  0  0  0  0  0  0  0  0  0  0  0
    8.6692   -0.9177   -0.3351 H   0  0  0  0  0  0  0  0  0  0  0  0
    5.4800   -0.3807   -1.7141 H   0  0  0  0  0  0  0  0  0  0  0  0
  1  2  2  0
  2  3  1  0
  3  4  1  0
  4  5  1  0
  5  6  1  0
  6  7  1  0
  7  8  1  0
  8  9  1  0
  9 10  1  0
 10 11  1  0
 11 12  1  0
  2 13  1  0
 13 14  2  0
 13 15  1  0
 15 16  1  0
 16 17  2  3
 17 18  1  0
 18 19  2  0
 19 20  1  0
 20 21  2  0
 21 22  1  0
 22 23  2  0
 23 24  1  0
 12  7  1  0
 23 18  1  0
  3 25  1  0
  4 26  1  0
  4 27  1  0
  5 28  1  0
  5 29  1  0
  6 30  1  0
  6 31  1  0
  8 32  1  0
  8 33  1  0
  9 34  1  0
  9 35  1  0
 11 36  1  0
 11 37  1  0
 12 38  1  0
 12 39  1  0
 15 40  1  0
 17 41  1  0
 19 42  1  0
 20 43  1  0
 21 44  1  0
 22 45  1  0
 24 46  1  0
M  END
$$$$
