
     RDKit          3D

 47 50  0  0  0  0  0  0  0  0999 V2000
   -0.5992    3.3530   -0.8133 O   0  0  0  0  0  0  0  0  0  0  0  0
   -0.1194    2.4506   -1.5047 C   0  0  0  0  0  0  0  0  0  0  0  0
   -0.7229    2.0854   -2.8601 C   0  0  0  0  0  0  0  0  0  0  0  0
   -2.5381    2.1994   -2.8339 S   0  0  0  0  0  0  0  0  0  0  0  0
   -2.8951    0.9727   -1.6572 C   0  0  0  0  0  0  0  0  0  0  0  0
   -2.0798   -0.0075   -1.3223 N   0  0  0  0  0  0  0  0  0  0  0  0
   -2.7375   -0.7612   -0.3732 N   0  0  0  0  0  0  0  0  0  0  0  0
   -3.9148   -0.1938   -0.1980 C   0  0  0  0  0  0  0  0  0  0  0  0
   -5.0143   -0.5688    0.6818 C   0  0  0  0  0  0  0  0  0  0  0  0
   -4.8966   -1.7079    1.4935 C   0  0  0  0  0  0  0  0  0  0  0  0
   -5.9359   -2.0905    2.3457 C   0  0  0  0  0  0  0  0  0  0  0  0
   -7.1069   -1.3382    2.3975 C   0  0  0  0  0  0  0  0  0  0  0  0
   -7.2401   -0.2041    1.5993 C   0  0  0  0  0  0  0  0  0  0  0  0
   -6.2005    0.1786    0.7468 C   0  0  0  0  0  0  0  0  0  0  0  0
   -4.0883    0.9101   -0.9906 O   0  0  0  0  0  0  0  0  0  0  0  0
    1.0032    1.7485   -1.0901 N   0  0  0  0  0  0  0  0  0  0  0  0
    1.5201    1.9719    0.2631 C   0  0  0  0  0  0  0  0  0  0  0  0
    2.1096    0.6972    0.8946 C   0  0  0  0  0  0  0  0  0  0  0  0
    3.1518    0.0962    0.0416 N   0  0  0  0  0  0  0  0  0  0  0  0
    4.1784   -0.6537    0.5960 C   0  0  0  0  0  0  0  0  0  0  0  0
    4.0355   -1.2952    1.8381 C   0  0  0  0  0  0  0  0  0  0  0  0
    5.0648   -2.0572    2.4057 C   0  0  0  0  0  0  0  0  0  0  0  0
    6.2750   -2.1992    1.7391 C   0  0  0  0  0  0  0  0  0  0  0  0
    6.4498   -1.5812    0.5075 C   0  0  0  0  0  0  0  0  0  0  0  0
    5.4133   -0.8228   -0.0523 C   0  0  0  0  0  0  0  0  0  0  0  0
    3.1312    0.4364   -1.3877 C   0  0  0  0  0  0  0  0  0  0  0  0
    1.7003    0.7292   -1.8815 C   0  0  0  0  0  0  0  0  0  0  0  0
   -0.4580    1.0758   -3.1785 H   0  0  0  0  0  0  0  0  0  0  0  0
   -0.3338    2.7904   -3.6011 H   0  0  0  0  0  0  0  0  0  0  0  0
   -3.9883   -2.3083    1.4664 H   0  0  0  0  0  0  0  0  0  0  0  0
   -5.8292   -2.9756    2.9680 H   0  0  0  0  0  0  0  0  0  0  0  0
   -7.9156   -1.6351    3.0606 H   0  0  0  0  0  0  0  0  0  0  0  0
   -8.1532    0.3848    1.6397 H   0  0  0  0  0  0  0  0  0  0  0  0
   -6.3288    1.0695    0.1349 H   0  0  0  0  0  0  0  0  0  0  0  0
    2.2981    2.7404    0.1778 H   0  0  0  0  0  0  0  0  0  0  0  0
    0.7334    2.3700    0.9126 H   0  0  0  0  0  0  0  0  0  0  0  0
    2.5151    0.9744    1.8751 H   0  0  0  0  0  0  0  0  0  0  0  0
    1.3109   -0.0385    1.0477 H   0  0  0  0  0  0  0  0  0  0  0  0
    3.0982   -1.2349    2.3847 H   0  0  0  0  0  0  0  0  0  0  0  0
    4.9113   -2.5415    3.3662 H   0  0  0  0  0  0  0  0  0  0  0  0
    7.0760   -2.7886    2.1759 H   0  0  0  0  0  0  0  0  0  0  0  0
    7.3930   -1.6813   -0.0227 H   0  0  0  0  0  0  0  0  0  0  0  0
    5.6079   -0.3427   -1.0067 H   0  0  0  0  0  0  0  0  0  0  0  0
    3.5240   -0.3881   -1.9946 H   0  0  0  0  0  0  0  0  0  0  0  0
    3.7637    1.3168   -1.5551 H   0  0  0  0  0  0  0  0  0  0  0  0
    1.0946   -0.1833   -1.8243 H   0  0  0  0  0  0  0  0  0  0  0  0
    1.7370    1.0477   -2.9282 H   0  0  0  0  0  0  0  0  0  0  0  0
  1  2  2  0
  2  3  1  0
  3  4  1  0
  4  5  1  0
  5  6  2  0
  6  7  1  0
  7  8  2  0
  8  9  1  0
  9 10  2  0
 10 11  1  0
 11 12  2  0
 12 13  1  0
 13 14  2  0
  8 15  1  0
  2 16  1  0
 16 17  1  0
 17 18  1  0
 18 19  1  0
 19 20  1  0
 20 21  2  0
 21 22  1  0
 22 23  2  0
 23 24  1  0
 24 25  2  0
 19 26  1  0
 26 27  1  0
 15  5  1  0
 27 16  1  0
 14  9  1  0
 25 20  1  0
  3 28  1  0
  3 29  1  0
 10 30  1  0
 11 31  1  0
 12 32  1  0
 13 33  1  0
 14 34  1  0
 17 35  1  0
 17 36  1  0
 18 37  1  0
 18 38  1  0
 21 39  1  0
 22 40  1  0
 23 41  1  0
 24 42  1  0
 25 43  1  0
 26 44  1  0
 26 45  1  0
 27 46  1  0
 27 47  1  0
M  END
$$$$
