
     RDKit          3D

 48 50  0  0  0  0  0  0  0  0999 V2000
    2.0019   -3.0223   -2.3248 C   0  0  0  0  0  0  0  0  0  0  0  0
    1.5559   -2.9208   -0.8739 C   0  0  0  0  0  0  0  0  0  0  0  0
    2.0272   -1.6493   -0.2379 C   0  0  0  0  0  0  0  0  0  0  0  0
    1.3272   -0.5704    0.1064 C   0  0  0  0  0  0  0  0  0  0  0  0
   -0.1074   -0.3816   -0.0941 C   0  0  0  0  0  0  0  0  0  0  0  0
   -1.0108   -0.7317    0.9189 C   0  0  0  0  0  0  0  0  0  0  0  0
   -2.3850   -0.5759    0.7277 C   0  0  0  0  0  0  0  0  0  0  0  0
   -3.3451   -0.8800    1.6577 O   0  0  0  0  0  0  0  0  0  0  0  0
   -2.9246   -1.5403    2.8434 C   0  0  0  0  0  0  0  0  0  0  0  0
   -2.8444   -0.0593   -0.4960 C   0  0  0  0  0  0  0  0  0  0  0  0
   -4.2008    0.0576   -0.7107 O   0  0  0  0  0  0  0  0  0  0  0  0
   -4.6415    1.3559   -0.3174 C   0  0  0  0  0  0  0  0  0  0  0  0
   -1.9546    0.2586   -1.5362 C   0  0  0  0  0  0  0  0  0  0  0  0
   -2.5166    0.7245   -2.6965 O   0  0  0  0  0  0  0  0  0  0  0  0
   -1.6605    0.8932   -3.8178 C   0  0  0  0  0  0  0  0  0  0  0  0
   -0.5846    0.0964   -1.3227 C   0  0  0  0  0  0  0  0  0  0  0  0
    2.2321    0.4435    0.7201 C   0  0  0  0  0  0  0  0  0  0  0  0
    2.3679    1.7752   -0.0436 C   0  0  0  0  0  0  0  0  0  0  0  0
    2.0994    2.8675    0.9905 C   0  0  0  0  0  0  0  0  0  0  0  0
    2.4623    2.2332    2.3217 C   0  0  0  0  0  0  0  0  0  0  0  0
    1.9325    0.8112    2.1818 C   0  0  0  0  0  0  0  0  0  0  0  0
    3.5440   -0.3448    0.6424 C   0  0  0  0  0  0  0  0  0  0  0  0
    4.6283    0.0599    1.0460 O   0  0  0  0  0  0  0  0  0  0  0  0
    3.3849   -1.5810    0.0636 O   0  0  0  0  0  0  0  0  0  0  0  0
    1.5998   -2.1961   -2.9209 H   0  0  0  0  0  0  0  0  0  0  0  0
    1.6464   -3.9600   -2.7639 H   0  0  0  0  0  0  0  0  0  0  0  0
    3.0937   -3.0040   -2.4087 H   0  0  0  0  0  0  0  0  0  0  0  0
    0.4644   -3.0037   -0.8300 H   0  0  0  0  0  0  0  0  0  0  0  0
    1.9516   -3.7729   -0.3085 H   0  0  0  0  0  0  0  0  0  0  0  0
   -0.6177   -1.1276    1.8499 H   0  0  0  0  0  0  0  0  0  0  0  0
   -3.8173   -1.7692    3.4333 H   0  0  0  0  0  0  0  0  0  0  0  0
   -2.2842   -0.8902    3.4483 H   0  0  0  0  0  0  0  0  0  0  0  0
   -2.4247   -2.4875    2.6149 H   0  0  0  0  0  0  0  0  0  0  0  0
   -4.4698    1.5302    0.7504 H   0  0  0  0  0  0  0  0  0  0  0  0
   -4.1580    2.1392   -0.9113 H   0  0  0  0  0  0  0  0  0  0  0  0
   -5.7190    1.4123   -0.4988 H   0  0  0  0  0  0  0  0  0  0  0  0
   -1.1574   -0.0439   -4.0791 H   0  0  0  0  0  0  0  0  0  0  0  0
   -2.2802    1.1870   -4.6705 H   0  0  0  0  0  0  0  0  0  0  0  0
   -0.9367    1.6954   -3.6411 H   0  0  0  0  0  0  0  0  0  0  0  0
    0.1339    0.3349   -2.1004 H   0  0  0  0  0  0  0  0  0  0  0  0
    3.3774    1.9033   -0.4532 H   0  0  0  0  0  0  0  0  0  0  0  0
    1.6730    1.8775   -0.8825 H   0  0  0  0  0  0  0  0  0  0  0  0
    1.0353    3.1327    0.9806 H   0  0  0  0  0  0  0  0  0  0  0  0
    2.6750    3.7761    0.7912 H   0  0  0  0  0  0  0  0  0  0  0  0
    2.0131    2.7602    3.1684 H   0  0  0  0  0  0  0  0  0  0  0  0
    3.5495    2.2281    2.4595 H   0  0  0  0  0  0  0  0  0  0  0  0
    0.8569    0.8173    2.3879 H   0  0  0  0  0  0  0  0  0  0  0  0
    2.4073    0.1416    2.9072 H   0  0  0  0  0  0  0  0  0  0  0  0
  1  2  1  0
  2  3  1  0
  3  4  2  0
  4  5  1  0
  5  6  2  0
  6  7  1  0
  7  8  1  0
  8  9  1  0
  7 10  2  0
 10 11  1  0
 11 12  1  0
 10 13  1  0
 13 14  1  0
 14 15  1  0
 13 16  2  0
  4 17  1  0
 17 18  1  0
 18 19  1  0
 19 20  1  0
 20 21  1  0
 17 22  1  0
 22 23  2  0
 22 24  1  0
 24  3  1  0
 16  5  1  0
 21 17  1  0
  1 25  1  0
  1 26  1  0
  1 27  1  0
  2 28  1  0
  2 29  1  0
  6 30  1  0
  9 31  1  0
  9 32  1  0
  9 33  1  0
 12 34  1  0
 12 35  1  0
 12 36  1  0
 15 37  1  0
 15 38  1  0
 15 39  1  0
 16 40  1  0
 18 41  1  0
 18 42  1  0
 19 43  1  0
 19 44  1  0
 20 45  1  0
 20 46  1  0
 21 47  1  0
 21 48  1  0
M  END
$$$$
