
     RDKit          3D

 48 50  0  0  0  0  0  0  0  0999 V2000
   -2.7426    0.9387    1.6806 O   0  0  0  0  0  0  0  0  0  0  0  0
   -2.4198    0.4567    0.5908 C   0  0  0  0  0  0  0  0  0  0  0  0
   -1.0165    0.6926    0.0233 C   0  0  0  0  0  0  0  0  0  0  0  0
   -0.0107    0.5066    1.0948 N   0  0  0  0  0  0  0  0  0  0  0  0
    1.0143    1.4914    1.2500 C   0  0  0  0  0  0  0  0  0  0  0  0
    1.2840    1.9872    2.5230 C   0  0  0  0  0  0  0  0  0  0  0  0
    2.3182    2.9044    2.7120 C   0  0  0  0  0  0  0  0  0  0  0  0
    3.0973    3.3218    1.6287 C   0  0  0  0  0  0  0  0  0  0  0  0
    4.3636    4.4503    1.9446 Cl  0  0  0  0  0  0  0  0  0  0  0  0
    2.8496    2.8240    0.3433 C   0  0  0  0  0  0  0  0  0  0  0  0
    3.6841    3.2407   -0.8369 C   0  0  0  0  0  0  0  0  0  0  0  0
    4.9951    2.9001   -0.7104 F   0  0  0  0  0  0  0  0  0  0  0  0
    3.2733    2.6613   -2.0040 F   0  0  0  0  0  0  0  0  0  0  0  0
    3.6487    4.5800   -1.0725 F   0  0  0  0  0  0  0  0  0  0  0  0
    1.7990    1.9008    0.1678 C   0  0  0  0  0  0  0  0  0  0  0  0
    0.3643   -1.1014    1.5226 S   0  0  0  0  0  6  0  0  0  0  0  0
    1.0225   -1.1189    2.8123 O   0  0  0  0  0  0  0  0  0  0  0  0
   -0.7957   -1.9308    1.2642 O   0  0  0  0  0  0  0  0  0  0  0  0
    1.5939   -1.5547    0.3076 C   0  0  0  0  0  0  0  0  0  0  0  0
    2.9477   -1.3320    0.5821 C   0  0  0  0  0  0  0  0  0  0  0  0
    3.9079   -1.6861   -0.3648 C   0  0  0  0  0  0  0  0  0  0  0  0
    3.5174   -2.2785   -1.5668 C   0  0  0  0  0  0  0  0  0  0  0  0
    2.1681   -2.5297   -1.8228 C   0  0  0  0  0  0  0  0  0  0  0  0
    1.2008   -2.1755   -0.8823 C   0  0  0  0  0  0  0  0  0  0  0  0
   -3.3166   -0.2839   -0.1638 N   0  0  0  0  0  0  0  0  0  0  0  0
   -3.0622   -0.8306   -1.4976 C   0  0  0  0  0  0  0  0  0  0  0  0
   -4.3639   -1.2464   -2.1906 C   0  0  0  0  0  0  0  0  0  0  0  0
   -5.1180   -2.2127   -1.4506 O   0  0  0  0  0  0  0  0  0  0  0  0
   -4.9926   -2.0868   -0.0248 C   0  0  0  0  0  0  0  0  0  0  0  0
   -4.5914   -0.6830    0.4398 C   0  0  0  0  0  0  0  0  0  0  0  0
   -1.0075    1.7215   -0.3554 H   0  0  0  0  0  0  0  0  0  0  0  0
   -0.7777    0.0384   -0.8160 H   0  0  0  0  0  0  0  0  0  0  0  0
    0.6896    1.6601    3.3747 H   0  0  0  0  0  0  0  0  0  0  0  0
    2.5132    3.2844    3.7129 H   0  0  0  0  0  0  0  0  0  0  0  0
    1.6100    1.4898   -0.8225 H   0  0  0  0  0  0  0  0  0  0  0  0
    3.2591   -0.8857    1.5245 H   0  0  0  0  0  0  0  0  0  0  0  0
    4.9624   -1.5110   -0.1628 H   0  0  0  0  0  0  0  0  0  0  0  0
    4.2700   -2.5611   -2.2998 H   0  0  0  0  0  0  0  0  0  0  0  0
    1.8749   -3.0143   -2.7514 H   0  0  0  0  0  0  0  0  0  0  0  0
    0.1551   -2.3979   -1.0781 H   0  0  0  0  0  0  0  0  0  0  0  0
   -2.5364   -0.0858   -2.1025 H   0  0  0  0  0  0  0  0  0  0  0  0
   -2.4110   -1.7016   -1.3643 H   0  0  0  0  0  0  0  0  0  0  0  0
   -4.1481   -1.6766   -3.1736 H   0  0  0  0  0  0  0  0  0  0  0  0
   -5.0068   -0.3729   -2.3506 H   0  0  0  0  0  0  0  0  0  0  0  0
   -4.2463   -2.8200    0.3026 H   0  0  0  0  0  0  0  0  0  0  0  0
   -5.9518   -2.3742    0.4167 H   0  0  0  0  0  0  0  0  0  0  0  0
   -4.5325   -0.6510    1.5322 H   0  0  0  0  0  0  0  0  0  0  0  0
   -5.3362    0.0519    0.1138 H   0  0  0  0  0  0  0  0  0  0  0  0
  1  2  2  0
  2  3  1  0
  3  4  1  0
  4  5  1  0
  5  6  2  0
  6  7  1  0
  7  8  2  0
  8  9  1  0
  8 10  1  0
 10 11  1  0
 11 12  1  0
 11 13  1  0
 11 14  1  0
 10 15  2  0
  4 16  1  0
 16 17  2  0
 16 18  2  0
 16 19  1  0
 19 20  2  0
 20 21  1  0
 21 22  2  0
 22 23  1  0
 23 24  2  0
  2 25  1  0
 25 26  1  0
 26 27  1  0
 27 28  1  0
 28 29  1  0
 29 30  1  0
 15  5  1  0
 24 19  1  0
 30 25  1  0
  3 31  1  0
  3 32  1  0
  6 33  1  0
  7 34  1  0
 15 35  1  0
 20 36  1  0
 21 37  1  0
 22 38  1  0
 23 39  1  0
 24 40  1  0
 26 41  1  0
 26 42  1  0
 27 43  1  0
 27 44  1  0
 29 45  1  0
 29 46  1  0
 30 47  1  0
 30 48  1  0
M  END
$$$$
