
     RDKit          3D

 43 45  0  0  0  0  0  0  0  0999 V2000
    3.7582   -0.5314   -1.5587 C   0  0  0  0  0  0  0  0  0  0  0  0
    4.2290   -0.6018   -0.1089 C   0  0  0  0  0  0  0  0  0  0  0  0
    4.5055    0.7801    0.4739 C   0  0  0  0  0  0  0  0  0  0  0  0
    3.1166   -1.6049    0.9595 S   0  0  0  0  0  0  0  0  0  0  0  0
    1.5108   -0.9209    0.5961 C   0  0  0  0  0  0  0  0  0  0  0  0
    0.5036   -1.7672    0.1893 C   0  0  0  0  0  0  0  0  0  0  0  0
   -0.7325   -1.2059   -0.0608 C   0  0  0  0  0  0  0  0  0  0  0  0
   -1.7926   -2.0224   -0.5073 N   0  0  0  0  0  0  0  0  0  0  0  0
   -2.9818   -1.2494   -0.9361 C   0  0  0  0  0  0  0  0  0  0  0  0
   -4.0509   -2.2063   -1.4854 C   0  0  0  0  0  0  0  0  0  0  0  0
   -4.4184   -3.1961   -0.5103 O   0  0  0  0  0  0  0  0  0  0  0  0
   -3.2680   -3.9684   -0.1336 C   0  0  0  0  0  0  0  0  0  0  0  0
   -2.1581   -3.0838    0.4596 C   0  0  0  0  0  0  0  0  0  0  0  0
   -0.9204    0.1167    0.0737 N   0  0  0  0  0  0  0  0  0  0  0  0
    0.1111    0.8703    0.5002 C   0  0  0  0  0  0  0  0  0  0  0  0
   -0.1219    2.3194    0.6733 C   0  0  0  0  0  0  0  0  0  0  0  0
    0.8555    3.1608    1.2399 C   0  0  0  0  0  0  0  0  0  0  0  0
    0.6365    4.5327    1.4037 C   0  0  0  0  0  0  0  0  0  0  0  0
   -0.5703    5.0980    1.0040 C   0  0  0  0  0  0  0  0  0  0  0  0
   -1.5569    4.2933    0.4429 C   0  0  0  0  0  0  0  0  0  0  0  0
   -1.3337    2.9218    0.2811 C   0  0  0  0  0  0  0  0  0  0  0  0
    1.3339    0.3932    0.7767 N   0  0  0  0  0  0  0  0  0  0  0  0
    2.8464    0.0635   -1.6720 H   0  0  0  0  0  0  0  0  0  0  0  0
    3.5749   -1.5307   -1.9682 H   0  0  0  0  0  0  0  0  0  0  0  0
    4.5273   -0.0604   -2.1814 H   0  0  0  0  0  0  0  0  0  0  0  0
    5.1799   -1.1481   -0.1020 H   0  0  0  0  0  0  0  0  0  0  0  0
    3.6373    1.4409    0.4143 H   0  0  0  0  0  0  0  0  0  0  0  0
    5.3129    1.2671   -0.0850 H   0  0  0  0  0  0  0  0  0  0  0  0
    4.8259    0.7186    1.5195 H   0  0  0  0  0  0  0  0  0  0  0  0
    0.6843   -2.8233    0.0434 H   0  0  0  0  0  0  0  0  0  0  0  0
   -2.7163   -0.5334   -1.7232 H   0  0  0  0  0  0  0  0  0  0  0  0
   -3.4030   -0.7028   -0.0818 H   0  0  0  0  0  0  0  0  0  0  0  0
   -3.6993   -2.7130   -2.3922 H   0  0  0  0  0  0  0  0  0  0  0  0
   -4.9543   -1.6453   -1.7443 H   0  0  0  0  0  0  0  0  0  0  0  0
   -2.9055   -4.5169   -1.0114 H   0  0  0  0  0  0  0  0  0  0  0  0
   -3.5920   -4.7043    0.6091 H   0  0  0  0  0  0  0  0  0  0  0  0
   -1.3035   -3.7249    0.7012 H   0  0  0  0  0  0  0  0  0  0  0  0
   -2.5197   -2.6226    1.3880 H   0  0  0  0  0  0  0  0  0  0  0  0
    1.8071    2.7449    1.5673 H   0  0  0  0  0  0  0  0  0  0  0  0
    1.4104    5.1550    1.8454 H   0  0  0  0  0  0  0  0  0  0  0  0
   -0.7422    6.1634    1.1313 H   0  0  0  0  0  0  0  0  0  0  0  0
   -2.5024    4.7285    0.1301 H   0  0  0  0  0  0  0  0  0  0  0  0
   -2.1232    2.3159   -0.1608 H   0  0  0  0  0  0  0  0  0  0  0  0
  1  2  1  0
  2  3  1  0
  2  4  1  0
  4  5  1  0
  5  6  2  0
  6  7  1  0
  7  8  1  0
  8  9  1  0
  9 10  1  0
 10 11  1  0
 11 12  1  0
 12 13  1  0
  7 14  2  0
 14 15  1  0
 15 16  1  0
 16 17  2  0
 17 18  1  0
 18 19  2  0
 19 20  1  0
 20 21  2  0
 15 22  2  0
 22  5  1  0
 13  8  1  0
 21 16  1  0
  1 23  1  0
  1 24  1  0
  1 25  1  0
  2 26  1  0
  3 27  1  0
  3 28  1  0
  3 29  1  0
  6 30  1  0
  9 31  1  0
  9 32  1  0
 10 33  1  0
 10 34  1  0
 12 35  1  0
 12 36  1  0
 13 37  1  0
 13 38  1  0
 17 39  1  0
 18 40  1  0
 19 41  1  0
 20 42  1  0
 21 43  1  0
M  END
$$$$
