
     RDKit          3D

 48 50  0  0  0  0  0  0  0  0999 V2000
    5.2385   -0.9965    2.7256 C   0  0  0  0  0  0  0  0  0  0  0  0
    4.1825   -0.1382    2.0780 C   0  0  0  0  0  0  0  0  0  0  0  0
    4.2052    1.2440    2.3005 C   0  0  0  0  0  0  0  0  0  0  0  0
    3.2526    2.0903    1.7316 C   0  0  0  0  0  0  0  0  0  0  0  0
    2.2644    1.5181    0.9214 C   0  0  0  0  0  0  0  0  0  0  0  0
    0.9649    2.2914    0.1036 S   0  0  0  0  0  0  0  0  0  0  0  0
    0.4713    0.7928   -0.5566 C   0  0  0  0  0  0  0  0  0  0  0  0
   -0.6769    0.6808   -1.3433 N   0  0  0  0  0  0  0  0  0  0  0  0
   -1.4098   -0.5877   -1.3380 C   0  0  0  0  0  0  0  0  0  0  0  0
   -2.2531   -0.7757   -0.0725 C   0  0  0  0  0  0  0  0  0  0  0  0
   -3.0525   -2.0818   -0.1461 C   0  0  0  0  0  0  0  0  0  0  0  0
   -3.7843   -2.3841    1.0963 N   0  0  0  0  0  0  0  0  0  0  0  0
   -4.3250   -3.7452    1.0399 C   0  0  0  0  0  0  0  0  0  0  0  0
   -4.8718   -1.4337    1.3413 C   0  0  0  0  0  0  0  0  0  0  0  0
   -1.3079    1.7758   -1.9501 C   0  0  0  0  0  0  0  0  0  0  0  0
   -2.5400    1.8412   -1.9870 O   0  0  0  0  0  0  0  0  0  0  0  0
   -0.5056    2.7798   -2.6464 C   0  0  0  0  0  0  0  0  0  0  0  0
   -0.7886    4.1299   -2.7723 C   0  0  0  0  0  0  0  0  0  0  0  0
    0.1790    4.8201   -3.5618 C   0  0  0  0  0  0  0  0  0  0  0  0
    1.1314    3.9570   -4.0392 C   0  0  0  0  0  0  0  0  0  0  0  0
    2.5919    4.5049   -5.1429 Br  0  0  0  0  0  0  0  0  0  0  0  0
    0.8763    2.3495   -3.5741 S   0  0  0  0  0  0  0  0  0  0  0  0
    1.1625   -0.2468   -0.1506 N   0  0  0  0  0  0  0  0  0  0  0  0
    2.2087    0.1478    0.6729 C   0  0  0  0  0  0  0  0  0  0  0  0
    3.1765   -0.7126    1.2574 C   0  0  0  0  0  0  0  0  0  0  0  0
    3.1439   -2.1992    1.0170 C   0  0  0  0  0  0  0  0  0  0  0  0
    5.8207   -1.5237    1.9633 H   0  0  0  0  0  0  0  0  0  0  0  0
    5.9391   -0.3962    3.3160 H   0  0  0  0  0  0  0  0  0  0  0  0
    4.7763   -1.7220    3.4023 H   0  0  0  0  0  0  0  0  0  0  0  0
    4.9766    1.6832    2.9318 H   0  0  0  0  0  0  0  0  0  0  0  0
    3.2790    3.1600    1.9152 H   0  0  0  0  0  0  0  0  0  0  0  0
   -0.6941   -1.4108   -1.4545 H   0  0  0  0  0  0  0  0  0  0  0  0
   -2.0610   -0.6180   -2.2210 H   0  0  0  0  0  0  0  0  0  0  0  0
   -2.9249    0.0818    0.0419 H   0  0  0  0  0  0  0  0  0  0  0  0
   -1.6013   -0.7886    0.8098 H   0  0  0  0  0  0  0  0  0  0  0  0
   -2.3379   -2.8931   -0.3386 H   0  0  0  0  0  0  0  0  0  0  0  0
   -3.7383   -2.0530   -1.0031 H   0  0  0  0  0  0  0  0  0  0  0  0
   -3.5182   -4.4764    0.9162 H   0  0  0  0  0  0  0  0  0  0  0  0
   -4.8316   -3.9985    1.9780 H   0  0  0  0  0  0  0  0  0  0  0  0
   -5.0371   -3.8732    0.2165 H   0  0  0  0  0  0  0  0  0  0  0  0
   -4.4865   -0.4250    1.5185 H   0  0  0  0  0  0  0  0  0  0  0  0
   -5.5828   -1.3954    0.5081 H   0  0  0  0  0  0  0  0  0  0  0  0
   -5.4233   -1.7066    2.2486 H   0  0  0  0  0  0  0  0  0  0  0  0
   -1.6493    4.5973   -2.3066 H   0  0  0  0  0  0  0  0  0  0  0  0
    0.1590    5.8829   -3.7694 H   0  0  0  0  0  0  0  0  0  0  0  0
    2.3087   -2.4867    0.3707 H   0  0  0  0  0  0  0  0  0  0  0  0
    4.0669   -2.5249    0.5272 H   0  0  0  0  0  0  0  0  0  0  0  0
    3.0261   -2.7347    1.9643 H   0  0  0  0  0  0  0  0  0  0  0  0
  1  2  1  0
  2  3  2  0
  3  4  1  0
  4  5  2  0
  5  6  1  0
  6  7  1  0
  7  8  1  0
  8  9  1  0
  9 10  1  0
 10 11  1  0
 11 12  1  0
 12 13  1  0
 12 14  1  0
  8 15  1  0
 15 16  2  0
 15 17  1  0
 17 18  2  0
 18 19  1  0
 19 20  2  0
 20 21  1  0
 20 22  1  0
  7 23  2  0
 23 24  1  0
 24 25  2  0
 25 26  1  0
 25  2  1  0
 24  5  1  0
 22 17  1  0
  1 27  1  0
  1 28  1  0
  1 29  1  0
  3 30  1  0
  4 31  1  0
  9 32  1  0
  9 33  1  0
 10 34  1  0
 10 35  1  0
 11 36  1  0
 11 37  1  0
 13 38  1  0
 13 39  1  0
 13 40  1  0
 14 41  1  0
 14 42  1  0
 14 43  1  0
 18 44  1  0
 19 45  1  0
 26 46  1  0
 26 47  1  0
 26 48  1  0
M  END
$$$$
