
     RDKit          3D

 59 63  0  0  0  0  0  0  0  0999 V2000
   -2.3806   -5.0746   -0.3592 C   0  0  0  0  0  0  0  0  0  0  0  0
   -2.4881   -3.7275    0.2883 C   0  0  0  0  0  0  0  0  0  0  0  0
   -3.3404   -2.7543   -0.2478 C   0  0  0  0  0  0  0  0  0  0  0  0
   -3.4452   -1.4959    0.3485 C   0  0  0  0  0  0  0  0  0  0  0  0
   -2.7018   -1.1897    1.4979 C   0  0  0  0  0  0  0  0  0  0  0  0
   -2.7665    0.1896    2.1059 C   0  0  0  0  0  0  0  0  0  0  0  0
   -1.8331    1.0599    1.4319 N   0  0  0  0  0  0  0  0  0  0  0  0
   -2.2297    2.0259    0.5415 C   0  0  0  0  0  0  0  0  0  0  0  0
   -3.4005    2.3641    0.4063 O   0  0  0  0  0  0  0  0  0  0  0  0
   -1.1559    2.6256   -0.2093 C   0  0  0  0  0  0  0  0  0  0  0  0
   -0.9340    3.9666   -0.4547 C   0  0  0  0  0  0  0  0  0  0  0  0
    0.2399    4.0473   -1.2489 C   0  0  0  0  0  0  0  0  0  0  0  0
    0.9214    5.2466   -1.7498 C   0  0  0  0  0  0  0  0  0  0  0  0
    2.2179    5.1569   -2.2801 C   0  0  0  0  0  0  0  0  0  0  0  0
    2.8817    6.2927   -2.7504 C   0  0  0  0  0  0  0  0  0  0  0  0
    2.2562    7.5356   -2.6988 C   0  0  0  0  0  0  0  0  0  0  0  0
    0.9680    7.6422   -2.1807 C   0  0  0  0  0  0  0  0  0  0  0  0
    0.3037    6.5054   -1.7095 C   0  0  0  0  0  0  0  0  0  0  0  0
    0.6984    2.8139   -1.5138 N   0  0  0  0  0  0  0  0  0  0  0  0
   -0.1739    1.9825   -0.9143 N   0  0  0  0  0  0  0  0  0  0  0  0
   -0.0292    0.5568   -1.1544 C   0  0  0  0  0  0  0  0  0  0  0  0
    1.1189   -0.0347   -0.3533 C   0  0  0  0  0  0  0  0  0  0  0  0
    1.2892   -1.5149   -0.6139 C   0  0  0  0  0  0  0  0  0  0  0  0
    1.6302   -1.9513    0.7679 C   0  0  0  0  0  0  0  0  0  0  0  0
    2.1670   -3.2930    1.0565 C   0  0  0  0  0  0  0  0  0  0  0  0
    2.3707   -4.2510    0.0624 C   0  0  0  0  0  0  0  0  0  0  0  0
    2.8668   -5.5044    0.4150 C   0  0  0  0  0  0  0  0  0  0  0  0
    3.1362   -5.7591    1.7509 C   0  0  0  0  0  0  0  0  0  0  0  0
    2.9452   -4.8569    2.7363 N   0  0  0  0  0  0  0  0  0  0  0  0
    2.4671   -3.6431    2.3683 C   0  0  0  0  0  0  0  0  0  0  0  0
    1.3819   -1.0735    1.6883 N   0  0  0  0  0  0  0  0  0  0  0  0
    0.8340    0.0569    1.0504 O   0  0  0  0  0  0  0  0  0  0  0  0
   -1.8477   -2.1646    2.0306 C   0  0  0  0  0  0  0  0  0  0  0  0
   -1.7453   -3.4231    1.4351 C   0  0  0  0  0  0  0  0  0  0  0  0
   -2.0188   -4.9708   -1.3859 H   0  0  0  0  0  0  0  0  0  0  0  0
   -3.3561   -5.5679   -0.3679 H   0  0  0  0  0  0  0  0  0  0  0  0
   -1.6806   -5.7184    0.1801 H   0  0  0  0  0  0  0  0  0  0  0  0
   -3.9326   -2.9699   -1.1340 H   0  0  0  0  0  0  0  0  0  0  0  0
   -4.1068   -0.7492   -0.0867 H   0  0  0  0  0  0  0  0  0  0  0  0
   -3.7882    0.5826    2.0525 H   0  0  0  0  0  0  0  0  0  0  0  0
   -2.4819    0.1544    3.1634 H   0  0  0  0  0  0  0  0  0  0  0  0
   -0.8464    0.8559    1.5561 H   0  0  0  0  0  0  0  0  0  0  0  0
   -1.5407    4.7771   -0.0790 H   0  0  0  0  0  0  0  0  0  0  0  0
    2.7234    4.1947   -2.3249 H   0  0  0  0  0  0  0  0  0  0  0  0
    3.8860    6.2033   -3.1544 H   0  0  0  0  0  0  0  0  0  0  0  0
    2.7722    8.4201   -3.0624 H   0  0  0  0  0  0  0  0  0  0  0  0
    0.4766    8.6110   -2.1434 H   0  0  0  0  0  0  0  0  0  0  0  0
   -0.7035    6.6228   -1.3197 H   0  0  0  0  0  0  0  0  0  0  0  0
   -0.9809    0.0761   -0.9146 H   0  0  0  0  0  0  0  0  0  0  0  0
    0.1398    0.4304   -2.2290 H   0  0  0  0  0  0  0  0  0  0  0  0
    2.0571    0.5034   -0.5361 H   0  0  0  0  0  0  0  0  0  0  0  0
    0.3609   -2.0052   -0.9229 H   0  0  0  0  0  0  0  0  0  0  0  0
    2.0812   -1.7111   -1.3380 H   0  0  0  0  0  0  0  0  0  0  0  0
    2.1489   -4.0496   -0.9813 H   0  0  0  0  0  0  0  0  0  0  0  0
    3.0398   -6.2690   -0.3347 H   0  0  0  0  0  0  0  0  0  0  0  0
    3.5197   -6.7252    2.0735 H   0  0  0  0  0  0  0  0  0  0  0  0
    2.3241   -2.9472    3.1900 H   0  0  0  0  0  0  0  0  0  0  0  0
   -1.2388   -1.9455    2.9070 H   0  0  0  0  0  0  0  0  0  0  0  0
   -1.0769   -4.1597    1.8758 H   0  0  0  0  0  0  0  0  0  0  0  0
  1  2  1  0
  2  3  2  0
  3  4  1  0
  4  5  2  0
  5  6  1  0
  6  7  1  0
  7  8  1  0
  8  9  2  0
  8 10  1  0
 10 11  2  0
 11 12  1  0
 12 13  1  0
 13 14  2  0
 14 15  1  0
 15 16  2  0
 16 17  1  0
 17 18  2  0
 12 19  2  0
 19 20  1  0
 20 21  1  0
 21 22  1  0
 22 23  1  0
 23 24  1  0
 24 25  1  0
 25 26  2  0
 26 27  1  0
 27 28  2  0
 28 29  1  0
 29 30  2  0
 24 31  2  0
 31 32  1  0
  5 33  1  0
 33 34  2  0
 34  2  1  0
 20 10  1  0
 32 22  1  0
 18 13  1  0
 30 25  1  0
  1 35  1  0
  1 36  1  0
  1 37  1  0
  3 38  1  0
  4 39  1  0
  6 40  1  0
  6 41  1  0
  7 42  1  0
 11 43  1  0
 14 44  1  0
 15 45  1  0
 16 46  1  0
 17 47  1  0
 18 48  1  0
 21 49  1  0
 21 50  1  0
 22 51  1  0
 23 52  1  0
 23 53  1  0
 26 54  1  0
 27 55  1  0
 28 56  1  0
 30 57  1  0
 33 58  1  0
 34 59  1  0
M  END
$$$$
