
     RDKit          3D

 51 54  0  0  0  0  0  0  0  0999 V2000
    1.2639   -1.1041    1.4994 O   0  0  0  0  0  0  0  0  0  0  0  0
    1.6676   -0.0988    0.9145 C   0  0  0  0  0  0  0  0  0  0  0  0
    0.7470    1.0362    0.4306 C   0  0  0  0  0  0  0  0  0  0  0  0
   -0.6936    0.8761    0.6918 N   0  0  0  0  0  0  0  0  0  0  0  0
   -1.0615    0.8484    2.1078 C   0  0  0  0  0  0  0  0  0  0  0  0
   -2.6008    0.8833    2.3226 C   0  0  0  0  0  0  0  0  0  0  0  0
   -3.4073    0.3291    1.2142 N   0  0  0  0  0  0  0  0  0  0  0  0
   -4.7225   -0.1184    1.6963 C   0  0  0  0  0  0  0  0  0  0  0  0
   -5.7129   -0.3729    0.5769 C   0  0  0  0  0  0  0  0  0  0  0  0
   -6.0031    0.6788   -0.3148 C   0  0  0  0  0  0  0  0  0  0  0  0
   -6.9186    0.5133   -1.3553 C   0  0  0  0  0  0  0  0  0  0  0  0
   -7.5649   -0.7066   -1.5231 C   0  0  0  0  0  0  0  0  0  0  0  0
   -7.2948   -1.7590   -0.6492 C   0  0  0  0  0  0  0  0  0  0  0  0
   -6.3768   -1.5962    0.3956 C   0  0  0  0  0  0  0  0  0  0  0  0
   -6.1091   -2.9576    1.4268 Cl  0  0  0  0  0  0  0  0  0  0  0  0
   -2.6585   -0.7387    0.5340 C   0  0  0  0  0  0  0  0  0  0  0  0
   -1.3195   -0.2235   -0.0612 C   0  0  0  0  0  0  0  0  0  0  0  0
    2.9905    0.1779    0.6141 N   0  0  0  0  0  0  0  0  0  0  0  0
    3.7195   -0.8263    0.7504 N   0  0  0  0  0  0  0  0  0  0  0  0
    5.0668   -0.5555    0.4853 C   0  0  0  0  0  0  0  0  0  0  0  0
    6.0923   -0.9503    1.3118 C   0  0  0  0  0  0  0  0  0  0  0  0
    6.1165   -1.6060    2.4655 O   0  0  0  0  0  0  0  0  0  0  0  0
    7.2592   -0.5294    0.7359 N   0  0  0  0  0  0  0  0  0  0  0  0
    7.0061    0.1065   -0.4611 C   0  0  0  0  0  0  0  0  0  0  0  0
    7.8922    0.6759   -1.3831 C   0  0  0  0  0  0  0  0  0  0  0  0
    7.3480    1.2492   -2.5361 C   0  0  0  0  0  0  0  0  0  0  0  0
    5.9732    1.2502   -2.7584 C   0  0  0  0  0  0  0  0  0  0  0  0
    5.0994    0.6783   -1.8268 C   0  0  0  0  0  0  0  0  0  0  0  0
    5.6203    0.0979   -0.6512 C   0  0  0  0  0  0  0  0  0  0  0  0
    1.0896    1.9659    0.9010 H   0  0  0  0  0  0  0  0  0  0  0  0
    0.9004    1.1529   -0.6494 H   0  0  0  0  0  0  0  0  0  0  0  0
   -0.6723   -0.0551    2.5910 H   0  0  0  0  0  0  0  0  0  0  0  0
   -0.6246    1.7069    2.6317 H   0  0  0  0  0  0  0  0  0  0  0  0
   -2.8095    0.3561    3.2629 H   0  0  0  0  0  0  0  0  0  0  0  0
   -2.9114    1.9260    2.4626 H   0  0  0  0  0  0  0  0  0  0  0  0
   -5.1690    0.6688    2.3200 H   0  0  0  0  0  0  0  0  0  0  0  0
   -4.6038   -0.9847    2.3553 H   0  0  0  0  0  0  0  0  0  0  0  0
   -5.4980    1.6369   -0.1983 H   0  0  0  0  0  0  0  0  0  0  0  0
   -7.1227    1.3379   -2.0333 H   0  0  0  0  0  0  0  0  0  0  0  0
   -8.2781   -0.8395   -2.3323 H   0  0  0  0  0  0  0  0  0  0  0  0
   -7.8051   -2.7091   -0.7870 H   0  0  0  0  0  0  0  0  0  0  0  0
   -2.4475   -1.5538    1.2395 H   0  0  0  0  0  0  0  0  0  0  0  0
   -3.2419   -1.1679   -0.2887 H   0  0  0  0  0  0  0  0  0  0  0  0
   -0.6526   -1.0869   -0.1634 H   0  0  0  0  0  0  0  0  0  0  0  0
   -1.5116    0.1471   -1.0757 H   0  0  0  0  0  0  0  0  0  0  0  0
    5.1874   -1.8224    2.6775 H   0  0  0  0  0  0  0  0  0  0  0  0
    8.1739   -0.6836    1.1336 H   0  0  0  0  0  0  0  0  0  0  0  0
    8.9648    0.6723   -1.2172 H   0  0  0  0  0  0  0  0  0  0  0  0
    8.0104    1.6974   -3.2730 H   0  0  0  0  0  0  0  0  0  0  0  0
    5.5732    1.6974   -3.6651 H   0  0  0  0  0  0  0  0  0  0  0  0
    4.0301    0.6798   -2.0138 H   0  0  0  0  0  0  0  0  0  0  0  0
  1  2  2  0
  2  3  1  0
  3  4  1  0
  4  5  1  0
  5  6  1  0
  6  7  1  0
  7  8  1  0
  8  9  1  0
  9 10  2  0
 10 11  1  0
 11 12  2  0
 12 13  1  0
 13 14  2  0
 14 15  1  0
  7 16  1  0
 16 17  1  0
  2 18  1  0
 18 19  2  3
 19 20  1  0
 20 21  2  0
 21 22  1  0
 21 23  1  0
 23 24  1  0
 24 25  2  0
 25 26  1  0
 26 27  2  0
 27 28  1  0
 28 29  2  0
 17  4  1  0
 29 20  1  0
 14  9  1  0
 29 24  1  0
  3 30  1  0
  3 31  1  0
  5 32  1  0
  5 33  1  0
  6 34  1  0
  6 35  1  0
  8 36  1  0
  8 37  1  0
 10 38  1  0
 11 39  1  0
 12 40  1  0
 13 41  1  0
 16 42  1  0
 16 43  1  0
 17 44  1  0
 17 45  1  0
 22 46  1  0
 23 47  1  0
 25 48  1  0
 26 49  1  0
 27 50  1  0
 28 51  1  0
M  END
$$$$
