
     RDKit          3D

 40 41  0  0  0  0  0  0  0  0999 V2000
    0.7375   -3.5464    0.6113 C   0  0  0  0  0  0  0  0  0  0  0  0
    1.1138   -2.2642    0.1084 O   0  0  0  0  0  0  0  0  0  0  0  0
    1.1157   -1.2892    1.0492 C   0  0  0  0  0  0  0  0  0  0  0  0
    0.9004   -1.4186    2.2433 O   0  0  0  0  0  0  0  0  0  0  0  0
    1.4456   -0.0012    0.3982 C   0  0  0  0  0  0  0  0  0  0  0  0
    2.4614    0.7409    0.8680 C   0  0  0  0  0  0  0  0  0  0  0  0
    3.3655    0.3935    2.0162 C   0  0  0  0  0  0  0  0  0  0  0  0
    2.8517    1.9374    0.2258 O   0  0  0  0  0  0  0  0  0  0  0  0
    2.1430    2.4614   -0.7948 C   0  0  0  0  0  0  0  0  0  0  0  0
    2.6623    3.4731   -1.4056 N   0  0  0  0  0  0  0  0  0  0  0  0
    0.7638    1.9369   -1.0833 C   0  0  0  0  0  0  0  0  0  0  0  0
    0.4008    2.1906   -2.4900 C   0  0  0  0  0  0  0  0  0  0  0  0
    0.0860    2.3338   -3.5987 N   0  0  0  0  0  0  0  0  0  0  0  0
    0.6173    0.4323   -0.7837 C   0  0  0  0  0  0  0  0  0  0  0  0
   -0.8489    0.0665   -0.6219 C   0  0  0  0  0  0  0  0  0  0  0  0
   -1.6288   -0.7229   -1.5188 C   0  0  0  0  0  0  0  0  0  0  0  0
   -1.2140   -1.3521   -2.7992 C   0  0  0  0  0  0  0  0  0  0  0  0
   -2.8781   -0.8838   -1.0782 N   0  0  0  0  0  0  0  0  0  0  0  0
   -2.9184   -0.2111    0.0794 N   0  0  0  0  0  0  0  0  0  0  0  0
   -4.1492   -0.1870    0.8363 C   0  0  0  0  0  0  0  0  0  0  0  0
   -1.7274    0.3876    0.4070 C   0  0  0  0  0  0  0  0  0  0  0  0
   -1.5566    1.1668    1.6623 C   0  0  0  0  0  0  0  0  0  0  0  0
   -0.2680   -3.5101    1.0426 H   0  0  0  0  0  0  0  0  0  0  0  0
    1.4650   -3.8951    1.3508 H   0  0  0  0  0  0  0  0  0  0  0  0
    0.7291   -4.2494   -0.2262 H   0  0  0  0  0  0  0  0  0  0  0  0
    4.4043    0.6298    1.7603 H   0  0  0  0  0  0  0  0  0  0  0  0
    3.0905    0.9802    2.8982 H   0  0  0  0  0  0  0  0  0  0  0  0
    3.3427   -0.6667    2.2806 H   0  0  0  0  0  0  0  0  0  0  0  0
    3.5861    3.6518   -0.9919 H   0  0  0  0  0  0  0  0  0  0  0  0
    0.0909    2.5265   -0.4465 H   0  0  0  0  0  0  0  0  0  0  0  0
    1.0131   -0.1334   -1.6411 H   0  0  0  0  0  0  0  0  0  0  0  0
   -2.0319   -1.9228   -3.2514 H   0  0  0  0  0  0  0  0  0  0  0  0
   -0.3777   -2.0385   -2.6329 H   0  0  0  0  0  0  0  0  0  0  0  0
   -0.8996   -0.5890   -3.5171 H   0  0  0  0  0  0  0  0  0  0  0  0
   -4.5220    0.8400    0.8510 H   0  0  0  0  0  0  0  0  0  0  0  0
   -4.8838   -0.8432    0.3620 H   0  0  0  0  0  0  0  0  0  0  0  0
   -3.9416   -0.5395    1.8494 H   0  0  0  0  0  0  0  0  0  0  0  0
   -1.6378    0.5093    2.5338 H   0  0  0  0  0  0  0  0  0  0  0  0
   -2.3209    1.9465    1.7415 H   0  0  0  0  0  0  0  0  0  0  0  0
   -0.5817    1.6593    1.7057 H   0  0  0  0  0  0  0  0  0  0  0  0
  1  2  1  0
  2  3  1  0
  3  4  2  0
  3  5  1  0
  5  6  2  0
  6  7  1  0
  6  8  1  0
  8  9  1  0
  9 10  2  3
  9 11  1  0
 11 12  1  0
 12 13  3  0
 11 14  1  0
 14 15  1  0
 15 16  1  0
 16 17  1  0
 16 18  2  0
 18 19  1  0
 19 20  1  0
 19 21  1  0
 21 22  1  0
 14  5  1  0
 21 15  2  0
  1 23  1  0
  1 24  1  0
  1 25  1  0
  7 26  1  0
  7 27  1  0
  7 28  1  0
 10 29  1  0
 11 30  1  0
 14 31  1  0
 17 32  1  0
 17 33  1  0
 17 34  1  0
 20 35  1  0
 20 36  1  0
 20 37  1  0
 22 38  1  0
 22 39  1  0
 22 40  1  0
M  END
$$$$
