
     RDKit          3D

 48 48  0  0  0  0  0  0  0  0999 V2000
   -5.3059    1.2946   -0.8197 C   0  0  0  0  0  0  0  0  0  0  0  0
   -6.1737    0.8811    0.3555 C   0  0  0  0  0  0  0  0  0  0  0  0
   -5.7691   -0.4419    1.0120 C   0  0  0  0  0  0  0  0  0  0  0  0
   -4.3981   -0.4303    1.6986 C   0  0  0  0  0  0  0  0  0  0  0  0
   -3.2686   -0.9409    0.7987 C   0  0  0  0  0  0  0  0  0  0  0  0
   -1.9314   -1.0914    1.5322 C   0  0  0  0  0  0  0  0  0  0  0  0
   -1.3549    0.1918    2.1392 C   0  0  0  0  0  0  0  0  0  0  0  0
   -1.1636    1.3655    1.1707 C   0  0  0  0  0  0  0  0  0  0  0  0
   -0.2716    1.0693   -0.0348 C   0  0  0  0  0  0  0  0  0  0  0  0
    1.1917    0.8613    0.3198 C   0  0  0  0  0  0  0  0  0  0  0  0
    1.6586    1.1220    1.4237 O   0  0  0  0  0  0  0  0  0  0  0  0
    1.9146    0.3734   -0.7634 N   0  0  0  0  0  0  0  0  0  0  0  0
    3.2541    0.1741   -0.6426 N   0  0  0  0  0  0  0  0  0  0  0  0
    3.9257   -0.3195   -1.6410 C   0  0  0  0  0  0  0  0  0  0  0  0
    3.2968   -0.7410   -2.9532 C   0  0  0  0  0  0  0  0  0  0  0  0
    5.3988   -0.4799   -1.4784 C   0  0  0  0  0  0  0  0  0  0  0  0
    6.2842   -0.4842   -2.5583 C   0  0  0  0  0  0  0  0  0  0  0  0
    7.6505   -0.6391   -2.3249 C   0  0  0  0  0  0  0  0  0  0  0  0
    8.0863   -0.7801   -1.0172 C   0  0  0  0  0  0  0  0  0  0  0  0
    7.2613   -0.7693    0.0501 N   0  0  0  0  0  0  0  0  0  0  0  0
    5.9369   -0.6086   -0.2015 C   0  0  0  0  0  0  0  0  0  0  0  0
   -5.7521    2.1541   -1.3308 H   0  0  0  0  0  0  0  0  0  0  0  0
   -4.3082    1.5958   -0.4899 H   0  0  0  0  0  0  0  0  0  0  0  0
   -5.2083    0.4822   -1.5463 H   0  0  0  0  0  0  0  0  0  0  0  0
   -7.2077    0.7831    0.0026 H   0  0  0  0  0  0  0  0  0  0  0  0
   -6.1750    1.6820    1.1043 H   0  0  0  0  0  0  0  0  0  0  0  0
   -6.5233   -0.6581    1.7800 H   0  0  0  0  0  0  0  0  0  0  0  0
   -5.8329   -1.2590    0.2838 H   0  0  0  0  0  0  0  0  0  0  0  0
   -4.4540   -1.0895    2.5744 H   0  0  0  0  0  0  0  0  0  0  0  0
   -4.1763    0.5738    2.0757 H   0  0  0  0  0  0  0  0  0  0  0  0
   -3.1405   -0.2920   -0.0716 H   0  0  0  0  0  0  0  0  0  0  0  0
   -3.5460   -1.9269    0.4050 H   0  0  0  0  0  0  0  0  0  0  0  0
   -1.2001   -1.5264    0.8404 H   0  0  0  0  0  0  0  0  0  0  0  0
   -2.0517   -1.8270    2.3378 H   0  0  0  0  0  0  0  0  0  0  0  0
   -0.3939   -0.0550    2.6059 H   0  0  0  0  0  0  0  0  0  0  0  0
   -2.0017    0.5246    2.9600 H   0  0  0  0  0  0  0  0  0  0  0  0
   -2.1433    1.6968    0.8084 H   0  0  0  0  0  0  0  0  0  0  0  0
   -0.7485    2.2114    1.7330 H   0  0  0  0  0  0  0  0  0  0  0  0
   -0.3128    1.9284   -0.7161 H   0  0  0  0  0  0  0  0  0  0  0  0
   -0.6410    0.1996   -0.5879 H   0  0  0  0  0  0  0  0  0  0  0  0
    1.4577    0.2351   -1.6551 H   0  0  0  0  0  0  0  0  0  0  0  0
    3.9633   -1.3644   -3.5527 H   0  0  0  0  0  0  0  0  0  0  0  0
    3.0243    0.1497   -3.5262 H   0  0  0  0  0  0  0  0  0  0  0  0
    2.4002   -1.3384   -2.7615 H   0  0  0  0  0  0  0  0  0  0  0  0
    5.9410   -0.3481   -3.5787 H   0  0  0  0  0  0  0  0  0  0  0  0
    8.3613   -0.6432   -3.1442 H   0  0  0  0  0  0  0  0  0  0  0  0
    9.1407   -0.9033   -0.7862 H   0  0  0  0  0  0  0  0  0  0  0  0
    5.3061   -0.5923    0.6849 H   0  0  0  0  0  0  0  0  0  0  0  0
  1  2  1  0
  2  3  1  0
  3  4  1  0
  4  5  1  0
  5  6  1  0
  6  7  1  0
  7  8  1  0
  8  9  1  0
  9 10  1  0
 10 11  2  0
 10 12  1  0
 12 13  1  0
 13 14  2  3
 14 15  1  0
 14 16  1  0
 16 17  2  0
 17 18  1  0
 18 19  2  0
 19 20  1  0
 20 21  2  0
 21 16  1  0
  1 22  1  0
  1 23  1  0
  1 24  1  0
  2 25  1  0
  2 26  1  0
  3 27  1  0
  3 28  1  0
  4 29  1  0
  4 30  1  0
  5 31  1  0
  5 32  1  0
  6 33  1  0
  6 34  1  0
  7 35  1  0
  7 36  1  0
  8 37  1  0
  8 38  1  0
  9 39  1  0
  9 40  1  0
 12 41  1  0
 15 42  1  0
 15 43  1  0
 15 44  1  0
 17 45  1  0
 18 46  1  0
 19 47  1  0
 21 48  1  0
M  END
$$$$
