
     RDKit          3D

 35 36  0  0  0  0  0  0  0  0999 V2000
   -5.4609    0.4912    2.8577 C   0  0  0  0  0  0  0  0  0  0  0  0
   -5.4529    0.1468    1.3786 C   0  0  0  0  0  0  0  0  0  0  0  0
   -4.6592    1.0811    0.6473 O   0  0  0  0  0  0  0  0  0  0  0  0
   -3.3343    0.8207    0.4525 C   0  0  0  0  0  0  0  0  0  0  0  0
   -2.6950    1.6937   -0.4252 C   0  0  0  0  0  0  0  0  0  0  0  0
   -1.3325    1.5587   -0.7227 C   0  0  0  0  0  0  0  0  0  0  0  0
   -0.5621    0.5445   -0.1453 C   0  0  0  0  0  0  0  0  0  0  0  0
    0.8189    0.4027   -0.4398 N   0  0  0  0  0  0  0  0  0  0  0  0
    1.5963    1.1245   -1.3338 C   0  0  0  0  0  0  0  0  0  0  0  0
    1.2096    2.0420   -2.0520 O   0  0  0  0  0  0  0  0  0  0  0  0
    3.0541    0.6947   -1.3320 C   0  0  0  0  0  0  0  0  0  0  0  0
    3.2001   -0.9713   -2.0287 S   0  0  0  0  0  0  0  0  0  0  0  0
    4.9158   -1.2288   -1.9014 C   0  0  0  0  0  0  0  0  0  0  0  0
    5.5198   -2.3463   -2.4092 N   0  0  0  0  0  0  0  0  0  0  0  0
    6.7837   -2.1677   -2.1085 C   0  0  0  0  0  0  0  0  0  0  0  0
    6.9268   -0.9923   -1.4447 N   0  0  0  0  0  0  0  0  0  0  0  0
    5.7447   -0.3725   -1.2944 N   0  0  0  0  0  0  0  0  0  0  0  0
   -1.2187   -0.3322    0.7504 C   0  0  0  0  0  0  0  0  0  0  0  0
   -0.5028   -1.4339    1.4135 N   0  0  0  0  0  4  0  0  0  0  0  0
    0.7381   -1.4106    1.4108 O   0  0  0  0  0  0  0  0  0  0  0  0
   -1.1786   -2.3273    1.9438 O   0  0  0  0  0  1  0  0  0  0  0  0
   -2.5928   -0.1926    1.0475 C   0  0  0  0  0  0  0  0  0  0  0  0
   -4.4584    0.4235    3.2902 H   0  0  0  0  0  0  0  0  0  0  0  0
   -6.1238   -0.1828    3.4077 H   0  0  0  0  0  0  0  0  0  0  0  0
   -5.8018    1.5208    3.0090 H   0  0  0  0  0  0  0  0  0  0  0  0
   -5.1589   -0.8920    1.1923 H   0  0  0  0  0  0  0  0  0  0  0  0
   -6.4753    0.2430    0.9957 H   0  0  0  0  0  0  0  0  0  0  0  0
   -3.2623    2.4966   -0.8938 H   0  0  0  0  0  0  0  0  0  0  0  0
   -0.9097    2.2796   -1.4165 H   0  0  0  0  0  0  0  0  0  0  0  0
    1.3042   -0.3540    0.0470 H   0  0  0  0  0  0  0  0  0  0  0  0
    3.4256    0.7257   -0.3020 H   0  0  0  0  0  0  0  0  0  0  0  0
    3.6275    1.4083   -1.9330 H   0  0  0  0  0  0  0  0  0  0  0  0
    7.6059   -2.8306   -2.3371 H   0  0  0  0  0  0  0  0  0  0  0  0
    7.7678   -0.5628   -1.0751 H   0  0  0  0  0  0  0  0  0  0  0  0
   -3.0587   -0.8753    1.7512 H   0  0  0  0  0  0  0  0  0  0  0  0
  1  2  1  0
  2  3  1  0
  3  4  1  0
  4  5  2  0
  5  6  1  0
  6  7  2  0
  7  8  1  0
  8  9  1  0
  9 10  2  0
  9 11  1  0
 11 12  1  0
 12 13  1  0
 13 14  1  0
 14 15  2  0
 15 16  1  0
 16 17  1  0
  7 18  1  0
 18 19  1  0
 19 20  2  0
 19 21  1  0
 18 22  2  0
 22  4  1  0
 17 13  2  0
  1 23  1  0
  1 24  1  0
  1 25  1  0
  2 26  1  0
  2 27  1  0
  5 28  1  0
  6 29  1  0
  8 30  1  0
 11 31  1  0
 11 32  1  0
 15 33  1  0
 16 34  1  0
 22 35  1  0
M  CHG  2  19   1  21  -1
M  END
$$$$
