
     RDKit          3D

 37 38  0  0  0  0  0  0  0  0999 V2000
   -3.2141    2.0659   -1.9576 C   0  0  0  0  0  0  0  0  0  0  0  0
   -3.4238    0.8741   -1.0717 C   0  0  0  0  0  0  0  0  0  0  0  0
   -4.6198    0.1693   -1.1233 C   0  0  0  0  0  0  0  0  0  0  0  0
   -4.7918   -0.9374   -0.2871 C   0  0  0  0  0  0  0  0  0  0  0  0
   -6.0838   -1.7072   -0.2844 C   0  0  0  0  0  0  0  0  0  0  0  0
   -5.9266   -3.0143    0.0622 F   0  0  0  0  0  0  0  0  0  0  0  0
   -6.9885   -1.1917    0.5914 F   0  0  0  0  0  0  0  0  0  0  0  0
   -6.7000   -1.7149   -1.4989 F   0  0  0  0  0  0  0  0  0  0  0  0
   -3.7504   -1.2882    0.5783 C   0  0  0  0  0  0  0  0  0  0  0  0
   -2.5755   -0.5472    0.5659 C   0  0  0  0  0  0  0  0  0  0  0  0
   -1.5380   -0.8989    1.4691 N   0  0  0  0  0  0  0  0  0  0  0  0
   -0.3445   -0.1585    1.1795 N   0  0  0  0  0  0  0  0  0  0  0  0
    0.7189   -0.9390    0.7303 C   0  0  0  0  0  0  0  0  0  0  0  0
    0.6839   -2.1648    0.7567 O   0  0  0  0  0  0  0  0  0  0  0  0
    1.7782   -0.1542    0.3392 N   0  0  0  0  0  0  0  0  0  0  0  0
    2.9351   -0.6920   -0.1811 C   0  0  0  0  0  0  0  0  0  0  0  0
    2.9769   -1.5740   -1.0304 O   0  0  0  0  0  0  0  0  0  0  0  0
    4.1935    0.0055    0.2039 C   0  0  0  0  0  0  0  0  0  0  0  0
    5.2282    0.0910   -0.7375 C   0  0  0  0  0  0  0  0  0  0  0  0
    6.4238    0.7364   -0.4114 C   0  0  0  0  0  0  0  0  0  0  0  0
    6.5889    1.2853    0.8590 C   0  0  0  0  0  0  0  0  0  0  0  0
    8.0598    2.0800    1.2625 Cl  0  0  0  0  0  0  0  0  0  0  0  0
    5.5721    1.1880    1.8092 C   0  0  0  0  0  0  0  0  0  0  0  0
    4.3735    0.5439    1.4861 C   0  0  0  0  0  0  0  0  0  0  0  0
   -2.4130    0.5340   -0.2381 N   0  0  0  0  0  0  0  0  0  0  0  0
   -3.9624    2.8344   -1.7408 H   0  0  0  0  0  0  0  0  0  0  0  0
   -2.2222    2.5005   -1.7969 H   0  0  0  0  0  0  0  0  0  0  0  0
   -3.2916    1.7736   -3.0094 H   0  0  0  0  0  0  0  0  0  0  0  0
   -5.4104    0.4778   -1.8035 H   0  0  0  0  0  0  0  0  0  0  0  0
   -3.8570   -2.1296    1.2581 H   0  0  0  0  0  0  0  0  0  0  0  0
   -1.3430   -1.9055    1.3804 H   0  0  0  0  0  0  0  0  0  0  0  0
   -0.5637    0.6482    0.5888 H   0  0  0  0  0  0  0  0  0  0  0  0
    1.8377    0.7126    0.8480 H   0  0  0  0  0  0  0  0  0  0  0  0
    5.1051   -0.3463   -1.7274 H   0  0  0  0  0  0  0  0  0  0  0  0
    7.2198    0.8006   -1.1490 H   0  0  0  0  0  0  0  0  0  0  0  0
    5.7131    1.6000    2.8058 H   0  0  0  0  0  0  0  0  0  0  0  0
    3.6115    0.4427    2.2545 H   0  0  0  0  0  0  0  0  0  0  0  0
  1  2  1  0
  2  3  2  0
  3  4  1  0
  4  5  1  0
  5  6  1  0
  5  7  1  0
  5  8  1  0
  4  9  2  0
  9 10  1  0
 10 11  1  0
 11 12  1  0
 12 13  1  0
 13 14  2  0
 13 15  1  0
 15 16  1  0
 16 17  2  0
 16 18  1  0
 18 19  2  0
 19 20  1  0
 20 21  2  0
 21 22  1  0
 21 23  1  0
 23 24  2  0
 10 25  2  0
 25  2  1  0
 24 18  1  0
  1 26  1  0
  1 27  1  0
  1 28  1  0
  3 29  1  0
  9 30  1  0
 11 31  1  0
 12 32  1  0
 15 33  1  0
 19 34  1  0
 20 35  1  0
 23 36  1  0
 24 37  1  0
M  END
$$$$
