
     RDKit          3D

 48 52  0  0  0  0  0  0  0  0999 V2000
    5.6598   -0.9594   -0.3009 C   0  0  0  0  0  0  0  0  0  0  0  0
    4.2307   -0.5735   -0.5409 C   0  0  0  0  0  0  0  0  0  0  0  0
    3.3940   -0.2509    0.5318 C   0  0  0  0  0  0  0  0  0  0  0  0
    2.0529    0.0748    0.3128 C   0  0  0  0  0  0  0  0  0  0  0  0
    1.5151    0.0854   -0.9858 C   0  0  0  0  0  0  0  0  0  0  0  0
    0.0713    0.4397   -1.2707 C   0  0  0  0  0  0  0  0  0  0  0  0
   -0.1582    1.8098   -0.7595 C   0  0  0  0  0  0  0  0  0  0  0  0
   -1.2050    1.8254    0.1757 C   0  0  0  0  0  0  0  0  0  0  0  0
   -1.3134    3.0922    0.6819 C   0  0  0  0  0  0  0  0  0  0  0  0
   -2.0401    3.5819    1.6778 O   0  0  0  0  0  0  0  0  0  0  0  0
   -0.4248    3.8753   -0.0304 N   0  0  0  0  0  0  0  0  0  0  0  0
   -0.2357    5.2954    0.1597 C   0  0  0  0  0  0  0  0  0  0  0  0
    0.3274    3.0863   -0.8842 C   0  0  0  0  0  0  0  0  0  0  0  0
    1.3204    3.5967   -1.6006 O   0  0  0  0  0  0  0  0  0  0  0  0
   -1.8036    0.4828    0.3591 C   0  0  0  0  0  0  0  0  0  0  0  0
   -1.8457    0.0458    1.8148 C   0  0  0  0  0  0  0  0  0  0  0  0
   -1.8506    0.8478    2.7573 O   0  0  0  0  0  0  0  0  0  0  0  0
   -2.0937   -1.2655    2.1082 N   0  0  0  0  0  0  0  0  0  0  0  0
   -2.4751   -2.3124    1.2495 C   0  0  0  0  0  0  0  0  0  0  0  0
   -3.2330   -3.3210    1.8794 C   0  0  0  0  0  0  0  0  0  0  0  0
   -3.7517   -4.4021    1.1659 C   0  0  0  0  0  0  0  0  0  0  0  0
   -3.5083   -4.5058   -0.1941 C   0  0  0  0  0  0  0  0  0  0  0  0
   -2.7260   -3.5400   -0.8257 C   0  0  0  0  0  0  0  0  0  0  0  0
   -2.1903   -2.4393   -0.1196 C   0  0  0  0  0  0  0  0  0  0  0  0
   -1.2303   -1.6062   -0.8986 C   0  0  0  0  0  0  0  0  0  0  0  0
   -0.7315   -2.0839   -1.9179 O   0  0  0  0  0  0  0  0  0  0  0  0
   -0.9041   -0.3429   -0.4706 N   0  0  0  0  0  0  0  0  0  0  0  0
    2.3575   -0.2652   -2.0534 C   0  0  0  0  0  0  0  0  0  0  0  0
    3.6979   -0.5936   -1.8333 C   0  0  0  0  0  0  0  0  0  0  0  0
    6.0639   -0.4374    0.5729 H   0  0  0  0  0  0  0  0  0  0  0  0
    5.7332   -2.0385   -0.1339 H   0  0  0  0  0  0  0  0  0  0  0  0
    6.2863   -0.6902   -1.1578 H   0  0  0  0  0  0  0  0  0  0  0  0
    3.7797   -0.2501    1.5489 H   0  0  0  0  0  0  0  0  0  0  0  0
    1.4300    0.3286    1.1681 H   0  0  0  0  0  0  0  0  0  0  0  0
   -0.1835    0.3693   -2.3346 H   0  0  0  0  0  0  0  0  0  0  0  0
   -2.2738    2.8216    2.2518 H   0  0  0  0  0  0  0  0  0  0  0  0
    0.5565    5.4370    0.8989 H   0  0  0  0  0  0  0  0  0  0  0  0
   -1.1690    5.7437    0.5094 H   0  0  0  0  0  0  0  0  0  0  0  0
    0.0428    5.7521   -0.7934 H   0  0  0  0  0  0  0  0  0  0  0  0
    1.8153    2.8478   -1.9807 H   0  0  0  0  0  0  0  0  0  0  0  0
   -2.8156    0.4456   -0.0606 H   0  0  0  0  0  0  0  0  0  0  0  0
   -2.2517   -1.3927    3.1020 H   0  0  0  0  0  0  0  0  0  0  0  0
   -3.4557   -3.2646    2.9439 H   0  0  0  0  0  0  0  0  0  0  0  0
   -4.3452   -5.1584    1.6740 H   0  0  0  0  0  0  0  0  0  0  0  0
   -3.9007   -5.3460   -0.7617 H   0  0  0  0  0  0  0  0  0  0  0  0
   -2.5075   -3.6674   -1.8864 H   0  0  0  0  0  0  0  0  0  0  0  0
    1.9677   -0.3045   -3.0690 H   0  0  0  0  0  0  0  0  0  0  0  0
    4.3215   -0.8736   -2.6796 H   0  0  0  0  0  0  0  0  0  0  0  0
  1  2  1  0
  2  3  2  0
  3  4  1  0
  4  5  2  0
  5  6  1  0
  6  7  1  0
  7  8  1  0
  8  9  2  0
  9 10  1  0
  9 11  1  0
 11 12  1  0
 11 13  1  0
 13 14  1  0
  8 15  1  0
 15 16  1  0
 16 17  2  0
 16 18  1  0
 18 19  1  0
 19 20  2  0
 20 21  1  0
 21 22  2  0
 22 23  1  0
 23 24  2  0
 24 25  1  0
 25 26  2  0
 25 27  1  0
  5 28  1  0
 28 29  2  0
 29  2  1  0
 27  6  1  0
 13  7  2  0
 27 15  1  0
 24 19  1  0
  1 30  1  0
  1 31  1  0
  1 32  1  0
  3 33  1  0
  4 34  1  0
  6 35  1  0
 10 36  1  0
 12 37  1  0
 12 38  1  0
 12 39  1  0
 14 40  1  0
 15 41  1  0
 18 42  1  0
 20 43  1  0
 21 44  1  0
 22 45  1  0
 23 46  1  0
 28 47  1  0
 29 48  1  0
M  END
$$$$
