
     RDKit          3D

 58 62  0  0  0  0  0  0  0  0999 V2000
    3.6338   -2.0714    4.8212 C   0  0  0  0  0  0  0  0  0  0  0  0
    3.9015   -2.1496    3.4208 O   0  0  0  0  0  0  0  0  0  0  0  0
    3.5215   -1.0507    2.7216 C   0  0  0  0  0  0  0  0  0  0  0  0
    2.9859   -0.0586    3.1941 O   0  0  0  0  0  0  0  0  0  0  0  0
    3.8112   -1.2069    1.2746 C   0  0  0  0  0  0  0  0  0  0  0  0
    4.8400   -1.9769    0.8810 C   0  0  0  0  0  0  0  0  0  0  0  0
    5.2937   -2.1303   -0.4048 O   0  0  0  0  0  0  0  0  0  0  0  0
    4.7144   -1.2624   -1.4000 C   0  0  0  0  0  0  0  0  0  0  0  0
    5.5710   -0.0017   -1.5115 C   0  0  0  0  0  0  0  0  0  0  0  0
    3.2210   -1.0300   -1.1307 C   0  0  0  0  0  0  0  0  0  0  0  0
    2.5104   -0.1920   -2.1988 C   0  0  0  0  0  0  0  0  0  0  0  0
    1.0734   -0.1683   -1.9081 N   0  0  0  0  0  0  0  0  0  0  0  0
    0.3003    0.4869   -2.9883 C   0  0  0  0  0  0  0  0  0  0  0  0
   -1.2286    0.2878   -2.8169 C   0  0  0  0  0  0  0  0  0  0  0  0
   -1.6296    0.5171   -1.4003 C   0  0  0  0  0  0  0  0  0  0  0  0
   -0.6851    0.5594   -0.3946 C   0  0  0  0  0  0  0  0  0  0  0  0
   -1.3389    0.7873    0.7850 N   0  0  0  0  0  0  0  0  0  0  0  0
   -2.6976    0.8738    0.5591 C   0  0  0  0  0  0  0  0  0  0  0  0
   -3.7467    1.0910    1.4631 C   0  0  0  0  0  0  0  0  0  0  0  0
   -5.0545    1.1342    0.9555 C   0  0  0  0  0  0  0  0  0  0  0  0
   -6.1710    1.3401    1.7341 O   0  0  0  0  0  0  0  0  0  0  0  0
   -5.9786    1.5209    3.1288 C   0  0  0  0  0  0  0  0  0  0  0  0
   -5.2951    0.9612   -0.4225 C   0  0  0  0  0  0  0  0  0  0  0  0
   -6.6130    1.0221   -0.8135 O   0  0  0  0  0  0  0  0  0  0  0  0
   -6.9037    0.7901   -2.1836 C   0  0  0  0  0  0  0  0  0  0  0  0
   -4.2249    0.7478   -1.3056 C   0  0  0  0  0  0  0  0  0  0  0  0
   -2.9067    0.7037   -0.8091 C   0  0  0  0  0  0  0  0  0  0  0  0
    0.7978    0.4514   -0.5850 C   0  0  0  0  0  0  0  0  0  0  0  0
    1.4821   -0.3629    0.5260 C   0  0  0  0  0  0  0  0  0  0  0  0
    3.0005   -0.4252    0.2715 C   0  0  0  0  0  0  0  0  0  0  0  0
    4.1741   -1.2314    5.2689 H   0  0  0  0  0  0  0  0  0  0  0  0
    3.9866   -2.9964    5.2858 H   0  0  0  0  0  0  0  0  0  0  0  0
    2.5577   -1.9820    5.0008 H   0  0  0  0  0  0  0  0  0  0  0  0
    5.4566   -2.5665    1.5505 H   0  0  0  0  0  0  0  0  0  0  0  0
    4.8086   -1.8025   -2.3504 H   0  0  0  0  0  0  0  0  0  0  0  0
    6.6155   -0.2750   -1.6991 H   0  0  0  0  0  0  0  0  0  0  0  0
    5.5691    0.5781   -0.5833 H   0  0  0  0  0  0  0  0  0  0  0  0
    5.2375    0.6436   -2.3287 H   0  0  0  0  0  0  0  0  0  0  0  0
    2.7559   -2.0303   -1.1346 H   0  0  0  0  0  0  0  0  0  0  0  0
    2.6822   -0.6553   -3.1779 H   0  0  0  0  0  0  0  0  0  0  0  0
    2.9127    0.8273   -2.2402 H   0  0  0  0  0  0  0  0  0  0  0  0
    0.5345    1.5598   -3.0193 H   0  0  0  0  0  0  0  0  0  0  0  0
    0.5813    0.0683   -3.9626 H   0  0  0  0  0  0  0  0  0  0  0  0
   -1.4964   -0.7382   -3.0976 H   0  0  0  0  0  0  0  0  0  0  0  0
   -1.7646    0.9699   -3.4858 H   0  0  0  0  0  0  0  0  0  0  0  0
   -0.9041    0.8799    1.6929 H   0  0  0  0  0  0  0  0  0  0  0  0
   -3.5274    1.2175    2.5153 H   0  0  0  0  0  0  0  0  0  0  0  0
   -5.5339    0.6308    3.5856 H   0  0  0  0  0  0  0  0  0  0  0  0
   -6.9618    1.6712    3.5853 H   0  0  0  0  0  0  0  0  0  0  0  0
   -5.3786    2.4138    3.3330 H   0  0  0  0  0  0  0  0  0  0  0  0
   -7.9895    0.8444   -2.3087 H   0  0  0  0  0  0  0  0  0  0  0  0
   -6.5842   -0.2103   -2.4933 H   0  0  0  0  0  0  0  0  0  0  0  0
   -6.4583    1.5634   -2.8179 H   0  0  0  0  0  0  0  0  0  0  0  0
   -4.3741    0.6150   -2.3695 H   0  0  0  0  0  0  0  0  0  0  0  0
    1.1998    1.4753   -0.5733 H   0  0  0  0  0  0  0  0  0  0  0  0
    1.0606   -1.3762    0.5812 H   0  0  0  0  0  0  0  0  0  0  0  0
    1.2770    0.1110    1.4912 H   0  0  0  0  0  0  0  0  0  0  0  0
    3.3789    0.6069    0.2885 H   0  0  0  0  0  0  0  0  0  0  0  0
  1  2  1  0
  2  3  1  0
  3  4  2  0
  3  5  1  0
  5  6  2  0
  6  7  1  0
  7  8  1  0
  8  9  1  0
  8 10  1  0
 10 11  1  0
 11 12  1  0
 12 13  1  0
 13 14  1  0
 14 15  1  0
 15 16  2  0
 16 17  1  0
 17 18  1  0
 18 19  2  0
 19 20  1  0
 20 21  1  0
 21 22  1  0
 20 23  2  0
 23 24  1  0
 24 25  1  0
 23 26  1  0
 26 27  2  0
 16 28  1  0
 28 29  1  0
 29 30  1  0
 30  5  1  0
 30 10  1  0
 28 12  1  0
 27 15  1  0
 27 18  1  0
  1 31  1  0
  1 32  1  0
  1 33  1  0
  6 34  1  0
  8 35  1  0
  9 36  1  0
  9 37  1  0
  9 38  1  0
 10 39  1  0
 11 40  1  0
 11 41  1  0
 13 42  1  0
 13 43  1  0
 14 44  1  0
 14 45  1  0
 17 46  1  0
 19 47  1  0
 22 48  1  0
 22 49  1  0
 22 50  1  0
 25 51  1  0
 25 52  1  0
 25 53  1  0
 26 54  1  0
 28 55  1  0
 29 56  1  0
 29 57  1  0
 30 58  1  0
M  END
$$$$
