
     RDKit          3D

 40 42  0  0  0  0  0  0  0  0999 V2000
    0.6543   -4.3681    0.0713 C   0  0  0  0  0  0  0  0  0  0  0  0
    0.0280   -3.0848    0.0741 O   0  0  0  0  0  0  0  0  0  0  0  0
    0.8958   -2.0373    0.1614 C   0  0  0  0  0  0  0  0  0  0  0  0
    2.1147   -2.1663    0.2316 O   0  0  0  0  0  0  0  0  0  0  0  0
    0.2347   -0.7272    0.1453 C   0  0  0  0  0  0  0  0  0  0  0  0
    0.9633    0.4590    0.1057 C   0  0  0  0  0  0  0  0  0  0  0  0
    2.3452    0.5719    0.1027 N   0  0  0  0  0  0  0  0  0  0  0  0
    3.1152    1.7210    0.0629 C   0  0  0  0  0  0  0  0  0  0  0  0
    2.7012    2.8743    0.0201 O   0  0  0  0  0  0  0  0  0  0  0  0
    4.5394    1.4284    0.0773 C   0  0  0  0  0  0  0  0  0  0  0  0
    5.6402    2.2644    0.0502 C   0  0  0  0  0  0  0  0  0  0  0  0
    6.7857    1.4337    0.0832 C   0  0  0  0  0  0  0  0  0  0  0  0
    6.3195    0.1416    0.1287 C   0  0  0  0  0  0  0  0  0  0  0  0
    4.9619    0.1238    0.1254 O   0  0  0  0  0  0  0  0  0  0  0  0
   -0.0279    1.8349    0.0466 S   0  0  0  0  0  0  0  0  0  0  0  0
   -1.4464    0.9091    0.0783 C   0  0  0  0  0  0  0  0  0  0  0  0
   -1.1873   -0.4460    0.1628 C   0  0  0  0  0  0  0  0  0  0  0  0
   -2.3315   -1.4173    0.2245 C   0  0  0  0  0  0  0  0  0  0  0  0
   -3.6307   -0.7176    0.6540 C   0  0  0  0  0  0  0  0  0  0  0  0
   -3.8533    0.5450   -0.0644 N   0  0  0  0  0  0  0  0  0  0  0  0
   -5.1551    0.8635   -0.4320 C   0  0  0  0  0  0  0  0  0  0  0  0
   -5.3884    2.2283   -1.0311 C   0  0  0  0  0  0  0  0  0  0  0  0
   -6.0959    0.0803   -0.3001 O   0  0  0  0  0  0  0  0  0  0  0  0
   -2.7946    1.5601    0.0353 C   0  0  0  0  0  0  0  0  0  0  0  0
    1.2049   -4.5282    1.0035 H   0  0  0  0  0  0  0  0  0  0  0  0
    1.3163   -4.4700   -0.7944 H   0  0  0  0  0  0  0  0  0  0  0  0
   -0.1297   -5.1268   -0.0018 H   0  0  0  0  0  0  0  0  0  0  0  0
    2.8660   -0.3061    0.1414 H   0  0  0  0  0  0  0  0  0  0  0  0
    5.6039    3.3451    0.0113 H   0  0  0  0  0  0  0  0  0  0  0  0
    7.8228    1.7389    0.0752 H   0  0  0  0  0  0  0  0  0  0  0  0
    6.7994   -0.8269    0.1651 H   0  0  0  0  0  0  0  0  0  0  0  0
   -2.4655   -1.8595   -0.7702 H   0  0  0  0  0  0  0  0  0  0  0  0
   -2.1254   -2.2248    0.9341 H   0  0  0  0  0  0  0  0  0  0  0  0
   -4.4695   -1.4068    0.5109 H   0  0  0  0  0  0  0  0  0  0  0  0
   -3.5963   -0.4708    1.7231 H   0  0  0  0  0  0  0  0  0  0  0  0
   -6.4527    2.3463   -1.2575 H   0  0  0  0  0  0  0  0  0  0  0  0
   -4.8286    2.3302   -1.9644 H   0  0  0  0  0  0  0  0  0  0  0  0
   -5.1048    3.0106   -0.3225 H   0  0  0  0  0  0  0  0  0  0  0  0
   -2.8549    2.2436   -0.8169 H   0  0  0  0  0  0  0  0  0  0  0  0
   -2.9738    2.1304    0.9542 H   0  0  0  0  0  0  0  0  0  0  0  0
  1  2  1  0
  2  3  1  0
  3  4  2  0
  3  5  1  0
  5  6  2  0
  6  7  1  0
  7  8  1  0
  8  9  2  0
  8 10  1  0
 10 11  2  0
 11 12  1  0
 12 13  2  0
 13 14  1  0
  6 15  1  0
 15 16  1  0
 16 17  2  0
 17 18  1  0
 18 19  1  0
 19 20  1  0
 20 21  1  0
 21 22  1  0
 21 23  2  0
 20 24  1  0
 17  5  1  0
 14 10  1  0
 24 16  1  0
  1 25  1  0
  1 26  1  0
  1 27  1  0
  7 28  1  0
 11 29  1  0
 12 30  1  0
 13 31  1  0
 18 32  1  0
 18 33  1  0
 19 34  1  0
 19 35  1  0
 22 36  1  0
 22 37  1  0
 22 38  1  0
 24 39  1  0
 24 40  1  0
M  END
$$$$
