
     RDKit          3D

 44 46  0  0  0  0  0  0  0  0999 V2000
   -0.0673   -1.3069    4.9460 N   0  0  0  0  0  0  0  0  0  0  0  0
   -0.2207   -1.3718    3.7967 C   0  0  0  0  0  0  0  0  0  0  0  0
   -0.3961   -1.4029    2.3897 C   0  0  0  0  0  0  0  0  0  0  0  0
    0.4047   -0.8315    1.4733 C   0  0  0  0  0  0  0  0  0  0  0  0
    1.5629   -0.0393    1.7175 C   0  0  0  0  0  0  0  0  0  0  0  0
    2.3555    0.1766    2.8384 C   0  0  0  0  0  0  0  0  0  0  0  0
    3.3904    1.0777    2.4816 C   0  0  0  0  0  0  0  0  0  0  0  0
    3.2067    1.3776    1.1519 C   0  0  0  0  0  0  0  0  0  0  0  0
    3.9030    2.2234    0.1847 C   0  0  0  0  0  0  0  0  0  0  0  0
    4.9875    3.0207    0.5840 C   0  0  0  0  0  0  0  0  0  0  0  0
    5.6603    3.8343   -0.3348 C   0  0  0  0  0  0  0  0  0  0  0  0
    5.2536    3.8569   -1.6657 C   0  0  0  0  0  0  0  0  0  0  0  0
    6.1603    4.9550   -2.9077 Br  0  0  0  0  0  0  0  0  0  0  0  0
    4.1819    3.0748   -2.0857 C   0  0  0  0  0  0  0  0  0  0  0  0
    3.5119    2.2636   -1.1636 C   0  0  0  0  0  0  0  0  0  0  0  0
    2.1143    0.7036    0.6935 O   0  0  0  0  0  0  0  0  0  0  0  0
   -1.5527   -2.1877    1.8808 C   0  0  0  0  0  0  0  0  0  0  0  0
   -1.7269   -3.3512    2.2206 O   0  0  0  0  0  0  0  0  0  0  0  0
   -2.3931   -1.4951    1.0350 N   0  0  0  0  0  0  0  0  0  0  0  0
   -3.5255   -2.1419    0.3782 C   0  0  0  0  0  0  0  0  0  0  0  0
   -4.6136   -1.1175    0.0306 C   0  0  0  0  0  0  0  0  0  0  0  0
   -4.2236   -0.2028   -1.1312 C   0  0  0  0  0  0  0  0  0  0  0  0
   -3.7799   -0.9983   -2.3547 C   0  0  0  0  0  0  0  0  0  0  0  0
   -2.6671   -1.9846   -2.0144 C   0  0  0  0  0  0  0  0  0  0  0  0
   -3.0708   -2.9128   -0.8694 C   0  0  0  0  0  0  0  0  0  0  0  0
    0.1703   -0.9578    0.4176 H   0  0  0  0  0  0  0  0  0  0  0  0
    2.2297   -0.2620    3.8186 H   0  0  0  0  0  0  0  0  0  0  0  0
    4.1746    1.4497    3.1255 H   0  0  0  0  0  0  0  0  0  0  0  0
    5.3241    3.0227    1.6180 H   0  0  0  0  0  0  0  0  0  0  0  0
    6.4962    4.4429    0.0002 H   0  0  0  0  0  0  0  0  0  0  0  0
    3.8585    3.0858   -3.1231 H   0  0  0  0  0  0  0  0  0  0  0  0
    2.6777    1.6583   -1.5126 H   0  0  0  0  0  0  0  0  0  0  0  0
   -2.1822   -0.5363    0.7892 H   0  0  0  0  0  0  0  0  0  0  0  0
   -3.9442   -2.8611    1.0933 H   0  0  0  0  0  0  0  0  0  0  0  0
   -5.5304   -1.6559   -0.2419 H   0  0  0  0  0  0  0  0  0  0  0  0
   -4.8545   -0.5063    0.9088 H   0  0  0  0  0  0  0  0  0  0  0  0
   -3.4155    0.4702   -0.8209 H   0  0  0  0  0  0  0  0  0  0  0  0
   -5.0760    0.4330   -1.3969 H   0  0  0  0  0  0  0  0  0  0  0  0
   -4.6383   -1.5452   -2.7639 H   0  0  0  0  0  0  0  0  0  0  0  0
   -3.4377   -0.3111   -3.1369 H   0  0  0  0  0  0  0  0  0  0  0  0
   -1.7582   -1.4339   -1.7432 H   0  0  0  0  0  0  0  0  0  0  0  0
   -2.4231   -2.5816   -2.9005 H   0  0  0  0  0  0  0  0  0  0  0  0
   -2.2324   -3.5775   -0.6298 H   0  0  0  0  0  0  0  0  0  0  0  0
   -3.8943   -3.5537   -1.2094 H   0  0  0  0  0  0  0  0  0  0  0  0
  1  2  3  0
  2  3  1  0
  3  4  2  3
  4  5  1  0
  5  6  2  0
  6  7  1  0
  7  8  2  0
  8  9  1  0
  9 10  2  0
 10 11  1  0
 11 12  2  0
 12 13  1  0
 12 14  1  0
 14 15  2  0
  8 16  1  0
  3 17  1  0
 17 18  2  0
 17 19  1  0
 19 20  1  0
 20 21  1  0
 21 22  1  0
 22 23  1  0
 23 24  1  0
 24 25  1  0
 16  5  1  0
 25 20  1  0
 15  9  1  0
  4 26  1  0
  6 27  1  0
  7 28  1  0
 10 29  1  0
 11 30  1  0
 14 31  1  0
 15 32  1  0
 19 33  1  0
 20 34  1  0
 21 35  1  0
 21 36  1  0
 22 37  1  0
 22 38  1  0
 23 39  1  0
 23 40  1  0
 24 41  1  0
 24 42  1  0
 25 43  1  0
 25 44  1  0
M  END
$$$$
