
     RDKit          3D

 57 60  0  0  0  0  0  0  0  0999 V2000
   -4.1100    3.1208   -2.3281 C   0  0  0  0  0  0  0  0  0  0  0  0
   -4.0390    2.2380   -1.2165 O   0  0  0  0  0  0  0  0  0  0  0  0
   -2.8460    2.1258   -0.5612 C   0  0  0  0  0  0  0  0  0  0  0  0
   -1.6291    2.5954   -1.0748 C   0  0  0  0  0  0  0  0  0  0  0  0
   -0.4384    2.4210   -0.3617 C   0  0  0  0  0  0  0  0  0  0  0  0
   -0.4546    1.7606    0.8690 C   0  0  0  0  0  0  0  0  0  0  0  0
    0.7915    1.5936    1.6456 C   0  0  0  0  0  0  0  0  0  0  0  0
    0.8243    2.0796    2.7725 O   0  0  0  0  0  0  0  0  0  0  0  0
    1.8635    0.9201    1.0586 N   0  0  0  0  0  0  0  0  0  0  0  0
    3.0518    0.7289    1.8983 C   0  0  0  0  0  0  0  0  0  0  0  0
    4.3249    0.4755    1.0746 C   0  0  0  0  0  0  0  0  0  0  0  0
    4.1166   -0.6296    0.1129 N   0  0  0  0  0  0  0  0  0  0  0  0
    5.2452   -1.1330   -0.5582 C   0  0  0  0  0  0  0  0  0  0  0  0
    6.4822   -0.4722   -0.6032 C   0  0  0  0  0  0  0  0  0  0  0  0
    7.5810   -1.0201   -1.2770 C   0  0  0  0  0  0  0  0  0  0  0  0
    7.4690   -2.2505   -1.9154 C   0  0  0  0  0  0  0  0  0  0  0  0
    6.2599   -2.9347   -1.8749 C   0  0  0  0  0  0  0  0  0  0  0  0
    5.1662   -2.3810   -1.2009 C   0  0  0  0  0  0  0  0  0  0  0  0
    2.9586   -0.3905   -0.7806 C   0  0  0  0  0  0  0  0  0  0  0  0
    1.6817   -0.1242    0.0387 C   0  0  0  0  0  0  0  0  0  0  0  0
   -1.6565    1.3065    1.4090 C   0  0  0  0  0  0  0  0  0  0  0  0
   -2.8448    1.4769    0.6840 C   0  0  0  0  0  0  0  0  0  0  0  0
   -4.3540    0.8612    1.3910 S   0  0  0  0  0  6  0  0  0  0  0  0
   -5.3229    1.9354    1.4155 O   0  0  0  0  0  0  0  0  0  0  0  0
   -4.0199    0.1506    2.6107 O   0  0  0  0  0  0  0  0  0  0  0  0
   -4.8627   -0.3165    0.2792 N   0  0  0  0  0  0  0  0  0  0  0  0
   -3.9551   -1.4613    0.0359 C   0  0  0  0  0  0  0  0  0  0  0  0
   -4.8832   -2.5747   -0.4229 C   0  0  0  0  0  0  0  0  0  0  0  0
   -6.0957   -2.3608    0.4591 C   0  0  0  0  0  0  0  0  0  0  0  0
   -6.2362   -0.8442    0.4965 C   0  0  0  0  0  0  0  0  0  0  0  0
   -5.1589    3.1928   -2.6311 H   0  0  0  0  0  0  0  0  0  0  0  0
   -3.7703    4.1272   -2.0616 H   0  0  0  0  0  0  0  0  0  0  0  0
   -3.5447    2.7234   -3.1771 H   0  0  0  0  0  0  0  0  0  0  0  0
   -1.5735    3.1029   -2.0329 H   0  0  0  0  0  0  0  0  0  0  0  0
    0.4958    2.8078   -0.7623 H   0  0  0  0  0  0  0  0  0  0  0  0
    3.2035    1.6071    2.5355 H   0  0  0  0  0  0  0  0  0  0  0  0
    2.8484   -0.1248    2.5560 H   0  0  0  0  0  0  0  0  0  0  0  0
    5.1389    0.2342    1.7689 H   0  0  0  0  0  0  0  0  0  0  0  0
    4.5846    1.3964    0.5362 H   0  0  0  0  0  0  0  0  0  0  0  0
    6.6206    0.4933   -0.1273 H   0  0  0  0  0  0  0  0  0  0  0  0
    8.5245   -0.4808   -1.2983 H   0  0  0  0  0  0  0  0  0  0  0  0
    8.3225   -2.6774   -2.4344 H   0  0  0  0  0  0  0  0  0  0  0  0
    6.1659   -3.9043   -2.3557 H   0  0  0  0  0  0  0  0  0  0  0  0
    4.2444   -2.9549   -1.1545 H   0  0  0  0  0  0  0  0  0  0  0  0
    3.1662    0.4780   -1.4196 H   0  0  0  0  0  0  0  0  0  0  0  0
    2.7604   -1.2457   -1.4356 H   0  0  0  0  0  0  0  0  0  0  0  0
    1.3846   -1.0347    0.5740 H   0  0  0  0  0  0  0  0  0  0  0  0
    0.8646    0.1237   -0.6420 H   0  0  0  0  0  0  0  0  0  0  0  0
   -1.6589    0.8295    2.3878 H   0  0  0  0  0  0  0  0  0  0  0  0
   -3.2191   -1.2170   -0.7343 H   0  0  0  0  0  0  0  0  0  0  0  0
   -3.4351   -1.7610    0.9515 H   0  0  0  0  0  0  0  0  0  0  0  0
   -5.1528   -2.4381   -1.4768 H   0  0  0  0  0  0  0  0  0  0  0  0
   -4.4386   -3.5658   -0.3052 H   0  0  0  0  0  0  0  0  0  0  0  0
   -6.9930   -2.8548    0.0770 H   0  0  0  0  0  0  0  0  0  0  0  0
   -5.8986   -2.7437    1.4678 H   0  0  0  0  0  0  0  0  0  0  0  0
   -6.8704   -0.4901   -0.3231 H   0  0  0  0  0  0  0  0  0  0  0  0
   -6.6796   -0.5200    1.4422 H   0  0  0  0  0  0  0  0  0  0  0  0
  1  2  1  0
  2  3  1  0
  3  4  2  0
  4  5  1  0
  5  6  2  0
  6  7  1  0
  7  8  2  0
  7  9  1  0
  9 10  1  0
 10 11  1  0
 11 12  1  0
 12 13  1  0
 13 14  2  0
 14 15  1  0
 15 16  2  0
 16 17  1  0
 17 18  2  0
 12 19  1  0
 19 20  1  0
  6 21  1  0
 21 22  2  0
 22 23  1  0
 23 24  2  0
 23 25  2  0
 23 26  1  0
 26 27  1  0
 27 28  1  0
 28 29  1  0
 29 30  1  0
 22  3  1  0
 30 26  1  0
 20  9  1  0
 18 13  1  0
  1 31  1  0
  1 32  1  0
  1 33  1  0
  4 34  1  0
  5 35  1  0
 10 36  1  0
 10 37  1  0
 11 38  1  0
 11 39  1  0
 14 40  1  0
 15 41  1  0
 16 42  1  0
 17 43  1  0
 18 44  1  0
 19 45  1  0
 19 46  1  0
 20 47  1  0
 20 48  1  0
 21 49  1  0
 27 50  1  0
 27 51  1  0
 28 52  1  0
 28 53  1  0
 29 54  1  0
 29 55  1  0
 30 56  1  0
 30 57  1  0
M  END
$$$$
