
     RDKit          3D

 35 36  0  0  0  0  0  0  0  0999 V2000
    3.2880   -2.3874    2.3861 C   0  0  0  0  0  0  0  0  0  0  0  0
    2.4681   -1.6326    1.4962 O   0  0  0  0  0  0  0  0  0  0  0  0
    2.7357   -0.2860    1.4043 C   0  0  0  0  0  0  0  0  0  0  0  0
    3.6578    0.4035    2.1985 C   0  0  0  0  0  0  0  0  0  0  0  0
    3.8523    1.7730    2.0149 C   0  0  0  0  0  0  0  0  0  0  0  0
    3.1214    2.4617    1.0458 C   0  0  0  0  0  0  0  0  0  0  0  0
    2.1966    1.7828    0.2503 C   0  0  0  0  0  0  0  0  0  0  0  0
    2.0009    0.4095    0.4176 C   0  0  0  0  0  0  0  0  0  0  0  0
    1.0958   -0.3505   -0.3575 N   0  0  0  0  0  0  0  0  0  0  0  0
    0.3567    0.0566   -1.4514 C   0  0  0  0  0  0  0  0  0  0  0  0
    0.3663    1.1747   -1.9602 O   0  0  0  0  0  0  0  0  0  0  0  0
   -0.4961   -1.0734   -2.0506 C   0  0  0  0  0  0  0  0  0  0  0  0
   -1.7668   -0.5598   -2.5902 N   0  0  0  0  0  0  0  0  0  0  0  0
   -2.8011   -0.1957   -1.7151 C   0  0  0  0  0  0  0  0  0  0  0  0
   -3.0217   -0.8070   -0.4737 C   0  0  0  0  0  0  0  0  0  0  0  0
   -4.1261   -0.4648    0.3167 C   0  0  0  0  0  0  0  0  0  0  0  0
   -5.0379    0.4774   -0.1398 C   0  0  0  0  0  0  0  0  0  0  0  0
   -6.0936    0.7819    0.6332 F   0  0  0  0  0  0  0  0  0  0  0  0
   -4.8656    1.0689   -1.3853 C   0  0  0  0  0  0  0  0  0  0  0  0
   -6.0052    2.2158   -1.9783 Cl  0  0  0  0  0  0  0  0  0  0  0  0
   -3.7628    0.7216   -2.1727 C   0  0  0  0  0  0  0  0  0  0  0  0
    3.0148   -3.4400    2.2733 H   0  0  0  0  0  0  0  0  0  0  0  0
    3.1018   -2.1020    3.4277 H   0  0  0  0  0  0  0  0  0  0  0  0
    4.3511   -2.2892    2.1279 H   0  0  0  0  0  0  0  0  0  0  0  0
    4.2409   -0.0906    2.9676 H   0  0  0  0  0  0  0  0  0  0  0  0
    4.5719    2.3083    2.6298 H   0  0  0  0  0  0  0  0  0  0  0  0
    3.2691    3.5341    0.9020 H   0  0  0  0  0  0  0  0  0  0  0  0
    1.6361    2.3572   -0.4870 H   0  0  0  0  0  0  0  0  0  0  0  0
    1.0611   -1.3265   -0.0841 H   0  0  0  0  0  0  0  0  0  0  0  0
    0.0817   -1.4886   -2.8855 H   0  0  0  0  0  0  0  0  0  0  0  0
   -0.6467   -1.8939   -1.3398 H   0  0  0  0  0  0  0  0  0  0  0  0
   -1.5613    0.2162   -3.2262 H   0  0  0  0  0  0  0  0  0  0  0  0
   -2.3532   -1.5734   -0.0928 H   0  0  0  0  0  0  0  0  0  0  0  0
   -4.2817   -0.9498    1.2807 H   0  0  0  0  0  0  0  0  0  0  0  0
   -3.6483    1.1682   -3.1571 H   0  0  0  0  0  0  0  0  0  0  0  0
  1  2  1  0
  2  3  1  0
  3  4  2  0
  4  5  1  0
  5  6  2  0
  6  7  1  0
  7  8  2  0
  8  9  1  0
  9 10  1  0
 10 11  2  0
 10 12  1  0
 12 13  1  0
 13 14  1  0
 14 15  2  0
 15 16  1  0
 16 17  2  0
 17 18  1  0
 17 19  1  0
 19 20  1  0
 19 21  2  0
  8  3  1  0
 21 14  1  0
  1 22  1  0
  1 23  1  0
  1 24  1  0
  4 25  1  0
  5 26  1  0
  6 27  1  0
  7 28  1  0
  9 29  1  0
 12 30  1  0
 12 31  1  0
 13 32  1  0
 15 33  1  0
 16 34  1  0
 21 35  1  0
M  END
$$$$
