
     RDKit          3D

 34 34  0  0  0  0  0  0  0  0999 V2000
    4.7646    1.1954   -1.2410 C   0  0  0  0  0  0  0  0  0  0  0  0
    4.1058    0.9144   -0.0146 O   0  0  0  0  0  0  0  0  0  0  0  0
    2.9228    0.2195   -0.0732 C   0  0  0  0  0  0  0  0  0  0  0  0
    2.3213   -0.2185   -1.2569 C   0  0  0  0  0  0  0  0  0  0  0  0
    1.1136   -0.9190   -1.2187 C   0  0  0  0  0  0  0  0  0  0  0  0
    0.4885   -1.1962    0.0019 C   0  0  0  0  0  0  0  0  0  0  0  0
   -0.8309   -1.9243    0.0280 C   0  0  0  0  0  0  0  0  0  0  0  0
   -1.9214   -1.0151   -0.2457 N   0  0  0  0  0  0  0  0  0  0  0  0
   -2.4852   -0.9333   -1.4916 C   0  0  0  0  0  0  0  0  0  0  0  0
   -2.1875   -1.6490   -2.4395 O   0  0  0  0  0  0  0  0  0  0  0  0
   -3.4713    0.1545   -1.6722 C   0  0  0  0  0  0  0  0  0  0  0  0
   -4.3044    0.5573   -0.7039 C   0  0  0  0  0  0  0  0  0  0  0  0
   -5.2779    1.6123   -0.9973 C   0  0  0  0  0  0  0  0  0  0  0  0
   -5.4307    2.2088   -2.0442 O   0  0  0  0  0  0  0  0  0  0  0  0
   -6.0201    1.8649    0.0913 O   0  0  0  0  0  0  0  0  0  0  0  0
    1.0877   -0.7510    1.1903 C   0  0  0  0  0  0  0  0  0  0  0  0
    2.3014   -0.0515    1.1627 C   0  0  0  0  0  0  0  0  0  0  0  0
    2.9507    0.4170    2.2788 O   0  0  0  0  0  0  0  0  0  0  0  0
    2.4249    0.0608    3.5484 C   0  0  0  0  0  0  0  0  0  0  0  0
    5.6829    1.7437   -1.0092 H   0  0  0  0  0  0  0  0  0  0  0  0
    5.0504    0.2730   -1.7570 H   0  0  0  0  0  0  0  0  0  0  0  0
    4.1495    1.8350   -1.8825 H   0  0  0  0  0  0  0  0  0  0  0  0
    2.7635   -0.0292   -2.2291 H   0  0  0  0  0  0  0  0  0  0  0  0
    0.6557   -1.2448   -2.1524 H   0  0  0  0  0  0  0  0  0  0  0  0
   -1.0103   -2.3550    1.0193 H   0  0  0  0  0  0  0  0  0  0  0  0
   -0.8218   -2.7539   -0.6881 H   0  0  0  0  0  0  0  0  0  0  0  0
   -2.0558   -0.2560    0.4061 H   0  0  0  0  0  0  0  0  0  0  0  0
   -3.5240    0.5546   -2.6808 H   0  0  0  0  0  0  0  0  0  0  0  0
   -4.3194    0.1299    0.2898 H   0  0  0  0  0  0  0  0  0  0  0  0
   -6.6350    2.5708   -0.2007 H   0  0  0  0  0  0  0  0  0  0  0  0
    0.5866   -0.9596    2.1297 H   0  0  0  0  0  0  0  0  0  0  0  0
    2.3903   -1.0265    3.6737 H   0  0  0  0  0  0  0  0  0  0  0  0
    3.0968    0.4617    4.3134 H   0  0  0  0  0  0  0  0  0  0  0  0
    1.4386    0.5095    3.7052 H   0  0  0  0  0  0  0  0  0  0  0  0
  1  2  1  0
  2  3  1  0
  3  4  2  0
  4  5  1  0
  5  6  2  0
  6  7  1  0
  7  8  1  0
  8  9  1  0
  9 10  2  0
  9 11  1  0
 11 12  2  3
 12 13  1  0
 13 14  2  0
 13 15  1  0
  6 16  1  0
 16 17  2  0
 17 18  1  0
 18 19  1  0
 17  3  1  0
  1 20  1  0
  1 21  1  0
  1 22  1  0
  4 23  1  0
  5 24  1  0
  7 25  1  0
  7 26  1  0
  8 27  1  0
 11 28  1  0
 12 29  1  0
 15 30  1  0
 16 31  1  0
 19 32  1  0
 19 33  1  0
 19 34  1  0
M  END
$$$$
