
     RDKit          3D

 47 48  0  0  0  0  0  0  0  0999 V2000
    5.4281   -1.5087    2.8938 C   0  0  0  0  0  0  0  0  0  0  0  0
    5.7943   -1.6295    1.4307 C   0  0  0  0  0  0  0  0  0  0  0  0
    5.1554   -0.5935    0.6638 O   0  0  0  0  0  0  0  0  0  0  0  0
    3.8793   -0.8436    0.2520 C   0  0  0  0  0  0  0  0  0  0  0  0
    3.2676   -1.8708    0.5200 O   0  0  0  0  0  0  0  0  0  0  0  0
    3.2963    0.2374   -0.5475 C   0  0  0  0  0  0  0  0  0  0  0  0
    3.9194    1.4271   -0.9290 C   0  0  0  0  0  0  0  0  0  0  0  0
    5.2699    1.9765   -0.6329 C   0  0  0  0  0  0  0  0  0  0  0  0
    3.0535    2.1278   -1.7290 N   0  0  0  0  0  0  0  0  0  0  0  0
    1.8814    1.4393   -1.8730 C   0  0  0  0  0  0  0  0  0  0  0  0
    0.7580    1.9871   -2.6831 C   0  0  0  0  0  0  0  0  0  0  0  0
    1.9751    0.2667   -1.1307 C   0  0  0  0  0  0  0  0  0  0  0  0
    0.8787   -0.7076   -1.0301 C   0  0  0  0  0  0  0  0  0  0  0  0
    0.2563   -1.0645   -2.0361 O   0  0  0  0  0  0  0  0  0  0  0  0
    0.4682   -1.2112    0.3562 C   0  0  0  0  0  0  0  0  0  0  0  0
   -0.9453   -1.4100    0.4953 O   0  0  0  0  0  0  0  0  0  0  0  0
   -1.6804   -0.2767    0.3951 C   0  0  0  0  0  0  0  0  0  0  0  0
   -1.2511    0.8586    0.2884 O   0  0  0  0  0  0  0  0  0  0  0  0
   -3.1046   -0.6549    0.4439 C   0  0  0  0  0  0  0  0  0  0  0  0
   -4.0516    0.2814    0.2842 C   0  0  0  0  0  0  0  0  0  0  0  0
   -5.4905   -0.0006    0.2836 C   0  0  0  0  0  0  0  0  0  0  0  0
   -6.0669   -0.9720    1.1153 C   0  0  0  0  0  0  0  0  0  0  0  0
   -7.4462   -1.2022    1.0893 C   0  0  0  0  0  0  0  0  0  0  0  0
   -8.2594   -0.4521    0.2405 C   0  0  0  0  0  0  0  0  0  0  0  0
   -9.9559   -0.7441    0.1989 Cl  0  0  0  0  0  0  0  0  0  0  0  0
   -7.7052    0.5315   -0.5765 C   0  0  0  0  0  0  0  0  0  0  0  0
   -6.3238    0.7581   -0.5510 C   0  0  0  0  0  0  0  0  0  0  0  0
    4.3624   -1.6850    3.0367 H   0  0  0  0  0  0  0  0  0  0  0  0
    5.9857   -2.2371    3.4910 H   0  0  0  0  0  0  0  0  0  0  0  0
    5.6362   -0.4982    3.2660 H   0  0  0  0  0  0  0  0  0  0  0  0
    6.8766   -1.4935    1.3164 H   0  0  0  0  0  0  0  0  0  0  0  0
    5.5516   -2.6229    1.0352 H   0  0  0  0  0  0  0  0  0  0  0  0
    5.4630    1.9629    0.4446 H   0  0  0  0  0  0  0  0  0  0  0  0
    5.3688    3.0153   -0.9663 H   0  0  0  0  0  0  0  0  0  0  0  0
    6.0393    1.3867   -1.1392 H   0  0  0  0  0  0  0  0  0  0  0  0
    3.2511    3.0264   -2.1544 H   0  0  0  0  0  0  0  0  0  0  0  0
    0.3768    1.2349   -3.3827 H   0  0  0  0  0  0  0  0  0  0  0  0
    1.0762    2.8531   -3.2734 H   0  0  0  0  0  0  0  0  0  0  0  0
   -0.0631    2.3028   -2.0291 H   0  0  0  0  0  0  0  0  0  0  0  0
    0.8251   -0.5418    1.1478 H   0  0  0  0  0  0  0  0  0  0  0  0
    0.9233   -2.1961    0.5000 H   0  0  0  0  0  0  0  0  0  0  0  0
   -3.3276   -1.7006    0.5907 H   0  0  0  0  0  0  0  0  0  0  0  0
   -3.7687    1.3169    0.1053 H   0  0  0  0  0  0  0  0  0  0  0  0
   -5.4546   -1.5574    1.7982 H   0  0  0  0  0  0  0  0  0  0  0  0
   -7.8787   -1.9654    1.7343 H   0  0  0  0  0  0  0  0  0  0  0  0
   -8.3376    1.1214   -1.2375 H   0  0  0  0  0  0  0  0  0  0  0  0
   -5.9064    1.5279   -1.1986 H   0  0  0  0  0  0  0  0  0  0  0  0
  1  2  1  0
  2  3  1  0
  3  4  1  0
  4  5  2  0
  4  6  1  0
  6  7  2  0
  7  8  1  0
  7  9  1  0
  9 10  1  0
 10 11  1  0
 10 12  2  0
 12 13  1  0
 13 14  2  0
 13 15  1  0
 15 16  1  0
 16 17  1  0
 17 18  2  0
 17 19  1  0
 19 20  2  3
 20 21  1  0
 21 22  2  0
 22 23  1  0
 23 24  2  0
 24 25  1  0
 24 26  1  0
 26 27  2  0
 12  6  1  0
 27 21  1  0
  1 28  1  0
  1 29  1  0
  1 30  1  0
  2 31  1  0
  2 32  1  0
  8 33  1  0
  8 34  1  0
  8 35  1  0
  9 36  1  0
 11 37  1  0
 11 38  1  0
 11 39  1  0
 15 40  1  0
 15 41  1  0
 19 42  1  0
 20 43  1  0
 22 44  1  0
 23 45  1  0
 26 46  1  0
 27 47  1  0
M  END
$$$$
