
     RDKit          3D

 58 62  0  0  0  0  0  0  0  0999 V2000
   -2.1757    3.0322    1.7787 O   0  0  0  0  0  0  0  0  0  0  0  0
   -2.9520    2.2001    0.9986 C   0  0  0  0  0  0  0  0  0  0  0  0
   -2.4960    0.9091    0.7022 C   0  0  0  0  0  0  0  0  0  0  0  0
   -1.1329    0.4094    1.1890 C   0  0  0  0  0  0  0  0  0  0  0  0
   -1.2243   -0.9796    1.8652 C   0  0  0  0  0  0  0  0  0  0  0  0
   -1.4886   -1.0468    3.2367 C   0  0  0  0  0  0  0  0  0  0  0  0
   -1.6000   -2.2917    3.8506 C   0  0  0  0  0  0  0  0  0  0  0  0
   -1.4527   -3.4418    3.0879 C   0  0  0  0  0  0  0  0  0  0  0  0
   -1.2054   -3.2988    1.7350 C   0  0  0  0  0  0  0  0  0  0  0  0
   -1.0976   -2.1054    1.1115 N   0  0  0  0  0  0  0  0  0  0  0  0
   -0.0444    0.6013    0.1901 N   0  0  0  0  0  0  0  0  0  0  0  0
   -0.2326   -0.0311   -1.1142 C   0  0  0  0  0  0  0  0  0  0  0  0
    1.0194    0.1207   -1.9794 C   0  0  0  0  0  0  0  0  0  0  0  0
    2.2323   -0.6060   -1.3693 C   0  0  0  0  0  0  0  0  0  0  0  0
    3.5301    0.1040   -1.8085 C   0  0  0  0  0  0  0  0  0  0  0  0
    4.7947   -0.6644   -1.5019 C   0  0  0  0  0  0  0  0  0  0  0  0
    5.7150   -0.1748   -0.5650 C   0  0  0  0  0  0  0  0  0  0  0  0
    6.8848   -0.8825   -0.2832 C   0  0  0  0  0  0  0  0  0  0  0  0
    7.1486   -2.0842   -0.9372 C   0  0  0  0  0  0  0  0  0  0  0  0
    6.2442   -2.5780   -1.8749 C   0  0  0  0  0  0  0  0  0  0  0  0
    5.0741   -1.8712   -2.1579 C   0  0  0  0  0  0  0  0  0  0  0  0
    2.0941   -0.7208    0.1594 C   0  0  0  0  0  0  0  0  0  0  0  0
    1.2986    0.4383    0.7591 C   0  0  0  0  0  0  0  0  0  0  0  0
   -3.3382    0.0979   -0.0719 C   0  0  0  0  0  0  0  0  0  0  0  0
   -4.5714    0.5721   -0.5299 C   0  0  0  0  0  0  0  0  0  0  0  0
   -5.5290   -0.5125   -1.4832 Cl  0  0  0  0  0  0  0  0  0  0  0  0
   -5.0105    1.8825   -0.2257 C   0  0  0  0  0  0  0  0  0  0  0  0
   -6.2368    2.4446   -0.6460 C   0  0  0  0  0  0  0  0  0  0  0  0
   -6.5787    3.7448   -0.2911 C   0  0  0  0  0  0  0  0  0  0  0  0
   -5.6863    4.4597    0.4802 C   0  0  0  0  0  0  0  0  0  0  0  0
   -4.5037    3.9680    0.9078 N   0  0  0  0  0  0  0  0  0  0  0  0
   -4.1770    2.7044    0.5559 C   0  0  0  0  0  0  0  0  0  0  0  0
   -2.6836    3.8727    1.8073 H   0  0  0  0  0  0  0  0  0  0  0  0
   -0.8524    1.0810    2.0124 H   0  0  0  0  0  0  0  0  0  0  0  0
   -1.6094   -0.1409    3.8236 H   0  0  0  0  0  0  0  0  0  0  0  0
   -1.8014   -2.3608    4.9157 H   0  0  0  0  0  0  0  0  0  0  0  0
   -1.5315   -4.4258    3.5356 H   0  0  0  0  0  0  0  0  0  0  0  0
   -1.0842   -4.1669    1.0938 H   0  0  0  0  0  0  0  0  0  0  0  0
   -0.4741   -1.0953   -1.0384 H   0  0  0  0  0  0  0  0  0  0  0  0
   -1.0567    0.4551   -1.6470 H   0  0  0  0  0  0  0  0  0  0  0  0
    0.8267   -0.2763   -2.9837 H   0  0  0  0  0  0  0  0  0  0  0  0
    1.2331    1.1903   -2.1102 H   0  0  0  0  0  0  0  0  0  0  0  0
    2.2429   -1.6294   -1.7676 H   0  0  0  0  0  0  0  0  0  0  0  0
    3.5070    0.2767   -2.8930 H   0  0  0  0  0  0  0  0  0  0  0  0
    3.5794    1.1001   -1.3499 H   0  0  0  0  0  0  0  0  0  0  0  0
    5.5246    0.7612   -0.0450 H   0  0  0  0  0  0  0  0  0  0  0  0
    7.5902   -0.4949    0.4470 H   0  0  0  0  0  0  0  0  0  0  0  0
    8.0593   -2.6346   -0.7173 H   0  0  0  0  0  0  0  0  0  0  0  0
    6.4495   -3.5136   -2.3878 H   0  0  0  0  0  0  0  0  0  0  0  0
    4.3805   -2.2674   -2.8960 H   0  0  0  0  0  0  0  0  0  0  0  0
    1.5822   -1.6621    0.3965 H   0  0  0  0  0  0  0  0  0  0  0  0
    3.0711   -0.7878    0.6489 H   0  0  0  0  0  0  0  0  0  0  0  0
    1.8482    1.3703    0.5764 H   0  0  0  0  0  0  0  0  0  0  0  0
    1.2770    0.3267    1.8499 H   0  0  0  0  0  0  0  0  0  0  0  0
   -3.0265   -0.9137   -0.3289 H   0  0  0  0  0  0  0  0  0  0  0  0
   -6.9339    1.8721   -1.2536 H   0  0  0  0  0  0  0  0  0  0  0  0
   -7.5170    4.1845   -0.6101 H   0  0  0  0  0  0  0  0  0  0  0  0
   -5.9032    5.4797    0.7858 H   0  0  0  0  0  0  0  0  0  0  0  0
  1  2  1  0
  2  3  2  0
  3  4  1  0
  4  5  1  0
  5  6  2  0
  6  7  1  0
  7  8  2  0
  8  9  1  0
  9 10  2  0
  4 11  1  0
 11 12  1  0
 12 13  1  0
 13 14  1  0
 14 15  1  0
 15 16  1  0
 16 17  2  0
 17 18  1  0
 18 19  2  0
 19 20  1  0
 20 21  2  0
 14 22  1  0
 22 23  1  0
  3 24  1  0
 24 25  2  0
 25 26  1  0
 25 27  1  0
 27 28  2  0
 28 29  1  0
 29 30  2  0
 30 31  1  0
 31 32  2  0
 32  2  1  0
 10  5  1  0
 23 11  1  0
 32 27  1  0
 21 16  1  0
  1 33  1  0
  4 34  1  0
  6 35  1  0
  7 36  1  0
  8 37  1  0
  9 38  1  0
 12 39  1  0
 12 40  1  0
 13 41  1  0
 13 42  1  0
 14 43  1  0
 15 44  1  0
 15 45  1  0
 17 46  1  0
 18 47  1  0
 19 48  1  0
 20 49  1  0
 21 50  1  0
 22 51  1  0
 22 52  1  0
 23 53  1  0
 23 54  1  0
 24 55  1  0
 28 56  1  0
 29 57  1  0
 30 58  1  0
M  END
$$$$
