
     RDKit          3D

 46 48  0  0  0  0  0  0  0  0999 V2000
   -2.5695    3.2174   -1.3018 C   0  0  0  0  0  0  0  0  0  0  0  0
   -2.9288    1.8263   -1.6586 C   0  0  0  0  0  0  0  0  0  0  0  0
   -3.1491    1.5893   -2.9822 O   0  0  0  0  0  0  0  0  0  0  0  0
   -3.4704    0.2797   -3.1055 C   0  0  0  0  0  0  0  0  0  0  0  0
   -3.4609   -0.3328   -1.8748 C   0  0  0  0  0  0  0  0  0  0  0  0
   -3.1019    0.6661   -0.9164 C   0  0  0  0  0  0  0  0  0  0  0  0
   -2.9320    0.5801    0.5304 C   0  0  0  0  0  0  0  0  0  0  0  0
   -2.6269    1.5538    1.2129 O   0  0  0  0  0  0  0  0  0  0  0  0
   -3.1150   -0.6766    1.0655 N   0  0  0  0  0  0  0  0  0  0  0  0
   -2.7830   -0.9657    2.4433 C   0  0  0  0  0  0  0  0  0  0  0  0
   -1.3559   -1.4389    2.5484 C   0  0  0  0  0  0  0  0  0  0  0  0
   -1.0443   -2.8043    2.5300 C   0  0  0  0  0  0  0  0  0  0  0  0
    0.2868   -3.2234    2.5410 C   0  0  0  0  0  0  0  0  0  0  0  0
    1.3190   -2.2846    2.5556 C   0  0  0  0  0  0  0  0  0  0  0  0
    1.0302   -0.9155    2.5806 C   0  0  0  0  0  0  0  0  0  0  0  0
    2.1346    0.1086    2.5175 C   0  0  0  0  0  0  0  0  0  0  0  0
    2.2205    0.6596    1.1844 N   0  0  0  0  0  0  0  0  0  0  0  0
    3.0791    0.1315    0.2451 C   0  0  0  0  0  0  0  0  0  0  0  0
    3.9556   -0.6798    0.5289 O   0  0  0  0  0  0  0  0  0  0  0  0
    2.8589    0.6026   -1.1192 C   0  0  0  0  0  0  0  0  0  0  0  0
    1.8963    1.5217   -1.6442 C   0  0  0  0  0  0  0  0  0  0  0  0
    2.1199    1.6037   -2.9984 C   0  0  0  0  0  0  0  0  0  0  0  0
    3.1543    0.8046   -3.3552 O   0  0  0  0  0  0  0  0  0  0  0  0
    3.6018    0.1974   -2.2203 C   0  0  0  0  0  0  0  0  0  0  0  0
    4.7407   -0.7328   -2.3907 C   0  0  0  0  0  0  0  0  0  0  0  0
   -0.3107   -0.5038    2.5839 C   0  0  0  0  0  0  0  0  0  0  0  0
   -3.3006    3.6336   -0.6018 H   0  0  0  0  0  0  0  0  0  0  0  0
   -1.5792    3.2493   -0.8357 H   0  0  0  0  0  0  0  0  0  0  0  0
   -2.5457    3.8599   -2.1885 H   0  0  0  0  0  0  0  0  0  0  0  0
   -3.6753   -0.0596   -4.1119 H   0  0  0  0  0  0  0  0  0  0  0  0
   -3.6863   -1.3755   -1.7041 H   0  0  0  0  0  0  0  0  0  0  0  0
   -3.1852   -1.4643    0.4406 H   0  0  0  0  0  0  0  0  0  0  0  0
   -2.9418   -0.0828    3.0725 H   0  0  0  0  0  0  0  0  0  0  0  0
   -3.4718   -1.7433    2.7911 H   0  0  0  0  0  0  0  0  0  0  0  0
   -1.8341   -3.5510    2.4941 H   0  0  0  0  0  0  0  0  0  0  0  0
    0.5236   -4.2847    2.5163 H   0  0  0  0  0  0  0  0  0  0  0  0
    2.3526   -2.6257    2.5259 H   0  0  0  0  0  0  0  0  0  0  0  0
    3.0938   -0.3263    2.8206 H   0  0  0  0  0  0  0  0  0  0  0  0
    1.9167    0.9338    3.2047 H   0  0  0  0  0  0  0  0  0  0  0  0
    1.4327    1.2036    0.8690 H   0  0  0  0  0  0  0  0  0  0  0  0
    1.1259    2.0624   -1.1130 H   0  0  0  0  0  0  0  0  0  0  0  0
    1.6544    2.1554   -3.8043 H   0  0  0  0  0  0  0  0  0  0  0  0
    5.6127   -0.3760   -1.8323 H   0  0  0  0  0  0  0  0  0  0  0  0
    5.0271   -0.8225   -3.4448 H   0  0  0  0  0  0  0  0  0  0  0  0
    4.4782   -1.7315   -2.0276 H   0  0  0  0  0  0  0  0  0  0  0  0
   -0.5471    0.5609    2.5826 H   0  0  0  0  0  0  0  0  0  0  0  0
  1  2  1  0
  2  3  1  0
  3  4  1  0
  4  5  2  0
  5  6  1  0
  6  7  1  0
  7  8  2  0
  7  9  1  0
  9 10  1  0
 10 11  1  0
 11 12  2  0
 12 13  1  0
 13 14  2  0
 14 15  1  0
 15 16  1  0
 16 17  1  0
 17 18  1  0
 18 19  2  0
 18 20  1  0
 20 21  1  0
 21 22  2  0
 22 23  1  0
 23 24  1  0
 24 25  1  0
 15 26  2  0
  6  2  2  0
 26 11  1  0
 24 20  2  0
  1 27  1  0
  1 28  1  0
  1 29  1  0
  4 30  1  0
  5 31  1  0
  9 32  1  0
 10 33  1  0
 10 34  1  0
 12 35  1  0
 13 36  1  0
 14 37  1  0
 16 38  1  0
 16 39  1  0
 17 40  1  0
 21 41  1  0
 22 42  1  0
 25 43  1  0
 25 44  1  0
 25 45  1  0
 26 46  1  0
M  END
$$$$
