
     RDKit          3D

 36 37  0  0  0  0  0  0  0  0999 V2000
   -4.2381   -0.5753    1.1968 C   0  0  0  0  0  0  0  0  0  0  0  0
   -2.9316   -0.1376    0.5380 C   0  0  0  0  0  0  0  0  0  0  0  0
   -2.8339   -0.6931   -0.8886 C   0  0  0  0  0  0  0  0  0  0  0  0
   -1.5072   -0.2887   -1.5437 C   0  0  0  0  0  0  0  0  0  0  0  0
   -1.3798   -0.9183   -2.9303 C   0  0  0  0  0  0  0  0  0  0  0  0
   -0.3127   -0.6813   -0.6660 C   0  0  0  0  0  0  0  0  0  0  0  0
   -0.4530   -0.1941    0.7290 N   0  0  0  0  0  0  0  0  0  0  0  0
    0.0981    1.3781    1.0776 S   0  0  0  0  0  6  0  0  0  0  0  0
   -0.1058    1.6306    2.4875 O   0  0  0  0  0  0  0  0  0  0  0  0
   -0.3972    2.2728    0.0558 O   0  0  0  0  0  0  0  0  0  0  0  0
    1.8684    1.3504    0.8985 C   0  0  0  0  0  0  0  0  0  0  0  0
    2.7875    0.3196    0.9032 C   0  0  0  0  0  0  0  0  0  0  0  0
    4.1513    0.7633    0.7382 C   0  0  0  0  0  0  0  0  0  0  0  0
    5.2798   -0.1521    0.7040 C   0  0  0  0  0  0  0  0  0  0  0  0
    5.1780   -1.3690    0.7772 O   0  0  0  0  0  0  0  0  0  0  0  0
    6.5001    0.4049    0.5832 O   0  0  0  0  0  0  0  0  0  0  0  0
    4.1726    2.1380    0.6284 C   0  0  0  0  0  0  0  0  0  0  0  0
    5.5123    3.2019    0.4116 Cl  0  0  0  0  0  0  0  0  0  0  0  0
    2.6378    2.8622    0.7247 S   0  0  0  0  0  0  0  0  0  0  0  0
   -1.7299   -0.6015    1.3637 C   0  0  0  0  0  0  0  0  0  0  0  0
   -4.3264   -0.1500    2.2019 H   0  0  0  0  0  0  0  0  0  0  0  0
   -5.1000   -0.2362    0.6127 H   0  0  0  0  0  0  0  0  0  0  0  0
   -4.2961   -1.6657    1.2842 H   0  0  0  0  0  0  0  0  0  0  0  0
   -2.9309    0.9586    0.4857 H   0  0  0  0  0  0  0  0  0  0  0  0
   -3.6716   -0.3201   -1.4909 H   0  0  0  0  0  0  0  0  0  0  0  0
   -2.9209   -1.7875   -0.8681 H   0  0  0  0  0  0  0  0  0  0  0  0
   -1.5136    0.7993   -1.6773 H   0  0  0  0  0  0  0  0  0  0  0  0
   -0.4524   -0.5987   -3.4172 H   0  0  0  0  0  0  0  0  0  0  0  0
   -2.2154   -0.6185   -3.5713 H   0  0  0  0  0  0  0  0  0  0  0  0
   -1.3730   -2.0119   -2.8727 H   0  0  0  0  0  0  0  0  0  0  0  0
    0.6188   -0.3101   -1.1071 H   0  0  0  0  0  0  0  0  0  0  0  0
   -0.2106   -1.7736   -0.6260 H   0  0  0  0  0  0  0  0  0  0  0  0
    2.5005   -0.7201    1.0236 H   0  0  0  0  0  0  0  0  0  0  0  0
    7.1109   -0.3601    0.5876 H   0  0  0  0  0  0  0  0  0  0  0  0
   -1.7258   -1.6955    1.4560 H   0  0  0  0  0  0  0  0  0  0  0  0
   -1.7903   -0.2206    2.3886 H   0  0  0  0  0  0  0  0  0  0  0  0
  1  2  1  0
  2  3  1  0
  3  4  1  0
  4  5  1  0
  4  6  1  0
  6  7  1  0
  7  8  1  0
  8  9  2  0
  8 10  2  0
  8 11  1  0
 11 12  2  0
 12 13  1  0
 13 14  1  0
 14 15  2  0
 14 16  1  0
 13 17  2  0
 17 18  1  0
 17 19  1  0
  7 20  1  0
 20  2  1  0
 19 11  1  0
  1 21  1  0
  1 22  1  0
  1 23  1  0
  2 24  1  0
  3 25  1  0
  3 26  1  0
  4 27  1  0
  5 28  1  0
  5 29  1  0
  5 30  1  0
  6 31  1  0
  6 32  1  0
 12 33  1  0
 16 34  1  0
 20 35  1  0
 20 36  1  0
M  END
$$$$
