
     RDKit          3D

 73 75  0  0  0  0  0  0  0  0999 V2000
    8.8727    2.1999    1.6953 C   0  0  0  0  0  0  0  0  0  0  0  0
    8.7764    0.6905    1.8481 C   0  0  0  0  0  0  0  0  0  0  0  0
    8.2538   -0.0176    0.5959 C   0  0  0  0  0  0  0  0  0  0  0  0
    6.8350    0.3637    0.1552 C   0  0  0  0  0  0  0  0  0  0  0  0
    5.7634    0.0022    1.1868 C   0  0  0  0  0  0  0  0  0  0  0  0
    4.3342    0.3026    0.7187 C   0  0  0  0  0  0  0  0  0  0  0  0
    3.8912   -0.5601   -0.4657 C   0  0  0  0  0  0  0  0  0  0  0  0
    2.3981   -0.3854   -0.7643 C   0  0  0  0  0  0  0  0  0  0  0  0
    1.9832   -1.2252   -1.9755 C   0  0  0  0  0  0  0  0  0  0  0  0
    0.4687   -1.2679   -2.2130 C   0  0  0  0  0  0  0  0  0  0  0  0
   -0.1274    0.1102   -2.5040 C   0  0  0  0  0  0  0  0  0  0  0  0
   -1.6156    0.0655   -2.9147 N   0  0  0  0  0  4  0  0  0  0  0  0
   -1.7656   -0.6149   -4.2831 C   0  0  0  0  0  0  0  0  0  0  0  0
   -2.1026    1.5116   -3.0828 C   0  0  0  0  0  0  0  0  0  0  0  0
   -2.5194   -0.6858   -1.9110 C   0  0  0  0  0  0  0  0  0  0  0  0
   -2.4714   -0.1279   -0.4828 C   0  0  0  0  0  0  0  0  0  0  0  0
   -3.3711   -0.9101    0.4410 C   0  0  0  0  0  0  0  0  0  0  0  0
   -4.5052   -0.5083    1.0593 C   0  0  0  0  0  0  0  0  0  0  0  0
   -5.0852    0.8491    0.8806 C   0  0  0  0  0  0  0  0  0  0  0  0
   -5.3809    1.3729   -0.3875 C   0  0  0  0  0  0  0  0  0  0  0  0
   -5.9446    2.6443   -0.5175 C   0  0  0  0  0  0  0  0  0  0  0  0
   -6.2439    3.3944    0.6187 C   0  0  0  0  0  0  0  0  0  0  0  0
   -5.9953    2.8683    1.8869 C   0  0  0  0  0  0  0  0  0  0  0  0
   -5.4364    1.5915    2.0264 C   0  0  0  0  0  0  0  0  0  0  0  0
   -5.2243    0.9286    3.6791 S   0  0  0  0  0  0  0  0  0  0  0  0
   -5.4209   -0.8264    3.3575 C   0  0  0  0  0  0  0  0  0  0  0  0
   -5.9430   -1.6353    4.3741 C   0  0  0  0  0  0  0  0  0  0  0  0
   -6.1344   -3.0008    4.1592 C   0  0  0  0  0  0  0  0  0  0  0  0
   -5.8038   -3.5595    2.9274 C   0  0  0  0  0  0  0  0  0  0  0  0
   -6.0488   -5.2402    2.6552 Cl  0  0  0  0  0  0  0  0  0  0  0  0
   -5.2750   -2.7690    1.9071 C   0  0  0  0  0  0  0  0  0  0  0  0
   -5.0640   -1.3975    2.1179 C   0  0  0  0  0  0  0  0  0  0  0  0
    9.3584    2.6392    2.5730 H   0  0  0  0  0  0  0  0  0  0  0  0
    7.8840    2.6573    1.5992 H   0  0  0  0  0  0  0  0  0  0  0  0
    9.4668    2.4672    0.8152 H   0  0  0  0  0  0  0  0  0  0  0  0
    8.1540    0.4468    2.7171 H   0  0  0  0  0  0  0  0  0  0  0  0
    9.7783    0.3014    2.0683 H   0  0  0  0  0  0  0  0  0  0  0  0
    8.9407    0.1847   -0.2368 H   0  0  0  0  0  0  0  0  0  0  0  0
    8.2916   -1.1013    0.7690 H   0  0  0  0  0  0  0  0  0  0  0  0
    6.6345   -0.1643   -0.7830 H   0  0  0  0  0  0  0  0  0  0  0  0
    6.7826    1.4336   -0.0758 H   0  0  0  0  0  0  0  0  0  0  0  0
    5.9375    0.5700    2.1074 H   0  0  0  0  0  0  0  0  0  0  0  0
    5.8447   -1.0602    1.4484 H   0  0  0  0  0  0  0  0  0  0  0  0
    4.2449    1.3645    0.4586 H   0  0  0  0  0  0  0  0  0  0  0  0
    3.6567    0.1270    1.5638 H   0  0  0  0  0  0  0  0  0  0  0  0
    4.4665   -0.2948   -1.3589 H   0  0  0  0  0  0  0  0  0  0  0  0
    4.0967   -1.6154   -0.2482 H   0  0  0  0  0  0  0  0  0  0  0  0
    2.1894    0.6749   -0.9525 H   0  0  0  0  0  0  0  0  0  0  0  0
    1.8109   -0.6832    0.1140 H   0  0  0  0  0  0  0  0  0  0  0  0
    2.3319   -2.2569   -1.8357 H   0  0  0  0  0  0  0  0  0  0  0  0
    2.4830   -0.8443   -2.8753 H   0  0  0  0  0  0  0  0  0  0  0  0
   -0.0074   -1.7152   -1.3347 H   0  0  0  0  0  0  0  0  0  0  0  0
    0.2937   -1.9478   -3.0515 H   0  0  0  0  0  0  0  0  0  0  0  0
    0.4102    0.5975   -3.3272 H   0  0  0  0  0  0  0  0  0  0  0  0
   -0.0602    0.7599   -1.6247 H   0  0  0  0  0  0  0  0  0  0  0  0
   -2.8045   -0.5057   -4.6080 H   0  0  0  0  0  0  0  0  0  0  0  0
   -1.5196   -1.6740   -4.1832 H   0  0  0  0  0  0  0  0  0  0  0  0
   -1.0919   -0.1251   -4.9916 H   0  0  0  0  0  0  0  0  0  0  0  0
   -3.1708    1.4934   -3.3153 H   0  0  0  0  0  0  0  0  0  0  0  0
   -1.9159    2.0616   -2.1582 H   0  0  0  0  0  0  0  0  0  0  0  0
   -1.5414    1.9687   -3.9031 H   0  0  0  0  0  0  0  0  0  0  0  0
   -2.2170   -1.7400   -1.9288 H   0  0  0  0  0  0  0  0  0  0  0  0
   -3.5389   -0.6316   -2.3115 H   0  0  0  0  0  0  0  0  0  0  0  0
   -2.7149    0.9355   -0.4652 H   0  0  0  0  0  0  0  0  0  0  0  0
   -1.4558   -0.2068   -0.0800 H   0  0  0  0  0  0  0  0  0  0  0  0
   -2.9690   -1.8921    0.6930 H   0  0  0  0  0  0  0  0  0  0  0  0
   -5.2055    0.7850   -1.2829 H   0  0  0  0  0  0  0  0  0  0  0  0
   -6.1774    3.0450   -1.5016 H   0  0  0  0  0  0  0  0  0  0  0  0
   -6.6936    4.3806    0.5200 H   0  0  0  0  0  0  0  0  0  0  0  0
   -6.2605    3.4519    2.7661 H   0  0  0  0  0  0  0  0  0  0  0  0
   -6.2203   -1.2077    5.3365 H   0  0  0  0  0  0  0  0  0  0  0  0
   -6.5479   -3.6175    4.9541 H   0  0  0  0  0  0  0  0  0  0  0  0
   -5.0421   -3.2252    0.9490 H   0  0  0  0  0  0  0  0  0  0  0  0
  1  2  1  0
  2  3  1  0
  3  4  1  0
  4  5  1  0
  5  6  1  0
  6  7  1  0
  7  8  1  0
  8  9  1  0
  9 10  1  0
 10 11  1  0
 11 12  1  0
 12 13  1  0
 12 14  1  0
 12 15  1  0
 15 16  1  0
 16 17  1  0
 17 18  2  3
 18 19  1  0
 19 20  2  0
 20 21  1  0
 21 22  2  0
 22 23  1  0
 23 24  2  0
 24 25  1  0
 25 26  1  0
 26 27  2  0
 27 28  1  0
 28 29  2  0
 29 30  1  0
 29 31  1  0
 31 32  2  0
 32 18  1  0
 24 19  1  0
 32 26  1  0
  1 33  1  0
  1 34  1  0
  1 35  1  0
  2 36  1  0
  2 37  1  0
  3 38  1  0
  3 39  1  0
  4 40  1  0
  4 41  1  0
  5 42  1  0
  5 43  1  0
  6 44  1  0
  6 45  1  0
  7 46  1  0
  7 47  1  0
  8 48  1  0
  8 49  1  0
  9 50  1  0
  9 51  1  0
 10 52  1  0
 10 53  1  0
 11 54  1  0
 11 55  1  0
 13 56  1  0
 13 57  1  0
 13 58  1  0
 14 59  1  0
 14 60  1  0
 14 61  1  0
 15 62  1  0
 15 63  1  0
 16 64  1  0
 16 65  1  0
 17 66  1  0
 20 67  1  0
 21 68  1  0
 22 69  1  0
 23 70  1  0
 27 71  1  0
 28 72  1  0
 31 73  1  0
M  CHG  1  12   1
M  END
$$$$
