
     RDKit          3D

 55 58  0  0  0  0  0  0  0  0999 V2000
   -8.9920    0.5375   -0.9422 C   0  0  0  0  0  0  0  0  0  0  0  0
   -8.7919   -0.3420    0.2868 C   0  0  0  0  0  0  0  0  0  0  0  0
   -9.4231   -1.7130    0.0776 C   0  0  0  0  0  0  0  0  0  0  0  0
   -7.3841   -0.5526    0.5041 O   0  0  0  0  0  0  0  0  0  0  0  0
   -6.7361    0.4154    1.1988 C   0  0  0  0  0  0  0  0  0  0  0  0
   -7.2373    1.4332    1.6492 O   0  0  0  0  0  0  0  0  0  0  0  0
   -5.2948    0.0749    1.3484 C   0  0  0  0  0  0  0  0  0  0  0  0
   -4.7367   -1.0918    0.8102 C   0  0  0  0  0  0  0  0  0  0  0  0
   -3.3751   -1.3626    0.9776 C   0  0  0  0  0  0  0  0  0  0  0  0
   -2.5545   -0.4780    1.6910 C   0  0  0  0  0  0  0  0  0  0  0  0
   -1.0817   -0.7589    1.8476 C   0  0  0  0  0  0  0  0  0  0  0  0
   -0.4073   -0.1486    0.7454 O   0  0  0  0  0  0  0  0  0  0  0  0
    0.9313   -0.3454    0.7470 C   0  0  0  0  0  0  0  0  0  0  0  0
    1.5596   -0.9769    1.5816 O   0  0  0  0  0  0  0  0  0  0  0  0
    1.5605    0.3178   -0.4272 C   0  0  0  0  0  0  0  0  0  0  0  0
    0.8195    1.0580   -1.3568 C   0  0  0  0  0  0  0  0  0  0  0  0
    1.4600    1.6595   -2.4397 C   0  0  0  0  0  0  0  0  0  0  0  0
    2.8410    1.5242   -2.5985 C   0  0  0  0  0  0  0  0  0  0  0  0
    3.6040    0.7874   -1.6797 C   0  0  0  0  0  0  0  0  0  0  0  0
    5.0432    0.6640   -1.8740 C   0  0  0  0  0  0  0  0  0  0  0  0
    5.8149    1.1556   -2.8222 N   0  0  0  0  0  0  0  0  0  0  0  0
    7.0996    0.7397   -2.5366 N   0  0  0  0  0  0  0  0  0  0  0  0
    7.0256    0.0219   -1.4332 C   0  0  0  0  0  0  0  0  0  0  0  0
    8.0738   -0.6600   -0.6849 C   0  0  0  0  0  0  0  0  0  0  0  0
    9.4014   -0.5969   -1.1360 C   0  0  0  0  0  0  0  0  0  0  0  0
   10.4263   -1.2416   -0.4385 C   0  0  0  0  0  0  0  0  0  0  0  0
   10.1365   -1.9582    0.7202 C   0  0  0  0  0  0  0  0  0  0  0  0
    8.8242   -2.0311    1.1821 C   0  0  0  0  0  0  0  0  0  0  0  0
    7.7989   -1.3862    0.4843 C   0  0  0  0  0  0  0  0  0  0  0  0
    5.7442   -0.0697   -0.9530 O   0  0  0  0  0  0  0  0  0  0  0  0
    2.9485    0.1872   -0.5935 C   0  0  0  0  0  0  0  0  0  0  0  0
   -3.1137    0.6942    2.2173 C   0  0  0  0  0  0  0  0  0  0  0  0
   -4.4742    0.9666    2.0509 C   0  0  0  0  0  0  0  0  0  0  0  0
  -10.0552    0.6748   -1.1620 H   0  0  0  0  0  0  0  0  0  0  0  0
   -8.5413    1.5241   -0.7938 H   0  0  0  0  0  0  0  0  0  0  0  0
   -8.5049    0.0995   -1.8204 H   0  0  0  0  0  0  0  0  0  0  0  0
   -9.2518    0.1213    1.1682 H   0  0  0  0  0  0  0  0  0  0  0  0
  -10.5006   -1.6331   -0.0955 H   0  0  0  0  0  0  0  0  0  0  0  0
   -9.2569   -2.3460    0.9560 H   0  0  0  0  0  0  0  0  0  0  0  0
   -8.9671   -2.2310   -0.7735 H   0  0  0  0  0  0  0  0  0  0  0  0
   -5.3476   -1.7988    0.2542 H   0  0  0  0  0  0  0  0  0  0  0  0
   -2.9572   -2.2691    0.5435 H   0  0  0  0  0  0  0  0  0  0  0  0
   -0.7182   -0.3402    2.7941 H   0  0  0  0  0  0  0  0  0  0  0  0
   -0.9044   -1.8415    1.8522 H   0  0  0  0  0  0  0  0  0  0  0  0
   -0.2568    1.1760   -1.2513 H   0  0  0  0  0  0  0  0  0  0  0  0
    0.8849    2.2349   -3.1619 H   0  0  0  0  0  0  0  0  0  0  0  0
    3.3237    2.0015   -3.4514 H   0  0  0  0  0  0  0  0  0  0  0  0
    9.6465   -0.0411   -2.0401 H   0  0  0  0  0  0  0  0  0  0  0  0
   11.4495   -1.1829   -0.8012 H   0  0  0  0  0  0  0  0  0  0  0  0
   10.9336   -2.4599    1.2633 H   0  0  0  0  0  0  0  0  0  0  0  0
    8.5968   -2.5902    2.0865 H   0  0  0  0  0  0  0  0  0  0  0  0
    6.7828   -1.4590    0.8666 H   0  0  0  0  0  0  0  0  0  0  0  0
    3.5169   -0.3901    0.1351 H   0  0  0  0  0  0  0  0  0  0  0  0
   -2.4922    1.4054    2.7580 H   0  0  0  0  0  0  0  0  0  0  0  0
   -4.8909    1.8811    2.4695 H   0  0  0  0  0  0  0  0  0  0  0  0
  1  2  1  0
  2  3  1  0
  2  4  1  0
  4  5  1  0
  5  6  2  0
  5  7  1  0
  7  8  2  0
  8  9  1  0
  9 10  2  0
 10 11  1  0
 11 12  1  0
 12 13  1  0
 13 14  2  0
 13 15  1  0
 15 16  2  0
 16 17  1  0
 17 18  2  0
 18 19  1  0
 19 20  1  0
 20 21  2  0
 21 22  1  0
 22 23  2  0
 23 24  1  0
 24 25  2  0
 25 26  1  0
 26 27  2  0
 27 28  1  0
 28 29  2  0
 23 30  1  0
 19 31  2  0
 10 32  1  0
 32 33  2  0
 33  7  1  0
 31 15  1  0
 30 20  1  0
 29 24  1  0
  1 34  1  0
  1 35  1  0
  1 36  1  0
  2 37  1  0
  3 38  1  0
  3 39  1  0
  3 40  1  0
  8 41  1  0
  9 42  1  0
 11 43  1  0
 11 44  1  0
 16 45  1  0
 17 46  1  0
 18 47  1  0
 25 48  1  0
 26 49  1  0
 27 50  1  0
 28 51  1  0
 29 52  1  0
 31 53  1  0
 32 54  1  0
 33 55  1  0
M  END
$$$$
