
     RDKit          3D

 53 55  0  0  0  0  0  0  0  0999 V2000
    4.5192    1.0874   -3.0281 C   0  0  0  0  0  0  0  0  0  0  0  0
    5.3542    1.1235   -1.8095 C   0  0  0  0  0  0  0  0  0  0  0  0
    6.6718    1.4167   -2.0035 O   0  0  0  0  0  0  0  0  0  0  0  0
    7.2817    1.3339   -0.7947 C   0  0  0  0  0  0  0  0  0  0  0  0
    6.3722    0.9998    0.1789 C   0  0  0  0  0  0  0  0  0  0  0  0
    5.1050    0.9012   -0.4649 C   0  0  0  0  0  0  0  0  0  0  0  0
    3.8352    0.5412    0.1418 C   0  0  0  0  0  0  0  0  0  0  0  0
    3.7340   -0.5125    0.7674 O   0  0  0  0  0  0  0  0  0  0  0  0
    2.7599    1.4224   -0.0062 N   0  0  0  0  0  0  0  0  0  0  0  0
    2.8607    2.7810   -0.5235 C   0  0  0  0  0  0  0  0  0  0  0  0
    1.4412    0.9786    0.4558 C   0  0  0  0  0  0  0  0  0  0  0  0
    0.7551    0.0063   -0.5250 C   0  0  0  0  0  0  0  0  0  0  0  0
    0.3381    0.7293   -1.8245 C   0  0  0  0  0  0  0  0  0  0  0  0
   -0.9586    0.1576   -2.3836 C   0  0  0  0  0  0  0  0  0  0  0  0
   -2.0974    0.2667   -1.3589 C   0  0  0  0  0  0  0  0  0  0  0  0
   -1.6421    0.1333    0.0323 N   0  0  0  0  0  0  0  0  0  0  0  0
   -2.7250   -0.2351    0.9557 C   0  0  0  0  0  0  0  0  0  0  0  0
   -3.2136   -1.6944    0.8978 C   0  0  0  0  0  0  0  0  0  0  0  0
   -4.3451   -1.9383    1.8652 C   0  0  0  0  0  0  0  0  0  0  0  0
   -4.1032   -2.4764    3.1361 C   0  0  0  0  0  0  0  0  0  0  0  0
   -5.1595   -2.6818    4.0278 C   0  0  0  0  0  0  0  0  0  0  0  0
   -6.4641   -2.3486    3.6613 C   0  0  0  0  0  0  0  0  0  0  0  0
   -6.7137   -1.8071    2.4018 C   0  0  0  0  0  0  0  0  0  0  0  0
   -5.6578   -1.6051    1.5183 C   0  0  0  0  0  0  0  0  0  0  0  0
   -5.9144   -1.0755    0.3133 F   0  0  0  0  0  0  0  0  0  0  0  0
   -0.4450   -0.6951    0.1491 C   0  0  0  0  0  0  0  0  0  0  0  0
    5.0797    0.6691   -3.8702 H   0  0  0  0  0  0  0  0  0  0  0  0
    4.1966    2.0969   -3.2993 H   0  0  0  0  0  0  0  0  0  0  0  0
    3.6306    0.4673   -2.8787 H   0  0  0  0  0  0  0  0  0  0  0  0
    8.3459    1.5238   -0.7936 H   0  0  0  0  0  0  0  0  0  0  0  0
    6.5822    0.8473    1.2284 H   0  0  0  0  0  0  0  0  0  0  0  0
    2.3978    2.8200   -1.5123 H   0  0  0  0  0  0  0  0  0  0  0  0
    3.8936    3.1261   -0.5914 H   0  0  0  0  0  0  0  0  0  0  0  0
    2.3308    3.4598    0.1519 H   0  0  0  0  0  0  0  0  0  0  0  0
    1.5861    0.4816    1.4231 H   0  0  0  0  0  0  0  0  0  0  0  0
    0.8092    1.8531    0.6508 H   0  0  0  0  0  0  0  0  0  0  0  0
    1.4693   -0.7831   -0.7946 H   0  0  0  0  0  0  0  0  0  0  0  0
    0.1901    1.8011   -1.6427 H   0  0  0  0  0  0  0  0  0  0  0  0
    1.1376    0.6451   -2.5690 H   0  0  0  0  0  0  0  0  0  0  0  0
   -1.2379    0.6839   -3.3033 H   0  0  0  0  0  0  0  0  0  0  0  0
   -0.8025   -0.8945   -2.6538 H   0  0  0  0  0  0  0  0  0  0  0  0
   -2.8520   -0.4830   -1.6224 H   0  0  0  0  0  0  0  0  0  0  0  0
   -2.5771    1.2474   -1.4633 H   0  0  0  0  0  0  0  0  0  0  0  0
   -2.3812   -0.0200    1.9767 H   0  0  0  0  0  0  0  0  0  0  0  0
   -3.5694    0.4489    0.7963 H   0  0  0  0  0  0  0  0  0  0  0  0
   -2.3925   -2.3831    1.1313 H   0  0  0  0  0  0  0  0  0  0  0  0
   -3.5499   -1.9595   -0.1111 H   0  0  0  0  0  0  0  0  0  0  0  0
   -3.0920   -2.7384    3.4405 H   0  0  0  0  0  0  0  0  0  0  0  0
   -4.9635   -3.1019    5.0117 H   0  0  0  0  0  0  0  0  0  0  0  0
   -7.2834   -2.5092    4.3573 H   0  0  0  0  0  0  0  0  0  0  0  0
   -7.7219   -1.5395    2.1027 H   0  0  0  0  0  0  0  0  0  0  0  0
   -0.2075   -0.8923    1.2018 H   0  0  0  0  0  0  0  0  0  0  0  0
   -0.6076   -1.6757   -0.3179 H   0  0  0  0  0  0  0  0  0  0  0  0
  1  2  1  0
  2  3  1  0
  3  4  1  0
  4  5  2  0
  5  6  1  0
  6  7  1  0
  7  8  2  0
  7  9  1  0
  9 10  1  0
  9 11  1  0
 11 12  1  0
 12 13  1  0
 13 14  1  0
 14 15  1  0
 15 16  1  0
 16 17  1  0
 17 18  1  0
 18 19  1  0
 19 20  2  0
 20 21  1  0
 21 22  2  0
 22 23  1  0
 23 24  2  0
 24 25  1  0
 16 26  1  0
  6  2  2  0
 26 12  1  0
 24 19  1  0
  1 27  1  0
  1 28  1  0
  1 29  1  0
  4 30  1  0
  5 31  1  0
 10 32  1  0
 10 33  1  0
 10 34  1  0
 11 35  1  0
 11 36  1  0
 12 37  1  0
 13 38  1  0
 13 39  1  0
 14 40  1  0
 14 41  1  0
 15 42  1  0
 15 43  1  0
 17 44  1  0
 17 45  1  0
 18 46  1  0
 18 47  1  0
 20 48  1  0
 21 49  1  0
 22 50  1  0
 23 51  1  0
 26 52  1  0
 26 53  1  0
M  END
$$$$
