
     RDKit          3D

 42 44  0  0  0  0  0  0  0  0999 V2000
   -4.6404   -1.8680   -1.8789 C   0  0  0  0  0  0  0  0  0  0  0  0
   -4.3414   -1.0437   -0.6566 C   0  0  0  0  0  0  0  0  0  0  0  0
   -4.7334   -1.5109    0.6070 C   0  0  0  0  0  0  0  0  0  0  0  0
   -4.4653   -0.7640    1.7521 C   0  0  0  0  0  0  0  0  0  0  0  0
   -3.8053    0.4558    1.6441 C   0  0  0  0  0  0  0  0  0  0  0  0
   -3.4094    0.9328    0.3919 C   0  0  0  0  0  0  0  0  0  0  0  0
   -3.6708    0.1891   -0.7634 C   0  0  0  0  0  0  0  0  0  0  0  0
   -3.3103    0.5530   -2.0355 O   0  0  0  0  0  0  0  0  0  0  0  0
   -2.5821    1.7610   -2.2166 C   0  0  0  0  0  0  0  0  0  0  0  0
   -1.1120    1.6818   -1.7966 C   0  0  0  0  0  0  0  0  0  0  0  0
   -0.4838    2.6609   -1.4010 O   0  0  0  0  0  0  0  0  0  0  0  0
   -0.5542    0.4271   -1.9277 N   0  0  0  0  0  0  0  0  0  0  0  0
    0.7961    0.1457   -1.4813 C   0  0  0  0  0  0  0  0  0  0  0  0
    0.8958    0.0492    0.0413 C   0  0  0  0  0  0  0  0  0  0  0  0
    2.3118   -0.1022    0.4717 C   0  0  0  0  0  0  0  0  0  0  0  0
    2.9940   -1.2252    0.5570 N   0  0  0  0  0  0  0  0  0  0  0  0
    4.2484   -0.8626    0.9846 C   0  0  0  0  0  0  0  0  0  0  0  0
    5.3733   -1.6582    1.2447 C   0  0  0  0  0  0  0  0  0  0  0  0
    6.5520   -1.0350    1.6746 C   0  0  0  0  0  0  0  0  0  0  0  0
    6.6088    0.3512    1.8413 C   0  0  0  0  0  0  0  0  0  0  0  0
    5.4959    1.1616    1.5865 C   0  0  0  0  0  0  0  0  0  0  0  0
    4.3347    0.5138    1.1601 C   0  0  0  0  0  0  0  0  0  0  0  0
    3.0877    0.9749    0.8265 N   0  0  0  0  0  0  0  0  0  0  0  0
   -5.2691   -1.3018   -2.5736 H   0  0  0  0  0  0  0  0  0  0  0  0
   -5.1757   -2.7884   -1.6227 H   0  0  0  0  0  0  0  0  0  0  0  0
   -3.7095   -2.1536   -2.3795 H   0  0  0  0  0  0  0  0  0  0  0  0
   -5.2515   -2.4623    0.7060 H   0  0  0  0  0  0  0  0  0  0  0  0
   -4.7724   -1.1335    2.7271 H   0  0  0  0  0  0  0  0  0  0  0  0
   -3.5973    1.0401    2.5372 H   0  0  0  0  0  0  0  0  0  0  0  0
   -2.8986    1.8898    0.3639 H   0  0  0  0  0  0  0  0  0  0  0  0
   -2.5877    1.9803   -3.2904 H   0  0  0  0  0  0  0  0  0  0  0  0
   -3.0775    2.6041   -1.7219 H   0  0  0  0  0  0  0  0  0  0  0  0
   -1.1954   -0.3491   -2.0651 H   0  0  0  0  0  0  0  0  0  0  0  0
    1.4509    0.9398   -1.8602 H   0  0  0  0  0  0  0  0  0  0  0  0
    1.1054   -0.7942   -1.9516 H   0  0  0  0  0  0  0  0  0  0  0  0
    0.4571    0.9348    0.5165 H   0  0  0  0  0  0  0  0  0  0  0  0
    0.3113   -0.8088    0.3953 H   0  0  0  0  0  0  0  0  0  0  0  0
    5.3209   -2.7328    1.1125 H   0  0  0  0  0  0  0  0  0  0  0  0
    7.4317   -1.6403    1.8799 H   0  0  0  0  0  0  0  0  0  0  0  0
    7.5369    0.8105    2.1761 H   0  0  0  0  0  0  0  0  0  0  0  0
    5.5408    2.2372    1.7161 H   0  0  0  0  0  0  0  0  0  0  0  0
    2.7894    1.9401    0.8334 H   0  0  0  0  0  0  0  0  0  0  0  0
  1  2  1  0
  2  3  2  0
  3  4  1  0
  4  5  2  0
  5  6  1  0
  6  7  2  0
  7  8  1  0
  8  9  1  0
  9 10  1  0
 10 11  2  0
 10 12  1  0
 12 13  1  0
 13 14  1  0
 14 15  1  0
 15 16  2  0
 16 17  1  0
 17 18  2  0
 18 19  1  0
 19 20  2  0
 20 21  1  0
 21 22  2  0
 22 23  1  0
  7  2  1  0
 23 15  1  0
 22 17  1  0
  1 24  1  0
  1 25  1  0
  1 26  1  0
  3 27  1  0
  4 28  1  0
  5 29  1  0
  6 30  1  0
  9 31  1  0
  9 32  1  0
 12 33  1  0
 13 34  1  0
 13 35  1  0
 14 36  1  0
 14 37  1  0
 18 38  1  0
 19 39  1  0
 20 40  1  0
 21 41  1  0
 23 42  1  0
M  END
$$$$
