
     RDKit          3D

 53 56  0  0  0  0  0  0  0  0999 V2000
    7.8898    0.4399    1.1988 C   0  0  0  0  0  0  0  0  0  0  0  0
    7.1156   -0.7975    1.6182 C   0  0  0  0  0  0  0  0  0  0  0  0
    5.8493   -0.4376    2.1683 O   0  0  0  0  0  0  0  0  0  0  0  0
    4.7651   -0.3891    1.3388 C   0  0  0  0  0  0  0  0  0  0  0  0
    4.7828   -0.4392   -0.0516 C   0  0  0  0  0  0  0  0  0  0  0  0
    3.5828   -0.3725   -0.7741 C   0  0  0  0  0  0  0  0  0  0  0  0
    2.3353   -0.2564   -0.1330 C   0  0  0  0  0  0  0  0  0  0  0  0
    1.0858   -0.1992   -0.9192 C   0  0  0  0  0  0  0  0  0  0  0  0
   -0.1140   -0.7163   -0.4637 C   0  0  0  0  0  0  0  0  0  0  0  0
   -1.2371   -0.6057   -1.2848 C   0  0  0  0  0  0  0  0  0  0  0  0
   -2.5039   -1.1684   -0.7768 C   0  0  0  0  0  0  0  0  0  0  0  0
   -2.9419   -2.1824   -1.3102 O   0  0  0  0  0  0  0  0  0  0  0  0
   -3.1180   -0.5310    0.2918 N   0  0  0  0  0  0  0  0  0  0  0  0
   -2.7447    0.7923    0.8111 C   0  0  0  0  0  0  0  0  0  0  0  0
   -3.9442    1.5152    1.4510 C   0  0  0  0  0  0  0  0  0  0  0  0
   -4.5513    0.7612    2.5638 N   0  0  0  0  0  0  0  0  0  0  0  0
   -5.9006    1.2500    2.8412 C   0  0  0  0  0  0  0  0  0  0  0  0
   -4.5339   -0.7001    2.3338 C   0  0  0  0  0  0  0  0  0  0  0  0
   -4.3174   -1.1345    0.8731 C   0  0  0  0  0  0  0  0  0  0  0  0
   -1.1619   -0.0106   -2.5584 C   0  0  0  0  0  0  0  0  0  0  0  0
   -2.2528    0.1251   -3.4532 C   0  0  0  0  0  0  0  0  0  0  0  0
   -2.0901    0.7413   -4.6921 C   0  0  0  0  0  0  0  0  0  0  0  0
   -0.8414    1.2276   -5.0523 C   0  0  0  0  0  0  0  0  0  0  0  0
    0.2357    1.0909   -4.1724 C   0  0  0  0  0  0  0  0  0  0  0  0
    0.1003    0.4809   -2.9319 C   0  0  0  0  0  0  0  0  0  0  0  0
    1.1827    0.3907   -2.1382 N   0  0  0  0  0  0  0  0  0  0  0  0
    2.3419   -0.1902    1.2700 C   0  0  0  0  0  0  0  0  0  0  0  0
    3.5397   -0.2541    1.9925 C   0  0  0  0  0  0  0  0  0  0  0  0
    8.8873    0.1668    0.8450 H   0  0  0  0  0  0  0  0  0  0  0  0
    7.9925    1.1311    2.0416 H   0  0  0  0  0  0  0  0  0  0  0  0
    7.3725    0.9850    0.4033 H   0  0  0  0  0  0  0  0  0  0  0  0
    7.0325   -1.5323    0.8099 H   0  0  0  0  0  0  0  0  0  0  0  0
    7.6709   -1.2967    2.4209 H   0  0  0  0  0  0  0  0  0  0  0  0
    5.7068   -0.5173   -0.6143 H   0  0  0  0  0  0  0  0  0  0  0  0
    3.6270   -0.4132   -1.8628 H   0  0  0  0  0  0  0  0  0  0  0  0
   -0.1885   -1.2184    0.4953 H   0  0  0  0  0  0  0  0  0  0  0  0
   -2.3383    1.4065    0.0023 H   0  0  0  0  0  0  0  0  0  0  0  0
   -1.9527    0.6413    1.5543 H   0  0  0  0  0  0  0  0  0  0  0  0
   -3.6181    2.4943    1.8206 H   0  0  0  0  0  0  0  0  0  0  0  0
   -4.6876    1.6953    0.6636 H   0  0  0  0  0  0  0  0  0  0  0  0
   -5.8891    2.3287    3.0350 H   0  0  0  0  0  0  0  0  0  0  0  0
   -6.3022    0.7740    3.7425 H   0  0  0  0  0  0  0  0  0  0  0  0
   -6.5880    1.0538    2.0109 H   0  0  0  0  0  0  0  0  0  0  0  0
   -3.7011   -1.0971    2.9298 H   0  0  0  0  0  0  0  0  0  0  0  0
   -5.4369   -1.1826    2.7284 H   0  0  0  0  0  0  0  0  0  0  0  0
   -4.2454   -2.2255    0.8146 H   0  0  0  0  0  0  0  0  0  0  0  0
   -5.1698   -0.8282    0.2546 H   0  0  0  0  0  0  0  0  0  0  0  0
   -3.2363   -0.2613   -3.1899 H   0  0  0  0  0  0  0  0  0  0  0  0
   -2.9338    0.8349   -5.3720 H   0  0  0  0  0  0  0  0  0  0  0  0
   -0.6975    1.7096   -6.0160 H   0  0  0  0  0  0  0  0  0  0  0  0
    1.2116    1.4728   -4.4643 H   0  0  0  0  0  0  0  0  0  0  0  0
    1.4159   -0.0717    1.8278 H   0  0  0  0  0  0  0  0  0  0  0  0
    3.5149   -0.1979    3.0784 H   0  0  0  0  0  0  0  0  0  0  0  0
  1  2  1  0
  2  3  1  0
  3  4  1  0
  4  5  2  0
  5  6  1  0
  6  7  2  0
  7  8  1  0
  8  9  2  0
  9 10  1  0
 10 11  1  0
 11 12  2  0
 11 13  1  0
 13 14  1  0
 14 15  1  0
 15 16  1  0
 16 17  1  0
 16 18  1  0
 18 19  1  0
 10 20  2  0
 20 21  1  0
 21 22  2  0
 22 23  1  0
 23 24  2  0
 24 25  1  0
 25 26  2  0
  7 27  1  0
 27 28  2  0
 28  4  1  0
 26  8  1  0
 19 13  1  0
 25 20  1  0
  1 29  1  0
  1 30  1  0
  1 31  1  0
  2 32  1  0
  2 33  1  0
  5 34  1  0
  6 35  1  0
  9 36  1  0
 14 37  1  0
 14 38  1  0
 15 39  1  0
 15 40  1  0
 17 41  1  0
 17 42  1  0
 17 43  1  0
 18 44  1  0
 18 45  1  0
 19 46  1  0
 19 47  1  0
 21 48  1  0
 22 49  1  0
 23 50  1  0
 24 51  1  0
 27 52  1  0
 28 53  1  0
M  END
$$$$
