
     RDKit          3D

 57 60  0  0  0  0  0  0  0  0999 V2000
    4.0717   -1.8442   -2.2314 O   0  0  0  0  0  0  0  0  0  0  0  0
    4.1300   -0.4490   -1.8554 S   0  0  0  0  0  6  0  0  0  0  0  0
    4.3047    0.5994   -2.8350 O   0  0  0  0  0  0  0  0  0  0  0  0
    5.3453   -0.3169   -0.7103 N   0  0  0  0  0  0  0  0  0  0  0  0
    5.8643    1.0066   -0.3485 C   0  0  0  0  0  0  0  0  0  0  0  0
    7.0473    1.3758   -1.2538 C   0  0  0  0  0  0  0  0  0  0  0  0
    8.2753    1.4476   -0.3477 C   0  0  0  0  0  0  0  0  0  0  0  0
    7.9073    0.6190    0.8706 C   0  0  0  0  0  0  0  0  0  0  0  0
    6.4346    0.9451    1.0697 C   0  0  0  0  0  0  0  0  0  0  0  0
    2.6805   -0.0970   -0.8911 C   0  0  0  0  0  0  0  0  0  0  0  0
    2.0215    1.1285   -1.0439 C   0  0  0  0  0  0  0  0  0  0  0  0
    0.8762    1.3926   -0.2912 C   0  0  0  0  0  0  0  0  0  0  0  0
    0.3977    0.4220    0.5958 C   0  0  0  0  0  0  0  0  0  0  0  0
   -1.0591    0.7375    1.5639 S   0  0  0  0  0  6  0  0  0  0  0  0
   -0.7207    0.4553    2.9421 O   0  0  0  0  0  0  0  0  0  0  0  0
   -1.6084    2.0165    1.1647 O   0  0  0  0  0  0  0  0  0  0  0  0
   -2.1332   -0.4674    1.0187 N   0  0  0  0  0  0  0  0  0  0  0  0
   -2.5932   -0.3260   -0.4045 C   0  0  0  0  0  0  0  0  0  0  0  0
   -4.0304    0.2165   -0.5178 C   0  0  0  0  0  0  0  0  0  0  0  0
   -4.9804   -0.6670    0.1781 N   0  0  0  0  0  0  0  0  0  0  0  0
   -6.3003   -0.7773   -0.2260 C   0  0  0  0  0  0  0  0  0  0  0  0
   -6.9283    0.2223   -0.9878 C   0  0  0  0  0  0  0  0  0  0  0  0
   -8.2629    0.1158   -1.3997 C   0  0  0  0  0  0  0  0  0  0  0  0
   -9.0103   -1.0038   -1.0573 C   0  0  0  0  0  0  0  0  0  0  0  0
   -8.4209   -2.0107   -0.3032 C   0  0  0  0  0  0  0  0  0  0  0  0
   -7.0859   -1.8941    0.1042 C   0  0  0  0  0  0  0  0  0  0  0  0
   -4.4523   -1.4371    1.3157 C   0  0  0  0  0  0  0  0  0  0  0  0
   -3.2670   -0.7086    1.9751 C   0  0  0  0  0  0  0  0  0  0  0  0
    1.0542   -0.8054    0.7465 C   0  0  0  0  0  0  0  0  0  0  0  0
    2.1989   -1.0687   -0.0056 C   0  0  0  0  0  0  0  0  0  0  0  0
    5.9668   -1.1236   -0.6792 H   0  0  0  0  0  0  0  0  0  0  0  0
    5.0650    1.7529   -0.3947 H   0  0  0  0  0  0  0  0  0  0  0  0
    7.2052    0.6355   -2.0476 H   0  0  0  0  0  0  0  0  0  0  0  0
    6.8822    2.3428   -1.7429 H   0  0  0  0  0  0  0  0  0  0  0  0
    8.4567    2.4883   -0.0512 H   0  0  0  0  0  0  0  0  0  0  0  0
    9.1788    1.0798   -0.8438 H   0  0  0  0  0  0  0  0  0  0  0  0
    8.0416   -0.4494    0.6630 H   0  0  0  0  0  0  0  0  0  0  0  0
    8.5105    0.8778    1.7461 H   0  0  0  0  0  0  0  0  0  0  0  0
    5.9344    0.2134    1.7130 H   0  0  0  0  0  0  0  0  0  0  0  0
    6.3434    1.9302    1.5449 H   0  0  0  0  0  0  0  0  0  0  0  0
    2.3933    1.8774   -1.7407 H   0  0  0  0  0  0  0  0  0  0  0  0
    0.3668    2.3480   -0.4015 H   0  0  0  0  0  0  0  0  0  0  0  0
   -1.9176    0.3162   -0.9785 H   0  0  0  0  0  0  0  0  0  0  0  0
   -2.5319   -1.3218   -0.8621 H   0  0  0  0  0  0  0  0  0  0  0  0
   -4.2688    0.2826   -1.5863 H   0  0  0  0  0  0  0  0  0  0  0  0
   -4.0915    1.2242   -0.0897 H   0  0  0  0  0  0  0  0  0  0  0  0
   -6.3938    1.1287   -1.2573 H   0  0  0  0  0  0  0  0  0  0  0  0
   -8.7140    0.9141   -1.9826 H   0  0  0  0  0  0  0  0  0  0  0  0
  -10.0457   -1.0897   -1.3745 H   0  0  0  0  0  0  0  0  0  0  0  0
   -8.9930   -2.8937   -0.0316 H   0  0  0  0  0  0  0  0  0  0  0  0
   -6.6636   -2.7183    0.6718 H   0  0  0  0  0  0  0  0  0  0  0  0
   -4.1354   -2.4269    0.9658 H   0  0  0  0  0  0  0  0  0  0  0  0
   -5.2210   -1.5748    2.0855 H   0  0  0  0  0  0  0  0  0  0  0  0
   -3.6198    0.2488    2.3785 H   0  0  0  0  0  0  0  0  0  0  0  0
   -2.8919   -1.3163    2.8061 H   0  0  0  0  0  0  0  0  0  0  0  0
    0.6761   -1.5508    1.4438 H   0  0  0  0  0  0  0  0  0  0  0  0
    2.7112   -2.0228    0.1003 H   0  0  0  0  0  0  0  0  0  0  0  0
  1  2  2  0
  2  3  2  0
  2  4  1  0
  4  5  1  0
  5  6  1  0
  6  7  1  0
  7  8  1  0
  8  9  1  0
  2 10  1  0
 10 11  2  0
 11 12  1  0
 12 13  2  0
 13 14  1  0
 14 15  2  0
 14 16  2  0
 14 17  1  0
 17 18  1  0
 18 19  1  0
 19 20  1  0
 20 21  1  0
 21 22  2  0
 22 23  1  0
 23 24  2  0
 24 25  1  0
 25 26  2  0
 20 27  1  0
 27 28  1  0
 13 29  1  0
 29 30  2  0
  9  5  1  0
 30 10  1  0
 28 17  1  0
 26 21  1  0
  4 31  1  0
  5 32  1  0
  6 33  1  0
  6 34  1  0
  7 35  1  0
  7 36  1  0
  8 37  1  0
  8 38  1  0
  9 39  1  0
  9 40  1  0
 11 41  1  0
 12 42  1  0
 18 43  1  0
 18 44  1  0
 19 45  1  0
 19 46  1  0
 22 47  1  0
 23 48  1  0
 24 49  1  0
 25 50  1  0
 26 51  1  0
 27 52  1  0
 27 53  1  0
 28 54  1  0
 28 55  1  0
 29 56  1  0
 30 57  1  0
M  END
$$$$
