
     RDKit          3D

 53 54  0  0  0  0  0  0  0  0999 V2000
   -1.3860    0.8237   -0.0435 C   0  0  0  0  0  0  0  0  0  0  0  0
   -0.3060    0.0299    0.7138 C   0  0  0  0  0  0  0  0  0  0  0  0
    0.2088   -1.1156   -0.1772 C   0  0  0  0  0  0  0  0  0  0  0  0
    0.8742    0.9588    1.1081 C   0  0  0  0  0  0  0  0  0  0  0  0
    1.5454    1.5757   -0.0190 N   0  0  0  0  0  0  0  0  0  0  0  0
    1.3218    2.8727   -0.3946 C   0  0  0  0  0  0  0  0  0  0  0  0
    0.5139    3.6252    0.1354 O   0  0  0  0  0  0  0  0  0  0  0  0
    2.0822    3.3219   -1.5866 C   0  0  0  0  0  0  0  0  0  0  0  0
    3.3803    3.1159   -1.8638 C   0  0  0  0  0  0  0  0  0  0  0  0
    4.3688    2.4272   -1.0280 C   0  0  0  0  0  0  0  0  0  0  0  0
    4.5924    2.8094    0.3029 C   0  0  0  0  0  0  0  0  0  0  0  0
    5.5483    2.1468    1.0753 C   0  0  0  0  0  0  0  0  0  0  0  0
    6.2862    1.1125    0.5129 C   0  0  0  0  0  0  0  0  0  0  0  0
    7.2035    0.4771    1.2535 F   0  0  0  0  0  0  0  0  0  0  0  0
    6.0892    0.7303   -0.8091 C   0  0  0  0  0  0  0  0  0  0  0  0
    5.1334    1.3918   -1.5833 C   0  0  0  0  0  0  0  0  0  0  0  0
   -0.8920   -0.5317    2.0352 C   0  0  0  0  0  0  0  0  0  0  0  0
   -2.0221   -1.4264    1.8647 N   0  0  0  0  0  0  0  0  0  0  0  0
   -1.9189   -2.7814    2.0289 C   0  0  0  0  0  0  0  0  0  0  0  0
   -0.8767   -3.3806    2.2622 O   0  0  0  0  0  0  0  0  0  0  0  0
   -3.2078   -3.5160    2.0246 C   0  0  0  0  0  0  0  0  0  0  0  0
   -4.2360   -3.3927    1.1711 C   0  0  0  0  0  0  0  0  0  0  0  0
   -4.3053   -2.5348   -0.0126 C   0  0  0  0  0  0  0  0  0  0  0  0
   -3.4045   -2.6987   -1.0739 C   0  0  0  0  0  0  0  0  0  0  0  0
   -3.5048   -1.8952   -2.2114 C   0  0  0  0  0  0  0  0  0  0  0  0
   -4.5071   -0.9357   -2.2854 C   0  0  0  0  0  0  0  0  0  0  0  0
   -4.6027   -0.1633   -3.3754 F   0  0  0  0  0  0  0  0  0  0  0  0
   -5.4140   -0.7663   -1.2453 C   0  0  0  0  0  0  0  0  0  0  0  0
   -5.3175   -1.5711   -0.1081 C   0  0  0  0  0  0  0  0  0  0  0  0
   -1.7405    1.6726    0.5520 H   0  0  0  0  0  0  0  0  0  0  0  0
   -1.0090    1.2126   -0.9950 H   0  0  0  0  0  0  0  0  0  0  0  0
   -2.2532    0.1998   -0.2777 H   0  0  0  0  0  0  0  0  0  0  0  0
    0.9834   -1.6956    0.3361 H   0  0  0  0  0  0  0  0  0  0  0  0
   -0.5941   -1.8047   -0.4547 H   0  0  0  0  0  0  0  0  0  0  0  0
    0.6382   -0.7368   -1.1106 H   0  0  0  0  0  0  0  0  0  0  0  0
    0.5250    1.7456    1.7880 H   0  0  0  0  0  0  0  0  0  0  0  0
    1.6420    0.3874    1.6433 H   0  0  0  0  0  0  0  0  0  0  0  0
    2.2141    1.0218   -0.5386 H   0  0  0  0  0  0  0  0  0  0  0  0
    1.4826    3.9236   -2.2643 H   0  0  0  0  0  0  0  0  0  0  0  0
    3.7771    3.5171   -2.7948 H   0  0  0  0  0  0  0  0  0  0  0  0
    4.0247    3.6243    0.7488 H   0  0  0  0  0  0  0  0  0  0  0  0
    5.7226    2.4340    2.1074 H   0  0  0  0  0  0  0  0  0  0  0  0
    6.6827   -0.0765   -1.2279 H   0  0  0  0  0  0  0  0  0  0  0  0
    4.9881    1.0890   -2.6184 H   0  0  0  0  0  0  0  0  0  0  0  0
   -0.1093   -1.0495    2.6020 H   0  0  0  0  0  0  0  0  0  0  0  0
   -1.2510    0.2904    2.6661 H   0  0  0  0  0  0  0  0  0  0  0  0
   -2.9368   -1.0200    1.7159 H   0  0  0  0  0  0  0  0  0  0  0  0
   -3.2625   -4.2621    2.8129 H   0  0  0  0  0  0  0  0  0  0  0  0
   -5.1158   -4.0139    1.3280 H   0  0  0  0  0  0  0  0  0  0  0  0
   -2.6208   -3.4528   -1.0233 H   0  0  0  0  0  0  0  0  0  0  0  0
   -2.8087   -2.0124   -3.0358 H   0  0  0  0  0  0  0  0  0  0  0  0
   -6.1904   -0.0125   -1.3287 H   0  0  0  0  0  0  0  0  0  0  0  0
   -6.0350   -1.4388    0.6982 H   0  0  0  0  0  0  0  0  0  0  0  0
  1  2  1  0
  2  3  1  0
  2  4  1  0
  4  5  1  0
  5  6  1  0
  6  7  2  0
  6  8  1  0
  8  9  2  3
  9 10  1  0
 10 11  2  0
 11 12  1  0
 12 13  2  0
 13 14  1  0
 13 15  1  0
 15 16  2  0
  2 17  1  0
 17 18  1  0
 18 19  1  0
 19 20  2  0
 19 21  1  0
 21 22  2  3
 22 23  1  0
 23 24  2  0
 24 25  1  0
 25 26  2  0
 26 27  1  0
 26 28  1  0
 28 29  2  0
 16 10  1  0
 29 23  1  0
  1 30  1  0
  1 31  1  0
  1 32  1  0
  3 33  1  0
  3 34  1  0
  3 35  1  0
  4 36  1  0
  4 37  1  0
  5 38  1  0
  8 39  1  0
  9 40  1  0
 11 41  1  0
 12 42  1  0
 15 43  1  0
 16 44  1  0
 17 45  1  0
 17 46  1  0
 18 47  1  0
 21 48  1  0
 22 49  1  0
 24 50  1  0
 25 51  1  0
 28 52  1  0
 29 53  1  0
M  END
$$$$
