
     RDKit          3D

 51 54  0  0  0  0  0  0  0  0999 V2000
    0.7535    2.7943    5.4050 C   0  0  0  0  0  0  0  0  0  0  0  0
    0.3761    2.2207    4.0510 C   0  0  0  0  0  0  0  0  0  0  0  0
    1.5078    1.5218    3.5397 O   0  0  0  0  0  0  0  0  0  0  0  0
    1.3812    0.8885    2.3285 C   0  0  0  0  0  0  0  0  0  0  0  0
    0.2271    0.9203    1.5347 C   0  0  0  0  0  0  0  0  0  0  0  0
    0.1577    0.2331    0.3068 C   0  0  0  0  0  0  0  0  0  0  0  0
   -1.1557    0.2663   -0.4757 C   0  0  0  0  0  0  0  0  0  0  0  0
   -2.0482   -0.9661   -0.2702 C   0  0  0  0  0  0  0  0  0  0  0  0
   -2.3132   -1.2287    1.1901 C   0  0  0  0  0  0  0  0  0  0  0  0
   -2.7135   -0.3262    1.9273 O   0  0  0  0  0  0  0  0  0  0  0  0
   -2.0645   -2.6143    1.7295 C   0  0  0  0  0  0  0  0  0  0  0  0
   -2.4447   -3.6456    0.6813 C   0  0  0  0  0  0  0  0  0  0  0  0
   -1.5354   -3.5288   -0.5282 C   0  0  0  0  0  0  0  0  0  0  0  0
   -1.5043   -2.1249   -1.0906 C   0  0  0  0  0  0  0  0  0  0  0  0
   -1.0094   -1.9665   -2.2843 N   0  0  0  0  0  0  0  0  0  0  0  0
   -0.9255   -0.6948   -2.7539 C   0  0  0  0  0  0  0  0  0  0  0  0
   -0.7844   -0.2459   -3.9780 N   0  0  0  0  0  0  0  0  0  0  0  0
   -0.7464    1.1390   -3.8447 C   0  0  0  0  0  0  0  0  0  0  0  0
   -0.6040    2.0613   -4.9889 C   0  0  0  0  0  0  0  0  0  0  0  0
   -0.5926    3.2862   -4.8947 O   0  0  0  0  0  0  0  0  0  0  0  0
   -0.4867    1.3958   -6.1812 O   0  0  0  0  0  0  0  0  0  0  0  0
   -0.3448    2.2492   -7.3147 C   0  0  0  0  0  0  0  0  0  0  0  0
   -0.8671    1.5556   -2.5650 N   0  0  0  0  0  0  0  0  0  0  0  0
   -0.9297    0.3886   -1.9128 N   0  0  0  0  0  0  0  0  0  0  0  0
    1.2864   -0.4869   -0.1086 C   0  0  0  0  0  0  0  0  0  0  0  0
    2.4479   -0.5144    0.6707 C   0  0  0  0  0  0  0  0  0  0  0  0
    2.5064    0.1699    1.8869 C   0  0  0  0  0  0  0  0  0  0  0  0
    3.5989    0.1811    2.7173 O   0  0  0  0  0  0  0  0  0  0  0  0
    4.8139   -0.3515    2.2102 C   0  0  0  0  0  0  0  0  0  0  0  0
    1.6115    3.4684    5.3128 H   0  0  0  0  0  0  0  0  0  0  0  0
    1.0485    1.9953    6.0932 H   0  0  0  0  0  0  0  0  0  0  0  0
   -0.0838    3.3456    5.8419 H   0  0  0  0  0  0  0  0  0  0  0  0
    0.1019    3.0422    3.3793 H   0  0  0  0  0  0  0  0  0  0  0  0
   -0.4706    1.5361    4.1773 H   0  0  0  0  0  0  0  0  0  0  0  0
   -0.6477    1.4760    1.8642 H   0  0  0  0  0  0  0  0  0  0  0  0
   -1.7155    1.1682   -0.1913 H   0  0  0  0  0  0  0  0  0  0  0  0
   -3.0400   -0.7685   -0.7070 H   0  0  0  0  0  0  0  0  0  0  0  0
   -1.0103   -2.6973    2.0133 H   0  0  0  0  0  0  0  0  0  0  0  0
   -2.6789   -2.7556    2.6249 H   0  0  0  0  0  0  0  0  0  0  0  0
   -2.3632   -4.6528    1.1046 H   0  0  0  0  0  0  0  0  0  0  0  0
   -3.4887   -3.5019    0.3755 H   0  0  0  0  0  0  0  0  0  0  0  0
   -0.5077   -3.7984   -0.2572 H   0  0  0  0  0  0  0  0  0  0  0  0
   -1.8633   -4.2197   -1.3127 H   0  0  0  0  0  0  0  0  0  0  0  0
   -0.2558    1.6195   -8.2044 H   0  0  0  0  0  0  0  0  0  0  0  0
    0.5627    2.8551   -7.2288 H   0  0  0  0  0  0  0  0  0  0  0  0
   -1.2278    2.8857   -7.4293 H   0  0  0  0  0  0  0  0  0  0  0  0
    1.3033   -1.0356   -1.0483 H   0  0  0  0  0  0  0  0  0  0  0  0
    3.2924   -1.0859    0.2989 H   0  0  0  0  0  0  0  0  0  0  0  0
    5.5956   -0.1687    2.9538 H   0  0  0  0  0  0  0  0  0  0  0  0
    5.1130    0.1493    1.2833 H   0  0  0  0  0  0  0  0  0  0  0  0
    4.7377   -1.4343    2.0683 H   0  0  0  0  0  0  0  0  0  0  0  0
  1  2  1  0
  2  3  1  0
  3  4  1  0
  4  5  2  0
  5  6  1  0
  6  7  1  0
  7  8  1  0
  8  9  1  0
  9 10  2  0
  9 11  1  0
 11 12  1  0
 12 13  1  0
 13 14  1  0
 14 15  2  0
 15 16  1  0
 16 17  2  0
 17 18  1  0
 18 19  1  0
 19 20  2  0
 19 21  1  0
 21 22  1  0
 18 23  2  0
 23 24  1  0
  6 25  2  0
 25 26  1  0
 26 27  2  0
 27 28  1  0
 28 29  1  0
 27  4  1  0
 24  7  1  0
 14  8  1  0
 24 16  1  0
  1 30  1  0
  1 31  1  0
  1 32  1  0
  2 33  1  0
  2 34  1  0
  5 35  1  0
  7 36  1  0
  8 37  1  0
 11 38  1  0
 11 39  1  0
 12 40  1  0
 12 41  1  0
 13 42  1  0
 13 43  1  0
 22 44  1  0
 22 45  1  0
 22 46  1  0
 25 47  1  0
 26 48  1  0
 29 49  1  0
 29 50  1  0
 29 51  1  0
M  END
$$$$
