
     RDKit          3D

 54 57  0  0  0  0  0  0  0  0999 V2000
   -8.1512    0.4364    0.0293 C   0  0  0  0  0  0  0  0  0  0  0  0
   -7.3776    0.8661    1.1420 O   0  0  0  0  0  0  0  0  0  0  0  0
   -6.0326    0.6297    1.0897 C   0  0  0  0  0  0  0  0  0  0  0  0
   -5.3189    1.0565    2.2079 C   0  0  0  0  0  0  0  0  0  0  0  0
   -3.9342    0.8749    2.2827 C   0  0  0  0  0  0  0  0  0  0  0  0
   -3.2340    0.2494    1.2377 C   0  0  0  0  0  0  0  0  0  0  0  0
   -1.8185    0.0843    1.3604 N   0  0  0  0  0  0  0  0  0  0  0  0
   -1.1664    0.7320    2.3713 N   0  0  0  0  0  0  0  0  0  0  0  0
    0.1253    0.4731    2.1882 C   0  0  0  0  0  0  0  0  0  0  0  0
    0.3501   -0.3654    1.0920 C   0  0  0  0  0  0  0  0  0  0  0  0
   -0.9134   -0.6518    0.6045 C   0  0  0  0  0  0  0  0  0  0  0  0
   -1.1869   -1.6157   -0.5029 C   0  0  0  0  0  0  0  0  0  0  0  0
    0.0470   -2.5325   -0.7793 C   0  0  0  0  0  0  0  0  0  0  0  0
    0.1186   -3.6671    0.2632 C   0  0  0  0  0  0  0  0  0  0  0  0
   -0.1176   -3.1755   -2.1696 C   0  0  0  0  0  0  0  0  0  0  0  0
    1.3593   -1.6942   -0.7672 C   0  0  0  0  0  0  0  0  0  0  0  0
    1.6142   -0.9522    0.5662 C   0  0  0  0  0  0  0  0  0  0  0  0
    2.5713    0.1147    0.3833 N   0  0  0  0  0  0  0  0  0  0  0  0
    3.9265   -0.1162    0.2994 C   0  0  0  0  0  0  0  0  0  0  0  0
    4.4488   -1.2100    0.4764 O   0  0  0  0  0  0  0  0  0  0  0  0
    4.7353    1.0866   -0.0424 C   0  0  0  0  0  0  0  0  0  0  0  0
    6.1154    0.9994   -0.1211 C   0  0  0  0  0  0  0  0  0  0  0  0
    6.8900    2.0708   -0.4319 N   0  0  0  0  0  0  0  0  0  0  0  0
    6.2296    3.2342   -0.6602 C   0  0  0  0  0  0  0  0  0  0  0  0
    7.0395    4.4450   -1.0032 C   0  0  0  0  0  0  0  0  0  0  0  0
    4.8401    3.3094   -0.5798 C   0  0  0  0  0  0  0  0  0  0  0  0
    4.0565    2.2475   -0.2734 N   0  0  0  0  0  0  0  0  0  0  0  0
   -3.9532   -0.1614    0.1109 C   0  0  0  0  0  0  0  0  0  0  0  0
   -5.3436    0.0247    0.0404 C   0  0  0  0  0  0  0  0  0  0  0  0
   -8.0883   -0.6491   -0.1002 H   0  0  0  0  0  0  0  0  0  0  0  0
   -7.8539    0.9620   -0.8842 H   0  0  0  0  0  0  0  0  0  0  0  0
   -9.1969    0.6873    0.2321 H   0  0  0  0  0  0  0  0  0  0  0  0
   -5.8413    1.5365    3.0320 H   0  0  0  0  0  0  0  0  0  0  0  0
   -3.4172    1.2219    3.1761 H   0  0  0  0  0  0  0  0  0  0  0  0
    0.8488    0.8988    2.8723 H   0  0  0  0  0  0  0  0  0  0  0  0
   -1.4112   -1.0378   -1.4083 H   0  0  0  0  0  0  0  0  0  0  0  0
   -2.0539   -2.2440   -0.2700 H   0  0  0  0  0  0  0  0  0  0  0  0
    0.1802   -3.2893    1.2883 H   0  0  0  0  0  0  0  0  0  0  0  0
    0.9953   -4.3017    0.0909 H   0  0  0  0  0  0  0  0  0  0  0  0
   -0.7693   -4.3073    0.2069 H   0  0  0  0  0  0  0  0  0  0  0  0
   -0.1573   -2.4146   -2.9571 H   0  0  0  0  0  0  0  0  0  0  0  0
   -1.0414   -3.7620   -2.2268 H   0  0  0  0  0  0  0  0  0  0  0  0
    0.7193   -3.8453   -2.3973 H   0  0  0  0  0  0  0  0  0  0  0  0
    2.2225   -2.3328   -0.9969 H   0  0  0  0  0  0  0  0  0  0  0  0
    1.3079   -0.9588   -1.5839 H   0  0  0  0  0  0  0  0  0  0  0  0
    2.0180   -1.6588    1.3017 H   0  0  0  0  0  0  0  0  0  0  0  0
    2.2524    1.0402    0.1065 H   0  0  0  0  0  0  0  0  0  0  0  0
    6.6424    0.0693    0.0629 H   0  0  0  0  0  0  0  0  0  0  0  0
    6.8798    5.2306   -0.2582 H   0  0  0  0  0  0  0  0  0  0  0  0
    6.7562    4.8226   -1.9905 H   0  0  0  0  0  0  0  0  0  0  0  0
    8.1076    4.2061   -1.0232 H   0  0  0  0  0  0  0  0  0  0  0  0
    4.3135    4.2410   -0.7624 H   0  0  0  0  0  0  0  0  0  0  0  0
   -3.4780   -0.5991   -0.7564 H   0  0  0  0  0  0  0  0  0  0  0  0
   -5.8545   -0.3080   -0.8574 H   0  0  0  0  0  0  0  0  0  0  0  0
  1  2  1  0
  2  3  1  0
  3  4  2  0
  4  5  1  0
  5  6  2  0
  6  7  1  0
  7  8  1  0
  8  9  2  0
  9 10  1  0
 10 11  2  0
 11 12  1  0
 12 13  1  0
 13 14  1  0
 13 15  1  0
 13 16  1  0
 16 17  1  0
 17 18  1  0
 18 19  1  0
 19 20  2  0
 19 21  1  0
 21 22  2  0
 22 23  1  0
 23 24  2  0
 24 25  1  0
 24 26  1  0
 26 27  2  0
  6 28  1  0
 28 29  2  0
 29  3  1  0
 11  7  1  0
 27 21  1  0
 17 10  1  0
  1 30  1  0
  1 31  1  0
  1 32  1  0
  4 33  1  0
  5 34  1  0
  9 35  1  0
 12 36  1  0
 12 37  1  0
 14 38  1  0
 14 39  1  0
 14 40  1  0
 15 41  1  0
 15 42  1  0
 15 43  1  0
 16 44  1  0
 16 45  1  0
 17 46  1  0
 18 47  1  0
 22 48  1  0
 25 49  1  0
 25 50  1  0
 25 51  1  0
 26 52  1  0
 28 53  1  0
 29 54  1  0
M  END
$$$$
