
     RDKit          3D

 46 48  0  0  0  0  0  0  0  0999 V2000
    6.9652    1.9435    0.5797 C   0  0  0  0  0  0  0  0  0  0  0  0
    6.2815    1.1034   -0.3408 O   0  0  0  0  0  0  0  0  0  0  0  0
    6.3335   -0.2681    0.0547 C   0  0  0  0  0  0  0  0  0  0  0  0
    5.5817   -1.1246   -0.9710 C   0  0  0  0  0  0  0  0  0  0  0  0
    4.1528   -0.8006   -1.0208 N   0  0  0  0  0  0  0  0  0  0  0  0
    3.3478   -1.2396    0.0149 C   0  0  0  0  0  0  0  0  0  0  0  0
    3.7117   -1.9208    0.9651 O   0  0  0  0  0  0  0  0  0  0  0  0
    1.9544   -0.7635   -0.1741 C   0  0  0  0  0  0  0  0  0  0  0  0
    0.9799   -1.0735    0.6909 C   0  0  0  0  0  0  0  0  0  0  0  0
   -0.4218   -0.6544    0.5759 C   0  0  0  0  0  0  0  0  0  0  0  0
   -0.7724    0.6480    0.9368 C   0  0  0  0  0  0  0  0  0  0  0  0
   -2.1007    1.0815    0.8421 C   0  0  0  0  0  0  0  0  0  0  0  0
   -3.1267    0.2430    0.3873 C   0  0  0  0  0  0  0  0  0  0  0  0
   -4.4296    0.6727    0.2953 N   0  0  0  0  0  0  0  0  0  0  0  0
   -5.5051   -0.0908   -0.3335 C   0  0  0  0  0  0  0  0  0  0  0  0
   -6.6321    0.9259   -0.5000 C   0  0  0  0  0  0  0  0  0  0  0  0
   -6.4184    1.8712    0.6686 C   0  0  0  0  0  0  0  0  0  0  0  0
   -4.8980    1.9808    0.7465 C   0  0  0  0  0  0  0  0  0  0  0  0
   -2.7489   -1.0642    0.0357 C   0  0  0  0  0  0  0  0  0  0  0  0
   -1.4196   -1.5287    0.1227 C   0  0  0  0  0  0  0  0  0  0  0  0
   -1.1071   -2.9436   -0.2820 C   0  0  0  0  0  0  0  0  0  0  0  0
    1.8394    0.1751   -1.6058 S   0  0  0  0  0  0  0  0  0  0  0  0
    3.5483   -0.0232   -1.9876 C   0  0  0  0  0  0  0  0  0  0  0  0
    4.2200    0.6435   -3.3621 S   0  0  0  0  0  0  0  0  0  0  0  0
    6.5022    1.8831    1.5693 H   0  0  0  0  0  0  0  0  0  0  0  0
    6.8942    2.9744    0.2231 H   0  0  0  0  0  0  0  0  0  0  0  0
    8.0219    1.6657    0.6397 H   0  0  0  0  0  0  0  0  0  0  0  0
    5.8944   -0.3753    1.0527 H   0  0  0  0  0  0  0  0  0  0  0  0
    7.3800   -0.5914    0.0951 H   0  0  0  0  0  0  0  0  0  0  0  0
    5.6812   -2.1807   -0.6939 H   0  0  0  0  0  0  0  0  0  0  0  0
    6.0317   -0.9970   -1.9591 H   0  0  0  0  0  0  0  0  0  0  0  0
    1.1964   -1.6951    1.5578 H   0  0  0  0  0  0  0  0  0  0  0  0
   -0.0180    1.3455    1.2932 H   0  0  0  0  0  0  0  0  0  0  0  0
   -2.3124    2.1080    1.1268 H   0  0  0  0  0  0  0  0  0  0  0  0
   -5.8194   -0.9086    0.3250 H   0  0  0  0  0  0  0  0  0  0  0  0
   -5.2211   -0.4987   -1.3095 H   0  0  0  0  0  0  0  0  0  0  0  0
   -6.5120    1.4685   -1.4457 H   0  0  0  0  0  0  0  0  0  0  0  0
   -7.6210    0.4591   -0.4965 H   0  0  0  0  0  0  0  0  0  0  0  0
   -6.8114    1.4224    1.5889 H   0  0  0  0  0  0  0  0  0  0  0  0
   -6.9016    2.8418    0.5266 H   0  0  0  0  0  0  0  0  0  0  0  0
   -4.5878    2.2097    1.7716 H   0  0  0  0  0  0  0  0  0  0  0  0
   -4.5352    2.7650    0.0721 H   0  0  0  0  0  0  0  0  0  0  0  0
   -3.5075   -1.7607   -0.3123 H   0  0  0  0  0  0  0  0  0  0  0  0
   -2.0112   -3.4885   -0.5739 H   0  0  0  0  0  0  0  0  0  0  0  0
   -0.6532   -3.4882    0.5523 H   0  0  0  0  0  0  0  0  0  0  0  0
   -0.4258   -2.9522   -1.1388 H   0  0  0  0  0  0  0  0  0  0  0  0
  1  2  1  0
  2  3  1  0
  3  4  1  0
  4  5  1  0
  5  6  1  0
  6  7  2  0
  6  8  1  0
  8  9  2  3
  9 10  1  0
 10 11  2  0
 11 12  1  0
 12 13  2  0
 13 14  1  0
 14 15  1  0
 15 16  1  0
 16 17  1  0
 17 18  1  0
 13 19  1  0
 19 20  2  0
 20 21  1  0
  8 22  1  0
 22 23  1  0
 23 24  2  0
 23  5  1  0
 20 10  1  0
 18 14  1  0
  1 25  1  0
  1 26  1  0
  1 27  1  0
  3 28  1  0
  3 29  1  0
  4 30  1  0
  4 31  1  0
  9 32  1  0
 11 33  1  0
 12 34  1  0
 15 35  1  0
 15 36  1  0
 16 37  1  0
 16 38  1  0
 17 39  1  0
 17 40  1  0
 18 41  1  0
 18 42  1  0
 19 43  1  0
 21 44  1  0
 21 45  1  0
 21 46  1  0
M  END
$$$$
