
     RDKit          3D

 50 53  0  0  0  0  0  0  0  0999 V2000
   -7.2786    2.5339    1.3108 C   0  0  0  0  0  0  0  0  0  0  0  0
   -6.0139    1.8382    0.8983 C   0  0  0  0  0  0  0  0  0  0  0  0
   -5.8203    0.4855    1.1943 C   0  0  0  0  0  0  0  0  0  0  0  0
   -4.6304   -0.1588    0.8400 C   0  0  0  0  0  0  0  0  0  0  0  0
   -3.6160    0.5463    0.1920 C   0  0  0  0  0  0  0  0  0  0  0  0
   -2.2747   -0.1651   -0.2119 C   0  0  0  0  0  0  0  0  0  0  0  0
   -1.1639    0.4371   -0.7918 C   0  0  0  0  0  0  0  0  0  0  0  0
   -0.1693   -0.5228   -0.9748 N   0  0  0  0  0  4  0  0  0  0  0  0
    1.1845   -0.3073   -1.5047 C   0  0  0  0  0  0  0  0  0  0  0  0
    2.2519   -0.4253   -0.4058 C   0  0  0  0  0  0  0  0  0  0  0  0
    2.0239   -1.0800    0.6089 O   0  0  0  0  0  0  0  0  0  0  0  0
    3.4287    0.2398   -0.7161 N   0  0  0  0  0  0  0  0  0  0  0  0
    4.6027    0.3385    0.0746 C   0  0  0  0  0  0  0  0  0  0  0  0
    4.7038   -0.2346    1.3484 C   0  0  0  0  0  0  0  0  0  0  0  0
    5.8755   -0.1160    2.1012 C   0  0  0  0  0  0  0  0  0  0  0  0
    6.9644    0.5786    1.5925 C   0  0  0  0  0  0  0  0  0  0  0  0
    6.8831    1.1569    0.3291 C   0  0  0  0  0  0  0  0  0  0  0  0
    5.7116    1.0474   -0.4426 C   0  0  0  0  0  0  0  0  0  0  0  0
    5.7023    1.7004   -1.7997 C   0  0  0  0  0  0  0  0  0  0  0  0
   -0.6370   -1.6738   -0.4973 C   0  0  0  0  0  0  0  0  0  0  0  0
   -1.8910   -1.4882   -0.0925 N   0  0  0  0  0  0  0  0  0  0  0  0
   -2.4891   -2.7225    0.3959 C   0  0  0  0  0  0  0  0  0  0  0  0
   -1.5058   -3.8191   -0.0964 C   0  0  0  0  0  0  0  0  0  0  0  0
   -0.1787   -3.0758   -0.3460 C   0  0  0  0  0  0  0  0  0  0  0  0
   -3.7967    1.9056   -0.0885 C   0  0  0  0  0  0  0  0  0  0  0  0
   -4.9877    2.5462    0.2668 C   0  0  0  0  0  0  0  0  0  0  0  0
   -7.1737    2.9295    2.3257 H   0  0  0  0  0  0  0  0  0  0  0  0
   -8.1290    1.8445    1.2847 H   0  0  0  0  0  0  0  0  0  0  0  0
   -7.5098    3.3603    0.6305 H   0  0  0  0  0  0  0  0  0  0  0  0
   -6.5993   -0.0755    1.7086 H   0  0  0  0  0  0  0  0  0  0  0  0
   -4.5298   -1.2037    1.1023 H   0  0  0  0  0  0  0  0  0  0  0  0
   -0.9484    1.4493   -1.0886 H   0  0  0  0  0  0  0  0  0  0  0  0
    1.2271    0.6848   -1.9660 H   0  0  0  0  0  0  0  0  0  0  0  0
    1.3805   -1.0648   -2.2704 H   0  0  0  0  0  0  0  0  0  0  0  0
    3.4810    0.7090   -1.6109 H   0  0  0  0  0  0  0  0  0  0  0  0
    3.8874   -0.7856    1.8023 H   0  0  0  0  0  0  0  0  0  0  0  0
    5.9333   -0.5684    3.0886 H   0  0  0  0  0  0  0  0  0  0  0  0
    7.8759    0.6708    2.1783 H   0  0  0  0  0  0  0  0  0  0  0  0
    7.7482    1.6978   -0.0515 H   0  0  0  0  0  0  0  0  0  0  0  0
    4.9184    2.4631   -1.8483 H   0  0  0  0  0  0  0  0  0  0  0  0
    5.5366    0.9508   -2.5803 H   0  0  0  0  0  0  0  0  0  0  0  0
    6.6542    2.1957   -2.0191 H   0  0  0  0  0  0  0  0  0  0  0  0
   -3.4849   -2.8715   -0.0273 H   0  0  0  0  0  0  0  0  0  0  0  0
   -2.5279   -2.6875    1.4886 H   0  0  0  0  0  0  0  0  0  0  0  0
   -1.8729   -4.2249   -1.0467 H   0  0  0  0  0  0  0  0  0  0  0  0
   -1.4060   -4.6485    0.6087 H   0  0  0  0  0  0  0  0  0  0  0  0
    0.3313   -3.3864   -1.2584 H   0  0  0  0  0  0  0  0  0  0  0  0
    0.4762   -3.1099    0.5257 H   0  0  0  0  0  0  0  0  0  0  0  0
   -3.0351    2.5002   -0.5833 H   0  0  0  0  0  0  0  0  0  0  0  0
   -5.1123    3.6056    0.0470 H   0  0  0  0  0  0  0  0  0  0  0  0
  1  2  1  0
  2  3  2  0
  3  4  1  0
  4  5  2  0
  5  6  1  0
  6  7  2  0
  7  8  1  0
  8  9  1  0
  9 10  1  0
 10 11  2  0
 10 12  1  0
 12 13  1  0
 13 14  2  0
 14 15  1  0
 15 16  2  0
 16 17  1  0
 17 18  2  0
 18 19  1  0
  8 20  2  0
 20 21  1  0
 21 22  1  0
 22 23  1  0
 23 24  1  0
  5 25  1  0
 25 26  2  0
 26  2  1  0
 21  6  1  0
 18 13  1  0
 24 20  1  0
  1 27  1  0
  1 28  1  0
  1 29  1  0
  3 30  1  0
  4 31  1  0
  7 32  1  0
  9 33  1  0
  9 34  1  0
 12 35  1  0
 14 36  1  0
 15 37  1  0
 16 38  1  0
 17 39  1  0
 19 40  1  0
 19 41  1  0
 19 42  1  0
 22 43  1  0
 22 44  1  0
 23 45  1  0
 23 46  1  0
 24 47  1  0
 24 48  1  0
 25 49  1  0
 26 50  1  0
M  CHG  1   8   1
M  END
$$$$
