
     RDKit          3D

 40 40  0  0  0  0  0  0  0  0999 V2000
   -3.8426    3.0915    0.8243 C   0  0  0  0  0  0  0  0  0  0  0  0
   -2.5983    3.3750   -0.0030 C   0  0  0  0  0  0  0  0  0  0  0  0
   -1.3626    2.6087    0.4714 C   0  0  0  0  0  0  0  0  0  0  0  0
   -1.4905    1.0925    0.3155 C   0  0  0  0  0  0  0  0  0  0  0  0
   -0.2137    0.4924    0.6973 N   0  0  0  0  0  0  0  0  0  0  0  0
    0.0061   -0.7533    0.3950 C   0  0  0  0  0  0  0  0  0  0  0  0
    1.2150   -1.3717    0.6851 N   0  0  0  0  0  0  0  0  0  0  0  0
    2.3203   -0.6471    1.0640 N   0  0  0  0  0  0  0  0  0  0  0  0
    3.3432   -0.2914    0.1486 C   0  0  0  0  0  0  0  0  0  0  0  0
    4.3196    0.6310    0.5536 C   0  0  0  0  0  0  0  0  0  0  0  0
    5.3866    0.9658   -0.2857 C   0  0  0  0  0  0  0  0  0  0  0  0
    5.4960    0.3607   -1.5341 C   0  0  0  0  0  0  0  0  0  0  0  0
    6.9363    0.8079   -2.6729 Br  0  0  0  0  0  0  0  0  0  0  0  0
    4.5546   -0.5792   -1.9442 C   0  0  0  0  0  0  0  0  0  0  0  0
    3.4898   -0.9115   -1.0995 C   0  0  0  0  0  0  0  0  0  0  0  0
   -1.0336   -1.6433   -0.3103 C   0  0  0  0  0  0  0  0  0  0  0  0
   -0.8166   -2.1310   -1.4053 O   0  0  0  0  0  0  0  0  0  0  0  0
   -2.0962   -1.8410    0.4938 O   0  0  0  0  0  0  0  0  0  0  0  0
   -3.1237   -2.6888   -0.0354 C   0  0  0  0  0  0  0  0  0  0  0  0
   -2.8258   -4.1390    0.2961 C   0  0  0  0  0  0  0  0  0  0  0  0
   -4.1724    2.0547    0.7104 H   0  0  0  0  0  0  0  0  0  0  0  0
   -3.6607    3.2832    1.8864 H   0  0  0  0  0  0  0  0  0  0  0  0
   -4.6645    3.7376    0.4994 H   0  0  0  0  0  0  0  0  0  0  0  0
   -2.7998    3.1433   -1.0553 H   0  0  0  0  0  0  0  0  0  0  0  0
   -2.3822    4.4488    0.0491 H   0  0  0  0  0  0  0  0  0  0  0  0
   -0.4965    2.9563   -0.1064 H   0  0  0  0  0  0  0  0  0  0  0  0
   -1.1516    2.8559    1.5194 H   0  0  0  0  0  0  0  0  0  0  0  0
   -1.7455    0.8594   -0.7248 H   0  0  0  0  0  0  0  0  0  0  0  0
   -2.2835    0.7213    0.9725 H   0  0  0  0  0  0  0  0  0  0  0  0
    1.3834   -2.2850    0.2666 H   0  0  0  0  0  0  0  0  0  0  0  0
    2.0576    0.1735    1.6242 H   0  0  0  0  0  0  0  0  0  0  0  0
    4.2558    1.0978    1.5337 H   0  0  0  0  0  0  0  0  0  0  0  0
    6.1237    1.6911    0.0477 H   0  0  0  0  0  0  0  0  0  0  0  0
    4.6380   -1.0620   -2.9142 H   0  0  0  0  0  0  0  0  0  0  0  0
    2.7723   -1.6505   -1.4422 H   0  0  0  0  0  0  0  0  0  0  0  0
   -4.0639   -2.3877    0.4381 H   0  0  0  0  0  0  0  0  0  0  0  0
   -3.2449   -2.5423   -1.1150 H   0  0  0  0  0  0  0  0  0  0  0  0
   -3.6318   -4.7903   -0.0535 H   0  0  0  0  0  0  0  0  0  0  0  0
   -1.8885   -4.4629   -0.1672 H   0  0  0  0  0  0  0  0  0  0  0  0
   -2.7089   -4.2702    1.3769 H   0  0  0  0  0  0  0  0  0  0  0  0
  1  2  1  0
  2  3  1  0
  3  4  1  0
  4  5  1  0
  5  6  2  3
  6  7  1  0
  7  8  1  0
  8  9  1  0
  9 10  2  0
 10 11  1  0
 11 12  2  0
 12 13  1  0
 12 14  1  0
 14 15  2  0
  6 16  1  0
 16 17  2  0
 16 18  1  0
 18 19  1  0
 19 20  1  0
 15  9  1  0
  1 21  1  0
  1 22  1  0
  1 23  1  0
  2 24  1  0
  2 25  1  0
  3 26  1  0
  3 27  1  0
  4 28  1  0
  4 29  1  0
  7 30  1  0
  8 31  1  0
 10 32  1  0
 11 33  1  0
 14 34  1  0
 15 35  1  0
 19 36  1  0
 19 37  1  0
 20 38  1  0
 20 39  1  0
 20 40  1  0
M  END
$$$$
