
     RDKit          3D

 38 39  0  0  0  0  0  0  0  0999 V2000
   -4.0729    2.7776    0.6717 C   0  0  0  0  0  0  0  0  0  0  0  0
   -4.1761    1.9327   -0.5135 N   0  0  0  0  0  0  0  0  0  0  0  0
   -2.8872    1.3091   -0.8477 C   0  0  0  0  0  0  0  0  0  0  0  0
   -2.4553    0.2303    0.1250 C   0  0  0  0  0  0  0  0  0  0  0  0
   -3.3502   -0.8133    0.4273 C   0  0  0  0  0  0  0  0  0  0  0  0
   -2.9894   -1.8374    1.2998 C   0  0  0  0  0  0  0  0  0  0  0  0
   -1.7236   -1.8390    1.8744 C   0  0  0  0  0  0  0  0  0  0  0  0
   -0.8183   -0.8168    1.5802 C   0  0  0  0  0  0  0  0  0  0  0  0
   -1.1761    0.2233    0.7131 C   0  0  0  0  0  0  0  0  0  0  0  0
   -0.3331    1.2405    0.3453 O   0  0  0  0  0  0  0  0  0  0  0  0
    0.7859    1.5162    1.1819 C   0  0  0  0  0  0  0  0  0  0  0  0
    2.0616    0.7393    0.8306 C   0  0  0  0  0  0  0  0  0  0  0  0
    3.0120    0.7188    1.6074 O   0  0  0  0  0  0  0  0  0  0  0  0
    1.9921    0.1323   -0.4102 N   0  0  0  0  0  0  0  0  0  0  0  0
    2.9720   -0.6445   -1.0547 C   0  0  0  0  0  0  0  0  0  0  0  0
    4.2445   -0.8843   -0.5342 C   0  0  0  0  0  0  0  0  0  0  0  0
    5.1621   -1.6686   -1.2410 C   0  0  0  0  0  0  0  0  0  0  0  0
    4.8148   -2.2184   -2.4727 C   0  0  0  0  0  0  0  0  0  0  0  0
    3.5483   -1.9842   -3.0007 C   0  0  0  0  0  0  0  0  0  0  0  0
    2.6318   -1.2004   -2.2949 C   0  0  0  0  0  0  0  0  0  0  0  0
   -5.0388    3.2588    0.8553 H   0  0  0  0  0  0  0  0  0  0  0  0
   -3.8266    2.1975    1.5664 H   0  0  0  0  0  0  0  0  0  0  0  0
   -3.3265    3.5677    0.5389 H   0  0  0  0  0  0  0  0  0  0  0  0
   -4.4604    2.5146   -1.3002 H   0  0  0  0  0  0  0  0  0  0  0  0
   -2.9844    0.8321   -1.8313 H   0  0  0  0  0  0  0  0  0  0  0  0
   -2.1270    2.0885   -0.9702 H   0  0  0  0  0  0  0  0  0  0  0  0
   -4.3438   -0.8176   -0.0183 H   0  0  0  0  0  0  0  0  0  0  0  0
   -3.6952   -2.6319    1.5271 H   0  0  0  0  0  0  0  0  0  0  0  0
   -1.4353   -2.6411    2.5495 H   0  0  0  0  0  0  0  0  0  0  0  0
    0.1648   -0.8772    2.0369 H   0  0  0  0  0  0  0  0  0  0  0  0
    1.0254    2.5768    1.0427 H   0  0  0  0  0  0  0  0  0  0  0  0
    0.5455    1.3835    2.2434 H   0  0  0  0  0  0  0  0  0  0  0  0
    1.1006    0.2299   -0.8873 H   0  0  0  0  0  0  0  0  0  0  0  0
    4.5578   -0.4736    0.4202 H   0  0  0  0  0  0  0  0  0  0  0  0
    6.1500   -1.8476   -0.8239 H   0  0  0  0  0  0  0  0  0  0  0  0
    5.5305   -2.8276   -3.0184 H   0  0  0  0  0  0  0  0  0  0  0  0
    3.2721   -2.4116   -3.9611 H   0  0  0  0  0  0  0  0  0  0  0  0
    1.6487   -1.0346   -2.7278 H   0  0  0  0  0  0  0  0  0  0  0  0
  1  2  1  0
  2  3  1  0
  3  4  1  0
  4  5  2  0
  5  6  1  0
  6  7  2  0
  7  8  1  0
  8  9  2  0
  9 10  1  0
 10 11  1  0
 11 12  1  0
 12 13  2  0
 12 14  1  0
 14 15  1  0
 15 16  2  0
 16 17  1  0
 17 18  2  0
 18 19  1  0
 19 20  2  0
  9  4  1  0
 20 15  1  0
  1 21  1  0
  1 22  1  0
  1 23  1  0
  2 24  1  0
  3 25  1  0
  3 26  1  0
  5 27  1  0
  6 28  1  0
  7 29  1  0
  8 30  1  0
 11 31  1  0
 11 32  1  0
 14 33  1  0
 16 34  1  0
 17 35  1  0
 18 36  1  0
 19 37  1  0
 20 38  1  0
M  END
$$$$
