
     RDKit          3D

 36 39  0  0  0  0  0  0  0  0999 V2000
    5.4302    1.8576   -0.0086 C   0  0  0  0  0  0  0  0  0  0  0  0
    4.5198    0.6718   -0.1190 C   0  0  0  0  0  0  0  0  0  0  0  0
    5.0330   -0.6044   -0.3202 C   0  0  0  0  0  0  0  0  0  0  0  0
    4.1407   -1.6496   -0.4531 C   0  0  0  0  0  0  0  0  0  0  0  0
    2.7995   -1.5049   -0.4003 N   0  0  0  0  0  0  0  0  0  0  0  0
    2.2804   -0.2654   -0.2225 C   0  0  0  0  0  0  0  0  0  0  0  0
    0.8485   -0.1400   -0.1675 N   0  0  0  0  0  0  0  0  0  0  0  0
    0.2687    0.8516    0.6296 C   0  0  0  0  0  0  0  0  0  0  0  0
    0.8719    1.6803    1.3098 O   0  0  0  0  0  0  0  0  0  0  0  0
   -1.2137    0.8832    0.7119 C   0  0  0  0  0  0  0  0  0  0  0  0
   -1.8249    1.8739    1.4944 C   0  0  0  0  0  0  0  0  0  0  0  0
   -3.2050    1.8996    1.6397 C   0  0  0  0  0  0  0  0  0  0  0  0
   -3.9829    0.9325    1.0078 C   0  0  0  0  0  0  0  0  0  0  0  0
   -3.3999   -0.0790    0.2034 C   0  0  0  0  0  0  0  0  0  0  0  0
   -4.1269   -1.0981   -0.4676 C   0  0  0  0  0  0  0  0  0  0  0  0
   -5.5766   -1.1579   -0.3816 N   0  0  0  0  0  4  0  0  0  0  0  0
   -6.0663   -2.1788    0.1179 O   0  0  0  0  0  0  0  0  0  0  0  0
   -6.2121   -0.1952   -0.8301 O   0  0  0  0  0  1  0  0  0  0  0  0
   -3.5050   -2.0865   -1.2364 C   0  0  0  0  0  0  0  0  0  0  0  0
   -2.1226   -2.0601   -1.3685 C   0  0  0  0  0  0  0  0  0  0  0  0
   -1.3662   -1.0635   -0.7279 C   0  0  0  0  0  0  0  0  0  0  0  0
   -1.9831   -0.0866    0.0620 C   0  0  0  0  0  0  0  0  0  0  0  0
    0.1017   -1.0398   -0.9389 C   0  0  0  0  0  0  0  0  0  0  0  0
    0.5247   -1.7539   -1.8470 O   0  0  0  0  0  0  0  0  0  0  0  0
    3.1279    0.8375   -0.0844 C   0  0  0  0  0  0  0  0  0  0  0  0
    6.4042    1.5673    0.3993 H   0  0  0  0  0  0  0  0  0  0  0  0
    5.5809    2.3071   -0.9949 H   0  0  0  0  0  0  0  0  0  0  0  0
    5.0080    2.6109    0.6647 H   0  0  0  0  0  0  0  0  0  0  0  0
    6.1005   -0.7869   -0.3775 H   0  0  0  0  0  0  0  0  0  0  0  0
    4.4875   -2.6665   -0.6134 H   0  0  0  0  0  0  0  0  0  0  0  0
   -1.2246    2.6259    2.0052 H   0  0  0  0  0  0  0  0  0  0  0  0
   -3.6759    2.6673    2.2503 H   0  0  0  0  0  0  0  0  0  0  0  0
   -5.0617    0.9867    1.1548 H   0  0  0  0  0  0  0  0  0  0  0  0
   -4.0830   -2.8618   -1.7359 H   0  0  0  0  0  0  0  0  0  0  0  0
   -1.6300   -2.8170   -1.9794 H   0  0  0  0  0  0  0  0  0  0  0  0
    2.7323    1.8428    0.0188 H   0  0  0  0  0  0  0  0  0  0  0  0
  1  2  1  0
  2  3  2  0
  3  4  1  0
  4  5  2  0
  5  6  1  0
  6  7  1  0
  7  8  1  0
  8  9  2  0
  8 10  1  0
 10 11  2  0
 11 12  1  0
 12 13  2  0
 13 14  1  0
 14 15  2  0
 15 16  1  0
 16 17  2  0
 16 18  1  0
 15 19  1  0
 19 20  2  0
 20 21  1  0
 21 22  2  0
 21 23  1  0
 23 24  2  0
  6 25  2  0
 25  2  1  0
 23  7  1  0
 22 10  1  0
 22 14  1  0
  1 26  1  0
  1 27  1  0
  1 28  1  0
  3 29  1  0
  4 30  1  0
 11 31  1  0
 12 32  1  0
 13 33  1  0
 19 34  1  0
 20 35  1  0
 25 36  1  0
M  CHG  2  16   1  18  -1
M  END
$$$$
