
     RDKit          3D

 47 50  0  0  0  0  0  0  0  0999 V2000
    7.1134    1.5510   -2.0178 C   0  0  0  0  0  0  0  0  0  0  0  0
    6.5616    0.2636   -1.4583 C   0  0  0  0  0  0  0  0  0  0  0  0
    7.2755   -0.7243   -1.3300 O   0  0  0  0  0  0  0  0  0  0  0  0
    5.2255    0.3781   -1.1205 N   0  0  0  0  0  0  0  0  0  0  0  0
    4.3879   -0.6148   -0.5693 C   0  0  0  0  0  0  0  0  0  0  0  0
    4.8055   -1.9130   -0.2798 C   0  0  0  0  0  0  0  0  0  0  0  0
    3.9105   -2.8341    0.2670 C   0  0  0  0  0  0  0  0  0  0  0  0
    2.5914   -2.4630    0.5266 C   0  0  0  0  0  0  0  0  0  0  0  0
    2.1525   -1.1668    0.2405 C   0  0  0  0  0  0  0  0  0  0  0  0
    0.8061   -0.8631    0.5345 N   0  0  0  0  0  0  0  0  0  0  0  0
    0.1494    0.3308    0.3087 C   0  0  0  0  0  0  0  0  0  0  0  0
    0.5789    1.3342   -0.2437 O   0  0  0  0  0  0  0  0  0  0  0  0
   -1.2640    0.3347    0.7496 C   0  0  0  0  0  0  0  0  0  0  0  0
   -2.2174    0.5586   -0.2461 C   0  0  0  0  0  0  0  0  0  0  0  0
   -3.5570    0.5270    0.0987 C   0  0  0  0  0  0  0  0  0  0  0  0
   -4.6535    0.7350   -0.8661 C   0  0  0  0  0  0  0  0  0  0  0  0
   -4.5199    0.5265   -2.2480 C   0  0  0  0  0  0  0  0  0  0  0  0
   -5.5957    0.7449   -3.1109 C   0  0  0  0  0  0  0  0  0  0  0  0
   -6.7964    1.1686   -2.5724 C   0  0  0  0  0  0  0  0  0  0  0  0
   -6.9852    1.3785   -1.2560 N   0  0  0  0  0  0  0  0  0  0  0  0
   -5.9189    1.1545   -0.4441 C   0  0  0  0  0  0  0  0  0  0  0  0
   -3.9398    0.2947    1.3796 N   0  0  0  0  0  0  0  0  0  0  0  0
   -3.0229    0.1126    2.3435 C   0  0  0  0  0  0  0  0  0  0  0  0
   -3.4681   -0.0969    3.6424 C   0  0  0  0  0  0  0  0  0  0  0  0
   -2.5827   -0.2778    4.7082 C   0  0  0  0  0  0  0  0  0  0  0  0
   -1.2172   -0.2404    4.4719 C   0  0  0  0  0  0  0  0  0  0  0  0
   -0.1132   -0.4486    5.7719 Cl  0  0  0  0  0  0  0  0  0  0  0  0
   -0.7404   -0.0346    3.1800 C   0  0  0  0  0  0  0  0  0  0  0  0
   -1.6394    0.1291    2.0938 C   0  0  0  0  0  0  0  0  0  0  0  0
    3.0576   -0.2510   -0.3045 C   0  0  0  0  0  0  0  0  0  0  0  0
    6.4428    1.9524   -2.7842 H   0  0  0  0  0  0  0  0  0  0  0  0
    7.2334    2.2791   -1.2101 H   0  0  0  0  0  0  0  0  0  0  0  0
    8.0881    1.3619   -2.4790 H   0  0  0  0  0  0  0  0  0  0  0  0
    4.7916    1.2795   -1.2811 H   0  0  0  0  0  0  0  0  0  0  0  0
    5.8230   -2.2417   -0.4668 H   0  0  0  0  0  0  0  0  0  0  0  0
    4.2482   -3.8433    0.4901 H   0  0  0  0  0  0  0  0  0  0  0  0
    1.9194   -3.2029    0.9532 H   0  0  0  0  0  0  0  0  0  0  0  0
    0.2626   -1.6205    0.9327 H   0  0  0  0  0  0  0  0  0  0  0  0
   -1.8935    0.7615   -1.2620 H   0  0  0  0  0  0  0  0  0  0  0  0
   -3.5848    0.1776   -2.6776 H   0  0  0  0  0  0  0  0  0  0  0  0
   -5.4969    0.5839   -4.1788 H   0  0  0  0  0  0  0  0  0  0  0  0
   -7.6621    1.3525   -3.2019 H   0  0  0  0  0  0  0  0  0  0  0  0
   -6.1231    1.3378    0.6093 H   0  0  0  0  0  0  0  0  0  0  0  0
   -4.5397   -0.1145    3.8338 H   0  0  0  0  0  0  0  0  0  0  0  0
   -2.9705   -0.4361    5.7112 H   0  0  0  0  0  0  0  0  0  0  0  0
    0.3357    0.0164    3.0249 H   0  0  0  0  0  0  0  0  0  0  0  0
    2.7419    0.7622   -0.5285 H   0  0  0  0  0  0  0  0  0  0  0  0
  1  2  1  0
  2  3  2  0
  2  4  1  0
  4  5  1  0
  5  6  2  0
  6  7  1  0
  7  8  2  0
  8  9  1  0
  9 10  1  0
 10 11  1  0
 11 12  2  0
 11 13  1  0
 13 14  2  0
 14 15  1  0
 15 16  1  0
 16 17  2  0
 17 18  1  0
 18 19  2  0
 19 20  1  0
 20 21  2  0
 15 22  2  0
 22 23  1  0
 23 24  2  0
 24 25  1  0
 25 26  2  0
 26 27  1  0
 26 28  1  0
 28 29  2  0
  9 30  2  0
 30  5  1  0
 29 13  1  0
 21 16  1  0
 29 23  1  0
  1 31  1  0
  1 32  1  0
  1 33  1  0
  4 34  1  0
  6 35  1  0
  7 36  1  0
  8 37  1  0
 10 38  1  0
 14 39  1  0
 17 40  1  0
 18 41  1  0
 19 42  1  0
 21 43  1  0
 24 44  1  0
 25 45  1  0
 28 46  1  0
 30 47  1  0
M  END
$$$$
