
     RDKit          3D

 46 49  0  0  0  0  0  0  0  0999 V2000
   -0.6497   -2.6980   -1.5609 O   0  0  0  0  0  0  0  0  0  0  0  0
    0.1054   -2.1739   -0.7474 C   0  0  0  0  0  0  0  0  0  0  0  0
    1.4600   -2.7785   -0.4121 C   0  0  0  0  0  0  0  0  0  0  0  0
    2.8070   -1.7547   -1.0869 S   0  0  0  0  0  0  0  0  0  0  0  0
    3.3064   -0.8850    0.3895 C   0  0  0  0  0  0  0  0  0  0  0  0
    2.2835   -0.3235    1.0934 N   0  0  0  0  0  0  0  0  0  0  0  0
    2.5971    0.4003    2.1930 C   0  0  0  0  0  0  0  0  0  0  0  0
    3.8917    0.6149    2.6275 C   0  0  0  0  0  0  0  0  0  0  0  0
    4.9295    0.0471    1.8985 C   0  0  0  0  0  0  0  0  0  0  0  0
    4.6374   -0.7130    0.7619 C   0  0  0  0  0  0  0  0  0  0  0  0
    5.7425   -1.3553    0.0390 C   0  0  0  0  0  0  0  0  0  0  0  0
    5.8378   -2.5347   -0.2404 O   0  0  0  0  0  0  0  0  0  0  0  0
    6.7076   -0.4647   -0.2557 O   0  0  0  0  0  0  0  0  0  0  0  0
   -0.1976   -1.0366   -0.0256 N   0  0  0  0  0  0  0  0  0  0  0  0
   -1.3583   -0.1739   -0.2595 C   0  0  0  0  0  0  0  0  0  0  0  0
   -1.3024    0.4726   -1.6644 C   0  0  0  0  0  0  0  0  0  0  0  0
   -2.4930    1.4269   -1.8677 C   0  0  0  0  0  0  0  0  0  0  0  0
   -2.4436    2.5380   -0.8049 C   0  0  0  0  0  0  0  0  0  0  0  0
   -2.5216    1.9239    0.6026 C   0  0  0  0  0  0  0  0  0  0  0  0
   -3.8336    1.1370    0.7433 C   0  0  0  0  0  0  0  0  0  0  0  0
   -3.8906    0.0195   -0.3094 C   0  0  0  0  0  0  0  0  0  0  0  0
   -3.8054    0.6395   -1.7151 C   0  0  0  0  0  0  0  0  0  0  0  0
   -2.6996   -0.9348   -0.1053 C   0  0  0  0  0  0  0  0  0  0  0  0
   -1.3377    0.9643    0.7989 C   0  0  0  0  0  0  0  0  0  0  0  0
    1.5493   -2.9279    0.6673 H   0  0  0  0  0  0  0  0  0  0  0  0
    1.5170   -3.7684   -0.8801 H   0  0  0  0  0  0  0  0  0  0  0  0
    1.7508    0.8166    2.7326 H   0  0  0  0  0  0  0  0  0  0  0  0
    4.0896    1.2094    3.5117 H   0  0  0  0  0  0  0  0  0  0  0  0
    5.9591    0.1904    2.2170 H   0  0  0  0  0  0  0  0  0  0  0  0
    7.3898   -0.9962   -0.7233 H   0  0  0  0  0  0  0  0  0  0  0  0
    0.6137   -0.5984    0.4171 H   0  0  0  0  0  0  0  0  0  0  0  0
   -0.3590    1.0208   -1.7907 H   0  0  0  0  0  0  0  0  0  0  0  0
   -1.3171   -0.2963   -2.4469 H   0  0  0  0  0  0  0  0  0  0  0  0
   -2.4420    1.8707   -2.8699 H   0  0  0  0  0  0  0  0  0  0  0  0
   -3.2749    3.2386   -0.9557 H   0  0  0  0  0  0  0  0  0  0  0  0
   -1.5178    3.1165   -0.9109 H   0  0  0  0  0  0  0  0  0  0  0  0
   -2.4839    2.7195    1.3559 H   0  0  0  0  0  0  0  0  0  0  0  0
   -4.6900    1.8100    0.6223 H   0  0  0  0  0  0  0  0  0  0  0  0
   -3.9060    0.7060    1.7497 H   0  0  0  0  0  0  0  0  0  0  0  0
   -4.8296   -0.5355   -0.2078 H   0  0  0  0  0  0  0  0  0  0  0  0
   -3.8597   -0.1489   -2.4772 H   0  0  0  0  0  0  0  0  0  0  0  0
   -4.6621    1.3047   -1.8827 H   0  0  0  0  0  0  0  0  0  0  0  0
   -2.7587   -1.4016    0.8869 H   0  0  0  0  0  0  0  0  0  0  0  0
   -2.7768   -1.7510   -0.8335 H   0  0  0  0  0  0  0  0  0  0  0  0
   -0.3954    1.5254    0.7333 H   0  0  0  0  0  0  0  0  0  0  0  0
   -1.3689    0.5379    1.8110 H   0  0  0  0  0  0  0  0  0  0  0  0
  1  2  2  0
  2  3  1  0
  3  4  1  0
  4  5  1  0
  5  6  2  0
  6  7  1  0
  7  8  2  0
  8  9  1  0
  9 10  2  0
 10 11  1  0
 11 12  2  0
 11 13  1  0
  2 14  1  0
 14 15  1  0
 15 16  1  0
 16 17  1  0
 17 18  1  0
 18 19  1  0
 19 20  1  0
 20 21  1  0
 21 22  1  0
 21 23  1  0
 19 24  1  0
 10  5  1  0
 23 15  1  0
 24 15  1  0
 22 17  1  0
  3 25  1  0
  3 26  1  0
  7 27  1  0
  8 28  1  0
  9 29  1  0
 13 30  1  0
 14 31  1  0
 16 32  1  0
 16 33  1  0
 17 34  1  0
 18 35  1  0
 18 36  1  0
 19 37  1  0
 20 38  1  0
 20 39  1  0
 21 40  1  0
 22 41  1  0
 22 42  1  0
 23 43  1  0
 23 44  1  0
 24 45  1  0
 24 46  1  0
M  END
$$$$
