
     RDKit          3D

 56 59  0  0  0  0  0  0  0  0999 V2000
    1.7493    1.6875   -0.0160 C   0  0  0  0  0  0  0  0  0  0  0  0
    2.6023    0.5111   -0.4950 C   0  0  0  0  0  0  0  0  0  0  0  0
    3.7579    0.9405   -1.4179 C   0  0  0  0  0  0  0  0  0  0  0  0
    4.7808    1.9012   -0.7940 C   0  0  0  0  0  0  0  0  0  0  0  0
    5.4565    1.3710    0.4480 C   0  0  0  0  0  0  0  0  0  0  0  0
    5.2869    2.0222    1.6783 C   0  0  0  0  0  0  0  0  0  0  0  0
    5.8984    1.5286    2.8336 C   0  0  0  0  0  0  0  0  0  0  0  0
    6.6876    0.3824    2.7709 C   0  0  0  0  0  0  0  0  0  0  0  0
    6.8712   -0.2688    1.5526 C   0  0  0  0  0  0  0  0  0  0  0  0
    6.2614    0.2234    0.3960 C   0  0  0  0  0  0  0  0  0  0  0  0
    1.7538   -0.4424   -1.2110 N   0  0  0  0  0  0  0  0  0  0  0  0
    0.9476   -1.3360   -0.5249 C   0  0  0  0  0  0  0  0  0  0  0  0
    0.9958   -1.4981    0.6934 O   0  0  0  0  0  0  0  0  0  0  0  0
   -0.0431   -2.0982   -1.4097 C   0  0  0  0  0  0  0  0  0  0  0  0
   -1.3876   -1.9412   -0.9538 O   0  0  0  0  0  0  0  0  0  0  0  0
   -1.8919   -0.6994   -1.1740 C   0  0  0  0  0  0  0  0  0  0  0  0
   -1.3439    0.2209   -1.7561 O   0  0  0  0  0  0  0  0  0  0  0  0
   -3.2345   -0.6351   -0.5749 C   0  0  0  0  0  0  0  0  0  0  0  0
   -4.3613   -0.9015   -1.4001 C   0  0  0  0  0  0  0  0  0  0  0  0
   -4.2888   -1.2103   -2.7815 C   0  0  0  0  0  0  0  0  0  0  0  0
   -5.4363   -1.4799   -3.5327 C   0  0  0  0  0  0  0  0  0  0  0  0
   -6.6848   -1.4467   -2.9242 C   0  0  0  0  0  0  0  0  0  0  0  0
   -6.7848   -1.1359   -1.5686 C   0  0  0  0  0  0  0  0  0  0  0  0
   -5.6395   -0.8594   -0.8010 C   0  0  0  0  0  0  0  0  0  0  0  0
   -5.7607   -0.5430    0.5621 C   0  0  0  0  0  0  0  0  0  0  0  0
   -4.6416   -0.2650    1.3658 C   0  0  0  0  0  0  0  0  0  0  0  0
   -4.8056    0.0520    2.7253 C   0  0  0  0  0  0  0  0  0  0  0  0
   -3.7055    0.3267    3.5389 C   0  0  0  0  0  0  0  0  0  0  0  0
   -2.4248    0.2845    3.0043 C   0  0  0  0  0  0  0  0  0  0  0  0
   -2.2472   -0.0264    1.6555 C   0  0  0  0  0  0  0  0  0  0  0  0
   -3.3466   -0.3090    0.8046 C   0  0  0  0  0  0  0  0  0  0  0  0
    2.3358    2.4179    0.5465 H   0  0  0  0  0  0  0  0  0  0  0  0
    0.9494    1.3381    0.6448 H   0  0  0  0  0  0  0  0  0  0  0  0
    1.2790    2.2021   -0.8601 H   0  0  0  0  0  0  0  0  0  0  0  0
    3.0081   -0.0063    0.3839 H   0  0  0  0  0  0  0  0  0  0  0  0
    4.2769    0.0371   -1.7718 H   0  0  0  0  0  0  0  0  0  0  0  0
    3.3469    1.4177   -2.3183 H   0  0  0  0  0  0  0  0  0  0  0  0
    5.5613    2.1190   -1.5359 H   0  0  0  0  0  0  0  0  0  0  0  0
    4.3024    2.8655   -0.5862 H   0  0  0  0  0  0  0  0  0  0  0  0
    4.6711    2.9171    1.7491 H   0  0  0  0  0  0  0  0  0  0  0  0
    5.7526    2.0381    3.7831 H   0  0  0  0  0  0  0  0  0  0  0  0
    7.1582   -0.0036    3.6710 H   0  0  0  0  0  0  0  0  0  0  0  0
    7.4875   -1.1629    1.5033 H   0  0  0  0  0  0  0  0  0  0  0  0
    6.4181   -0.2977   -0.5456 H   0  0  0  0  0  0  0  0  0  0  0  0
    1.4048   -0.1351   -2.1140 H   0  0  0  0  0  0  0  0  0  0  0  0
    0.0363   -1.7959   -2.4639 H   0  0  0  0  0  0  0  0  0  0  0  0
    0.2140   -3.1636   -1.3612 H   0  0  0  0  0  0  0  0  0  0  0  0
   -3.3289   -1.2381   -3.2945 H   0  0  0  0  0  0  0  0  0  0  0  0
   -5.3518   -1.7142   -4.5911 H   0  0  0  0  0  0  0  0  0  0  0  0
   -7.5813   -1.6594   -3.5023 H   0  0  0  0  0  0  0  0  0  0  0  0
   -7.7726   -1.1132   -1.1111 H   0  0  0  0  0  0  0  0  0  0  0  0
   -6.7537   -0.5091    1.0104 H   0  0  0  0  0  0  0  0  0  0  0  0
   -5.8015    0.0849    3.1658 H   0  0  0  0  0  0  0  0  0  0  0  0
   -3.8497    0.5679    4.5880 H   0  0  0  0  0  0  0  0  0  0  0  0
   -1.5590    0.4911    3.6299 H   0  0  0  0  0  0  0  0  0  0  0  0
   -1.2250   -0.0532    1.2778 H   0  0  0  0  0  0  0  0  0  0  0  0
  1  2  1  0
  2  3  1  0
  3  4  1  0
  4  5  1  0
  5  6  2  0
  6  7  1  0
  7  8  2  0
  8  9  1  0
  9 10  2  0
  2 11  1  0
 11 12  1  0
 12 13  2  0
 12 14  1  0
 14 15  1  0
 15 16  1  0
 16 17  2  0
 16 18  1  0
 18 19  1  0
 19 20  2  0
 20 21  1  0
 21 22  2  0
 22 23  1  0
 23 24  2  0
 24 25  1  0
 25 26  2  0
 26 27  1  0
 27 28  2  0
 28 29  1  0
 29 30  2  0
 30 31  1  0
 10  5  1  0
 31 18  2  0
 24 19  1  0
 31 26  1  0
  1 32  1  0
  1 33  1  0
  1 34  1  0
  2 35  1  0
  3 36  1  0
  3 37  1  0
  4 38  1  0
  4 39  1  0
  6 40  1  0
  7 41  1  0
  8 42  1  0
  9 43  1  0
 10 44  1  0
 11 45  1  0
 14 46  1  0
 14 47  1  0
 20 48  1  0
 21 49  1  0
 22 50  1  0
 23 51  1  0
 25 52  1  0
 27 53  1  0
 28 54  1  0
 29 55  1  0
 30 56  1  0
M  END
$$$$
