
     RDKit          3D

 30 31  0  0  0  0  0  0  0  0999 V2000
    0.7271    0.3334    2.5704 O   0  0  0  0  0  0  0  0  0  0  0  0
    0.4589    0.9930    1.5705 C   0  0  0  0  0  0  0  0  0  0  0  0
   -0.7652    1.9119    1.4939 C   0  0  0  0  0  0  0  0  0  0  0  0
   -1.3455    2.0406    0.1987 O   0  0  0  0  0  0  0  0  0  0  0  0
   -1.8956    0.8942   -0.3164 C   0  0  0  0  0  0  0  0  0  0  0  0
   -2.7733    0.0888    0.4138 C   0  0  0  0  0  0  0  0  0  0  0  0
   -3.3218   -1.0561   -0.1716 C   0  0  0  0  0  0  0  0  0  0  0  0
   -3.0057   -1.3860   -1.4888 C   0  0  0  0  0  0  0  0  0  0  0  0
   -3.6813   -2.7993   -2.1988 Cl  0  0  0  0  0  0  0  0  0  0  0  0
   -2.1508   -0.5798   -2.2344 C   0  0  0  0  0  0  0  0  0  0  0  0
   -1.6032    0.5624   -1.6489 C   0  0  0  0  0  0  0  0  0  0  0  0
   -0.5220    1.5265   -2.5916 Cl  0  0  0  0  0  0  0  0  0  0  0  0
    1.2433    0.9945    0.4394 N   0  0  0  0  0  0  0  0  0  0  0  0
    2.5076    0.2746    0.3750 C   0  0  0  0  0  0  0  0  0  0  0  0
    2.3470   -1.2442    0.2998 C   0  0  0  0  0  0  0  0  0  0  0  0
    2.1139   -1.6197   -1.1508 C   0  0  0  0  0  0  0  0  0  0  0  0
    3.3280   -0.6262   -2.0549 S   0  0  0  0  0  0  0  0  0  0  0  0
    3.2649    0.6858   -0.8814 C   0  0  0  0  0  0  0  0  0  0  0  0
    3.6680    1.8129   -1.1277 O   0  0  0  0  0  0  0  0  0  0  0  0
   -1.5055    1.6049    2.2398 H   0  0  0  0  0  0  0  0  0  0  0  0
   -0.4228    2.9105    1.7892 H   0  0  0  0  0  0  0  0  0  0  0  0
   -3.0640    0.3408    1.4294 H   0  0  0  0  0  0  0  0  0  0  0  0
   -4.0023   -1.6805    0.4030 H   0  0  0  0  0  0  0  0  0  0  0  0
   -1.9127   -0.8377   -3.2627 H   0  0  0  0  0  0  0  0  0  0  0  0
    1.0373    1.6893   -0.2773 H   0  0  0  0  0  0  0  0  0  0  0  0
    3.1004    0.5440    1.2563 H   0  0  0  0  0  0  0  0  0  0  0  0
    1.5316   -1.6156    0.9291 H   0  0  0  0  0  0  0  0  0  0  0  0
    3.2674   -1.7262    0.6570 H   0  0  0  0  0  0  0  0  0  0  0  0
    1.1049   -1.3498   -1.4761 H   0  0  0  0  0  0  0  0  0  0  0  0
    2.2713   -2.6869   -1.3276 H   0  0  0  0  0  0  0  0  0  0  0  0
  1  2  2  0
  2  3  1  0
  3  4  1  0
  4  5  1  0
  5  6  2  0
  6  7  1  0
  7  8  2  0
  8  9  1  0
  8 10  1  0
 10 11  2  0
 11 12  1  0
  2 13  1  0
 13 14  1  0
 14 15  1  0
 15 16  1  0
 16 17  1  0
 17 18  1  0
 18 19  2  0
 11  5  1  0
 18 14  1  0
  3 20  1  0
  3 21  1  0
  6 22  1  0
  7 23  1  0
 10 24  1  0
 13 25  1  0
 14 26  1  0
 15 27  1  0
 15 28  1  0
 16 29  1  0
 16 30  1  0
M  END
$$$$
