
     RDKit          3D

 48 49  0  0  0  0  0  0  0  0999 V2000
    0.9144    3.6447    0.3386 C   0  0  0  0  0  0  0  0  0  0  0  0
    1.5976    2.4065    0.1950 O   0  0  0  0  0  0  0  0  0  0  0  0
    0.8857    1.2616    0.4458 C   0  0  0  0  0  0  0  0  0  0  0  0
   -0.5060    1.2073    0.5849 C   0  0  0  0  0  0  0  0  0  0  0  0
   -1.1558   -0.0084    0.8599 C   0  0  0  0  0  0  0  0  0  0  0  0
   -2.6617   -0.0659    0.9968 C   0  0  0  0  0  0  0  0  0  0  0  0
   -3.2498   -0.6593   -0.2007 N   0  0  0  0  0  0  0  0  0  0  0  0
   -4.7276   -0.7255   -0.2301 C   0  0  0  0  0  0  0  0  0  0  0  0
   -5.3479    0.6827   -0.3096 C   0  0  0  0  0  0  0  0  0  0  0  0
   -5.0797   -1.4701   -1.5359 C   0  0  0  0  0  0  0  0  0  0  0  0
   -5.3155   -1.5035    0.9812 C   0  0  0  0  0  0  0  0  0  0  0  0
   -6.7279   -1.6741    0.8873 O   0  0  0  0  0  0  0  0  0  0  0  0
   -0.3947   -1.1797    0.9831 C   0  0  0  0  0  0  0  0  0  0  0  0
    0.9919   -1.1374    0.8387 C   0  0  0  0  0  0  0  0  0  0  0  0
    1.9645   -2.7559    1.0297 Br  0  0  0  0  0  0  0  0  0  0  0  0
    1.6305    0.0740    0.5505 C   0  0  0  0  0  0  0  0  0  0  0  0
    3.0013    0.1057    0.4462 O   0  0  0  0  0  0  0  0  0  0  0  0
    3.3984    0.1442   -0.9273 C   0  0  0  0  0  0  0  0  0  0  0  0
    4.8930   -0.0600   -0.9824 C   0  0  0  0  0  0  0  0  0  0  0  0
    5.7621    1.0289   -0.8181 C   0  0  0  0  0  0  0  0  0  0  0  0
    7.1456    0.8412   -0.8496 C   0  0  0  0  0  0  0  0  0  0  0  0
    7.6660   -0.4377   -1.0357 C   0  0  0  0  0  0  0  0  0  0  0  0
    9.3709   -0.6693   -1.0744 Cl  0  0  0  0  0  0  0  0  0  0  0  0
    6.8156   -1.5311   -1.1853 C   0  0  0  0  0  0  0  0  0  0  0  0
    5.4318   -1.3435   -1.1540 C   0  0  0  0  0  0  0  0  0  0  0  0
    0.4627    3.7393    1.3318 H   0  0  0  0  0  0  0  0  0  0  0  0
    1.6506    4.4469    0.2301 H   0  0  0  0  0  0  0  0  0  0  0  0
    0.1664    3.7716   -0.4506 H   0  0  0  0  0  0  0  0  0  0  0  0
   -1.1120    2.1023    0.4817 H   0  0  0  0  0  0  0  0  0  0  0  0
   -3.0437    0.9455    1.1724 H   0  0  0  0  0  0  0  0  0  0  0  0
   -2.8925   -0.6578    1.8897 H   0  0  0  0  0  0  0  0  0  0  0  0
   -2.9193   -0.1427   -1.0164 H   0  0  0  0  0  0  0  0  0  0  0  0
   -6.4265    0.6310   -0.4981 H   0  0  0  0  0  0  0  0  0  0  0  0
   -4.9043    1.2686   -1.1231 H   0  0  0  0  0  0  0  0  0  0  0  0
   -5.2093    1.2420    0.6216 H   0  0  0  0  0  0  0  0  0  0  0  0
   -6.1627   -1.5198   -1.6946 H   0  0  0  0  0  0  0  0  0  0  0  0
   -4.6978   -2.4978   -1.5221 H   0  0  0  0  0  0  0  0  0  0  0  0
   -4.6525   -0.9674   -2.4124 H   0  0  0  0  0  0  0  0  0  0  0  0
   -4.8574   -2.4950    1.0756 H   0  0  0  0  0  0  0  0  0  0  0  0
   -5.1304   -0.9644    1.9159 H   0  0  0  0  0  0  0  0  0  0  0  0
   -6.8899   -2.4059    0.2673 H   0  0  0  0  0  0  0  0  0  0  0  0
   -0.8957   -2.1243    1.1862 H   0  0  0  0  0  0  0  0  0  0  0  0
    3.1487    1.1097   -1.3839 H   0  0  0  0  0  0  0  0  0  0  0  0
    2.8977   -0.6420   -1.5084 H   0  0  0  0  0  0  0  0  0  0  0  0
    5.3610    2.0273   -0.6552 H   0  0  0  0  0  0  0  0  0  0  0  0
    7.8081    1.6927   -0.7216 H   0  0  0  0  0  0  0  0  0  0  0  0
    7.2209   -2.5302   -1.3192 H   0  0  0  0  0  0  0  0  0  0  0  0
    4.7753   -2.2052   -1.2557 H   0  0  0  0  0  0  0  0  0  0  0  0
  1  2  1  0
  2  3  1  0
  3  4  2  0
  4  5  1  0
  5  6  1  0
  6  7  1  0
  7  8  1  0
  8  9  1  0
  8 10  1  0
  8 11  1  0
 11 12  1  0
  5 13  2  0
 13 14  1  0
 14 15  1  0
 14 16  2  0
 16 17  1  0
 17 18  1  0
 18 19  1  0
 19 20  2  0
 20 21  1  0
 21 22  2  0
 22 23  1  0
 22 24  1  0
 24 25  2  0
 16  3  1  0
 25 19  1  0
  1 26  1  0
  1 27  1  0
  1 28  1  0
  4 29  1  0
  6 30  1  0
  6 31  1  0
  7 32  1  0
  9 33  1  0
  9 34  1  0
  9 35  1  0
 10 36  1  0
 10 37  1  0
 10 38  1  0
 11 39  1  0
 11 40  1  0
 12 41  1  0
 13 42  1  0
 18 43  1  0
 18 44  1  0
 20 45  1  0
 21 46  1  0
 24 47  1  0
 25 48  1  0
M  END
$$$$
