
     RDKit          3D

 38 40  0  0  0  0  0  0  0  0999 V2000
    0.1982    1.9587    0.7936 O   0  0  0  0  0  0  0  0  0  0  0  0
   -0.1098    2.0912   -0.3833 C   0  0  0  0  0  0  0  0  0  0  0  0
   -1.5239    2.1804   -0.9128 C   0  0  0  0  0  0  0  0  0  0  0  0
   -2.4727    1.2236   -0.2296 C   0  0  0  0  0  0  0  0  0  0  0  0
   -2.6682   -0.0654   -0.7438 C   0  0  0  0  0  0  0  0  0  0  0  0
   -3.5269   -0.9596   -0.1039 C   0  0  0  0  0  0  0  0  0  0  0  0
   -4.1953   -0.5769    1.0591 C   0  0  0  0  0  0  0  0  0  0  0  0
   -4.0131    0.7069    1.5952 C   0  0  0  0  0  0  0  0  0  0  0  0
   -4.7148    1.1057    2.8704 C   0  0  0  0  0  0  0  0  0  0  0  0
   -5.9825    0.6091    2.9533 F   0  0  0  0  0  0  0  0  0  0  0  0
   -4.8367    2.4562    3.0200 F   0  0  0  0  0  0  0  0  0  0  0  0
   -4.0679    0.6609    3.9831 F   0  0  0  0  0  0  0  0  0  0  0  0
   -3.1405    1.5970    0.9464 C   0  0  0  0  0  0  0  0  0  0  0  0
    0.7759    2.2136   -1.4085 O   0  0  0  0  0  0  0  0  0  0  0  0
    2.1522    2.0798   -1.0441 C   0  0  0  0  0  0  0  0  0  0  0  0
    2.4830    0.7136   -0.7326 N   0  0  0  0  0  0  0  0  0  0  0  0
    3.3559    0.3775    0.2641 C   0  0  0  0  0  0  0  0  0  0  0  0
    3.9548    1.0977    1.0404 O   0  0  0  0  0  0  0  0  0  0  0  0
    3.5278   -1.0727    0.1926 C   0  0  0  0  0  0  0  0  0  0  0  0
    4.2592   -1.9293    0.9913 C   0  0  0  0  0  0  0  0  0  0  0  0
    4.2438   -3.2870    0.6529 C   0  0  0  0  0  0  0  0  0  0  0  0
    3.5142   -3.7470   -0.4642 C   0  0  0  0  0  0  0  0  0  0  0  0
    2.7857   -2.8572   -1.2605 C   0  0  0  0  0  0  0  0  0  0  0  0
    2.8126   -1.5230   -0.9022 C   0  0  0  0  0  0  0  0  0  0  0  0
    2.1798   -0.3596   -1.5223 C   0  0  0  0  0  0  0  0  0  0  0  0
    1.5356   -0.4091   -2.5523 O   0  0  0  0  0  0  0  0  0  0  0  0
   -1.5271    1.9745   -1.9906 H   0  0  0  0  0  0  0  0  0  0  0  0
   -1.8683    3.2139   -0.7915 H   0  0  0  0  0  0  0  0  0  0  0  0
   -2.1488   -0.3831   -1.6468 H   0  0  0  0  0  0  0  0  0  0  0  0
   -3.6720   -1.9577   -0.5108 H   0  0  0  0  0  0  0  0  0  0  0  0
   -4.8594   -1.2865    1.5524 H   0  0  0  0  0  0  0  0  0  0  0  0
   -2.9741    2.5884    1.3690 H   0  0  0  0  0  0  0  0  0  0  0  0
    2.4094    2.7574   -0.2213 H   0  0  0  0  0  0  0  0  0  0  0  0
    2.7456    2.3731   -1.9169 H   0  0  0  0  0  0  0  0  0  0  0  0
    4.8196   -1.5607    1.8443 H   0  0  0  0  0  0  0  0  0  0  0  0
    4.8042   -3.9991    1.2564 H   0  0  0  0  0  0  0  0  0  0  0  0
    3.5199   -4.8087   -0.7075 H   0  0  0  0  0  0  0  0  0  0  0  0
    2.2243   -3.1965   -2.1247 H   0  0  0  0  0  0  0  0  0  0  0  0
  1  2  2  0
  2  3  1  0
  3  4  1  0
  4  5  2  0
  5  6  1  0
  6  7  2  0
  7  8  1  0
  8  9  1  0
  9 10  1  0
  9 11  1  0
  9 12  1  0
  8 13  2  0
  2 14  1  0
 14 15  1  0
 15 16  1  0
 16 17  1  0
 17 18  2  0
 17 19  1  0
 19 20  2  0
 20 21  1  0
 21 22  2  0
 22 23  1  0
 23 24  2  0
 24 25  1  0
 25 26  2  0
 13  4  1  0
 25 16  1  0
 24 19  1  0
  3 27  1  0
  3 28  1  0
  5 29  1  0
  6 30  1  0
  7 31  1  0
 13 32  1  0
 15 33  1  0
 15 34  1  0
 20 35  1  0
 21 36  1  0
 22 37  1  0
 23 38  1  0
M  END
$$$$
