
     RDKit          3D

 70 72  0  0  0  0  0  0  0  0999 V2000
   -2.7325   -1.6927   -3.4110 C   0  0  0  0  0  0  0  0  0  0  0  0
   -1.9214   -0.4690   -2.9269 C   0  0  0  0  0  0  0  0  0  0  0  0
   -2.6116    0.8335   -3.3853 C   0  0  0  0  0  0  0  0  0  0  0  0
   -0.5693   -0.5311   -3.6871 C   0  0  0  0  0  0  0  0  0  0  0  0
   -1.7702   -0.4913   -1.3856 C   0  0  0  0  0  0  0  0  0  0  0  0
   -0.4958   -0.4959   -0.7901 C   0  0  0  0  0  0  0  0  0  0  0  0
   -0.3102   -0.5564    0.5989 C   0  0  0  0  0  0  0  0  0  0  0  0
    1.0793   -0.5930    1.2585 C   0  0  0  0  0  0  0  0  0  0  0  0
    1.7074   -1.9794    1.3823 C   0  0  0  0  0  0  0  0  0  0  0  0
    2.7902   -2.1808    2.2542 C   0  0  0  0  0  0  0  0  0  0  0  0
    3.3749   -3.4379    2.3742 C   0  0  0  0  0  0  0  0  0  0  0  0
    2.8580   -4.4721    1.6157 C   0  0  0  0  0  0  0  0  0  0  0  0
    1.8194   -4.3304    0.7669 N   0  0  0  0  0  0  0  0  0  0  0  0
    1.2692   -3.0947    0.6719 C   0  0  0  0  0  0  0  0  0  0  0  0
    2.0346    0.4428    0.8181 N   0  0  0  0  0  0  0  0  0  0  0  0
    1.5242    1.8117    0.8217 C   0  0  0  0  0  0  0  0  0  0  0  0
    2.6429    2.8750    0.6504 C   0  0  0  0  0  0  0  0  0  0  0  0
    3.7885    2.4704   -0.1939 N   0  0  0  0  0  0  0  0  0  0  0  0
    4.3866    3.6050   -0.9214 C   0  0  0  0  0  0  0  0  0  0  0  0
    5.0611    4.5981    0.0376 C   0  0  0  0  0  0  0  0  0  0  0  0
    5.9568    3.9018    0.9024 O   0  0  0  0  0  0  0  0  0  0  0  0
    3.4013    1.3831   -1.1034 C   0  0  0  0  0  0  0  0  0  0  0  0
    2.9007    0.1388   -0.3255 C   0  0  0  0  0  0  0  0  0  0  0  0
   -1.4519   -0.6375    1.4169 C   0  0  0  0  0  0  0  0  0  0  0  0
   -2.7596   -0.6309    0.8987 C   0  0  0  0  0  0  0  0  0  0  0  0
   -3.9848   -0.7512    1.8386 C   0  0  0  0  0  0  0  0  0  0  0  0
   -4.8522   -1.9713    1.4537 C   0  0  0  0  0  0  0  0  0  0  0  0
   -4.8356    0.5362    1.7854 C   0  0  0  0  0  0  0  0  0  0  0  0
   -3.6073   -0.9555    3.3304 C   0  0  0  0  0  0  0  0  0  0  0  0
   -2.8773   -0.5305   -0.5068 C   0  0  0  0  0  0  0  0  0  0  0  0
   -4.1312   -0.4574   -1.0472 O   0  0  0  0  0  0  0  0  0  0  0  0
   -2.2879   -2.6270   -3.0481 H   0  0  0  0  0  0  0  0  0  0  0  0
   -3.7741   -1.6731   -3.0790 H   0  0  0  0  0  0  0  0  0  0  0  0
   -2.7591   -1.7413   -4.5060 H   0  0  0  0  0  0  0  0  0  0  0  0
   -2.6308    0.9045   -4.4794 H   0  0  0  0  0  0  0  0  0  0  0  0
   -2.0827    1.7147   -3.0039 H   0  0  0  0  0  0  0  0  0  0  0  0
   -3.6510    0.9041   -3.0546 H   0  0  0  0  0  0  0  0  0  0  0  0
   -0.0087   -1.4408   -3.4419 H   0  0  0  0  0  0  0  0  0  0  0  0
   -0.7255   -0.5365   -4.7727 H   0  0  0  0  0  0  0  0  0  0  0  0
    0.0623    0.3369   -3.4644 H   0  0  0  0  0  0  0  0  0  0  0  0
    0.3880   -0.4633   -1.4128 H   0  0  0  0  0  0  0  0  0  0  0  0
    0.8834   -0.3219    2.3081 H   0  0  0  0  0  0  0  0  0  0  0  0
    3.1865   -1.3477    2.8318 H   0  0  0  0  0  0  0  0  0  0  0  0
    4.2146   -3.6029    3.0398 H   0  0  0  0  0  0  0  0  0  0  0  0
    3.2777   -5.4722    1.6710 H   0  0  0  0  0  0  0  0  0  0  0  0
    0.4346   -3.0471   -0.0218 H   0  0  0  0  0  0  0  0  0  0  0  0
    0.8015    1.9479    0.0077 H   0  0  0  0  0  0  0  0  0  0  0  0
    0.9981    2.0251    1.7603 H   0  0  0  0  0  0  0  0  0  0  0  0
    2.1659    3.7849    0.2625 H   0  0  0  0  0  0  0  0  0  0  0  0
    3.0412    3.1186    1.6431 H   0  0  0  0  0  0  0  0  0  0  0  0
    3.6507    4.1194   -1.5508 H   0  0  0  0  0  0  0  0  0  0  0  0
    5.1709    3.2141   -1.5821 H   0  0  0  0  0  0  0  0  0  0  0  0
    5.6331    5.3435   -0.5224 H   0  0  0  0  0  0  0  0  0  0  0  0
    4.3267    5.1241    0.6560 H   0  0  0  0  0  0  0  0  0  0  0  0
    5.5291    3.0337    1.0540 H   0  0  0  0  0  0  0  0  0  0  0  0
    2.6186    1.7254   -1.7936 H   0  0  0  0  0  0  0  0  0  0  0  0
    4.2594    1.0747   -1.7131 H   0  0  0  0  0  0  0  0  0  0  0  0
    3.7828   -0.3889    0.0579 H   0  0  0  0  0  0  0  0  0  0  0  0
    2.4299   -0.5354   -1.0457 H   0  0  0  0  0  0  0  0  0  0  0  0
   -1.2878   -0.7162    2.4889 H   0  0  0  0  0  0  0  0  0  0  0  0
   -5.3167   -1.8725    0.4690 H   0  0  0  0  0  0  0  0  0  0  0  0
   -4.2552   -2.8908    1.4470 H   0  0  0  0  0  0  0  0  0  0  0  0
   -5.6720   -2.1132    2.1681 H   0  0  0  0  0  0  0  0  0  0  0  0
   -4.2235    1.4218    1.9935 H   0  0  0  0  0  0  0  0  0  0  0  0
   -5.3176    0.6876    0.8165 H   0  0  0  0  0  0  0  0  0  0  0  0
   -5.6412    0.5074    2.5287 H   0  0  0  0  0  0  0  0  0  0  0  0
   -3.0114   -1.8644    3.4752 H   0  0  0  0  0  0  0  0  0  0  0  0
   -3.0426   -0.1031    3.7262 H   0  0  0  0  0  0  0  0  0  0  0  0
   -4.5029   -1.0578    3.9556 H   0  0  0  0  0  0  0  0  0  0  0  0
   -4.3488    0.4904   -1.0610 H   0  0  0  0  0  0  0  0  0  0  0  0
  1  2  1  0
  2  3  1  0
  2  4  1  0
  2  5  1  0
  5  6  2  0
  6  7  1  0
  7  8  1  0
  8  9  1  0
  9 10  2  0
 10 11  1  0
 11 12  2  0
 12 13  1  0
 13 14  2  0
  8 15  1  0
 15 16  1  0
 16 17  1  0
 17 18  1  0
 18 19  1  0
 19 20  1  0
 20 21  1  0
 18 22  1  0
 22 23  1  0
  7 24  2  0
 24 25  1  0
 25 26  1  0
 26 27  1  0
 26 28  1  0
 26 29  1  0
 25 30  2  0
 30 31  1  0
 30  5  1  0
 14  9  1  0
 23 15  1  0
  1 32  1  0
  1 33  1  0
  1 34  1  0
  3 35  1  0
  3 36  1  0
  3 37  1  0
  4 38  1  0
  4 39  1  0
  4 40  1  0
  6 41  1  0
  8 42  1  0
 10 43  1  0
 11 44  1  0
 12 45  1  0
 14 46  1  0
 16 47  1  0
 16 48  1  0
 17 49  1  0
 17 50  1  0
 19 51  1  0
 19 52  1  0
 20 53  1  0
 20 54  1  0
 21 55  1  0
 22 56  1  0
 22 57  1  0
 23 58  1  0
 23 59  1  0
 24 60  1  0
 27 61  1  0
 27 62  1  0
 27 63  1  0
 28 64  1  0
 28 65  1  0
 28 66  1  0
 29 67  1  0
 29 68  1  0
 29 69  1  0
 31 70  1  0
M  END
$$$$
