
     RDKit          3D

 46 48  0  0  0  0  0  0  0  0999 V2000
   -2.6769    1.9127    1.7726 O   0  0  0  0  0  0  0  0  0  0  0  0
   -1.8260    1.0983    1.4312 C   0  0  0  0  0  0  0  0  0  0  0  0
   -2.0928   -0.2357    1.1911 N   0  0  0  0  0  0  0  0  0  0  0  0
   -3.4638   -0.7228    1.1416 C   0  0  0  0  0  0  0  0  0  0  0  0
   -3.9438   -0.9496   -0.3056 C   0  0  0  0  0  0  0  0  0  0  0  0
   -5.4225   -1.2935   -0.3788 C   0  0  0  0  0  0  0  0  0  0  0  0
   -6.0697    0.0675   -0.4570 C   0  0  0  0  0  0  0  0  0  0  0  0
   -5.0692    0.8593   -1.2721 C   0  0  0  0  0  0  0  0  0  0  0  0
   -3.7836    0.2502   -1.0857 O   0  0  0  0  0  0  0  0  0  0  0  0
   -0.4165    1.5474    1.2380 C   0  0  0  0  0  0  0  0  0  0  0  0
   -0.1821    2.9071    1.0073 C   0  0  0  0  0  0  0  0  0  0  0  0
    1.1204    3.3822    0.8302 C   0  0  0  0  0  0  0  0  0  0  0  0
    2.2116    2.5064    0.8798 C   0  0  0  0  0  0  0  0  0  0  0  0
    3.9221    3.2891    0.6265 Br  0  0  0  0  0  0  0  0  0  0  0  0
    1.9821    1.1463    1.1100 C   0  0  0  0  0  0  0  0  0  0  0  0
    3.3023   -0.0390    1.1835 S   0  0  0  0  0  6  0  0  0  0  0  0
    2.7049   -1.3579    1.2457 O   0  0  0  0  0  0  0  0  0  0  0  0
    4.2228    0.3944    2.2099 O   0  0  0  0  0  0  0  0  0  0  0  0
    4.0463    0.0915   -0.3363 N   0  0  0  0  0  0  0  0  0  0  0  0
    3.2565   -0.3314   -1.5331 C   0  0  0  0  0  0  0  0  0  0  0  0
    3.3718   -1.8394   -1.7936 C   0  0  0  0  0  0  0  0  0  0  0  0
    4.7408   -2.2561   -1.8857 O   0  0  0  0  0  0  0  0  0  0  0  0
    5.4435   -1.9491   -0.6719 C   0  0  0  0  0  0  0  0  0  0  0  0
    5.4418   -0.4406   -0.4149 C   0  0  0  0  0  0  0  0  0  0  0  0
    0.6709    0.6701    1.3039 C   0  0  0  0  0  0  0  0  0  0  0  0
   -1.3986   -0.8012    0.7258 H   0  0  0  0  0  0  0  0  0  0  0  0
   -3.4872   -1.6700    1.6908 H   0  0  0  0  0  0  0  0  0  0  0  0
   -4.1150   -0.0145    1.6634 H   0  0  0  0  0  0  0  0  0  0  0  0
   -3.3332   -1.7338   -0.7670 H   0  0  0  0  0  0  0  0  0  0  0  0
   -5.7790   -1.8997    0.4585 H   0  0  0  0  0  0  0  0  0  0  0  0
   -5.6265   -1.8418   -1.3067 H   0  0  0  0  0  0  0  0  0  0  0  0
   -6.1627    0.5005    0.5456 H   0  0  0  0  0  0  0  0  0  0  0  0
   -7.0659    0.0530   -0.9072 H   0  0  0  0  0  0  0  0  0  0  0  0
   -5.3055    0.8127   -2.3403 H   0  0  0  0  0  0  0  0  0  0  0  0
   -5.0245    1.9102   -0.9723 H   0  0  0  0  0  0  0  0  0  0  0  0
   -1.0173    3.6056    0.9674 H   0  0  0  0  0  0  0  0  0  0  0  0
    1.2694    4.4468    0.6571 H   0  0  0  0  0  0  0  0  0  0  0  0
    3.6615    0.2189   -2.3916 H   0  0  0  0  0  0  0  0  0  0  0  0
    2.2077   -0.0362   -1.4369 H   0  0  0  0  0  0  0  0  0  0  0  0
    2.8708   -2.4320   -1.0220 H   0  0  0  0  0  0  0  0  0  0  0  0
    2.8914   -2.0811   -2.7473 H   0  0  0  0  0  0  0  0  0  0  0  0
    4.9947   -2.5065    0.1576 H   0  0  0  0  0  0  0  0  0  0  0  0
    6.4727   -2.3020   -0.7910 H   0  0  0  0  0  0  0  0  0  0  0  0
    5.9370    0.0769   -1.2461 H   0  0  0  0  0  0  0  0  0  0  0  0
    6.0082   -0.1972    0.4888 H   0  0  0  0  0  0  0  0  0  0  0  0
    0.5114   -0.3797    1.5365 H   0  0  0  0  0  0  0  0  0  0  0  0
  1  2  2  0
  2  3  1  0
  3  4  1  0
  4  5  1  0
  5  6  1  0
  6  7  1  0
  7  8  1  0
  8  9  1  0
  2 10  1  0
 10 11  2  0
 11 12  1  0
 12 13  2  0
 13 14  1  0
 13 15  1  0
 15 16  1  0
 16 17  2  0
 16 18  2  0
 16 19  1  0
 19 20  1  0
 20 21  1  0
 21 22  1  0
 22 23  1  0
 23 24  1  0
 15 25  2  0
  9  5  1  0
 25 10  1  0
 24 19  1  0
  3 26  1  0
  4 27  1  0
  4 28  1  0
  5 29  1  0
  6 30  1  0
  6 31  1  0
  7 32  1  0
  7 33  1  0
  8 34  1  0
  8 35  1  0
 11 36  1  0
 12 37  1  0
 20 38  1  0
 20 39  1  0
 21 40  1  0
 21 41  1  0
 23 42  1  0
 23 43  1  0
 24 44  1  0
 24 45  1  0
 25 46  1  0
M  END
$$$$
