
     RDKit          3D

 50 53  0  0  0  0  0  0  0  0999 V2000
   -6.8481    0.4527    2.8293 C   0  0  0  0  0  0  0  0  0  0  0  0
   -6.7258    0.6465    1.3737 C   0  0  0  0  0  0  0  0  0  0  0  0
   -6.4318   -0.1804    0.3174 C   0  0  0  0  0  0  0  0  0  0  0  0
   -6.4993    0.6576   -0.8142 C   0  0  0  0  0  0  0  0  0  0  0  0
   -6.2942    0.3521   -2.1473 N   0  0  0  0  0  0  0  0  0  0  0  0
   -5.5766   -1.0285   -2.7288 S   0  0  0  0  0  6  0  0  0  0  0  0
   -6.1762   -2.1817   -2.0909 O   0  0  0  0  0  0  0  0  0  0  0  0
   -5.5293   -0.9066   -4.1707 O   0  0  0  0  0  0  0  0  0  0  0  0
   -3.9059   -0.8783   -2.1395 C   0  0  0  0  0  0  0  0  0  0  0  0
   -3.4172   -1.7605   -1.1754 C   0  0  0  0  0  0  0  0  0  0  0  0
   -2.0981   -1.6298   -0.7308 C   0  0  0  0  0  0  0  0  0  0  0  0
   -1.2591   -0.6322   -1.2503 C   0  0  0  0  0  0  0  0  0  0  0  0
    0.0563   -0.5739   -0.7454 N   0  0  0  0  0  0  0  0  0  0  0  0
    1.0683    0.2953   -1.1233 C   0  0  0  0  0  0  0  0  0  0  0  0
    0.9949    1.1758   -1.9725 O   0  0  0  0  0  0  0  0  0  0  0  0
    2.3395    0.0419   -0.3376 C   0  0  0  0  0  0  0  0  0  0  0  0
    3.4760    0.9393   -0.8144 C   0  0  0  0  0  0  0  0  0  0  0  0
    4.6963    0.6899   -0.0664 N   0  0  0  0  0  0  0  0  0  0  0  0
    5.5433   -0.3560   -0.3163 C   0  0  0  0  0  0  0  0  0  0  0  0
    5.4583   -1.2261   -1.1613 O   0  0  0  0  0  0  0  0  0  0  0  0
    6.6085   -0.2757    0.6811 C   0  0  0  0  0  0  0  0  0  0  0  0
    7.7227   -1.0711    0.8680 C   0  0  0  0  0  0  0  0  0  0  0  0
    8.5673   -0.7438    1.9341 C   0  0  0  0  0  0  0  0  0  0  0  0
    8.2801    0.3524    2.7758 C   0  0  0  0  0  0  0  0  0  0  0  0
    7.1430    1.1398    2.5670 C   0  0  0  0  0  0  0  0  0  0  0  0
    6.3262    0.7983    1.5073 C   0  0  0  0  0  0  0  0  0  0  0  0
    5.0794    1.4005    1.0381 C   0  0  0  0  0  0  0  0  0  0  0  0
    4.5225    2.3341    1.5830 O   0  0  0  0  0  0  0  0  0  0  0  0
   -1.7610    0.2330   -2.2264 C   0  0  0  0  0  0  0  0  0  0  0  0
   -3.0805    0.1110   -2.6763 C   0  0  0  0  0  0  0  0  0  0  0  0
   -6.8228    1.9073   -0.4722 N   0  0  0  0  0  0  0  0  0  0  0  0
   -6.9586    1.9009    0.9053 O   0  0  0  0  0  0  0  0  0  0  0  0
   -6.2768    1.2142    3.3707 H   0  0  0  0  0  0  0  0  0  0  0  0
   -6.4698   -0.5307    3.1270 H   0  0  0  0  0  0  0  0  0  0  0  0
   -7.8962    0.5216    3.1370 H   0  0  0  0  0  0  0  0  0  0  0  0
   -6.2224   -1.2372    0.3687 H   0  0  0  0  0  0  0  0  0  0  0  0
   -6.4351    1.0995   -2.8220 H   0  0  0  0  0  0  0  0  0  0  0  0
   -4.0444   -2.5516   -0.7702 H   0  0  0  0  0  0  0  0  0  0  0  0
   -1.7345   -2.3258    0.0217 H   0  0  0  0  0  0  0  0  0  0  0  0
    0.2893   -1.2593   -0.0368 H   0  0  0  0  0  0  0  0  0  0  0  0
    2.6177   -1.0128   -0.4495 H   0  0  0  0  0  0  0  0  0  0  0  0
    2.1355    0.2270    0.7239 H   0  0  0  0  0  0  0  0  0  0  0  0
    3.2021    1.9932   -0.6957 H   0  0  0  0  0  0  0  0  0  0  0  0
    3.6817    0.7570   -1.8752 H   0  0  0  0  0  0  0  0  0  0  0  0
    7.9296   -1.9127    0.2147 H   0  0  0  0  0  0  0  0  0  0  0  0
    9.4584   -1.3418    2.1190 H   0  0  0  0  0  0  0  0  0  0  0  0
    8.9534    0.5862    3.5994 H   0  0  0  0  0  0  0  0  0  0  0  0
    6.9092    1.9852    3.2072 H   0  0  0  0  0  0  0  0  0  0  0  0
   -1.1495    1.0166   -2.6645 H   0  0  0  0  0  0  0  0  0  0  0  0
   -3.4464    0.7876   -3.4454 H   0  0  0  0  0  0  0  0  0  0  0  0
  1  2  1  0
  2  3  2  0
  3  4  1  0
  4  5  1  0
  5  6  1  0
  6  7  2  0
  6  8  2  0
  6  9  1  0
  9 10  2  0
 10 11  1  0
 11 12  2  0
 12 13  1  0
 13 14  1  0
 14 15  2  0
 14 16  1  0
 16 17  1  0
 17 18  1  0
 18 19  1  0
 19 20  2  0
 19 21  1  0
 21 22  2  0
 22 23  1  0
 23 24  2  0
 24 25  1  0
 25 26  2  0
 26 27  1  0
 27 28  2  0
 12 29  1  0
 29 30  2  0
  4 31  2  0
 31 32  1  0
 32  2  1  0
 30  9  1  0
 27 18  1  0
 26 21  1  0
  1 33  1  0
  1 34  1  0
  1 35  1  0
  3 36  1  0
  5 37  1  0
 10 38  1  0
 11 39  1  0
 13 40  1  0
 16 41  1  0
 16 42  1  0
 17 43  1  0
 17 44  1  0
 22 45  1  0
 23 46  1  0
 24 47  1  0
 25 48  1  0
 29 49  1  0
 30 50  1  0
M  END
$$$$
