
     RDKit          3D

 50 51  0  0  0  0  0  0  0  0999 V2000
    8.7058   -2.0205   -1.2803 C   0  0  0  0  0  0  0  0  0  0  0  0
    7.7569   -1.1468   -0.6670 O   0  0  0  0  0  0  0  0  0  0  0  0
    6.6072   -1.7612   -0.2896 C   0  0  0  0  0  0  0  0  0  0  0  0
    6.3491   -2.9450   -0.4394 O   0  0  0  0  0  0  0  0  0  0  0  0
    5.6779   -0.7894    0.3507 C   0  0  0  0  0  0  0  0  0  0  0  0
    5.9693    0.5778    0.4481 C   0  0  0  0  0  0  0  0  0  0  0  0
    5.0614    1.4506    1.0568 C   0  0  0  0  0  0  0  0  0  0  0  0
    3.8536    0.9694    1.5820 C   0  0  0  0  0  0  0  0  0  0  0  0
    2.8580    1.9085    2.2154 C   0  0  0  0  0  0  0  0  0  0  0  0
    1.8202    2.2577    1.2711 N   0  0  0  0  0  0  0  0  0  0  0  0
    0.5767    1.6556    1.3055 C   0  0  0  0  0  0  0  0  0  0  0  0
    0.2338    0.8751    2.1890 O   0  0  0  0  0  0  0  0  0  0  0  0
   -0.3221    2.0638    0.1386 C   0  0  0  0  0  0  0  0  0  0  0  0
   -1.6061    1.4544    0.2381 O   0  0  0  0  0  0  0  0  0  0  0  0
   -2.4204    1.7178   -0.8160 C   0  0  0  0  0  0  0  0  0  0  0  0
   -2.1231    2.4187   -1.7743 O   0  0  0  0  0  0  0  0  0  0  0  0
   -3.7514    1.0294   -0.6473 C   0  0  0  0  0  0  0  0  0  0  0  0
   -3.6034   -0.4838   -0.8139 C   0  0  0  0  0  0  0  0  0  0  0  0
   -4.9130   -1.2847   -0.7924 C   0  0  0  0  0  0  0  0  0  0  0  0
   -5.8311   -1.0118   -1.9954 C   0  0  0  0  0  0  0  0  0  0  0  0
   -7.2419   -1.1050   -1.4334 C   0  0  0  0  0  0  0  0  0  0  0  0
   -7.0983   -0.4935   -0.0501 C   0  0  0  0  0  0  0  0  0  0  0  0
   -5.7813   -1.0665    0.4595 C   0  0  0  0  0  0  0  0  0  0  0  0
    3.5628   -0.3982    1.4761 C   0  0  0  0  0  0  0  0  0  0  0  0
    4.4678   -1.2712    0.8664 C   0  0  0  0  0  0  0  0  0  0  0  0
    8.3026   -2.4271   -2.2129 H   0  0  0  0  0  0  0  0  0  0  0  0
    9.6011   -1.4374   -1.5138 H   0  0  0  0  0  0  0  0  0  0  0  0
    8.9876   -2.8263   -0.5949 H   0  0  0  0  0  0  0  0  0  0  0  0
    6.8992    0.9798    0.0523 H   0  0  0  0  0  0  0  0  0  0  0  0
    5.3074    2.5088    1.1191 H   0  0  0  0  0  0  0  0  0  0  0  0
    3.3490    2.8413    2.5156 H   0  0  0  0  0  0  0  0  0  0  0  0
    2.4346    1.4585    3.1206 H   0  0  0  0  0  0  0  0  0  0  0  0
    2.0989    2.7625    0.4400 H   0  0  0  0  0  0  0  0  0  0  0  0
    0.1707    1.7463   -0.7888 H   0  0  0  0  0  0  0  0  0  0  0  0
   -0.4319    3.1549    0.1591 H   0  0  0  0  0  0  0  0  0  0  0  0
   -4.1514    1.2986    0.3365 H   0  0  0  0  0  0  0  0  0  0  0  0
   -4.4334    1.4516   -1.3912 H   0  0  0  0  0  0  0  0  0  0  0  0
   -3.0744   -0.6954   -1.7529 H   0  0  0  0  0  0  0  0  0  0  0  0
   -2.9544   -0.8656   -0.0141 H   0  0  0  0  0  0  0  0  0  0  0  0
   -4.6339   -2.3480   -0.8199 H   0  0  0  0  0  0  0  0  0  0  0  0
   -5.6692   -1.7359   -2.8006 H   0  0  0  0  0  0  0  0  0  0  0  0
   -5.6708   -0.0152   -2.4186 H   0  0  0  0  0  0  0  0  0  0  0  0
   -7.9718   -0.5743   -2.0513 H   0  0  0  0  0  0  0  0  0  0  0  0
   -7.5519   -2.1538   -1.3569 H   0  0  0  0  0  0  0  0  0  0  0  0
   -7.0303    0.5985   -0.1246 H   0  0  0  0  0  0  0  0  0  0  0  0
   -7.9394   -0.7398    0.6051 H   0  0  0  0  0  0  0  0  0  0  0  0
   -5.3221   -0.4266    1.2191 H   0  0  0  0  0  0  0  0  0  0  0  0
   -5.9704   -2.0374    0.9364 H   0  0  0  0  0  0  0  0  0  0  0  0
    2.6235   -0.7895    1.8678 H   0  0  0  0  0  0  0  0  0  0  0  0
    4.2225   -2.3297    0.7956 H   0  0  0  0  0  0  0  0  0  0  0  0
  1  2  1  0
  2  3  1  0
  3  4  2  0
  3  5  1  0
  5  6  2  0
  6  7  1  0
  7  8  2  0
  8  9  1  0
  9 10  1  0
 10 11  1  0
 11 12  2  0
 11 13  1  0
 13 14  1  0
 14 15  1  0
 15 16  2  0
 15 17  1  0
 17 18  1  0
 18 19  1  0
 19 20  1  0
 20 21  1  0
 21 22  1  0
 22 23  1  0
  8 24  1  0
 24 25  2  0
 25  5  1  0
 23 19  1  0
  1 26  1  0
  1 27  1  0
  1 28  1  0
  6 29  1  0
  7 30  1  0
  9 31  1  0
  9 32  1  0
 10 33  1  0
 13 34  1  0
 13 35  1  0
 17 36  1  0
 17 37  1  0
 18 38  1  0
 18 39  1  0
 19 40  1  0
 20 41  1  0
 20 42  1  0
 21 43  1  0
 21 44  1  0
 22 45  1  0
 22 46  1  0
 23 47  1  0
 23 48  1  0
 24 49  1  0
 25 50  1  0
M  END
$$$$
