
     RDKit          3D

 47 49  0  0  0  0  0  0  0  0999 V2000
    2.1163   -1.4818   -2.4040 O   0  0  0  0  0  0  0  0  0  0  0  0
    1.6575   -0.9920   -1.3760 C   0  0  0  0  0  0  0  0  0  0  0  0
    2.5288   -0.7058   -0.1660 C   0  0  0  0  0  0  0  0  0  0  0  0
    4.0021   -0.8324   -0.5143 C   0  0  0  0  0  0  0  0  0  0  0  0
    5.0714   -0.5760    0.9508 S   0  0  0  0  0  0  0  0  0  0  0  0
    4.7925    1.1559    1.2873 C   0  0  0  0  0  0  0  0  0  0  0  0
    4.9915    2.1386    0.3161 C   0  0  0  0  0  0  0  0  0  0  0  0
    4.7519    3.4871    0.6110 C   0  0  0  0  0  0  0  0  0  0  0  0
    4.3213    3.8561    1.8851 C   0  0  0  0  0  0  0  0  0  0  0  0
    4.1476    2.8820    2.8683 C   0  0  0  0  0  0  0  0  0  0  0  0
    4.3894    1.5370    2.5724 C   0  0  0  0  0  0  0  0  0  0  0  0
    0.3313   -0.6726   -1.1367 N   0  0  0  0  0  0  0  0  0  0  0  0
   -0.7799   -0.7905   -2.0111 C   0  0  0  0  0  0  0  0  0  0  0  0
   -0.6679   -1.2908   -3.3134 C   0  0  0  0  0  0  0  0  0  0  0  0
   -1.7804   -1.3431   -4.1620 C   0  0  0  0  0  0  0  0  0  0  0  0
   -3.0207   -0.8866   -3.7269 C   0  0  0  0  0  0  0  0  0  0  0  0
   -3.1583   -0.3987   -2.4298 C   0  0  0  0  0  0  0  0  0  0  0  0
   -2.0552   -0.3818   -1.5612 C   0  0  0  0  0  0  0  0  0  0  0  0
   -2.2343    0.1168   -0.1708 C   0  0  0  0  0  0  0  0  0  0  0  0
   -1.4071    0.9106    0.2742 O   0  0  0  0  0  0  0  0  0  0  0  0
   -3.2790   -0.3681    0.5945 N   0  0  0  0  0  0  0  0  0  0  0  0
   -4.0720   -1.5652    0.3433 C   0  0  0  0  0  0  0  0  0  0  0  0
   -4.5652   -1.9855    1.7239 C   0  0  0  0  0  0  0  0  0  0  0  0
   -4.6790   -0.6565    2.4627 C   0  0  0  0  0  0  0  0  0  0  0  0
   -3.4660    0.1085    1.9554 C   0  0  0  0  0  0  0  0  0  0  0  0
    2.2579   -1.4304    0.6115 H   0  0  0  0  0  0  0  0  0  0  0  0
    2.2955    0.3010    0.2008 H   0  0  0  0  0  0  0  0  0  0  0  0
    4.2814   -0.1421   -1.3156 H   0  0  0  0  0  0  0  0  0  0  0  0
    4.2149   -1.8388   -0.8897 H   0  0  0  0  0  0  0  0  0  0  0  0
    5.3359    1.8717   -0.6835 H   0  0  0  0  0  0  0  0  0  0  0  0
    4.8891    4.2474   -0.1561 H   0  0  0  0  0  0  0  0  0  0  0  0
    4.1287    4.9022    2.1138 H   0  0  0  0  0  0  0  0  0  0  0  0
    3.8266    3.1668    3.8651 H   0  0  0  0  0  0  0  0  0  0  0  0
    4.2622    0.7890    3.3483 H   0  0  0  0  0  0  0  0  0  0  0  0
    0.1304   -0.1847   -0.2611 H   0  0  0  0  0  0  0  0  0  0  0  0
    0.2811   -1.6390   -3.7103 H   0  0  0  0  0  0  0  0  0  0  0  0
   -1.6648   -1.7271   -5.1736 H   0  0  0  0  0  0  0  0  0  0  0  0
   -3.8739   -0.9039   -4.4008 H   0  0  0  0  0  0  0  0  0  0  0  0
   -4.1208   -0.0163   -2.1054 H   0  0  0  0  0  0  0  0  0  0  0  0
   -4.9191   -1.2847   -0.2963 H   0  0  0  0  0  0  0  0  0  0  0  0
   -3.4865   -2.3494   -0.1458 H   0  0  0  0  0  0  0  0  0  0  0  0
   -5.5066   -2.5427    1.6887 H   0  0  0  0  0  0  0  0  0  0  0  0
   -3.8162   -2.6179    2.2143 H   0  0  0  0  0  0  0  0  0  0  0  0
   -4.6778   -0.7701    3.5522 H   0  0  0  0  0  0  0  0  0  0  0  0
   -5.6010   -0.1450    2.1671 H   0  0  0  0  0  0  0  0  0  0  0  0
   -3.6025    1.1949    1.9693 H   0  0  0  0  0  0  0  0  0  0  0  0
   -2.5709   -0.1458    2.5342 H   0  0  0  0  0  0  0  0  0  0  0  0
  1  2  2  0
  2  3  1  0
  3  4  1  0
  4  5  1  0
  5  6  1  0
  6  7  2  0
  7  8  1  0
  8  9  2  0
  9 10  1  0
 10 11  2  0
  2 12  1  0
 12 13  1  0
 13 14  2  0
 14 15  1  0
 15 16  2  0
 16 17  1  0
 17 18  2  0
 18 19  1  0
 19 20  2  0
 19 21  1  0
 21 22  1  0
 22 23  1  0
 23 24  1  0
 24 25  1  0
 11  6  1  0
 18 13  1  0
 25 21  1  0
  3 26  1  0
  3 27  1  0
  4 28  1  0
  4 29  1  0
  7 30  1  0
  8 31  1  0
  9 32  1  0
 10 33  1  0
 11 34  1  0
 12 35  1  0
 14 36  1  0
 15 37  1  0
 16 38  1  0
 17 39  1  0
 22 40  1  0
 22 41  1  0
 23 42  1  0
 23 43  1  0
 24 44  1  0
 24 45  1  0
 25 46  1  0
 25 47  1  0
M  END
$$$$
