
     RDKit          3D

 47 49  0  0  0  0  0  0  0  0999 V2000
   -9.1122   -0.5614   -0.2431 C   0  0  0  0  0  0  0  0  0  0  0  0
   -8.6516    0.7727    0.3272 C   0  0  0  0  0  0  0  0  0  0  0  0
   -7.2400    1.1421   -0.1247 C   0  0  0  0  0  0  0  0  0  0  0  0
   -6.3238    0.1753    0.3889 O   0  0  0  0  0  0  0  0  0  0  0  0
   -5.0052    0.3306    0.0641 C   0  0  0  0  0  0  0  0  0  0  0  0
   -4.4604    1.3745   -0.6841 C   0  0  0  0  0  0  0  0  0  0  0  0
   -3.0853    1.4099   -0.9418 C   0  0  0  0  0  0  0  0  0  0  0  0
   -2.2443    0.4081   -0.4433 C   0  0  0  0  0  0  0  0  0  0  0  0
   -0.7861    0.4884   -0.7421 C   0  0  0  0  0  0  0  0  0  0  0  0
   -0.4420    0.9626   -1.8175 O   0  0  0  0  0  0  0  0  0  0  0  0
    0.0401    0.0420    0.2739 N   0  0  0  0  0  0  0  0  0  0  0  0
    1.4483   -0.0344    0.2591 C   0  0  0  0  0  0  0  0  0  0  0  0
    2.0803   -0.4429    1.4374 C   0  0  0  0  0  0  0  0  0  0  0  0
    3.4751   -0.5491    1.5006 C   0  0  0  0  0  0  0  0  0  0  0  0
    4.2674   -0.2490    0.3871 C   0  0  0  0  0  0  0  0  0  0  0  0
    5.6633   -0.3881    0.5362 N   0  0  0  0  0  0  0  0  0  0  0  0
    6.6558   -0.0893   -0.3891 C   0  0  0  0  0  0  0  0  0  0  0  0
    6.4405    0.4085   -1.4901 O   0  0  0  0  0  0  0  0  0  0  0  0
    8.0074   -0.4063    0.0801 C   0  0  0  0  0  0  0  0  0  0  0  0
    8.4345   -1.2791    1.0685 C   0  0  0  0  0  0  0  0  0  0  0  0
    9.8536   -1.2909    1.2178 C   0  0  0  0  0  0  0  0  0  0  0  0
   10.4709   -0.4358    0.3352 C   0  0  0  0  0  0  0  0  0  0  0  0
    9.3480    0.3668   -0.6702 S   0  0  0  0  0  0  0  0  0  0  0  0
    3.6353    0.1516   -0.7886 C   0  0  0  0  0  0  0  0  0  0  0  0
    2.2370    0.2578   -0.8518 C   0  0  0  0  0  0  0  0  0  0  0  0
   -2.7913   -0.6488    0.2918 C   0  0  0  0  0  0  0  0  0  0  0  0
   -4.1655   -0.6784    0.5459 C   0  0  0  0  0  0  0  0  0  0  0  0
   -9.0986   -0.5447   -1.3375 H   0  0  0  0  0  0  0  0  0  0  0  0
  -10.1356   -0.7764    0.0803 H   0  0  0  0  0  0  0  0  0  0  0  0
   -8.4729   -1.3824    0.0964 H   0  0  0  0  0  0  0  0  0  0  0  0
   -9.3491    1.5581    0.0161 H   0  0  0  0  0  0  0  0  0  0  0  0
   -8.6826    0.7119    1.4213 H   0  0  0  0  0  0  0  0  0  0  0  0
   -6.9946    2.1339    0.2735 H   0  0  0  0  0  0  0  0  0  0  0  0
   -7.2003    1.1625   -1.2205 H   0  0  0  0  0  0  0  0  0  0  0  0
   -5.0733    2.1751   -1.0851 H   0  0  0  0  0  0  0  0  0  0  0  0
   -2.6697    2.2243   -1.5331 H   0  0  0  0  0  0  0  0  0  0  0  0
   -0.4020   -0.1935    1.1522 H   0  0  0  0  0  0  0  0  0  0  0  0
    1.5013   -0.6827    2.3252 H   0  0  0  0  0  0  0  0  0  0  0  0
    3.9265   -0.8678    2.4364 H   0  0  0  0  0  0  0  0  0  0  0  0
    5.9750   -0.6871    1.4481 H   0  0  0  0  0  0  0  0  0  0  0  0
    7.7746   -1.9054    1.6554 H   0  0  0  0  0  0  0  0  0  0  0  0
   10.3943   -1.9028    1.9299 H   0  0  0  0  0  0  0  0  0  0  0  0
   11.5302   -0.2478    0.2232 H   0  0  0  0  0  0  0  0  0  0  0  0
    4.1928    0.3894   -1.6895 H   0  0  0  0  0  0  0  0  0  0  0  0
    1.8004    0.5704   -1.7959 H   0  0  0  0  0  0  0  0  0  0  0  0
   -2.1747   -1.4698    0.6459 H   0  0  0  0  0  0  0  0  0  0  0  0
   -4.5917   -1.5025    1.1140 H   0  0  0  0  0  0  0  0  0  0  0  0
  1  2  1  0
  2  3  1  0
  3  4  1  0
  4  5  1  0
  5  6  2  0
  6  7  1  0
  7  8  2  0
  8  9  1  0
  9 10  2  0
  9 11  1  0
 11 12  1  0
 12 13  2  0
 13 14  1  0
 14 15  2  0
 15 16  1  0
 16 17  1  0
 17 18  2  0
 17 19  1  0
 19 20  2  0
 20 21  1  0
 21 22  2  0
 22 23  1  0
 15 24  1  0
 24 25  2  0
  8 26  1  0
 26 27  2  0
 27  5  1  0
 25 12  1  0
 23 19  1  0
  1 28  1  0
  1 29  1  0
  1 30  1  0
  2 31  1  0
  2 32  1  0
  3 33  1  0
  3 34  1  0
  6 35  1  0
  7 36  1  0
 11 37  1  0
 13 38  1  0
 14 39  1  0
 16 40  1  0
 20 41  1  0
 21 42  1  0
 22 43  1  0
 24 44  1  0
 25 45  1  0
 26 46  1  0
 27 47  1  0
M  END
$$$$
