
     RDKit          3D

 55 58  0  0  0  0  0  0  0  0999 V2000
   -3.2038    0.5953    2.7638 C   0  0  0  0  0  0  0  0  0  0  0  0
   -4.0244    1.2658    1.6710 C   0  0  0  0  0  0  0  0  0  0  0  0
   -4.6618    0.2681    0.8041 N   0  0  0  0  0  0  0  0  0  0  0  0
   -5.9280   -0.2451    1.0332 C   0  0  0  0  0  0  0  0  0  0  0  0
   -6.5508   -1.1816    0.2967 C   0  0  0  0  0  0  0  0  0  0  0  0
   -7.9053   -1.6578    0.6377 C   0  0  0  0  0  0  0  0  0  0  0  0
   -8.5382   -2.5394    0.0880 O   0  0  0  0  0  0  0  0  0  0  0  0
   -8.4519   -1.0074    1.6861 O   0  0  0  0  0  0  0  0  0  0  0  0
   -5.7914   -1.7091   -0.8687 C   0  0  0  0  0  0  0  0  0  0  0  0
   -6.2440   -2.5452   -1.6416 O   0  0  0  0  0  0  0  0  0  0  0  0
   -4.4325   -1.1929   -1.0912 C   0  0  0  0  0  0  0  0  0  0  0  0
   -3.6463   -1.6428   -2.1202 C   0  0  0  0  0  0  0  0  0  0  0  0
   -2.3965   -1.1898   -2.3405 N   0  0  0  0  0  0  0  0  0  0  0  0
   -1.9127   -0.2585   -1.5033 C   0  0  0  0  0  0  0  0  0  0  0  0
   -0.6445    0.2334   -1.7199 N   0  0  0  0  0  0  0  0  0  0  0  0
    0.1773   -0.4119   -2.7446 C   0  0  0  0  0  0  0  0  0  0  0  0
    1.4612    0.4010   -2.9859 C   0  0  0  0  0  0  0  0  0  0  0  0
    2.2732    0.6036   -1.7661 N   0  0  0  0  0  0  0  0  0  0  0  0
    3.5339    1.1519   -1.8245 C   0  0  0  0  0  0  0  0  0  0  0  0
    4.1476    2.0090   -3.1393 S   0  0  0  0  0  0  0  0  0  0  0  0
    4.4056    1.0422   -0.7650 N   0  0  0  0  0  0  0  0  0  0  0  0
    4.5625    0.0798    0.2346 C   0  0  0  0  0  0  0  0  0  0  0  0
    3.7292   -0.7279    0.6218 O   0  0  0  0  0  0  0  0  0  0  0  0
    5.8775    0.1217    0.9329 C   0  0  0  0  0  0  0  0  0  0  0  0
    5.9040   -0.0842    2.3177 C   0  0  0  0  0  0  0  0  0  0  0  0
    7.1171   -0.0501    3.0065 C   0  0  0  0  0  0  0  0  0  0  0  0
    8.3058    0.1774    2.3134 C   0  0  0  0  0  0  0  0  0  0  0  0
    8.2868    0.3612    0.9305 C   0  0  0  0  0  0  0  0  0  0  0  0
    7.0756    0.3289    0.2359 C   0  0  0  0  0  0  0  0  0  0  0  0
    1.5145    0.4749   -0.5067 C   0  0  0  0  0  0  0  0  0  0  0  0
    0.0444    0.9292   -0.6294 C   0  0  0  0  0  0  0  0  0  0  0  0
   -2.6318    0.2314   -0.4778 N   0  0  0  0  0  0  0  0  0  0  0  0
   -3.8836   -0.2296   -0.2683 C   0  0  0  0  0  0  0  0  0  0  0  0
   -2.7615    1.3502    3.4214 H   0  0  0  0  0  0  0  0  0  0  0  0
   -3.8278   -0.0651    3.3751 H   0  0  0  0  0  0  0  0  0  0  0  0
   -2.3913   -0.0066    2.3447 H   0  0  0  0  0  0  0  0  0  0  0  0
   -3.4021    1.9658    1.1000 H   0  0  0  0  0  0  0  0  0  0  0  0
   -4.7968    1.8862    2.1435 H   0  0  0  0  0  0  0  0  0  0  0  0
   -6.4068    0.1935    1.9063 H   0  0  0  0  0  0  0  0  0  0  0  0
   -9.3313   -1.4346    1.7744 H   0  0  0  0  0  0  0  0  0  0  0  0
   -3.9965   -2.3978   -2.8186 H   0  0  0  0  0  0  0  0  0  0  0  0
    0.4399   -1.4292   -2.4275 H   0  0  0  0  0  0  0  0  0  0  0  0
   -0.3637   -0.4778   -3.6965 H   0  0  0  0  0  0  0  0  0  0  0  0
    1.1897    1.3933   -3.3680 H   0  0  0  0  0  0  0  0  0  0  0  0
    2.0790   -0.0980   -3.7410 H   0  0  0  0  0  0  0  0  0  0  0  0
    5.2270    1.6044   -0.9423 H   0  0  0  0  0  0  0  0  0  0  0  0
    4.9802   -0.2720    2.8614 H   0  0  0  0  0  0  0  0  0  0  0  0
    7.1355   -0.2075    4.0822 H   0  0  0  0  0  0  0  0  0  0  0  0
    9.2512    0.1984    2.8510 H   0  0  0  0  0  0  0  0  0  0  0  0
    9.2193    0.5173    0.3927 H   0  0  0  0  0  0  0  0  0  0  0  0
    7.0907    0.4343   -0.8458 H   0  0  0  0  0  0  0  0  0  0  0  0
    1.5225   -0.5869   -0.2375 H   0  0  0  0  0  0  0  0  0  0  0  0
    1.9930    1.0577    0.2860 H   0  0  0  0  0  0  0  0  0  0  0  0
   -0.4305    0.7667    0.3454 H   0  0  0  0  0  0  0  0  0  0  0  0
    0.0121    2.0059   -0.8352 H   0  0  0  0  0  0  0  0  0  0  0  0
  1  2  1  0
  2  3  1  0
  3  4  1  0
  4  5  2  0
  5  6  1  0
  6  7  2  0
  6  8  1  0
  5  9  1  0
  9 10  2  0
  9 11  1  0
 11 12  2  0
 12 13  1  0
 13 14  2  0
 14 15  1  0
 15 16  1  0
 16 17  1  0
 17 18  1  0
 18 19  1  0
 19 20  2  0
 19 21  1  0
 21 22  1  0
 22 23  2  0
 22 24  1  0
 24 25  2  0
 25 26  1  0
 26 27  2  0
 27 28  1  0
 28 29  2  0
 18 30  1  0
 30 31  1  0
 14 32  1  0
 32 33  2  0
 33  3  1  0
 33 11  1  0
 31 15  1  0
 29 24  1  0
  1 34  1  0
  1 35  1  0
  1 36  1  0
  2 37  1  0
  2 38  1  0
  4 39  1  0
  8 40  1  0
 12 41  1  0
 16 42  1  0
 16 43  1  0
 17 44  1  0
 17 45  1  0
 21 46  1  0
 25 47  1  0
 26 48  1  0
 27 49  1  0
 28 50  1  0
 29 51  1  0
 30 52  1  0
 30 53  1  0
 31 54  1  0
 31 55  1  0
M  END
$$$$
