
     RDKit          3D

 45 47  0  0  0  0  0  0  0  0999 V2000
    2.3069   -1.4079   -1.8486 O   0  0  0  0  0  0  0  0  0  0  0  0
    2.0251   -1.5771   -0.6608 C   0  0  0  0  0  0  0  0  0  0  0  0
    3.0554   -2.0129    0.3819 C   0  0  0  0  0  0  0  0  0  0  0  0
    4.7704   -1.9888   -0.2357 S   0  0  0  0  0  0  0  0  0  0  0  0
    5.0812   -0.2361   -0.1505 C   0  0  0  0  0  0  0  0  0  0  0  0
    4.8310    0.5812   -1.2567 C   0  0  0  0  0  0  0  0  0  0  0  0
    5.0699    1.9557   -1.1867 C   0  0  0  0  0  0  0  0  0  0  0  0
    5.5686    2.5103   -0.0097 C   0  0  0  0  0  0  0  0  0  0  0  0
    5.8879    4.3701    0.0893 Br  0  0  0  0  0  0  0  0  0  0  0  0
    5.8354    1.7027    1.0946 C   0  0  0  0  0  0  0  0  0  0  0  0
    5.5941    0.3284    1.0221 C   0  0  0  0  0  0  0  0  0  0  0  0
    0.7091   -1.4139   -0.2094 N   0  0  0  0  0  0  0  0  0  0  0  0
   -0.2370   -0.7802   -1.1376 C   0  0  0  0  0  0  0  0  0  0  0  0
   -1.7006   -1.1323   -0.8431 C   0  0  0  0  0  0  0  0  0  0  0  0
   -2.0166   -0.8391    0.5924 N   0  0  0  0  0  0  0  0  0  0  0  0
   -3.6709   -0.9803    1.0045 S   0  0  0  0  0  6  0  0  0  0  0  0
   -4.1284   -2.2558    0.4947 O   0  0  0  0  0  0  0  0  0  0  0  0
   -3.8108   -0.6361    2.4031 O   0  0  0  0  0  0  0  0  0  0  0  0
   -4.4247    0.3181    0.0609 C   0  0  0  0  0  0  0  0  0  0  0  0
   -5.3524    0.0127   -0.9385 C   0  0  0  0  0  0  0  0  0  0  0  0
   -5.9296    1.0479   -1.6739 C   0  0  0  0  0  0  0  0  0  0  0  0
   -5.5834    2.3742   -1.4059 C   0  0  0  0  0  0  0  0  0  0  0  0
   -4.6616    2.6730   -0.4005 C   0  0  0  0  0  0  0  0  0  0  0  0
   -4.0797    1.6444    0.3394 C   0  0  0  0  0  0  0  0  0  0  0  0
   -1.1338   -1.6610    1.4773 C   0  0  0  0  0  0  0  0  0  0  0  0
    0.3430   -1.3314    1.2117 C   0  0  0  0  0  0  0  0  0  0  0  0
    2.8230   -3.0414    0.6750 H   0  0  0  0  0  0  0  0  0  0  0  0
    3.0009   -1.3697    1.2643 H   0  0  0  0  0  0  0  0  0  0  0  0
    4.4440    0.1541   -2.1803 H   0  0  0  0  0  0  0  0  0  0  0  0
    4.8653    2.5779   -2.0540 H   0  0  0  0  0  0  0  0  0  0  0  0
    6.2338    2.1295    2.0112 H   0  0  0  0  0  0  0  0  0  0  0  0
    5.8147   -0.2960    1.8847 H   0  0  0  0  0  0  0  0  0  0  0  0
   -0.0031   -1.0606   -2.1703 H   0  0  0  0  0  0  0  0  0  0  0  0
   -0.0865    0.3029   -1.0487 H   0  0  0  0  0  0  0  0  0  0  0  0
   -2.3376   -0.5397   -1.5057 H   0  0  0  0  0  0  0  0  0  0  0  0
   -1.8736   -2.1952   -1.0497 H   0  0  0  0  0  0  0  0  0  0  0  0
   -5.6322   -1.0174   -1.1467 H   0  0  0  0  0  0  0  0  0  0  0  0
   -6.6540    0.8229   -2.4536 H   0  0  0  0  0  0  0  0  0  0  0  0
   -6.0386    3.1787   -1.9793 H   0  0  0  0  0  0  0  0  0  0  0  0
   -4.4017    3.7080   -0.1920 H   0  0  0  0  0  0  0  0  0  0  0  0
   -3.3664    1.8758    1.1272 H   0  0  0  0  0  0  0  0  0  0  0  0
   -1.3161   -2.7262    1.2901 H   0  0  0  0  0  0  0  0  0  0  0  0
   -1.3489   -1.4506    2.5301 H   0  0  0  0  0  0  0  0  0  0  0  0
    0.5661   -0.3077    1.5357 H   0  0  0  0  0  0  0  0  0  0  0  0
    0.9625   -2.0111    1.8028 H   0  0  0  0  0  0  0  0  0  0  0  0
  1  2  2  0
  2  3  1  0
  3  4  1  0
  4  5  1  0
  5  6  2  0
  6  7  1  0
  7  8  2  0
  8  9  1  0
  8 10  1  0
 10 11  2  0
  2 12  1  0
 12 13  1  0
 13 14  1  0
 14 15  1  0
 15 16  1  0
 16 17  2  0
 16 18  2  0
 16 19  1  0
 19 20  2  0
 20 21  1  0
 21 22  2  0
 22 23  1  0
 23 24  2  0
 15 25  1  0
 25 26  1  0
 11  5  1  0
 26 12  1  0
 24 19  1  0
  3 27  1  0
  3 28  1  0
  6 29  1  0
  7 30  1  0
 10 31  1  0
 11 32  1  0
 13 33  1  0
 13 34  1  0
 14 35  1  0
 14 36  1  0
 20 37  1  0
 21 38  1  0
 22 39  1  0
 23 40  1  0
 24 41  1  0
 25 42  1  0
 25 43  1  0
 26 44  1  0
 26 45  1  0
M  END
$$$$
