
     RDKit          3D

 42 44  0  0  0  0  0  0  0  0999 V2000
    7.9013   -1.4117   -2.3020 C   0  0  0  0  0  0  0  0  0  0  0  0
    7.2086   -1.3049   -1.0643 O   0  0  0  0  0  0  0  0  0  0  0  0
    5.9009   -0.9104   -1.1189 C   0  0  0  0  0  0  0  0  0  0  0  0
    5.2724   -0.8047    0.1256 C   0  0  0  0  0  0  0  0  0  0  0  0
    3.9341   -0.4118    0.2221 C   0  0  0  0  0  0  0  0  0  0  0  0
    3.2077   -0.1306   -0.9402 C   0  0  0  0  0  0  0  0  0  0  0  0
    1.7771    0.2917   -0.8968 C   0  0  0  0  0  0  0  0  0  0  0  0
    1.3912    1.0851   -1.7457 O   0  0  0  0  0  0  0  0  0  0  0  0
    1.0293   -0.3133    0.0995 N   0  0  0  0  0  0  0  0  0  0  0  0
   -0.3101   -0.0800    0.3923 C   0  0  0  0  0  0  0  0  0  0  0  0
   -1.2011    1.1313   -0.4079 S   0  0  0  0  0  0  0  0  0  0  0  0
   -2.6155    0.7817    0.4654 C   0  0  0  0  0  0  0  0  0  0  0  0
   -2.4244   -0.2326    1.3826 C   0  0  0  0  0  0  0  0  0  0  0  0
   -1.0846   -0.7345    1.3357 C   0  0  0  0  0  0  0  0  0  0  0  0
   -0.5821   -1.7922    2.1605 C   0  0  0  0  0  0  0  0  0  0  0  0
   -0.1380   -2.6396    2.8169 N   0  0  0  0  0  0  0  0  0  0  0  0
   -3.5553   -0.6882    2.2539 C   0  0  0  0  0  0  0  0  0  0  0  0
   -4.6361    0.4005    2.3471 C   0  0  0  0  0  0  0  0  0  0  0  0
   -4.9825    0.9587    1.0289 N   0  0  0  0  0  0  0  0  0  0  0  0
   -6.3159    1.2703    0.7875 C   0  0  0  0  0  0  0  0  0  0  0  0
   -6.6360    1.9774   -0.5062 C   0  0  0  0  0  0  0  0  0  0  0  0
   -7.2200    0.9805    1.5711 O   0  0  0  0  0  0  0  0  0  0  0  0
   -3.8869    1.5382    0.2339 C   0  0  0  0  0  0  0  0  0  0  0  0
    3.8406   -0.2183   -2.1861 C   0  0  0  0  0  0  0  0  0  0  0  0
    5.1808   -0.6117   -2.2757 C   0  0  0  0  0  0  0  0  0  0  0  0
    7.4448   -2.1712   -2.9453 H   0  0  0  0  0  0  0  0  0  0  0  0
    7.9546   -0.4428   -2.8094 H   0  0  0  0  0  0  0  0  0  0  0  0
    8.9254   -1.7308   -2.0854 H   0  0  0  0  0  0  0  0  0  0  0  0
    5.8376   -1.0211    1.0300 H   0  0  0  0  0  0  0  0  0  0  0  0
    3.4933   -0.3042    1.2090 H   0  0  0  0  0  0  0  0  0  0  0  0
    1.4773   -1.0546    0.6254 H   0  0  0  0  0  0  0  0  0  0  0  0
   -3.9872   -1.5956    1.8140 H   0  0  0  0  0  0  0  0  0  0  0  0
   -3.2005   -0.9383    3.2595 H   0  0  0  0  0  0  0  0  0  0  0  0
   -5.5188   -0.0163    2.8431 H   0  0  0  0  0  0  0  0  0  0  0  0
   -4.2847    1.2385    2.9628 H   0  0  0  0  0  0  0  0  0  0  0  0
   -7.7117    2.1736   -0.5539 H   0  0  0  0  0  0  0  0  0  0  0  0
   -6.3670    1.3457   -1.3567 H   0  0  0  0  0  0  0  0  0  0  0  0
   -6.1150    2.9368   -0.5571 H   0  0  0  0  0  0  0  0  0  0  0  0
   -4.1493    1.5173   -0.8280 H   0  0  0  0  0  0  0  0  0  0  0  0
   -3.7731    2.5826    0.5467 H   0  0  0  0  0  0  0  0  0  0  0  0
    3.2898    0.0197   -3.0947 H   0  0  0  0  0  0  0  0  0  0  0  0
    5.6292   -0.6698   -3.2621 H   0  0  0  0  0  0  0  0  0  0  0  0
  1  2  1  0
  2  3  1  0
  3  4  2  0
  4  5  1  0
  5  6  2  0
  6  7  1  0
  7  8  2  0
  7  9  1  0
  9 10  1  0
 10 11  1  0
 11 12  1  0
 12 13  2  0
 13 14  1  0
 14 15  1  0
 15 16  3  0
 13 17  1  0
 17 18  1  0
 18 19  1  0
 19 20  1  0
 20 21  1  0
 20 22  2  0
 19 23  1  0
  6 24  1  0
 24 25  2  0
 25  3  1  0
 14 10  2  0
 23 12  1  0
  1 26  1  0
  1 27  1  0
  1 28  1  0
  4 29  1  0
  5 30  1  0
  9 31  1  0
 17 32  1  0
 17 33  1  0
 18 34  1  0
 18 35  1  0
 21 36  1  0
 21 37  1  0
 21 38  1  0
 23 39  1  0
 23 40  1  0
 24 41  1  0
 25 42  1  0
M  END
$$$$
