
     RDKit          3D

 42 44  0  0  0  0  0  0  0  0999 V2000
    4.2063   -0.7924    0.7277 C   0  0  0  0  0  0  0  0  0  0  0  0
    3.5155    0.3883    0.0627 C   0  0  0  0  0  0  0  0  0  0  0  0
    2.0051    0.1981   -0.1063 C   0  0  0  0  0  0  0  0  0  0  0  0
    1.2503    0.1496    1.2317 C   0  0  0  0  0  0  0  0  0  0  0  0
   -0.2952    0.0523    1.1106 C   0  0  0  0  0  0  0  0  0  0  0  0
   -0.7232   -1.2047    0.3807 C   0  0  0  0  0  0  0  0  0  0  0  0
   -1.3111   -1.1650   -0.8296 C   0  0  0  0  0  0  0  0  0  0  0  0
   -1.7639   -2.3761   -1.5936 C   0  0  0  0  0  0  0  0  0  0  0  0
   -1.9698   -3.5828   -0.6862 C   0  0  0  0  0  0  0  0  0  0  0  0
   -0.7792   -3.7803    0.2361 C   0  0  0  0  0  0  0  0  0  0  0  0
   -0.4978   -2.5262    1.0346 C   0  0  0  0  0  0  0  0  0  0  0  0
   -0.0491   -2.5915    2.1769 O   0  0  0  0  0  0  0  0  0  0  0  0
   -1.5856    0.0334   -1.4756 O   0  0  0  0  0  0  0  0  0  0  0  0
   -1.4566    1.2247   -0.7740 C   0  0  0  0  0  0  0  0  0  0  0  0
   -0.8782    1.2794    0.4400 C   0  0  0  0  0  0  0  0  0  0  0  0
   -0.8669    2.5747    1.1801 C   0  0  0  0  0  0  0  0  0  0  0  0
   -0.4217    2.6355    2.3245 O   0  0  0  0  0  0  0  0  0  0  0  0
   -1.4886    3.7906    0.5263 C   0  0  0  0  0  0  0  0  0  0  0  0
   -1.3970    3.7184   -0.9884 C   0  0  0  0  0  0  0  0  0  0  0  0
   -1.9967    2.4177   -1.5077 C   0  0  0  0  0  0  0  0  0  0  0  0
    3.8926   -0.9072    1.7692 H   0  0  0  0  0  0  0  0  0  0  0  0
    5.2908   -0.6428    0.7243 H   0  0  0  0  0  0  0  0  0  0  0  0
    3.9914   -1.7245    0.1957 H   0  0  0  0  0  0  0  0  0  0  0  0
    3.9586    0.5351   -0.9297 H   0  0  0  0  0  0  0  0  0  0  0  0
    3.7160    1.3004    0.6367 H   0  0  0  0  0  0  0  0  0  0  0  0
    1.8223   -0.7182   -0.6793 H   0  0  0  0  0  0  0  0  0  0  0  0
    1.6312    1.0326   -0.7104 H   0  0  0  0  0  0  0  0  0  0  0  0
    1.6142   -0.7017    1.8175 H   0  0  0  0  0  0  0  0  0  0  0  0
    1.5163    1.0395    1.8153 H   0  0  0  0  0  0  0  0  0  0  0  0
   -0.7165    0.0012    2.1243 H   0  0  0  0  0  0  0  0  0  0  0  0
   -1.0179   -2.6065   -2.3637 H   0  0  0  0  0  0  0  0  0  0  0  0
   -2.7065   -2.1617   -2.1110 H   0  0  0  0  0  0  0  0  0  0  0  0
   -2.8763   -3.4334   -0.0850 H   0  0  0  0  0  0  0  0  0  0  0  0
   -2.1316   -4.4818   -1.2913 H   0  0  0  0  0  0  0  0  0  0  0  0
    0.1226   -4.0376   -0.3302 H   0  0  0  0  0  0  0  0  0  0  0  0
   -0.9937   -4.5978    0.9329 H   0  0  0  0  0  0  0  0  0  0  0  0
   -0.9589    4.6830    0.8771 H   0  0  0  0  0  0  0  0  0  0  0  0
   -2.5326    3.8566    0.8519 H   0  0  0  0  0  0  0  0  0  0  0  0
   -1.9126    4.5740   -1.4383 H   0  0  0  0  0  0  0  0  0  0  0  0
   -0.3443    3.7812   -1.2943 H   0  0  0  0  0  0  0  0  0  0  0  0
   -3.0881    2.4353   -1.4039 H   0  0  0  0  0  0  0  0  0  0  0  0
   -1.7738    2.3307   -2.5778 H   0  0  0  0  0  0  0  0  0  0  0  0
  1  2  1  0
  2  3  1  0
  3  4  1  0
  4  5  1  0
  5  6  1  0
  6  7  2  0
  7  8  1  0
  8  9  1  0
  9 10  1  0
 10 11  1  0
 11 12  2  0
  7 13  1  0
 13 14  1  0
 14 15  2  0
 15 16  1  0
 16 17  2  0
 16 18  1  0
 18 19  1  0
 19 20  1  0
 15  5  1  0
 11  6  1  0
 20 14  1  0
  1 21  1  0
  1 22  1  0
  1 23  1  0
  2 24  1  0
  2 25  1  0
  3 26  1  0
  3 27  1  0
  4 28  1  0
  4 29  1  0
  5 30  1  0
  8 31  1  0
  8 32  1  0
  9 33  1  0
  9 34  1  0
 10 35  1  0
 10 36  1  0
 18 37  1  0
 18 38  1  0
 19 39  1  0
 19 40  1  0
 20 41  1  0
 20 42  1  0
M  END
$$$$
