
     RDKit          3D

 48 48  0  0  0  0  0  0  0  0999 V2000
   -7.1494   -0.6360    0.7653 C   0  0  0  0  0  0  0  0  0  0  0  0
   -6.2277   -0.7196   -0.4417 C   0  0  0  0  0  0  0  0  0  0  0  0
   -4.8137   -0.2011   -0.1670 C   0  0  0  0  0  0  0  0  0  0  0  0
   -4.0550   -1.0364    0.8677 C   0  0  0  0  0  0  0  0  0  0  0  0
   -2.5749   -0.6547    0.9852 C   0  0  0  0  0  0  0  0  0  0  0  0
   -2.3582    0.7710    1.4996 C   0  0  0  0  0  0  0  0  0  0  0  0
   -0.8943    1.0792    1.8304 C   0  0  0  0  0  0  0  0  0  0  0  0
    0.0214    1.0633    0.6050 C   0  0  0  0  0  0  0  0  0  0  0  0
    1.4427    1.4879    0.9715 C   0  0  0  0  0  0  0  0  0  0  0  0
    2.3785    1.4639   -0.2246 C   0  0  0  0  0  0  0  0  0  0  0  0
    2.0062    1.2102   -1.3663 O   0  0  0  0  0  0  0  0  0  0  0  0
    3.6941    1.7624    0.1526 N   0  0  0  0  0  0  0  0  0  0  0  0
    4.6511    2.0039   -0.8011 N   0  0  0  0  0  0  0  0  0  0  0  0
    4.9948    1.0372   -1.6056 C   0  0  0  0  0  0  0  0  0  0  0  0
    5.9120    1.3907   -2.7546 C   0  0  0  0  0  0  0  0  0  0  0  0
    4.6129   -0.3874   -1.4845 C   0  0  0  0  0  0  0  0  0  0  0  0
    4.0520   -1.0805   -2.5553 C   0  0  0  0  0  0  0  0  0  0  0  0
    3.7237   -2.4240   -2.3912 C   0  0  0  0  0  0  0  0  0  0  0  0
    3.9788   -3.0214   -1.1648 C   0  0  0  0  0  0  0  0  0  0  0  0
    4.5330   -2.3777   -0.1124 N   0  0  0  0  0  0  0  0  0  0  0  0
    4.8363   -1.0697   -0.2966 C   0  0  0  0  0  0  0  0  0  0  0  0
   -8.1674   -0.9222    0.4810 H   0  0  0  0  0  0  0  0  0  0  0  0
   -7.1832    0.3827    1.1646 H   0  0  0  0  0  0  0  0  0  0  0  0
   -6.8267   -1.3113    1.5635 H   0  0  0  0  0  0  0  0  0  0  0  0
   -6.1834   -1.7564   -0.7956 H   0  0  0  0  0  0  0  0  0  0  0  0
   -6.6628   -0.1262   -1.2549 H   0  0  0  0  0  0  0  0  0  0  0  0
   -4.8734    0.8427    0.1614 H   0  0  0  0  0  0  0  0  0  0  0  0
   -4.2571   -0.2066   -1.1121 H   0  0  0  0  0  0  0  0  0  0  0  0
   -4.5289   -0.9401    1.8513 H   0  0  0  0  0  0  0  0  0  0  0  0
   -4.1138   -2.0958    0.5887 H   0  0  0  0  0  0  0  0  0  0  0  0
   -2.0943   -0.7813    0.0085 H   0  0  0  0  0  0  0  0  0  0  0  0
   -2.0927   -1.3621    1.6711 H   0  0  0  0  0  0  0  0  0  0  0  0
   -2.9525    0.9187    2.4096 H   0  0  0  0  0  0  0  0  0  0  0  0
   -2.7192    1.4972    0.7627 H   0  0  0  0  0  0  0  0  0  0  0  0
   -0.5271    0.3636    2.5765 H   0  0  0  0  0  0  0  0  0  0  0  0
   -0.8513    2.0712    2.2972 H   0  0  0  0  0  0  0  0  0  0  0  0
    0.0484    0.0591    0.1663 H   0  0  0  0  0  0  0  0  0  0  0  0
   -0.3778    1.7359   -0.1641 H   0  0  0  0  0  0  0  0  0  0  0  0
    1.8459    0.8148    1.7374 H   0  0  0  0  0  0  0  0  0  0  0  0
    1.4341    2.5061    1.3778 H   0  0  0  0  0  0  0  0  0  0  0  0
    3.7704    2.3924    0.9469 H   0  0  0  0  0  0  0  0  0  0  0  0
    6.7065    2.0528   -2.3967 H   0  0  0  0  0  0  0  0  0  0  0  0
    6.3765    0.5021   -3.1911 H   0  0  0  0  0  0  0  0  0  0  0  0
    5.3359    1.9124   -3.5243 H   0  0  0  0  0  0  0  0  0  0  0  0
    3.8402   -0.5778   -3.4942 H   0  0  0  0  0  0  0  0  0  0  0  0
    3.2694   -2.9897   -3.1973 H   0  0  0  0  0  0  0  0  0  0  0  0
    3.7349   -4.0661   -0.9917 H   0  0  0  0  0  0  0  0  0  0  0  0
    5.2853   -0.5772    0.5609 H   0  0  0  0  0  0  0  0  0  0  0  0
  1  2  1  0
  2  3  1  0
  3  4  1  0
  4  5  1  0
  5  6  1  0
  6  7  1  0
  7  8  1  0
  8  9  1  0
  9 10  1  0
 10 11  2  0
 10 12  1  0
 12 13  1  0
 13 14  2  3
 14 15  1  0
 14 16  1  0
 16 17  2  0
 17 18  1  0
 18 19  2  0
 19 20  1  0
 20 21  2  0
 21 16  1  0
  1 22  1  0
  1 23  1  0
  1 24  1  0
  2 25  1  0
  2 26  1  0
  3 27  1  0
  3 28  1  0
  4 29  1  0
  4 30  1  0
  5 31  1  0
  5 32  1  0
  6 33  1  0
  6 34  1  0
  7 35  1  0
  7 36  1  0
  8 37  1  0
  8 38  1  0
  9 39  1  0
  9 40  1  0
 12 41  1  0
 15 42  1  0
 15 43  1  0
 15 44  1  0
 17 45  1  0
 18 46  1  0
 19 47  1  0
 21 48  1  0
M  END
$$$$
