
     RDKit          3D

 58 61  0  0  0  0  0  0  0  0999 V2000
    0.0191    2.2119   -0.6924 O   0  0  0  0  0  0  0  0  0  0  0  0
   -0.5755    1.1521   -0.8790 C   0  0  0  0  0  0  0  0  0  0  0  0
    0.0952   -0.0542   -1.5769 C   0  0  0  0  0  0  0  0  0  0  0  0
    1.3531   -0.4330   -0.9009 N   0  0  0  0  0  0  0  0  0  0  0  0
    2.4751    0.4699   -1.2456 C   0  0  0  0  0  0  0  0  0  0  0  0
    3.4751   -0.0916   -2.2750 C   0  0  0  0  0  0  0  0  0  0  0  0
    4.0398   -1.3982   -1.8429 N   0  0  0  0  0  0  0  0  0  0  0  0
    5.7151   -1.5226   -1.6460 S   0  0  0  0  0  6  0  0  0  0  0  0
    6.0413   -2.8956   -1.3288 O   0  0  0  0  0  0  0  0  0  0  0  0
    6.3281   -0.8736   -2.7893 O   0  0  0  0  0  0  0  0  0  0  0  0
    6.0621   -0.5148   -0.2352 C   0  0  0  0  0  0  0  0  0  0  0  0
    6.5062    0.8018   -0.4141 C   0  0  0  0  0  0  0  0  0  0  0  0
    6.8204    1.5849    0.6975 C   0  0  0  0  0  0  0  0  0  0  0  0
    6.7059    1.0521    1.9825 C   0  0  0  0  0  0  0  0  0  0  0  0
    6.2807   -0.2656    2.1544 C   0  0  0  0  0  0  0  0  0  0  0  0
    5.9675   -1.0468    1.0443 C   0  0  0  0  0  0  0  0  0  0  0  0
    5.5504   -2.3010    1.2558 F   0  0  0  0  0  0  0  0  0  0  0  0
    3.1742   -2.1664   -0.9089 C   0  0  0  0  0  0  0  0  0  0  0  0
    1.6913   -1.8459   -1.1761 C   0  0  0  0  0  0  0  0  0  0  0  0
   -1.8907    0.8979   -0.5256 N   0  0  0  0  0  0  0  0  0  0  0  0
   -2.8288    1.7615    0.0925 C   0  0  0  0  0  0  0  0  0  0  0  0
   -2.5073    3.0659    0.4843 C   0  0  0  0  0  0  0  0  0  0  0  0
   -3.4710    3.9019    1.0590 C   0  0  0  0  0  0  0  0  0  0  0  0
   -4.7727    3.4504    1.2446 C   0  0  0  0  0  0  0  0  0  0  0  0
   -5.1132    2.1507    0.8737 C   0  0  0  0  0  0  0  0  0  0  0  0
   -4.1452    1.2936    0.3214 C   0  0  0  0  0  0  0  0  0  0  0  0
   -4.5293   -0.0995   -0.0575 C   0  0  0  0  0  0  0  0  0  0  0  0
   -3.9482   -0.6598   -0.9861 O   0  0  0  0  0  0  0  0  0  0  0  0
   -5.5865   -0.8458    0.6661 C   0  0  0  0  0  0  0  0  0  0  0  0
   -5.6873   -0.8047    2.0613 C   0  0  0  0  0  0  0  0  0  0  0  0
   -6.6884   -1.5362    2.7045 C   0  0  0  0  0  0  0  0  0  0  0  0
   -7.5774   -2.3136    1.9596 C   0  0  0  0  0  0  0  0  0  0  0  0
   -7.4646   -2.3701    0.5718 C   0  0  0  0  0  0  0  0  0  0  0  0
   -6.4653   -1.6427   -0.0769 C   0  0  0  0  0  0  0  0  0  0  0  0
    0.2524    0.1923   -2.6337 H   0  0  0  0  0  0  0  0  0  0  0  0
   -0.6000   -0.9020   -1.5467 H   0  0  0  0  0  0  0  0  0  0  0  0
    2.1283    1.4448   -1.6026 H   0  0  0  0  0  0  0  0  0  0  0  0
    3.0177    0.6697   -0.3128 H   0  0  0  0  0  0  0  0  0  0  0  0
    4.2615    0.6481   -2.4482 H   0  0  0  0  0  0  0  0  0  0  0  0
    2.9757   -0.2455   -3.2388 H   0  0  0  0  0  0  0  0  0  0  0  0
    6.6165    1.2222   -1.4125 H   0  0  0  0  0  0  0  0  0  0  0  0
    7.1629    2.6088    0.5624 H   0  0  0  0  0  0  0  0  0  0  0  0
    6.9544    1.6607    2.8482 H   0  0  0  0  0  0  0  0  0  0  0  0
    6.1943   -0.6918    3.1506 H   0  0  0  0  0  0  0  0  0  0  0  0
    3.3390   -3.2376   -1.0678 H   0  0  0  0  0  0  0  0  0  0  0  0
    3.4131   -1.9254    0.1311 H   0  0  0  0  0  0  0  0  0  0  0  0
    1.4640   -2.0992   -2.2207 H   0  0  0  0  0  0  0  0  0  0  0  0
    1.0683   -2.4849   -0.5403 H   0  0  0  0  0  0  0  0  0  0  0  0
   -2.2833    0.0006   -0.8182 H   0  0  0  0  0  0  0  0  0  0  0  0
   -1.5106    3.4740    0.3492 H   0  0  0  0  0  0  0  0  0  0  0  0
   -3.1997    4.9163    1.3463 H   0  0  0  0  0  0  0  0  0  0  0  0
   -5.5225    4.1126    1.6724 H   0  0  0  0  0  0  0  0  0  0  0  0
   -6.1431    1.8289    1.0071 H   0  0  0  0  0  0  0  0  0  0  0  0
   -4.9871   -0.2266    2.6589 H   0  0  0  0  0  0  0  0  0  0  0  0
   -6.7711   -1.5099    3.7880 H   0  0  0  0  0  0  0  0  0  0  0  0
   -8.3529   -2.8867    2.4644 H   0  0  0  0  0  0  0  0  0  0  0  0
   -8.1520   -2.9859   -0.0067 H   0  0  0  0  0  0  0  0  0  0  0  0
   -6.3751   -1.6962   -1.1608 H   0  0  0  0  0  0  0  0  0  0  0  0
  1  2  2  0
  2  3  1  0
  3  4  1  0
  4  5  1  0
  5  6  1  0
  6  7  1  0
  7  8  1  0
  8  9  2  0
  8 10  2  0
  8 11  1  0
 11 12  2  0
 12 13  1  0
 13 14  2  0
 14 15  1  0
 15 16  2  0
 16 17  1  0
  7 18  1  0
 18 19  1  0
  2 20  1  0
 20 21  1  0
 21 22  2  0
 22 23  1  0
 23 24  2  0
 24 25  1  0
 25 26  2  0
 26 27  1  0
 27 28  2  0
 27 29  1  0
 29 30  2  0
 30 31  1  0
 31 32  2  0
 32 33  1  0
 33 34  2  0
 19  4  1  0
 26 21  1  0
 34 29  1  0
 16 11  1  0
  3 35  1  0
  3 36  1  0
  5 37  1  0
  5 38  1  0
  6 39  1  0
  6 40  1  0
 12 41  1  0
 13 42  1  0
 14 43  1  0
 15 44  1  0
 18 45  1  0
 18 46  1  0
 19 47  1  0
 19 48  1  0
 20 49  1  0
 22 50  1  0
 23 51  1  0
 24 52  1  0
 25 53  1  0
 30 54  1  0
 31 55  1  0
 32 56  1  0
 33 57  1  0
 34 58  1  0
M  END
$$$$
