
     RDKit          3D

 49 51  0  0  0  0  0  0  0  0999 V2000
   -1.2590    2.1323    2.4546 O   0  0  0  0  0  0  0  0  0  0  0  0
   -0.9653    1.7039    1.3371 C   0  0  0  0  0  0  0  0  0  0  0  0
   -2.0382    1.3110    0.3412 C   0  0  0  0  0  0  0  0  0  0  0  0
   -2.4340   -0.1495    0.5357 C   0  0  0  0  0  0  0  0  0  0  0  0
   -3.6756   -0.4947   -0.1646 N   0  0  0  0  0  0  0  0  0  0  0  0
   -3.5862   -0.4345   -1.6317 C   0  0  0  0  0  0  0  0  0  0  0  0
   -4.9911   -0.6020   -2.2408 C   0  0  0  0  0  0  0  0  0  0  0  0
   -5.6671   -1.8900   -1.7766 C   0  0  0  0  0  0  0  0  0  0  0  0
   -5.6104   -2.0086   -0.2568 C   0  0  0  0  0  0  0  0  0  0  0  0
   -4.1852   -1.8082    0.2632 C   0  0  0  0  0  0  0  0  0  0  0  0
    0.3163    1.4962    0.8579 N   0  0  0  0  0  0  0  0  0  0  0  0
    1.5427    1.9323    1.4239 C   0  0  0  0  0  0  0  0  0  0  0  0
    1.5906    2.7755    2.5437 C   0  0  0  0  0  0  0  0  0  0  0  0
    2.8101    3.2687    3.0219 C   0  0  0  0  0  0  0  0  0  0  0  0
    3.9955    2.9329    2.3756 C   0  0  0  0  0  0  0  0  0  0  0  0
    5.6352    3.6363    3.0025 Br  0  0  0  0  0  0  0  0  0  0  0  0
    3.9817    2.0792    1.2748 C   0  0  0  0  0  0  0  0  0  0  0  0
    2.7614    1.5485    0.8156 C   0  0  0  0  0  0  0  0  0  0  0  0
    2.7631    0.5721   -0.3181 C   0  0  0  0  0  0  0  0  0  0  0  0
    1.7986    0.5126   -1.0824 O   0  0  0  0  0  0  0  0  0  0  0  0
    3.8785   -0.3886   -0.5235 C   0  0  0  0  0  0  0  0  0  0  0  0
    4.5575   -0.9807    0.5453 C   0  0  0  0  0  0  0  0  0  0  0  0
    5.5823   -1.9022    0.3024 C   0  0  0  0  0  0  0  0  0  0  0  0
    5.9228   -2.2431   -1.0057 C   0  0  0  0  0  0  0  0  0  0  0  0
    5.2334   -1.6771   -2.0759 C   0  0  0  0  0  0  0  0  0  0  0  0
    4.2076   -0.7570   -1.8406 C   0  0  0  0  0  0  0  0  0  0  0  0
   -2.8913    1.9742    0.4825 H   0  0  0  0  0  0  0  0  0  0  0  0
   -1.6659    1.4853   -0.6691 H   0  0  0  0  0  0  0  0  0  0  0  0
   -1.6032   -0.8086    0.2377 H   0  0  0  0  0  0  0  0  0  0  0  0
   -2.5870   -0.3090    1.6090 H   0  0  0  0  0  0  0  0  0  0  0  0
   -2.9031   -1.2134   -2.0332 H   0  0  0  0  0  0  0  0  0  0  0  0
   -3.1945    0.5464   -1.9527 H   0  0  0  0  0  0  0  0  0  0  0  0
   -5.6074    0.2634   -1.9487 H   0  0  0  0  0  0  0  0  0  0  0  0
   -4.9307   -0.5942   -3.3351 H   0  0  0  0  0  0  0  0  0  0  0  0
   -5.1637   -2.7541   -2.2308 H   0  0  0  0  0  0  0  0  0  0  0  0
   -6.7110   -1.9090   -2.1137 H   0  0  0  0  0  0  0  0  0  0  0  0
   -6.2692   -1.2527    0.1967 H   0  0  0  0  0  0  0  0  0  0  0  0
   -5.9879   -2.9900    0.0516 H   0  0  0  0  0  0  0  0  0  0  0  0
   -3.5314   -2.6229   -0.0900 H   0  0  0  0  0  0  0  0  0  0  0  0
   -4.2124   -1.8632    1.3579 H   0  0  0  0  0  0  0  0  0  0  0  0
    0.4113    1.0182   -0.0455 H   0  0  0  0  0  0  0  0  0  0  0  0
    0.6890    3.0913    3.0611 H   0  0  0  0  0  0  0  0  0  0  0  0
    2.8104    3.9267    3.8867 H   0  0  0  0  0  0  0  0  0  0  0  0
    4.9181    1.8388    0.7752 H   0  0  0  0  0  0  0  0  0  0  0  0
    4.2790   -0.7610    1.5768 H   0  0  0  0  0  0  0  0  0  0  0  0
    6.1092   -2.3666    1.1329 H   0  0  0  0  0  0  0  0  0  0  0  0
    6.7183   -2.9721   -1.1978 H   0  0  0  0  0  0  0  0  0  0  0  0
    5.5001   -1.9496   -3.1011 H   0  0  0  0  0  0  0  0  0  0  0  0
    3.6580   -0.3432   -2.6836 H   0  0  0  0  0  0  0  0  0  0  0  0
  1  2  2  0
  2  3  1  0
  3  4  1  0
  4  5  1  0
  5  6  1  0
  6  7  1  0
  7  8  1  0
  8  9  1  0
  9 10  1  0
  2 11  1  0
 11 12  1  0
 12 13  2  0
 13 14  1  0
 14 15  2  0
 15 16  1  0
 15 17  1  0
 17 18  2  0
 18 19  1  0
 19 20  2  0
 19 21  1  0
 21 22  2  0
 22 23  1  0
 23 24  2  0
 24 25  1  0
 25 26  2  0
 10  5  1  0
 18 12  1  0
 26 21  1  0
  3 27  1  0
  3 28  1  0
  4 29  1  0
  4 30  1  0
  6 31  1  0
  6 32  1  0
  7 33  1  0
  7 34  1  0
  8 35  1  0
  8 36  1  0
  9 37  1  0
  9 38  1  0
 10 39  1  0
 10 40  1  0
 11 41  1  0
 13 42  1  0
 14 43  1  0
 17 44  1  0
 22 45  1  0
 23 46  1  0
 24 47  1  0
 25 48  1  0
 26 49  1  0
M  END
$$$$
