
     RDKit          3D

 48 50  0  0  0  0  0  0  0  0999 V2000
    4.8976    0.2958    2.3965 C   0  0  0  0  0  0  0  0  0  0  0  0
    5.0276    0.0444    0.9009 C   0  0  0  0  0  0  0  0  0  0  0  0
    3.8452   -0.6508    0.3763 N   0  0  0  0  0  0  0  0  0  0  0  0
    3.9160   -2.1177    0.3731 C   0  0  0  0  0  0  0  0  0  0  0  0
    4.4436   -2.6353   -0.9575 C   0  0  0  0  0  0  0  0  0  0  0  0
    2.7159    0.0352   -0.0604 C   0  0  0  0  0  0  0  0  0  0  0  0
    1.6307   -0.6158   -0.6740 C   0  0  0  0  0  0  0  0  0  0  0  0
    0.4893    0.0694   -1.1201 C   0  0  0  0  0  0  0  0  0  0  0  0
    0.3887    1.4482   -0.9591 C   0  0  0  0  0  0  0  0  0  0  0  0
   -0.7760    2.1896   -1.4485 C   0  0  0  0  0  0  0  0  0  0  0  0
   -2.0343    2.1599   -0.9641 C   0  0  0  0  0  0  0  0  0  0  0  0
   -3.0353    2.9649   -1.6983 C   0  0  0  0  0  0  0  0  0  0  0  0
   -2.7709    3.6711   -2.6658 O   0  0  0  0  0  0  0  0  0  0  0  0
   -4.3100    2.8647   -1.2318 N   0  0  0  0  0  0  0  0  0  0  0  0
   -4.7750    2.0166   -0.2714 C   0  0  0  0  0  0  0  0  0  0  0  0
   -5.9843    1.9790   -0.0541 O   0  0  0  0  0  0  0  0  0  0  0  0
   -3.8345    1.2738    0.4087 N   0  0  0  0  0  0  0  0  0  0  0  0
   -4.3035    0.3646    1.4459 C   0  0  0  0  0  0  0  0  0  0  0  0
   -4.2953   -1.0253    0.9088 C   0  0  0  0  0  0  0  0  0  0  0  0
   -3.3646   -2.0443    0.9372 C   0  0  0  0  0  0  0  0  0  0  0  0
   -3.9404   -3.1302    0.2360 C   0  0  0  0  0  0  0  0  0  0  0  0
   -5.1814   -2.7054   -0.1763 C   0  0  0  0  0  0  0  0  0  0  0  0
   -5.4044   -1.4276    0.2246 O   0  0  0  0  0  0  0  0  0  0  0  0
   -2.4624    1.3776    0.2267 C   0  0  0  0  0  0  0  0  0  0  0  0
   -1.6570    0.8737    1.0055 O   0  0  0  0  0  0  0  0  0  0  0  0
    1.4464    2.1277   -0.3639 C   0  0  0  0  0  0  0  0  0  0  0  0
    2.5818    1.4286    0.0759 C   0  0  0  0  0  0  0  0  0  0  0  0
    5.7951    0.7952    2.7747 H   0  0  0  0  0  0  0  0  0  0  0  0
    4.7768   -0.6445    2.9445 H   0  0  0  0  0  0  0  0  0  0  0  0
    4.0350    0.9273    2.6291 H   0  0  0  0  0  0  0  0  0  0  0  0
    5.2248    0.9776    0.3616 H   0  0  0  0  0  0  0  0  0  0  0  0
    5.9211   -0.5698    0.7303 H   0  0  0  0  0  0  0  0  0  0  0  0
    2.9505   -2.5744    0.6175 H   0  0  0  0  0  0  0  0  0  0  0  0
    4.5934   -2.4565    1.1675 H   0  0  0  0  0  0  0  0  0  0  0  0
    3.7942   -2.3502   -1.7906 H   0  0  0  0  0  0  0  0  0  0  0  0
    4.5105   -3.7275   -0.9380 H   0  0  0  0  0  0  0  0  0  0  0  0
    5.4426   -2.2380   -1.1654 H   0  0  0  0  0  0  0  0  0  0  0  0
    1.6420   -1.6885   -0.8371 H   0  0  0  0  0  0  0  0  0  0  0  0
   -0.3116   -0.4948   -1.5904 H   0  0  0  0  0  0  0  0  0  0  0  0
   -0.5410    2.8081   -2.3155 H   0  0  0  0  0  0  0  0  0  0  0  0
   -5.0145    3.3827   -1.7376 H   0  0  0  0  0  0  0  0  0  0  0  0
   -3.6481    0.4297    2.3221 H   0  0  0  0  0  0  0  0  0  0  0  0
   -5.3121    0.6304    1.7805 H   0  0  0  0  0  0  0  0  0  0  0  0
   -2.3882   -1.9981    1.4023 H   0  0  0  0  0  0  0  0  0  0  0  0
   -3.5053   -4.1023    0.0518 H   0  0  0  0  0  0  0  0  0  0  0  0
   -5.9844   -3.1659   -0.7350 H   0  0  0  0  0  0  0  0  0  0  0  0
    1.4056    3.2053   -0.2263 H   0  0  0  0  0  0  0  0  0  0  0  0
    3.3601    2.0218    0.5449 H   0  0  0  0  0  0  0  0  0  0  0  0
  1  2  1  0
  2  3  1  0
  3  4  1  0
  4  5  1  0
  3  6  1  0
  6  7  2  0
  7  8  1  0
  8  9  2  0
  9 10  1  0
 10 11  2  3
 11 12  1  0
 12 13  2  0
 12 14  1  0
 14 15  1  0
 15 16  2  0
 15 17  1  0
 17 18  1  0
 18 19  1  0
 19 20  2  0
 20 21  1  0
 21 22  2  0
 22 23  1  0
 17 24  1  0
 24 25  2  0
  9 26  1  0
 26 27  2  0
 27  6  1  0
 24 11  1  0
 23 19  1  0
  1 28  1  0
  1 29  1  0
  1 30  1  0
  2 31  1  0
  2 32  1  0
  4 33  1  0
  4 34  1  0
  5 35  1  0
  5 36  1  0
  5 37  1  0
  7 38  1  0
  8 39  1  0
 10 40  1  0
 14 41  1  0
 18 42  1  0
 18 43  1  0
 20 44  1  0
 21 45  1  0
 22 46  1  0
 26 47  1  0
 27 48  1  0
M  END
$$$$
