
     RDKit          3D

 52 55  0  0  0  0  0  0  0  0999 V2000
    8.8969   -0.3566   -0.6470 C   0  0  0  0  0  0  0  0  0  0  0  0
    8.4237    0.3328    0.6212 C   0  0  0  0  0  0  0  0  0  0  0  0
    7.4579   -0.4656    1.3036 O   0  0  0  0  0  0  0  0  0  0  0  0
    6.1392   -0.3289    0.9761 C   0  0  0  0  0  0  0  0  0  0  0  0
    5.2670   -1.0889    1.7565 C   0  0  0  0  0  0  0  0  0  0  0  0
    3.8872   -1.0508    1.5316 C   0  0  0  0  0  0  0  0  0  0  0  0
    3.3553   -0.2539    0.5128 C   0  0  0  0  0  0  0  0  0  0  0  0
    1.9541   -0.2580    0.3534 N   0  0  0  0  0  0  0  0  0  0  0  0
    1.2198    0.3105   -0.6666 C   0  0  0  0  0  0  0  0  0  0  0  0
    1.7043    0.8155   -1.6756 O   0  0  0  0  0  0  0  0  0  0  0  0
   -0.1646    0.2527   -0.4725 N   0  0  0  0  0  0  0  0  0  0  0  0
   -0.8063   -0.0722    0.8009 C   0  0  0  0  0  0  0  0  0  0  0  0
   -2.2627    0.3676    0.8667 C   0  0  0  0  0  0  0  0  0  0  0  0
   -3.0594   -0.1881   -0.3207 C   0  0  0  0  0  0  0  0  0  0  0  0
   -4.3864    0.4027   -0.3772 N   0  0  0  0  0  0  0  0  0  0  0  0
   -4.6722    1.7518   -0.6895 C   0  0  0  0  0  0  0  0  0  0  0  0
   -3.8852    2.6300   -0.9998 O   0  0  0  0  0  0  0  0  0  0  0  0
   -6.0600    1.9062   -0.5713 N   0  0  0  0  0  0  0  0  0  0  0  0
   -6.6189    0.6972   -0.1789 C   0  0  0  0  0  0  0  0  0  0  0  0
   -7.9391    0.3968    0.0679 C   0  0  0  0  0  0  0  0  0  0  0  0
   -8.2233   -0.9131    0.4631 C   0  0  0  0  0  0  0  0  0  0  0  0
   -7.1941   -1.8685    0.5990 C   0  0  0  0  0  0  0  0  0  0  0  0
   -5.8577   -1.5357    0.3420 C   0  0  0  0  0  0  0  0  0  0  0  0
   -5.5927   -0.2406   -0.0494 C   0  0  0  0  0  0  0  0  0  0  0  0
   -2.3046   -0.0514   -1.6564 C   0  0  0  0  0  0  0  0  0  0  0  0
   -1.0294    0.7742   -1.5321 C   0  0  0  0  0  0  0  0  0  0  0  0
    4.2284    0.5085   -0.2631 C   0  0  0  0  0  0  0  0  0  0  0  0
    5.6124    0.4689   -0.0364 C   0  0  0  0  0  0  0  0  0  0  0  0
    8.0788   -0.4877   -1.3616 H   0  0  0  0  0  0  0  0  0  0  0  0
    9.2810   -1.3565   -0.4183 H   0  0  0  0  0  0  0  0  0  0  0  0
    9.6899    0.2229   -1.1287 H   0  0  0  0  0  0  0  0  0  0  0  0
    8.0722    1.3541    0.4377 H   0  0  0  0  0  0  0  0  0  0  0  0
    9.2788    0.4292    1.3002 H   0  0  0  0  0  0  0  0  0  0  0  0
    5.6656   -1.7172    2.5495 H   0  0  0  0  0  0  0  0  0  0  0  0
    3.2431   -1.6556    2.1633 H   0  0  0  0  0  0  0  0  0  0  0  0
    1.4487   -0.8710    0.9696 H   0  0  0  0  0  0  0  0  0  0  0  0
   -0.2447    0.3982    1.6158 H   0  0  0  0  0  0  0  0  0  0  0  0
   -0.7378   -1.1588    0.9302 H   0  0  0  0  0  0  0  0  0  0  0  0
   -2.7124    0.0330    1.8094 H   0  0  0  0  0  0  0  0  0  0  0  0
   -2.3057    1.4639    0.8815 H   0  0  0  0  0  0  0  0  0  0  0  0
   -3.1857   -1.2644   -0.1520 H   0  0  0  0  0  0  0  0  0  0  0  0
   -6.5395    2.7755   -0.7372 H   0  0  0  0  0  0  0  0  0  0  0  0
   -8.7247    1.1352   -0.0364 H   0  0  0  0  0  0  0  0  0  0  0  0
   -9.2519   -1.2025    0.6697 H   0  0  0  0  0  0  0  0  0  0  0  0
   -7.4455   -2.8815    0.9079 H   0  0  0  0  0  0  0  0  0  0  0  0
   -5.0803   -2.2813    0.4492 H   0  0  0  0  0  0  0  0  0  0  0  0
   -2.9416    0.3624   -2.4467 H   0  0  0  0  0  0  0  0  0  0  0  0
   -2.0257   -1.0592   -1.9936 H   0  0  0  0  0  0  0  0  0  0  0  0
   -0.5049    0.7679   -2.4936 H   0  0  0  0  0  0  0  0  0  0  0  0
   -1.2530    1.8203   -1.2948 H   0  0  0  0  0  0  0  0  0  0  0  0
    3.8649    1.1551   -1.0565 H   0  0  0  0  0  0  0  0  0  0  0  0
    6.2409    1.0749   -0.6798 H   0  0  0  0  0  0  0  0  0  0  0  0
  1  2  1  0
  2  3  1  0
  3  4  1  0
  4  5  2  0
  5  6  1  0
  6  7  2  0
  7  8  1  0
  8  9  1  0
  9 10  2  0
  9 11  1  0
 11 12  1  0
 12 13  1  0
 13 14  1  0
 14 15  1  0
 15 16  1  0
 16 17  2  0
 16 18  1  0
 18 19  1  0
 19 20  2  0
 20 21  1  0
 21 22  2  0
 22 23  1  0
 23 24  2  0
 14 25  1  0
 25 26  1  0
  7 27  1  0
 27 28  2  0
 28  4  1  0
 26 11  1  0
 24 15  1  0
 24 19  1  0
  1 29  1  0
  1 30  1  0
  1 31  1  0
  2 32  1  0
  2 33  1  0
  5 34  1  0
  6 35  1  0
  8 36  1  0
 12 37  1  0
 12 38  1  0
 13 39  1  0
 13 40  1  0
 14 41  1  0
 18 42  1  0
 20 43  1  0
 21 44  1  0
 22 45  1  0
 23 46  1  0
 25 47  1  0
 25 48  1  0
 26 49  1  0
 26 50  1  0
 27 51  1  0
 28 52  1  0
M  END
$$$$
