
     RDKit          3D

 34 36  0  0  0  0  0  0  0  0999 V2000
   -5.0233    1.8136    0.6767 C   0  0  0  0  0  0  0  0  0  0  0  0
   -3.9293    0.9267    0.1916 C   0  0  0  0  0  0  0  0  0  0  0  0
   -2.5702    1.1415    0.2297 C   0  0  0  0  0  0  0  0  0  0  0  0
   -1.8025    0.0594   -0.3339 C   0  0  0  0  0  0  0  0  0  0  0  0
   -0.2830    0.1007   -0.4020 C   0  0  0  0  0  0  0  0  0  0  0  0
    0.2693   -0.2492   -1.7663 C   0  0  0  0  0  0  0  0  0  0  0  0
    1.4717    0.5769   -2.0858 C   0  0  0  0  0  0  0  0  0  0  0  0
    1.5410    1.1688   -3.1689 O   0  0  0  0  0  0  0  0  0  0  0  0
    2.5377    0.6820   -1.2604 N   0  0  0  0  0  0  0  0  0  0  0  0
    2.8911    0.1768    0.0065 C   0  0  0  0  0  0  0  0  0  0  0  0
    4.2250    0.4840    0.3644 C   0  0  0  0  0  0  0  0  0  0  0  0
    4.7926    0.0574    1.5648 C   0  0  0  0  0  0  0  0  0  0  0  0
    4.0345   -0.6915    2.4450 C   0  0  0  0  0  0  0  0  0  0  0  0
    2.7136   -0.9955    2.1196 C   0  0  0  0  0  0  0  0  0  0  0  0
    2.1136   -0.5635    0.9129 C   0  0  0  0  0  0  0  0  0  0  0  0
    0.4059   -1.0655    0.8093 S   0  0  0  0  0  0  0  0  0  0  0  0
   -2.6490   -0.9536   -0.7755 C   0  0  0  0  0  0  0  0  0  0  0  0
   -2.3143   -2.2596   -1.4237 C   0  0  0  0  0  0  0  0  0  0  0  0
   -4.3013   -0.5732   -0.5215 S   0  0  0  0  0  0  0  0  0  0  0  0
   -5.6903    2.0934   -0.1453 H   0  0  0  0  0  0  0  0  0  0  0  0
   -5.6136    1.3143    1.4521 H   0  0  0  0  0  0  0  0  0  0  0  0
   -4.6179    2.7354    1.1069 H   0  0  0  0  0  0  0  0  0  0  0  0
   -2.1317    2.0412    0.6468 H   0  0  0  0  0  0  0  0  0  0  0  0
    0.0249    1.1115   -0.1035 H   0  0  0  0  0  0  0  0  0  0  0  0
    0.5217   -1.3079   -1.8994 H   0  0  0  0  0  0  0  0  0  0  0  0
   -0.4713   -0.0107   -2.5422 H   0  0  0  0  0  0  0  0  0  0  0  0
    3.2476    1.2428   -1.7212 H   0  0  0  0  0  0  0  0  0  0  0  0
    4.8587    1.0620   -0.3071 H   0  0  0  0  0  0  0  0  0  0  0  0
    5.8234    0.3072    1.8027 H   0  0  0  0  0  0  0  0  0  0  0  0
    4.4592   -1.0373    3.3838 H   0  0  0  0  0  0  0  0  0  0  0  0
    2.1391   -1.5794    2.8396 H   0  0  0  0  0  0  0  0  0  0  0  0
   -2.0402   -2.1000   -2.4715 H   0  0  0  0  0  0  0  0  0  0  0  0
   -1.4771   -2.7482   -0.9177 H   0  0  0  0  0  0  0  0  0  0  0  0
   -3.1555   -2.9607   -1.4004 H   0  0  0  0  0  0  0  0  0  0  0  0
  1  2  1  0
  2  3  2  0
  3  4  1  0
  4  5  1  0
  5  6  1  0
  6  7  1  0
  7  8  2  0
  7  9  1  0
  9 10  1  0
 10 11  2  0
 11 12  1  0
 12 13  2  0
 13 14  1  0
 14 15  2  0
 15 16  1  0
  4 17  2  0
 17 18  1  0
 17 19  1  0
 19  2  1  0
 16  5  1  0
 15 10  1  0
  1 20  1  0
  1 21  1  0
  1 22  1  0
  3 23  1  0
  5 24  1  0
  6 25  1  0
  6 26  1  0
  9 27  1  0
 11 28  1  0
 12 29  1  0
 13 30  1  0
 14 31  1  0
 18 32  1  0
 18 33  1  0
 18 34  1  0
M  END
$$$$
