
     RDKit          3D

 54 57  0  0  0  0  0  0  0  0999 V2000
   -0.2756    3.6961    0.3728 C   0  0  0  0  0  0  0  0  0  0  0  0
   -0.9762    2.4960   -0.0478 N   0  0  0  0  0  0  0  0  0  0  0  0
   -0.2833    1.5800   -0.8300 C   0  0  0  0  0  0  0  0  0  0  0  0
    0.8513    1.8010   -1.2423 O   0  0  0  0  0  0  0  0  0  0  0  0
   -0.9923    0.3414   -1.1797 C   0  0  0  0  0  0  0  0  0  0  0  0
   -0.4307   -0.7712   -1.7876 C   0  0  0  0  0  0  0  0  0  0  0  0
    1.2864   -0.9622   -2.2352 S   0  0  0  0  0  0  0  0  0  0  0  0
    1.8456   -1.8607   -0.7553 C   0  0  0  0  0  0  0  0  0  0  0  0
    1.7454   -0.9631    0.4655 C   0  0  0  0  0  0  0  0  0  0  0  0
    0.7185   -0.8805    1.1377 O   0  0  0  0  0  0  0  0  0  0  0  0
    2.8685   -0.2141    0.7190 N   0  0  0  0  0  0  0  0  0  0  0  0
    2.9498    0.7271    1.8204 C   0  0  0  0  0  0  0  0  0  0  0  0
    3.9194    1.8692    1.4906 C   0  0  0  0  0  0  0  0  0  0  0  0
    4.0427    2.8799    2.6210 C   0  0  0  0  0  0  0  0  0  0  0  0
    5.2235    2.3641    3.4039 C   0  0  0  0  0  0  0  0  0  0  0  0
    6.1111    1.8214    2.3076 C   0  0  0  0  0  0  0  0  0  0  0  0
    5.2383    1.3103    1.2906 O   0  0  0  0  0  0  0  0  0  0  0  0
   -1.1501   -1.8752   -2.0906 N   0  0  0  0  0  0  0  0  0  0  0  0
   -2.4424   -1.8823   -1.7545 C   0  0  0  0  0  0  0  0  0  0  0  0
   -3.2475   -3.0591   -2.0943 C   0  0  0  0  0  0  0  0  0  0  0  0
   -4.4913   -2.8790   -2.7397 C   0  0  0  0  0  0  0  0  0  0  0  0
   -5.2938   -3.9638   -3.1025 C   0  0  0  0  0  0  0  0  0  0  0  0
   -4.8738   -5.2591   -2.8245 C   0  0  0  0  0  0  0  0  0  0  0  0
   -3.6585   -5.4667   -2.1760 C   0  0  0  0  0  0  0  0  0  0  0  0
   -2.8521   -4.3794   -1.8086 C   0  0  0  0  0  0  0  0  0  0  0  0
   -1.3966   -4.7556   -0.9455 Cl  0  0  0  0  0  0  0  0  0  0  0  0
   -3.0706   -0.8490   -1.1776 N   0  0  0  0  0  0  0  0  0  0  0  0
   -2.3311    0.2416   -0.8750 C   0  0  0  0  0  0  0  0  0  0  0  0
   -2.9953    1.3061   -0.2267 N   0  0  0  0  0  0  0  0  0  0  0  0
   -4.4190    1.1508    0.0375 C   0  0  0  0  0  0  0  0  0  0  0  0
   -2.3387    2.4414    0.2030 C   0  0  0  0  0  0  0  0  0  0  0  0
   -2.9285    3.3668    0.7647 O   0  0  0  0  0  0  0  0  0  0  0  0
   -0.6125    4.0014    1.3693 H   0  0  0  0  0  0  0  0  0  0  0  0
   -0.5044    4.4985   -0.3375 H   0  0  0  0  0  0  0  0  0  0  0  0
    0.8072    3.5405    0.4049 H   0  0  0  0  0  0  0  0  0  0  0  0
    1.2495   -2.7629   -0.5915 H   0  0  0  0  0  0  0  0  0  0  0  0
    2.8827   -2.1762   -0.9021 H   0  0  0  0  0  0  0  0  0  0  0  0
    3.7107   -0.3448    0.1681 H   0  0  0  0  0  0  0  0  0  0  0  0
    3.2980    0.1530    2.6856 H   0  0  0  0  0  0  0  0  0  0  0  0
    1.9520    1.1189    2.0420 H   0  0  0  0  0  0  0  0  0  0  0  0
    3.6120    2.3586    0.5594 H   0  0  0  0  0  0  0  0  0  0  0  0
    4.2885    3.8642    2.2043 H   0  0  0  0  0  0  0  0  0  0  0  0
    3.1343    2.9887    3.2202 H   0  0  0  0  0  0  0  0  0  0  0  0
    4.9055    1.5519    4.0674 H   0  0  0  0  0  0  0  0  0  0  0  0
    5.7148    3.1286    4.0111 H   0  0  0  0  0  0  0  0  0  0  0  0
    6.7750    1.0258    2.6575 H   0  0  0  0  0  0  0  0  0  0  0  0
    6.7197    2.6149    1.8604 H   0  0  0  0  0  0  0  0  0  0  0  0
   -4.8386   -1.8724   -2.9710 H   0  0  0  0  0  0  0  0  0  0  0  0
   -6.2450   -3.7933   -3.6023 H   0  0  0  0  0  0  0  0  0  0  0  0
   -5.4937   -6.1070   -3.1055 H   0  0  0  0  0  0  0  0  0  0  0  0
   -3.3422   -6.4832   -1.9496 H   0  0  0  0  0  0  0  0  0  0  0  0
   -4.8454    2.0388    0.5119 H   0  0  0  0  0  0  0  0  0  0  0  0
   -4.9496    0.9837   -0.9054 H   0  0  0  0  0  0  0  0  0  0  0  0
   -4.5716    0.3002    0.7101 H   0  0  0  0  0  0  0  0  0  0  0  0
  1  2  1  0
  2  3  1  0
  3  4  2  0
  3  5  1  0
  5  6  2  0
  6  7  1  0
  7  8  1  0
  8  9  1  0
  9 10  2  0
  9 11  1  0
 11 12  1  0
 12 13  1  0
 13 14  1  0
 14 15  1  0
 15 16  1  0
 16 17  1  0
  6 18  1  0
 18 19  2  0
 19 20  1  0
 20 21  2  0
 21 22  1  0
 22 23  2  0
 23 24  1  0
 24 25  2  0
 25 26  1  0
 19 27  1  0
 27 28  2  0
 28 29  1  0
 29 30  1  0
 29 31  1  0
 31 32  2  0
 31  2  1  0
 28  5  1  0
 17 13  1  0
 25 20  1  0
  1 33  1  0
  1 34  1  0
  1 35  1  0
  8 36  1  0
  8 37  1  0
 11 38  1  0
 12 39  1  0
 12 40  1  0
 13 41  1  0
 14 42  1  0
 14 43  1  0
 15 44  1  0
 15 45  1  0
 16 46  1  0
 16 47  1  0
 21 48  1  0
 22 49  1  0
 23 50  1  0
 24 51  1  0
 30 52  1  0
 30 53  1  0
 30 54  1  0
M  END
$$$$
