
     RDKit          3D

 40 42  0  0  0  0  0  0  0  0999 V2000
    5.7111    1.7182    0.9866 C   0  0  0  0  0  0  0  0  0  0  0  0
    5.3677    1.5698   -0.4837 C   0  0  0  0  0  0  0  0  0  0  0  0
    4.1600    0.8119   -0.6355 O   0  0  0  0  0  0  0  0  0  0  0  0
    2.9985    1.5227   -0.5802 C   0  0  0  0  0  0  0  0  0  0  0  0
    2.9207    2.7313   -0.4073 O   0  0  0  0  0  0  0  0  0  0  0  0
    1.8176    0.6061   -0.7566 C   0  0  0  0  0  0  0  0  0  0  0  0
    0.6061    1.1874   -0.7343 N   0  0  0  0  0  0  0  0  0  0  0  0
   -0.4536    0.3743   -0.8697 C   0  0  0  0  0  0  0  0  0  0  0  0
   -1.6963    1.0396   -0.8200 N   0  0  0  0  0  0  0  0  0  0  0  0
   -2.7966    0.7230    0.0184 C   0  0  0  0  0  0  0  0  0  0  0  0
   -4.0750    0.8565   -0.5519 C   0  0  0  0  0  0  0  0  0  0  0  0
   -5.2291    0.6109    0.1906 C   0  0  0  0  0  0  0  0  0  0  0  0
   -5.1225    0.2524    1.5281 C   0  0  0  0  0  0  0  0  0  0  0  0
   -3.8648    0.1634    2.1241 C   0  0  0  0  0  0  0  0  0  0  0  0
   -2.6915    0.4236    1.3912 C   0  0  0  0  0  0  0  0  0  0  0  0
   -1.3769    0.3620    2.1193 C   0  0  0  0  0  0  0  0  0  0  0  0
   -0.3299   -1.0134   -1.0755 C   0  0  0  0  0  0  0  0  0  0  0  0
   -1.3968   -1.9245   -1.2918 C   0  0  0  0  0  0  0  0  0  0  0  0
   -1.1572   -3.2845   -1.4766 C   0  0  0  0  0  0  0  0  0  0  0  0
    0.1475   -3.7538   -1.4561 C   0  0  0  0  0  0  0  0  0  0  0  0
    1.2007   -2.8579   -1.2589 C   0  0  0  0  0  0  0  0  0  0  0  0
    0.9856   -1.4975   -1.0746 C   0  0  0  0  0  0  0  0  0  0  0  0
    2.0498   -0.7106   -0.9099 N   0  0  0  0  0  0  0  0  0  0  0  0
    4.9318    2.2734    1.5181 H   0  0  0  0  0  0  0  0  0  0  0  0
    5.7849    0.7361    1.4651 H   0  0  0  0  0  0  0  0  0  0  0  0
    6.6617    2.2442    1.1117 H   0  0  0  0  0  0  0  0  0  0  0  0
    6.1613    1.0124   -0.9922 H   0  0  0  0  0  0  0  0  0  0  0  0
    5.2922    2.5447   -0.9787 H   0  0  0  0  0  0  0  0  0  0  0  0
   -1.4494    2.0181   -0.6589 H   0  0  0  0  0  0  0  0  0  0  0  0
   -4.1687    1.1373   -1.5991 H   0  0  0  0  0  0  0  0  0  0  0  0
   -6.2061    0.7011   -0.2760 H   0  0  0  0  0  0  0  0  0  0  0  0
   -6.0170    0.0568    2.1138 H   0  0  0  0  0  0  0  0  0  0  0  0
   -3.8044   -0.0963    3.1795 H   0  0  0  0  0  0  0  0  0  0  0  0
   -1.5232    0.3865    3.2050 H   0  0  0  0  0  0  0  0  0  0  0  0
   -0.7533    1.2266    1.8725 H   0  0  0  0  0  0  0  0  0  0  0  0
   -0.8477   -0.5641    1.8776 H   0  0  0  0  0  0  0  0  0  0  0  0
   -2.4248   -1.5725   -1.3238 H   0  0  0  0  0  0  0  0  0  0  0  0
   -1.9865   -3.9686   -1.6372 H   0  0  0  0  0  0  0  0  0  0  0  0
    0.3526   -4.8116   -1.5990 H   0  0  0  0  0  0  0  0  0  0  0  0
    2.2217   -3.2350   -1.2540 H   0  0  0  0  0  0  0  0  0  0  0  0
  1  2  1  0
  2  3  1  0
  3  4  1  0
  4  5  2  0
  4  6  1  0
  6  7  2  0
  7  8  1  0
  8  9  1  0
  9 10  1  0
 10 11  2  0
 11 12  1  0
 12 13  2  0
 13 14  1  0
 14 15  2  0
 15 16  1  0
  8 17  2  0
 17 18  1  0
 18 19  2  0
 19 20  1  0
 20 21  2  0
 21 22  1  0
 22 23  2  0
 23  6  1  0
 15 10  1  0
 22 17  1  0
  1 24  1  0
  1 25  1  0
  1 26  1  0
  2 27  1  0
  2 28  1  0
  9 29  1  0
 11 30  1  0
 12 31  1  0
 13 32  1  0
 14 33  1  0
 16 34  1  0
 16 35  1  0
 16 36  1  0
 18 37  1  0
 19 38  1  0
 20 39  1  0
 21 40  1  0
M  END
$$$$
