
     RDKit          3D

 48 51  0  0  0  0  0  0  0  0999 V2000
    6.2614   -1.9750    2.7489 O   0  0  0  0  0  0  0  0  0  0  0  0
    5.0455   -1.9133    1.9664 S   0  0  0  0  0  6  0  0  0  0  0  0
    4.1326   -3.0335    1.9171 O   0  0  0  0  0  0  0  0  0  0  0  0
    4.2278   -0.5281    2.4678 N   0  0  0  0  0  0  0  0  0  0  0  0
    2.9240   -0.2845    1.9661 C   0  0  0  0  0  0  0  0  0  0  0  0
    2.7490    0.7201    1.0203 C   0  0  0  0  0  0  0  0  0  0  0  0
    1.4716    0.9917    0.5157 C   0  0  0  0  0  0  0  0  0  0  0  0
    0.3440    0.2671    0.9461 C   0  0  0  0  0  0  0  0  0  0  0  0
   -1.0108    0.5339    0.4236 C   0  0  0  0  0  0  0  0  0  0  0  0
   -1.2747    1.0445   -0.8386 C   0  0  0  0  0  0  0  0  0  0  0  0
   -2.5988    1.2547   -1.2337 C   0  0  0  0  0  0  0  0  0  0  0  0
   -3.6471    0.9460   -0.3750 C   0  0  0  0  0  0  0  0  0  0  0  0
   -4.9803    1.1800   -0.7729 N   0  0  0  0  0  0  0  0  0  0  0  0
   -5.3709    0.4063   -1.9728 C   0  0  0  0  0  0  0  0  0  0  0  0
   -6.8160    0.7562   -2.3680 C   0  0  0  0  0  0  0  0  0  0  0  0
   -7.7321    0.5255   -1.2866 O   0  0  0  0  0  0  0  0  0  0  0  0
   -7.3640    1.3216   -0.1479 C   0  0  0  0  0  0  0  0  0  0  0  0
   -5.9449    0.9842    0.3353 C   0  0  0  0  0  0  0  0  0  0  0  0
   -3.3509    0.4657    0.8493 N   0  0  0  0  0  0  0  0  0  0  0  0
   -2.0400    0.2487    1.2470 N   0  0  0  0  0  0  0  0  0  0  0  0
    0.5551   -0.7311    1.9183 C   0  0  0  0  0  0  0  0  0  0  0  0
    1.8294   -1.0041    2.4281 C   0  0  0  0  0  0  0  0  0  0  0  0
    5.5104   -1.4896    0.3050 C   0  0  0  0  0  0  0  0  0  0  0  0
    4.7657   -1.9828   -0.7697 C   0  0  0  0  0  0  0  0  0  0  0  0
    5.1405   -1.6525   -2.0730 C   0  0  0  0  0  0  0  0  0  0  0  0
    6.2570   -0.8398   -2.2999 C   0  0  0  0  0  0  0  0  0  0  0  0
    6.6545   -0.4645   -3.9386 Cl  0  0  0  0  0  0  0  0  0  0  0  0
    7.0056   -0.3602   -1.2162 C   0  0  0  0  0  0  0  0  0  0  0  0
    8.3923    0.6477   -1.4261 Cl  0  0  0  0  0  0  0  0  0  0  0  0
    6.6358   -0.6893    0.0903 C   0  0  0  0  0  0  0  0  0  0  0  0
    4.4121   -0.3006    3.4447 H   0  0  0  0  0  0  0  0  0  0  0  0
    3.5971    1.3058    0.6756 H   0  0  0  0  0  0  0  0  0  0  0  0
    1.3708    1.7996   -0.2060 H   0  0  0  0  0  0  0  0  0  0  0  0
   -0.4757    1.2790   -1.5329 H   0  0  0  0  0  0  0  0  0  0  0  0
   -2.7975    1.6837   -2.2101 H   0  0  0  0  0  0  0  0  0  0  0  0
   -4.7206    0.6258   -2.8263 H   0  0  0  0  0  0  0  0  0  0  0  0
   -5.3059   -0.6674   -1.7530 H   0  0  0  0  0  0  0  0  0  0  0  0
   -6.8943    1.8043   -2.6824 H   0  0  0  0  0  0  0  0  0  0  0  0
   -7.1318    0.1309   -3.2093 H   0  0  0  0  0  0  0  0  0  0  0  0
   -8.0870    1.1156    0.6477 H   0  0  0  0  0  0  0  0  0  0  0  0
   -7.4495    2.3824   -0.4127 H   0  0  0  0  0  0  0  0  0  0  0  0
   -5.9259   -0.0616    0.6695 H   0  0  0  0  0  0  0  0  0  0  0  0
   -5.6994    1.6352    1.1827 H   0  0  0  0  0  0  0  0  0  0  0  0
   -0.2867   -1.3165    2.2888 H   0  0  0  0  0  0  0  0  0  0  0  0
    1.9492   -1.7876    3.1719 H   0  0  0  0  0  0  0  0  0  0  0  0
    3.8970   -2.6173   -0.6015 H   0  0  0  0  0  0  0  0  0  0  0  0
    4.5589   -2.0337   -2.9096 H   0  0  0  0  0  0  0  0  0  0  0  0
    7.2176   -0.3235    0.9340 H   0  0  0  0  0  0  0  0  0  0  0  0
  1  2  2  0
  2  3  2  0
  2  4  1  0
  4  5  1  0
  5  6  2  0
  6  7  1  0
  7  8  2  0
  8  9  1  0
  9 10  2  0
 10 11  1  0
 11 12  2  0
 12 13  1  0
 13 14  1  0
 14 15  1  0
 15 16  1  0
 16 17  1  0
 17 18  1  0
 12 19  1  0
 19 20  2  0
  8 21  1  0
 21 22  2  0
  2 23  1  0
 23 24  2  0
 24 25  1  0
 25 26  2  0
 26 27  1  0
 26 28  1  0
 28 29  1  0
 28 30  2  0
 22  5  1  0
 30 23  1  0
 20  9  1  0
 18 13  1  0
  4 31  1  0
  6 32  1  0
  7 33  1  0
 10 34  1  0
 11 35  1  0
 14 36  1  0
 14 37  1  0
 15 38  1  0
 15 39  1  0
 17 40  1  0
 17 41  1  0
 18 42  1  0
 18 43  1  0
 21 44  1  0
 22 45  1  0
 24 46  1  0
 25 47  1  0
 30 48  1  0
M  END
$$$$
