
     RDKit          3D

 53 54  0  0  0  0  0  0  0  0999 V2000
    0.2090    5.4309    1.4982 C   0  0  0  0  0  0  0  0  0  0  0  0
   -1.3278    4.6661    2.0730 S   0  0  0  0  0  0  0  0  0  0  0  0
   -0.8852    2.9073    1.8612 C   0  0  0  0  0  0  0  0  0  0  0  0
   -1.0412    2.4716    0.4057 C   0  0  0  0  0  0  0  0  0  0  0  0
   -0.6044    1.0198    0.1805 C   0  0  0  0  0  0  0  0  0  0  0  0
   -1.5000    0.0690    0.8449 N   0  0  0  0  0  0  0  0  0  0  0  0
   -1.1778   -0.5178    2.0529 C   0  0  0  0  0  0  0  0  0  0  0  0
   -0.1785   -0.1935    2.6868 O   0  0  0  0  0  0  0  0  0  0  0  0
   -2.1898   -1.5738    2.5070 C   0  0  0  0  0  0  0  0  0  0  0  0
   -1.7961   -2.1658    3.7345 O   0  0  0  0  0  0  0  0  0  0  0  0
   -2.6171   -3.1261    4.2564 C   0  0  0  0  0  0  0  0  0  0  0  0
   -2.1788   -3.6696    5.4669 C   0  0  0  0  0  0  0  0  0  0  0  0
   -2.9200   -4.6603    6.1127 C   0  0  0  0  0  0  0  0  0  0  0  0
   -4.1091   -5.1149    5.5486 C   0  0  0  0  0  0  0  0  0  0  0  0
   -4.5531   -4.5780    4.3414 C   0  0  0  0  0  0  0  0  0  0  0  0
   -3.8097   -3.5850    3.6948 C   0  0  0  0  0  0  0  0  0  0  0  0
   -0.6299    0.7001   -1.3172 C   0  0  0  0  0  0  0  0  0  0  0  0
   -1.4867    0.0067   -1.8569 O   0  0  0  0  0  0  0  0  0  0  0  0
    0.4112    1.2964   -1.9580 O   0  0  0  0  0  0  0  0  0  0  0  0
    0.4974    1.0511   -3.3750 C   0  0  0  0  0  0  0  0  0  0  0  0
    1.1254   -0.3134   -3.6670 C   0  0  0  0  0  0  0  0  0  0  0  0
    2.4614   -0.3857   -3.1608 O   0  0  0  0  0  0  0  0  0  0  0  0
    3.4921    0.0746   -3.9291 C   0  0  0  0  0  0  0  0  0  0  0  0
    3.3931    0.6451   -5.1987 C   0  0  0  0  0  0  0  0  0  0  0  0
    4.5445    1.0768   -5.8681 C   0  0  0  0  0  0  0  0  0  0  0  0
    5.7938    0.9381   -5.2668 C   0  0  0  0  0  0  0  0  0  0  0  0
    7.3441    1.5232   -6.1751 Br  0  0  0  0  0  0  0  0  0  0  0  0
    5.9044    0.3716   -4.0011 C   0  0  0  0  0  0  0  0  0  0  0  0
    4.7529   -0.0576   -3.3374 C   0  0  0  0  0  0  0  0  0  0  0  0
    0.1336    6.5151    1.6177 H   0  0  0  0  0  0  0  0  0  0  0  0
    0.3799    5.2138    0.4413 H   0  0  0  0  0  0  0  0  0  0  0  0
    1.0568    5.0768    2.0904 H   0  0  0  0  0  0  0  0  0  0  0  0
    0.1342    2.7415    2.2241 H   0  0  0  0  0  0  0  0  0  0  0  0
   -1.5624    2.3342    2.5017 H   0  0  0  0  0  0  0  0  0  0  0  0
   -2.0867    2.5925    0.0911 H   0  0  0  0  0  0  0  0  0  0  0  0
   -0.4438    3.1237   -0.2429 H   0  0  0  0  0  0  0  0  0  0  0  0
    0.4180    0.8537    0.5395 H   0  0  0  0  0  0  0  0  0  0  0  0
   -2.2444   -0.3270    0.2772 H   0  0  0  0  0  0  0  0  0  0  0  0
   -2.2423   -2.3359    1.7199 H   0  0  0  0  0  0  0  0  0  0  0  0
   -3.1564   -1.0684    2.6223 H   0  0  0  0  0  0  0  0  0  0  0  0
   -1.2506   -3.3158    5.9099 H   0  0  0  0  0  0  0  0  0  0  0  0
   -2.5677   -5.0739    7.0538 H   0  0  0  0  0  0  0  0  0  0  0  0
   -4.6890   -5.8860    6.0490 H   0  0  0  0  0  0  0  0  0  0  0  0
   -5.4818   -4.9329    3.9014 H   0  0  0  0  0  0  0  0  0  0  0  0
   -4.1923   -3.1950    2.7583 H   0  0  0  0  0  0  0  0  0  0  0  0
    1.1134    1.8574   -3.7844 H   0  0  0  0  0  0  0  0  0  0  0  0
   -0.4943    1.1338   -3.8346 H   0  0  0  0  0  0  0  0  0  0  0  0
    1.0758   -0.5705   -4.7303 H   0  0  0  0  0  0  0  0  0  0  0  0
    0.5681   -1.0950   -3.1399 H   0  0  0  0  0  0  0  0  0  0  0  0
    2.4418    0.7741   -5.7021 H   0  0  0  0  0  0  0  0  0  0  0  0
    4.4543    1.5190   -6.8570 H   0  0  0  0  0  0  0  0  0  0  0  0
    6.8731    0.2584   -3.5224 H   0  0  0  0  0  0  0  0  0  0  0  0
    4.8385   -0.5007   -2.3474 H   0  0  0  0  0  0  0  0  0  0  0  0
  1  2  1  0
  2  3  1  0
  3  4  1  0
  4  5  1  0
  5  6  1  0
  6  7  1  0
  7  8  2  0
  7  9  1  0
  9 10  1  0
 10 11  1  0
 11 12  2  0
 12 13  1  0
 13 14  2  0
 14 15  1  0
 15 16  2  0
  5 17  1  0
 17 18  2  0
 17 19  1  0
 19 20  1  0
 20 21  1  0
 21 22  1  0
 22 23  1  0
 23 24  2  0
 24 25  1  0
 25 26  2  0
 26 27  1  0
 26 28  1  0
 28 29  2  0
 16 11  1  0
 29 23  1  0
  1 30  1  0
  1 31  1  0
  1 32  1  0
  3 33  1  0
  3 34  1  0
  4 35  1  0
  4 36  1  0
  5 37  1  0
  6 38  1  0
  9 39  1  0
  9 40  1  0
 12 41  1  0
 13 42  1  0
 14 43  1  0
 15 44  1  0
 16 45  1  0
 20 46  1  0
 20 47  1  0
 21 48  1  0
 21 49  1  0
 24 50  1  0
 25 51  1  0
 28 52  1  0
 29 53  1  0
M  END
$$$$
