
     RDKit          3D

 36 38  0  0  0  0  0  0  0  0999 V2000
   -1.0841   -0.0593    0.2573 O   0  0  0  0  0  0  0  0  0  0  0  0
   -0.8202    1.0729   -0.1250 C   0  0  0  0  0  0  0  0  0  0  0  0
   -1.8339    2.0534   -0.6234 C   0  0  0  0  0  0  0  0  0  0  0  0
   -3.1518    1.8763   -0.8028 C   0  0  0  0  0  0  0  0  0  0  0  0
   -3.9315    0.6626   -0.5415 C   0  0  0  0  0  0  0  0  0  0  0  0
   -4.6241    0.0586   -1.5987 C   0  0  0  0  0  0  0  0  0  0  0  0
   -5.4071   -1.0752   -1.3725 C   0  0  0  0  0  0  0  0  0  0  0  0
   -5.5022   -1.6011   -0.0902 C   0  0  0  0  0  0  0  0  0  0  0  0
   -6.2724   -2.7121    0.0856 O   0  0  0  0  0  0  0  0  0  0  0  0
   -4.8327   -1.0075    0.9745 C   0  0  0  0  0  0  0  0  0  0  0  0
   -4.0531    0.1303    0.7480 C   0  0  0  0  0  0  0  0  0  0  0  0
   -1.0669    3.5607   -0.9994 S   0  0  0  0  0  0  0  0  0  0  0  0
    0.5256    2.9977   -0.5065 C   0  0  0  0  0  0  0  0  0  0  0  0
    1.8548    4.0113   -0.4822 S   0  0  0  0  0  0  0  0  0  0  0  0
    0.4457    1.6554   -0.1701 N   0  0  0  0  0  0  0  0  0  0  0  0
    1.4989    0.9542    0.3832 N   0  0  0  0  0  0  0  0  0  0  0  0
    2.4608    0.6696   -0.4383 C   0  0  0  0  0  0  0  0  0  0  0  0
    3.6657   -0.0622   -0.0022 C   0  0  0  0  0  0  0  0  0  0  0  0
    4.6796   -0.3053   -0.9336 C   0  0  0  0  0  0  0  0  0  0  0  0
    5.8268   -0.9960   -0.5394 C   0  0  0  0  0  0  0  0  0  0  0  0
    5.9510   -1.4364    0.7747 C   0  0  0  0  0  0  0  0  0  0  0  0
    7.0889   -2.1068    1.1119 O   0  0  0  0  0  0  0  0  0  0  0  0
    4.9461   -1.1988    1.7083 C   0  0  0  0  0  0  0  0  0  0  0  0
    3.7970   -0.5076    1.3178 C   0  0  0  0  0  0  0  0  0  0  0  0
   -3.7521    2.6917   -1.2051 H   0  0  0  0  0  0  0  0  0  0  0  0
   -4.5577    0.4600   -2.6070 H   0  0  0  0  0  0  0  0  0  0  0  0
   -5.9378   -1.5476   -2.1940 H   0  0  0  0  0  0  0  0  0  0  0  0
   -6.1956   -2.9951    1.0115 H   0  0  0  0  0  0  0  0  0  0  0  0
   -4.9001   -1.4109    1.9796 H   0  0  0  0  0  0  0  0  0  0  0  0
   -3.5315    0.5867    1.5861 H   0  0  0  0  0  0  0  0  0  0  0  0
    2.4144    0.9536   -1.5061 H   0  0  0  0  0  0  0  0  0  0  0  0
    4.5928    0.0358   -1.9614 H   0  0  0  0  0  0  0  0  0  0  0  0
    6.6228   -1.1909   -1.2531 H   0  0  0  0  0  0  0  0  0  0  0  0
    7.0387   -2.3548    2.0499 H   0  0  0  0  0  0  0  0  0  0  0  0
    5.0364   -1.5404    2.7347 H   0  0  0  0  0  0  0  0  0  0  0  0
    3.0088   -0.3227    2.0443 H   0  0  0  0  0  0  0  0  0  0  0  0
  1  2  2  0
  2  3  1  0
  3  4  2  3
  4  5  1  0
  5  6  2  0
  6  7  1  0
  7  8  2  0
  8  9  1  0
  8 10  1  0
 10 11  2  0
  3 12  1  0
 12 13  1  0
 13 14  2  0
 13 15  1  0
 15 16  1  0
 16 17  2  3
 17 18  1  0
 18 19  2  0
 19 20  1  0
 20 21  2  0
 21 22  1  0
 21 23  1  0
 23 24  2  0
 15  2  1  0
 24 18  1  0
 11  5  1  0
  4 25  1  0
  6 26  1  0
  7 27  1  0
  9 28  1  0
 10 29  1  0
 11 30  1  0
 17 31  1  0
 19 32  1  0
 20 33  1  0
 22 34  1  0
 23 35  1  0
 24 36  1  0
M  END
$$$$
