
     RDKit          3D

 48 49  0  0  0  0  0  0  0  0999 V2000
    0.6401    3.4806   -0.0669 C   0  0  0  0  0  0  0  0  0  0  0  0
    1.4437    2.3098    0.0003 O   0  0  0  0  0  0  0  0  0  0  0  0
    0.8327    1.1483    0.3973 C   0  0  0  0  0  0  0  0  0  0  0  0
   -0.5451    1.0001    0.5884 C   0  0  0  0  0  0  0  0  0  0  0  0
   -1.0903   -0.2234    1.0187 C   0  0  0  0  0  0  0  0  0  0  0  0
   -2.5853   -0.3624    1.2100 C   0  0  0  0  0  0  0  0  0  0  0  0
   -3.2545   -0.3886   -0.0877 N   0  0  0  0  0  0  0  0  0  0  0  0
   -4.7207   -0.6034   -0.0600 C   0  0  0  0  0  0  0  0  0  0  0  0
   -5.4381    0.3745    0.8897 C   0  0  0  0  0  0  0  0  0  0  0  0
   -5.0544   -2.0503    0.3531 C   0  0  0  0  0  0  0  0  0  0  0  0
   -5.2309   -0.3575   -1.5114 C   0  0  0  0  0  0  0  0  0  0  0  0
   -6.6332   -0.5816   -1.6301 O   0  0  0  0  0  0  0  0  0  0  0  0
   -0.2367   -1.3097    1.2490 C   0  0  0  0  0  0  0  0  0  0  0  0
    1.1390   -1.1740    1.0562 C   0  0  0  0  0  0  0  0  0  0  0  0
    2.2438   -2.6801    1.3959 Br  0  0  0  0  0  0  0  0  0  0  0  0
    1.6724    0.0425    0.6135 C   0  0  0  0  0  0  0  0  0  0  0  0
    3.0342    0.1635    0.4644 O   0  0  0  0  0  0  0  0  0  0  0  0
    3.3963    0.1043   -0.9180 C   0  0  0  0  0  0  0  0  0  0  0  0
    4.8973   -0.0368   -0.9967 C   0  0  0  0  0  0  0  0  0  0  0  0
    5.7182    1.0992   -0.9360 C   0  0  0  0  0  0  0  0  0  0  0  0
    7.1079    0.9720   -0.9896 C   0  0  0  0  0  0  0  0  0  0  0  0
    7.6830   -0.2925   -1.0944 C   0  0  0  0  0  0  0  0  0  0  0  0
    9.3955   -0.4499   -1.1603 Cl  0  0  0  0  0  0  0  0  0  0  0  0
    6.8813   -1.4311   -1.1409 C   0  0  0  0  0  0  0  0  0  0  0  0
    5.4914   -1.3040   -1.0875 C   0  0  0  0  0  0  0  0  0  0  0  0
    0.1722    3.6986    0.8989 H   0  0  0  0  0  0  0  0  0  0  0  0
    1.2952    4.3210   -0.3160 H   0  0  0  0  0  0  0  0  0  0  0  0
   -0.1087    3.3969   -0.8612 H   0  0  0  0  0  0  0  0  0  0  0  0
   -1.2325    1.8214    0.4052 H   0  0  0  0  0  0  0  0  0  0  0  0
   -2.9210    0.4879    1.8146 H   0  0  0  0  0  0  0  0  0  0  0  0
   -2.7904   -1.2710    1.7860 H   0  0  0  0  0  0  0  0  0  0  0  0
   -2.8232   -1.1174   -0.6574 H   0  0  0  0  0  0  0  0  0  0  0  0
   -5.1850    1.4141    0.6518 H   0  0  0  0  0  0  0  0  0  0  0  0
   -6.5271    0.2760    0.8162 H   0  0  0  0  0  0  0  0  0  0  0  0
   -5.1772    0.1931    1.9380 H   0  0  0  0  0  0  0  0  0  0  0  0
   -4.7423   -2.2657    1.3803 H   0  0  0  0  0  0  0  0  0  0  0  0
   -4.5623   -2.7748   -0.3060 H   0  0  0  0  0  0  0  0  0  0  0  0
   -6.1326   -2.2404    0.3040 H   0  0  0  0  0  0  0  0  0  0  0  0
   -4.7277   -1.0294   -2.2170 H   0  0  0  0  0  0  0  0  0  0  0  0
   -5.0268    0.6747   -1.8206 H   0  0  0  0  0  0  0  0  0  0  0  0
   -6.8747   -0.3706   -2.5484 H   0  0  0  0  0  0  0  0  0  0  0  0
   -0.6462   -2.2607    1.5825 H   0  0  0  0  0  0  0  0  0  0  0  0
    2.9195   -0.7491   -1.4189 H   0  0  0  0  0  0  0  0  0  0  0  0
    3.0921    1.0165   -1.4452 H   0  0  0  0  0  0  0  0  0  0  0  0
    5.2747    2.0881   -0.8366 H   0  0  0  0  0  0  0  0  0  0  0  0
    7.7326    1.8596   -0.9418 H   0  0  0  0  0  0  0  0  0  0  0  0
    7.3299   -2.4182   -1.2113 H   0  0  0  0  0  0  0  0  0  0  0  0
    4.8739   -2.1995   -1.1084 H   0  0  0  0  0  0  0  0  0  0  0  0
  1  2  1  0
  2  3  1  0
  3  4  2  0
  4  5  1  0
  5  6  1  0
  6  7  1  0
  7  8  1  0
  8  9  1  0
  8 10  1  0
  8 11  1  0
 11 12  1  0
  5 13  2  0
 13 14  1  0
 14 15  1  0
 14 16  2  0
 16 17  1  0
 17 18  1  0
 18 19  1  0
 19 20  2  0
 20 21  1  0
 21 22  2  0
 22 23  1  0
 22 24  1  0
 24 25  2  0
 16  3  1  0
 25 19  1  0
  1 26  1  0
  1 27  1  0
  1 28  1  0
  4 29  1  0
  6 30  1  0
  6 31  1  0
  7 32  1  0
  9 33  1  0
  9 34  1  0
  9 35  1  0
 10 36  1  0
 10 37  1  0
 10 38  1  0
 11 39  1  0
 11 40  1  0
 12 41  1  0
 13 42  1  0
 18 43  1  0
 18 44  1  0
 20 45  1  0
 21 46  1  0
 24 47  1  0
 25 48  1  0
M  END
$$$$
