
     RDKit          3D

 47 50  0  0  0  0  0  0  0  0999 V2000
    0.2663   -0.5813   -3.1065 O   0  0  0  0  0  0  0  0  0  0  0  0
    0.3480   -0.2430   -1.9249 C   0  0  0  0  0  0  0  0  0  0  0  0
   -0.8785    0.0030   -1.0509 C   0  0  0  0  0  0  0  0  0  0  0  0
   -2.3758   -0.7566   -1.7426 S   0  0  0  0  0  0  0  0  0  0  0  0
   -3.5365   -0.2594   -0.5539 C   0  0  0  0  0  0  0  0  0  0  0  0
   -3.2606    0.4588    0.5162 N   0  0  0  0  0  0  0  0  0  0  0  0
   -4.4503    0.6331    1.1926 N   0  0  0  0  0  0  0  0  0  0  0  0
   -5.3744    0.0102    0.4883 C   0  0  0  0  0  0  0  0  0  0  0  0
   -6.8054   -0.1230    0.7281 C   0  0  0  0  0  0  0  0  0  0  0  0
   -7.6343   -0.8688   -0.1248 C   0  0  0  0  0  0  0  0  0  0  0  0
   -9.0045   -0.9790    0.1284 C   0  0  0  0  0  0  0  0  0  0  0  0
   -9.5633   -0.3448    1.2359 C   0  0  0  0  0  0  0  0  0  0  0  0
   -8.7548    0.3985    2.0925 C   0  0  0  0  0  0  0  0  0  0  0  0
   -7.3849    0.5078    1.8402 C   0  0  0  0  0  0  0  0  0  0  0  0
   -4.8633   -0.5854   -0.6348 O   0  0  0  0  0  0  0  0  0  0  0  0
    1.5856   -0.0384   -1.3201 N   0  0  0  0  0  0  0  0  0  0  0  0
    1.7775    0.4541    0.0498 C   0  0  0  0  0  0  0  0  0  0  0  0
    3.1856    1.0258    0.3075 C   0  0  0  0  0  0  0  0  0  0  0  0
    4.2295    0.0566   -0.0536 N   0  0  0  0  0  0  0  0  0  0  0  0
    5.5072    0.1293    0.4850 C   0  0  0  0  0  0  0  0  0  0  0  0
    6.4032   -0.9506    0.3974 C   0  0  0  0  0  0  0  0  0  0  0  0
    7.6916   -0.8960    0.9439 C   0  0  0  0  0  0  0  0  0  0  0  0
    8.1209    0.2496    1.6015 C   0  0  0  0  0  0  0  0  0  0  0  0
    7.2600    1.3344    1.7107 C   0  0  0  0  0  0  0  0  0  0  0  0
    5.9727    1.2696    1.1608 C   0  0  0  0  0  0  0  0  0  0  0  0
    3.9594   -0.8312   -1.2024 C   0  0  0  0  0  0  0  0  0  0  0  0
    2.8077   -0.3104   -2.0821 C   0  0  0  0  0  0  0  0  0  0  0  0
   -1.0204    1.0855   -0.9674 H   0  0  0  0  0  0  0  0  0  0  0  0
   -0.7108   -0.4289   -0.0603 H   0  0  0  0  0  0  0  0  0  0  0  0
   -7.2231   -1.3731   -0.9973 H   0  0  0  0  0  0  0  0  0  0  0  0
   -9.6348   -1.5604   -0.5407 H   0  0  0  0  0  0  0  0  0  0  0  0
  -10.6300   -0.4267    1.4292 H   0  0  0  0  0  0  0  0  0  0  0  0
   -9.1889    0.8954    2.9571 H   0  0  0  0  0  0  0  0  0  0  0  0
   -6.7678    1.0920    2.5214 H   0  0  0  0  0  0  0  0  0  0  0  0
    1.5984   -0.3987    0.7161 H   0  0  0  0  0  0  0  0  0  0  0  0
    1.0261    1.2184    0.2722 H   0  0  0  0  0  0  0  0  0  0  0  0
    3.2414    1.2867    1.3709 H   0  0  0  0  0  0  0  0  0  0  0  0
    3.3249    1.9422   -0.2788 H   0  0  0  0  0  0  0  0  0  0  0  0
    6.1027   -1.8774   -0.0835 H   0  0  0  0  0  0  0  0  0  0  0  0
    8.3513   -1.7553    0.8589 H   0  0  0  0  0  0  0  0  0  0  0  0
    9.1193    0.2955    2.0282 H   0  0  0  0  0  0  0  0  0  0  0  0
    7.5847    2.2371    2.2211 H   0  0  0  0  0  0  0  0  0  0  0  0
    5.3473    2.1516    1.2574 H   0  0  0  0  0  0  0  0  0  0  0  0
    4.8442   -0.9278   -1.8437 H   0  0  0  0  0  0  0  0  0  0  0  0
    3.7020   -1.8266   -0.8206 H   0  0  0  0  0  0  0  0  0  0  0  0
    3.0980    0.6363   -2.5547 H   0  0  0  0  0  0  0  0  0  0  0  0
    2.6067   -1.0289   -2.8839 H   0  0  0  0  0  0  0  0  0  0  0  0
  1  2  2  0
  2  3  1  0
  3  4  1  0
  4  5  1  0
  5  6  2  0
  6  7  1  0
  7  8  2  0
  8  9  1  0
  9 10  2  0
 10 11  1  0
 11 12  2  0
 12 13  1  0
 13 14  2  0
  8 15  1  0
  2 16  1  0
 16 17  1  0
 17 18  1  0
 18 19  1  0
 19 20  1  0
 20 21  2  0
 21 22  1  0
 22 23  2  0
 23 24  1  0
 24 25  2  0
 19 26  1  0
 26 27  1  0
 15  5  1  0
 27 16  1  0
 14  9  1  0
 25 20  1  0
  3 28  1  0
  3 29  1  0
 10 30  1  0
 11 31  1  0
 12 32  1  0
 13 33  1  0
 14 34  1  0
 17 35  1  0
 17 36  1  0
 18 37  1  0
 18 38  1  0
 21 39  1  0
 22 40  1  0
 23 41  1  0
 24 42  1  0
 25 43  1  0
 26 44  1  0
 26 45  1  0
 27 46  1  0
 27 47  1  0
M  END
$$$$
