
     RDKit          3D

 43 45  0  0  0  0  0  0  0  0999 V2000
   -0.2613   -3.0167   -2.7494 C   0  0  0  0  0  0  0  0  0  0  0  0
   -0.2161   -1.5302   -2.9857 C   0  0  0  0  0  0  0  0  0  0  0  0
   -0.8701   -0.9957   -3.8809 O   0  0  0  0  0  0  0  0  0  0  0  0
    0.6465   -0.7258   -2.0887 C   0  0  0  0  0  0  0  0  0  0  0  0
    0.1570   -0.3642   -0.8817 C   0  0  0  0  0  0  0  0  0  0  0  0
   -1.1298   -0.6874   -0.4475 N   0  0  0  0  0  0  0  0  0  0  0  0
   -1.3608   -1.3646    0.8496 C   0  0  0  0  0  0  0  0  0  0  0  0
   -2.3277   -0.5699    1.7520 C   0  0  0  0  0  0  0  0  0  0  0  0
   -3.6469   -0.2769    1.1566 N   0  0  0  0  0  0  0  0  0  0  0  0
   -4.6938   -1.1464    1.6873 C   0  0  0  0  0  0  0  0  0  0  0  0
   -3.6093   -0.3559   -0.3209 C   0  0  0  0  0  0  0  0  0  0  0  0
   -2.2766    0.1371   -0.9194 C   0  0  0  0  0  0  0  0  0  0  0  0
    0.9796    0.3587   -0.0555 N   0  0  0  0  0  0  0  0  0  0  0  0
    2.2287    0.7782   -0.4264 C   0  0  0  0  0  0  0  0  0  0  0  0
    3.0219    1.6572    0.4896 C   0  0  0  0  0  0  0  0  0  0  0  0
    4.4200    1.6542    0.3993 C   0  0  0  0  0  0  0  0  0  0  0  0
    5.1820    2.4582    1.2489 C   0  0  0  0  0  0  0  0  0  0  0  0
    4.5518    3.2736    2.1873 C   0  0  0  0  0  0  0  0  0  0  0  0
    3.1601    3.2920    2.2737 C   0  0  0  0  0  0  0  0  0  0  0  0
    2.3932    2.4879    1.4260 C   0  0  0  0  0  0  0  0  0  0  0  0
    2.7640    0.4305   -1.5585 N   0  0  0  0  0  0  0  0  0  0  0  0
    2.0653   -0.3801   -2.4379 C   0  0  0  0  0  0  0  0  0  0  0  0
    2.8420   -0.9576   -3.8295 S   0  0  0  0  0  0  0  0  0  0  0  0
    0.0001   -3.5359   -3.6752 H   0  0  0  0  0  0  0  0  0  0  0  0
    0.4499   -3.3156   -1.9741 H   0  0  0  0  0  0  0  0  0  0  0  0
   -1.2679   -3.2996   -2.4309 H   0  0  0  0  0  0  0  0  0  0  0  0
   -1.7751   -2.3602    0.6487 H   0  0  0  0  0  0  0  0  0  0  0  0
   -0.4154   -1.5211    1.3830 H   0  0  0  0  0  0  0  0  0  0  0  0
   -1.8599    0.3974    1.9776 H   0  0  0  0  0  0  0  0  0  0  0  0
   -2.4296   -1.0807    2.7175 H   0  0  0  0  0  0  0  0  0  0  0  0
   -4.7932   -1.0099    2.7698 H   0  0  0  0  0  0  0  0  0  0  0  0
   -5.6652   -0.8922    1.2488 H   0  0  0  0  0  0  0  0  0  0  0  0
   -4.4906   -2.2052    1.4902 H   0  0  0  0  0  0  0  0  0  0  0  0
   -4.4293    0.2480   -0.7263 H   0  0  0  0  0  0  0  0  0  0  0  0
   -3.7696   -1.3901   -0.6554 H   0  0  0  0  0  0  0  0  0  0  0  0
   -2.3447    0.0967   -2.0109 H   0  0  0  0  0  0  0  0  0  0  0  0
   -2.1102    1.1849   -0.6379 H   0  0  0  0  0  0  0  0  0  0  0  0
    0.5604    0.6545    0.8124 H   0  0  0  0  0  0  0  0  0  0  0  0
    4.9229    1.0247   -0.3323 H   0  0  0  0  0  0  0  0  0  0  0  0
    6.2666    2.4502    1.1733 H   0  0  0  0  0  0  0  0  0  0  0  0
    5.1466    3.9034    2.8447 H   0  0  0  0  0  0  0  0  0  0  0  0
    2.6723    3.9431    2.9954 H   0  0  0  0  0  0  0  0  0  0  0  0
    1.3121    2.5514    1.4933 H   0  0  0  0  0  0  0  0  0  0  0  0
  1  2  1  0
  2  3  2  0
  2  4  1  0
  4  5  2  0
  5  6  1  0
  6  7  1  0
  7  8  1  0
  8  9  1  0
  9 10  1  0
  9 11  1  0
 11 12  1  0
  5 13  1  0
 13 14  1  0
 14 15  1  0
 15 16  2  0
 16 17  1  0
 17 18  2  0
 18 19  1  0
 19 20  2  0
 14 21  2  0
 21 22  1  0
 22 23  2  0
 22  4  1  0
 12  6  1  0
 20 15  1  0
  1 24  1  0
  1 25  1  0
  1 26  1  0
  7 27  1  0
  7 28  1  0
  8 29  1  0
  8 30  1  0
 10 31  1  0
 10 32  1  0
 10 33  1  0
 11 34  1  0
 11 35  1  0
 12 36  1  0
 12 37  1  0
 13 38  1  0
 16 39  1  0
 17 40  1  0
 18 41  1  0
 19 42  1  0
 20 43  1  0
M  END
$$$$
