
     RDKit          3D

 37 39  0  0  0  0  0  0  0  0999 V2000
    5.3708    1.2469    0.9674 N   0  0  0  0  0  0  0  0  0  0  0  0
    4.2802    1.1653    0.1508 C   0  0  0  0  0  0  0  0  0  0  0  0
    3.6980    2.1835   -0.2016 O   0  0  0  0  0  0  0  0  0  0  0  0
    3.8904   -0.2462   -0.2720 C   0  0  0  0  0  0  0  0  0  0  0  0
    3.5514   -1.1295    0.9315 C   0  0  0  0  0  0  0  0  0  0  0  0
    2.2122   -0.7486    1.5631 C   0  0  0  0  0  0  0  0  0  0  0  0
    1.1515   -0.7889    0.5517 N   0  0  0  0  0  0  0  0  0  0  0  0
   -0.1569   -0.8686    0.9676 C   0  0  0  0  0  0  0  0  0  0  0  0
   -1.1584   -0.3049    0.3233 N   0  0  0  0  0  0  0  0  0  0  0  0
   -2.3821   -0.5590    0.9279 C   0  0  0  0  0  0  0  0  0  0  0  0
   -3.6134   -0.0017    0.3731 C   0  0  0  0  0  0  0  0  0  0  0  0
   -3.5269    1.0627   -0.5411 C   0  0  0  0  0  0  0  0  0  0  0  0
   -4.6766    1.6314   -1.0994 C   0  0  0  0  0  0  0  0  0  0  0  0
   -5.9344    1.1425   -0.7559 C   0  0  0  0  0  0  0  0  0  0  0  0
   -6.0397    0.0839    0.1430 C   0  0  0  0  0  0  0  0  0  0  0  0
   -4.8889   -0.4798    0.6975 C   0  0  0  0  0  0  0  0  0  0  0  0
   -5.0536   -1.5076    1.5445 F   0  0  0  0  0  0  0  0  0  0  0  0
   -2.2966   -1.3330    2.0642 C   0  0  0  0  0  0  0  0  0  0  0  0
   -0.6706   -1.7684    2.3597 S   0  0  0  0  0  0  0  0  0  0  0  0
    1.3868    0.0886   -0.6071 C   0  0  0  0  0  0  0  0  0  0  0  0
    2.7259   -0.2440   -1.2663 C   0  0  0  0  0  0  0  0  0  0  0  0
    5.7031    2.1829    1.1664 H   0  0  0  0  0  0  0  0  0  0  0  0
    6.0452    0.4959    1.0209 H   0  0  0  0  0  0  0  0  0  0  0  0
    4.7695   -0.6638   -0.7811 H   0  0  0  0  0  0  0  0  0  0  0  0
    3.5014   -2.1743    0.5969 H   0  0  0  0  0  0  0  0  0  0  0  0
    4.3363   -1.0839    1.6947 H   0  0  0  0  0  0  0  0  0  0  0  0
    2.0356   -1.4599    2.3768 H   0  0  0  0  0  0  0  0  0  0  0  0
    2.2661    0.2515    2.0112 H   0  0  0  0  0  0  0  0  0  0  0  0
   -2.5527    1.4594   -0.8245 H   0  0  0  0  0  0  0  0  0  0  0  0
   -4.5839    2.4551   -1.8034 H   0  0  0  0  0  0  0  0  0  0  0  0
   -6.8286    1.5821   -1.1901 H   0  0  0  0  0  0  0  0  0  0  0  0
   -7.0124   -0.3135    0.4162 H   0  0  0  0  0  0  0  0  0  0  0  0
   -3.0789   -1.6655    2.7299 H   0  0  0  0  0  0  0  0  0  0  0  0
    0.6105   -0.0500   -1.3707 H   0  0  0  0  0  0  0  0  0  0  0  0
    1.3500    1.1386   -0.2936 H   0  0  0  0  0  0  0  0  0  0  0  0
    2.6548   -1.2410   -1.7210 H   0  0  0  0  0  0  0  0  0  0  0  0
    2.9148    0.4615   -2.0842 H   0  0  0  0  0  0  0  0  0  0  0  0
  1  2  1  0
  2  3  2  0
  2  4  1  0
  4  5  1  0
  5  6  1  0
  6  7  1  0
  7  8  1  0
  8  9  2  0
  9 10  1  0
 10 11  1  0
 11 12  2  0
 12 13  1  0
 13 14  2  0
 14 15  1  0
 15 16  2  0
 16 17  1  0
 10 18  2  0
 18 19  1  0
  7 20  1  0
 20 21  1  0
 21  4  1  0
 19  8  1  0
 16 11  1  0
  1 22  1  0
  1 23  1  0
  4 24  1  0
  5 25  1  0
  5 26  1  0
  6 27  1  0
  6 28  1  0
 12 29  1  0
 13 30  1  0
 14 31  1  0
 15 32  1  0
 18 33  1  0
 20 34  1  0
 20 35  1  0
 21 36  1  0
 21 37  1  0
M  END
$$$$
