
     RDKit          3D

 56 59  0  0  0  0  0  0  0  0999 V2000
   -0.3107   -1.7510   -4.9102 C   0  0  0  0  0  0  0  0  0  0  0  0
   -0.7388   -1.4360   -3.5876 O   0  0  0  0  0  0  0  0  0  0  0  0
   -1.8839   -0.6949   -3.4515 C   0  0  0  0  0  0  0  0  0  0  0  0
   -2.6958   -0.2902   -4.5151 C   0  0  0  0  0  0  0  0  0  0  0  0
   -3.8416    0.4762   -4.2785 C   0  0  0  0  0  0  0  0  0  0  0  0
   -4.1956    0.8502   -2.9774 C   0  0  0  0  0  0  0  0  0  0  0  0
   -5.4197    1.6839   -2.7842 C   0  0  0  0  0  0  0  0  0  0  0  0
   -5.8152    2.0934   -1.3889 C   0  0  0  0  0  0  0  0  0  0  0  0
   -6.0850    2.0283   -3.7601 O   0  0  0  0  0  0  0  0  0  0  0  0
   -3.3904    0.4420   -1.9090 C   0  0  0  0  0  0  0  0  0  0  0  0
   -2.2361   -0.3363   -2.1341 C   0  0  0  0  0  0  0  0  0  0  0  0
   -1.3768   -0.7319   -0.9518 C   0  0  0  0  0  0  0  0  0  0  0  0
   -0.1640    0.5668   -0.5644 S   0  0  0  0  0  0  0  0  0  0  0  0
    0.8301   -0.3008    0.5883 C   0  0  0  0  0  0  0  0  0  0  0  0
    0.2164   -1.0975    1.4031 N   0  0  0  0  0  0  0  0  0  0  0  0
    0.9649   -1.8100    2.3408 C   0  0  0  0  0  0  0  0  0  0  0  0
    0.2998   -2.6467    3.2414 C   0  0  0  0  0  0  0  0  0  0  0  0
    1.0180   -3.3826    4.1948 C   0  0  0  0  0  0  0  0  0  0  0  0
    0.2593   -4.2462    5.1291 C   0  0  0  0  0  0  0  0  0  0  0  0
   -0.9497   -4.3738    5.1590 O   0  0  0  0  0  0  0  0  0  0  0  0
    1.0544   -4.9085    5.9871 O   0  0  0  0  0  0  0  0  0  0  0  0
    2.4151   -3.2830    4.2427 C   0  0  0  0  0  0  0  0  0  0  0  0
    3.0833   -2.4493    3.3444 C   0  0  0  0  0  0  0  0  0  0  0  0
    2.3510   -1.7170    2.4015 C   0  0  0  0  0  0  0  0  0  0  0  0
    3.0204   -0.8186    1.4446 C   0  0  0  0  0  0  0  0  0  0  0  0
    4.2504   -0.7541    1.4613 O   0  0  0  0  0  0  0  0  0  0  0  0
    2.2018   -0.1002    0.5748 N   0  0  0  0  0  0  0  0  0  0  0  0
    2.8842    0.8324   -0.3325 C   0  0  0  0  0  0  0  0  0  0  0  0
    2.9244    2.2520    0.1981 C   0  0  0  0  0  0  0  0  0  0  0  0
    2.2185    3.2792   -0.4477 C   0  0  0  0  0  0  0  0  0  0  0  0
    2.2640    4.5895    0.0355 C   0  0  0  0  0  0  0  0  0  0  0  0
    3.0214    4.8926    1.1679 C   0  0  0  0  0  0  0  0  0  0  0  0
    3.7359    3.8854    1.8125 C   0  0  0  0  0  0  0  0  0  0  0  0
    3.6889    2.5736    1.3306 C   0  0  0  0  0  0  0  0  0  0  0  0
   -0.1306   -0.8401   -5.4950 H   0  0  0  0  0  0  0  0  0  0  0  0
    0.6420   -2.2900   -4.8360 H   0  0  0  0  0  0  0  0  0  0  0  0
   -1.0301   -2.4113   -5.4087 H   0  0  0  0  0  0  0  0  0  0  0  0
   -2.4666   -0.5472   -5.5477 H   0  0  0  0  0  0  0  0  0  0  0  0
   -4.4552    0.7847   -5.1245 H   0  0  0  0  0  0  0  0  0  0  0  0
   -5.9802    1.2099   -0.7643 H   0  0  0  0  0  0  0  0  0  0  0  0
   -6.7579    2.6509   -1.4310 H   0  0  0  0  0  0  0  0  0  0  0  0
   -5.0525    2.7445   -0.9519 H   0  0  0  0  0  0  0  0  0  0  0  0
   -3.6338    0.7260   -0.8853 H   0  0  0  0  0  0  0  0  0  0  0  0
   -2.0198   -0.9029   -0.0789 H   0  0  0  0  0  0  0  0  0  0  0  0
   -0.8644   -1.6803   -1.1497 H   0  0  0  0  0  0  0  0  0  0  0  0
   -0.7858   -2.7187    3.1967 H   0  0  0  0  0  0  0  0  0  0  0  0
    0.4301   -5.4250    6.5387 H   0  0  0  0  0  0  0  0  0  0  0  0
    2.9912   -3.8459    4.9748 H   0  0  0  0  0  0  0  0  0  0  0  0
    4.1678   -2.3706    3.3814 H   0  0  0  0  0  0  0  0  0  0  0  0
    3.9176    0.5086   -0.5045 H   0  0  0  0  0  0  0  0  0  0  0  0
    2.4141    0.8040   -1.3205 H   0  0  0  0  0  0  0  0  0  0  0  0
    1.6285    3.0704   -1.3370 H   0  0  0  0  0  0  0  0  0  0  0  0
    1.7117    5.3752   -0.4736 H   0  0  0  0  0  0  0  0  0  0  0  0
    3.0644    5.9144    1.5402 H   0  0  0  0  0  0  0  0  0  0  0  0
    4.3415    4.1200    2.6825 H   0  0  0  0  0  0  0  0  0  0  0  0
    4.2696    1.8068    1.8384 H   0  0  0  0  0  0  0  0  0  0  0  0
  1  2  1  0
  2  3  1  0
  3  4  2  0
  4  5  1  0
  5  6  2  0
  6  7  1  0
  7  8  1  0
  7  9  2  0
  6 10  1  0
 10 11  2  0
 11 12  1  0
 12 13  1  0
 13 14  1  0
 14 15  2  0
 15 16  1  0
 16 17  2  0
 17 18  1  0
 18 19  1  0
 19 20  2  0
 19 21  1  0
 18 22  2  0
 22 23  1  0
 23 24  2  0
 24 25  1  0
 25 26  2  0
 25 27  1  0
 27 28  1  0
 28 29  1  0
 29 30  2  0
 30 31  1  0
 31 32  2  0
 32 33  1  0
 33 34  2  0
 11  3  1  0
 27 14  1  0
 34 29  1  0
 24 16  1  0
  1 35  1  0
  1 36  1  0
  1 37  1  0
  4 38  1  0
  5 39  1  0
  8 40  1  0
  8 41  1  0
  8 42  1  0
 10 43  1  0
 12 44  1  0
 12 45  1  0
 17 46  1  0
 21 47  1  0
 22 48  1  0
 23 49  1  0
 28 50  1  0
 28 51  1  0
 30 52  1  0
 31 53  1  0
 32 54  1  0
 33 55  1  0
 34 56  1  0
M  END
$$$$
