
     RDKit          3D

 44 46  0  0  0  0  0  0  0  0999 V2000
    1.8302   -0.7357    1.4233 C   0  0  0  0  0  0  0  0  0  0  0  0
    1.6355    0.5804    0.6967 C   0  0  0  0  0  0  0  0  0  0  0  0
    2.6066    1.3545    0.3129 N   0  0  0  0  0  0  0  0  0  0  0  0
    4.0045    0.9561    0.5210 C   0  0  0  0  0  0  0  0  0  0  0  0
    4.4930   -0.0999   -0.4305 C   0  0  0  0  0  0  0  0  0  0  0  0
    4.1412   -0.0999   -1.7833 C   0  0  0  0  0  0  0  0  0  0  0  0
    4.6396   -1.0869   -2.6285 C   0  0  0  0  0  0  0  0  0  0  0  0
    5.4885   -2.0407   -2.0934 C   0  0  0  0  0  0  0  0  0  0  0  0
    5.8659   -2.0663   -0.7975 N   0  0  0  0  0  0  0  0  0  0  0  0
    5.3650   -1.0956   -0.0005 C   0  0  0  0  0  0  0  0  0  0  0  0
    0.2283    1.0229    0.4203 C   0  0  0  0  0  0  0  0  0  0  0  0
   -0.0542    2.3326    0.4170 C   0  0  0  0  0  0  0  0  0  0  0  0
    0.8560    3.3452    0.5761 O   0  0  0  0  0  0  0  0  0  0  0  0
   -1.3132    2.7845    0.2314 N   0  0  0  0  0  0  0  0  0  0  0  0
   -2.4134    1.9944    0.0490 C   0  0  0  0  0  0  0  0  0  0  0  0
   -3.4890    2.5434   -0.1862 O   0  0  0  0  0  0  0  0  0  0  0  0
   -2.1833    0.6176    0.1076 N   0  0  0  0  0  0  0  0  0  0  0  0
   -3.3043   -0.2641   -0.0784 C   0  0  0  0  0  0  0  0  0  0  0  0
   -3.2531   -1.2335   -1.0979 C   0  0  0  0  0  0  0  0  0  0  0  0
   -4.3329   -2.0827   -1.3452 C   0  0  0  0  0  0  0  0  0  0  0  0
   -5.4847   -1.9793   -0.5766 C   0  0  0  0  0  0  0  0  0  0  0  0
   -5.5491   -1.0402    0.4510 C   0  0  0  0  0  0  0  0  0  0  0  0
   -4.4620   -0.1894    0.7292 C   0  0  0  0  0  0  0  0  0  0  0  0
   -4.6015    0.7420    1.9041 C   0  0  0  0  0  0  0  0  0  0  0  0
   -0.8943    0.0753    0.1653 C   0  0  0  0  0  0  0  0  0  0  0  0
   -0.6256   -1.1197    0.0315 O   0  0  0  0  0  0  0  0  0  0  0  0
    2.6244   -0.6587    2.1687 H   0  0  0  0  0  0  0  0  0  0  0  0
    2.0811   -1.5183    0.7027 H   0  0  0  0  0  0  0  0  0  0  0  0
    0.9272   -1.0230    1.9686 H   0  0  0  0  0  0  0  0  0  0  0  0
    4.6248    1.8477    0.3649 H   0  0  0  0  0  0  0  0  0  0  0  0
    4.1761    0.6697    1.5648 H   0  0  0  0  0  0  0  0  0  0  0  0
    3.4783    0.6652   -2.1799 H   0  0  0  0  0  0  0  0  0  0  0  0
    4.3736   -1.1099   -3.6792 H   0  0  0  0  0  0  0  0  0  0  0  0
    5.9026   -2.8315   -2.7122 H   0  0  0  0  0  0  0  0  0  0  0  0
    5.6987   -1.1482    1.0326 H   0  0  0  0  0  0  0  0  0  0  0  0
    1.7517    2.9432    0.4970 H   0  0  0  0  0  0  0  0  0  0  0  0
   -1.4646    3.7853    0.1969 H   0  0  0  0  0  0  0  0  0  0  0  0
   -2.3769   -1.3231   -1.7365 H   0  0  0  0  0  0  0  0  0  0  0  0
   -4.2739   -2.8167   -2.1445 H   0  0  0  0  0  0  0  0  0  0  0  0
   -6.3313   -2.6326   -0.7710 H   0  0  0  0  0  0  0  0  0  0  0  0
   -6.4551   -0.9815    1.0517 H   0  0  0  0  0  0  0  0  0  0  0  0
   -5.1203    1.6579    1.6073 H   0  0  0  0  0  0  0  0  0  0  0  0
   -3.6307    0.9951    2.3406 H   0  0  0  0  0  0  0  0  0  0  0  0
   -5.1795    0.2646    2.7038 H   0  0  0  0  0  0  0  0  0  0  0  0
  1  2  1  0
  2  3  2  3
  3  4  1  0
  4  5  1  0
  5  6  2  0
  6  7  1  0
  7  8  2  0
  8  9  1  0
  9 10  2  0
  2 11  1  0
 11 12  2  0
 12 13  1  0
 12 14  1  0
 14 15  1  0
 15 16  2  0
 15 17  1  0
 17 18  1  0
 18 19  2  0
 19 20  1  0
 20 21  2  0
 21 22  1  0
 22 23  2  0
 23 24  1  0
 17 25  1  0
 25 26  2  0
 10  5  1  0
 25 11  1  0
 23 18  1  0
  1 27  1  0
  1 28  1  0
  1 29  1  0
  4 30  1  0
  4 31  1  0
  6 32  1  0
  7 33  1  0
  8 34  1  0
 10 35  1  0
 13 36  1  0
 14 37  1  0
 19 38  1  0
 20 39  1  0
 21 40  1  0
 22 41  1  0
 24 42  1  0
 24 43  1  0
 24 44  1  0
M  END
$$$$
