
     RDKit          3D

 55 57  0  0  0  0  0  0  0  0999 V2000
    3.5496   -0.2097    1.9343 C   0  0  0  0  0  0  0  0  0  0  0  0
    3.1723    1.2581    2.1661 C   0  0  0  0  0  0  0  0  0  0  0  0
    2.9743    1.5047    3.6657 C   0  0  0  0  0  0  0  0  0  0  0  0
    1.9629    1.6766    1.2992 C   0  0  0  0  0  0  0  0  0  0  0  0
    1.8230    3.1549    1.3535 N   0  0  0  0  0  0  0  0  0  0  0  0
    1.2781    3.9783   -0.0094 S   0  0  0  0  0  6  0  0  0  0  0  0
    2.0764    3.5468   -1.1359 O   0  0  0  0  0  0  0  0  0  0  0  0
    1.1753    5.3714    0.3673 O   0  0  0  0  0  0  0  0  0  0  0  0
   -0.3687    3.3546   -0.2319 C   0  0  0  0  0  0  0  0  0  0  0  0
   -1.4340    3.9656    0.4429 C   0  0  0  0  0  0  0  0  0  0  0  0
   -2.7224    3.4483    0.3038 C   0  0  0  0  0  0  0  0  0  0  0  0
   -2.9365    2.3239   -0.4944 C   0  0  0  0  0  0  0  0  0  0  0  0
   -1.8728    1.7462   -1.2011 C   0  0  0  0  0  0  0  0  0  0  0  0
   -0.5867    2.2662   -1.0827 C   0  0  0  0  0  0  0  0  0  0  0  0
   -2.0110    0.6429   -2.0003 O   0  0  0  0  0  0  0  0  0  0  0  0
   -3.3877    0.3770   -2.2964 C   0  0  0  0  0  0  0  0  0  0  0  0
   -4.2525    0.5014   -1.0510 C   0  0  0  0  0  0  0  0  0  0  0  0
   -4.2181    1.8402   -0.5393 O   0  0  0  0  0  0  0  0  0  0  0  0
    0.6549    1.0319    1.7599 C   0  0  0  0  0  0  0  0  0  0  0  0
   -0.1015    1.5309    2.5854 O   0  0  0  0  0  0  0  0  0  0  0  0
    0.4368   -0.1497    1.1171 O   0  0  0  0  0  0  0  0  0  0  0  0
   -0.8387   -0.7375    1.4043 C   0  0  0  0  0  0  0  0  0  0  0  0
   -1.1503   -1.8863    0.4431 C   0  0  0  0  0  0  0  0  0  0  0  0
   -2.3086   -2.2394    0.2342 O   0  0  0  0  0  0  0  0  0  0  0  0
   -0.0101   -2.4717   -0.0753 N   0  0  0  0  0  0  0  0  0  0  0  0
    0.1007   -3.5802   -0.9489 C   0  0  0  0  0  0  0  0  0  0  0  0
   -1.0121   -4.2492   -1.4682 C   0  0  0  0  0  0  0  0  0  0  0  0
   -0.8497   -5.3406   -2.3277 C   0  0  0  0  0  0  0  0  0  0  0  0
    0.4269   -5.7779   -2.6754 C   0  0  0  0  0  0  0  0  0  0  0  0
    1.5508   -5.1230   -2.1692 C   0  0  0  0  0  0  0  0  0  0  0  0
    3.1031   -5.7161   -2.6484 Cl  0  0  0  0  0  0  0  0  0  0  0  0
    1.3941   -4.0257   -1.3081 C   0  0  0  0  0  0  0  0  0  0  0  0
    2.7834   -3.1983   -0.6604 Cl  0  0  0  0  0  0  0  0  0  0  0  0
    3.7192   -0.4063    0.8711 H   0  0  0  0  0  0  0  0  0  0  0  0
    4.4756   -0.4588    2.4665 H   0  0  0  0  0  0  0  0  0  0  0  0
    2.7691   -0.8889    2.2924 H   0  0  0  0  0  0  0  0  0  0  0  0
    4.0343    1.8638    1.8492 H   0  0  0  0  0  0  0  0  0  0  0  0
    3.8848    1.2468    4.2164 H   0  0  0  0  0  0  0  0  0  0  0  0
    2.7525    2.5562    3.8794 H   0  0  0  0  0  0  0  0  0  0  0  0
    2.1632    0.8926    4.0742 H   0  0  0  0  0  0  0  0  0  0  0  0
    2.1559    1.3802    0.2610 H   0  0  0  0  0  0  0  0  0  0  0  0
    1.4245    3.5301    2.2176 H   0  0  0  0  0  0  0  0  0  0  0  0
   -1.2687    4.8269    1.0862 H   0  0  0  0  0  0  0  0  0  0  0  0
   -3.5550    3.9040    0.8370 H   0  0  0  0  0  0  0  0  0  0  0  0
    0.2320    1.8117   -1.6383 H   0  0  0  0  0  0  0  0  0  0  0  0
   -3.4472   -0.6385   -2.7021 H   0  0  0  0  0  0  0  0  0  0  0  0
   -3.7136    1.0767   -3.0758 H   0  0  0  0  0  0  0  0  0  0  0  0
   -3.9233   -0.1824   -0.2582 H   0  0  0  0  0  0  0  0  0  0  0  0
   -5.2941    0.2655   -1.2894 H   0  0  0  0  0  0  0  0  0  0  0  0
   -0.8321   -1.1436    2.4217 H   0  0  0  0  0  0  0  0  0  0  0  0
   -1.6351    0.0064    1.2976 H   0  0  0  0  0  0  0  0  0  0  0  0
    0.8733   -2.0462    0.1996 H   0  0  0  0  0  0  0  0  0  0  0  0
   -2.0290   -3.9378   -1.2359 H   0  0  0  0  0  0  0  0  0  0  0  0
   -1.7264   -5.8473   -2.7271 H   0  0  0  0  0  0  0  0  0  0  0  0
    0.5388   -6.6259   -3.3466 H   0  0  0  0  0  0  0  0  0  0  0  0
  1  2  1  0
  2  3  1  0
  2  4  1  0
  4  5  1  0
  5  6  1  0
  6  7  2  0
  6  8  2  0
  6  9  1  0
  9 10  2  0
 10 11  1  0
 11 12  2  0
 12 13  1  0
 13 14  2  0
 13 15  1  0
 15 16  1  0
 16 17  1  0
 17 18  1  0
  4 19  1  0
 19 20  2  0
 19 21  1  0
 21 22  1  0
 22 23  1  0
 23 24  2  0
 23 25  1  0
 25 26  1  0
 26 27  2  0
 27 28  1  0
 28 29  2  0
 29 30  1  0
 30 31  1  0
 30 32  2  0
 32 33  1  0
 14  9  1  0
 32 26  1  0
 18 12  1  0
  1 34  1  0
  1 35  1  0
  1 36  1  0
  2 37  1  0
  3 38  1  0
  3 39  1  0
  3 40  1  0
  4 41  1  0
  5 42  1  0
 10 43  1  0
 11 44  1  0
 14 45  1  0
 16 46  1  0
 16 47  1  0
 17 48  1  0
 17 49  1  0
 22 50  1  0
 22 51  1  0
 25 52  1  0
 27 53  1  0
 28 54  1  0
 29 55  1  0
M  END
$$$$
