
     RDKit          3D

 53 54  0  0  0  0  0  0  0  0999 V2000
    3.3043    0.2495    5.0452 C   0  0  0  0  0  0  0  0  0  0  0  0
    3.3799    0.4900    3.2533 S   0  0  0  0  0  0  0  0  0  0  0  0
    1.6332    0.9208    2.9652 C   0  0  0  0  0  0  0  0  0  0  0  0
    1.3965    1.1538    1.4745 C   0  0  0  0  0  0  0  0  0  0  0  0
   -0.0571    1.5453    1.1941 C   0  0  0  0  0  0  0  0  0  0  0  0
   -0.9649    0.4316    1.4674 N   0  0  0  0  0  0  0  0  0  0  0  0
   -2.2729    0.6594    1.8395 C   0  0  0  0  0  0  0  0  0  0  0  0
   -2.6890    1.7628    2.1838 O   0  0  0  0  0  0  0  0  0  0  0  0
   -3.1647   -0.5833    1.8305 C   0  0  0  0  0  0  0  0  0  0  0  0
   -2.5068   -1.6704    1.1844 O   0  0  0  0  0  0  0  0  0  0  0  0
   -3.1867   -2.8547    1.1181 C   0  0  0  0  0  0  0  0  0  0  0  0
   -2.4966   -3.8875    0.4769 C   0  0  0  0  0  0  0  0  0  0  0  0
   -3.0731   -5.1513    0.3413 C   0  0  0  0  0  0  0  0  0  0  0  0
   -4.3482   -5.3900    0.8475 C   0  0  0  0  0  0  0  0  0  0  0  0
   -5.0432   -4.3648    1.4869 C   0  0  0  0  0  0  0  0  0  0  0  0
   -4.4652   -3.0983    1.6225 C   0  0  0  0  0  0  0  0  0  0  0  0
   -0.1917    1.9312   -0.2822 C   0  0  0  0  0  0  0  0  0  0  0  0
   -0.5388    1.1559   -1.1661 O   0  0  0  0  0  0  0  0  0  0  0  0
    0.1749    3.2314   -0.4645 O   0  0  0  0  0  0  0  0  0  0  0  0
    0.2952    3.6683   -1.8299 C   0  0  0  0  0  0  0  0  0  0  0  0
    1.7755    3.8425   -2.1706 C   0  0  0  0  0  0  0  0  0  0  0  0
    2.5198    2.6409   -1.9560 O   0  0  0  0  0  0  0  0  0  0  0  0
    2.5410    1.6837   -2.9284 C   0  0  0  0  0  0  0  0  0  0  0  0
    1.9022    1.7437   -4.1668 C   0  0  0  0  0  0  0  0  0  0  0  0
    2.0079    0.6754   -5.0646 C   0  0  0  0  0  0  0  0  0  0  0  0
    2.7545   -0.4506   -4.7233 C   0  0  0  0  0  0  0  0  0  0  0  0
    2.8911   -1.8910   -5.9398 Br  0  0  0  0  0  0  0  0  0  0  0  0
    3.3974   -0.5205   -3.4915 C   0  0  0  0  0  0  0  0  0  0  0  0
    3.2876    0.5474   -2.5984 C   0  0  0  0  0  0  0  0  0  0  0  0
    2.9949    1.1729    5.5407 H   0  0  0  0  0  0  0  0  0  0  0  0
    4.2959   -0.0265    5.4133 H   0  0  0  0  0  0  0  0  0  0  0  0
    2.6056   -0.5542    5.2928 H   0  0  0  0  0  0  0  0  0  0  0  0
    1.0073    0.1018    3.3324 H   0  0  0  0  0  0  0  0  0  0  0  0
    1.3942    1.8264    3.5327 H   0  0  0  0  0  0  0  0  0  0  0  0
    2.0607    1.9511    1.1157 H   0  0  0  0  0  0  0  0  0  0  0  0
    1.6524    0.2499    0.9048 H   0  0  0  0  0  0  0  0  0  0  0  0
   -0.3566    2.4052    1.8044 H   0  0  0  0  0  0  0  0  0  0  0  0
   -0.8382   -0.4105    0.9076 H   0  0  0  0  0  0  0  0  0  0  0  0
   -3.3799   -0.8310    2.8759 H   0  0  0  0  0  0  0  0  0  0  0  0
   -4.0792   -0.3207    1.2864 H   0  0  0  0  0  0  0  0  0  0  0  0
   -1.5015   -3.7069    0.0774 H   0  0  0  0  0  0  0  0  0  0  0  0
   -2.5270   -5.9460   -0.1607 H   0  0  0  0  0  0  0  0  0  0  0  0
   -4.8004   -6.3726    0.7427 H   0  0  0  0  0  0  0  0  0  0  0  0
   -6.0398   -4.5504    1.8803 H   0  0  0  0  0  0  0  0  0  0  0  0
   -5.0424   -2.3296    2.1245 H   0  0  0  0  0  0  0  0  0  0  0  0
   -0.1979    2.9844   -2.5270 H   0  0  0  0  0  0  0  0  0  0  0  0
   -0.2148    4.6343   -1.9077 H   0  0  0  0  0  0  0  0  0  0  0  0
    2.2035    4.5758   -1.4768 H   0  0  0  0  0  0  0  0  0  0  0  0
    1.9270    4.2484   -3.1768 H   0  0  0  0  0  0  0  0  0  0  0  0
    1.3074    2.5980   -4.4686 H   0  0  0  0  0  0  0  0  0  0  0  0
    1.5004    0.7313   -6.0242 H   0  0  0  0  0  0  0  0  0  0  0  0
    3.9794   -1.3951   -3.2140 H   0  0  0  0  0  0  0  0  0  0  0  0
    3.7872    0.4929   -1.6333 H   0  0  0  0  0  0  0  0  0  0  0  0
  1  2  1  0
  2  3  1  0
  3  4  1  0
  4  5  1  0
  5  6  1  0
  6  7  1  0
  7  8  2  0
  7  9  1  0
  9 10  1  0
 10 11  1  0
 11 12  2  0
 12 13  1  0
 13 14  2  0
 14 15  1  0
 15 16  2  0
  5 17  1  0
 17 18  2  0
 17 19  1  0
 19 20  1  0
 20 21  1  0
 21 22  1  0
 22 23  1  0
 23 24  2  0
 24 25  1  0
 25 26  2  0
 26 27  1  0
 26 28  1  0
 28 29  2  0
 16 11  1  0
 29 23  1  0
  1 30  1  0
  1 31  1  0
  1 32  1  0
  3 33  1  0
  3 34  1  0
  4 35  1  0
  4 36  1  0
  5 37  1  0
  6 38  1  0
  9 39  1  0
  9 40  1  0
 12 41  1  0
 13 42  1  0
 14 43  1  0
 15 44  1  0
 16 45  1  0
 20 46  1  0
 20 47  1  0
 21 48  1  0
 21 49  1  0
 24 50  1  0
 25 51  1  0
 28 52  1  0
 29 53  1  0
M  END
$$$$
