
     RDKit          3D

 48 49  0  0  0  0  0  0  0  0999 V2000
    0.5122    3.2018    0.6754 C   0  0  0  0  0  0  0  0  0  0  0  0
    1.3311    2.1838    0.1141 O   0  0  0  0  0  0  0  0  0  0  0  0
    0.6977    1.1272   -0.4879 C   0  0  0  0  0  0  0  0  0  0  0  0
   -0.6883    0.9412   -0.5144 C   0  0  0  0  0  0  0  0  0  0  0  0
   -1.2622   -0.1636   -1.1711 C   0  0  0  0  0  0  0  0  0  0  0  0
   -2.7668   -0.3350   -1.1908 C   0  0  0  0  0  0  0  0  0  0  0  0
   -3.2743   -0.4894    0.1666 N   0  0  0  0  0  0  0  0  0  0  0  0
   -4.7397   -0.6229    0.3204 C   0  0  0  0  0  0  0  0  0  0  0  0
   -5.2446   -1.9213   -0.3357 C   0  0  0  0  0  0  0  0  0  0  0  0
   -5.4815    0.5853   -0.2791 C   0  0  0  0  0  0  0  0  0  0  0  0
   -5.0604   -0.7077    1.8460 C   0  0  0  0  0  0  0  0  0  0  0  0
   -4.7328    0.4991    2.5313 O   0  0  0  0  0  0  0  0  0  0  0  0
   -0.4269   -1.0862   -1.8124 C   0  0  0  0  0  0  0  0  0  0  0  0
    0.9581   -0.9117   -1.7902 C   0  0  0  0  0  0  0  0  0  0  0  0
    2.0361   -2.1949   -2.6828 Br  0  0  0  0  0  0  0  0  0  0  0  0
    1.5221    0.1778   -1.1151 C   0  0  0  0  0  0  0  0  0  0  0  0
    2.8871    0.3447   -1.1363 O   0  0  0  0  0  0  0  0  0  0  0  0
    3.4606   -0.0365    0.1172 C   0  0  0  0  0  0  0  0  0  0  0  0
    4.9564   -0.1256   -0.0672 C   0  0  0  0  0  0  0  0  0  0  0  0
    5.7505    1.0267    0.0310 C   0  0  0  0  0  0  0  0  0  0  0  0
    7.1323    0.9525   -0.1575 C   0  0  0  0  0  0  0  0  0  0  0  0
    7.7248   -0.2729   -0.4545 C   0  0  0  0  0  0  0  0  0  0  0  0
    9.4275   -0.3652   -0.6870 Cl  0  0  0  0  0  0  0  0  0  0  0  0
    6.9475   -1.4235   -0.5698 C   0  0  0  0  0  0  0  0  0  0  0  0
    5.5655   -1.3493   -0.3811 C   0  0  0  0  0  0  0  0  0  0  0  0
    1.1720    3.9813    1.0685 H   0  0  0  0  0  0  0  0  0  0  0  0
   -0.1279    3.6610   -0.0852 H   0  0  0  0  0  0  0  0  0  0  0  0
   -0.0787    2.8146    1.5119 H   0  0  0  0  0  0  0  0  0  0  0  0
   -1.3631    1.6394   -0.0250 H   0  0  0  0  0  0  0  0  0  0  0  0
   -3.0230   -1.2056   -1.8038 H   0  0  0  0  0  0  0  0  0  0  0  0
   -3.1865    0.5492   -1.6828 H   0  0  0  0  0  0  0  0  0  0  0  0
   -2.8020   -1.2702    0.6187 H   0  0  0  0  0  0  0  0  0  0  0  0
   -6.3101   -2.0753   -0.1286 H   0  0  0  0  0  0  0  0  0  0  0  0
   -5.1306   -1.9032   -1.4248 H   0  0  0  0  0  0  0  0  0  0  0  0
   -4.7057   -2.7962    0.0460 H   0  0  0  0  0  0  0  0  0  0  0  0
   -6.5461    0.5568   -0.0187 H   0  0  0  0  0  0  0  0  0  0  0  0
   -5.0765    1.5332    0.0933 H   0  0  0  0  0  0  0  0  0  0  0  0
   -5.4213    0.6015   -1.3728 H   0  0  0  0  0  0  0  0  0  0  0  0
   -4.5037   -1.5291    2.3129 H   0  0  0  0  0  0  0  0  0  0  0  0
   -6.1289   -0.8953    2.0032 H   0  0  0  0  0  0  0  0  0  0  0  0
   -4.8521    0.3305    3.4804 H   0  0  0  0  0  0  0  0  0  0  0  0
   -0.8570   -1.9389   -2.3325 H   0  0  0  0  0  0  0  0  0  0  0  0
    3.2375    0.7043    0.8943 H   0  0  0  0  0  0  0  0  0  0  0  0
    3.0731   -1.0071    0.4554 H   0  0  0  0  0  0  0  0  0  0  0  0
    5.2904    1.9894    0.2456 H   0  0  0  0  0  0  0  0  0  0  0  0
    7.7361    1.8522   -0.0785 H   0  0  0  0  0  0  0  0  0  0  0  0
    7.4078   -2.3772   -0.8124 H   0  0  0  0  0  0  0  0  0  0  0  0
    4.9644   -2.2498   -0.4887 H   0  0  0  0  0  0  0  0  0  0  0  0
  1  2  1  0
  2  3  1  0
  3  4  2  0
  4  5  1  0
  5  6  1  0
  6  7  1  0
  7  8  1  0
  8  9  1  0
  8 10  1  0
  8 11  1  0
 11 12  1  0
  5 13  2  0
 13 14  1  0
 14 15  1  0
 14 16  2  0
 16 17  1  0
 17 18  1  0
 18 19  1  0
 19 20  2  0
 20 21  1  0
 21 22  2  0
 22 23  1  0
 22 24  1  0
 24 25  2  0
 16  3  1  0
 25 19  1  0
  1 26  1  0
  1 27  1  0
  1 28  1  0
  4 29  1  0
  6 30  1  0
  6 31  1  0
  7 32  1  0
  9 33  1  0
  9 34  1  0
  9 35  1  0
 10 36  1  0
 10 37  1  0
 10 38  1  0
 11 39  1  0
 11 40  1  0
 12 41  1  0
 13 42  1  0
 18 43  1  0
 18 44  1  0
 20 45  1  0
 21 46  1  0
 24 47  1  0
 25 48  1  0
M  END
$$$$
