
     RDKit          3D

 61 65  0  0  0  0  0  0  0  0999 V2000
   -3.5114   -2.0414    1.0012 C   0  0  0  0  0  0  0  0  0  0  0  0
   -2.6012   -1.4870    2.0117 N   0  0  0  0  0  0  0  0  0  0  0  0
   -2.6867   -2.2971    3.2300 C   0  0  0  0  0  0  0  0  0  0  0  0
   -2.9263   -0.0736    2.2987 C   0  0  0  0  0  0  0  0  0  0  0  0
   -1.9848    0.9215    1.5809 C   0  0  0  0  0  0  0  0  0  0  0  0
   -2.0727    0.8921    0.1058 N   0  0  0  0  0  0  0  0  0  0  0  0
   -1.2119    0.0906   -0.6577 C   0  0  0  0  0  0  0  0  0  0  0  0
   -1.4044   -0.3461   -1.7902 O   0  0  0  0  0  0  0  0  0  0  0  0
    0.0897   -0.2892   -0.0653 C   0  0  0  0  0  0  0  0  0  0  0  0
    0.3528   -1.6364    0.2025 C   0  0  0  0  0  0  0  0  0  0  0  0
    1.5828   -2.0050    0.7477 C   0  0  0  0  0  0  0  0  0  0  0  0
    2.5563   -1.0262    0.9851 C   0  0  0  0  0  0  0  0  0  0  0  0
    4.1150   -1.4924    1.7271 S   0  0  0  0  0  6  0  0  0  0  0  0
    4.5437   -0.3747    2.5436 O   0  0  0  0  0  0  0  0  0  0  0  0
    3.9235   -2.8000    2.3250 O   0  0  0  0  0  0  0  0  0  0  0  0
    5.1555   -1.6835    0.4051 N   0  0  0  0  0  0  0  0  0  0  0  0
    4.9150   -2.8576   -0.4884 C   0  0  0  0  0  0  0  0  0  0  0  0
    5.4373   -2.4611   -1.8801 C   0  0  0  0  0  0  0  0  0  0  0  0
    5.6645   -0.9914   -1.7423 C   0  0  0  0  0  0  0  0  0  0  0  0
    6.0498   -0.1039   -2.7361 C   0  0  0  0  0  0  0  0  0  0  0  0
    6.3032    1.2208   -2.3786 C   0  0  0  0  0  0  0  0  0  0  0  0
    6.1954    1.6292   -1.0417 C   0  0  0  0  0  0  0  0  0  0  0  0
    5.8115    0.7223   -0.0492 C   0  0  0  0  0  0  0  0  0  0  0  0
    5.5058   -0.5745   -0.4220 C   0  0  0  0  0  0  0  0  0  0  0  0
    2.2925    0.3231    0.7184 C   0  0  0  0  0  0  0  0  0  0  0  0
    1.0604    0.6915    0.1752 C   0  0  0  0  0  0  0  0  0  0  0  0
   -3.1859    1.5157   -0.4768 C   0  0  0  0  0  0  0  0  0  0  0  0
   -4.1369    2.0771    0.2419 N   0  0  0  0  0  0  0  0  0  0  0  0
   -5.0986    2.6382   -0.5767 C   0  0  0  0  0  0  0  0  0  0  0  0
   -6.2720    3.2931   -0.1462 C   0  0  0  0  0  0  0  0  0  0  0  0
   -7.1595    3.8136   -1.0928 C   0  0  0  0  0  0  0  0  0  0  0  0
   -6.8821    3.6866   -2.4464 C   0  0  0  0  0  0  0  0  0  0  0  0
   -7.7447    4.1919   -3.3381 F   0  0  0  0  0  0  0  0  0  0  0  0
   -5.7311    3.0492   -2.9051 C   0  0  0  0  0  0  0  0  0  0  0  0
   -4.8493    2.5304   -1.9450 C   0  0  0  0  0  0  0  0  0  0  0  0
   -3.3596    1.7065   -2.1677 S   0  0  0  0  0  0  0  0  0  0  0  0
   -4.5517   -2.0556    1.3467 H   0  0  0  0  0  0  0  0  0  0  0  0
   -3.2197   -3.0675    0.7512 H   0  0  0  0  0  0  0  0  0  0  0  0
   -3.4733   -1.4747    0.0669 H   0  0  0  0  0  0  0  0  0  0  0  0
   -1.9685   -1.9414    3.9776 H   0  0  0  0  0  0  0  0  0  0  0  0
   -3.6893   -2.2751    3.6722 H   0  0  0  0  0  0  0  0  0  0  0  0
   -2.4236   -3.3397    3.0188 H   0  0  0  0  0  0  0  0  0  0  0  0
   -2.8045    0.1275    3.3719 H   0  0  0  0  0  0  0  0  0  0  0  0
   -3.9778    0.1467    2.0785 H   0  0  0  0  0  0  0  0  0  0  0  0
   -2.2133    1.9423    1.9140 H   0  0  0  0  0  0  0  0  0  0  0  0
   -0.9638    0.7309    1.9198 H   0  0  0  0  0  0  0  0  0  0  0  0
   -0.4071   -2.3895    0.0056 H   0  0  0  0  0  0  0  0  0  0  0  0
    1.7703   -3.0499    0.9864 H   0  0  0  0  0  0  0  0  0  0  0  0
    3.8503   -3.0988   -0.5599 H   0  0  0  0  0  0  0  0  0  0  0  0
    5.4421   -3.7383   -0.1065 H   0  0  0  0  0  0  0  0  0  0  0  0
    6.3805   -2.9725   -2.0994 H   0  0  0  0  0  0  0  0  0  0  0  0
    4.7055   -2.6929   -2.6597 H   0  0  0  0  0  0  0  0  0  0  0  0
    6.1699   -0.4298   -3.7646 H   0  0  0  0  0  0  0  0  0  0  0  0
    6.6130    1.9364   -3.1373 H   0  0  0  0  0  0  0  0  0  0  0  0
    6.4306    2.6559   -0.7711 H   0  0  0  0  0  0  0  0  0  0  0  0
    5.7784    1.0444    0.9860 H   0  0  0  0  0  0  0  0  0  0  0  0
    3.0352    1.0884    0.9312 H   0  0  0  0  0  0  0  0  0  0  0  0
    0.8579    1.7351   -0.0545 H   0  0  0  0  0  0  0  0  0  0  0  0
   -6.4770    3.3856    0.9159 H   0  0  0  0  0  0  0  0  0  0  0  0
   -8.0673    4.3187   -0.7763 H   0  0  0  0  0  0  0  0  0  0  0  0
   -5.5326    2.9617   -3.9673 H   0  0  0  0  0  0  0  0  0  0  0  0
  1  2  1  0
  2  3  1  0
  2  4  1  0
  4  5  1  0
  5  6  1  0
  6  7  1  0
  7  8  2  0
  7  9  1  0
  9 10  2  0
 10 11  1  0
 11 12  2  0
 12 13  1  0
 13 14  2  0
 13 15  2  0
 13 16  1  0
 16 17  1  0
 17 18  1  0
 18 19  1  0
 19 20  2  0
 20 21  1  0
 21 22  2  0
 22 23  1  0
 23 24  2  0
 12 25  1  0
 25 26  2  0
  6 27  1  0
 27 28  2  0
 28 29  1  0
 29 30  2  0
 30 31  1  0
 31 32  2  0
 32 33  1  0
 32 34  1  0
 34 35  2  0
 35 36  1  0
 26  9  1  0
 36 27  1  0
 24 16  1  0
 35 29  1  0
 24 19  1  0
  1 37  1  0
  1 38  1  0
  1 39  1  0
  3 40  1  0
  3 41  1  0
  3 42  1  0
  4 43  1  0
  4 44  1  0
  5 45  1  0
  5 46  1  0
 10 47  1  0
 11 48  1  0
 17 49  1  0
 17 50  1  0
 18 51  1  0
 18 52  1  0
 20 53  1  0
 21 54  1  0
 22 55  1  0
 23 56  1  0
 25 57  1  0
 26 58  1  0
 30 59  1  0
 31 60  1  0
 34 61  1  0
M  END
$$$$
