
     RDKit          3D

 43 45  0  0  0  0  0  0  0  0999 V2000
   -0.1671    2.0913    1.2414 N   0  0  0  0  0  0  0  0  0  0  0  0
    0.7232    1.5595    0.7184 C   0  0  0  0  0  0  0  0  0  0  0  0
    1.7957    0.9252    0.0365 C   0  0  0  0  0  0  0  0  0  0  0  0
    1.9260   -0.3911   -0.2101 C   0  0  0  0  0  0  0  0  0  0  0  0
    0.9593   -1.3743    0.1412 C   0  0  0  0  0  0  0  0  0  0  0  0
    1.0393   -2.7530   -0.0108 C   0  0  0  0  0  0  0  0  0  0  0  0
   -0.1654   -3.3167    0.4768 C   0  0  0  0  0  0  0  0  0  0  0  0
   -0.9388   -2.2641    0.9128 C   0  0  0  0  0  0  0  0  0  0  0  0
   -2.2637   -2.1412    1.5155 C   0  0  0  0  0  0  0  0  0  0  0  0
   -2.6944   -0.9289    2.0817 C   0  0  0  0  0  0  0  0  0  0  0  0
   -3.9600   -0.8141    2.6641 C   0  0  0  0  0  0  0  0  0  0  0  0
   -4.8139   -1.9177    2.6725 C   0  0  0  0  0  0  0  0  0  0  0  0
   -6.4193   -1.7636    3.4078 S   0  0  0  0  0  6  0  0  0  0  0  0
   -7.2584   -0.9184    2.2170 N   0  0  0  0  0  0  0  0  0  0  0  0
   -7.0322   -3.0718    3.4518 O   0  0  0  0  0  0  0  0  0  0  0  0
   -6.3090   -0.9158    4.5697 O   0  0  0  0  0  0  0  0  0  0  0  0
   -4.4068   -3.1354    2.1261 C   0  0  0  0  0  0  0  0  0  0  0  0
   -3.1361   -3.2417    1.5505 C   0  0  0  0  0  0  0  0  0  0  0  0
   -0.2636   -1.0998    0.7013 O   0  0  0  0  0  0  0  0  0  0  0  0
    2.9205    1.7915   -0.4061 C   0  0  0  0  0  0  0  0  0  0  0  0
    3.6146    2.3558    0.4287 O   0  0  0  0  0  0  0  0  0  0  0  0
    3.0387    1.8511   -1.7836 N   0  0  0  0  0  0  0  0  0  0  0  0
    4.0098    2.5556   -2.5270 C   0  0  0  0  0  0  0  0  0  0  0  0
    3.9094    2.4995   -3.9239 C   0  0  0  0  0  0  0  0  0  0  0  0
    4.8335    3.1655   -4.7335 C   0  0  0  0  0  0  0  0  0  0  0  0
    5.8680    3.8939   -4.1538 C   0  0  0  0  0  0  0  0  0  0  0  0
    5.9765    3.9549   -2.7668 C   0  0  0  0  0  0  0  0  0  0  0  0
    5.0517    3.2883   -1.9560 C   0  0  0  0  0  0  0  0  0  0  0  0
    2.8283   -0.7555   -0.6978 H   0  0  0  0  0  0  0  0  0  0  0  0
    1.8802   -3.2940   -0.4240 H   0  0  0  0  0  0  0  0  0  0  0  0
   -0.4261   -4.3649    0.5131 H   0  0  0  0  0  0  0  0  0  0  0  0
   -2.0389   -0.0581    2.0860 H   0  0  0  0  0  0  0  0  0  0  0  0
   -4.2628    0.1309    3.1120 H   0  0  0  0  0  0  0  0  0  0  0  0
   -6.6574   -0.5573    1.4772 H   0  0  0  0  0  0  0  0  0  0  0  0
   -8.0027   -1.5143    1.8513 H   0  0  0  0  0  0  0  0  0  0  0  0
   -5.0617   -4.0041    2.1461 H   0  0  0  0  0  0  0  0  0  0  0  0
   -2.8377   -4.1987    1.1284 H   0  0  0  0  0  0  0  0  0  0  0  0
    2.3382    1.3689   -2.3341 H   0  0  0  0  0  0  0  0  0  0  0  0
    3.1113    1.9409   -4.4056 H   0  0  0  0  0  0  0  0  0  0  0  0
    4.7443    3.1171   -5.8157 H   0  0  0  0  0  0  0  0  0  0  0  0
    6.5880    4.4149   -4.7795 H   0  0  0  0  0  0  0  0  0  0  0  0
    6.7818    4.5240   -2.3083 H   0  0  0  0  0  0  0  0  0  0  0  0
    5.1777    3.3658   -0.8806 H   0  0  0  0  0  0  0  0  0  0  0  0
  1  2  3  0
  2  3  1  0
  3  4  2  3
  4  5  1  0
  5  6  2  0
  6  7  1  0
  7  8  2  0
  8  9  1  0
  9 10  2  0
 10 11  1  0
 11 12  2  0
 12 13  1  0
 13 14  1  0
 13 15  2  0
 13 16  2  0
 12 17  1  0
 17 18  2  0
  8 19  1  0
  3 20  1  0
 20 21  2  0
 20 22  1  0
 22 23  1  0
 23 24  2  0
 24 25  1  0
 25 26  2  0
 26 27  1  0
 27 28  2  0
 19  5  1  0
 28 23  1  0
 18  9  1  0
  4 29  1  0
  6 30  1  0
  7 31  1  0
 10 32  1  0
 11 33  1  0
 14 34  1  0
 14 35  1  0
 17 36  1  0
 18 37  1  0
 22 38  1  0
 24 39  1  0
 25 40  1  0
 26 41  1  0
 27 42  1  0
 28 43  1  0
M  END
$$$$
