
     RDKit          3D

 41 42  0  0  0  0  0  0  0  0999 V2000
    4.2571   -2.6244    0.8163 C   0  0  0  0  0  0  0  0  0  0  0  0
    3.2557   -1.6214    0.6796 O   0  0  0  0  0  0  0  0  0  0  0  0
    3.6331   -0.4341    0.0938 C   0  0  0  0  0  0  0  0  0  0  0  0
    4.9508   -0.0791   -0.2086 C   0  0  0  0  0  0  0  0  0  0  0  0
    5.2108    1.1646   -0.8034 C   0  0  0  0  0  0  0  0  0  0  0  0
    6.5948    1.5410   -1.1194 N   0  0  0  0  0  4  0  0  0  0  0  0
    6.7824    2.6151   -1.7078 O   0  0  0  0  0  0  0  0  0  0  0  0
    7.4954    0.7618   -0.7747 O   0  0  0  0  0  1  0  0  0  0  0  0
    4.1697    2.0518   -1.0944 C   0  0  0  0  0  0  0  0  0  0  0  0
    2.8543    1.6957   -0.7865 C   0  0  0  0  0  0  0  0  0  0  0  0
    2.5761    0.4593   -0.1957 C   0  0  0  0  0  0  0  0  0  0  0  0
    1.2740    0.0381    0.1498 N   0  0  0  0  0  0  0  0  0  0  0  0
    0.0697    0.6523   -0.1400 C   0  0  0  0  0  0  0  0  0  0  0  0
   -0.0733    1.6603   -0.8230 O   0  0  0  0  0  0  0  0  0  0  0  0
   -0.9885   -0.0601    0.4367 N   0  0  0  0  0  0  0  0  0  0  0  0
   -2.3020    0.4546    0.3285 N   0  0  0  0  0  0  0  0  0  0  0  0
   -3.1009    0.3092    1.5579 C   0  0  0  0  0  0  0  0  0  0  0  0
   -4.1547   -0.8167    1.4987 C   0  0  0  0  0  0  0  0  0  0  0  0
   -5.0912   -0.7309    0.3619 N   0  0  0  0  0  0  0  0  0  0  0  0
   -6.3820   -0.1723    0.7552 C   0  0  0  0  0  0  0  0  0  0  0  0
   -4.5157    0.0416   -0.7607 C   0  0  0  0  0  0  0  0  0  0  0  0
   -2.9846   -0.1008   -0.8576 C   0  0  0  0  0  0  0  0  0  0  0  0
    5.0322   -2.3138    1.5236 H   0  0  0  0  0  0  0  0  0  0  0  0
    3.7774   -3.5196    1.2244 H   0  0  0  0  0  0  0  0  0  0  0  0
    4.6854   -2.8887   -0.1560 H   0  0  0  0  0  0  0  0  0  0  0  0
    5.7769   -0.7469    0.0144 H   0  0  0  0  0  0  0  0  0  0  0  0
    4.3580    3.0213   -1.5514 H   0  0  0  0  0  0  0  0  0  0  0  0
    2.0656    2.4081   -1.0144 H   0  0  0  0  0  0  0  0  0  0  0  0
    1.2339   -0.8924    0.5461 H   0  0  0  0  0  0  0  0  0  0  0  0
   -0.7586   -0.6138    1.2529 H   0  0  0  0  0  0  0  0  0  0  0  0
   -2.4588    0.1648    2.4360 H   0  0  0  0  0  0  0  0  0  0  0  0
   -3.6209    1.2611    1.7276 H   0  0  0  0  0  0  0  0  0  0  0  0
   -3.6255   -1.7752    1.4133 H   0  0  0  0  0  0  0  0  0  0  0  0
   -4.6919   -0.8665    2.4542 H   0  0  0  0  0  0  0  0  0  0  0  0
   -7.0672   -0.1466   -0.0998 H   0  0  0  0  0  0  0  0  0  0  0  0
   -6.2881    0.8436    1.1556 H   0  0  0  0  0  0  0  0  0  0  0  0
   -6.8564   -0.8008    1.5167 H   0  0  0  0  0  0  0  0  0  0  0  0
   -4.7570    1.1101   -0.6716 H   0  0  0  0  0  0  0  0  0  0  0  0
   -4.9687   -0.3120   -1.6942 H   0  0  0  0  0  0  0  0  0  0  0  0
   -2.7374   -1.1639   -0.9890 H   0  0  0  0  0  0  0  0  0  0  0  0
   -2.6298    0.4257   -1.7518 H   0  0  0  0  0  0  0  0  0  0  0  0
  1  2  1  0
  2  3  1  0
  3  4  2  0
  4  5  1  0
  5  6  1  0
  6  7  2  0
  6  8  1  0
  5  9  2  0
  9 10  1  0
 10 11  2  0
 11 12  1  0
 12 13  1  0
 13 14  2  0
 13 15  1  0
 15 16  1  0
 16 17  1  0
 17 18  1  0
 18 19  1  0
 19 20  1  0
 19 21  1  0
 21 22  1  0
 11  3  1  0
 22 16  1  0
  1 23  1  0
  1 24  1  0
  1 25  1  0
  4 26  1  0
  9 27  1  0
 10 28  1  0
 12 29  1  0
 15 30  1  0
 17 31  1  0
 17 32  1  0
 18 33  1  0
 18 34  1  0
 20 35  1  0
 20 36  1  0
 20 37  1  0
 21 38  1  0
 21 39  1  0
 22 40  1  0
 22 41  1  0
M  CHG  2   6   1   8  -1
M  END
$$$$
