
     RDKit          3D

 46 49  0  0  0  0  0  0  0  0999 V2000
    5.1327   -1.3744    4.1160 N   0  0  0  0  0  0  0  0  0  0  0  0
    5.4437   -0.8999    2.5288 S   0  0  0  0  0  6  0  0  0  0  0  0
    6.0538   -2.0154    1.8456 O   0  0  0  0  0  0  0  0  0  0  0  0
    6.0788    0.3942    2.6275 O   0  0  0  0  0  0  0  0  0  0  0  0
    3.8020   -0.6799    1.9024 C   0  0  0  0  0  0  0  0  0  0  0  0
    3.1422   -1.7520    1.3048 C   0  0  0  0  0  0  0  0  0  0  0  0
    1.8430   -1.5767    0.8120 C   0  0  0  0  0  0  0  0  0  0  0  0
    1.1808   -0.3401    0.8966 C   0  0  0  0  0  0  0  0  0  0  0  0
   -0.1121   -0.1485    0.4135 N   0  0  0  0  0  0  0  0  0  0  0  0
   -0.7400    1.0564    0.5541 N   0  0  0  0  0  0  0  0  0  0  0  0
   -1.9653    0.9015    0.1520 C   0  0  0  0  0  0  0  0  0  0  0  0
   -2.9572    2.0020    0.1324 C   0  0  0  0  0  0  0  0  0  0  0  0
   -4.2955    1.7755   -0.2084 C   0  0  0  0  0  0  0  0  0  0  0  0
   -5.2042    2.8373   -0.2177 C   0  0  0  0  0  0  0  0  0  0  0  0
   -4.7818    4.1243    0.1130 C   0  0  0  0  0  0  0  0  0  0  0  0
   -3.4506    4.3547    0.4550 C   0  0  0  0  0  0  0  0  0  0  0  0
   -2.5398    3.2967    0.4656 C   0  0  0  0  0  0  0  0  0  0  0  0
   -2.3251   -0.4975   -0.2667 C   0  0  0  0  0  0  0  0  0  0  0  0
   -0.9423   -1.1519   -0.2567 C   0  0  0  0  0  0  0  0  0  0  0  0
   -0.4817   -1.4734   -1.6714 C   0  0  0  0  0  0  0  0  0  0  0  0
    0.0992   -0.5042   -2.5069 C   0  0  0  0  0  0  0  0  0  0  0  0
    0.4925   -0.8233   -3.8083 C   0  0  0  0  0  0  0  0  0  0  0  0
    0.3040   -2.1139   -4.2988 C   0  0  0  0  0  0  0  0  0  0  0  0
   -0.2792   -3.0802   -3.4836 C   0  0  0  0  0  0  0  0  0  0  0  0
   -0.5428   -4.8313   -4.1465 Br  0  0  0  0  0  0  0  0  0  0  0  0
   -0.6738   -2.7690   -2.1813 C   0  0  0  0  0  0  0  0  0  0  0  0
    1.8868    0.7211    1.4959 C   0  0  0  0  0  0  0  0  0  0  0  0
    3.1855    0.5648    1.9917 C   0  0  0  0  0  0  0  0  0  0  0  0
    5.4958   -0.6584    4.7475 H   0  0  0  0  0  0  0  0  0  0  0  0
    4.1464   -1.5667    4.2879 H   0  0  0  0  0  0  0  0  0  0  0  0
    3.6266   -2.7220    1.2107 H   0  0  0  0  0  0  0  0  0  0  0  0
    1.3633   -2.4342    0.3490 H   0  0  0  0  0  0  0  0  0  0  0  0
   -4.6572    0.7851   -0.4668 H   0  0  0  0  0  0  0  0  0  0  0  0
   -6.2440    2.6609   -0.4828 H   0  0  0  0  0  0  0  0  0  0  0  0
   -5.4906    4.9489    0.1049 H   0  0  0  0  0  0  0  0  0  0  0  0
   -3.1195    5.3574    0.7136 H   0  0  0  0  0  0  0  0  0  0  0  0
   -1.5030    3.4900    0.7339 H   0  0  0  0  0  0  0  0  0  0  0  0
   -2.9726   -0.9370    0.4996 H   0  0  0  0  0  0  0  0  0  0  0  0
   -2.8258   -0.5218   -1.2384 H   0  0  0  0  0  0  0  0  0  0  0  0
   -0.9818   -2.0720    0.3402 H   0  0  0  0  0  0  0  0  0  0  0  0
    0.2607    0.5099   -2.1418 H   0  0  0  0  0  0  0  0  0  0  0  0
    0.9500   -0.0628   -4.4365 H   0  0  0  0  0  0  0  0  0  0  0  0
    0.6152   -2.3537   -5.3119 H   0  0  0  0  0  0  0  0  0  0  0  0
   -1.1298   -3.5374   -1.5611 H   0  0  0  0  0  0  0  0  0  0  0  0
    1.4166    1.7002    1.5719 H   0  0  0  0  0  0  0  0  0  0  0  0
    3.6959    1.4168    2.4342 H   0  0  0  0  0  0  0  0  0  0  0  0
  1  2  1  0
  2  3  2  0
  2  4  2  0
  2  5  1  0
  5  6  2  0
  6  7  1  0
  7  8  2  0
  8  9  1  0
  9 10  1  0
 10 11  2  0
 11 12  1  0
 12 13  2  0
 13 14  1  0
 14 15  2  0
 15 16  1  0
 16 17  2  0
 11 18  1  0
 18 19  1  0
 19 20  1  0
 20 21  2  0
 21 22  1  0
 22 23  2  0
 23 24  1  0
 24 25  1  0
 24 26  2  0
  8 27  1  0
 27 28  2  0
 28  5  1  0
 19  9  1  0
 26 20  1  0
 17 12  1  0
  1 29  1  0
  1 30  1  0
  6 31  1  0
  7 32  1  0
 13 33  1  0
 14 34  1  0
 15 35  1  0
 16 36  1  0
 17 37  1  0
 18 38  1  0
 18 39  1  0
 19 40  1  0
 21 41  1  0
 22 42  1  0
 23 43  1  0
 26 44  1  0
 27 45  1  0
 28 46  1  0
M  END
$$$$
