
     RDKit          3D

 49 52  0  0  0  0  0  0  0  0999 V2000
    1.3102    2.3829    1.3952 O   0  0  0  0  0  0  0  0  0  0  0  0
    1.2511    2.1023    0.2002 C   0  0  0  0  0  0  0  0  0  0  0  0
    2.4927    2.1854   -0.6915 C   0  0  0  0  0  0  0  0  0  0  0  0
    2.9184    0.8660   -1.1503 N   0  0  0  0  0  0  0  0  0  0  0  0
    3.9743    0.2968   -0.4759 N   0  0  0  0  0  0  0  0  0  0  0  0
    4.4089   -0.8576   -0.8781 C   0  0  0  0  0  0  0  0  0  0  0  0
    5.5458   -1.4922   -0.1532 C   0  0  0  0  0  0  0  0  0  0  0  0
    5.6440   -1.3006    1.2342 C   0  0  0  0  0  0  0  0  0  0  0  0
    6.6950   -1.8772    1.9494 C   0  0  0  0  0  0  0  0  0  0  0  0
    7.6489   -2.6303    1.2758 C   0  0  0  0  0  0  0  0  0  0  0  0
    8.6579   -3.1834    1.9604 F   0  0  0  0  0  0  0  0  0  0  0  0
    7.5754   -2.8152   -0.1008 C   0  0  0  0  0  0  0  0  0  0  0  0
    6.5236   -2.2433   -0.8211 C   0  0  0  0  0  0  0  0  0  0  0  0
    3.8276   -1.6082   -2.0133 C   0  0  0  0  0  0  0  0  0  0  0  0
    2.8072   -1.0379   -2.6553 C   0  0  0  0  0  0  0  0  0  0  0  0
    2.2866    0.2750   -2.2307 C   0  0  0  0  0  0  0  0  0  0  0  0
    1.3167    0.7611   -2.8121 O   0  0  0  0  0  0  0  0  0  0  0  0
    0.1092    1.7302   -0.4940 N   0  0  0  0  0  0  0  0  0  0  0  0
   -1.2005    1.5902    0.0017 C   0  0  0  0  0  0  0  0  0  0  0  0
   -2.1720    1.1279   -0.8960 C   0  0  0  0  0  0  0  0  0  0  0  0
   -3.5009    0.9572   -0.4909 C   0  0  0  0  0  0  0  0  0  0  0  0
   -3.8712    1.2458    0.8264 C   0  0  0  0  0  0  0  0  0  0  0  0
   -5.2709    1.0840    1.3070 C   0  0  0  0  0  0  0  0  0  0  0  0
   -5.6981    1.7989    2.2069 O   0  0  0  0  0  0  0  0  0  0  0  0
   -6.0051    0.0789    0.7049 N   0  0  0  0  0  0  0  0  0  0  0  0
   -7.3444   -0.2181    1.1024 C   0  0  0  0  0  0  0  0  0  0  0  0
   -8.2134   -1.1104    0.2589 C   0  0  0  0  0  0  0  0  0  0  0  0
   -8.5080    0.3580    0.3448 C   0  0  0  0  0  0  0  0  0  0  0  0
   -2.9093    1.7283    1.7188 C   0  0  0  0  0  0  0  0  0  0  0  0
   -1.5800    1.8928    1.3098 C   0  0  0  0  0  0  0  0  0  0  0  0
    2.2662    2.8197   -1.5566 H   0  0  0  0  0  0  0  0  0  0  0  0
    3.3074    2.6574   -0.1311 H   0  0  0  0  0  0  0  0  0  0  0  0
    4.9000   -0.7062    1.7625 H   0  0  0  0  0  0  0  0  0  0  0  0
    6.7746   -1.7425    3.0232 H   0  0  0  0  0  0  0  0  0  0  0  0
    8.3425   -3.3970   -0.6033 H   0  0  0  0  0  0  0  0  0  0  0  0
    6.5003   -2.3733   -1.8995 H   0  0  0  0  0  0  0  0  0  0  0  0
    4.1970   -2.5858   -2.2874 H   0  0  0  0  0  0  0  0  0  0  0  0
    2.3072   -1.5119   -3.4898 H   0  0  0  0  0  0  0  0  0  0  0  0
    0.2445    1.4913   -1.4776 H   0  0  0  0  0  0  0  0  0  0  0  0
   -1.9062    0.9005   -1.9264 H   0  0  0  0  0  0  0  0  0  0  0  0
   -4.2325    0.6288   -1.2229 H   0  0  0  0  0  0  0  0  0  0  0  0
   -5.5289   -0.5894    0.1138 H   0  0  0  0  0  0  0  0  0  0  0  0
   -7.4597   -0.3016    2.1815 H   0  0  0  0  0  0  0  0  0  0  0  0
   -7.8234   -1.4914   -0.6770 H   0  0  0  0  0  0  0  0  0  0  0  0
   -8.8823   -1.7914    0.7731 H   0  0  0  0  0  0  0  0  0  0  0  0
   -9.3683    0.6781    0.9206 H   0  0  0  0  0  0  0  0  0  0  0  0
   -8.2993    0.9781   -0.5181 H   0  0  0  0  0  0  0  0  0  0  0  0
   -3.1889    1.9796    2.7401 H   0  0  0  0  0  0  0  0  0  0  0  0
   -0.8698    2.2697    2.0387 H   0  0  0  0  0  0  0  0  0  0  0  0
  1  2  2  0
  2  3  1  0
  3  4  1  0
  4  5  1  0
  5  6  2  0
  6  7  1  0
  7  8  2  0
  8  9  1  0
  9 10  2  0
 10 11  1  0
 10 12  1  0
 12 13  2  0
  6 14  1  0
 14 15  2  0
 15 16  1  0
 16 17  2  0
  2 18  1  0
 18 19  1  0
 19 20  2  0
 20 21  1  0
 21 22  2  0
 22 23  1  0
 23 24  2  0
 23 25  1  0
 25 26  1  0
 26 27  1  0
 27 28  1  0
 22 29  1  0
 29 30  2  0
 16  4  1  0
 30 19  1  0
 13  7  1  0
 28 26  1  0
  3 31  1  0
  3 32  1  0
  8 33  1  0
  9 34  1  0
 12 35  1  0
 13 36  1  0
 14 37  1  0
 15 38  1  0
 18 39  1  0
 20 40  1  0
 21 41  1  0
 25 42  1  0
 26 43  1  0
 27 44  1  0
 27 45  1  0
 28 46  1  0
 28 47  1  0
 29 48  1  0
 30 49  1  0
M  END
$$$$
