
     RDKit          3D

 63 68  0  0  0  0  0  0  0  0999 V2000
   -2.9619    4.5224    3.0521 C   0  0  0  0  0  0  0  0  0  0  0  0
   -2.3922    3.3931    3.7061 O   0  0  0  0  0  0  0  0  0  0  0  0
   -2.1796    2.2813    2.9406 C   0  0  0  0  0  0  0  0  0  0  0  0
   -1.4560    1.2704    3.5697 C   0  0  0  0  0  0  0  0  0  0  0  0
   -1.1801    0.0698    2.9098 C   0  0  0  0  0  0  0  0  0  0  0  0
   -1.6320   -0.1454    1.6005 C   0  0  0  0  0  0  0  0  0  0  0  0
   -1.3499   -1.4781    0.9000 C   0  0  0  0  0  0  0  0  0  0  0  0
   -2.6217   -2.0697    0.3107 C   0  0  0  0  0  0  0  0  0  0  0  0
   -3.6368   -2.5625    1.1400 C   0  0  0  0  0  0  0  0  0  0  0  0
   -4.8285   -3.0354    0.5875 C   0  0  0  0  0  0  0  0  0  0  0  0
   -5.0353   -3.0196   -0.8008 C   0  0  0  0  0  0  0  0  0  0  0  0
   -6.2445   -3.4751   -1.3543 C   0  0  0  0  0  0  0  0  0  0  0  0
   -6.4576   -3.4547   -2.7332 C   0  0  0  0  0  0  0  0  0  0  0  0
   -5.4617   -2.9845   -3.5797 C   0  0  0  0  0  0  0  0  0  0  0  0
   -4.2555   -2.5270   -3.0454 C   0  0  0  0  0  0  0  0  0  0  0  0
   -4.0173   -2.5326   -1.6542 C   0  0  0  0  0  0  0  0  0  0  0  0
   -2.8110   -2.0706   -1.0772 C   0  0  0  0  0  0  0  0  0  0  0  0
   -1.8350   -1.5975   -1.9311 O   0  0  0  0  0  0  0  0  0  0  0  0
   -0.5358   -1.4127   -1.4626 C   0  0  0  0  0  0  0  0  0  0  0  0
    0.4119   -1.2731   -2.4593 N   0  0  0  0  0  0  0  0  0  0  0  0
    1.6362   -1.1364   -2.0718 C   0  0  0  0  0  0  0  0  0  0  0  0
    2.0879   -1.1285   -0.7715 N   0  0  0  0  0  0  0  0  0  0  0  0
    3.5071   -0.8495   -0.5284 C   0  0  0  0  0  0  0  0  0  0  0  0
    3.7262    0.6722   -0.3656 C   0  0  0  0  0  0  0  0  0  0  0  0
    5.1115    1.0608   -0.0298 N   0  0  0  0  0  0  0  0  0  0  0  0
    5.1341    2.4781    0.4221 C   0  0  0  0  0  0  0  0  0  0  0  0
    6.3758    3.2496   -0.0589 C   0  0  0  0  0  0  0  0  0  0  0  0
    6.4038    3.3210   -1.4862 O   0  0  0  0  0  0  0  0  0  0  0  0
    6.1643    2.0510   -2.1123 C   0  0  0  0  0  0  0  0  0  0  0  0
    6.0718    0.8649   -1.1345 C   0  0  0  0  0  0  0  0  0  0  0  0
    1.1655   -1.2533    0.2603 C   0  0  0  0  0  0  0  0  0  0  0  0
    1.4495   -1.3008    1.5232 N   0  0  0  0  0  0  0  0  0  0  0  0
   -0.2739   -1.3625   -0.1399 C   0  0  0  0  0  0  0  0  0  0  0  0
   -2.3438    0.8876    0.9682 C   0  0  0  0  0  0  0  0  0  0  0  0
   -2.6203    2.0878    1.6343 C   0  0  0  0  0  0  0  0  0  0  0  0
   -3.9886    4.3178    2.7289 H   0  0  0  0  0  0  0  0  0  0  0  0
   -2.9969    5.3435    3.7761 H   0  0  0  0  0  0  0  0  0  0  0  0
   -2.3438    4.8465    2.2082 H   0  0  0  0  0  0  0  0  0  0  0  0
   -1.0990    1.4158    4.5858 H   0  0  0  0  0  0  0  0  0  0  0  0
   -0.5950   -0.6885    3.4231 H   0  0  0  0  0  0  0  0  0  0  0  0
   -1.0152   -2.2111    1.6475 H   0  0  0  0  0  0  0  0  0  0  0  0
   -3.5113   -2.5579    2.2211 H   0  0  0  0  0  0  0  0  0  0  0  0
   -5.6068   -3.4046    1.2537 H   0  0  0  0  0  0  0  0  0  0  0  0
   -7.0350   -3.8487   -0.7070 H   0  0  0  0  0  0  0  0  0  0  0  0
   -7.3987   -3.8067   -3.1465 H   0  0  0  0  0  0  0  0  0  0  0  0
   -5.6175   -2.9709   -4.6542 H   0  0  0  0  0  0  0  0  0  0  0  0
   -3.4909   -2.1590   -3.7275 H   0  0  0  0  0  0  0  0  0  0  0  0
    2.4289   -1.0093   -2.8286 H   0  0  0  0  0  0  0  0  0  0  0  0
    3.8740   -1.3870    0.3560 H   0  0  0  0  0  0  0  0  0  0  0  0
    4.1011   -1.2347   -1.3669 H   0  0  0  0  0  0  0  0  0  0  0  0
    3.3899    1.1908   -1.2768 H   0  0  0  0  0  0  0  0  0  0  0  0
    3.0667    1.0103    0.4468 H   0  0  0  0  0  0  0  0  0  0  0  0
    4.2520    3.0162    0.0310 H   0  0  0  0  0  0  0  0  0  0  0  0
    5.0850    2.4949    1.5216 H   0  0  0  0  0  0  0  0  0  0  0  0
    6.3626    4.2716    0.3279 H   0  0  0  0  0  0  0  0  0  0  0  0
    7.3065    2.7856    0.3017 H   0  0  0  0  0  0  0  0  0  0  0  0
    5.2413    2.1277   -2.7043 H   0  0  0  0  0  0  0  0  0  0  0  0
    6.9826    1.8772   -2.8233 H   0  0  0  0  0  0  0  0  0  0  0  0
    5.8895   -0.0690   -1.6803 H   0  0  0  0  0  0  0  0  0  0  0  0
    7.0602    0.7315   -0.6693 H   0  0  0  0  0  0  0  0  0  0  0  0
    2.4486   -1.2235    1.7050 H   0  0  0  0  0  0  0  0  0  0  0  0
   -2.7087    0.7628   -0.0492 H   0  0  0  0  0  0  0  0  0  0  0  0
   -3.1964    2.8378    1.1067 H   0  0  0  0  0  0  0  0  0  0  0  0
  1  2  1  0
  2  3  1  0
  3  4  2  0
  4  5  1  0
  5  6  2  0
  6  7  1  0
  7  8  1  0
  8  9  2  0
  9 10  1  0
 10 11  2  0
 11 12  1  0
 12 13  2  0
 13 14  1  0
 14 15  2  0
 15 16  1  0
 16 17  2  0
 17 18  1  0
 18 19  1  0
 19 20  1  0
 20 21  2  0
 21 22  1  0
 22 23  1  0
 23 24  1  0
 24 25  1  0
 25 26  1  0
 26 27  1  0
 27 28  1  0
 28 29  1  0
 29 30  1  0
 22 31  1  0
 31 32  2  3
 31 33  1  0
  6 34  1  0
 34 35  2  0
 35  3  1  0
 33  7  1  0
 17  8  1  0
 33 19  2  0
 16 11  1  0
 30 25  1  0
  1 36  1  0
  1 37  1  0
  1 38  1  0
  4 39  1  0
  5 40  1  0
  7 41  1  0
  9 42  1  0
 10 43  1  0
 12 44  1  0
 13 45  1  0
 14 46  1  0
 15 47  1  0
 21 48  1  0
 23 49  1  0
 23 50  1  0
 24 51  1  0
 24 52  1  0
 26 53  1  0
 26 54  1  0
 27 55  1  0
 27 56  1  0
 29 57  1  0
 29 58  1  0
 30 59  1  0
 30 60  1  0
 32 61  1  0
 34 62  1  0
 35 63  1  0
M  END
$$$$
