
     RDKit          3D

 35 37  0  0  0  0  0  0  0  0999 V2000
    2.3020   -1.2891    1.0013 O   0  0  0  0  0  0  0  0  0  0  0  0
    1.9456   -0.5569    0.0853 C   0  0  0  0  0  0  0  0  0  0  0  0
    0.6462   -0.1376   -0.0889 N   0  0  0  0  0  0  0  0  0  0  0  0
   -0.4320   -0.6052    0.7756 C   0  0  0  0  0  0  0  0  0  0  0  0
   -0.8954   -1.9895    0.2926 C   0  0  0  0  0  0  0  0  0  0  0  0
   -2.2188   -2.3820    0.9320 C   0  0  0  0  0  0  0  0  0  0  0  0
   -3.3095   -1.4027    0.5113 C   0  0  0  0  0  0  0  0  0  0  0  0
   -2.9084    0.0364    0.7213 C   0  0  0  0  0  0  0  0  0  0  0  0
   -3.9134    1.0155    0.7760 C   0  0  0  0  0  0  0  0  0  0  0  0
   -3.5914    2.3565    0.9776 C   0  0  0  0  0  0  0  0  0  0  0  0
   -2.2621    2.7349    1.1294 C   0  0  0  0  0  0  0  0  0  0  0  0
   -1.2537    1.7737    1.0627 C   0  0  0  0  0  0  0  0  0  0  0  0
   -1.5568    0.4186    0.8299 C   0  0  0  0  0  0  0  0  0  0  0  0
    2.9505   -0.0583   -0.8808 C   0  0  0  0  0  0  0  0  0  0  0  0
    2.6298    0.2722   -2.1920 C   0  0  0  0  0  0  0  0  0  0  0  0
    3.5291    0.7309   -3.0982 N   0  0  0  0  0  0  0  0  0  0  0  0
    4.8115    0.8438   -2.6750 C   0  0  0  0  0  0  0  0  0  0  0  0
    5.2287    0.5177   -1.3929 C   0  0  0  0  0  0  0  0  0  0  0  0
    7.0373    0.6982   -0.8936 Br  0  0  0  0  0  0  0  0  0  0  0  0
    4.2854    0.0558   -0.4814 C   0  0  0  0  0  0  0  0  0  0  0  0
    0.3903    0.5064   -0.8238 H   0  0  0  0  0  0  0  0  0  0  0  0
   -0.0409   -0.7101    1.7966 H   0  0  0  0  0  0  0  0  0  0  0  0
   -1.0082   -1.9939   -0.8004 H   0  0  0  0  0  0  0  0  0  0  0  0
   -0.1310   -2.7408    0.5251 H   0  0  0  0  0  0  0  0  0  0  0  0
   -2.1153   -2.3891    2.0243 H   0  0  0  0  0  0  0  0  0  0  0  0
   -2.4983   -3.3967    0.6271 H   0  0  0  0  0  0  0  0  0  0  0  0
   -3.5428   -1.5431   -0.5515 H   0  0  0  0  0  0  0  0  0  0  0  0
   -4.2186   -1.6249    1.0830 H   0  0  0  0  0  0  0  0  0  0  0  0
   -4.9590    0.7328    0.6710 H   0  0  0  0  0  0  0  0  0  0  0  0
   -4.3795    3.1033    1.0272 H   0  0  0  0  0  0  0  0  0  0  0  0
   -2.0095    3.7773    1.3050 H   0  0  0  0  0  0  0  0  0  0  0  0
   -0.2206    2.0873    1.2021 H   0  0  0  0  0  0  0  0  0  0  0  0
    1.6243    0.1615   -2.5862 H   0  0  0  0  0  0  0  0  0  0  0  0
    5.5089    1.2107   -3.4233 H   0  0  0  0  0  0  0  0  0  0  0  0
    4.5757   -0.2137    0.5314 H   0  0  0  0  0  0  0  0  0  0  0  0
  1  2  2  0
  2  3  1  0
  3  4  1  0
  4  5  1  0
  5  6  1  0
  6  7  1  0
  7  8  1  0
  8  9  2  0
  9 10  1  0
 10 11  2  0
 11 12  1  0
 12 13  2  0
  2 14  1  0
 14 15  2  0
 15 16  1  0
 16 17  2  0
 17 18  1  0
 18 19  1  0
 18 20  2  0
 13  4  1  0
 20 14  1  0
 13  8  1  0
  3 21  1  0
  4 22  1  0
  5 23  1  0
  5 24  1  0
  6 25  1  0
  6 26  1  0
  7 27  1  0
  7 28  1  0
  9 29  1  0
 10 30  1  0
 11 31  1  0
 12 32  1  0
 15 33  1  0
 17 34  1  0
 20 35  1  0
M  END
$$$$
