
     RDKit          3D

 67 71  0  0  0  0  0  0  0  0999 V2000
   -7.3142    4.4804    0.4065 C   0  0  0  0  0  0  0  0  0  0  0  0
   -5.9078    4.6117    0.5538 O   0  0  0  0  0  0  0  0  0  0  0  0
   -5.1257    3.5320    0.2169 C   0  0  0  0  0  0  0  0  0  0  0  0
   -5.6304    2.3259   -0.2848 C   0  0  0  0  0  0  0  0  0  0  0  0
   -4.7364    1.2810   -0.5987 C   0  0  0  0  0  0  0  0  0  0  0  0
   -5.1477   -0.2653   -1.2272 S   0  0  0  0  0  0  0  0  0  0  0  0
   -3.5180   -0.7813   -1.2677 C   0  0  0  0  0  0  0  0  0  0  0  0
   -3.2266   -2.1410   -1.7460 C   0  0  0  0  0  0  0  0  0  0  0  0
   -3.3243   -2.4125   -3.1218 C   0  0  0  0  0  0  0  0  0  0  0  0
   -3.0325   -3.6818   -3.6185 C   0  0  0  0  0  0  0  0  0  0  0  0
   -2.6409   -4.6920   -2.7456 C   0  0  0  0  0  0  0  0  0  0  0  0
   -2.5384   -4.4372   -1.3752 C   0  0  0  0  0  0  0  0  0  0  0  0
   -2.8222   -3.1645   -0.8646 C   0  0  0  0  0  0  0  0  0  0  0  0
   -2.7651   -2.8440    0.4693 O   0  0  0  0  0  0  0  0  0  0  0  0
   -2.0365   -3.7252    1.3130 C   0  0  0  0  0  0  0  0  0  0  0  0
   -2.6606    0.2057   -0.8091 C   0  0  0  0  0  0  0  0  0  0  0  0
   -1.2189   -0.0030   -0.7359 C   0  0  0  0  0  0  0  0  0  0  0  0
   -0.6003   -0.1603    0.5090 C   0  0  0  0  0  0  0  0  0  0  0  0
    0.7827   -0.3537    0.5934 C   0  0  0  0  0  0  0  0  0  0  0  0
    1.5571   -0.3868   -0.5670 C   0  0  0  0  0  0  0  0  0  0  0  0
    2.9116   -0.5669   -0.6254 O   0  0  0  0  0  0  0  0  0  0  0  0
    3.6009   -0.7258    0.6191 C   0  0  0  0  0  0  0  0  0  0  0  0
    5.0945   -0.9247    0.3098 C   0  0  0  0  0  0  0  0  0  0  0  0
    5.9168   -1.1836    1.5057 N   0  0  0  0  0  0  0  0  0  0  0  0
    6.1049    0.0149    2.3552 C   0  0  0  0  0  0  0  0  0  0  0  0
    7.0682    1.0622    1.7686 C   0  0  0  0  0  0  0  0  0  0  0  0
    8.3428    0.4858    1.4615 O   0  0  0  0  0  0  0  0  0  0  0  0
    8.1970   -0.6157    0.5571 C   0  0  0  0  0  0  0  0  0  0  0  0
    7.2590   -1.6901    1.1331 C   0  0  0  0  0  0  0  0  0  0  0  0
    0.9366   -0.2260   -1.8091 C   0  0  0  0  0  0  0  0  0  0  0  0
   -0.4441   -0.0330   -1.8977 C   0  0  0  0  0  0  0  0  0  0  0  0
   -3.3608    1.4106   -0.4206 C   0  0  0  0  0  0  0  0  0  0  0  0
   -2.8717    2.6450    0.0845 C   0  0  0  0  0  0  0  0  0  0  0  0
   -3.7445    3.6952    0.4000 C   0  0  0  0  0  0  0  0  0  0  0  0
   -3.3397    4.9125    0.8926 O   0  0  0  0  0  0  0  0  0  0  0  0
   -1.9463    5.1237    1.0681 C   0  0  0  0  0  0  0  0  0  0  0  0
   -7.7732    5.4197    0.7295 H   0  0  0  0  0  0  0  0  0  0  0  0
   -7.7062    3.6825    1.0457 H   0  0  0  0  0  0  0  0  0  0  0  0
   -7.5882    4.3206   -0.6414 H   0  0  0  0  0  0  0  0  0  0  0  0
   -6.6906    2.1671   -0.4418 H   0  0  0  0  0  0  0  0  0  0  0  0
   -3.6260   -1.6287   -3.8132 H   0  0  0  0  0  0  0  0  0  0  0  0
   -3.1127   -3.8808   -4.6840 H   0  0  0  0  0  0  0  0  0  0  0  0
   -2.4183   -5.6846   -3.1295 H   0  0  0  0  0  0  0  0  0  0  0  0
   -2.2454   -5.2576   -0.7288 H   0  0  0  0  0  0  0  0  0  0  0  0
   -1.9376   -3.2446    2.2911 H   0  0  0  0  0  0  0  0  0  0  0  0
   -1.0269   -3.9062    0.9288 H   0  0  0  0  0  0  0  0  0  0  0  0
   -2.5798   -4.6643    1.4581 H   0  0  0  0  0  0  0  0  0  0  0  0
   -1.1963   -0.1473    1.4192 H   0  0  0  0  0  0  0  0  0  0  0  0
    1.2183   -0.4793    1.5788 H   0  0  0  0  0  0  0  0  0  0  0  0
    3.4564    0.1720    1.2296 H   0  0  0  0  0  0  0  0  0  0  0  0
    3.2202   -1.6081    1.1482 H   0  0  0  0  0  0  0  0  0  0  0  0
    5.1610   -1.7876   -0.3673 H   0  0  0  0  0  0  0  0  0  0  0  0
    5.4625   -0.0728   -0.2746 H   0  0  0  0  0  0  0  0  0  0  0  0
    5.1470    0.4827    2.6023 H   0  0  0  0  0  0  0  0  0  0  0  0
    6.5200   -0.3319    3.3108 H   0  0  0  0  0  0  0  0  0  0  0  0
    6.6580    1.5324    0.8679 H   0  0  0  0  0  0  0  0  0  0  0  0
    7.2372    1.8560    2.5036 H   0  0  0  0  0  0  0  0  0  0  0  0
    9.1919   -1.0442    0.3996 H   0  0  0  0  0  0  0  0  0  0  0  0
    7.8420   -0.2436   -0.4107 H   0  0  0  0  0  0  0  0  0  0  0  0
    7.1742   -2.5318    0.4358 H   0  0  0  0  0  0  0  0  0  0  0  0
    7.7180   -2.0970    2.0439 H   0  0  0  0  0  0  0  0  0  0  0  0
    1.5334   -0.2530   -2.7175 H   0  0  0  0  0  0  0  0  0  0  0  0
   -0.9056    0.0902   -2.8741 H   0  0  0  0  0  0  0  0  0  0  0  0
   -1.7998    2.7445    0.2137 H   0  0  0  0  0  0  0  0  0  0  0  0
   -1.8080    6.1386    1.4534 H   0  0  0  0  0  0  0  0  0  0  0  0
   -1.5313    4.4296    1.8062 H   0  0  0  0  0  0  0  0  0  0  0  0
   -1.4125    5.0553    0.1145 H   0  0  0  0  0  0  0  0  0  0  0  0
  1  2  1  0
  2  3  1  0
  3  4  2  0
  4  5  1  0
  5  6  1  0
  6  7  1  0
  7  8  1  0
  8  9  2  0
  9 10  1  0
 10 11  2  0
 11 12  1  0
 12 13  2  0
 13 14  1  0
 14 15  1  0
  7 16  2  0
 16 17  1  0
 17 18  2  0
 18 19  1  0
 19 20  2  0
 20 21  1  0
 21 22  1  0
 22 23  1  0
 23 24  1  0
 24 25  1  0
 25 26  1  0
 26 27  1  0
 27 28  1  0
 28 29  1  0
 20 30  1  0
 30 31  2  0
 16 32  1  0
 32 33  1  0
 33 34  2  0
 34 35  1  0
 35 36  1  0
 34  3  1  0
 32  5  2  0
 13  8  1  0
 31 17  1  0
 29 24  1  0
  1 37  1  0
  1 38  1  0
  1 39  1  0
  4 40  1  0
  9 41  1  0
 10 42  1  0
 11 43  1  0
 12 44  1  0
 15 45  1  0
 15 46  1  0
 15 47  1  0
 18 48  1  0
 19 49  1  0
 22 50  1  0
 22 51  1  0
 23 52  1  0
 23 53  1  0
 25 54  1  0
 25 55  1  0
 26 56  1  0
 26 57  1  0
 28 58  1  0
 28 59  1  0
 29 60  1  0
 29 61  1  0
 30 62  1  0
 31 63  1  0
 33 64  1  0
 36 65  1  0
 36 66  1  0
 36 67  1  0
M  END
$$$$
