
     RDKit          3D

 46 50  0  0  0  0  0  0  0  0999 V2000
   -5.9248    1.5232    2.4138 C   0  0  0  0  0  0  0  0  0  0  0  0
   -4.8004    1.0438    1.5318 C   0  0  0  0  0  0  0  0  0  0  0  0
   -3.5464    1.6714    1.6351 C   0  0  0  0  0  0  0  0  0  0  0  0
   -2.4564    1.2824    0.8531 C   0  0  0  0  0  0  0  0  0  0  0  0
   -2.6706    0.2347   -0.0418 C   0  0  0  0  0  0  0  0  0  0  0  0
   -3.9005   -0.4194   -0.1783 C   0  0  0  0  0  0  0  0  0  0  0  0
   -3.8343   -1.4168   -1.1385 N   0  0  0  0  0  0  0  0  0  0  0  0
   -2.6015   -1.3584   -1.5549 C   0  0  0  0  0  0  0  0  0  0  0  0
   -1.7353   -2.2305   -2.7540 S   0  0  0  0  0  0  0  0  0  0  0  0
   -0.2761   -1.3171   -2.3680 C   0  0  0  0  0  0  0  0  0  0  0  0
    0.8829   -1.6020   -2.9801 C   0  0  0  0  0  0  0  0  0  0  0  0
    2.1258   -0.9984   -2.6600 C   0  0  0  0  0  0  0  0  0  0  0  0
    3.1975   -0.7150   -3.4971 C   0  0  0  0  0  0  0  0  0  0  0  0
    4.2259   -0.1437   -2.7076 C   0  0  0  0  0  0  0  0  0  0  0  0
    3.7559   -0.1337   -1.4141 C   0  0  0  0  0  0  0  0  0  0  0  0
    4.2784    0.3377   -0.1379 C   0  0  0  0  0  0  0  0  0  0  0  0
    4.9985    1.5455   -0.1086 C   0  0  0  0  0  0  0  0  0  0  0  0
    5.4631    2.0815    1.0967 C   0  0  0  0  0  0  0  0  0  0  0  0
    5.2127    1.4229    2.2973 C   0  0  0  0  0  0  0  0  0  0  0  0
    4.5109    0.2191    2.2919 C   0  0  0  0  0  0  0  0  0  0  0  0
    4.0612   -0.3309    1.0806 C   0  0  0  0  0  0  0  0  0  0  0  0
    3.3844   -1.6382    1.1707 C   0  0  0  0  0  0  0  0  0  0  0  0
    2.4866   -1.9326    1.9371 O   0  0  0  0  0  0  0  0  0  0  0  0
    3.9753   -2.5529    0.3802 O   0  0  0  0  0  0  0  0  0  0  0  0
    2.4985   -0.6513   -1.3861 O   0  0  0  0  0  0  0  0  0  0  0  0
   -0.5465   -0.2574   -1.3398 C   0  0  0  0  0  0  0  0  0  0  0  0
    0.1462    0.6445   -0.9120 O   0  0  0  0  0  0  0  0  0  0  0  0
   -1.8596   -0.4058   -0.9450 N   0  0  0  0  0  0  0  0  0  0  0  0
   -5.0009   -0.0228    0.6146 C   0  0  0  0  0  0  0  0  0  0  0  0
   -6.3375   -0.7017    0.4961 C   0  0  0  0  0  0  0  0  0  0  0  0
   -6.7592    1.8834    1.8038 H   0  0  0  0  0  0  0  0  0  0  0  0
   -6.2685    0.7133    3.0650 H   0  0  0  0  0  0  0  0  0  0  0  0
   -5.6075    2.3505    3.0575 H   0  0  0  0  0  0  0  0  0  0  0  0
   -3.4040    2.4866    2.3438 H   0  0  0  0  0  0  0  0  0  0  0  0
   -1.4911    1.7723    0.9440 H   0  0  0  0  0  0  0  0  0  0  0  0
    0.9078   -2.3631   -3.7560 H   0  0  0  0  0  0  0  0  0  0  0  0
    3.2257   -0.8907   -4.5639 H   0  0  0  0  0  0  0  0  0  0  0  0
    5.1929    0.2061   -3.0399 H   0  0  0  0  0  0  0  0  0  0  0  0
    5.1798    2.0987   -1.0282 H   0  0  0  0  0  0  0  0  0  0  0  0
    6.0072    3.0231    1.0968 H   0  0  0  0  0  0  0  0  0  0  0  0
    5.5632    1.8451    3.2358 H   0  0  0  0  0  0  0  0  0  0  0  0
    4.3207   -0.2988    3.2299 H   0  0  0  0  0  0  0  0  0  0  0  0
    3.4629   -3.3701    0.5452 H   0  0  0  0  0  0  0  0  0  0  0  0
   -6.6209   -1.1534    1.4519 H   0  0  0  0  0  0  0  0  0  0  0  0
   -6.3175   -1.4992   -0.2533 H   0  0  0  0  0  0  0  0  0  0  0  0
   -7.1042    0.0180    0.1925 H   0  0  0  0  0  0  0  0  0  0  0  0
  1  2  1  0
  2  3  2  0
  3  4  1  0
  4  5  2  0
  5  6  1  0
  6  7  1  0
  7  8  2  0
  8  9  1  0
  9 10  1  0
 10 11  2  3
 11 12  1  0
 12 13  2  0
 13 14  1  0
 14 15  2  0
 15 16  1  0
 16 17  2  0
 17 18  1  0
 18 19  2  0
 19 20  1  0
 20 21  2  0
 21 22  1  0
 22 23  2  0
 22 24  1  0
 15 25  1  0
 10 26  1  0
 26 27  2  0
 26 28  1  0
  6 29  2  0
 29 30  1  0
 29  2  1  0
 28  5  1  0
 28  8  1  0
 25 12  1  0
 21 16  1  0
  1 31  1  0
  1 32  1  0
  1 33  1  0
  3 34  1  0
  4 35  1  0
 11 36  1  0
 13 37  1  0
 14 38  1  0
 17 39  1  0
 18 40  1  0
 19 41  1  0
 20 42  1  0
 24 43  1  0
 30 44  1  0
 30 45  1  0
 30 46  1  0
M  END
$$$$
