
     RDKit          3D

 61 64  0  0  0  0  0  0  0  0999 V2000
    8.8680    1.8485    0.6249 C   0  0  0  0  0  0  0  0  0  0  0  0
    7.4194    1.7214    0.2573 C   0  0  0  0  0  0  0  0  0  0  0  0
    6.4329    1.7356    1.2494 C   0  0  0  0  0  0  0  0  0  0  0  0
    5.0811    1.6501    0.9070 C   0  0  0  0  0  0  0  0  0  0  0  0
    4.6915    1.5619   -0.4360 C   0  0  0  0  0  0  0  0  0  0  0  0
    3.2349    1.4500   -0.8104 C   0  0  0  0  0  0  0  0  0  0  0  0
    2.8525    0.0953   -1.1771 N   0  0  0  0  0  0  0  0  0  0  0  0
    2.8718   -0.9891   -0.2227 C   0  0  0  0  0  0  0  0  0  0  0  0
    2.3415   -2.1682   -1.0143 C   0  0  0  0  0  0  0  0  0  0  0  0
    0.8410   -2.3665   -0.8204 C   0  0  0  0  0  0  0  0  0  0  0  0
    0.4259   -3.4375   -0.3858 O   0  0  0  0  0  0  0  0  0  0  0  0
    0.0647   -1.2732   -1.1598 N   0  0  0  0  0  0  0  0  0  0  0  0
   -1.3414   -1.1706   -1.1260 C   0  0  0  0  0  0  0  0  0  0  0  0
   -2.1955   -2.2216   -0.7818 C   0  0  0  0  0  0  0  0  0  0  0  0
   -3.5828   -2.0383   -0.7750 C   0  0  0  0  0  0  0  0  0  0  0  0
   -4.1201   -0.7908   -1.0963 C   0  0  0  0  0  0  0  0  0  0  0  0
   -5.8885   -0.5662   -1.1127 S   0  0  0  0  0  6  0  0  0  0  0  0
   -6.1743    0.5494   -1.9907 O   0  0  0  0  0  0  0  0  0  0  0  0
   -6.4869   -1.8656   -1.3341 O   0  0  0  0  0  0  0  0  0  0  0  0
   -6.2275   -0.0872    0.4798 N   0  0  0  0  0  0  0  0  0  0  0  0
   -5.8326    1.2781    0.8990 C   0  0  0  0  0  0  0  0  0  0  0  0
   -4.9191    1.2388    2.1170 C   0  0  0  0  0  0  0  0  0  0  0  0
   -5.5872    0.5505    3.3061 C   0  0  0  0  0  0  0  0  0  0  0  0
   -6.5715   -0.5364    2.8764 C   0  0  0  0  0  0  0  0  0  0  0  0
   -6.1927   -1.1340    1.5265 C   0  0  0  0  0  0  0  0  0  0  0  0
   -3.2816    0.2601   -1.4710 C   0  0  0  0  0  0  0  0  0  0  0  0
   -1.8969    0.0682   -1.4786 C   0  0  0  0  0  0  0  0  0  0  0  0
    2.7127   -1.8647   -2.4651 C   0  0  0  0  0  0  0  0  0  0  0  0
    2.8973   -0.3668   -2.4847 C   0  0  0  0  0  0  0  0  0  0  0  0
    3.0504    0.3094   -3.4873 O   0  0  0  0  0  0  0  0  0  0  0  0
    5.6810    1.5595   -1.4281 C   0  0  0  0  0  0  0  0  0  0  0  0
    7.0320    1.6450   -1.0846 C   0  0  0  0  0  0  0  0  0  0  0  0
    9.1448    2.9050    0.6963 H   0  0  0  0  0  0  0  0  0  0  0  0
    9.5060    1.3658   -0.1230 H   0  0  0  0  0  0  0  0  0  0  0  0
    9.0698    1.3627    1.5854 H   0  0  0  0  0  0  0  0  0  0  0  0
    6.7126    1.8136    2.2977 H   0  0  0  0  0  0  0  0  0  0  0  0
    4.3358    1.6562    1.6989 H   0  0  0  0  0  0  0  0  0  0  0  0
    2.5930    1.7627    0.0214 H   0  0  0  0  0  0  0  0  0  0  0  0
    3.0235    2.1262   -1.6474 H   0  0  0  0  0  0  0  0  0  0  0  0
    3.9084   -1.1660    0.0839 H   0  0  0  0  0  0  0  0  0  0  0  0
    2.2664   -0.7304    0.6512 H   0  0  0  0  0  0  0  0  0  0  0  0
    2.8212   -3.0975   -0.6827 H   0  0  0  0  0  0  0  0  0  0  0  0
    0.5539   -0.4314   -1.4452 H   0  0  0  0  0  0  0  0  0  0  0  0
   -1.8165   -3.2065   -0.5260 H   0  0  0  0  0  0  0  0  0  0  0  0
   -4.2305   -2.8759   -0.5241 H   0  0  0  0  0  0  0  0  0  0  0  0
   -6.7457    1.8408    1.1261 H   0  0  0  0  0  0  0  0  0  0  0  0
   -5.3275    1.8167    0.0921 H   0  0  0  0  0  0  0  0  0  0  0  0
   -4.6185    2.2537    2.4003 H   0  0  0  0  0  0  0  0  0  0  0  0
   -3.9978    0.6997    1.8617 H   0  0  0  0  0  0  0  0  0  0  0  0
   -4.8100    0.1203    3.9491 H   0  0  0  0  0  0  0  0  0  0  0  0
   -6.1189    1.2891    3.9180 H   0  0  0  0  0  0  0  0  0  0  0  0
   -6.6156   -1.3190    3.6421 H   0  0  0  0  0  0  0  0  0  0  0  0
   -7.5781   -0.1033    2.8108 H   0  0  0  0  0  0  0  0  0  0  0  0
   -5.1973   -1.5846    1.5886 H   0  0  0  0  0  0  0  0  0  0  0  0
   -6.9140   -1.9192    1.2770 H   0  0  0  0  0  0  0  0  0  0  0  0
   -3.6934    1.2227   -1.7661 H   0  0  0  0  0  0  0  0  0  0  0  0
   -1.2613    0.8999   -1.7745 H   0  0  0  0  0  0  0  0  0  0  0  0
    3.6677   -2.3286   -2.7316 H   0  0  0  0  0  0  0  0  0  0  0  0
    1.9397   -2.1623   -3.1787 H   0  0  0  0  0  0  0  0  0  0  0  0
    5.4027    1.4936   -2.4791 H   0  0  0  0  0  0  0  0  0  0  0  0
    7.7799    1.6508   -1.8746 H   0  0  0  0  0  0  0  0  0  0  0  0
  1  2  1  0
  2  3  2  0
  3  4  1  0
  4  5  2  0
  5  6  1  0
  6  7  1  0
  7  8  1  0
  8  9  1  0
  9 10  1  0
 10 11  2  0
 10 12  1  0
 12 13  1  0
 13 14  2  0
 14 15  1  0
 15 16  2  0
 16 17  1  0
 17 18  2  0
 17 19  2  0
 17 20  1  0
 20 21  1  0
 21 22  1  0
 22 23  1  0
 23 24  1  0
 24 25  1  0
 16 26  1  0
 26 27  2  0
  9 28  1  0
 28 29  1  0
 29 30  2  0
  5 31  1  0
 31 32  2  0
 32  2  1  0
 29  7  1  0
 27 13  1  0
 25 20  1  0
  1 33  1  0
  1 34  1  0
  1 35  1  0
  3 36  1  0
  4 37  1  0
  6 38  1  0
  6 39  1  0
  8 40  1  0
  8 41  1  0
  9 42  1  0
 12 43  1  0
 14 44  1  0
 15 45  1  0
 21 46  1  0
 21 47  1  0
 22 48  1  0
 22 49  1  0
 23 50  1  0
 23 51  1  0
 24 52  1  0
 24 53  1  0
 25 54  1  0
 25 55  1  0
 26 56  1  0
 27 57  1  0
 28 58  1  0
 28 59  1  0
 31 60  1  0
 32 61  1  0
M  END
$$$$
