
     RDKit          3D

 40 42  0  0  0  0  0  0  0  0999 V2000
   -4.0305   -1.1783    0.5845 C   0  0  0  0  0  0  0  0  0  0  0  0
   -2.7445   -0.8295   -0.1681 C   0  0  0  0  0  0  0  0  0  0  0  0
   -3.0079   -0.8477   -1.6751 C   0  0  0  0  0  0  0  0  0  0  0  0
   -2.2153    0.5338    0.3145 C   0  0  0  0  0  0  0  0  0  0  0  0
   -0.8884    0.8624   -0.1668 N   0  0  0  0  0  0  0  0  0  0  0  0
    0.3110    0.4195    0.3240 C   0  0  0  0  0  0  0  0  0  0  0  0
    0.4784   -0.6195    1.6943 S   0  0  0  0  0  0  0  0  0  0  0  0
    2.2843   -0.8274    1.7094 C   0  0  0  0  0  0  0  0  0  0  0  0
    2.7663   -1.7274    2.8434 C   0  0  0  0  0  0  0  0  0  0  0  0
    1.9896   -2.2328    3.6543 O   0  0  0  0  0  0  0  0  0  0  0  0
    4.2150   -1.9419    2.8962 C   0  0  0  0  0  0  0  0  0  0  0  0
    5.2192   -1.4520    2.0745 C   0  0  0  0  0  0  0  0  0  0  0  0
    6.5174   -1.9013    2.4683 C   0  0  0  0  0  0  0  0  0  0  0  0
    6.4460   -2.7104    3.5707 C   0  0  0  0  0  0  0  0  0  0  0  0
    7.7625   -3.4630    4.3749 Cl  0  0  0  0  0  0  0  0  0  0  0  0
    4.8714   -2.9417    4.1351 S   0  0  0  0  0  0  0  0  0  0  0  0
    1.2965    0.8984   -0.3975 N   0  0  0  0  0  0  0  0  0  0  0  0
    0.7461    1.6836   -1.3812 N   0  0  0  0  0  0  0  0  0  0  0  0
   -0.5624    1.6831   -1.2215 C   0  0  0  0  0  0  0  0  0  0  0  0
   -1.4708    2.4090   -2.0488 C   0  0  0  0  0  0  0  0  0  0  0  0
   -2.3307    3.4394   -1.7027 C   0  0  0  0  0  0  0  0  0  0  0  0
   -3.0190    3.8241   -2.8791 C   0  0  0  0  0  0  0  0  0  0  0  0
   -2.5382    3.0154   -3.8790 C   0  0  0  0  0  0  0  0  0  0  0  0
   -1.6059    2.1608   -3.3900 O   0  0  0  0  0  0  0  0  0  0  0  0
   -4.8140   -0.4360    0.3982 H   0  0  0  0  0  0  0  0  0  0  0  0
   -4.4101   -2.1578    0.2744 H   0  0  0  0  0  0  0  0  0  0  0  0
   -3.8504   -1.2185    1.6640 H   0  0  0  0  0  0  0  0  0  0  0  0
   -2.0064   -1.6102    0.0518 H   0  0  0  0  0  0  0  0  0  0  0  0
   -3.7090   -0.0584   -1.9666 H   0  0  0  0  0  0  0  0  0  0  0  0
   -2.0815   -0.7109   -2.2410 H   0  0  0  0  0  0  0  0  0  0  0  0
   -3.4363   -1.8081   -1.9819 H   0  0  0  0  0  0  0  0  0  0  0  0
   -2.9032    1.3337    0.0232 H   0  0  0  0  0  0  0  0  0  0  0  0
   -2.1745    0.5651    1.4100 H   0  0  0  0  0  0  0  0  0  0  0  0
    2.7494    0.1569    1.8283 H   0  0  0  0  0  0  0  0  0  0  0  0
    2.5915   -1.2742    0.7579 H   0  0  0  0  0  0  0  0  0  0  0  0
    5.0507   -0.7998    1.2247 H   0  0  0  0  0  0  0  0  0  0  0  0
    7.4418   -1.6409    1.9675 H   0  0  0  0  0  0  0  0  0  0  0  0
   -2.4363    3.8715   -0.7170 H   0  0  0  0  0  0  0  0  0  0  0  0
   -3.7619    4.6017   -2.9879 H   0  0  0  0  0  0  0  0  0  0  0  0
   -2.7403    2.9292   -4.9378 H   0  0  0  0  0  0  0  0  0  0  0  0
  1  2  1  0
  2  3  1  0
  2  4  1  0
  4  5  1  0
  5  6  1  0
  6  7  1  0
  7  8  1  0
  8  9  1  0
  9 10  2  0
  9 11  1  0
 11 12  2  0
 12 13  1  0
 13 14  2  0
 14 15  1  0
 14 16  1  0
  6 17  2  0
 17 18  1  0
 18 19  2  0
 19 20  1  0
 20 21  2  0
 21 22  1  0
 22 23  2  0
 23 24  1  0
 19  5  1  0
 24 20  1  0
 16 11  1  0
  1 25  1  0
  1 26  1  0
  1 27  1  0
  2 28  1  0
  3 29  1  0
  3 30  1  0
  3 31  1  0
  4 32  1  0
  4 33  1  0
  8 34  1  0
  8 35  1  0
 12 36  1  0
 13 37  1  0
 21 38  1  0
 22 39  1  0
 23 40  1  0
M  END
$$$$
