
     RDKit          3D

 34 36  0  0  0  0  0  0  0  0999 V2000
   -2.2815   -2.9778   -2.4584 O   0  0  0  0  0  0  0  0  0  0  0  0
   -2.1006   -1.9937   -1.7519 C   0  0  0  0  0  0  0  0  0  0  0  0
   -3.1738   -1.2221   -1.3201 O   0  0  0  0  0  0  0  0  0  0  0  0
   -2.9845   -0.0875   -0.5073 C   0  0  0  0  0  0  0  0  0  0  0  0
   -4.1420    0.6019   -0.1414 C   0  0  0  0  0  0  0  0  0  0  0  0
   -4.0358    1.7331    0.6606 C   0  0  0  0  0  0  0  0  0  0  0  0
   -2.7803    2.1614    1.0866 C   0  0  0  0  0  0  0  0  0  0  0  0
   -1.6288    1.4586    0.7107 C   0  0  0  0  0  0  0  0  0  0  0  0
   -1.7101    0.3154   -0.0973 C   0  0  0  0  0  0  0  0  0  0  0  0
   -0.5294   -0.4694   -0.5276 C   0  0  0  0  0  0  0  0  0  0  0  0
    0.7379   -0.0518   -0.1081 N   0  0  0  0  0  0  0  0  0  0  0  0
    1.4774    1.0036   -0.8166 C   0  0  0  0  0  0  0  0  0  0  0  0
    2.9412    0.5983   -0.9711 C   0  0  0  0  0  0  0  0  0  0  0  0
    3.5621    0.2340    0.3757 C   0  0  0  0  0  0  0  0  0  0  0  0
    2.7349   -0.8380    1.0816 C   0  0  0  0  0  0  0  0  0  0  0  0
    1.2736   -0.4160    1.2122 C   0  0  0  0  0  0  0  0  0  0  0  0
   -0.7925   -1.5373   -1.3011 C   0  0  0  0  0  0  0  0  0  0  0  0
    0.3157   -2.3230   -1.7394 N   0  0  0  0  0  4  0  0  0  0  0  0
    0.6644   -3.2641   -1.0112 O   0  0  0  0  0  0  0  0  0  0  0  0
    0.8456   -2.0032   -2.8138 O   0  0  0  0  0  1  0  0  0  0  0  0
   -5.1164    0.2592   -0.4791 H   0  0  0  0  0  0  0  0  0  0  0  0
   -4.9283    2.2805    0.9538 H   0  0  0  0  0  0  0  0  0  0  0  0
   -2.6935    3.0458    1.7140 H   0  0  0  0  0  0  0  0  0  0  0  0
   -0.6687    1.8246    1.0633 H   0  0  0  0  0  0  0  0  0  0  0  0
    1.4032    1.9437   -0.2574 H   0  0  0  0  0  0  0  0  0  0  0  0
    1.0462    1.1794   -1.8095 H   0  0  0  0  0  0  0  0  0  0  0  0
    3.0140   -0.2640   -1.6454 H   0  0  0  0  0  0  0  0  0  0  0  0
    3.5060    1.4161   -1.4319 H   0  0  0  0  0  0  0  0  0  0  0  0
    3.6203    1.1287    1.0075 H   0  0  0  0  0  0  0  0  0  0  0  0
    4.5869   -0.1242    0.2280 H   0  0  0  0  0  0  0  0  0  0  0  0
    2.7973   -1.7733    0.5118 H   0  0  0  0  0  0  0  0  0  0  0  0
    3.1538   -1.0372    2.0742 H   0  0  0  0  0  0  0  0  0  0  0  0
    0.6987   -1.2410    1.6497 H   0  0  0  0  0  0  0  0  0  0  0  0
    1.1872    0.4391    1.8930 H   0  0  0  0  0  0  0  0  0  0  0  0
  1  2  2  0
  2  3  1  0
  3  4  1  0
  4  5  2  0
  5  6  1  0
  6  7  2  0
  7  8  1  0
  8  9  2  0
  9 10  1  0
 10 11  1  0
 11 12  1  0
 12 13  1  0
 13 14  1  0
 14 15  1  0
 15 16  1  0
 10 17  2  0
 17 18  1  0
 18 19  2  0
 18 20  1  0
 17  2  1  0
  9  4  1  0
 16 11  1  0
  5 21  1  0
  6 22  1  0
  7 23  1  0
  8 24  1  0
 12 25  1  0
 12 26  1  0
 13 27  1  0
 13 28  1  0
 14 29  1  0
 14 30  1  0
 15 31  1  0
 15 32  1  0
 16 33  1  0
 16 34  1  0
M  CHG  2  18   1  20  -1
M  END
$$$$
