
     RDKit          3D

 64 68  0  0  0  0  0  0  0  0999 V2000
   -3.7940   -4.0080   -4.2499 C   0  0  0  0  0  0  0  0  0  0  0  0
   -2.5277   -3.2069   -3.9135 C   0  0  0  0  0  0  0  0  0  0  0  0
   -1.6026   -4.0533   -3.0258 C   0  0  0  0  0  0  0  0  0  0  0  0
   -1.7753   -2.8862   -5.2190 C   0  0  0  0  0  0  0  0  0  0  0  0
   -2.9568   -1.8662   -3.2763 C   0  0  0  0  0  0  0  0  0  0  0  0
   -3.4165   -0.9432   -3.9544 O   0  0  0  0  0  0  0  0  0  0  0  0
   -2.8782   -1.6741   -1.7988 C   0  0  0  0  0  0  0  0  0  0  0  0
   -3.8144   -2.4350   -1.0505 C   0  0  0  0  0  0  0  0  0  0  0  0
   -4.5573   -3.1160   -0.4760 N   0  0  0  0  0  0  0  0  0  0  0  0
   -1.9284   -0.8634   -1.2791 C   0  0  0  0  0  0  0  0  0  0  0  0
   -0.6291   -0.2390   -2.2796 S   0  0  0  0  0  0  0  0  0  0  0  0
    0.2936    0.2460   -0.9051 C   0  0  0  0  0  0  0  0  0  0  0  0
    1.5320    0.7504   -1.0296 C   0  0  0  0  0  0  0  0  0  0  0  0
    2.3636    1.2568    0.0083 C   0  0  0  0  0  0  0  0  0  0  0  0
    3.5509    0.6867    0.3983 C   0  0  0  0  0  0  0  0  0  0  0  0
    4.0348    1.4508    1.4380 N   0  0  0  0  0  0  0  0  0  0  0  0
    5.2162    1.2380    2.2051 C   0  0  0  0  0  0  0  0  0  0  0  0
    6.0428    0.1277    1.9804 C   0  0  0  0  0  0  0  0  0  0  0  0
    7.1928   -0.0565    2.7545 C   0  0  0  0  0  0  0  0  0  0  0  0
    7.5263    0.8613    3.7497 C   0  0  0  0  0  0  0  0  0  0  0  0
    6.7094    1.9658    3.9788 C   0  0  0  0  0  0  0  0  0  0  0  0
    5.5579    2.1555    3.2116 C   0  0  0  0  0  0  0  0  0  0  0  0
    3.2315    2.5165    1.6838 N   0  0  0  0  0  0  0  0  0  0  0  0
    2.2059    2.4076    0.8271 C   0  0  0  0  0  0  0  0  0  0  0  0
    1.1384    3.4009    0.8170 C   0  0  0  0  0  0  0  0  0  0  0  0
    0.6275    3.9286   -0.3725 C   0  0  0  0  0  0  0  0  0  0  0  0
   -0.4027    4.8670   -0.3281 C   0  0  0  0  0  0  0  0  0  0  0  0
   -0.8877    5.2545    0.9108 C   0  0  0  0  0  0  0  0  0  0  0  0
   -0.4179    4.7756    2.0817 N   0  0  0  0  0  0  0  0  0  0  0  0
    0.5856    3.8623    2.0073 C   0  0  0  0  0  0  0  0  0  0  0  0
   -0.4685    0.0394    0.3595 C   0  0  0  0  0  0  0  0  0  0  0  0
   -0.0355    0.3463    1.4611 O   0  0  0  0  0  0  0  0  0  0  0  0
   -1.7245   -0.5288    0.0643 N   0  0  0  0  0  0  0  0  0  0  0  0
   -2.7059   -0.5626    1.1061 C   0  0  0  0  0  0  0  0  0  0  0  0
   -4.0040   -0.0701    0.8789 C   0  0  0  0  0  0  0  0  0  0  0  0
   -4.9619   -0.0959    1.8955 C   0  0  0  0  0  0  0  0  0  0  0  0
   -4.6228   -0.5999    3.1439 C   0  0  0  0  0  0  0  0  0  0  0  0
   -5.5413   -0.6293    4.1165 F   0  0  0  0  0  0  0  0  0  0  0  0
   -3.3403   -1.0665    3.3990 C   0  0  0  0  0  0  0  0  0  0  0  0
   -2.3804   -1.0400    2.3847 C   0  0  0  0  0  0  0  0  0  0  0  0
   -4.4703   -3.4326   -4.8927 H   0  0  0  0  0  0  0  0  0  0  0  0
   -3.5465   -4.9392   -4.7704 H   0  0  0  0  0  0  0  0  0  0  0  0
   -4.3551   -4.2704   -3.3461 H   0  0  0  0  0  0  0  0  0  0  0  0
   -0.7181   -3.4883   -2.7135 H   0  0  0  0  0  0  0  0  0  0  0  0
   -1.2522   -4.9455   -3.5586 H   0  0  0  0  0  0  0  0  0  0  0  0
   -2.1093   -4.4045   -2.1210 H   0  0  0  0  0  0  0  0  0  0  0  0
   -0.8912   -2.2696   -5.0218 H   0  0  0  0  0  0  0  0  0  0  0  0
   -2.4078   -2.3332   -5.9221 H   0  0  0  0  0  0  0  0  0  0  0  0
   -1.4437   -3.7996   -5.7263 H   0  0  0  0  0  0  0  0  0  0  0  0
    1.9700    0.8014   -2.0265 H   0  0  0  0  0  0  0  0  0  0  0  0
    4.0645   -0.1935    0.0453 H   0  0  0  0  0  0  0  0  0  0  0  0
    5.8232   -0.6142    1.2201 H   0  0  0  0  0  0  0  0  0  0  0  0
    7.8309   -0.9199    2.5817 H   0  0  0  0  0  0  0  0  0  0  0  0
    8.4212    0.7146    4.3489 H   0  0  0  0  0  0  0  0  0  0  0  0
    6.9652    2.6816    4.7566 H   0  0  0  0  0  0  0  0  0  0  0  0
    4.9340    3.0253    3.4118 H   0  0  0  0  0  0  0  0  0  0  0  0
    1.0343    3.6332   -1.3348 H   0  0  0  0  0  0  0  0  0  0  0  0
   -0.8117    5.2909   -1.2382 H   0  0  0  0  0  0  0  0  0  0  0  0
   -1.6870    5.9853    0.9979 H   0  0  0  0  0  0  0  0  0  0  0  0
    0.9381    3.4920    2.9675 H   0  0  0  0  0  0  0  0  0  0  0  0
   -4.2821    0.3681   -0.0764 H   0  0  0  0  0  0  0  0  0  0  0  0
   -5.9661    0.2801    1.7240 H   0  0  0  0  0  0  0  0  0  0  0  0
   -3.0933   -1.4452    4.3850 H   0  0  0  0  0  0  0  0  0  0  0  0
   -1.3826   -1.4135    2.6058 H   0  0  0  0  0  0  0  0  0  0  0  0
  1  2  1  0
  2  3  1  0
  2  4  1  0
  2  5  1  0
  5  6  2  0
  5  7  1  0
  7  8  1  0
  8  9  3  0
  7 10  2  3
 10 11  1  0
 11 12  1  0
 12 13  2  3
 13 14  1  0
 14 15  2  0
 15 16  1  0
 16 17  1  0
 17 18  2  0
 18 19  1  0
 19 20  2  0
 20 21  1  0
 21 22  2  0
 16 23  1  0
 23 24  2  0
 24 25  1  0
 25 26  2  0
 26 27  1  0
 27 28  2  0
 28 29  1  0
 29 30  2  0
 12 31  1  0
 31 32  2  0
 31 33  1  0
 33 34  1  0
 34 35  2  0
 35 36  1  0
 36 37  2  0
 37 38  1  0
 37 39  1  0
 39 40  2  0
 33 10  1  0
 40 34  1  0
 24 14  1  0
 30 25  1  0
 22 17  1  0
  1 41  1  0
  1 42  1  0
  1 43  1  0
  3 44  1  0
  3 45  1  0
  3 46  1  0
  4 47  1  0
  4 48  1  0
  4 49  1  0
 13 50  1  0
 15 51  1  0
 18 52  1  0
 19 53  1  0
 20 54  1  0
 21 55  1  0
 22 56  1  0
 26 57  1  0
 27 58  1  0
 28 59  1  0
 30 60  1  0
 35 61  1  0
 36 62  1  0
 39 63  1  0
 40 64  1  0
M  END
$$$$
