
     RDKit          3D

 45 47  0  0  0  0  0  0  0  0999 V2000
    9.2419    1.0448    2.5544 N   0  0  0  0  0  0  0  0  0  0  0  0
    8.3244    0.8518    1.8702 C   0  0  0  0  0  0  0  0  0  0  0  0
    7.1892    0.6222    1.0254 C   0  0  0  0  0  0  0  0  0  0  0  0
    5.8964    0.6692    1.5560 C   0  0  0  0  0  0  0  0  0  0  0  0
    4.7850    0.4466    0.7335 C   0  0  0  0  0  0  0  0  0  0  0  0
    4.9598    0.1812   -0.6249 C   0  0  0  0  0  0  0  0  0  0  0  0
    3.9684   -0.0609   -1.5331 O   0  0  0  0  0  0  0  0  0  0  0  0
    2.6364    0.2841   -1.1809 C   0  0  0  0  0  0  0  0  0  0  0  0
    1.8494   -0.7727   -0.3847 C   0  0  0  0  0  0  0  0  0  0  0  0
    2.3976   -1.7717    0.0835 O   0  0  0  0  0  0  0  0  0  0  0  0
    0.4894   -0.5429   -0.2056 N   0  0  0  0  0  0  0  0  0  0  0  0
   -0.3087   -1.5723    0.4729 C   0  0  0  0  0  0  0  0  0  0  0  0
   -1.7976   -1.5223    0.0933 C   0  0  0  0  0  0  0  0  0  0  0  0
   -2.3597   -0.1910    0.3753 N   0  0  0  0  0  0  0  0  0  0  0  0
   -3.7324   -0.0617    0.1968 C   0  0  0  0  0  0  0  0  0  0  0  0
   -4.4070    1.0903    0.6024 C   0  0  0  0  0  0  0  0  0  0  0  0
   -5.7890    1.1943    0.4306 C   0  0  0  0  0  0  0  0  0  0  0  0
   -6.4918    0.1396   -0.1460 C   0  0  0  0  0  0  0  0  0  0  0  0
   -7.9741    0.1652   -0.3400 C   0  0  0  0  0  0  0  0  0  0  0  0
   -8.6428   -0.4397    0.6792 F   0  0  0  0  0  0  0  0  0  0  0  0
   -8.4812    1.4271   -0.4225 F   0  0  0  0  0  0  0  0  0  0  0  0
   -8.3733   -0.4685   -1.4775 F   0  0  0  0  0  0  0  0  0  0  0  0
   -5.7604   -0.9786   -0.5016 C   0  0  0  0  0  0  0  0  0  0  0  0
   -4.4202   -1.0930   -0.3408 N   0  0  0  0  0  0  0  0  0  0  0  0
   -1.4965    0.9705    0.1144 C   0  0  0  0  0  0  0  0  0  0  0  0
   -0.2538    0.6103   -0.7261 C   0  0  0  0  0  0  0  0  0  0  0  0
    6.2548    0.1224   -1.1484 C   0  0  0  0  0  0  0  0  0  0  0  0
    7.3668    0.3455   -0.3319 C   0  0  0  0  0  0  0  0  0  0  0  0
    5.7425    0.8670    2.6154 H   0  0  0  0  0  0  0  0  0  0  0  0
    3.8023    0.4600    1.1932 H   0  0  0  0  0  0  0  0  0  0  0  0
    2.6084    1.2462   -0.6556 H   0  0  0  0  0  0  0  0  0  0  0  0
    2.1101    0.4234   -2.1323 H   0  0  0  0  0  0  0  0  0  0  0  0
   -0.1894   -1.4003    1.5496 H   0  0  0  0  0  0  0  0  0  0  0  0
    0.0964   -2.5651    0.2480 H   0  0  0  0  0  0  0  0  0  0  0  0
   -1.9055   -1.7580   -0.9737 H   0  0  0  0  0  0  0  0  0  0  0  0
   -2.3243   -2.2911    0.6720 H   0  0  0  0  0  0  0  0  0  0  0  0
   -3.8730    1.9044    1.0812 H   0  0  0  0  0  0  0  0  0  0  0  0
   -6.3062    2.0941    0.7572 H   0  0  0  0  0  0  0  0  0  0  0  0
   -6.2366   -1.8525   -0.9417 H   0  0  0  0  0  0  0  0  0  0  0  0
   -1.1701    1.3706    1.0820 H   0  0  0  0  0  0  0  0  0  0  0  0
   -2.0276    1.7727   -0.4122 H   0  0  0  0  0  0  0  0  0  0  0  0
    0.3988    1.4846   -0.7942 H   0  0  0  0  0  0  0  0  0  0  0  0
   -0.5594    0.3480   -1.7464 H   0  0  0  0  0  0  0  0  0  0  0  0
    6.3982   -0.1008   -2.2035 H   0  0  0  0  0  0  0  0  0  0  0  0
    8.3645    0.2959   -0.7632 H   0  0  0  0  0  0  0  0  0  0  0  0
  1  2  3  0
  2  3  1  0
  3  4  2  0
  4  5  1  0
  5  6  2  0
  6  7  1  0
  7  8  1  0
  8  9  1  0
  9 10  2  0
  9 11  1  0
 11 12  1  0
 12 13  1  0
 13 14  1  0
 14 15  1  0
 15 16  2  0
 16 17  1  0
 17 18  2  0
 18 19  1  0
 19 20  1  0
 19 21  1  0
 19 22  1  0
 18 23  1  0
 23 24  2  0
 14 25  1  0
 25 26  1  0
  6 27  1  0
 27 28  2  0
 28  3  1  0
 26 11  1  0
 24 15  1  0
  4 29  1  0
  5 30  1  0
  8 31  1  0
  8 32  1  0
 12 33  1  0
 12 34  1  0
 13 35  1  0
 13 36  1  0
 16 37  1  0
 17 38  1  0
 23 39  1  0
 25 40  1  0
 25 41  1  0
 26 42  1  0
 26 43  1  0
 27 44  1  0
 28 45  1  0
M  END
$$$$
