
     RDKit          3D

 33 34  0  0  0  0  0  0  0  0999 V2000
   -4.7318    1.4216    2.6311 C   0  0  0  0  0  0  0  0  0  0  0  0
   -4.4237    0.9457    1.3261 O   0  0  0  0  0  0  0  0  0  0  0  0
   -3.1506    0.4897    1.1169 C   0  0  0  0  0  0  0  0  0  0  0  0
   -2.1350    0.4382    2.0688 C   0  0  0  0  0  0  0  0  0  0  0  0
   -0.8764   -0.0502    1.7142 C   0  0  0  0  0  0  0  0  0  0  0  0
   -0.6263   -0.4812    0.4039 C   0  0  0  0  0  0  0  0  0  0  0  0
    0.7424   -0.9766    0.1082 C   0  0  0  0  0  0  0  0  0  0  0  0
    1.2869   -1.7110    0.9327 O   0  0  0  0  0  0  0  0  0  0  0  0
    1.4037   -0.5425   -1.1825 C   0  0  0  0  0  0  0  0  0  0  0  0
    2.7894   -0.0831   -0.8903 C   0  0  0  0  0  0  0  0  0  0  0  0
    3.1097    1.1537   -0.5666 N   0  0  0  0  0  0  0  0  0  0  0  0
    4.4651    1.3050   -0.3597 N   0  0  0  0  0  0  0  0  0  0  0  0
    5.1237    0.1799   -0.5400 C   0  0  0  0  0  0  0  0  0  0  0  0
    6.5897    0.0171   -0.3808 C   0  0  0  0  0  0  0  0  0  0  0  0
    4.1355   -1.1471   -1.0007 S   0  0  0  0  0  0  0  0  0  0  0  0
   -1.6472   -0.4579   -0.5580 C   0  0  0  0  0  0  0  0  0  0  0  0
   -1.3464   -0.9520   -1.7997 O   0  0  0  0  0  0  0  0  0  0  0  0
   -2.3965   -1.0043   -2.7597 C   0  0  0  0  0  0  0  0  0  0  0  0
   -2.9025    0.0396   -0.1877 C   0  0  0  0  0  0  0  0  0  0  0  0
   -4.6371    0.6231    3.3743 H   0  0  0  0  0  0  0  0  0  0  0  0
   -4.1099    2.2837    2.8939 H   0  0  0  0  0  0  0  0  0  0  0  0
   -5.7750    1.7520    2.6284 H   0  0  0  0  0  0  0  0  0  0  0  0
   -2.2854    0.7671    3.0918 H   0  0  0  0  0  0  0  0  0  0  0  0
   -0.0854   -0.0906    2.4618 H   0  0  0  0  0  0  0  0  0  0  0  0
    0.8614    0.2947   -1.6347 H   0  0  0  0  0  0  0  0  0  0  0  0
    1.3868   -1.3802   -1.8874 H   0  0  0  0  0  0  0  0  0  0  0  0
    7.0511   -0.2998   -1.3215 H   0  0  0  0  0  0  0  0  0  0  0  0
    6.8180   -0.7255    0.3903 H   0  0  0  0  0  0  0  0  0  0  0  0
    7.0503    0.9642   -0.0824 H   0  0  0  0  0  0  0  0  0  0  0  0
   -2.7529    0.0008   -3.0076 H   0  0  0  0  0  0  0  0  0  0  0  0
   -3.2156   -1.6443   -2.4155 H   0  0  0  0  0  0  0  0  0  0  0  0
   -1.9897   -1.4474   -3.6737 H   0  0  0  0  0  0  0  0  0  0  0  0
   -3.7262    0.0879   -0.8935 H   0  0  0  0  0  0  0  0  0  0  0  0
  1  2  1  0
  2  3  1  0
  3  4  2  0
  4  5  1  0
  5  6  2  0
  6  7  1  0
  7  8  2  0
  7  9  1  0
  9 10  1  0
 10 11  2  0
 11 12  1  0
 12 13  2  0
 13 14  1  0
 13 15  1  0
  6 16  1  0
 16 17  1  0
 17 18  1  0
 16 19  2  0
 19  3  1  0
 15 10  1  0
  1 20  1  0
  1 21  1  0
  1 22  1  0
  4 23  1  0
  5 24  1  0
  9 25  1  0
  9 26  1  0
 14 27  1  0
 14 28  1  0
 14 29  1  0
 18 30  1  0
 18 31  1  0
 18 32  1  0
 19 33  1  0
M  END
$$$$
