
     RDKit          3D

 47 50  0  0  0  0  0  0  0  0999 V2000
   -2.0710   -2.1167   -1.1401 O   0  0  0  0  0  0  0  0  0  0  0  0
   -2.5379   -1.0011   -1.0098 C   0  0  0  0  0  0  0  0  0  0  0  0
   -3.9544   -0.7404   -0.7596 C   0  0  0  0  0  0  0  0  0  0  0  0
   -5.0031   -1.6138   -0.5471 C   0  0  0  0  0  0  0  0  0  0  0  0
   -6.2704   -1.0546   -0.3528 C   0  0  0  0  0  0  0  0  0  0  0  0
   -6.4565    0.3437   -0.3807 C   0  0  0  0  0  0  0  0  0  0  0  0
   -5.3786    1.2067   -0.6040 C   0  0  0  0  0  0  0  0  0  0  0  0
   -4.1372    0.6300   -0.7866 C   0  0  0  0  0  0  0  0  0  0  0  0
   -2.8381    1.2392   -1.0612 C   0  0  0  0  0  0  0  0  0  0  0  0
   -2.6755    2.4239   -1.2842 O   0  0  0  0  0  0  0  0  0  0  0  0
   -1.9293    0.2181   -1.0937 N   0  0  0  0  0  0  0  0  0  0  0  0
   -0.5354    0.4287   -1.4060 C   0  0  0  0  0  0  0  0  0  0  0  0
    0.4003   -0.3160   -0.5613 N   0  0  0  0  0  0  0  0  0  0  0  0
    0.4185    0.0009    0.8001 C   0  0  0  0  0  0  0  0  0  0  0  0
   -0.4200    0.7626    1.2925 O   0  0  0  0  0  0  0  0  0  0  0  0
    1.5604   -0.5701    1.6632 C   0  0  0  0  0  0  0  0  0  0  0  0
    1.9005    0.2290    2.7902 O   0  0  0  0  0  0  0  0  0  0  0  0
    2.6596    1.3472    2.5801 C   0  0  0  0  0  0  0  0  0  0  0  0
    2.9212    2.0923    3.7336 C   0  0  0  0  0  0  0  0  0  0  0  0
    3.6872    3.2577    3.6727 C   0  0  0  0  0  0  0  0  0  0  0  0
    4.1989    3.6873    2.4514 C   0  0  0  0  0  0  0  0  0  0  0  0
    3.9426    2.9511    1.2959 C   0  0  0  0  0  0  0  0  0  0  0  0
    3.1747    1.7832    1.3581 C   0  0  0  0  0  0  0  0  0  0  0  0
    1.1796   -1.3376   -1.1697 C   0  0  0  0  0  0  0  0  0  0  0  0
    1.2437   -2.6212   -0.6085 C   0  0  0  0  0  0  0  0  0  0  0  0
    2.0051   -3.6236   -1.2146 C   0  0  0  0  0  0  0  0  0  0  0  0
    2.6976   -3.3453   -2.3854 C   0  0  0  0  0  0  0  0  0  0  0  0
    3.4283   -4.3054   -2.9661 F   0  0  0  0  0  0  0  0  0  0  0  0
    2.6361   -2.0854   -2.9667 C   0  0  0  0  0  0  0  0  0  0  0  0
    1.8715   -1.0832   -2.3639 C   0  0  0  0  0  0  0  0  0  0  0  0
   -4.8464   -2.6874   -0.5329 H   0  0  0  0  0  0  0  0  0  0  0  0
   -7.1261   -1.7051   -0.1791 H   0  0  0  0  0  0  0  0  0  0  0  0
   -7.4530    0.7548   -0.2279 H   0  0  0  0  0  0  0  0  0  0  0  0
   -5.5070    2.2838   -0.6325 H   0  0  0  0  0  0  0  0  0  0  0  0
   -0.2956    1.4946   -1.3088 H   0  0  0  0  0  0  0  0  0  0  0  0
   -0.4155    0.1566   -2.4602 H   0  0  0  0  0  0  0  0  0  0  0  0
    2.4589   -0.7995    1.0827 H   0  0  0  0  0  0  0  0  0  0  0  0
    1.1924   -1.5174    2.0724 H   0  0  0  0  0  0  0  0  0  0  0  0
    2.5191    1.7629    4.6887 H   0  0  0  0  0  0  0  0  0  0  0  0
    3.8791    3.8284    4.5773 H   0  0  0  0  0  0  0  0  0  0  0  0
    4.7936    4.5955    2.3992 H   0  0  0  0  0  0  0  0  0  0  0  0
    4.3399    3.2882    0.3418 H   0  0  0  0  0  0  0  0  0  0  0  0
    3.0028    1.2463    0.4327 H   0  0  0  0  0  0  0  0  0  0  0  0
    0.6549   -2.8772    0.2691 H   0  0  0  0  0  0  0  0  0  0  0  0
    2.0445   -4.6223   -0.7907 H   0  0  0  0  0  0  0  0  0  0  0  0
    3.1842   -1.8914   -3.8836 H   0  0  0  0  0  0  0  0  0  0  0  0
    1.8556   -0.0982   -2.8240 H   0  0  0  0  0  0  0  0  0  0  0  0
  1  2  2  0
  2  3  1  0
  3  4  2  0
  4  5  1  0
  5  6  2  0
  6  7  1  0
  7  8  2  0
  8  9  1  0
  9 10  2  0
  9 11  1  0
 11 12  1  0
 12 13  1  0
 13 14  1  0
 14 15  2  0
 14 16  1  0
 16 17  1  0
 17 18  1  0
 18 19  2  0
 19 20  1  0
 20 21  2  0
 21 22  1  0
 22 23  2  0
 13 24  1  0
 24 25  2  0
 25 26  1  0
 26 27  2  0
 27 28  1  0
 27 29  1  0
 29 30  2  0
 11  2  1  0
 23 18  1  0
 30 24  1  0
  8  3  1  0
  4 31  1  0
  5 32  1  0
  6 33  1  0
  7 34  1  0
 12 35  1  0
 12 36  1  0
 16 37  1  0
 16 38  1  0
 19 39  1  0
 20 40  1  0
 21 41  1  0
 22 42  1  0
 23 43  1  0
 25 44  1  0
 26 45  1  0
 29 46  1  0
 30 47  1  0
M  END
$$$$
