
     RDKit          3D

 44 47  0  0  0  0  0  0  0  0999 V2000
    7.8362   -2.0663   -1.5097 C   0  0  0  0  0  0  0  0  0  0  0  0
    7.1048   -1.3916   -0.4973 O   0  0  0  0  0  0  0  0  0  0  0  0
    5.8146   -1.2059   -0.7537 C   0  0  0  0  0  0  0  0  0  0  0  0
    4.9452   -1.5071   -1.7779 C   0  0  0  0  0  0  0  0  0  0  0  0
    3.6797   -1.0015   -1.3861 C   0  0  0  0  0  0  0  0  0  0  0  0
    3.8466   -0.4195   -0.1399 C   0  0  0  0  0  0  0  0  0  0  0  0
    2.9435    0.2593    0.7714 C   0  0  0  0  0  0  0  0  0  0  0  0
    3.3017    0.8195    1.8046 O   0  0  0  0  0  0  0  0  0  0  0  0
    1.6117    0.2282    0.4015 N   0  0  0  0  0  0  0  0  0  0  0  0
    0.5816    0.7523    1.2730 C   0  0  0  0  0  0  0  0  0  0  0  0
    0.2561   -0.2481    2.4073 C   0  0  0  0  0  0  0  0  0  0  0  0
   -1.1313    0.0003    3.0224 C   0  0  0  0  0  0  0  0  0  0  0  0
   -2.2512   -0.1642    1.9755 C   0  0  0  0  0  0  0  0  0  0  0  0
   -1.9068    0.5994    0.7415 C   0  0  0  0  0  0  0  0  0  0  0  0
   -0.6261    1.0310    0.4412 C   0  0  0  0  0  0  0  0  0  0  0  0
   -0.7809    1.8358   -0.6912 C   0  0  0  0  0  0  0  0  0  0  0  0
   -2.0447    1.8935   -1.1021 N   0  0  0  0  0  0  0  0  0  0  0  0
   -2.7494    1.0866   -0.2492 N   0  0  0  0  0  0  0  0  0  0  0  0
   -4.1444    0.9159   -0.4811 C   0  0  0  0  0  0  0  0  0  0  0  0
   -4.8049    1.8419   -1.3134 C   0  0  0  0  0  0  0  0  0  0  0  0
   -6.1766    1.7344   -1.5638 C   0  0  0  0  0  0  0  0  0  0  0  0
   -6.9073    0.6935   -1.0001 C   0  0  0  0  0  0  0  0  0  0  0  0
   -6.2603   -0.2441   -0.1994 C   0  0  0  0  0  0  0  0  0  0  0  0
   -4.8895   -0.1354    0.0503 C   0  0  0  0  0  0  0  0  0  0  0  0
   -4.3309   -1.1286    0.7496 F   0  0  0  0  0  0  0  0  0  0  0  0
    5.1580   -0.5485    0.2362 O   0  0  0  0  0  0  0  0  0  0  0  0
    7.4455   -3.0774   -1.6679 H   0  0  0  0  0  0  0  0  0  0  0  0
    7.8232   -1.4995   -2.4470 H   0  0  0  0  0  0  0  0  0  0  0  0
    8.8756   -2.1519   -1.1792 H   0  0  0  0  0  0  0  0  0  0  0  0
    5.1880   -2.0224   -2.6955 H   0  0  0  0  0  0  0  0  0  0  0  0
    2.7634   -1.0517   -1.9566 H   0  0  0  0  0  0  0  0  0  0  0  0
    1.3240   -0.3893   -0.3427 H   0  0  0  0  0  0  0  0  0  0  0  0
    0.9297    1.6940    1.7162 H   0  0  0  0  0  0  0  0  0  0  0  0
    0.2889   -1.2774    2.0241 H   0  0  0  0  0  0  0  0  0  0  0  0
    1.0256   -0.1864    3.1861 H   0  0  0  0  0  0  0  0  0  0  0  0
   -1.1629    1.0128    3.4450 H   0  0  0  0  0  0  0  0  0  0  0  0
   -1.3019   -0.6988    3.8489 H   0  0  0  0  0  0  0  0  0  0  0  0
   -3.1936    0.1812    2.4119 H   0  0  0  0  0  0  0  0  0  0  0  0
   -2.3355   -1.2293    1.7337 H   0  0  0  0  0  0  0  0  0  0  0  0
   -0.0284    2.4014   -1.2265 H   0  0  0  0  0  0  0  0  0  0  0  0
   -4.2626    2.6721   -1.7651 H   0  0  0  0  0  0  0  0  0  0  0  0
   -6.6690    2.4661   -2.2002 H   0  0  0  0  0  0  0  0  0  0  0  0
   -7.9728    0.6045   -1.1956 H   0  0  0  0  0  0  0  0  0  0  0  0
   -6.8125   -1.0788    0.2229 H   0  0  0  0  0  0  0  0  0  0  0  0
  1  2  1  0
  2  3  1  0
  3  4  2  0
  4  5  1  0
  5  6  2  0
  6  7  1  0
  7  8  2  0
  7  9  1  0
  9 10  1  0
 10 11  1  0
 11 12  1  0
 12 13  1  0
 13 14  1  0
 14 15  2  0
 15 16  1  0
 16 17  2  0
 17 18  1  0
 18 19  1  0
 19 20  2  0
 20 21  1  0
 21 22  2  0
 22 23  1  0
 23 24  2  0
 24 25  1  0
  6 26  1  0
 26  3  1  0
 15 10  1  0
 24 19  1  0
 18 14  1  0
  1 27  1  0
  1 28  1  0
  1 29  1  0
  4 30  1  0
  5 31  1  0
  9 32  1  0
 10 33  1  0
 11 34  1  0
 11 35  1  0
 12 36  1  0
 12 37  1  0
 13 38  1  0
 13 39  1  0
 16 40  1  0
 20 41  1  0
 21 42  1  0
 22 43  1  0
 23 44  1  0
M  END
$$$$
