
     RDKit          3D

 34 36  0  0  0  0  0  0  0  0999 V2000
    4.6128   -0.4866    1.8735 C   0  0  0  0  0  0  0  0  0  0  0  0
    3.7914   -0.0478    0.7607 N   0  0  0  0  0  0  0  0  0  0  0  0
    2.3738   -0.3499    0.8318 C   0  0  0  0  0  0  0  0  0  0  0  0
    1.5734    0.2858   -0.2542 C   0  0  0  0  0  0  0  0  0  0  0  0
    0.1803    0.3975   -0.1994 C   0  0  0  0  0  0  0  0  0  0  0  0
   -0.5007    0.9360   -1.2925 C   0  0  0  0  0  0  0  0  0  0  0  0
   -1.9645    1.1153   -1.3134 C   0  0  0  0  0  0  0  0  0  0  0  0
   -2.4299    2.1398   -1.8104 O   0  0  0  0  0  0  0  0  0  0  0  0
   -2.8959    0.1186   -0.7286 C   0  0  0  0  0  0  0  0  0  0  0  0
   -2.5790   -1.2468   -0.6977 C   0  0  0  0  0  0  0  0  0  0  0  0
   -3.4712   -2.1600   -0.1289 C   0  0  0  0  0  0  0  0  0  0  0  0
   -4.6840   -1.7181    0.4000 C   0  0  0  0  0  0  0  0  0  0  0  0
   -5.0174   -0.3652    0.3477 C   0  0  0  0  0  0  0  0  0  0  0  0
   -4.1338    0.5449   -0.2268 C   0  0  0  0  0  0  0  0  0  0  0  0
   -4.5437    1.8507   -0.2694 O   0  0  0  0  0  0  0  0  0  0  0  0
    0.2432    1.3590   -2.3854 C   0  0  0  0  0  0  0  0  0  0  0  0
    1.5907    1.2389   -2.4690 N   0  0  0  0  0  0  0  0  0  0  0  0
    2.2218    0.7145   -1.3999 C   0  0  0  0  0  0  0  0  0  0  0  0
    3.5959    0.6049   -1.4696 N   0  0  0  0  0  0  0  0  0  0  0  0
    4.4080    0.2488   -0.4390 C   0  0  0  0  0  0  0  0  0  0  0  0
    5.6267    0.2331   -0.5982 O   0  0  0  0  0  0  0  0  0  0  0  0
    5.6272   -0.0842    1.8028 H   0  0  0  0  0  0  0  0  0  0  0  0
    4.6625   -1.5795    1.8643 H   0  0  0  0  0  0  0  0  0  0  0  0
    4.1639   -0.1451    2.8107 H   0  0  0  0  0  0  0  0  0  0  0  0
    2.2606   -1.4389    0.7756 H   0  0  0  0  0  0  0  0  0  0  0  0
    2.0085   -0.0047    1.8059 H   0  0  0  0  0  0  0  0  0  0  0  0
   -0.3546    0.0800    0.6919 H   0  0  0  0  0  0  0  0  0  0  0  0
   -1.6548   -1.6241   -1.1271 H   0  0  0  0  0  0  0  0  0  0  0  0
   -3.2262   -3.2196   -0.1056 H   0  0  0  0  0  0  0  0  0  0  0  0
   -5.3791   -2.4293    0.8405 H   0  0  0  0  0  0  0  0  0  0  0  0
   -5.9697   -0.0200    0.7422 H   0  0  0  0  0  0  0  0  0  0  0  0
   -3.9432    2.3340   -0.8807 H   0  0  0  0  0  0  0  0  0  0  0  0
   -0.2324    1.8118   -3.2525 H   0  0  0  0  0  0  0  0  0  0  0  0
    4.0393    0.9061   -2.3244 H   0  0  0  0  0  0  0  0  0  0  0  0
  1  2  1  0
  2  3  1  0
  3  4  1  0
  4  5  2  0
  5  6  1  0
  6  7  1  0
  7  8  2  0
  7  9  1  0
  9 10  2  0
 10 11  1  0
 11 12  2  0
 12 13  1  0
 13 14  2  0
 14 15  1  0
  6 16  2  0
 16 17  1  0
 17 18  2  0
 18 19  1  0
 19 20  1  0
 20 21  2  0
 20  2  1  0
 18  4  1  0
 14  9  1  0
  1 22  1  0
  1 23  1  0
  1 24  1  0
  3 25  1  0
  3 26  1  0
  5 27  1  0
 10 28  1  0
 11 29  1  0
 12 30  1  0
 13 31  1  0
 15 32  1  0
 16 33  1  0
 19 34  1  0
M  END
$$$$
