
     RDKit          3D

 42 46  0  0  0  0  0  0  0  0999 V2000
   -1.5095   -2.2228    2.3424 O   0  0  0  0  0  0  0  0  0  0  0  0
   -1.6995   -1.3321    1.5091 C   0  0  0  0  0  0  0  0  0  0  0  0
   -2.7062   -1.5881    0.4509 C   0  0  0  0  0  0  0  0  0  0  0  0
   -2.6873   -2.8326   -0.1899 C   0  0  0  0  0  0  0  0  0  0  0  0
   -3.6315   -3.1254   -1.1743 C   0  0  0  0  0  0  0  0  0  0  0  0
   -4.6023   -2.1819   -1.5101 C   0  0  0  0  0  0  0  0  0  0  0  0
   -4.6357   -0.9484   -0.8582 C   0  0  0  0  0  0  0  0  0  0  0  0
   -3.6927   -0.6509    0.1281 C   0  0  0  0  0  0  0  0  0  0  0  0
   -0.9434    0.0179    1.5240 C   0  0  0  0  0  0  0  0  0  0  0  0
   -1.2739    0.9428    0.4922 O   0  0  0  0  0  0  0  0  0  0  0  0
   -0.5418    2.1018    0.5319 C   0  0  0  0  0  0  0  0  0  0  0  0
   -1.0989    3.2092   -0.1061 C   0  0  0  0  0  0  0  0  0  0  0  0
   -0.4254    4.4295   -0.0957 C   0  0  0  0  0  0  0  0  0  0  0  0
    0.8059    4.5397    0.5486 C   0  0  0  0  0  0  0  0  0  0  0  0
    1.3744    3.4255    1.1691 C   0  0  0  0  0  0  0  0  0  0  0  0
    0.7149    2.1876    1.1474 C   0  0  0  0  0  0  0  0  0  0  0  0
    1.3242    0.9623    1.7871 C   0  0  0  0  0  0  0  0  0  0  0  0
    2.6808    0.5644    1.2223 C   0  0  0  0  0  0  0  0  0  0  0  0
    2.2619   -0.5655    0.3229 C   0  0  0  0  0  0  0  0  0  0  0  0
    3.1282   -1.1767   -0.6573 C   0  0  0  0  0  0  0  0  0  0  0  0
    2.8140   -2.1983   -1.5353 C   0  0  0  0  0  0  0  0  0  0  0  0
    3.9106   -2.5646   -2.3675 C   0  0  0  0  0  0  0  0  0  0  0  0
    5.0309   -1.8123   -2.0981 C   0  0  0  0  0  0  0  0  0  0  0  0
    4.7542   -0.6774   -0.8503 S   0  0  0  0  0  0  0  0  0  0  0  0
    1.0416   -0.9784    0.5065 N   0  0  0  0  0  0  0  0  0  0  0  0
    0.5000   -0.2072    1.5215 N   0  0  0  0  0  0  0  0  0  0  0  0
   -1.9342   -3.5713    0.0778 H   0  0  0  0  0  0  0  0  0  0  0  0
   -3.6113   -4.0899   -1.6752 H   0  0  0  0  0  0  0  0  0  0  0  0
   -5.3387   -2.4113   -2.2765 H   0  0  0  0  0  0  0  0  0  0  0  0
   -5.4010   -0.2203   -1.1155 H   0  0  0  0  0  0  0  0  0  0  0  0
   -3.7484    0.3058    0.6393 H   0  0  0  0  0  0  0  0  0  0  0  0
   -1.2123    0.4722    2.4892 H   0  0  0  0  0  0  0  0  0  0  0  0
   -2.0602    3.1228   -0.6050 H   0  0  0  0  0  0  0  0  0  0  0  0
   -0.8623    5.2947   -0.5877 H   0  0  0  0  0  0  0  0  0  0  0  0
    1.3270    5.4940    0.5612 H   0  0  0  0  0  0  0  0  0  0  0  0
    2.3385    3.5309    1.6617 H   0  0  0  0  0  0  0  0  0  0  0  0
    1.3652    1.1146    2.8719 H   0  0  0  0  0  0  0  0  0  0  0  0
    3.3314    0.1565    2.0036 H   0  0  0  0  0  0  0  0  0  0  0  0
    3.2013    1.3589    0.6835 H   0  0  0  0  0  0  0  0  0  0  0  0
    1.8336   -2.6606   -1.5729 H   0  0  0  0  0  0  0  0  0  0  0  0
    3.8773   -3.3405   -3.1225 H   0  0  0  0  0  0  0  0  0  0  0  0
    6.0005   -1.8749   -2.5730 H   0  0  0  0  0  0  0  0  0  0  0  0
  1  2  2  0
  2  3  1  0
  3  4  2  0
  4  5  1  0
  5  6  2  0
  6  7  1  0
  7  8  2  0
  2  9  1  0
  9 10  1  0
 10 11  1  0
 11 12  2  0
 12 13  1  0
 13 14  2  0
 14 15  1  0
 15 16  2  0
 16 17  1  0
 17 18  1  0
 18 19  1  0
 19 20  1  0
 20 21  2  0
 21 22  1  0
 22 23  2  0
 23 24  1  0
 19 25  2  0
 25 26  1  0
  8  3  1  0
 26  9  1  0
 16 11  1  0
 26 17  1  0
 24 20  1  0
  4 27  1  0
  5 28  1  0
  6 29  1  0
  7 30  1  0
  8 31  1  0
  9 32  1  0
 12 33  1  0
 13 34  1  0
 14 35  1  0
 15 36  1  0
 17 37  1  0
 18 38  1  0
 18 39  1  0
 21 40  1  0
 22 41  1  0
 23 42  1  0
M  END
$$$$
