
     RDKit          3D

 41 42  0  0  0  0  0  0  0  0999 V2000
   -6.5300   -0.1309   -1.9311 C   0  0  0  0  0  0  0  0  0  0  0  0
   -5.8755   -0.4002   -0.6998 O   0  0  0  0  0  0  0  0  0  0  0  0
   -4.5211   -0.1829   -0.6389 C   0  0  0  0  0  0  0  0  0  0  0  0
   -3.7510    0.3162   -1.6944 C   0  0  0  0  0  0  0  0  0  0  0  0
   -2.3751    0.5105   -1.5400 C   0  0  0  0  0  0  0  0  0  0  0  0
   -1.7473    0.2160   -0.3254 C   0  0  0  0  0  0  0  0  0  0  0  0
   -0.2644    0.4524   -0.1480 C   0  0  0  0  0  0  0  0  0  0  0  0
    0.5716   -0.8054   -0.0260 C   0  0  0  0  0  0  0  0  0  0  0  0
    0.1421   -1.9515   -0.0020 O   0  0  0  0  0  0  0  0  0  0  0  0
    1.8904   -0.4157    0.0679 O   0  0  0  0  0  0  0  0  0  0  0  0
    2.7243   -1.5382    0.2132 N   0  0  0  0  0  0  0  0  0  0  0  0
    3.9855   -1.2146    0.2580 C   0  0  0  0  0  0  0  0  0  0  0  0
    4.9084   -2.2222    0.3519 N   0  0  0  0  0  0  0  0  0  0  0  0
    4.4906    0.1813    0.2091 C   0  0  0  0  0  0  0  0  0  0  0  0
    5.2594    0.5991   -0.8807 C   0  0  0  0  0  0  0  0  0  0  0  0
    5.7482    1.9056   -0.9138 C   0  0  0  0  0  0  0  0  0  0  0  0
    5.4742    2.7811    0.1397 C   0  0  0  0  0  0  0  0  0  0  0  0
    4.7112    2.3557    1.2296 C   0  0  0  0  0  0  0  0  0  0  0  0
    4.2184    1.0515    1.2683 C   0  0  0  0  0  0  0  0  0  0  0  0
   -2.5193   -0.2889    0.7331 C   0  0  0  0  0  0  0  0  0  0  0  0
   -3.8963   -0.4993    0.5827 C   0  0  0  0  0  0  0  0  0  0  0  0
   -4.7127   -0.9831    1.5761 O   0  0  0  0  0  0  0  0  0  0  0  0
   -4.0798   -1.6382    2.6676 C   0  0  0  0  0  0  0  0  0  0  0  0
   -6.1396   -0.7649   -2.7340 H   0  0  0  0  0  0  0  0  0  0  0  0
   -6.4586    0.9299   -2.1925 H   0  0  0  0  0  0  0  0  0  0  0  0
   -7.5905   -0.3705   -1.8060 H   0  0  0  0  0  0  0  0  0  0  0  0
   -4.1915    0.5650   -2.6540 H   0  0  0  0  0  0  0  0  0  0  0  0
   -1.8027    0.8980   -2.3802 H   0  0  0  0  0  0  0  0  0  0  0  0
   -0.1157    1.0569    0.7553 H   0  0  0  0  0  0  0  0  0  0  0  0
    0.1180    1.0284   -0.9996 H   0  0  0  0  0  0  0  0  0  0  0  0
    5.8414   -2.0514   -0.0007 H   0  0  0  0  0  0  0  0  0  0  0  0
    4.5295   -3.1362    0.1250 H   0  0  0  0  0  0  0  0  0  0  0  0
    5.4640   -0.0783   -1.7051 H   0  0  0  0  0  0  0  0  0  0  0  0
    6.3402    2.2440   -1.7607 H   0  0  0  0  0  0  0  0  0  0  0  0
    5.8579    3.7987    0.1121 H   0  0  0  0  0  0  0  0  0  0  0  0
    4.5060    3.0393    2.0497 H   0  0  0  0  0  0  0  0  0  0  0  0
    3.6335    0.7117    2.1190 H   0  0  0  0  0  0  0  0  0  0  0  0
   -2.0227   -0.5142    1.6724 H   0  0  0  0  0  0  0  0  0  0  0  0
   -3.5600   -0.9166    3.3062 H   0  0  0  0  0  0  0  0  0  0  0  0
   -4.8604   -2.1121    3.2711 H   0  0  0  0  0  0  0  0  0  0  0  0
   -3.4003   -2.4263    2.3249 H   0  0  0  0  0  0  0  0  0  0  0  0
  1  2  1  0
  2  3  1  0
  3  4  2  0
  4  5  1  0
  5  6  2  0
  6  7  1  0
  7  8  1  0
  8  9  2  0
  8 10  1  0
 10 11  1  0
 11 12  2  3
 12 13  1  0
 12 14  1  0
 14 15  2  0
 15 16  1  0
 16 17  2  0
 17 18  1  0
 18 19  2  0
  6 20  1  0
 20 21  2  0
 21 22  1  0
 22 23  1  0
 21  3  1  0
 19 14  1  0
  1 24  1  0
  1 25  1  0
  1 26  1  0
  4 27  1  0
  5 28  1  0
  7 29  1  0
  7 30  1  0
 13 31  1  0
 13 32  1  0
 15 33  1  0
 16 34  1  0
 17 35  1  0
 18 36  1  0
 19 37  1  0
 20 38  1  0
 23 39  1  0
 23 40  1  0
 23 41  1  0
M  END
$$$$
