
     RDKit          3D

 56 59  0  0  0  0  0  0  0  0999 V2000
    8.0638   -0.9259   -0.8516 C   0  0  0  0  0  0  0  0  0  0  0  0
    7.4345    0.1187   -0.1201 O   0  0  0  0  0  0  0  0  0  0  0  0
    6.1172   -0.0555    0.2021 C   0  0  0  0  0  0  0  0  0  0  0  0
    5.3288   -1.1529   -0.1363 C   0  0  0  0  0  0  0  0  0  0  0  0
    3.9895   -1.2032    0.2635 C   0  0  0  0  0  0  0  0  0  0  0  0
    3.4260   -0.1510    0.9990 C   0  0  0  0  0  0  0  0  0  0  0  0
    2.0013   -0.2499    1.4197 C   0  0  0  0  0  0  0  0  0  0  0  0
    1.6961    0.0015    2.5827 O   0  0  0  0  0  0  0  0  0  0  0  0
    0.9731   -0.6476    0.3709 C   0  0  0  0  0  0  0  0  0  0  0  0
    0.3310   -1.9885    0.7339 C   0  0  0  0  0  0  0  0  0  0  0  0
   -0.7997   -2.3153   -0.2375 C   0  0  0  0  0  0  0  0  0  0  0  0
   -1.7982   -1.1600   -0.3490 C   0  0  0  0  0  0  0  0  0  0  0  0
   -1.1138    0.0834   -0.7204 N   0  0  0  0  0  0  0  0  0  0  0  0
   -2.0322    1.1826   -1.0555 C   0  0  0  0  0  0  0  0  0  0  0  0
   -2.8939    1.6741    0.0699 C   0  0  0  0  0  0  0  0  0  0  0  0
   -2.5455    2.6407    1.0070 C   0  0  0  0  0  0  0  0  0  0  0  0
   -3.5037    2.6278    2.0364 C   0  0  0  0  0  0  0  0  0  0  0  0
   -4.4392    1.6842    1.6924 C   0  0  0  0  0  0  0  0  0  0  0  0
   -4.1540    1.1870    0.4285 N   0  0  0  0  0  0  0  0  0  0  0  0
   -5.0580    0.3214   -0.2680 C   0  0  0  0  0  0  0  0  0  0  0  0
   -5.1242    0.3197   -1.6567 C   0  0  0  0  0  0  0  0  0  0  0  0
   -6.0303   -0.5336   -2.2872 C   0  0  0  0  0  0  0  0  0  0  0  0
   -6.8562   -1.3451   -1.5211 C   0  0  0  0  0  0  0  0  0  0  0  0
   -6.7583   -1.2557   -0.1454 C   0  0  0  0  0  0  0  0  0  0  0  0
   -5.8943   -0.4371    0.4921 N   0  0  0  0  0  0  0  0  0  0  0  0
   -0.0938    0.4525    0.2723 C   0  0  0  0  0  0  0  0  0  0  0  0
    4.2082    0.9646    1.3448 C   0  0  0  0  0  0  0  0  0  0  0  0
    3.6643    2.1137    2.1472 C   0  0  0  0  0  0  0  0  0  0  0  0
    5.5546    0.9901    0.9418 C   0  0  0  0  0  0  0  0  0  0  0  0
    9.1057   -0.6363   -1.0189 H   0  0  0  0  0  0  0  0  0  0  0  0
    7.5938   -1.0595   -1.8316 H   0  0  0  0  0  0  0  0  0  0  0  0
    8.0653   -1.8613   -0.2823 H   0  0  0  0  0  0  0  0  0  0  0  0
    5.7251   -1.9897   -0.7020 H   0  0  0  0  0  0  0  0  0  0  0  0
    3.4023   -2.0819    0.0086 H   0  0  0  0  0  0  0  0  0  0  0  0
    1.4602   -0.7358   -0.6086 H   0  0  0  0  0  0  0  0  0  0  0  0
    1.0794   -2.7891    0.7179 H   0  0  0  0  0  0  0  0  0  0  0  0
   -0.0666   -1.9558    1.7565 H   0  0  0  0  0  0  0  0  0  0  0  0
   -1.3193   -3.2220    0.0926 H   0  0  0  0  0  0  0  0  0  0  0  0
   -0.3777   -2.5320   -1.2272 H   0  0  0  0  0  0  0  0  0  0  0  0
   -2.3305   -1.0548    0.6041 H   0  0  0  0  0  0  0  0  0  0  0  0
   -2.5355   -1.4269   -1.1149 H   0  0  0  0  0  0  0  0  0  0  0  0
   -2.6021    0.8852   -1.9335 H   0  0  0  0  0  0  0  0  0  0  0  0
   -1.4322    2.0293   -1.4179 H   0  0  0  0  0  0  0  0  0  0  0  0
   -1.6342    3.2259    0.9897 H   0  0  0  0  0  0  0  0  0  0  0  0
   -3.4992    3.2145    2.9457 H   0  0  0  0  0  0  0  0  0  0  0  0
   -5.3325    1.3603    2.2112 H   0  0  0  0  0  0  0  0  0  0  0  0
   -4.5532    1.0061   -2.2670 H   0  0  0  0  0  0  0  0  0  0  0  0
   -6.1030   -0.5477   -3.3714 H   0  0  0  0  0  0  0  0  0  0  0  0
   -7.5720   -2.0151   -1.9838 H   0  0  0  0  0  0  0  0  0  0  0  0
   -7.3923   -1.8540    0.5025 H   0  0  0  0  0  0  0  0  0  0  0  0
    0.3990    1.3868   -0.0266 H   0  0  0  0  0  0  0  0  0  0  0  0
   -0.5439    0.6277    1.2576 H   0  0  0  0  0  0  0  0  0  0  0  0
    2.6924    2.4350    1.7587 H   0  0  0  0  0  0  0  0  0  0  0  0
    3.5655    1.8284    3.1991 H   0  0  0  0  0  0  0  0  0  0  0  0
    4.3279    2.9837    2.0947 H   0  0  0  0  0  0  0  0  0  0  0  0
    6.1849    1.8379    1.2067 H   0  0  0  0  0  0  0  0  0  0  0  0
  1  2  1  0
  2  3  1  0
  3  4  2  0
  4  5  1  0
  5  6  2  0
  6  7  1  0
  7  8  2  0
  7  9  1  0
  9 10  1  0
 10 11  1  0
 11 12  1  0
 12 13  1  0
 13 14  1  0
 14 15  1  0
 15 16  2  0
 16 17  1  0
 17 18  2  0
 18 19  1  0
 19 20  1  0
 20 21  2  0
 21 22  1  0
 22 23  2  0
 23 24  1  0
 24 25  2  0
 13 26  1  0
  6 27  1  0
 27 28  1  0
 27 29  2  0
 29  3  1  0
 26  9  1  0
 19 15  1  0
 25 20  1  0
  1 30  1  0
  1 31  1  0
  1 32  1  0
  4 33  1  0
  5 34  1  0
  9 35  1  0
 10 36  1  0
 10 37  1  0
 11 38  1  0
 11 39  1  0
 12 40  1  0
 12 41  1  0
 14 42  1  0
 14 43  1  0
 16 44  1  0
 17 45  1  0
 18 46  1  0
 21 47  1  0
 22 48  1  0
 23 49  1  0
 24 50  1  0
 26 51  1  0
 26 52  1  0
 28 53  1  0
 28 54  1  0
 28 55  1  0
 29 56  1  0
M  END
$$$$
