
     RDKit          3D

 41 42  0  0  0  0  0  0  0  0999 V2000
    3.3098   -0.3609   -3.3912 C   0  0  0  0  0  0  0  0  0  0  0  0
    2.5353   -0.7827   -2.1633 C   0  0  0  0  0  0  0  0  0  0  0  0
    1.9179   -1.9308   -2.2062 N   0  0  0  0  0  0  0  0  0  0  0  0
    1.0724   -2.2469   -1.1734 N   0  0  0  0  0  0  0  0  0  0  0  0
   -0.1003   -1.5097   -0.9705 C   0  0  0  0  0  0  0  0  0  0  0  0
   -0.4062   -0.4879   -1.5844 O   0  0  0  0  0  0  0  0  0  0  0  0
   -0.9601   -2.0589    0.1541 C   0  0  0  0  0  0  0  0  0  0  0  0
   -0.6025   -1.1817    1.7141 S   0  0  0  0  0  0  0  0  0  0  0  0
   -1.3280    0.4575    1.3649 C   0  0  0  0  0  0  0  0  0  0  0  0
   -2.8252    0.4481    1.1603 C   0  0  0  0  0  0  0  0  0  0  0  0
   -3.3280    0.6247   -0.1446 C   0  0  0  0  0  0  0  0  0  0  0  0
   -4.7008    0.6356   -0.3952 C   0  0  0  0  0  0  0  0  0  0  0  0
   -5.5994    0.4756    0.6514 C   0  0  0  0  0  0  0  0  0  0  0  0
   -5.1261    0.3049    1.9496 C   0  0  0  0  0  0  0  0  0  0  0  0
   -3.7495    0.2968    2.2065 C   0  0  0  0  0  0  0  0  0  0  0  0
   -3.2163    0.0945    4.0229 Br  0  0  0  0  0  0  0  0  0  0  0  0
    2.5870    0.1442   -0.9992 C   0  0  0  0  0  0  0  0  0  0  0  0
    2.2498    1.4922   -1.1558 C   0  0  0  0  0  0  0  0  0  0  0  0
    2.2975    2.3545   -0.0572 C   0  0  0  0  0  0  0  0  0  0  0  0
    2.6892    1.8743    1.1942 C   0  0  0  0  0  0  0  0  0  0  0  0
    3.0341    0.5233    1.3406 C   0  0  0  0  0  0  0  0  0  0  0  0
    3.4500    0.0172    2.6556 N   0  0  0  0  0  4  0  0  0  0  0  0
    3.5930    0.8435    3.5711 O   0  0  0  0  0  0  0  0  0  0  0  0
    3.6536   -1.2004    2.7671 O   0  0  0  0  0  1  0  0  0  0  0  0
    2.9947   -0.3479    0.2455 C   0  0  0  0  0  0  0  0  0  0  0  0
    4.0531    0.4055   -3.1535 H   0  0  0  0  0  0  0  0  0  0  0  0
    3.8275   -1.2253   -3.8179 H   0  0  0  0  0  0  0  0  0  0  0  0
    2.6111    0.0324   -4.1344 H   0  0  0  0  0  0  0  0  0  0  0  0
    0.9999   -3.2495   -1.0107 H   0  0  0  0  0  0  0  0  0  0  0  0
   -2.0172   -1.9935   -0.1189 H   0  0  0  0  0  0  0  0  0  0  0  0
   -0.7392   -3.1184    0.3139 H   0  0  0  0  0  0  0  0  0  0  0  0
   -1.0832    1.1259    2.2003 H   0  0  0  0  0  0  0  0  0  0  0  0
   -0.8184    0.9035    0.5013 H   0  0  0  0  0  0  0  0  0  0  0  0
   -2.6432    0.7548   -0.9797 H   0  0  0  0  0  0  0  0  0  0  0  0
   -5.0672    0.7797   -1.4098 H   0  0  0  0  0  0  0  0  0  0  0  0
   -6.6686    0.4887    0.4587 H   0  0  0  0  0  0  0  0  0  0  0  0
   -5.8382    0.1838    2.7671 H   0  0  0  0  0  0  0  0  0  0  0  0
    1.9237    1.8692   -2.1217 H   0  0  0  0  0  0  0  0  0  0  0  0
    2.0267    3.4001   -0.1772 H   0  0  0  0  0  0  0  0  0  0  0  0
    2.7221    2.5594    2.0405 H   0  0  0  0  0  0  0  0  0  0  0  0
    3.2692   -1.3954    0.3463 H   0  0  0  0  0  0  0  0  0  0  0  0
  1  2  1  0
  2  3  2  3
  3  4  1  0
  4  5  1  0
  5  6  2  0
  5  7  1  0
  7  8  1  0
  8  9  1  0
  9 10  1  0
 10 11  2  0
 11 12  1  0
 12 13  2  0
 13 14  1  0
 14 15  2  0
 15 16  1  0
  2 17  1  0
 17 18  2  0
 18 19  1  0
 19 20  2  0
 20 21  1  0
 21 22  1  0
 22 23  2  0
 22 24  1  0
 21 25  2  0
 15 10  1  0
 25 17  1  0
  1 26  1  0
  1 27  1  0
  1 28  1  0
  4 29  1  0
  7 30  1  0
  7 31  1  0
  9 32  1  0
  9 33  1  0
 11 34  1  0
 12 35  1  0
 13 36  1  0
 14 37  1  0
 18 38  1  0
 19 39  1  0
 20 40  1  0
 25 41  1  0
M  CHG  2  22   1  24  -1
M  END
$$$$
