
     RDKit          3D

 45 47  0  0  0  0  0  0  0  0999 V2000
   -5.3555    0.7235   -2.2579 C   0  0  0  0  0  0  0  0  0  0  0  0
   -5.4557    0.0677   -0.8871 C   0  0  0  0  0  0  0  0  0  0  0  0
   -4.4134    0.5697    0.0175 N   0  0  0  0  0  0  0  0  0  0  0  0
   -4.7766    1.7436    0.8232 C   0  0  0  0  0  0  0  0  0  0  0  0
   -5.3024    1.3246    2.1883 C   0  0  0  0  0  0  0  0  0  0  0  0
   -3.1397    0.0111    0.0630 C   0  0  0  0  0  0  0  0  0  0  0  0
   -2.7364   -1.0175   -0.8060 C   0  0  0  0  0  0  0  0  0  0  0  0
   -1.4509   -1.5822   -0.7673 C   0  0  0  0  0  0  0  0  0  0  0  0
   -0.5041   -1.1298    0.1476 C   0  0  0  0  0  0  0  0  0  0  0  0
    0.8126   -1.7699    0.1916 C   0  0  0  0  0  0  0  0  0  0  0  0
    2.0047   -1.1637    0.1139 C   0  0  0  0  0  0  0  0  0  0  0  0
    2.3544    0.2749   -0.0448 C   0  0  0  0  0  0  0  0  0  0  0  0
    1.6331    1.2459   -0.1162 O   0  0  0  0  0  0  0  0  0  0  0  0
    3.8216    0.3119   -0.1003 C   0  0  0  0  0  0  0  0  0  0  0  0
    4.6377    1.4191   -0.2465 C   0  0  0  0  0  0  0  0  0  0  0  0
    6.0208    1.2045   -0.2746 C   0  0  0  0  0  0  0  0  0  0  0  0
    6.5599   -0.0992   -0.1570 C   0  0  0  0  0  0  0  0  0  0  0  0
    8.0358   -0.2457   -0.1968 C   0  0  0  0  0  0  0  0  0  0  0  0
    8.8365    0.6614   -0.3211 O   0  0  0  0  0  0  0  0  0  0  0  0
    8.4306   -1.5237   -0.0788 O   0  0  0  0  0  0  0  0  0  0  0  0
    5.7127   -1.2080   -0.0096 C   0  0  0  0  0  0  0  0  0  0  0  0
    4.3487   -0.9716    0.0148 C   0  0  0  0  0  0  0  0  0  0  0  0
    3.2673   -1.9529    0.1522 C   0  0  0  0  0  0  0  0  0  0  0  0
    3.4023   -3.1526    0.2688 O   0  0  0  0  0  0  0  0  0  0  0  0
   -0.8770   -0.1264    1.0360 C   0  0  0  0  0  0  0  0  0  0  0  0
   -2.1658    0.4307    0.9852 C   0  0  0  0  0  0  0  0  0  0  0  0
   -4.3873    0.5347   -2.7305 H   0  0  0  0  0  0  0  0  0  0  0  0
   -5.4829    1.8079   -2.1831 H   0  0  0  0  0  0  0  0  0  0  0  0
   -6.1373    0.3374   -2.9192 H   0  0  0  0  0  0  0  0  0  0  0  0
   -6.4467    0.2917   -0.4691 H   0  0  0  0  0  0  0  0  0  0  0  0
   -5.4301   -1.0249   -0.9708 H   0  0  0  0  0  0  0  0  0  0  0  0
   -3.9431    2.4468    0.9214 H   0  0  0  0  0  0  0  0  0  0  0  0
   -5.5627    2.3144    0.3117 H   0  0  0  0  0  0  0  0  0  0  0  0
   -4.5534    0.7669    2.7584 H   0  0  0  0  0  0  0  0  0  0  0  0
   -6.1860    0.6846    2.0897 H   0  0  0  0  0  0  0  0  0  0  0  0
   -5.5859    2.2057    2.7715 H   0  0  0  0  0  0  0  0  0  0  0  0
   -3.4123   -1.4118   -1.5572 H   0  0  0  0  0  0  0  0  0  0  0  0
   -1.2067   -2.3746   -1.4708 H   0  0  0  0  0  0  0  0  0  0  0  0
    0.7772   -2.8567    0.2733 H   0  0  0  0  0  0  0  0  0  0  0  0
    4.2184    2.4172   -0.3379 H   0  0  0  0  0  0  0  0  0  0  0  0
    6.6895    2.0581   -0.3905 H   0  0  0  0  0  0  0  0  0  0  0  0
    9.4095   -1.4796   -0.1207 H   0  0  0  0  0  0  0  0  0  0  0  0
    6.0970   -2.2199    0.0815 H   0  0  0  0  0  0  0  0  0  0  0  0
   -0.1779    0.2472    1.7797 H   0  0  0  0  0  0  0  0  0  0  0  0
   -2.3802    1.2094    1.7097 H   0  0  0  0  0  0  0  0  0  0  0  0
  1  2  1  0
  2  3  1  0
  3  4  1  0
  4  5  1  0
  3  6  1  0
  6  7  2  0
  7  8  1  0
  8  9  2  0
  9 10  1  0
 10 11  2  3
 11 12  1  0
 12 13  2  0
 12 14  1  0
 14 15  2  0
 15 16  1  0
 16 17  2  0
 17 18  1  0
 18 19  2  0
 18 20  1  0
 17 21  1  0
 21 22  2  0
 22 23  1  0
 23 24  2  0
  9 25  1  0
 25 26  2  0
 26  6  1  0
 23 11  1  0
 22 14  1  0
  1 27  1  0
  1 28  1  0
  1 29  1  0
  2 30  1  0
  2 31  1  0
  4 32  1  0
  4 33  1  0
  5 34  1  0
  5 35  1  0
  5 36  1  0
  7 37  1  0
  8 38  1  0
 10 39  1  0
 15 40  1  0
 16 41  1  0
 20 42  1  0
 21 43  1  0
 25 44  1  0
 26 45  1  0
M  END
$$$$
