
     RDKit          3D

 37 39  0  0  0  0  0  0  0  0999 V2000
    3.0934    0.9989   -1.7162 N   0  0  0  0  0  0  0  0  0  0  0  0
    4.2260    0.7229   -1.0165 C   0  0  0  0  0  0  0  0  0  0  0  0
    5.3303    0.9521   -1.5004 O   0  0  0  0  0  0  0  0  0  0  0  0
    4.0519    0.0714    0.3516 C   0  0  0  0  0  0  0  0  0  0  0  0
    3.7164   -1.4136    0.2132 C   0  0  0  0  0  0  0  0  0  0  0  0
    2.3041   -1.6631   -0.3223 C   0  0  0  0  0  0  0  0  0  0  0  0
    1.3655   -0.6133    0.0994 N   0  0  0  0  0  0  0  0  0  0  0  0
    0.0317   -0.7486   -0.1985 C   0  0  0  0  0  0  0  0  0  0  0  0
   -0.9248   -0.1418    0.4715 N   0  0  0  0  0  0  0  0  0  0  0  0
   -2.1735   -0.4152   -0.0525 C   0  0  0  0  0  0  0  0  0  0  0  0
   -3.3808    0.1472    0.5288 C   0  0  0  0  0  0  0  0  0  0  0  0
   -4.5216   -0.6465    0.7280 C   0  0  0  0  0  0  0  0  0  0  0  0
   -5.6770   -0.0995    1.2960 C   0  0  0  0  0  0  0  0  0  0  0  0
   -5.7051    1.2431    1.6715 C   0  0  0  0  0  0  0  0  0  0  0  0
   -4.5775    2.0392    1.4803 C   0  0  0  0  0  0  0  0  0  0  0  0
   -3.4265    1.4912    0.9149 C   0  0  0  0  0  0  0  0  0  0  0  0
   -2.3726    2.3004    0.7269 F   0  0  0  0  0  0  0  0  0  0  0  0
   -2.1687   -1.2495   -1.1490 C   0  0  0  0  0  0  0  0  0  0  0  0
   -0.5626   -1.6899   -1.5329 S   0  0  0  0  0  0  0  0  0  0  0  0
    1.6942    0.0633    1.3580 C   0  0  0  0  0  0  0  0  0  0  0  0
    3.0253    0.8077    1.2242 C   0  0  0  0  0  0  0  0  0  0  0  0
    3.1752    1.4265   -2.6278 H   0  0  0  0  0  0  0  0  0  0  0  0
    2.1682    0.7930   -1.3476 H   0  0  0  0  0  0  0  0  0  0  0  0
    5.0300    0.1639    0.8434 H   0  0  0  0  0  0  0  0  0  0  0  0
    4.4434   -1.9209   -0.4326 H   0  0  0  0  0  0  0  0  0  0  0  0
    3.8059   -1.8827    1.2021 H   0  0  0  0  0  0  0  0  0  0  0  0
    2.3522   -1.6988   -1.4175 H   0  0  0  0  0  0  0  0  0  0  0  0
    1.9661   -2.6482    0.0241 H   0  0  0  0  0  0  0  0  0  0  0  0
   -4.5178   -1.7008    0.4606 H   0  0  0  0  0  0  0  0  0  0  0  0
   -6.5536   -0.7245    1.4507 H   0  0  0  0  0  0  0  0  0  0  0  0
   -6.6026    1.6678    2.1143 H   0  0  0  0  0  0  0  0  0  0  0  0
   -4.5833    3.0867    1.7655 H   0  0  0  0  0  0  0  0  0  0  0  0
   -3.0010   -1.6027   -1.7401 H   0  0  0  0  0  0  0  0  0  0  0  0
    1.7536   -0.6780    2.1655 H   0  0  0  0  0  0  0  0  0  0  0  0
    0.9363    0.7970    1.6587 H   0  0  0  0  0  0  0  0  0  0  0  0
    3.4362    0.9465    2.2324 H   0  0  0  0  0  0  0  0  0  0  0  0
    2.8434    1.8188    0.8387 H   0  0  0  0  0  0  0  0  0  0  0  0
  1  2  1  0
  2  3  2  0
  2  4  1  0
  4  5  1  0
  5  6  1  0
  6  7  1  0
  7  8  1  0
  8  9  2  0
  9 10  1  0
 10 11  1  0
 11 12  2  0
 12 13  1  0
 13 14  2  0
 14 15  1  0
 15 16  2  0
 16 17  1  0
 10 18  2  0
 18 19  1  0
  7 20  1  0
 20 21  1  0
 21  4  1  0
 19  8  1  0
 16 11  1  0
  1 22  1  0
  1 23  1  0
  4 24  1  0
  5 25  1  0
  5 26  1  0
  6 27  1  0
  6 28  1  0
 12 29  1  0
 13 30  1  0
 14 31  1  0
 15 32  1  0
 18 33  1  0
 20 34  1  0
 20 35  1  0
 21 36  1  0
 21 37  1  0
M  END
$$$$
