
     RDKit          3D

 57 60  0  0  0  0  0  0  0  0999 V2000
   -4.7722    1.5896   -0.8520 C   0  0  0  0  0  0  0  0  0  0  0  0
   -5.5797    0.3782   -0.5687 C   0  0  0  0  0  0  0  0  0  0  0  0
   -6.8340    0.2948   -1.0294 N   0  0  0  0  0  0  0  0  0  0  0  0
   -7.3098   -0.9306   -0.6144 O   0  0  0  0  0  0  0  0  0  0  0  0
   -6.3479   -1.5758    0.0930 C   0  0  0  0  0  0  0  0  0  0  0  0
   -6.7101   -2.9078    0.6123 C   0  0  0  0  0  0  0  0  0  0  0  0
   -5.2122   -0.7944    0.1505 C   0  0  0  0  0  0  0  0  0  0  0  0
   -3.9261   -1.1106    0.8281 C   0  0  0  0  0  0  0  0  0  0  0  0
   -2.7618   -0.6309    0.1488 O   0  0  0  0  0  0  0  0  0  0  0  0
   -2.3528   -1.2422   -1.0042 C   0  0  0  0  0  0  0  0  0  0  0  0
   -2.8478   -2.4534   -1.4940 C   0  0  0  0  0  0  0  0  0  0  0  0
   -2.3468   -2.9959   -2.6843 C   0  0  0  0  0  0  0  0  0  0  0  0
   -1.3472   -2.3374   -3.3991 C   0  0  0  0  0  0  0  0  0  0  0  0
   -0.8410   -1.1313   -2.9240 C   0  0  0  0  0  0  0  0  0  0  0  0
   -1.3387   -0.5968   -1.7290 C   0  0  0  0  0  0  0  0  0  0  0  0
   -0.7904    0.6948   -1.2690 C   0  0  0  0  0  0  0  0  0  0  0  0
   -1.4164    1.7178   -1.5322 O   0  0  0  0  0  0  0  0  0  0  0  0
    0.4280    0.6824   -0.6027 N   0  0  0  0  0  0  0  0  0  0  0  0
    1.1511   -0.5313   -0.2068 C   0  0  0  0  0  0  0  0  0  0  0  0
    2.1392   -0.2990    0.9523 C   0  0  0  0  0  0  0  0  0  0  0  0
    3.0781    0.7931    0.6488 N   0  0  0  0  0  0  0  0  0  0  0  0
    4.3020    0.8994    1.2924 C   0  0  0  0  0  0  0  0  0  0  0  0
    4.5948    0.1900    2.4675 C   0  0  0  0  0  0  0  0  0  0  0  0
    5.8344    0.2927    3.1093 C   0  0  0  0  0  0  0  0  0  0  0  0
    6.8256    1.1140    2.5854 C   0  0  0  0  0  0  0  0  0  0  0  0
    6.5800    1.8416    1.4179 C   0  0  0  0  0  0  0  0  0  0  0  0
    7.6498    2.7135    0.8127 C   0  0  0  0  0  0  0  0  0  0  0  0
    7.1503    3.8158    0.1859 F   0  0  0  0  0  0  0  0  0  0  0  0
    8.3885    2.0551   -0.1227 F   0  0  0  0  0  0  0  0  0  0  0  0
    8.5422    3.1834    1.7295 F   0  0  0  0  0  0  0  0  0  0  0  0
    5.3269    1.7167    0.7857 C   0  0  0  0  0  0  0  0  0  0  0  0
    2.5670    1.9075   -0.1763 C   0  0  0  0  0  0  0  0  0  0  0  0
    1.0287    1.9546   -0.2035 C   0  0  0  0  0  0  0  0  0  0  0  0
   -4.1957    1.4513   -1.7714 H   0  0  0  0  0  0  0  0  0  0  0  0
   -4.0797    1.8031   -0.0321 H   0  0  0  0  0  0  0  0  0  0  0  0
   -5.4116    2.4695   -0.9803 H   0  0  0  0  0  0  0  0  0  0  0  0
   -7.7952   -3.0150    0.7066 H   0  0  0  0  0  0  0  0  0  0  0  0
   -6.3456   -3.6889   -0.0618 H   0  0  0  0  0  0  0  0  0  0  0  0
   -6.2696   -3.0726    1.6004 H   0  0  0  0  0  0  0  0  0  0  0  0
   -3.8221   -2.1784    1.0542 H   0  0  0  0  0  0  0  0  0  0  0  0
   -3.9342   -0.6072    1.8028 H   0  0  0  0  0  0  0  0  0  0  0  0
   -3.6288   -3.0060   -0.9833 H   0  0  0  0  0  0  0  0  0  0  0  0
   -2.7484   -3.9349   -3.0600 H   0  0  0  0  0  0  0  0  0  0  0  0
   -0.9730   -2.7586   -4.3290 H   0  0  0  0  0  0  0  0  0  0  0  0
   -0.0735   -0.6020   -3.4830 H   0  0  0  0  0  0  0  0  0  0  0  0
    1.6978   -0.8733   -1.0938 H   0  0  0  0  0  0  0  0  0  0  0  0
    0.4401   -1.3149    0.0723 H   0  0  0  0  0  0  0  0  0  0  0  0
    2.6756   -1.2408    1.1183 H   0  0  0  0  0  0  0  0  0  0  0  0
    1.5841   -0.0537    1.8661 H   0  0  0  0  0  0  0  0  0  0  0  0
    3.8480   -0.4503    2.9287 H   0  0  0  0  0  0  0  0  0  0  0  0
    6.0184   -0.2701    4.0210 H   0  0  0  0  0  0  0  0  0  0  0  0
    7.7878    1.1847    3.0894 H   0  0  0  0  0  0  0  0  0  0  0  0
    5.1707    2.2634   -0.1429 H   0  0  0  0  0  0  0  0  0  0  0  0
    2.9446    1.7847   -1.1987 H   0  0  0  0  0  0  0  0  0  0  0  0
    2.9188    2.8738    0.2050 H   0  0  0  0  0  0  0  0  0  0  0  0
    0.6446    2.1819    0.7986 H   0  0  0  0  0  0  0  0  0  0  0  0
    0.6953    2.7562   -0.8714 H   0  0  0  0  0  0  0  0  0  0  0  0
  1  2  1  0
  2  3  2  0
  3  4  1  0
  4  5  1  0
  5  6  1  0
  5  7  2  0
  7  8  1  0
  8  9  1  0
  9 10  1  0
 10 11  2  0
 11 12  1  0
 12 13  2  0
 13 14  1  0
 14 15  2  0
 15 16  1  0
 16 17  2  0
 16 18  1  0
 18 19  1  0
 19 20  1  0
 20 21  1  0
 21 22  1  0
 22 23  2  0
 23 24  1  0
 24 25  2  0
 25 26  1  0
 26 27  1  0
 27 28  1  0
 27 29  1  0
 27 30  1  0
 26 31  2  0
 21 32  1  0
 32 33  1  0
  7  2  1  0
 15 10  1  0
 33 18  1  0
 31 22  1  0
  1 34  1  0
  1 35  1  0
  1 36  1  0
  6 37  1  0
  6 38  1  0
  6 39  1  0
  8 40  1  0
  8 41  1  0
 11 42  1  0
 12 43  1  0
 13 44  1  0
 14 45  1  0
 19 46  1  0
 19 47  1  0
 20 48  1  0
 20 49  1  0
 23 50  1  0
 24 51  1  0
 25 52  1  0
 31 53  1  0
 32 54  1  0
 32 55  1  0
 33 56  1  0
 33 57  1  0
M  END
$$$$
