
     RDKit          3D

 47 49  0  0  0  0  0  0  0  0999 V2000
    5.9653    2.3441   -0.4684 C   0  0  0  0  0  0  0  0  0  0  0  0
    5.0952    1.1224   -0.7180 C   0  0  0  0  0  0  0  0  0  0  0  0
    5.6990   -0.1327   -0.0858 C   0  0  0  0  0  0  0  0  0  0  0  0
    4.8898   -1.3984   -0.3841 C   0  0  0  0  0  0  0  0  0  0  0  0
    3.5548   -1.3744    0.2045 N   0  0  0  0  0  0  0  0  0  0  0  0
    2.4217   -1.2908   -0.7020 C   0  0  0  0  0  0  0  0  0  0  0  0
    1.1178   -1.0600   -0.0201 C   0  0  0  0  0  0  0  0  0  0  0  0
   -0.0387   -0.6993   -0.7174 C   0  0  0  0  0  0  0  0  0  0  0  0
   -1.2426   -0.5534   -0.0250 C   0  0  0  0  0  0  0  0  0  0  0  0
   -2.4750   -0.2083   -0.7679 C   0  0  0  0  0  0  0  0  0  0  0  0
   -2.5629   -0.5313   -1.9512 O   0  0  0  0  0  0  0  0  0  0  0  0
   -3.6280    0.4671   -0.1264 C   0  0  0  0  0  0  0  0  0  0  0  0
   -4.9109   -0.0080   -0.4423 C   0  0  0  0  0  0  0  0  0  0  0  0
   -6.0368    0.5861    0.1261 C   0  0  0  0  0  0  0  0  0  0  0  0
   -7.3354    0.2157   -0.0866 O   0  0  0  0  0  0  0  0  0  0  0  0
   -7.5657   -0.7946   -1.0619 C   0  0  0  0  0  0  0  0  0  0  0  0
   -5.8737    1.6589    1.0068 C   0  0  0  0  0  0  0  0  0  0  0  0
   -4.6029    2.1559    1.3047 C   0  0  0  0  0  0  0  0  0  0  0  0
   -3.4813    1.5643    0.7291 C   0  0  0  0  0  0  0  0  0  0  0  0
   -2.2420    2.0748    0.9881 O   0  0  0  0  0  0  0  0  0  0  0  0
   -1.2389   -0.8157    1.3385 C   0  0  0  0  0  0  0  0  0  0  0  0
   -0.1333   -1.1767    2.0378 N   0  0  0  0  0  0  0  0  0  0  0  0
    1.0166   -1.2807    1.3413 C   0  0  0  0  0  0  0  0  0  0  0  0
    2.1487   -1.6306    2.0477 N   0  0  0  0  0  0  0  0  0  0  0  0
    3.4094   -1.6673    1.5443 C   0  0  0  0  0  0  0  0  0  0  0  0
    4.3552   -1.9272    2.2860 O   0  0  0  0  0  0  0  0  0  0  0  0
    5.5144    3.2295   -0.9267 H   0  0  0  0  0  0  0  0  0  0  0  0
    6.0756    2.5341    0.6042 H   0  0  0  0  0  0  0  0  0  0  0  0
    6.9629    2.2102   -0.8984 H   0  0  0  0  0  0  0  0  0  0  0  0
    4.0981    1.3114   -0.3050 H   0  0  0  0  0  0  0  0  0  0  0  0
    4.9799    0.9771   -1.7982 H   0  0  0  0  0  0  0  0  0  0  0  0
    5.7882    0.0120    0.9975 H   0  0  0  0  0  0  0  0  0  0  0  0
    6.7156   -0.2761   -0.4717 H   0  0  0  0  0  0  0  0  0  0  0  0
    5.4268   -2.2662    0.0183 H   0  0  0  0  0  0  0  0  0  0  0  0
    4.8052   -1.5491   -1.4669 H   0  0  0  0  0  0  0  0  0  0  0  0
    2.3776   -2.2330   -1.2607 H   0  0  0  0  0  0  0  0  0  0  0  0
    2.6155   -0.4726   -1.4053 H   0  0  0  0  0  0  0  0  0  0  0  0
   -0.0085   -0.5388   -1.7932 H   0  0  0  0  0  0  0  0  0  0  0  0
   -4.9966   -0.8431   -1.1316 H   0  0  0  0  0  0  0  0  0  0  0  0
   -7.1830   -0.4940   -2.0428 H   0  0  0  0  0  0  0  0  0  0  0  0
   -8.6476   -0.9283   -1.1537 H   0  0  0  0  0  0  0  0  0  0  0  0
   -7.1366   -1.7503   -0.7448 H   0  0  0  0  0  0  0  0  0  0  0  0
   -6.7512    2.1220    1.4538 H   0  0  0  0  0  0  0  0  0  0  0  0
   -4.5160    3.0045    1.9769 H   0  0  0  0  0  0  0  0  0  0  0  0
   -2.3244    2.8644    1.5505 H   0  0  0  0  0  0  0  0  0  0  0  0
   -2.1426   -0.7604    1.9377 H   0  0  0  0  0  0  0  0  0  0  0  0
    2.0412   -1.7931    3.0373 H   0  0  0  0  0  0  0  0  0  0  0  0
  1  2  1  0
  2  3  1  0
  3  4  1  0
  4  5  1  0
  5  6  1  0
  6  7  1  0
  7  8  2  0
  8  9  1  0
  9 10  1  0
 10 11  2  0
 10 12  1  0
 12 13  2  0
 13 14  1  0
 14 15  1  0
 15 16  1  0
 14 17  2  0
 17 18  1  0
 18 19  2  0
 19 20  1  0
  9 21  2  0
 21 22  1  0
 22 23  2  0
 23 24  1  0
 24 25  1  0
 25 26  2  0
 25  5  1  0
 23  7  1  0
 19 12  1  0
  1 27  1  0
  1 28  1  0
  1 29  1  0
  2 30  1  0
  2 31  1  0
  3 32  1  0
  3 33  1  0
  4 34  1  0
  4 35  1  0
  6 36  1  0
  6 37  1  0
  8 38  1  0
 13 39  1  0
 16 40  1  0
 16 41  1  0
 16 42  1  0
 17 43  1  0
 18 44  1  0
 20 45  1  0
 21 46  1  0
 24 47  1  0
M  END
$$$$
