
     RDKit          3D

 35 36  0  0  0  0  0  0  0  0999 V2000
   -5.2014    0.4949    3.0891 C   0  0  0  0  0  0  0  0  0  0  0  0
   -5.4145    0.3762    1.5901 C   0  0  0  0  0  0  0  0  0  0  0  0
   -4.5825    1.2958    0.8835 O   0  0  0  0  0  0  0  0  0  0  0  0
   -3.3186    0.9219    0.5316 C   0  0  0  0  0  0  0  0  0  0  0  0
   -2.6281    1.8628   -0.2295 C   0  0  0  0  0  0  0  0  0  0  0  0
   -1.3177    1.6269   -0.6658 C   0  0  0  0  0  0  0  0  0  0  0  0
   -0.6524    0.4381   -0.3506 C   0  0  0  0  0  0  0  0  0  0  0  0
    0.6739    0.1909   -0.7912 N   0  0  0  0  0  0  0  0  0  0  0  0
    1.5252    1.0257   -1.5003 C   0  0  0  0  0  0  0  0  0  0  0  0
    1.2691    2.1634   -1.8840 O   0  0  0  0  0  0  0  0  0  0  0  0
    2.8622    0.3763   -1.8178 C   0  0  0  0  0  0  0  0  0  0  0  0
    3.8088    0.1495   -0.2900 S   0  0  0  0  0  0  0  0  0  0  0  0
    5.2495   -0.6046   -0.9078 C   0  0  0  0  0  0  0  0  0  0  0  0
    6.3263   -0.8729   -0.1079 N   0  0  0  0  0  0  0  0  0  0  0  0
    7.1792   -1.4346   -0.9305 C   0  0  0  0  0  0  0  0  0  0  0  0
    6.6311   -1.5020   -2.1706 N   0  0  0  0  0  0  0  0  0  0  0  0
    5.3932   -0.9811   -2.1832 N   0  0  0  0  0  0  0  0  0  0  0  0
   -1.3599   -0.5092    0.4267 C   0  0  0  0  0  0  0  0  0  0  0  0
   -0.7508   -1.7892    0.8233 N   0  0  0  0  0  4  0  0  0  0  0  0
   -1.3016   -2.4384    1.7240 O   0  0  0  0  0  0  0  0  0  0  0  0
    0.2783   -2.1550    0.2338 O   0  0  0  0  0  1  0  0  0  0  0  0
   -2.6817   -0.2676    0.8635 C   0  0  0  0  0  0  0  0  0  0  0  0
   -5.8929   -0.1572    3.6303 H   0  0  0  0  0  0  0  0  0  0  0  0
   -4.1787    0.2278    3.3713 H   0  0  0  0  0  0  0  0  0  0  0  0
   -5.3613    1.5272    3.4179 H   0  0  0  0  0  0  0  0  0  0  0  0
   -6.4488    0.6604    1.3651 H   0  0  0  0  0  0  0  0  0  0  0  0
   -5.3018   -0.6524    1.2304 H   0  0  0  0  0  0  0  0  0  0  0  0
   -3.1130    2.8016   -0.4933 H   0  0  0  0  0  0  0  0  0  0  0  0
   -0.8514    2.4091   -1.2578 H   0  0  0  0  0  0  0  0  0  0  0  0
    1.0717   -0.7125   -0.5250 H   0  0  0  0  0  0  0  0  0  0  0  0
    2.6752   -0.5829   -2.3127 H   0  0  0  0  0  0  0  0  0  0  0  0
    3.4088    1.0265   -2.5091 H   0  0  0  0  0  0  0  0  0  0  0  0
    8.1686   -1.7980   -0.6922 H   0  0  0  0  0  0  0  0  0  0  0  0
    7.0252   -1.8768   -3.0263 H   0  0  0  0  0  0  0  0  0  0  0  0
   -3.1895   -1.0152    1.4647 H   0  0  0  0  0  0  0  0  0  0  0  0
  1  2  1  0
  2  3  1  0
  3  4  1  0
  4  5  2  0
  5  6  1  0
  6  7  2  0
  7  8  1  0
  8  9  1  0
  9 10  2  0
  9 11  1  0
 11 12  1  0
 12 13  1  0
 13 14  1  0
 14 15  2  0
 15 16  1  0
 16 17  1  0
  7 18  1  0
 18 19  1  0
 19 20  2  0
 19 21  1  0
 18 22  2  0
 22  4  1  0
 17 13  2  0
  1 23  1  0
  1 24  1  0
  1 25  1  0
  2 26  1  0
  2 27  1  0
  5 28  1  0
  6 29  1  0
  8 30  1  0
 11 31  1  0
 11 32  1  0
 15 33  1  0
 16 34  1  0
 22 35  1  0
M  CHG  2  19   1  21  -1
M  END
$$$$
