
     RDKit          3D

 41 42  0  0  0  0  0  0  0  0999 V2000
    0.1389   -0.1175   -1.4813 O   0  0  0  0  0  0  0  0  0  0  0  0
   -0.0428   -0.7940   -0.2279 C   0  0  0  0  0  0  0  0  0  0  0  0
    1.2594   -0.7807    0.5900 C   0  0  0  0  0  0  0  0  0  0  0  0
    1.5284    0.4733    1.2264 O   0  0  0  0  0  0  0  0  0  0  0  0
    2.1748    1.4270    0.3825 C   0  0  0  0  0  0  0  0  0  0  0  0
    3.6564    1.1546    0.2756 C   0  0  0  0  0  0  0  0  0  0  0  0
    4.4468    1.0654    1.4313 C   0  0  0  0  0  0  0  0  0  0  0  0
    5.8182    0.8207    1.3351 C   0  0  0  0  0  0  0  0  0  0  0  0
    6.4059    0.6656    0.0817 C   0  0  0  0  0  0  0  0  0  0  0  0
    8.0957    0.3628   -0.0384 Cl  0  0  0  0  0  0  0  0  0  0  0  0
    5.6346    0.7525   -1.0756 C   0  0  0  0  0  0  0  0  0  0  0  0
    4.2627    0.9974   -0.9790 C   0  0  0  0  0  0  0  0  0  0  0  0
   -1.2258   -0.1438    0.5229 C   0  0  0  0  0  0  0  0  0  0  0  0
   -2.4514   -0.0870   -0.3148 N   0  0  0  0  0  0  0  0  0  0  0  0
   -3.4692    0.7929    0.2901 C   0  0  0  0  0  0  0  0  0  0  0  0
   -4.5480    0.0432    1.0677 C   0  0  0  0  0  0  0  0  0  0  0  0
   -5.3049   -0.9321    0.1678 C   0  0  0  0  0  0  0  0  0  0  0  0
   -4.4468   -1.4314   -0.9929 C   0  0  0  0  0  0  0  0  0  0  0  0
   -2.9646   -1.4360   -0.6234 C   0  0  0  0  0  0  0  0  0  0  0  0
   -0.7684    0.1312   -1.7564 H   0  0  0  0  0  0  0  0  0  0  0  0
   -0.2692   -1.8377   -0.4723 H   0  0  0  0  0  0  0  0  0  0  0  0
    1.1613   -1.5107    1.4011 H   0  0  0  0  0  0  0  0  0  0  0  0
    2.1103   -1.0903   -0.0268 H   0  0  0  0  0  0  0  0  0  0  0  0
    2.0456    2.4114    0.8473 H   0  0  0  0  0  0  0  0  0  0  0  0
    1.6963    1.4851   -0.5985 H   0  0  0  0  0  0  0  0  0  0  0  0
    3.9883    1.1806    2.4118 H   0  0  0  0  0  0  0  0  0  0  0  0
    6.4178    0.7513    2.2383 H   0  0  0  0  0  0  0  0  0  0  0  0
    6.0924    0.6297   -2.0533 H   0  0  0  0  0  0  0  0  0  0  0  0
    3.6673    1.0584   -1.8882 H   0  0  0  0  0  0  0  0  0  0  0  0
   -0.9395    0.8887    0.7589 H   0  0  0  0  0  0  0  0  0  0  0  0
   -1.4157   -0.6624    1.4704 H   0  0  0  0  0  0  0  0  0  0  0  0
   -3.9492    1.3513   -0.5241 H   0  0  0  0  0  0  0  0  0  0  0  0
   -3.0148    1.5570    0.9325 H   0  0  0  0  0  0  0  0  0  0  0  0
   -5.2537    0.7512    1.5170 H   0  0  0  0  0  0  0  0  0  0  0  0
   -4.0860   -0.5050    1.8986 H   0  0  0  0  0  0  0  0  0  0  0  0
   -6.2049   -0.4528   -0.2354 H   0  0  0  0  0  0  0  0  0  0  0  0
   -5.6511   -1.7787    0.7726 H   0  0  0  0  0  0  0  0  0  0  0  0
   -4.6032   -0.7896   -1.8696 H   0  0  0  0  0  0  0  0  0  0  0  0
   -4.7693   -2.4376   -1.2841 H   0  0  0  0  0  0  0  0  0  0  0  0
   -2.8247   -2.1140    0.2291 H   0  0  0  0  0  0  0  0  0  0  0  0
   -2.3977   -1.8500   -1.4648 H   0  0  0  0  0  0  0  0  0  0  0  0
  1  2  1  0
  2  3  1  0
  3  4  1  0
  4  5  1  0
  5  6  1  0
  6  7  2  0
  7  8  1  0
  8  9  2  0
  9 10  1  0
  9 11  1  0
 11 12  2  0
  2 13  1  0
 13 14  1  0
 14 15  1  0
 15 16  1  0
 16 17  1  0
 17 18  1  0
 18 19  1  0
 12  6  1  0
 19 14  1  0
  1 20  1  0
  2 21  1  0
  3 22  1  0
  3 23  1  0
  5 24  1  0
  5 25  1  0
  7 26  1  0
  8 27  1  0
 11 28  1  0
 12 29  1  0
 13 30  1  0
 13 31  1  0
 15 32  1  0
 15 33  1  0
 16 34  1  0
 16 35  1  0
 17 36  1  0
 17 37  1  0
 18 38  1  0
 18 39  1  0
 19 40  1  0
 19 41  1  0
M  END
$$$$
