
     RDKit          3D

 50 54  0  0  0  0  0  0  0  0999 V2000
    7.9549    0.6604    1.5638 F   0  0  0  0  0  0  0  0  0  0  0  0
    6.6897    0.8420    1.1625 C   0  0  0  0  0  0  0  0  0  0  0  0
    5.8500    1.6672    1.9011 C   0  0  0  0  0  0  0  0  0  0  0  0
    4.5310    1.8589    1.4856 C   0  0  0  0  0  0  0  0  0  0  0  0
    4.0494    1.2183    0.3323 C   0  0  0  0  0  0  0  0  0  0  0  0
    2.6239    1.4449   -0.1326 C   0  0  0  0  0  0  0  0  0  0  0  0
    1.8992    0.1990   -0.4222 N   0  0  0  0  0  0  0  0  0  0  0  0
    0.6657    0.4960   -1.1902 C   0  0  0  0  0  0  0  0  0  0  0  0
   -0.4200   -0.5909   -1.0429 C   0  0  0  0  0  0  0  0  0  0  0  0
   -0.8896   -0.6655    0.3620 N   0  0  0  0  0  0  0  0  0  0  0  0
   -1.5418   -1.8928    0.5735 C   0  0  0  0  0  0  0  0  0  0  0  0
   -0.8445   -2.9252    1.1105 N   0  0  0  0  0  0  0  0  0  0  0  0
   -1.4498   -4.1082    1.2783 C   0  0  0  0  0  0  0  0  0  0  0  0
   -2.7075   -4.4247    0.9774 N   0  0  0  0  0  0  0  0  0  0  0  0
   -3.3856   -3.3849    0.4654 C   0  0  0  0  0  0  0  0  0  0  0  0
   -5.0179   -3.5820    0.0225 S   0  0  0  0  0  0  0  0  0  0  0  0
   -5.1416   -1.9530   -0.4638 C   0  0  0  0  0  0  0  0  0  0  0  0
   -3.9545   -1.2605   -0.3051 C   0  0  0  0  0  0  0  0  0  0  0  0
   -3.9019    0.1585   -0.6424 C   0  0  0  0  0  0  0  0  0  0  0  0
   -3.5729    1.1049    0.3348 C   0  0  0  0  0  0  0  0  0  0  0  0
   -3.5246    2.4629    0.0131 C   0  0  0  0  0  0  0  0  0  0  0  0
   -3.8090    2.8836   -1.2852 C   0  0  0  0  0  0  0  0  0  0  0  0
   -4.1414    1.9483   -2.2640 C   0  0  0  0  0  0  0  0  0  0  0  0
   -4.1894    0.5895   -1.9448 C   0  0  0  0  0  0  0  0  0  0  0  0
   -2.9031   -2.1031    0.2361 C   0  0  0  0  0  0  0  0  0  0  0  0
    0.1622   -0.3630    1.3592 C   0  0  0  0  0  0  0  0  0  0  0  0
    1.5850   -0.5833    0.8004 C   0  0  0  0  0  0  0  0  0  0  0  0
    4.9200    0.3960   -0.4036 C   0  0  0  0  0  0  0  0  0  0  0  0
    6.2377    0.2053    0.0138 C   0  0  0  0  0  0  0  0  0  0  0  0
    6.2279    2.1559    2.7933 H   0  0  0  0  0  0  0  0  0  0  0  0
    3.8819    2.5089    2.0678 H   0  0  0  0  0  0  0  0  0  0  0  0
    2.0726    2.0450    0.6033 H   0  0  0  0  0  0  0  0  0  0  0  0
    2.6947    2.0543   -1.0439 H   0  0  0  0  0  0  0  0  0  0  0  0
    0.2305    1.4528   -0.8695 H   0  0  0  0  0  0  0  0  0  0  0  0
    0.9320    0.5980   -2.2484 H   0  0  0  0  0  0  0  0  0  0  0  0
   -0.0087   -1.5525   -1.3820 H   0  0  0  0  0  0  0  0  0  0  0  0
   -1.2570   -0.3428   -1.7036 H   0  0  0  0  0  0  0  0  0  0  0  0
   -0.8429   -4.8997    1.7064 H   0  0  0  0  0  0  0  0  0  0  0  0
   -6.0871   -1.5768   -0.8320 H   0  0  0  0  0  0  0  0  0  0  0  0
   -3.3429    0.7898    1.3501 H   0  0  0  0  0  0  0  0  0  0  0  0
   -3.2645    3.1906    0.7773 H   0  0  0  0  0  0  0  0  0  0  0  0
   -3.7727    3.9413   -1.5335 H   0  0  0  0  0  0  0  0  0  0  0  0
   -4.3637    2.2765   -3.2761 H   0  0  0  0  0  0  0  0  0  0  0  0
   -4.4435   -0.1284   -2.7212 H   0  0  0  0  0  0  0  0  0  0  0  0
    0.0298   -0.9214    2.2945 H   0  0  0  0  0  0  0  0  0  0  0  0
    0.0539    0.6938    1.6361 H   0  0  0  0  0  0  0  0  0  0  0  0
    1.6973   -1.6433    0.5392 H   0  0  0  0  0  0  0  0  0  0  0  0
    2.3154   -0.4017    1.5970 H   0  0  0  0  0  0  0  0  0  0  0  0
    4.5636   -0.1048   -1.3019 H   0  0  0  0  0  0  0  0  0  0  0  0
    6.9099   -0.4343   -0.5483 H   0  0  0  0  0  0  0  0  0  0  0  0
  1  2  1  0
  2  3  2  0
  3  4  1  0
  4  5  2  0
  5  6  1  0
  6  7  1  0
  7  8  1  0
  8  9  1  0
  9 10  1  0
 10 11  1  0
 11 12  2  0
 12 13  1  0
 13 14  2  0
 14 15  1  0
 15 16  1  0
 16 17  1  0
 17 18  2  0
 18 19  1  0
 19 20  2  0
 20 21  1  0
 21 22  2  0
 22 23  1  0
 23 24  2  0
 18 25  1  0
 10 26  1  0
 26 27  1  0
  5 28  1  0
 28 29  2  0
 29  2  1  0
 27  7  1  0
 25 11  1  0
 25 15  2  0
 24 19  1  0
  3 30  1  0
  4 31  1  0
  6 32  1  0
  6 33  1  0
  8 34  1  0
  8 35  1  0
  9 36  1  0
  9 37  1  0
 13 38  1  0
 17 39  1  0
 20 40  1  0
 21 41  1  0
 22 42  1  0
 23 43  1  0
 24 44  1  0
 26 45  1  0
 26 46  1  0
 27 47  1  0
 27 48  1  0
 28 49  1  0
 29 50  1  0
M  END
$$$$
