
     RDKit          3D

 48 49  0  0  0  0  0  0  0  0999 V2000
   -4.6285   -2.3291   -0.4083 C   0  0  0  0  0  0  0  0  0  0  0  0
   -3.4805   -1.4968    0.0795 C   0  0  0  0  0  0  0  0  0  0  0  0
   -3.3933   -0.1416   -0.2569 C   0  0  0  0  0  0  0  0  0  0  0  0
   -2.3412    0.6431    0.2218 C   0  0  0  0  0  0  0  0  0  0  0  0
   -1.3612    0.0875    1.0523 C   0  0  0  0  0  0  0  0  0  0  0  0
   -0.2033    0.9218    1.5564 C   0  0  0  0  0  0  0  0  0  0  0  0
    1.0033    0.9920    0.6014 C   0  0  0  0  0  0  0  0  0  0  0  0
    1.5028   -0.3225    0.2142 N   0  0  0  0  0  0  0  0  0  0  0  0
    2.2321   -1.1121    1.0667 C   0  0  0  0  0  0  0  0  0  0  0  0
    2.5709   -0.7453    2.1867 O   0  0  0  0  0  0  0  0  0  0  0  0
    2.6159   -2.4588    0.5621 C   0  0  0  0  0  0  0  0  0  0  0  0
    1.8496   -3.1427   -0.3912 C   0  0  0  0  0  0  0  0  0  0  0  0
    2.2460   -4.4093   -0.8273 C   0  0  0  0  0  0  0  0  0  0  0  0
    3.3992   -4.9991   -0.3095 C   0  0  0  0  0  0  0  0  0  0  0  0
    4.1558   -4.3296    0.6515 C   0  0  0  0  0  0  0  0  0  0  0  0
    3.7631   -3.0641    1.0908 C   0  0  0  0  0  0  0  0  0  0  0  0
    0.6900    1.7881   -0.6801 C   0  0  0  0  0  0  0  0  0  0  0  0
    0.6937    1.2716   -1.7974 O   0  0  0  0  0  0  0  0  0  0  0  0
    0.4121    3.1212   -0.4818 N   0  0  0  0  0  0  0  0  0  0  0  0
    0.1956    4.0423   -1.5982 C   0  0  0  0  0  0  0  0  0  0  0  0
   -1.2221    3.9195   -2.1406 C   0  0  0  0  0  0  0  0  0  0  0  0
    0.4527    5.4854   -1.1543 C   0  0  0  0  0  0  0  0  0  0  0  0
    0.3438    6.4891   -1.8396 O   0  0  0  0  0  0  0  0  0  0  0  0
    0.8345    5.5902    0.1421 O   0  0  0  0  0  0  0  0  0  0  0  0
   -1.4606   -1.2655    1.4029 C   0  0  0  0  0  0  0  0  0  0  0  0
   -2.5129   -2.0491    0.9249 C   0  0  0  0  0  0  0  0  0  0  0  0
   -4.3310   -3.3769   -0.5217 H   0  0  0  0  0  0  0  0  0  0  0  0
   -4.9739   -1.9824   -1.3880 H   0  0  0  0  0  0  0  0  0  0  0  0
   -5.4601   -2.2720    0.3007 H   0  0  0  0  0  0  0  0  0  0  0  0
   -4.1448    0.3134   -0.8984 H   0  0  0  0  0  0  0  0  0  0  0  0
   -2.2974    1.6916   -0.0618 H   0  0  0  0  0  0  0  0  0  0  0  0
    0.1223    0.5133    2.5222 H   0  0  0  0  0  0  0  0  0  0  0  0
   -0.5716    1.9308    1.7820 H   0  0  0  0  0  0  0  0  0  0  0  0
    1.8231    1.5156    1.1102 H   0  0  0  0  0  0  0  0  0  0  0  0
    1.3127   -0.6045   -0.7420 H   0  0  0  0  0  0  0  0  0  0  0  0
    0.9299   -2.7193   -0.7857 H   0  0  0  0  0  0  0  0  0  0  0  0
    1.6502   -4.9398   -1.5662 H   0  0  0  0  0  0  0  0  0  0  0  0
    3.7044   -5.9857   -0.6497 H   0  0  0  0  0  0  0  0  0  0  0  0
    5.0497   -4.7927    1.0616 H   0  0  0  0  0  0  0  0  0  0  0  0
    4.3543   -2.5482    1.8448 H   0  0  0  0  0  0  0  0  0  0  0  0
    0.6396    3.5543    0.4093 H   0  0  0  0  0  0  0  0  0  0  0  0
    0.9286    3.8040   -2.3774 H   0  0  0  0  0  0  0  0  0  0  0  0
   -1.9614    4.1601   -1.3680 H   0  0  0  0  0  0  0  0  0  0  0  0
   -1.3830    4.6065   -2.9782 H   0  0  0  0  0  0  0  0  0  0  0  0
   -1.4283    2.9036   -2.4924 H   0  0  0  0  0  0  0  0  0  0  0  0
    0.9650    6.5562    0.2636 H   0  0  0  0  0  0  0  0  0  0  0  0
   -0.7154   -1.7193    2.0539 H   0  0  0  0  0  0  0  0  0  0  0  0
   -2.5707   -3.0949    1.2179 H   0  0  0  0  0  0  0  0  0  0  0  0
  1  2  1  0
  2  3  2  0
  3  4  1  0
  4  5  2  0
  5  6  1  0
  6  7  1  0
  7  8  1  0
  8  9  1  0
  9 10  2  0
  9 11  1  0
 11 12  2  0
 12 13  1  0
 13 14  2  0
 14 15  1  0
 15 16  2  0
  7 17  1  0
 17 18  2  0
 17 19  1  0
 19 20  1  0
 20 21  1  0
 20 22  1  0
 22 23  2  0
 22 24  1  0
  5 25  1  0
 25 26  2  0
 26  2  1  0
 16 11  1  0
  1 27  1  0
  1 28  1  0
  1 29  1  0
  3 30  1  0
  4 31  1  0
  6 32  1  0
  6 33  1  0
  7 34  1  0
  8 35  1  0
 12 36  1  0
 13 37  1  0
 14 38  1  0
 15 39  1  0
 16 40  1  0
 19 41  1  0
 20 42  1  0
 21 43  1  0
 21 44  1  0
 21 45  1  0
 24 46  1  0
 25 47  1  0
 26 48  1  0
M  END
$$$$
