
     RDKit          3D

 67 71  0  0  0  0  0  0  0  0999 V2000
   -5.3160   -3.5111    0.6868 C   0  0  0  0  0  0  0  0  0  0  0  0
   -5.0683   -2.5269    1.6847 O   0  0  0  0  0  0  0  0  0  0  0  0
   -4.6000   -1.3103    1.1048 C   0  0  0  0  0  0  0  0  0  0  0  0
   -4.8276   -0.2206    2.1021 C   0  0  0  0  0  0  0  0  0  0  0  0
   -3.9320    0.6681    2.5635 C   0  0  0  0  0  0  0  0  0  0  0  0
   -2.5250    0.7359    2.2120 C   0  0  0  0  0  0  0  0  0  0  0  0
   -1.6872   -0.1960    2.7257 C   0  0  0  0  0  0  0  0  0  0  0  0
   -0.2584   -0.1339    2.4128 C   0  0  0  0  0  0  0  0  0  0  0  0
    0.5738   -1.0819    2.8675 C   0  0  0  0  0  0  0  0  0  0  0  0
    2.0178   -1.0517    2.5291 C   0  0  0  0  0  0  0  0  0  0  0  0
    2.6444   -2.1067    2.6228 O   0  0  0  0  0  0  0  0  0  0  0  0
    2.6468    0.2833    2.1053 C   0  0  0  0  0  0  0  0  0  0  0  0
    2.9921    1.1352    3.3372 C   0  0  0  0  0  0  0  0  0  0  0  0
    3.7818    0.0489    1.2463 O   0  0  0  0  0  0  0  0  0  0  0  0
    4.9365   -0.4463    1.7517 C   0  0  0  0  0  0  0  0  0  0  0  0
    5.2072   -0.6029    2.9323 O   0  0  0  0  0  0  0  0  0  0  0  0
    5.8638   -0.7981    0.6474 C   0  0  0  0  0  0  0  0  0  0  0  0
    7.0390   -1.4619    0.9448 C   0  0  0  0  0  0  0  0  0  0  0  0
    7.9191   -1.8425   -0.0141 N   0  0  0  0  0  0  0  0  0  0  0  0
    7.5919   -1.5327   -1.2851 C   0  0  0  0  0  0  0  0  0  0  0  0
    8.4385   -1.8958   -2.3235 C   0  0  0  0  0  0  0  0  0  0  0  0
    8.1308   -1.5947   -3.6514 C   0  0  0  0  0  0  0  0  0  0  0  0
    6.9579   -0.9132   -3.9467 C   0  0  0  0  0  0  0  0  0  0  0  0
    6.0974   -0.5435   -2.9133 C   0  0  0  0  0  0  0  0  0  0  0  0
    6.3895   -0.8432   -1.5892 C   0  0  0  0  0  0  0  0  0  0  0  0
    5.5234   -0.4770   -0.6280 N   0  0  0  0  0  0  0  0  0  0  0  0
    1.6758    1.1176    1.2657 C   0  0  0  0  0  0  0  0  0  0  0  0
    2.0452    1.9446    0.4319 O   0  0  0  0  0  0  0  0  0  0  0  0
    0.2257    0.9541    1.5709 C   0  0  0  0  0  0  0  0  0  0  0  0
   -0.6725    1.8334    1.0943 C   0  0  0  0  0  0  0  0  0  0  0  0
   -2.0505    1.7712    1.3666 N   0  0  0  0  0  0  0  0  0  0  0  0
   -2.9532    2.7625    0.7370 C   0  0  0  0  0  0  0  0  0  0  0  0
   -3.6209    2.2867   -0.5420 C   0  0  0  0  0  0  0  0  0  0  0  0
   -4.6736    3.0484   -1.0685 C   0  0  0  0  0  0  0  0  0  0  0  0
   -5.2874    2.6837   -2.2708 C   0  0  0  0  0  0  0  0  0  0  0  0
   -4.8763    1.5444   -2.9654 C   0  0  0  0  0  0  0  0  0  0  0  0
   -5.5506    1.3130   -4.1322 O   0  0  0  0  0  0  0  0  0  0  0  0
   -5.0949    0.2251   -4.9293 C   0  0  0  0  0  0  0  0  0  0  0  0
   -3.8388    0.7729   -2.4465 C   0  0  0  0  0  0  0  0  0  0  0  0
   -3.2138    1.1436   -1.2492 C   0  0  0  0  0  0  0  0  0  0  0  0
   -5.6447   -4.4329    1.1764 H   0  0  0  0  0  0  0  0  0  0  0  0
   -4.4044   -3.7176    0.1174 H   0  0  0  0  0  0  0  0  0  0  0  0
   -6.1134   -3.1692    0.0169 H   0  0  0  0  0  0  0  0  0  0  0  0
   -5.1695   -1.0759    0.1969 H   0  0  0  0  0  0  0  0  0  0  0  0
   -3.5478   -1.4318    0.8341 H   0  0  0  0  0  0  0  0  0  0  0  0
   -5.8516   -0.1395    2.4620 H   0  0  0  0  0  0  0  0  0  0  0  0
   -4.2699    1.4420    3.2509 H   0  0  0  0  0  0  0  0  0  0  0  0
   -2.0571   -0.9877    3.3728 H   0  0  0  0  0  0  0  0  0  0  0  0
    0.2433   -1.9341    3.4512 H   0  0  0  0  0  0  0  0  0  0  0  0
    2.1026    1.6101    3.7689 H   0  0  0  0  0  0  0  0  0  0  0  0
    3.4345    0.5349    4.1389 H   0  0  0  0  0  0  0  0  0  0  0  0
    3.7080    1.9243    3.0802 H   0  0  0  0  0  0  0  0  0  0  0  0
    7.3091   -1.7203    1.9626 H   0  0  0  0  0  0  0  0  0  0  0  0
    9.3553   -2.4297   -2.0909 H   0  0  0  0  0  0  0  0  0  0  0  0
    8.8079   -1.8925   -4.4473 H   0  0  0  0  0  0  0  0  0  0  0  0
    6.7069   -0.6702   -4.9761 H   0  0  0  0  0  0  0  0  0  0  0  0
    5.1783   -0.0096   -3.1449 H   0  0  0  0  0  0  0  0  0  0  0  0
   -0.3749    2.6614    0.4533 H   0  0  0  0  0  0  0  0  0  0  0  0
   -2.3873    3.6730    0.4985 H   0  0  0  0  0  0  0  0  0  0  0  0
   -3.7222    3.0739    1.4546 H   0  0  0  0  0  0  0  0  0  0  0  0
   -5.0063    3.9537   -0.5634 H   0  0  0  0  0  0  0  0  0  0  0  0
   -6.0773    3.3053   -2.6923 H   0  0  0  0  0  0  0  0  0  0  0  0
   -4.0604    0.3815   -5.2487 H   0  0  0  0  0  0  0  0  0  0  0  0
   -5.2163   -0.7267   -4.3996 H   0  0  0  0  0  0  0  0  0  0  0  0
   -5.7189    0.1838   -5.8273 H   0  0  0  0  0  0  0  0  0  0  0  0
   -3.4750   -0.1109   -2.9562 H   0  0  0  0  0  0  0  0  0  0  0  0
   -2.4006    0.5235   -0.8770 H   0  0  0  0  0  0  0  0  0  0  0  0
  1  2  1  0
  2  3  1  0
  3  4  1  0
  4  5  2  3
  5  6  1  0
  6  7  2  0
  7  8  1  0
  8  9  2  0
  9 10  1  0
 10 11  2  0
 10 12  1  0
 12 13  1  0
 12 14  1  0
 14 15  1  0
 15 16  2  0
 15 17  1  0
 17 18  2  0
 18 19  1  0
 19 20  2  0
 20 21  1  0
 21 22  2  0
 22 23  1  0
 23 24  2  0
 24 25  1  0
 25 26  2  0
 12 27  1  0
 27 28  2  0
 27 29  1  0
 29 30  2  0
 30 31  1  0
 31 32  1  0
 32 33  1  0
 33 34  2  0
 34 35  1  0
 35 36  2  0
 36 37  1  0
 37 38  1  0
 36 39  1  0
 39 40  2  0
 31  6  1  0
 40 33  1  0
 29  8  1  0
 26 17  1  0
 25 20  1  0
  1 41  1  0
  1 42  1  0
  1 43  1  0
  3 44  1  0
  3 45  1  0
  4 46  1  0
  5 47  1  0
  7 48  1  0
  9 49  1  0
 13 50  1  0
 13 51  1  0
 13 52  1  0
 18 53  1  0
 21 54  1  0
 22 55  1  0
 23 56  1  0
 24 57  1  0
 30 58  1  0
 32 59  1  0
 32 60  1  0
 34 61  1  0
 35 62  1  0
 38 63  1  0
 38 64  1  0
 38 65  1  0
 39 66  1  0
 40 67  1  0
M  END
$$$$
