
     RDKit          3D

 57 59  0  0  0  0  0  0  0  0999 V2000
    8.6153   -1.6218    0.3784 C   0  0  0  0  0  0  0  0  0  0  0  0
    7.1661   -2.0119    0.0785 C   0  0  0  0  0  0  0  0  0  0  0  0
    6.9130   -3.4498    0.5396 C   0  0  0  0  0  0  0  0  0  0  0  0
    6.2046   -1.0133    0.7496 C   0  0  0  0  0  0  0  0  0  0  0  0
    4.7827   -1.1808    0.3295 C   0  0  0  0  0  0  0  0  0  0  0  0
    4.1812   -0.8060   -0.8941 C   0  0  0  0  0  0  0  0  0  0  0  0
    2.8676   -1.1820   -0.7557 C   0  0  0  0  0  0  0  0  0  0  0  0
    1.6718   -1.0917   -1.6151 C   0  0  0  0  0  0  0  0  0  0  0  0
    0.8304   -0.0212   -1.1255 N   0  0  0  0  0  0  0  0  0  0  0  0
   -0.2122    0.4463   -1.8869 C   0  0  0  0  0  0  0  0  0  0  0  0
   -0.4283    0.0417   -3.0262 O   0  0  0  0  0  0  0  0  0  0  0  0
   -1.1155    1.4767   -1.2284 C   0  0  0  0  0  0  0  0  0  0  0  0
   -0.3465    2.6394   -0.6157 C   0  0  0  0  0  0  0  0  0  0  0  0
   -1.3362    3.6713   -0.1080 C   0  0  0  0  0  0  0  0  0  0  0  0
   -2.4036    3.1065    0.8101 C   0  0  0  0  0  0  0  0  0  0  0  0
   -2.9720    3.8505    1.6098 O   0  0  0  0  0  0  0  0  0  0  0  0
   -2.7574    1.7772    0.6367 N   0  0  0  0  0  0  0  0  0  0  0  0
   -3.8335    1.2261    1.4595 C   0  0  0  0  0  0  0  0  0  0  0  0
   -5.0894    0.9890    0.6529 C   0  0  0  0  0  0  0  0  0  0  0  0
   -5.8481    2.0763    0.1978 C   0  0  0  0  0  0  0  0  0  0  0  0
   -7.0058    1.8706   -0.5515 C   0  0  0  0  0  0  0  0  0  0  0  0
   -7.4182    0.5744   -0.8580 C   0  0  0  0  0  0  0  0  0  0  0  0
   -6.6725   -0.5309   -0.4226 C   0  0  0  0  0  0  0  0  0  0  0  0
   -7.1286   -1.9349   -0.7344 C   0  0  0  0  0  0  0  0  0  0  0  0
   -6.0940   -2.8125   -0.8675 F   0  0  0  0  0  0  0  0  0  0  0  0
   -7.9285   -2.4481    0.2406 F   0  0  0  0  0  0  0  0  0  0  0  0
   -7.8422   -2.0256   -1.8913 F   0  0  0  0  0  0  0  0  0  0  0  0
   -5.5124   -0.3117    0.3403 C   0  0  0  0  0  0  0  0  0  0  0  0
   -1.9773    0.8272   -0.1570 C   0  0  0  0  0  0  0  0  0  0  0  0
    2.6909   -1.7443    0.4704 O   0  0  0  0  0  0  0  0  0  0  0  0
    3.8895   -1.7357    1.1584 N   0  0  0  0  0  0  0  0  0  0  0  0
    9.3131   -2.3069   -0.1149 H   0  0  0  0  0  0  0  0  0  0  0  0
    8.8194   -1.6465    1.4543 H   0  0  0  0  0  0  0  0  0  0  0  0
    8.8294   -0.6110    0.0153 H   0  0  0  0  0  0  0  0  0  0  0  0
    7.0266   -1.9740   -1.0097 H   0  0  0  0  0  0  0  0  0  0  0  0
    7.6320   -4.1362    0.0794 H   0  0  0  0  0  0  0  0  0  0  0  0
    5.9116   -3.7885    0.2559 H   0  0  0  0  0  0  0  0  0  0  0  0
    7.0084   -3.5408    1.6269 H   0  0  0  0  0  0  0  0  0  0  0  0
    6.2856   -1.0935    1.8416 H   0  0  0  0  0  0  0  0  0  0  0  0
    6.5103    0.0106    0.4967 H   0  0  0  0  0  0  0  0  0  0  0  0
    4.6393   -0.3310   -1.7488 H   0  0  0  0  0  0  0  0  0  0  0  0
    1.9455   -0.8929   -2.6567 H   0  0  0  0  0  0  0  0  0  0  0  0
    1.0929   -2.0209   -1.5855 H   0  0  0  0  0  0  0  0  0  0  0  0
    0.8611    0.1725   -0.1325 H   0  0  0  0  0  0  0  0  0  0  0  0
   -1.7678    1.8752   -2.0183 H   0  0  0  0  0  0  0  0  0  0  0  0
    0.2838    2.3002    0.2157 H   0  0  0  0  0  0  0  0  0  0  0  0
    0.3220    3.0936   -1.3565 H   0  0  0  0  0  0  0  0  0  0  0  0
   -1.8494    4.1518   -0.9492 H   0  0  0  0  0  0  0  0  0  0  0  0
   -0.7914    4.4488    0.4393 H   0  0  0  0  0  0  0  0  0  0  0  0
   -3.4741    0.2937    1.9121 H   0  0  0  0  0  0  0  0  0  0  0  0
   -4.0766    1.8932    2.2946 H   0  0  0  0  0  0  0  0  0  0  0  0
   -5.5360    3.0937    0.4319 H   0  0  0  0  0  0  0  0  0  0  0  0
   -7.5867    2.7234   -0.8948 H   0  0  0  0  0  0  0  0  0  0  0  0
   -8.3262    0.4286   -1.4415 H   0  0  0  0  0  0  0  0  0  0  0  0
   -4.9344   -1.1671    0.6891 H   0  0  0  0  0  0  0  0  0  0  0  0
   -2.6641    0.1152   -0.6290 H   0  0  0  0  0  0  0  0  0  0  0  0
   -1.3654    0.2576    0.5531 H   0  0  0  0  0  0  0  0  0  0  0  0
  1  2  1  0
  2  3  1  0
  2  4  1  0
  4  5  1  0
  5  6  1  0
  6  7  2  0
  7  8  1  0
  8  9  1  0
  9 10  1  0
 10 11  2  0
 10 12  1  0
 12 13  1  0
 13 14  1  0
 14 15  1  0
 15 16  2  0
 15 17  1  0
 17 18  1  0
 18 19  1  0
 19 20  2  0
 20 21  1  0
 21 22  2  0
 22 23  1  0
 23 24  1  0
 24 25  1  0
 24 26  1  0
 24 27  1  0
 23 28  2  0
 17 29  1  0
  7 30  1  0
 30 31  1  0
 31  5  2  0
 29 12  1  0
 28 19  1  0
  1 32  1  0
  1 33  1  0
  1 34  1  0
  2 35  1  0
  3 36  1  0
  3 37  1  0
  3 38  1  0
  4 39  1  0
  4 40  1  0
  6 41  1  0
  8 42  1  0
  8 43  1  0
  9 44  1  0
 12 45  1  0
 13 46  1  0
 13 47  1  0
 14 48  1  0
 14 49  1  0
 18 50  1  0
 18 51  1  0
 20 52  1  0
 21 53  1  0
 22 54  1  0
 28 55  1  0
 29 56  1  0
 29 57  1  0
M  END
$$$$
