
     RDKit          3D

 54 56  0  0  0  0  0  0  0  0999 V2000
    5.8847    2.5871   -0.7867 C   0  0  0  0  0  0  0  0  0  0  0  0
    5.2008    1.2676   -1.1312 C   0  0  0  0  0  0  0  0  0  0  0  0
    5.2952    0.2780   -0.0474 N   0  0  0  0  0  0  0  0  0  0  0  0
    4.5020    0.6413    1.1521 C   0  0  0  0  0  0  0  0  0  0  0  0
    2.9682    0.5425    0.9809 C   0  0  0  0  0  0  0  0  0  0  0  0
    2.5924   -0.8113    0.5201 N   0  0  0  0  0  0  0  0  0  0  0  0
    1.1990   -0.9902    0.3988 C   0  0  0  0  0  0  0  0  0  0  0  0
    0.6896   -2.2722    0.3348 C   0  0  0  0  0  0  0  0  0  0  0  0
   -0.6773   -2.4034    0.2240 C   0  0  0  0  0  0  0  0  0  0  0  0
   -1.3735   -4.0500    0.1443 S   0  0  0  0  0  0  0  0  0  0  0  0
   -3.1317   -3.6967   -0.2528 C   0  0  0  0  0  0  0  0  0  0  0  0
   -3.9147   -3.3704    1.0164 C   0  0  0  0  0  0  0  0  0  0  0  0
   -3.7197   -4.9265   -0.9412 C   0  0  0  0  0  0  0  0  0  0  0  0
   -1.5062   -1.3514    0.1789 N   0  0  0  0  0  0  0  0  0  0  0  0
   -0.9394   -0.1380    0.2605 C   0  0  0  0  0  0  0  0  0  0  0  0
   -1.8311    1.0396    0.2095 C   0  0  0  0  0  0  0  0  0  0  0  0
   -1.3227    2.3446    0.0830 C   0  0  0  0  0  0  0  0  0  0  0  0
   -2.1720    3.4557    0.0257 C   0  0  0  0  0  0  0  0  0  0  0  0
   -3.5558    3.2994    0.0987 C   0  0  0  0  0  0  0  0  0  0  0  0
   -4.2698    4.4630    0.0256 O   0  0  0  0  0  0  0  0  0  0  0  0
   -5.6828    4.3589    0.1553 C   0  0  0  0  0  0  0  0  0  0  0  0
   -4.0845    2.0180    0.2293 C   0  0  0  0  0  0  0  0  0  0  0  0
   -3.2317    0.9066    0.2808 C   0  0  0  0  0  0  0  0  0  0  0  0
    0.3847    0.0776    0.3728 N   0  0  0  0  0  0  0  0  0  0  0  0
    3.3185   -1.2178   -0.7021 C   0  0  0  0  0  0  0  0  0  0  0  0
    4.8466   -1.0587   -0.5067 C   0  0  0  0  0  0  0  0  0  0  0  0
    5.9356    3.2214   -1.6790 H   0  0  0  0  0  0  0  0  0  0  0  0
    5.3387    3.1458   -0.0211 H   0  0  0  0  0  0  0  0  0  0  0  0
    6.9097    2.4214   -0.4359 H   0  0  0  0  0  0  0  0  0  0  0  0
    4.1653    1.4614   -1.4331 H   0  0  0  0  0  0  0  0  0  0  0  0
    5.7153    0.8682   -2.0147 H   0  0  0  0  0  0  0  0  0  0  0  0
    4.7695    1.6395    1.5133 H   0  0  0  0  0  0  0  0  0  0  0  0
    4.8011   -0.0423    1.9576 H   0  0  0  0  0  0  0  0  0  0  0  0
    2.6296    1.3104    0.2744 H   0  0  0  0  0  0  0  0  0  0  0  0
    2.5019    0.7467    1.9533 H   0  0  0  0  0  0  0  0  0  0  0  0
    1.3397   -3.1357    0.3934 H   0  0  0  0  0  0  0  0  0  0  0  0
   -3.1883   -2.8594   -0.9607 H   0  0  0  0  0  0  0  0  0  0  0  0
   -4.9539   -3.1333    0.7682 H   0  0  0  0  0  0  0  0  0  0  0  0
   -3.5056   -2.5027    1.5417 H   0  0  0  0  0  0  0  0  0  0  0  0
   -3.9313   -4.2143    1.7143 H   0  0  0  0  0  0  0  0  0  0  0  0
   -4.7605   -4.7341   -1.2301 H   0  0  0  0  0  0  0  0  0  0  0  0
   -3.1702   -5.1753   -1.8547 H   0  0  0  0  0  0  0  0  0  0  0  0
   -3.7172   -5.8068   -0.2866 H   0  0  0  0  0  0  0  0  0  0  0  0
   -0.2477    2.5078    0.0218 H   0  0  0  0  0  0  0  0  0  0  0  0
   -1.7468    4.4512   -0.0773 H   0  0  0  0  0  0  0  0  0  0  0  0
   -6.1008    5.3646    0.0702 H   0  0  0  0  0  0  0  0  0  0  0  0
   -5.9607    3.9639    1.1370 H   0  0  0  0  0  0  0  0  0  0  0  0
   -6.1115    3.7550   -0.6498 H   0  0  0  0  0  0  0  0  0  0  0  0
   -5.1531    1.8408    0.2910 H   0  0  0  0  0  0  0  0  0  0  0  0
   -3.6778   -0.0821    0.3821 H   0  0  0  0  0  0  0  0  0  0  0  0
    2.9880   -0.6121   -1.5563 H   0  0  0  0  0  0  0  0  0  0  0  0
    3.1209   -2.2680   -0.9449 H   0  0  0  0  0  0  0  0  0  0  0  0
    5.1766   -1.7939    0.2375 H   0  0  0  0  0  0  0  0  0  0  0  0
    5.3651   -1.3316   -1.4347 H   0  0  0  0  0  0  0  0  0  0  0  0
  1  2  1  0
  2  3  1  0
  3  4  1  0
  4  5  1  0
  5  6  1  0
  6  7  1  0
  7  8  2  0
  8  9  1  0
  9 10  1  0
 10 11  1  0
 11 12  1  0
 11 13  1  0
  9 14  2  0
 14 15  1  0
 15 16  1  0
 16 17  2  0
 17 18  1  0
 18 19  2  0
 19 20  1  0
 20 21  1  0
 19 22  1  0
 22 23  2  0
 15 24  2  0
  6 25  1  0
 25 26  1  0
 26  3  1  0
 24  7  1  0
 23 16  1  0
  1 27  1  0
  1 28  1  0
  1 29  1  0
  2 30  1  0
  2 31  1  0
  4 32  1  0
  4 33  1  0
  5 34  1  0
  5 35  1  0
  8 36  1  0
 11 37  1  0
 12 38  1  0
 12 39  1  0
 12 40  1  0
 13 41  1  0
 13 42  1  0
 13 43  1  0
 17 44  1  0
 18 45  1  0
 21 46  1  0
 21 47  1  0
 21 48  1  0
 22 49  1  0
 23 50  1  0
 25 51  1  0
 25 52  1  0
 26 53  1  0
 26 54  1  0
M  END
$$$$
