
     RDKit          3D

 53 56  0  0  0  0  0  0  0  0999 V2000
    5.3248   -0.3160    3.4663 C   0  0  0  0  0  0  0  0  0  0  0  0
    4.8107   -0.3771    2.0591 C   0  0  0  0  0  0  0  0  0  0  0  0
    3.4669   -0.1962    1.7988 C   0  0  0  0  0  0  0  0  0  0  0  0
    3.0440   -0.2539    0.4712 C   0  0  0  0  0  0  0  0  0  0  0  0
    1.5888   -0.1051    0.2400 C   0  0  0  0  0  0  0  0  0  0  0  0
    1.0358    0.9018    0.6604 O   0  0  0  0  0  0  0  0  0  0  0  0
    1.0038   -1.1932   -0.3791 N   0  0  0  0  0  0  0  0  0  0  0  0
   -0.3418   -1.3238   -0.7774 C   0  0  0  0  0  0  0  0  0  0  0  0
   -0.7471   -2.5651   -1.2742 C   0  0  0  0  0  0  0  0  0  0  0  0
   -2.0632   -2.7700   -1.7013 C   0  0  0  0  0  0  0  0  0  0  0  0
   -3.0091   -1.7351   -1.6523 C   0  0  0  0  0  0  0  0  0  0  0  0
   -4.4012   -2.0114   -2.1454 C   0  0  0  0  0  0  0  0  0  0  0  0
   -2.5994   -0.4915   -1.1400 C   0  0  0  0  0  0  0  0  0  0  0  0
   -3.7195    0.8934   -1.0009 S   0  0  0  0  0  6  0  0  0  0  0  0
   -3.4544    1.7577   -2.1303 O   0  0  0  0  0  0  0  0  0  0  0  0
   -5.0529    0.4043   -0.7161 O   0  0  0  0  0  0  0  0  0  0  0  0
   -3.2040    1.6894    0.4143 N   0  0  0  0  0  0  0  0  0  0  0  0
   -3.6324    3.1215    0.4878 C   0  0  0  0  0  0  0  0  0  0  0  0
   -3.5079    3.6406    1.9232 C   0  0  0  0  0  0  0  0  0  0  0  0
   -4.3611    2.9472    2.8471 O   0  0  0  0  0  0  0  0  0  0  0  0
   -4.5968    1.5789    2.4814 C   0  0  0  0  0  0  0  0  0  0  0  0
   -3.4349    0.9557    1.7012 C   0  0  0  0  0  0  0  0  0  0  0  0
   -1.2714   -0.2880   -0.7202 C   0  0  0  0  0  0  0  0  0  0  0  0
    3.9633   -0.4456   -0.5840 C   0  0  0  0  0  0  0  0  0  0  0  0
    3.6351   -0.4397   -1.9648 C   0  0  0  0  0  0  0  0  0  0  0  0
    4.6130   -0.6378   -2.9373 C   0  0  0  0  0  0  0  0  0  0  0  0
    5.9288   -0.8415   -2.5491 C   0  0  0  0  0  0  0  0  0  0  0  0
    6.2588   -0.8338   -1.1926 C   0  0  0  0  0  0  0  0  0  0  0  0
    5.3058   -0.6303   -0.2035 C   0  0  0  0  0  0  0  0  0  0  0  0
    5.7118   -0.6100    1.0783 N   0  0  0  0  0  0  0  0  0  0  0  0
    5.1121    0.6639    3.9061 H   0  0  0  0  0  0  0  0  0  0  0  0
    4.8522   -1.0928    4.0759 H   0  0  0  0  0  0  0  0  0  0  0  0
    6.4079   -0.4722    3.4941 H   0  0  0  0  0  0  0  0  0  0  0  0
    2.7590   -0.0119    2.6013 H   0  0  0  0  0  0  0  0  0  0  0  0
    1.5972   -1.9995   -0.5389 H   0  0  0  0  0  0  0  0  0  0  0  0
   -0.0484   -3.3960   -1.3366 H   0  0  0  0  0  0  0  0  0  0  0  0
   -2.3420   -3.7511   -2.0831 H   0  0  0  0  0  0  0  0  0  0  0  0
   -4.4405   -2.9447   -2.7200 H   0  0  0  0  0  0  0  0  0  0  0  0
   -5.0911   -2.1152   -1.3019 H   0  0  0  0  0  0  0  0  0  0  0  0
   -4.7423   -1.2183   -2.8191 H   0  0  0  0  0  0  0  0  0  0  0  0
   -2.9894    3.7143   -0.1714 H   0  0  0  0  0  0  0  0  0  0  0  0
   -4.6731    3.2159    0.1546 H   0  0  0  0  0  0  0  0  0  0  0  0
   -3.7717    4.7023    1.9663 H   0  0  0  0  0  0  0  0  0  0  0  0
   -2.4765    3.5433    2.2845 H   0  0  0  0  0  0  0  0  0  0  0  0
   -4.7731    1.0202    3.4065 H   0  0  0  0  0  0  0  0  0  0  0  0
   -5.5224    1.5442    1.8947 H   0  0  0  0  0  0  0  0  0  0  0  0
   -2.5068    1.0215    2.2837 H   0  0  0  0  0  0  0  0  0  0  0  0
   -3.6296   -0.1068    1.5267 H   0  0  0  0  0  0  0  0  0  0  0  0
   -0.9811    0.6987   -0.3702 H   0  0  0  0  0  0  0  0  0  0  0  0
    2.6155   -0.2525   -2.2975 H   0  0  0  0  0  0  0  0  0  0  0  0
    4.3487   -0.6207   -3.9916 H   0  0  0  0  0  0  0  0  0  0  0  0
    6.7050   -0.9902   -3.2951 H   0  0  0  0  0  0  0  0  0  0  0  0
    7.2960   -0.9777   -0.8966 H   0  0  0  0  0  0  0  0  0  0  0  0
  1  2  1  0
  2  3  2  0
  3  4  1  0
  4  5  1  0
  5  6  2  0
  5  7  1  0
  7  8  1  0
  8  9  2  0
  9 10  1  0
 10 11  2  0
 11 12  1  0
 11 13  1  0
 13 14  1  0
 14 15  2  0
 14 16  2  0
 14 17  1  0
 17 18  1  0
 18 19  1  0
 19 20  1  0
 20 21  1  0
 21 22  1  0
 13 23  2  0
  4 24  2  0
 24 25  1  0
 25 26  2  0
 26 27  1  0
 27 28  2  0
 28 29  1  0
 29 30  2  0
 30  2  1  0
 23  8  1  0
 29 24  1  0
 22 17  1  0
  1 31  1  0
  1 32  1  0
  1 33  1  0
  3 34  1  0
  7 35  1  0
  9 36  1  0
 10 37  1  0
 12 38  1  0
 12 39  1  0
 12 40  1  0
 18 41  1  0
 18 42  1  0
 19 43  1  0
 19 44  1  0
 21 45  1  0
 21 46  1  0
 22 47  1  0
 22 48  1  0
 23 49  1  0
 25 50  1  0
 26 51  1  0
 27 52  1  0
 28 53  1  0
M  END
$$$$
