
     RDKit          3D

 41 44  0  0  0  0  0  0  0  0999 V2000
    3.0622   -3.6604    3.1611 C   0  0  0  0  0  0  0  0  0  0  0  0
    3.5710   -3.7969    1.8412 O   0  0  0  0  0  0  0  0  0  0  0  0
    2.9807   -3.0477    0.8594 C   0  0  0  0  0  0  0  0  0  0  0  0
    3.5067   -3.2537   -0.4134 C   0  0  0  0  0  0  0  0  0  0  0  0
    3.0236   -2.5562   -1.5215 C   0  0  0  0  0  0  0  0  0  0  0  0
    1.9843   -1.6457   -1.3080 C   0  0  0  0  0  0  0  0  0  0  0  0
    1.3469   -0.8284   -2.2016 N   0  0  0  0  0  0  0  0  0  0  0  0
    0.3878   -0.0512   -1.5862 C   0  0  0  0  0  0  0  0  0  0  0  0
   -0.4446    0.9375   -2.1459 C   0  0  0  0  0  0  0  0  0  0  0  0
   -0.3771    1.2859   -3.6137 C   0  0  0  0  0  0  0  0  0  0  0  0
   -1.3278    1.6132   -1.2612 C   0  0  0  0  0  0  0  0  0  0  0  0
   -2.1573    2.6544   -1.7161 C   0  0  0  0  0  0  0  0  0  0  0  0
   -3.0089    3.3223   -0.8503 C   0  0  0  0  0  0  0  0  0  0  0  0
   -3.0533    2.9816    0.4477 N   0  0  0  0  0  4  0  0  0  0  0  0
   -3.9454    3.7019    1.3724 C   0  0  0  0  0  0  0  0  0  0  0  0
   -2.2740    1.9876    0.9253 C   0  0  0  0  0  0  0  0  0  0  0  0
   -1.3945    1.2550    0.1068 C   0  0  0  0  0  0  0  0  0  0  0  0
   -0.5861    0.1883    0.6210 C   0  0  0  0  0  0  0  0  0  0  0  0
   -0.7239   -0.2555    2.0599 C   0  0  0  0  0  0  0  0  0  0  0  0
    0.3663   -0.4250   -0.2430 C   0  0  0  0  0  0  0  0  0  0  0  0
    1.4099   -1.4144   -0.0620 C   0  0  0  0  0  0  0  0  0  0  0  0
    1.9389   -2.1285    1.0438 C   0  0  0  0  0  0  0  0  0  0  0  0
    2.0081   -3.9528    3.2107 H   0  0  0  0  0  0  0  0  0  0  0  0
    3.2082   -2.6420    3.5358 H   0  0  0  0  0  0  0  0  0  0  0  0
    3.6265   -4.3377    3.8093 H   0  0  0  0  0  0  0  0  0  0  0  0
    4.3166   -3.9686   -0.5469 H   0  0  0  0  0  0  0  0  0  0  0  0
    3.4505   -2.7199   -2.5061 H   0  0  0  0  0  0  0  0  0  0  0  0
    1.5804   -0.7898   -3.1828 H   0  0  0  0  0  0  0  0  0  0  0  0
   -1.3604    1.1609   -4.0790 H   0  0  0  0  0  0  0  0  0  0  0  0
   -0.0389    2.3193   -3.7416 H   0  0  0  0  0  0  0  0  0  0  0  0
    0.3181    0.6454   -4.1629 H   0  0  0  0  0  0  0  0  0  0  0  0
   -2.1495    2.9699   -2.7575 H   0  0  0  0  0  0  0  0  0  0  0  0
   -3.6491    4.1312   -1.1906 H   0  0  0  0  0  0  0  0  0  0  0  0
   -3.3180    4.3071    2.0319 H   0  0  0  0  0  0  0  0  0  0  0  0
   -4.6310    4.3396    0.8095 H   0  0  0  0  0  0  0  0  0  0  0  0
   -4.5159    2.9629    1.9414 H   0  0  0  0  0  0  0  0  0  0  0  0
   -2.3673    1.8059    1.9905 H   0  0  0  0  0  0  0  0  0  0  0  0
   -0.0760    0.3456    2.7042 H   0  0  0  0  0  0  0  0  0  0  0  0
   -1.7570   -0.1841    2.4124 H   0  0  0  0  0  0  0  0  0  0  0  0
   -0.4730   -1.3119    2.1737 H   0  0  0  0  0  0  0  0  0  0  0  0
    1.5424   -1.9452    2.0320 H   0  0  0  0  0  0  0  0  0  0  0  0
  1  2  1  0
  2  3  1  0
  3  4  2  0
  4  5  1  0
  5  6  2  0
  6  7  1  0
  7  8  1  0
  8  9  2  0
  9 10  1  0
  9 11  1  0
 11 12  2  0
 12 13  1  0
 13 14  2  0
 14 15  1  0
 14 16  1  0
 16 17  2  0
 17 18  1  0
 18 19  1  0
 18 20  2  0
 20 21  1  0
 21 22  2  0
 22  3  1  0
 21  6  1  0
 20  8  1  0
 17 11  1  0
  1 23  1  0
  1 24  1  0
  1 25  1  0
  4 26  1  0
  5 27  1  0
  7 28  1  0
 10 29  1  0
 10 30  1  0
 10 31  1  0
 12 32  1  0
 13 33  1  0
 15 34  1  0
 15 35  1  0
 15 36  1  0
 16 37  1  0
 19 38  1  0
 19 39  1  0
 19 40  1  0
 22 41  1  0
M  CHG  1  14   1
M  END
$$$$
