
     RDKit          3D

 60 65  0  0  0  0  0  0  0  0999 V2000
    1.6977   -2.6156    0.0232 O   0  0  0  0  0  0  0  0  0  0  0  0
    2.3581   -1.6088    0.2566 C   0  0  0  0  0  0  0  0  0  0  0  0
    3.2124   -1.5364    1.5143 C   0  0  0  0  0  0  0  0  0  0  0  0
    2.5834   -0.3800    2.7701 S   0  0  0  0  0  0  0  0  0  0  0  0
    0.8894   -0.2969    2.2959 C   0  0  0  0  0  0  0  0  0  0  0  0
    0.6016    0.7719    1.6330 N   0  0  0  0  0  0  0  0  0  0  0  0
   -0.6285    0.8229    0.9893 C   0  0  0  0  0  0  0  0  0  0  0  0
   -0.8186    1.9407    0.2594 N   0  0  0  0  0  0  0  0  0  0  0  0
   -1.9223    1.9887   -0.5172 C   0  0  0  0  0  0  0  0  0  0  0  0
   -2.8674    0.9627   -0.5736 C   0  0  0  0  0  0  0  0  0  0  0  0
   -2.6743   -0.1584    0.2283 C   0  0  0  0  0  0  0  0  0  0  0  0
   -1.5232   -0.2277    1.0109 C   0  0  0  0  0  0  0  0  0  0  0  0
   -1.2161   -1.3788    1.8682 C   0  0  0  0  0  0  0  0  0  0  0  0
   -2.0865   -2.2412    1.9812 O   0  0  0  0  0  0  0  0  0  0  0  0
    0.0240   -1.3636    2.5205 N   0  0  0  0  0  0  0  0  0  0  0  0
    0.3279   -2.4449    3.4141 C   0  0  0  0  0  0  0  0  0  0  0  0
    0.8223   -2.2000    4.7042 C   0  0  0  0  0  0  0  0  0  0  0  0
    1.1237   -3.2577    5.5665 C   0  0  0  0  0  0  0  0  0  0  0  0
    0.9225   -4.5729    5.1574 C   0  0  0  0  0  0  0  0  0  0  0  0
    0.4136   -4.8322    3.8889 C   0  0  0  0  0  0  0  0  0  0  0  0
    0.1131   -3.7749    3.0250 C   0  0  0  0  0  0  0  0  0  0  0  0
   -4.0445    1.1225   -1.4901 C   0  0  0  0  0  0  0  0  0  0  0  0
   -3.5779    1.6654   -2.8411 C   0  0  0  0  0  0  0  0  0  0  0  0
   -2.6576    2.8911   -2.7479 C   0  0  0  0  0  0  0  0  0  0  0  0
   -2.1667    3.2253   -1.3366 C   0  0  0  0  0  0  0  0  0  0  0  0
    2.4055   -0.4602   -0.5112 N   0  0  0  0  0  0  0  0  0  0  0  0
    1.7377   -0.1933   -1.7373 C   0  0  0  0  0  0  0  0  0  0  0  0
    1.0555   -1.2057   -2.4262 C   0  0  0  0  0  0  0  0  0  0  0  0
    0.4370   -0.9534   -3.6471 C   0  0  0  0  0  0  0  0  0  0  0  0
    0.5028    0.3167   -4.2087 C   0  0  0  0  0  0  0  0  0  0  0  0
    1.1701    1.3599   -3.5516 C   0  0  0  0  0  0  0  0  0  0  0  0
    1.2220    2.6317   -4.1517 C   0  0  0  0  0  0  0  0  0  0  0  0
    1.8638    3.6958   -3.5287 C   0  0  0  0  0  0  0  0  0  0  0  0
    2.4547    3.5026   -2.2897 C   0  0  0  0  0  0  0  0  0  0  0  0
    2.4161    2.2418   -1.6831 C   0  0  0  0  0  0  0  0  0  0  0  0
    1.7896    1.1272   -2.2938 C   0  0  0  0  0  0  0  0  0  0  0  0
    4.2316   -1.2429    1.2370 H   0  0  0  0  0  0  0  0  0  0  0  0
    3.2719   -2.5387    1.9547 H   0  0  0  0  0  0  0  0  0  0  0  0
   -3.3894   -0.9763    0.2278 H   0  0  0  0  0  0  0  0  0  0  0  0
    0.9513   -1.1846    5.0701 H   0  0  0  0  0  0  0  0  0  0  0  0
    1.5077   -3.0526    6.5615 H   0  0  0  0  0  0  0  0  0  0  0  0
    1.1538   -5.3944    5.8301 H   0  0  0  0  0  0  0  0  0  0  0  0
    0.2477   -5.8562    3.5654 H   0  0  0  0  0  0  0  0  0  0  0  0
   -0.2673   -4.0083    2.0315 H   0  0  0  0  0  0  0  0  0  0  0  0
   -4.5492    0.1629   -1.6432 H   0  0  0  0  0  0  0  0  0  0  0  0
   -4.7707    1.8061   -1.0326 H   0  0  0  0  0  0  0  0  0  0  0  0
   -4.4440    1.8993   -3.4700 H   0  0  0  0  0  0  0  0  0  0  0  0
   -3.0307    0.8689   -3.3656 H   0  0  0  0  0  0  0  0  0  0  0  0
   -3.1625    3.7706   -3.1680 H   0  0  0  0  0  0  0  0  0  0  0  0
   -1.7914    2.7138   -3.3965 H   0  0  0  0  0  0  0  0  0  0  0  0
   -2.9222    3.8293   -0.8188 H   0  0  0  0  0  0  0  0  0  0  0  0
   -1.2562    3.8323   -1.3936 H   0  0  0  0  0  0  0  0  0  0  0  0
    2.8546    0.3324   -0.0720 H   0  0  0  0  0  0  0  0  0  0  0  0
    0.9939   -2.2217   -2.0467 H   0  0  0  0  0  0  0  0  0  0  0  0
   -0.0846   -1.7558   -4.1667 H   0  0  0  0  0  0  0  0  0  0  0  0
    0.0211    0.4850   -5.1706 H   0  0  0  0  0  0  0  0  0  0  0  0
    0.7570    2.8022   -5.1207 H   0  0  0  0  0  0  0  0  0  0  0  0
    1.8979    4.6721   -4.0057 H   0  0  0  0  0  0  0  0  0  0  0  0
    2.9423    4.3305   -1.7858 H   0  0  0  0  0  0  0  0  0  0  0  0
    2.8767    2.1614   -0.7030 H   0  0  0  0  0  0  0  0  0  0  0  0
  1  2  2  0
  2  3  1  0
  3  4  1  0
  4  5  1  0
  5  6  2  0
  6  7  1  0
  7  8  2  0
  8  9  1  0
  9 10  2  0
 10 11  1  0
 11 12  2  0
 12 13  1  0
 13 14  2  0
 13 15  1  0
 15 16  1  0
 16 17  2  0
 17 18  1  0
 18 19  2  0
 19 20  1  0
 20 21  2  0
 10 22  1  0
 22 23  1  0
 23 24  1  0
 24 25  1  0
  2 26  1  0
 26 27  1  0
 27 28  2  0
 28 29  1  0
 29 30  2  0
 30 31  1  0
 31 32  2  0
 32 33  1  0
 33 34  2  0
 34 35  1  0
 35 36  2  0
 15  5  1  0
 21 16  1  0
 36 27  1  0
 12  7  1  0
 36 31  1  0
 25  9  1  0
  3 37  1  0
  3 38  1  0
 11 39  1  0
 17 40  1  0
 18 41  1  0
 19 42  1  0
 20 43  1  0
 21 44  1  0
 22 45  1  0
 22 46  1  0
 23 47  1  0
 23 48  1  0
 24 49  1  0
 24 50  1  0
 25 51  1  0
 25 52  1  0
 26 53  1  0
 28 54  1  0
 29 55  1  0
 30 56  1  0
 32 57  1  0
 33 58  1  0
 34 59  1  0
 35 60  1  0
M  END
$$$$
