
     RDKit          3D

 46 49  0  0  0  0  0  0  0  0999 V2000
   -1.7049   -0.8300   -2.4489 O   0  0  0  0  0  0  0  0  0  0  0  0
   -1.3651   -0.5504   -1.3012 C   0  0  0  0  0  0  0  0  0  0  0  0
    0.0419   -0.5099   -0.9499 C   0  0  0  0  0  0  0  0  0  0  0  0
    0.9332   -1.5429   -1.1614 C   0  0  0  0  0  0  0  0  0  0  0  0
    2.1557   -1.1303   -0.6941 N   0  0  0  0  0  0  0  0  0  0  0  0
    3.3796   -1.8579   -0.6808 C   0  0  0  0  0  0  0  0  0  0  0  0
    3.4575   -3.1618   -1.1903 C   0  0  0  0  0  0  0  0  0  0  0  0
    4.6730   -3.8525   -1.1627 C   0  0  0  0  0  0  0  0  0  0  0  0
    5.8121   -3.2509   -0.6305 C   0  0  0  0  0  0  0  0  0  0  0  0
    5.7424   -1.9552   -0.1239 C   0  0  0  0  0  0  0  0  0  0  0  0
    4.5321   -1.2587   -0.1478 C   0  0  0  0  0  0  0  0  0  0  0  0
    2.0909    0.1276   -0.1934 N   0  0  0  0  0  0  0  0  0  0  0  0
    0.8313    0.5392   -0.4033 C   0  0  0  0  0  0  0  0  0  0  0  0
    0.4401    1.9120   -0.0725 C   0  0  0  0  0  0  0  0  0  0  0  0
   -0.4606    2.6236   -0.8810 C   0  0  0  0  0  0  0  0  0  0  0  0
   -0.8355    3.9269   -0.5436 C   0  0  0  0  0  0  0  0  0  0  0  0
   -0.3047    4.5217    0.5946 C   0  0  0  0  0  0  0  0  0  0  0  0
   -0.6667    5.7704    0.9162 F   0  0  0  0  0  0  0  0  0  0  0  0
    0.5992    3.8418    1.4008 C   0  0  0  0  0  0  0  0  0  0  0  0
    0.9744    2.5389    1.0657 C   0  0  0  0  0  0  0  0  0  0  0  0
   -2.2961   -0.2702   -0.3001 N   0  0  0  0  0  0  0  0  0  0  0  0
   -3.7025   -0.1856   -0.6855 C   0  0  0  0  0  0  0  0  0  0  0  0
   -4.5250    0.5865    0.3379 C   0  0  0  0  0  0  0  0  0  0  0  0
   -4.4446   -0.0434    1.7287 C   0  0  0  0  0  0  0  0  0  0  0  0
   -3.1459   -0.8164    1.9603 C   0  0  0  0  0  0  0  0  0  0  0  0
   -1.9917   -0.2559    1.1352 C   0  0  0  0  0  0  0  0  0  0  0  0
    0.7724   -2.5170   -1.5969 H   0  0  0  0  0  0  0  0  0  0  0  0
    2.5985   -3.6697   -1.6172 H   0  0  0  0  0  0  0  0  0  0  0  0
    4.7313   -4.8632   -1.5598 H   0  0  0  0  0  0  0  0  0  0  0  0
    6.7552   -3.7913   -0.6124 H   0  0  0  0  0  0  0  0  0  0  0  0
    6.6302   -1.4831    0.2893 H   0  0  0  0  0  0  0  0  0  0  0  0
    4.5038   -0.2463    0.2514 H   0  0  0  0  0  0  0  0  0  0  0  0
   -0.8691    2.1819   -1.7873 H   0  0  0  0  0  0  0  0  0  0  0  0
   -1.5309    4.4815   -1.1657 H   0  0  0  0  0  0  0  0  0  0  0  0
    1.0098    4.3278    2.2799 H   0  0  0  0  0  0  0  0  0  0  0  0
    1.6881    2.0108    1.6957 H   0  0  0  0  0  0  0  0  0  0  0  0
   -3.7818    0.2952   -1.6672 H   0  0  0  0  0  0  0  0  0  0  0  0
   -4.0794   -1.2102   -0.7900 H   0  0  0  0  0  0  0  0  0  0  0  0
   -4.1484    1.6162    0.3931 H   0  0  0  0  0  0  0  0  0  0  0  0
   -5.5711    0.6511    0.0187 H   0  0  0  0  0  0  0  0  0  0  0  0
   -5.2920   -0.7226    1.8808 H   0  0  0  0  0  0  0  0  0  0  0  0
   -4.5477    0.7476    2.4813 H   0  0  0  0  0  0  0  0  0  0  0  0
   -2.8934   -0.8068    3.0264 H   0  0  0  0  0  0  0  0  0  0  0  0
   -3.3039   -1.8668    1.6834 H   0  0  0  0  0  0  0  0  0  0  0  0
   -1.0872   -0.8357    1.3401 H   0  0  0  0  0  0  0  0  0  0  0  0
   -1.8050    0.7844    1.4220 H   0  0  0  0  0  0  0  0  0  0  0  0
  1  2  2  0
  2  3  1  0
  3  4  2  0
  4  5  1  0
  5  6  1  0
  6  7  2  0
  7  8  1  0
  8  9  2  0
  9 10  1  0
 10 11  2  0
  5 12  1  0
 12 13  2  0
 13 14  1  0
 14 15  2  0
 15 16  1  0
 16 17  2  0
 17 18  1  0
 17 19  1  0
 19 20  2  0
  2 21  1  0
 21 22  1  0
 22 23  1  0
 23 24  1  0
 24 25  1  0
 25 26  1  0
 13  3  1  0
 20 14  1  0
 26 21  1  0
 11  6  1  0
  4 27  1  0
  7 28  1  0
  8 29  1  0
  9 30  1  0
 10 31  1  0
 11 32  1  0
 15 33  1  0
 16 34  1  0
 19 35  1  0
 20 36  1  0
 22 37  1  0
 22 38  1  0
 23 39  1  0
 23 40  1  0
 24 41  1  0
 24 42  1  0
 25 43  1  0
 25 44  1  0
 26 45  1  0
 26 46  1  0
M  END
$$$$
