
     RDKit          3D

 58 61  0  0  0  0  0  0  0  0999 V2000
    1.8572    2.3369   -0.3617 O   0  0  0  0  0  0  0  0  0  0  0  0
    1.9552    1.1597   -0.6998 C   0  0  0  0  0  0  0  0  0  0  0  0
    3.1708    0.2885   -0.4482 C   0  0  0  0  0  0  0  0  0  0  0  0
    4.2780    1.0479    0.2864 C   0  0  0  0  0  0  0  0  0  0  0  0
    5.5792    0.2569    0.5198 C   0  0  0  0  0  0  0  0  0  0  0  0
    6.3840    0.0526   -0.7789 C   0  0  0  0  0  0  0  0  0  0  0  0
    7.3576   -1.1284   -0.7156 C   0  0  0  0  0  0  0  0  0  0  0  0
    7.8416   -1.3969    0.7025 C   0  0  0  0  0  0  0  0  0  0  0  0
    6.6845   -1.7275    1.6466 C   0  0  0  0  0  0  0  0  0  0  0  0
    5.3581   -1.0759    1.2427 C   0  0  0  0  0  0  0  0  0  0  0  0
    0.9443    0.4911   -1.3701 N   0  0  0  0  0  0  0  0  0  0  0  0
   -0.3207    1.1321   -1.3904 N   0  0  0  0  0  0  0  0  0  0  0  0
   -1.3704    0.3883   -0.8797 C   0  0  0  0  0  0  0  0  0  0  0  0
   -1.2614   -0.7982   -0.5937 O   0  0  0  0  0  0  0  0  0  0  0  0
   -2.5077    1.1469   -0.7566 N   0  0  0  0  0  0  0  0  0  0  0  0
   -3.8003    0.6229   -0.3020 C   0  0  0  0  0  0  0  0  0  0  0  0
   -4.3529   -0.4559   -1.2663 C   0  0  0  0  0  0  0  0  0  0  0  0
   -5.7345   -0.9451   -0.7957 C   0  0  0  0  0  0  0  0  0  0  0  0
   -5.6093   -1.5334    0.6205 C   0  0  0  0  0  0  0  0  0  0  0  0
   -5.0957   -0.4606    1.5963 C   0  0  0  0  0  0  0  0  0  0  0  0
   -6.0760    0.7224    1.6118 C   0  0  0  0  0  0  0  0  0  0  0  0
   -6.1981    1.3202    0.2015 C   0  0  0  0  0  0  0  0  0  0  0  0
   -6.7108    0.2418   -0.7665 C   0  0  0  0  0  0  0  0  0  0  0  0
   -4.8135    1.7991   -0.2638 C   0  0  0  0  0  0  0  0  0  0  0  0
   -3.7138    0.0296    1.1280 C   0  0  0  0  0  0  0  0  0  0  0  0
    3.5259   -0.0757   -1.4177 H   0  0  0  0  0  0  0  0  0  0  0  0
    2.8440   -0.5726    0.1459 H   0  0  0  0  0  0  0  0  0  0  0  0
    4.5174    1.9691   -0.2608 H   0  0  0  0  0  0  0  0  0  0  0  0
    3.8894    1.3711    1.2616 H   0  0  0  0  0  0  0  0  0  0  0  0
    6.1964    0.8831    1.1809 H   0  0  0  0  0  0  0  0  0  0  0  0
    5.7287   -0.0918   -1.6445 H   0  0  0  0  0  0  0  0  0  0  0  0
    6.9463    0.9732   -0.9819 H   0  0  0  0  0  0  0  0  0  0  0  0
    6.8599   -2.0279   -1.1000 H   0  0  0  0  0  0  0  0  0  0  0  0
    8.2095   -0.9371   -1.3781 H   0  0  0  0  0  0  0  0  0  0  0  0
    8.3726   -0.5115    1.0742 H   0  0  0  0  0  0  0  0  0  0  0  0
    8.5667   -2.2187    0.7079 H   0  0  0  0  0  0  0  0  0  0  0  0
    6.5414   -2.8142    1.6930 H   0  0  0  0  0  0  0  0  0  0  0  0
    6.9583   -1.4132    2.6610 H   0  0  0  0  0  0  0  0  0  0  0  0
    4.7371   -0.9368    2.1354 H   0  0  0  0  0  0  0  0  0  0  0  0
    4.8152   -1.7685    0.5870 H   0  0  0  0  0  0  0  0  0  0  0  0
    0.8883   -0.5266   -1.2931 H   0  0  0  0  0  0  0  0  0  0  0  0
   -0.2756    2.0988   -1.0674 H   0  0  0  0  0  0  0  0  0  0  0  0
   -2.5450    1.9154   -1.4118 H   0  0  0  0  0  0  0  0  0  0  0  0
   -4.4272   -0.0503   -2.2843 H   0  0  0  0  0  0  0  0  0  0  0  0
   -3.6700   -1.3117   -1.3265 H   0  0  0  0  0  0  0  0  0  0  0  0
   -6.1081   -1.7130   -1.4827 H   0  0  0  0  0  0  0  0  0  0  0  0
   -6.5838   -1.9086    0.9567 H   0  0  0  0  0  0  0  0  0  0  0  0
   -4.9245   -2.3903    0.6114 H   0  0  0  0  0  0  0  0  0  0  0  0
   -5.0142   -0.8854    2.6033 H   0  0  0  0  0  0  0  0  0  0  0  0
   -7.0600    0.3899    1.9646 H   0  0  0  0  0  0  0  0  0  0  0  0
   -5.7275    1.4887    2.3152 H   0  0  0  0  0  0  0  0  0  0  0  0
   -6.8960    2.1648    0.2171 H   0  0  0  0  0  0  0  0  0  0  0  0
   -7.7059   -0.0990   -0.4547 H   0  0  0  0  0  0  0  0  0  0  0  0
   -6.8198    0.6625   -1.7738 H   0  0  0  0  0  0  0  0  0  0  0  0
   -4.8980    2.2569   -1.2590 H   0  0  0  0  0  0  0  0  0  0  0  0
   -4.4487    2.5897    0.4065 H   0  0  0  0  0  0  0  0  0  0  0  0
   -3.0101   -0.8099    1.1652 H   0  0  0  0  0  0  0  0  0  0  0  0
   -3.3284    0.7843    1.8263 H   0  0  0  0  0  0  0  0  0  0  0  0
  1  2  2  0
  2  3  1  0
  3  4  1  0
  4  5  1  0
  5  6  1  0
  6  7  1  0
  7  8  1  0
  8  9  1  0
  9 10  1  0
  2 11  1  0
 11 12  1  0
 12 13  1  0
 13 14  2  0
 13 15  1  0
 15 16  1  0
 16 17  1  0
 17 18  1  0
 18 19  1  0
 19 20  1  0
 20 21  1  0
 21 22  1  0
 22 23  1  0
 22 24  1  0
 20 25  1  0
 10  5  1  0
 24 16  1  0
 25 16  1  0
 23 18  1  0
  3 26  1  0
  3 27  1  0
  4 28  1  0
  4 29  1  0
  5 30  1  0
  6 31  1  0
  6 32  1  0
  7 33  1  0
  7 34  1  0
  8 35  1  0
  8 36  1  0
  9 37  1  0
  9 38  1  0
 10 39  1  0
 10 40  1  0
 11 41  1  0
 12 42  1  0
 15 43  1  0
 17 44  1  0
 17 45  1  0
 18 46  1  0
 19 47  1  0
 19 48  1  0
 20 49  1  0
 21 50  1  0
 21 51  1  0
 22 52  1  0
 23 53  1  0
 23 54  1  0
 24 55  1  0
 24 56  1  0
 25 57  1  0
 25 58  1  0
M  END
$$$$
