
     RDKit          3D

 47 49  0  0  0  0  0  0  0  0999 V2000
    5.4031   -0.6876   -2.4920 C   0  0  0  0  0  0  0  0  0  0  0  0
    4.3850   -0.2927   -1.5804 O   0  0  0  0  0  0  0  0  0  0  0  0
    4.7266    0.6468   -0.6328 C   0  0  0  0  0  0  0  0  0  0  0  0
    5.9841    1.2478   -0.5191 C   0  0  0  0  0  0  0  0  0  0  0  0
    6.2207    2.1934    0.4808 C   0  0  0  0  0  0  0  0  0  0  0  0
    5.2049    2.5440    1.3662 C   0  0  0  0  0  0  0  0  0  0  0  0
    3.9458    1.9501    1.2604 C   0  0  0  0  0  0  0  0  0  0  0  0
    3.6984    0.9975    0.2699 C   0  0  0  0  0  0  0  0  0  0  0  0
    2.4494    0.3612    0.0929 N   0  0  0  0  0  0  0  0  0  0  0  0
    1.3516    0.3870    0.9178 C   0  0  0  0  0  0  0  0  0  0  0  0
    1.3202    0.9122    2.0280 O   0  0  0  0  0  0  0  0  0  0  0  0
    0.2277   -0.2594    0.3932 N   0  0  0  0  0  0  0  0  0  0  0  0
    0.0765   -0.6200   -1.0173 C   0  0  0  0  0  0  0  0  0  0  0  0
   -1.3811   -0.7208   -1.4482 C   0  0  0  0  0  0  0  0  0  0  0  0
   -2.1458   -1.7140   -0.5721 C   0  0  0  0  0  0  0  0  0  0  0  0
   -3.6372   -1.6828   -0.9032 C   0  0  0  0  0  0  0  0  0  0  0  0
   -4.0773   -2.3008   -1.8736 O   0  0  0  0  0  0  0  0  0  0  0  0
   -4.6053   -0.9130   -0.0822 C   0  0  0  0  0  0  0  0  0  0  0  0
   -4.3652    0.4071    0.3124 C   0  0  0  0  0  0  0  0  0  0  0  0
   -5.3160    1.0850    1.0799 C   0  0  0  0  0  0  0  0  0  0  0  0
   -6.5006    0.4466    1.4332 C   0  0  0  0  0  0  0  0  0  0  0  0
   -7.4088    1.1022    2.1668 F   0  0  0  0  0  0  0  0  0  0  0  0
   -6.7600   -0.8572    1.0272 C   0  0  0  0  0  0  0  0  0  0  0  0
   -5.8129   -1.5384    0.2612 C   0  0  0  0  0  0  0  0  0  0  0  0
   -1.7747   -1.6264    0.9163 C   0  0  0  0  0  0  0  0  0  0  0  0
   -0.9401   -0.3954    1.2584 C   0  0  0  0  0  0  0  0  0  0  0  0
    6.2446   -1.1524   -1.9678 H   0  0  0  0  0  0  0  0  0  0  0  0
    4.9756   -1.4379   -3.1641 H   0  0  0  0  0  0  0  0  0  0  0  0
    5.7334    0.1574   -3.1050 H   0  0  0  0  0  0  0  0  0  0  0  0
    6.8010    1.0054   -1.1898 H   0  0  0  0  0  0  0  0  0  0  0  0
    7.1992    2.6592    0.5682 H   0  0  0  0  0  0  0  0  0  0  0  0
    5.3880    3.2825    2.1428 H   0  0  0  0  0  0  0  0  0  0  0  0
    3.1747    2.2544    1.9612 H   0  0  0  0  0  0  0  0  0  0  0  0
    2.4575   -0.3258   -0.6475 H   0  0  0  0  0  0  0  0  0  0  0  0
    0.5816   -1.5826   -1.1600 H   0  0  0  0  0  0  0  0  0  0  0  0
    0.5857    0.1223   -1.6417 H   0  0  0  0  0  0  0  0  0  0  0  0
   -1.4351   -1.0312   -2.4989 H   0  0  0  0  0  0  0  0  0  0  0  0
   -1.8423    0.2722   -1.4026 H   0  0  0  0  0  0  0  0  0  0  0  0
   -1.8348   -2.7247   -0.8805 H   0  0  0  0  0  0  0  0  0  0  0  0
   -3.4653    0.9339    0.0152 H   0  0  0  0  0  0  0  0  0  0  0  0
   -5.1466    2.1103    1.3957 H   0  0  0  0  0  0  0  0  0  0  0  0
   -7.6968   -1.3314    1.3028 H   0  0  0  0  0  0  0  0  0  0  0  0
   -6.0171   -2.5551   -0.0702 H   0  0  0  0  0  0  0  0  0  0  0  0
   -1.1715   -2.5115    1.1635 H   0  0  0  0  0  0  0  0  0  0  0  0
   -2.6497   -1.6802    1.5717 H   0  0  0  0  0  0  0  0  0  0  0  0
   -0.6247   -0.4575    2.3061 H   0  0  0  0  0  0  0  0  0  0  0  0
   -1.5262    0.5233    1.1573 H   0  0  0  0  0  0  0  0  0  0  0  0
  1  2  1  0
  2  3  1  0
  3  4  2  0
  4  5  1  0
  5  6  2  0
  6  7  1  0
  7  8  2  0
  8  9  1  0
  9 10  1  0
 10 11  2  0
 10 12  1  0
 12 13  1  0
 13 14  1  0
 14 15  1  0
 15 16  1  0
 16 17  2  0
 16 18  1  0
 18 19  2  0
 19 20  1  0
 20 21  2  0
 21 22  1  0
 21 23  1  0
 23 24  2  0
 15 25  1  0
 25 26  1  0
  8  3  1  0
 26 12  1  0
 24 18  1  0
  1 27  1  0
  1 28  1  0
  1 29  1  0
  4 30  1  0
  5 31  1  0
  6 32  1  0
  7 33  1  0
  9 34  1  0
 13 35  1  0
 13 36  1  0
 14 37  1  0
 14 38  1  0
 15 39  1  0
 19 40  1  0
 20 41  1  0
 23 42  1  0
 24 43  1  0
 25 44  1  0
 25 45  1  0
 26 46  1  0
 26 47  1  0
M  END
$$$$
