
     RDKit          3D

 58 62  0  0  0  0  0  0  0  0999 V2000
   -5.2939   -1.9325   -1.9900 C   0  0  0  0  0  0  0  0  0  0  0  0
   -4.7354   -1.0127   -1.0618 O   0  0  0  0  0  0  0  0  0  0  0  0
   -4.2737    0.1825   -1.5473 C   0  0  0  0  0  0  0  0  0  0  0  0
   -4.4191    0.6102   -2.8746 C   0  0  0  0  0  0  0  0  0  0  0  0
   -3.9212    1.8521   -3.2815 C   0  0  0  0  0  0  0  0  0  0  0  0
   -3.2706    2.6769   -2.3659 C   0  0  0  0  0  0  0  0  0  0  0  0
   -3.1238    2.2616   -1.0416 C   0  0  0  0  0  0  0  0  0  0  0  0
   -3.6255    1.0165   -0.6145 C   0  0  0  0  0  0  0  0  0  0  0  0
   -3.4691    0.6181    0.8379 C   0  0  0  0  0  0  0  0  0  0  0  0
   -2.6039   -0.5377    1.0586 N   0  0  0  0  0  0  0  0  0  0  0  0
   -3.1270   -1.6692    1.6730 C   0  0  0  0  0  0  0  0  0  0  0  0
   -4.2837   -1.7512    2.0904 O   0  0  0  0  0  0  0  0  0  0  0  0
   -2.2280   -2.8445    1.8580 C   0  0  0  0  0  0  0  0  0  0  0  0
   -2.7536   -3.9945    2.4700 C   0  0  0  0  0  0  0  0  0  0  0  0
   -1.9484   -5.1080    2.6783 C   0  0  0  0  0  0  0  0  0  0  0  0
   -0.6181   -5.0818    2.2812 C   0  0  0  0  0  0  0  0  0  0  0  0
   -0.0842   -3.9437    1.6697 C   0  0  0  0  0  0  0  0  0  0  0  0
   -0.8856   -2.8171    1.4515 C   0  0  0  0  0  0  0  0  0  0  0  0
   -0.4296   -1.6164    0.8562 N   0  0  0  0  0  0  0  0  0  0  0  0
    0.7704   -1.1902    0.3144 C   0  0  0  0  0  0  0  0  0  0  0  0
    2.2062   -2.1336    0.0980 S   0  0  0  0  0  0  0  0  0  0  0  0
    3.3628   -0.8848   -0.5436 C   0  0  0  0  0  0  0  0  0  0  0  0
    3.7980    0.1092    0.5327 C   0  0  0  0  0  0  0  0  0  0  0  0
    3.8962   -0.2219    1.7162 O   0  0  0  0  0  0  0  0  0  0  0  0
    4.1605    1.3858    0.1070 N   0  0  0  0  0  0  0  0  0  0  0  0
    3.9650    1.8740   -1.2631 C   0  0  0  0  0  0  0  0  0  0  0  0
    4.3163    3.3500   -1.4255 C   0  0  0  0  0  0  0  0  0  0  0  0
    5.7054    3.6604   -0.8756 C   0  0  0  0  0  0  0  0  0  0  0  0
    5.9709    3.0013    0.4828 C   0  0  0  0  0  0  0  0  0  0  0  0
    4.7332    2.3234    1.0679 C   0  0  0  0  0  0  0  0  0  0  0  0
    0.6675    0.0597   -0.0771 N   0  0  0  0  0  0  0  0  0  0  0  0
   -0.6049    0.4808    0.1674 N   0  0  0  0  0  0  0  0  0  0  0  0
   -1.2672   -0.5252    0.7007 C   0  0  0  0  0  0  0  0  0  0  0  0
   -4.5695   -2.2009   -2.7685 H   0  0  0  0  0  0  0  0  0  0  0  0
   -6.2128   -1.5346   -2.4276 H   0  0  0  0  0  0  0  0  0  0  0  0
   -5.5523   -2.8481   -1.4441 H   0  0  0  0  0  0  0  0  0  0  0  0
   -4.9217    0.0036   -3.6235 H   0  0  0  0  0  0  0  0  0  0  0  0
   -4.0444    2.1749   -4.3167 H   0  0  0  0  0  0  0  0  0  0  0  0
   -2.8760    3.6417   -2.6852 H   0  0  0  0  0  0  0  0  0  0  0  0
   -2.6045    2.9142   -0.3384 H   0  0  0  0  0  0  0  0  0  0  0  0
   -3.0506    1.4435    1.4204 H   0  0  0  0  0  0  0  0  0  0  0  0
   -4.4689    0.4484    1.2515 H   0  0  0  0  0  0  0  0  0  0  0  0
   -3.7922   -4.0227    2.7944 H   0  0  0  0  0  0  0  0  0  0  0  0
   -2.3595   -5.9899    3.1660 H   0  0  0  0  0  0  0  0  0  0  0  0
    0.0155   -5.9505    2.4512 H   0  0  0  0  0  0  0  0  0  0  0  0
    0.9625   -3.9947    1.4024 H   0  0  0  0  0  0  0  0  0  0  0  0
    4.2675   -1.3939   -0.8946 H   0  0  0  0  0  0  0  0  0  0  0  0
    2.8980   -0.4071   -1.4121 H   0  0  0  0  0  0  0  0  0  0  0  0
    4.5861    1.2518   -1.9170 H   0  0  0  0  0  0  0  0  0  0  0  0
    2.9161    1.7262   -1.5484 H   0  0  0  0  0  0  0  0  0  0  0  0
    3.5813    3.9556   -0.8861 H   0  0  0  0  0  0  0  0  0  0  0  0
    4.2505    3.6472   -2.4796 H   0  0  0  0  0  0  0  0  0  0  0  0
    5.8269    4.7473   -0.7945 H   0  0  0  0  0  0  0  0  0  0  0  0
    6.4684    3.3194   -1.5894 H   0  0  0  0  0  0  0  0  0  0  0  0
    6.7586    2.2476    0.3473 H   0  0  0  0  0  0  0  0  0  0  0  0
    6.3654    3.7447    1.1853 H   0  0  0  0  0  0  0  0  0  0  0  0
    5.0051    1.8195    1.9975 H   0  0  0  0  0  0  0  0  0  0  0  0
    3.9644    3.0593    1.3176 H   0  0  0  0  0  0  0  0  0  0  0  0
  1  2  1  0
  2  3  1  0
  3  4  2  0
  4  5  1  0
  5  6  2  0
  6  7  1  0
  7  8  2  0
  8  9  1  0
  9 10  1  0
 10 11  1  0
 11 12  2  0
 11 13  1  0
 13 14  2  0
 14 15  1  0
 15 16  2  0
 16 17  1  0
 17 18  2  0
 18 19  1  0
 19 20  1  0
 20 21  1  0
 21 22  1  0
 22 23  1  0
 23 24  2  0
 23 25  1  0
 25 26  1  0
 26 27  1  0
 27 28  1  0
 28 29  1  0
 29 30  1  0
 20 31  2  0
 31 32  1  0
 32 33  2  0
  8  3  1  0
 33 10  1  0
 18 13  1  0
 33 19  1  0
 30 25  1  0
  1 34  1  0
  1 35  1  0
  1 36  1  0
  4 37  1  0
  5 38  1  0
  6 39  1  0
  7 40  1  0
  9 41  1  0
  9 42  1  0
 14 43  1  0
 15 44  1  0
 16 45  1  0
 17 46  1  0
 22 47  1  0
 22 48  1  0
 26 49  1  0
 26 50  1  0
 27 51  1  0
 27 52  1  0
 28 53  1  0
 28 54  1  0
 29 55  1  0
 29 56  1  0
 30 57  1  0
 30 58  1  0
M  END
$$$$
