
     RDKit          3D

 42 44  0  0  0  0  0  0  0  0999 V2000
   -2.0915    2.7586   -0.1683 C   0  0  0  0  0  0  0  0  0  0  0  0
   -1.6120    1.3591    0.1851 C   0  0  0  0  0  0  0  0  0  0  0  0
   -2.0403    0.3706   -0.7828 N   0  0  0  0  0  0  0  0  0  0  0  0
   -1.3797   -0.0528   -1.9026 C   0  0  0  0  0  0  0  0  0  0  0  0
    0.2035    0.4585   -2.3692 S   0  0  0  0  0  0  0  0  0  0  0  0
    1.1196   -1.0524   -1.9378 C   0  0  0  0  0  0  0  0  0  0  0  0
    1.5065   -1.0028   -0.4709 C   0  0  0  0  0  0  0  0  0  0  0  0
    0.6743   -1.1413    0.4280 O   0  0  0  0  0  0  0  0  0  0  0  0
    2.9329   -0.7759   -0.0969 C   0  0  0  0  0  0  0  0  0  0  0  0
    3.8288   -0.0997   -0.9321 C   0  0  0  0  0  0  0  0  0  0  0  0
    5.1546    0.0896   -0.5290 C   0  0  0  0  0  0  0  0  0  0  0  0
    5.5970   -0.3783    0.7154 C   0  0  0  0  0  0  0  0  0  0  0  0
    7.0277   -0.1843    1.1274 C   0  0  0  0  0  0  0  0  0  0  0  0
    4.6968   -1.0501    1.5495 C   0  0  0  0  0  0  0  0  0  0  0  0
    3.3717   -1.2404    1.1502 C   0  0  0  0  0  0  0  0  0  0  0  0
   -2.1115   -0.9225   -2.5581 N   0  0  0  0  0  0  0  0  0  0  0  0
   -3.2821   -1.0860   -1.8590 N   0  0  0  0  0  0  0  0  0  0  0  0
   -3.2291   -0.3309   -0.7749 C   0  0  0  0  0  0  0  0  0  0  0  0
   -4.2695   -0.2393    0.2385 C   0  0  0  0  0  0  0  0  0  0  0  0
   -5.4890    0.3748   -0.0660 C   0  0  0  0  0  0  0  0  0  0  0  0
   -6.4598    0.4286    0.9192 C   0  0  0  0  0  0  0  0  0  0  0  0
   -6.2947   -0.0820    2.1604 N   0  0  0  0  0  0  0  0  0  0  0  0
   -5.1120   -0.6875    2.4239 C   0  0  0  0  0  0  0  0  0  0  0  0
   -4.0798   -0.7934    1.5068 C   0  0  0  0  0  0  0  0  0  0  0  0
   -1.7055    3.0755   -1.1435 H   0  0  0  0  0  0  0  0  0  0  0  0
   -3.1847    2.8052   -0.2112 H   0  0  0  0  0  0  0  0  0  0  0  0
   -1.7506    3.4776    0.5839 H   0  0  0  0  0  0  0  0  0  0  0  0
   -1.9864    1.0673    1.1715 H   0  0  0  0  0  0  0  0  0  0  0  0
   -0.5207    1.3395    0.2532 H   0  0  0  0  0  0  0  0  0  0  0  0
    0.5220   -1.9551   -2.1108 H   0  0  0  0  0  0  0  0  0  0  0  0
    1.9957   -1.1423   -2.5842 H   0  0  0  0  0  0  0  0  0  0  0  0
    3.5222    0.3084   -1.8923 H   0  0  0  0  0  0  0  0  0  0  0  0
    5.8426    0.6143   -1.1901 H   0  0  0  0  0  0  0  0  0  0  0  0
    7.3415    0.8497    0.9427 H   0  0  0  0  0  0  0  0  0  0  0  0
    7.1668   -0.3820    2.1982 H   0  0  0  0  0  0  0  0  0  0  0  0
    7.6755   -0.8653    0.5657 H   0  0  0  0  0  0  0  0  0  0  0  0
    5.0185   -1.4278    2.5186 H   0  0  0  0  0  0  0  0  0  0  0  0
    2.6842   -1.7587    1.8168 H   0  0  0  0  0  0  0  0  0  0  0  0
   -5.6809    0.7975   -1.0494 H   0  0  0  0  0  0  0  0  0  0  0  0
   -7.4275    0.8939    0.7302 H   0  0  0  0  0  0  0  0  0  0  0  0
   -5.0158   -1.1065    3.4228 H   0  0  0  0  0  0  0  0  0  0  0  0
   -3.1592   -1.3109    1.7720 H   0  0  0  0  0  0  0  0  0  0  0  0
  1  2  1  0
  2  3  1  0
  3  4  1  0
  4  5  1  0
  5  6  1  0
  6  7  1  0
  7  8  2  0
  7  9  1  0
  9 10  2  0
 10 11  1  0
 11 12  2  0
 12 13  1  0
 12 14  1  0
 14 15  2  0
  4 16  2  0
 16 17  1  0
 17 18  2  0
 18 19  1  0
 19 20  2  0
 20 21  1  0
 21 22  2  0
 22 23  1  0
 23 24  2  0
 18  3  1  0
 24 19  1  0
 15  9  1  0
  1 25  1  0
  1 26  1  0
  1 27  1  0
  2 28  1  0
  2 29  1  0
  6 30  1  0
  6 31  1  0
 10 32  1  0
 11 33  1  0
 13 34  1  0
 13 35  1  0
 13 36  1  0
 14 37  1  0
 15 38  1  0
 20 39  1  0
 21 40  1  0
 23 41  1  0
 24 42  1  0
M  END
$$$$
