
     RDKit          3D

 52 56  0  0  0  0  0  0  0  0999 V2000
    7.2298    0.5594   -1.1826 C   0  0  0  0  0  0  0  0  0  0  0  0
    6.3129   -0.5202   -1.7310 C   0  0  0  0  0  0  0  0  0  0  0  0
    4.9434   -0.1510   -1.5759 O   0  0  0  0  0  0  0  0  0  0  0  0
    4.2969   -0.4746   -0.4182 C   0  0  0  0  0  0  0  0  0  0  0  0
    4.8567   -1.0704    0.7062 C   0  0  0  0  0  0  0  0  0  0  0  0
    4.0598   -1.3399    1.8275 C   0  0  0  0  0  0  0  0  0  0  0  0
    2.7089   -1.0259    1.8604 C   0  0  0  0  0  0  0  0  0  0  0  0
    1.9897   -1.3128    2.9548 N   0  0  0  0  0  0  0  0  0  0  0  0
    0.6798   -0.9798    2.9565 C   0  0  0  0  0  0  0  0  0  0  0  0
   -0.1116   -1.4614    4.4092 Cl  0  0  0  0  0  0  0  0  0  0  0  0
    0.0098   -0.3663    1.9033 C   0  0  0  0  0  0  0  0  0  0  0  0
   -1.4727   -0.0631    1.9722 C   0  0  0  0  0  0  0  0  0  0  0  0
   -2.3037   -1.2668    1.5380 C   0  0  0  0  0  0  0  0  0  0  0  0
   -2.9099   -0.7360    0.2660 C   0  0  0  0  0  0  0  0  0  0  0  0
   -3.7121   -1.5962   -0.6350 C   0  0  0  0  0  0  0  0  0  0  0  0
   -3.9922   -2.9296   -0.3159 C   0  0  0  0  0  0  0  0  0  0  0  0
   -4.7504   -3.7128   -1.1905 C   0  0  0  0  0  0  0  0  0  0  0  0
   -5.2307   -3.1692   -2.3813 C   0  0  0  0  0  0  0  0  0  0  0  0
   -4.9561   -1.8411   -2.7022 C   0  0  0  0  0  0  0  0  0  0  0  0
   -4.1991   -1.0551   -1.8316 C   0  0  0  0  0  0  0  0  0  0  0  0
   -2.7048    0.5270    0.0430 N   0  0  0  0  0  0  0  0  0  0  0  0
   -1.8987    0.9903    1.0519 N   0  0  0  0  0  0  0  0  0  0  0  0
   -1.6700    2.3459    1.3098 C   0  0  0  0  0  0  0  0  0  0  0  0
   -1.1631    2.6880    2.3828 O   0  0  0  0  0  0  0  0  0  0  0  0
   -2.0667    3.3395    0.3176 C   0  0  0  0  0  0  0  0  0  0  0  0
   -2.5758    4.6001    0.5803 C   0  0  0  0  0  0  0  0  0  0  0  0
   -2.8115    5.3572   -0.6032 C   0  0  0  0  0  0  0  0  0  0  0  0
   -2.4403    4.6666   -1.7341 C   0  0  0  0  0  0  0  0  0  0  0  0
   -1.7982    3.1265   -1.3626 S   0  0  0  0  0  0  0  0  0  0  0  0
    0.7778   -0.0988    0.7614 C   0  0  0  0  0  0  0  0  0  0  0  0
    2.1429   -0.4177    0.7260 C   0  0  0  0  0  0  0  0  0  0  0  0
    2.9395   -0.1477   -0.4010 C   0  0  0  0  0  0  0  0  0  0  0  0
    7.0919    0.6935   -0.1056 H   0  0  0  0  0  0  0  0  0  0  0  0
    7.0095    1.5237   -1.6526 H   0  0  0  0  0  0  0  0  0  0  0  0
    8.2776    0.3083   -1.3705 H   0  0  0  0  0  0  0  0  0  0  0  0
    6.4888   -0.6065   -2.8094 H   0  0  0  0  0  0  0  0  0  0  0  0
    6.5317   -1.5086   -1.3124 H   0  0  0  0  0  0  0  0  0  0  0  0
    5.9071   -1.3346    0.7587 H   0  0  0  0  0  0  0  0  0  0  0  0
    4.5101   -1.8063    2.7012 H   0  0  0  0  0  0  0  0  0  0  0  0
   -1.7439    0.2611    2.9835 H   0  0  0  0  0  0  0  0  0  0  0  0
   -1.7224   -2.1762    1.3618 H   0  0  0  0  0  0  0  0  0  0  0  0
   -3.1063   -1.4689    2.2552 H   0  0  0  0  0  0  0  0  0  0  0  0
   -3.6375   -3.3825    0.6049 H   0  0  0  0  0  0  0  0  0  0  0  0
   -4.9684   -4.7490   -0.9425 H   0  0  0  0  0  0  0  0  0  0  0  0
   -5.8208   -3.7807   -3.0598 H   0  0  0  0  0  0  0  0  0  0  0  0
   -5.3311   -1.4153   -3.6297 H   0  0  0  0  0  0  0  0  0  0  0  0
   -3.9928   -0.0193   -2.0951 H   0  0  0  0  0  0  0  0  0  0  0  0
   -2.7742    4.9543    1.5855 H   0  0  0  0  0  0  0  0  0  0  0  0
   -3.2212    6.3597   -0.6218 H   0  0  0  0  0  0  0  0  0  0  0  0
   -2.4995    4.9969   -2.7620 H   0  0  0  0  0  0  0  0  0  0  0  0
    0.3184    0.3607   -0.1128 H   0  0  0  0  0  0  0  0  0  0  0  0
    2.5030    0.3253   -1.2788 H   0  0  0  0  0  0  0  0  0  0  0  0
  1  2  1  0
  2  3  1  0
  3  4  1  0
  4  5  2  0
  5  6  1  0
  6  7  2  0
  7  8  1  0
  8  9  2  0
  9 10  1  0
  9 11  1  0
 11 12  1  0
 12 13  1  0
 13 14  1  0
 14 15  1  0
 15 16  2  0
 16 17  1  0
 17 18  2  0
 18 19  1  0
 19 20  2  0
 14 21  2  0
 21 22  1  0
 22 23  1  0
 23 24  2  0
 23 25  1  0
 25 26  2  0
 26 27  1  0
 27 28  2  0
 28 29  1  0
 11 30  2  0
 30 31  1  0
 31 32  2  0
 32  4  1  0
 31  7  1  0
 22 12  1  0
 29 25  1  0
 20 15  1  0
  1 33  1  0
  1 34  1  0
  1 35  1  0
  2 36  1  0
  2 37  1  0
  5 38  1  0
  6 39  1  0
 12 40  1  0
 13 41  1  0
 13 42  1  0
 16 43  1  0
 17 44  1  0
 18 45  1  0
 19 46  1  0
 20 47  1  0
 26 48  1  0
 27 49  1  0
 28 50  1  0
 30 51  1  0
 32 52  1  0
M  END
$$$$
