
     RDKit          3D

 60 61  0  0  0  0  0  0  0  0999 V2000
    1.0224   -3.9452   -0.0881 C   0  0  0  0  0  0  0  0  0  0  0  0
    0.7693   -2.9531    0.9013 O   0  0  0  0  0  0  0  0  0  0  0  0
    1.0522   -1.6736    0.4984 C   0  0  0  0  0  0  0  0  0  0  0  0
    2.2439   -1.3512   -0.1612 C   0  0  0  0  0  0  0  0  0  0  0  0
    2.5162   -0.0313   -0.5179 C   0  0  0  0  0  0  0  0  0  0  0  0
    1.6086    0.9841   -0.1926 C   0  0  0  0  0  0  0  0  0  0  0  0
    1.8778    2.3996   -0.5463 C   0  0  0  0  0  0  0  0  0  0  0  0
    0.9323    3.1331   -0.8336 O   0  0  0  0  0  0  0  0  0  0  0  0
    3.2517    2.9630   -0.5279 C   0  0  0  0  0  0  0  0  0  0  0  0
    4.2130    2.5694    0.3227 C   0  0  0  0  0  0  0  0  0  0  0  0
    5.5483    3.1772    0.3701 C   0  0  0  0  0  0  0  0  0  0  0  0
    5.7375    4.5653    0.3016 C   0  0  0  0  0  0  0  0  0  0  0  0
    7.0182    5.1152    0.4053 C   0  0  0  0  0  0  0  0  0  0  0  0
    8.1108    4.2746    0.5859 C   0  0  0  0  0  0  0  0  0  0  0  0
    9.3762    4.7684    0.7019 O   0  0  0  0  0  0  0  0  0  0  0  0
    7.9422    2.8981    0.6608 C   0  0  0  0  0  0  0  0  0  0  0  0
    6.6616    2.3501    0.5593 C   0  0  0  0  0  0  0  0  0  0  0  0
    0.4015    0.6538    0.4473 C   0  0  0  0  0  0  0  0  0  0  0  0
   -0.5450    1.6105    0.7228 O   0  0  0  0  0  0  0  0  0  0  0  0
    0.1224   -0.6713    0.8294 C   0  0  0  0  0  0  0  0  0  0  0  0
   -1.1716   -1.0254    1.5357 C   0  0  0  0  0  0  0  0  0  0  0  0
   -2.2161   -1.5594    0.5864 C   0  0  0  0  0  0  0  0  0  0  0  0
   -2.9719   -2.6711    0.7174 C   0  0  0  0  0  0  0  0  0  0  0  0
   -2.9217   -3.6104    1.8927 C   0  0  0  0  0  0  0  0  0  0  0  0
   -3.9433   -3.0720   -0.3831 C   0  0  0  0  0  0  0  0  0  0  0  0
   -5.4069   -2.7072   -0.0966 C   0  0  0  0  0  0  0  0  0  0  0  0
   -5.6669   -1.2264   -0.1963 C   0  0  0  0  0  0  0  0  0  0  0  0
   -6.3434   -0.5612   -1.1537 C   0  0  0  0  0  0  0  0  0  0  0  0
   -6.5025    0.9354   -1.0753 C   0  0  0  0  0  0  0  0  0  0  0  0
   -6.9762   -1.1864   -2.3669 C   0  0  0  0  0  0  0  0  0  0  0  0
    0.4016   -4.8153    0.1451 H   0  0  0  0  0  0  0  0  0  0  0  0
    2.0698   -4.2590   -0.0482 H   0  0  0  0  0  0  0  0  0  0  0  0
    0.7590   -3.6044   -1.0966 H   0  0  0  0  0  0  0  0  0  0  0  0
    2.9766   -2.1189   -0.3922 H   0  0  0  0  0  0  0  0  0  0  0  0
    3.4364    0.1865   -1.0531 H   0  0  0  0  0  0  0  0  0  0  0  0
    3.3971    3.7896   -1.2193 H   0  0  0  0  0  0  0  0  0  0  0  0
    4.0439    1.7775    1.0503 H   0  0  0  0  0  0  0  0  0  0  0  0
    4.8889    5.2363    0.1845 H   0  0  0  0  0  0  0  0  0  0  0  0
    7.1382    6.1931    0.3512 H   0  0  0  0  0  0  0  0  0  0  0  0
    9.3295    5.7386    0.7233 H   0  0  0  0  0  0  0  0  0  0  0  0
    8.8042    2.2534    0.8079 H   0  0  0  0  0  0  0  0  0  0  0  0
    6.5442    1.2720    0.6277 H   0  0  0  0  0  0  0  0  0  0  0  0
   -0.3367    2.4114    0.1913 H   0  0  0  0  0  0  0  0  0  0  0  0
   -0.9377   -1.7278    2.3406 H   0  0  0  0  0  0  0  0  0  0  0  0
   -1.5825   -0.1444    2.0431 H   0  0  0  0  0  0  0  0  0  0  0  0
   -2.3557   -0.9479   -0.3061 H   0  0  0  0  0  0  0  0  0  0  0  0
   -2.2982   -3.2507    2.7134 H   0  0  0  0  0  0  0  0  0  0  0  0
   -2.5294   -4.5835    1.5782 H   0  0  0  0  0  0  0  0  0  0  0  0
   -3.9238   -3.7600    2.3041 H   0  0  0  0  0  0  0  0  0  0  0  0
   -3.8697   -4.1589   -0.5226 H   0  0  0  0  0  0  0  0  0  0  0  0
   -3.6364   -2.6343   -1.3437 H   0  0  0  0  0  0  0  0  0  0  0  0
   -5.6983   -3.0416    0.9070 H   0  0  0  0  0  0  0  0  0  0  0  0
   -6.0465   -3.2665   -0.7871 H   0  0  0  0  0  0  0  0  0  0  0  0
   -5.2443   -0.6516    0.6290 H   0  0  0  0  0  0  0  0  0  0  0  0
   -7.5623    1.2009   -1.0284 H   0  0  0  0  0  0  0  0  0  0  0  0
   -6.0123    1.3598   -0.1931 H   0  0  0  0  0  0  0  0  0  0  0  0
   -6.0616    1.4105   -1.9586 H   0  0  0  0  0  0  0  0  0  0  0  0
   -8.0668   -1.0941   -2.3125 H   0  0  0  0  0  0  0  0  0  0  0  0
   -6.7342   -2.2452   -2.4864 H   0  0  0  0  0  0  0  0  0  0  0  0
   -6.6337   -0.6782   -3.2766 H   0  0  0  0  0  0  0  0  0  0  0  0
  1  2  1  0
  2  3  1  0
  3  4  2  0
  4  5  1  0
  5  6  2  0
  6  7  1  0
  7  8  2  0
  7  9  1  0
  9 10  2  3
 10 11  1  0
 11 12  2  0
 12 13  1  0
 13 14  2  0
 14 15  1  0
 14 16  1  0
 16 17  2  0
  6 18  1  0
 18 19  1  0
 18 20  2  0
 20 21  1  0
 21 22  1  0
 22 23  2  3
 23 24  1  0
 23 25  1  0
 25 26  1  0
 26 27  1  0
 27 28  2  3
 28 29  1  0
 28 30  1  0
 20  3  1  0
 17 11  1  0
  1 31  1  0
  1 32  1  0
  1 33  1  0
  4 34  1  0
  5 35  1  0
  9 36  1  0
 10 37  1  0
 12 38  1  0
 13 39  1  0
 15 40  1  0
 16 41  1  0
 17 42  1  0
 19 43  1  0
 21 44  1  0
 21 45  1  0
 22 46  1  0
 24 47  1  0
 24 48  1  0
 24 49  1  0
 25 50  1  0
 25 51  1  0
 26 52  1  0
 26 53  1  0
 27 54  1  0
 29 55  1  0
 29 56  1  0
 29 57  1  0
 30 58  1  0
 30 59  1  0
 30 60  1  0
M  END
$$$$
