
     RDKit          3D

 52 54  0  0  0  0  0  0  0  0999 V2000
    4.4759    2.7030    4.2574 C   0  0  0  0  0  0  0  0  0  0  0  0
    5.2460    1.6911    3.4292 C   0  0  0  0  0  0  0  0  0  0  0  0
    4.5284    1.3864    2.2248 O   0  0  0  0  0  0  0  0  0  0  0  0
    3.5951    0.4005    2.3195 C   0  0  0  0  0  0  0  0  0  0  0  0
    3.3450   -0.2081    3.3534 O   0  0  0  0  0  0  0  0  0  0  0  0
    2.9603    0.1597    1.1131 N   0  0  0  0  0  0  0  0  0  0  0  0
    1.9958   -0.9295    1.0247 C   0  0  0  0  0  0  0  0  0  0  0  0
    1.9644   -1.5367   -0.3715 C   0  0  0  0  0  0  0  0  0  0  0  0
    1.6279   -0.4866   -1.4432 C   0  0  0  0  0  0  0  0  0  0  0  0
    0.2082   -0.5132   -1.7786 N   0  0  0  0  0  0  0  0  0  0  0  0
   -0.3369   -1.4633   -2.6161 C   0  0  0  0  0  0  0  0  0  0  0  0
    0.3485   -2.2952   -3.2079 O   0  0  0  0  0  0  0  0  0  0  0  0
   -1.8614   -1.4094   -2.7910 C   0  0  0  0  0  0  0  0  0  0  0  0
   -2.5741   -0.5264   -1.8521 N   0  0  0  0  0  0  0  0  0  0  0  0
   -2.7302    0.8091   -2.2197 C   0  0  0  0  0  0  0  0  0  0  0  0
   -2.3496    1.2515   -3.3045 O   0  0  0  0  0  0  0  0  0  0  0  0
   -3.2948    1.7524   -1.1829 C   0  0  0  0  0  0  0  0  0  0  0  0
   -4.8057    1.7910   -1.2130 C   0  0  0  0  0  0  0  0  0  0  0  0
   -5.6304    0.1729   -1.1707 S   0  0  0  0  0  0  0  0  0  0  0  0
   -4.4553   -0.7954   -0.2272 C   0  0  0  0  0  0  0  0  0  0  0  0
   -4.9543   -1.3932    0.9416 C   0  0  0  0  0  0  0  0  0  0  0  0
   -4.1831   -2.3003    1.6655 C   0  0  0  0  0  0  0  0  0  0  0  0
   -2.9157   -2.6423    1.2122 C   0  0  0  0  0  0  0  0  0  0  0  0
   -2.4118   -2.0656    0.0438 C   0  0  0  0  0  0  0  0  0  0  0  0
   -3.1550   -1.1153   -0.6801 C   0  0  0  0  0  0  0  0  0  0  0  0
    2.0419    0.9349   -1.0378 C   0  0  0  0  0  0  0  0  0  0  0  0
    3.2396    0.9286   -0.0976 C   0  0  0  0  0  0  0  0  0  0  0  0
    3.5082    2.2991    4.5724 H   0  0  0  0  0  0  0  0  0  0  0  0
    4.2691    3.6032    3.6692 H   0  0  0  0  0  0  0  0  0  0  0  0
    5.0426    2.9861    5.1491 H   0  0  0  0  0  0  0  0  0  0  0  0
    5.4657    0.7839    4.0042 H   0  0  0  0  0  0  0  0  0  0  0  0
    6.2079    2.1197    3.1278 H   0  0  0  0  0  0  0  0  0  0  0  0
    2.2363   -1.7034    1.7621 H   0  0  0  0  0  0  0  0  0  0  0  0
    1.0135   -0.5193    1.2890 H   0  0  0  0  0  0  0  0  0  0  0  0
    2.9593   -1.9483   -0.5889 H   0  0  0  0  0  0  0  0  0  0  0  0
    1.2649   -2.3798   -0.3981 H   0  0  0  0  0  0  0  0  0  0  0  0
    2.1742   -0.7632   -2.3546 H   0  0  0  0  0  0  0  0  0  0  0  0
   -0.4363    0.0448   -1.2337 H   0  0  0  0  0  0  0  0  0  0  0  0
   -2.2554   -2.4287   -2.7002 H   0  0  0  0  0  0  0  0  0  0  0  0
   -2.0551   -1.0783   -3.8178 H   0  0  0  0  0  0  0  0  0  0  0  0
   -2.9098    1.5018   -0.1877 H   0  0  0  0  0  0  0  0  0  0  0  0
   -2.9020    2.7556   -1.3920 H   0  0  0  0  0  0  0  0  0  0  0  0
   -5.1704    2.3820   -0.3660 H   0  0  0  0  0  0  0  0  0  0  0  0
   -5.1461    2.2956   -2.1240 H   0  0  0  0  0  0  0  0  0  0  0  0
   -5.9640   -1.1743    1.2852 H   0  0  0  0  0  0  0  0  0  0  0  0
   -4.5828   -2.7561    2.5683 H   0  0  0  0  0  0  0  0  0  0  0  0
   -2.3171   -3.3617    1.7661 H   0  0  0  0  0  0  0  0  0  0  0  0
   -1.4129   -2.3597   -0.2645 H   0  0  0  0  0  0  0  0  0  0  0  0
    2.2658    1.5241   -1.9352 H   0  0  0  0  0  0  0  0  0  0  0  0
    1.2081    1.4455   -0.5367 H   0  0  0  0  0  0  0  0  0  0  0  0
    3.5062    1.9579    0.1643 H   0  0  0  0  0  0  0  0  0  0  0  0
    4.1113    0.4729   -0.5819 H   0  0  0  0  0  0  0  0  0  0  0  0
  1  2  1  0
  2  3  1  0
  3  4  1  0
  4  5  2  0
  4  6  1  0
  6  7  1  0
  7  8  1  0
  8  9  1  0
  9 10  1  0
 10 11  1  0
 11 12  2  0
 11 13  1  0
 13 14  1  0
 14 15  1  0
 15 16  2  0
 15 17  1  0
 17 18  1  0
 18 19  1  0
 19 20  1  0
 20 21  2  0
 21 22  1  0
 22 23  2  0
 23 24  1  0
 24 25  2  0
  9 26  1  0
 26 27  1  0
 27  6  1  0
 25 14  1  0
 25 20  1  0
  1 28  1  0
  1 29  1  0
  1 30  1  0
  2 31  1  0
  2 32  1  0
  7 33  1  0
  7 34  1  0
  8 35  1  0
  8 36  1  0
  9 37  1  0
 10 38  1  0
 13 39  1  0
 13 40  1  0
 17 41  1  0
 17 42  1  0
 18 43  1  0
 18 44  1  0
 21 45  1  0
 22 46  1  0
 23 47  1  0
 24 48  1  0
 26 49  1  0
 26 50  1  0
 27 51  1  0
 27 52  1  0
M  END
$$$$
