
     RDKit          3D

 49 51  0  0  0  0  0  0  0  0999 V2000
    6.2261   -0.2755   -2.6026 C   0  0  0  0  0  0  0  0  0  0  0  0
    6.0772   -0.1748   -1.1121 C   0  0  0  0  0  0  0  0  0  0  0  0
    7.2046   -0.2385   -0.2839 C   0  0  0  0  0  0  0  0  0  0  0  0
    7.0701   -0.1533    1.1023 C   0  0  0  0  0  0  0  0  0  0  0  0
    5.8065   -0.0248    1.6700 C   0  0  0  0  0  0  0  0  0  0  0  0
    5.7576    0.0834    3.0342 O   0  0  0  0  0  0  0  0  0  0  0  0
    4.6608   -0.0127    0.8633 C   0  0  0  0  0  0  0  0  0  0  0  0
    3.3242    0.0911    1.5012 C   0  0  0  0  0  0  0  0  0  0  0  0
    3.2321    0.6609    2.5885 O   0  0  0  0  0  0  0  0  0  0  0  0
    2.1051   -0.4804    0.8964 C   0  0  0  0  0  0  0  0  0  0  0  0
    2.1124   -1.6857    0.2079 C   0  0  0  0  0  0  0  0  0  0  0  0
    1.0105   -2.2338   -0.3587 N   0  0  0  0  0  0  0  0  0  0  0  0
   -0.1532   -1.5722   -0.1921 C   0  0  0  0  0  0  0  0  0  0  0  0
   -0.2710   -0.3804    0.5002 C   0  0  0  0  0  0  0  0  0  0  0  0
    0.8842    0.1772    1.0551 C   0  0  0  0  0  0  0  0  0  0  0  0
   -1.5961    0.3003    0.5530 C   0  0  0  0  0  0  0  0  0  0  0  0
   -2.7130   -0.5730    0.2312 N   0  0  0  0  0  0  0  0  0  0  0  0
   -4.0629   -0.0530    0.4446 C   0  0  0  0  0  0  0  0  0  0  0  0
   -4.5193    0.8654   -0.6950 C   0  0  0  0  0  0  0  0  0  0  0  0
   -5.9520    1.4146   -0.5613 C   0  0  0  0  0  0  0  0  0  0  0  0
   -6.1299    2.2775    0.6877 C   0  0  0  0  0  0  0  0  0  0  0  0
   -7.0056    0.3078   -0.6017 C   0  0  0  0  0  0  0  0  0  0  0  0
   -2.5546   -1.6955   -0.5578 C   0  0  0  0  0  0  0  0  0  0  0  0
   -3.4948   -2.3139   -1.0530 O   0  0  0  0  0  0  0  0  0  0  0  0
   -1.2829   -2.1338   -0.7509 N   0  0  0  0  0  0  0  0  0  0  0  0
    4.8042   -0.0673   -0.5313 C   0  0  0  0  0  0  0  0  0  0  0  0
    5.4445    0.2978   -3.1120 H   0  0  0  0  0  0  0  0  0  0  0  0
    7.1900    0.1297   -2.9280 H   0  0  0  0  0  0  0  0  0  0  0  0
    6.1588   -1.3222   -2.9146 H   0  0  0  0  0  0  0  0  0  0  0  0
    8.1994   -0.3407   -0.7133 H   0  0  0  0  0  0  0  0  0  0  0  0
    7.9502   -0.1797    1.7397 H   0  0  0  0  0  0  0  0  0  0  0  0
    4.8516    0.3775    3.2791 H   0  0  0  0  0  0  0  0  0  0  0  0
    3.0161   -2.2774    0.0890 H   0  0  0  0  0  0  0  0  0  0  0  0
    0.8377    1.1165    1.6023 H   0  0  0  0  0  0  0  0  0  0  0  0
   -1.7629    0.6965    1.5612 H   0  0  0  0  0  0  0  0  0  0  0  0
   -1.5996    1.1316   -0.1608 H   0  0  0  0  0  0  0  0  0  0  0  0
   -4.7453   -0.9046    0.5367 H   0  0  0  0  0  0  0  0  0  0  0  0
   -4.0717    0.4721    1.4055 H   0  0  0  0  0  0  0  0  0  0  0  0
   -3.8280    1.7143   -0.7718 H   0  0  0  0  0  0  0  0  0  0  0  0
   -4.4366    0.3283   -1.6488 H   0  0  0  0  0  0  0  0  0  0  0  0
   -6.1254    2.0608   -1.4321 H   0  0  0  0  0  0  0  0  0  0  0  0
   -7.1116    2.7636    0.6810 H   0  0  0  0  0  0  0  0  0  0  0  0
   -5.3692    3.0640    0.7300 H   0  0  0  0  0  0  0  0  0  0  0  0
   -6.0617    1.6849    1.6055 H   0  0  0  0  0  0  0  0  0  0  0  0
   -6.8723   -0.3257   -1.4848 H   0  0  0  0  0  0  0  0  0  0  0  0
   -6.9625   -0.3295    0.2871 H   0  0  0  0  0  0  0  0  0  0  0  0
   -8.0117    0.7386   -0.6497 H   0  0  0  0  0  0  0  0  0  0  0  0
   -1.1662   -2.9966   -1.2603 H   0  0  0  0  0  0  0  0  0  0  0  0
    3.9362   -0.0094   -1.1841 H   0  0  0  0  0  0  0  0  0  0  0  0
  1  2  1  0
  2  3  2  0
  3  4  1  0
  4  5  2  0
  5  6  1  0
  5  7  1  0
  7  8  1  0
  8  9  2  0
  8 10  1  0
 10 11  2  0
 11 12  1  0
 12 13  2  0
 13 14  1  0
 14 15  2  0
 14 16  1  0
 16 17  1  0
 17 18  1  0
 18 19  1  0
 19 20  1  0
 20 21  1  0
 20 22  1  0
 17 23  1  0
 23 24  2  0
 23 25  1  0
  7 26  2  0
 26  2  1  0
 15 10  1  0
 25 13  1  0
  1 27  1  0
  1 28  1  0
  1 29  1  0
  3 30  1  0
  4 31  1  0
  6 32  1  0
 11 33  1  0
 15 34  1  0
 16 35  1  0
 16 36  1  0
 18 37  1  0
 18 38  1  0
 19 39  1  0
 19 40  1  0
 20 41  1  0
 21 42  1  0
 21 43  1  0
 21 44  1  0
 22 45  1  0
 22 46  1  0
 22 47  1  0
 25 48  1  0
 26 49  1  0
M  END
$$$$
