
     RDKit          3D

 61 61  0  0  0  0  0  0  0  0999 V2000
    8.0288    2.8955    1.1776 C   0  0  0  0  0  0  0  0  0  0  0  0
    6.9895    2.3584    2.1495 C   0  0  0  0  0  0  0  0  0  0  0  0
    5.8728    1.5618    1.4700 C   0  0  0  0  0  0  0  0  0  0  0  0
    6.3682    0.2720    0.8106 C   0  0  0  0  0  0  0  0  0  0  0  0
    5.2311   -0.6295    0.3162 C   0  0  0  0  0  0  0  0  0  0  0  0
    4.4074    0.0012   -0.8097 C   0  0  0  0  0  0  0  0  0  0  0  0
    3.4210   -0.9749   -1.4611 C   0  0  0  0  0  0  0  0  0  0  0  0
    2.2984   -1.4191   -0.5199 C   0  0  0  0  0  0  0  0  0  0  0  0
    1.3171   -2.4030   -1.1665 C   0  0  0  0  0  0  0  0  0  0  0  0
    0.5506   -1.8782   -2.3846 C   0  0  0  0  0  0  0  0  0  0  0  0
   -0.2580   -0.5969   -2.1584 C   0  0  0  0  0  0  0  0  0  0  0  0
   -1.2863   -0.6471   -1.0229 C   0  0  0  0  0  0  0  0  0  0  0  0
   -2.3725   -1.7050   -1.2331 C   0  0  0  0  0  0  0  0  0  0  0  0
   -3.3977   -1.7558   -0.0954 C   0  0  0  0  0  0  0  0  0  0  0  0
   -4.2748   -0.5069   -0.0087 C   0  0  0  0  0  0  0  0  0  0  0  0
   -5.3473   -0.6574    1.0659 C   0  0  0  0  0  0  0  0  0  0  0  0
   -6.1909    0.5389    1.1361 N   0  0  0  0  0  0  0  0  0  0  0  0
   -5.9771    1.6420    1.9475 C   0  0  0  0  0  0  0  0  0  0  0  0
   -6.9945    2.5187    1.6969 C   0  0  0  0  0  0  0  0  0  0  0  0
   -7.8059    1.9270    0.7432 N   0  0  0  0  0  4  0  0  0  0  0  0
   -9.0119    2.5056    0.1658 C   0  0  0  0  0  0  0  0  0  0  0  0
   -7.3026    0.7295    0.4094 C   0  0  0  0  0  0  0  0  0  0  0  0
    7.5592    3.4962    0.3923 H   0  0  0  0  0  0  0  0  0  0  0  0
    8.5918    2.0858    0.7045 H   0  0  0  0  0  0  0  0  0  0  0  0
    8.7454    3.5313    1.7074 H   0  0  0  0  0  0  0  0  0  0  0  0
    6.5381    3.2050    2.6806 H   0  0  0  0  0  0  0  0  0  0  0  0
    7.4837    1.7378    2.9060 H   0  0  0  0  0  0  0  0  0  0  0  0
    5.3785    2.1993    0.7283 H   0  0  0  0  0  0  0  0  0  0  0  0
    5.1201    1.3124    2.2279 H   0  0  0  0  0  0  0  0  0  0  0  0
    6.9645   -0.2962    1.5351 H   0  0  0  0  0  0  0  0  0  0  0  0
    7.0304    0.5076   -0.0302 H   0  0  0  0  0  0  0  0  0  0  0  0
    4.5837   -0.8843    1.1627 H   0  0  0  0  0  0  0  0  0  0  0  0
    5.6706   -1.5683   -0.0421 H   0  0  0  0  0  0  0  0  0  0  0  0
    3.8562    0.8708   -0.4341 H   0  0  0  0  0  0  0  0  0  0  0  0
    5.0879    0.3677   -1.5882 H   0  0  0  0  0  0  0  0  0  0  0  0
    3.9630   -1.8525   -1.8335 H   0  0  0  0  0  0  0  0  0  0  0  0
    2.9897   -0.4741   -2.3352 H   0  0  0  0  0  0  0  0  0  0  0  0
    2.7304   -1.9167    0.3559 H   0  0  0  0  0  0  0  0  0  0  0  0
    1.7609   -0.5419   -0.1428 H   0  0  0  0  0  0  0  0  0  0  0  0
    1.8677   -3.3029   -1.4689 H   0  0  0  0  0  0  0  0  0  0  0  0
    0.6018   -2.7324   -0.4035 H   0  0  0  0  0  0  0  0  0  0  0  0
    1.2533   -1.7030   -3.2081 H   0  0  0  0  0  0  0  0  0  0  0  0
   -0.1181   -2.6712   -2.7404 H   0  0  0  0  0  0  0  0  0  0  0  0
   -0.7766   -0.3484   -3.0931 H   0  0  0  0  0  0  0  0  0  0  0  0
    0.4300    0.2354   -1.9678 H   0  0  0  0  0  0  0  0  0  0  0  0
   -0.7826   -0.8170   -0.0649 H   0  0  0  0  0  0  0  0  0  0  0  0
   -1.7485    0.3442   -0.9568 H   0  0  0  0  0  0  0  0  0  0  0  0
   -2.8868   -1.5263   -2.1848 H   0  0  0  0  0  0  0  0  0  0  0  0
   -1.9096   -2.6956   -1.3037 H   0  0  0  0  0  0  0  0  0  0  0  0
   -2.8809   -1.9140    0.8588 H   0  0  0  0  0  0  0  0  0  0  0  0
   -4.0401   -2.6309   -0.2549 H   0  0  0  0  0  0  0  0  0  0  0  0
   -3.6652    0.3741    0.2195 H   0  0  0  0  0  0  0  0  0  0  0  0
   -4.7528   -0.3177   -0.9773 H   0  0  0  0  0  0  0  0  0  0  0  0
   -4.8940   -0.8202    2.0504 H   0  0  0  0  0  0  0  0  0  0  0  0
   -5.9949   -1.5157    0.8531 H   0  0  0  0  0  0  0  0  0  0  0  0
   -5.1207    1.6591    2.5994 H   0  0  0  0  0  0  0  0  0  0  0  0
   -7.2491    3.4936    2.0758 H   0  0  0  0  0  0  0  0  0  0  0  0
   -8.7398    3.0526   -0.7403 H   0  0  0  0  0  0  0  0  0  0  0  0
   -9.4787    3.1852    0.8835 H   0  0  0  0  0  0  0  0  0  0  0  0
   -9.7154    1.7067   -0.0823 H   0  0  0  0  0  0  0  0  0  0  0  0
   -7.7182    0.0399   -0.3166 H   0  0  0  0  0  0  0  0  0  0  0  0
  1  2  1  0
  2  3  1  0
  3  4  1  0
  4  5  1  0
  5  6  1  0
  6  7  1  0
  7  8  1  0
  8  9  1  0
  9 10  1  0
 10 11  1  0
 11 12  1  0
 12 13  1  0
 13 14  1  0
 14 15  1  0
 15 16  1  0
 16 17  1  0
 17 18  1  0
 18 19  2  0
 19 20  1  0
 20 21  1  0
 20 22  2  0
 22 17  1  0
  1 23  1  0
  1 24  1  0
  1 25  1  0
  2 26  1  0
  2 27  1  0
  3 28  1  0
  3 29  1  0
  4 30  1  0
  4 31  1  0
  5 32  1  0
  5 33  1  0
  6 34  1  0
  6 35  1  0
  7 36  1  0
  7 37  1  0
  8 38  1  0
  8 39  1  0
  9 40  1  0
  9 41  1  0
 10 42  1  0
 10 43  1  0
 11 44  1  0
 11 45  1  0
 12 46  1  0
 12 47  1  0
 13 48  1  0
 13 49  1  0
 14 50  1  0
 14 51  1  0
 15 52  1  0
 15 53  1  0
 16 54  1  0
 16 55  1  0
 18 56  1  0
 19 57  1  0
 21 58  1  0
 21 59  1  0
 21 60  1  0
 22 61  1  0
M  CHG  1  20   1
M  END
$$$$
