
     RDKit          3D

 53 55  0  0  0  0  0  0  0  0999 V2000
   -2.1469    1.0563   -1.3109 O   0  0  0  0  0  0  0  0  0  0  0  0
   -1.6295    0.1586   -0.6561 C   0  0  0  0  0  0  0  0  0  0  0  0
   -2.3205   -0.5785    0.2780 N   0  0  0  0  0  0  0  0  0  0  0  0
   -3.7141   -0.2607    0.6257 C   0  0  0  0  0  0  0  0  0  0  0  0
   -4.6869   -0.7510   -0.4585 C   0  0  0  0  0  0  0  0  0  0  0  0
   -5.9071    0.1314   -0.5869 C   0  0  0  0  0  0  0  0  0  0  0  0
   -5.8324    1.3261   -1.3173 C   0  0  0  0  0  0  0  0  0  0  0  0
   -6.9483    2.1556   -1.4331 C   0  0  0  0  0  0  0  0  0  0  0  0
   -8.1475    1.8012   -0.8183 C   0  0  0  0  0  0  0  0  0  0  0  0
   -8.2306    0.6181   -0.0861 C   0  0  0  0  0  0  0  0  0  0  0  0
   -7.1156   -0.2137    0.0305 C   0  0  0  0  0  0  0  0  0  0  0  0
   -4.0530   -0.9156    1.9717 C   0  0  0  0  0  0  0  0  0  0  0  0
   -5.1252   -0.9067    2.5536 O   0  0  0  0  0  0  0  0  0  0  0  0
   -2.9994   -1.5583    2.5389 O   0  0  0  0  0  0  0  0  0  0  0  0
   -0.1825   -0.1582   -0.8238 C   0  0  0  0  0  0  0  0  0  0  0  0
    0.6526    0.8295   -1.3681 C   0  0  0  0  0  0  0  0  0  0  0  0
    2.0144    0.5811   -1.5507 C   0  0  0  0  0  0  0  0  0  0  0  0
    2.5399   -0.6619   -1.1878 C   0  0  0  0  0  0  0  0  0  0  0  0
    4.2735   -0.9673   -1.4326 S   0  0  0  0  0  6  0  0  0  0  0  0
    4.5879   -0.5563   -2.7837 O   0  0  0  0  0  0  0  0  0  0  0  0
    4.5714   -2.3048   -0.9641 O   0  0  0  0  0  0  0  0  0  0  0  0
    5.0088    0.1294   -0.3460 N   0  0  0  0  0  0  0  0  0  0  0  0
    4.6595   -0.0598    1.0902 C   0  0  0  0  0  0  0  0  0  0  0  0
    5.5365    0.8219    1.9708 C   0  0  0  0  0  0  0  0  0  0  0  0
    7.0094    0.4359    1.8536 C   0  0  0  0  0  0  0  0  0  0  0  0
    7.3353   -0.1980    0.5034 C   0  0  0  0  0  0  0  0  0  0  0  0
    6.4606    0.3672   -0.6072 C   0  0  0  0  0  0  0  0  0  0  0  0
    1.7168   -1.6626   -0.6640 C   0  0  0  0  0  0  0  0  0  0  0  0
    0.3533   -1.4100   -0.4846 C   0  0  0  0  0  0  0  0  0  0  0  0
   -1.8173   -1.1279    0.9668 H   0  0  0  0  0  0  0  0  0  0  0  0
   -3.7625    0.8253    0.7708 H   0  0  0  0  0  0  0  0  0  0  0  0
   -4.1983   -0.7827   -1.4413 H   0  0  0  0  0  0  0  0  0  0  0  0
   -4.9983   -1.7858   -0.2631 H   0  0  0  0  0  0  0  0  0  0  0  0
   -4.8994    1.6167   -1.7993 H   0  0  0  0  0  0  0  0  0  0  0  0
   -6.8793    3.0789   -2.0018 H   0  0  0  0  0  0  0  0  0  0  0  0
   -9.0159    2.4481   -0.9073 H   0  0  0  0  0  0  0  0  0  0  0  0
   -9.1637    0.3437    0.3988 H   0  0  0  0  0  0  0  0  0  0  0  0
   -7.1967   -1.1279    0.6148 H   0  0  0  0  0  0  0  0  0  0  0  0
   -3.3759   -1.8950    3.3816 H   0  0  0  0  0  0  0  0  0  0  0  0
    0.2405    1.7958   -1.6552 H   0  0  0  0  0  0  0  0  0  0  0  0
    2.6559    1.3496   -1.9777 H   0  0  0  0  0  0  0  0  0  0  0  0
    4.7731   -1.1095    1.3833 H   0  0  0  0  0  0  0  0  0  0  0  0
    3.6148    0.2287    1.2437 H   0  0  0  0  0  0  0  0  0  0  0  0
    5.2192    0.7532    3.0174 H   0  0  0  0  0  0  0  0  0  0  0  0
    5.4132    1.8710    1.6722 H   0  0  0  0  0  0  0  0  0  0  0  0
    7.6251    1.3300    2.0087 H   0  0  0  0  0  0  0  0  0  0  0  0
    7.2794   -0.2668    2.6507 H   0  0  0  0  0  0  0  0  0  0  0  0
    7.1849   -1.2833    0.5669 H   0  0  0  0  0  0  0  0  0  0  0  0
    8.3947   -0.0420    0.2706 H   0  0  0  0  0  0  0  0  0  0  0  0
    6.7714   -0.0687   -1.5623 H   0  0  0  0  0  0  0  0  0  0  0  0
    6.6103    1.4498   -0.6989 H   0  0  0  0  0  0  0  0  0  0  0  0
    2.1227   -2.6395   -0.4085 H   0  0  0  0  0  0  0  0  0  0  0  0
   -0.2784   -2.2105   -0.1095 H   0  0  0  0  0  0  0  0  0  0  0  0
  1  2  2  0
  2  3  1  0
  3  4  1  0
  4  5  1  0
  5  6  1  0
  6  7  2  0
  7  8  1  0
  8  9  2  0
  9 10  1  0
 10 11  2  0
  4 12  1  0
 12 13  2  0
 12 14  1  0
  2 15  1  0
 15 16  2  0
 16 17  1  0
 17 18  2  0
 18 19  1  0
 19 20  2  0
 19 21  2  0
 19 22  1  0
 22 23  1  0
 23 24  1  0
 24 25  1  0
 25 26  1  0
 26 27  1  0
 18 28  1  0
 28 29  2  0
 11  6  1  0
 29 15  1  0
 27 22  1  0
  3 30  1  0
  4 31  1  0
  5 32  1  0
  5 33  1  0
  7 34  1  0
  8 35  1  0
  9 36  1  0
 10 37  1  0
 11 38  1  0
 14 39  1  0
 16 40  1  0
 17 41  1  0
 23 42  1  0
 23 43  1  0
 24 44  1  0
 24 45  1  0
 25 46  1  0
 25 47  1  0
 26 48  1  0
 26 49  1  0
 27 50  1  0
 27 51  1  0
 28 52  1  0
 29 53  1  0
M  END
$$$$
