
     RDKit          3D

 50 52  0  0  0  0  0  0  0  0999 V2000
   -3.4719   -2.8914    0.7097 C   0  0  0  0  0  0  0  0  0  0  0  0
   -2.6394   -1.6783    1.1116 C   0  0  0  0  0  0  0  0  0  0  0  0
   -2.7052   -0.5067    0.1069 C   0  0  0  0  0  0  0  0  0  0  0  0
   -4.1058    0.0730   -0.0825 C   0  0  0  0  0  0  0  0  0  0  0  0
   -4.7452    0.0999   -1.3352 C   0  0  0  0  0  0  0  0  0  0  0  0
   -6.0325    0.6263   -1.4775 C   0  0  0  0  0  0  0  0  0  0  0  0
   -6.7061    1.1374   -0.3724 C   0  0  0  0  0  0  0  0  0  0  0  0
   -6.0928    1.1256    0.8759 C   0  0  0  0  0  0  0  0  0  0  0  0
   -4.8069    0.5994    1.0192 C   0  0  0  0  0  0  0  0  0  0  0  0
   -2.0700   -0.8794   -1.1446 N   0  0  0  0  0  0  0  0  0  0  0  0
   -0.8827   -0.2270   -1.3585 C   0  0  0  0  0  0  0  0  0  0  0  0
   -0.1429   -0.4532   -2.3015 O   0  0  0  0  0  0  0  0  0  0  0  0
   -0.6961    0.6746   -0.3639 N   0  0  0  0  0  0  0  0  0  0  0  0
    0.4991    1.4686   -0.2026 C   0  0  0  0  0  0  0  0  0  0  0  0
    1.5529    0.6578    0.5650 C   0  0  0  0  0  0  0  0  0  0  0  0
    1.2932   -0.4580    1.0249 O   0  0  0  0  0  0  0  0  0  0  0  0
    2.8067    1.2473    0.7256 N   0  0  0  0  0  0  0  0  0  0  0  0
    3.1938    2.5050    0.1014 C   0  0  0  0  0  0  0  0  0  0  0  0
    3.8821    0.4386    1.2999 C   0  0  0  0  0  0  0  0  0  0  0  0
    4.8058   -0.1277    0.2461 C   0  0  0  0  0  0  0  0  0  0  0  0
    6.1059    0.3741    0.0885 C   0  0  0  0  0  0  0  0  0  0  0  0
    6.9499   -0.1432   -0.8961 C   0  0  0  0  0  0  0  0  0  0  0  0
    6.5034   -1.1642   -1.7330 C   0  0  0  0  0  0  0  0  0  0  0  0
    5.2135   -1.6704   -1.5863 C   0  0  0  0  0  0  0  0  0  0  0  0
    4.3688   -1.1560   -0.6019 C   0  0  0  0  0  0  0  0  0  0  0  0
   -1.6954    0.5838    0.5638 C   0  0  0  0  0  0  0  0  0  0  0  0
   -1.7610    1.2391    1.5982 O   0  0  0  0  0  0  0  0  0  0  0  0
   -3.1489   -3.2981   -0.2532 H   0  0  0  0  0  0  0  0  0  0  0  0
   -4.5358   -2.6451    0.6426 H   0  0  0  0  0  0  0  0  0  0  0  0
   -3.3616   -3.6827    1.4584 H   0  0  0  0  0  0  0  0  0  0  0  0
   -2.9640   -1.3479    2.1063 H   0  0  0  0  0  0  0  0  0  0  0  0
   -1.5974   -2.0049    1.2327 H   0  0  0  0  0  0  0  0  0  0  0  0
   -4.2539   -0.2840   -2.2260 H   0  0  0  0  0  0  0  0  0  0  0  0
   -6.5078    0.6385   -2.4552 H   0  0  0  0  0  0  0  0  0  0  0  0
   -7.7059    1.5482   -0.4847 H   0  0  0  0  0  0  0  0  0  0  0  0
   -6.6119    1.5300    1.7413 H   0  0  0  0  0  0  0  0  0  0  0  0
   -4.3509    0.6158    2.0087 H   0  0  0  0  0  0  0  0  0  0  0  0
   -2.3454   -1.6529   -1.7326 H   0  0  0  0  0  0  0  0  0  0  0  0
    0.2557    2.3691    0.3690 H   0  0  0  0  0  0  0  0  0  0  0  0
    0.8888    1.7259   -1.1922 H   0  0  0  0  0  0  0  0  0  0  0  0
    3.9701    2.9890    0.7012 H   0  0  0  0  0  0  0  0  0  0  0  0
    3.5735    2.2999   -0.9036 H   0  0  0  0  0  0  0  0  0  0  0  0
    2.3462    3.1890    0.0259 H   0  0  0  0  0  0  0  0  0  0  0  0
    3.4779   -0.3870    1.8972 H   0  0  0  0  0  0  0  0  0  0  0  0
    4.4372    1.0738    2.0010 H   0  0  0  0  0  0  0  0  0  0  0  0
    6.4709    1.1714    0.7316 H   0  0  0  0  0  0  0  0  0  0  0  0
    7.9567    0.2500   -1.0107 H   0  0  0  0  0  0  0  0  0  0  0  0
    7.1601   -1.5666   -2.4997 H   0  0  0  0  0  0  0  0  0  0  0  0
    4.8620   -2.4659   -2.2384 H   0  0  0  0  0  0  0  0  0  0  0  0
    3.3630   -1.5608   -0.4987 H   0  0  0  0  0  0  0  0  0  0  0  0
  1  2  1  0
  2  3  1  0
  3  4  1  0
  4  5  2  0
  5  6  1  0
  6  7  2  0
  7  8  1  0
  8  9  2  0
  3 10  1  0
 10 11  1  0
 11 12  2  0
 11 13  1  0
 13 14  1  0
 14 15  1  0
 15 16  2  0
 15 17  1  0
 17 18  1  0
 17 19  1  0
 19 20  1  0
 20 21  2  0
 21 22  1  0
 22 23  2  0
 23 24  1  0
 24 25  2  0
 13 26  1  0
 26 27  2  0
 26  3  1  0
  9  4  1  0
 25 20  1  0
  1 28  1  0
  1 29  1  0
  1 30  1  0
  2 31  1  0
  2 32  1  0
  5 33  1  0
  6 34  1  0
  7 35  1  0
  8 36  1  0
  9 37  1  0
 10 38  1  0
 14 39  1  0
 14 40  1  0
 18 41  1  0
 18 42  1  0
 18 43  1  0
 19 44  1  0
 19 45  1  0
 21 46  1  0
 22 47  1  0
 23 48  1  0
 24 49  1  0
 25 50  1  0
M  END
$$$$
