
     RDKit          3D

 42 43  0  0  0  0  0  0  0  0999 V2000
   -3.4499   -0.4120    1.1717 C   0  0  0  0  0  0  0  0  0  0  0  0
   -2.7001    0.2015   -0.0291 C   0  0  0  0  0  0  0  0  0  0  0  0
   -2.9266    1.7226   -0.0099 C   0  0  0  0  0  0  0  0  0  0  0  0
   -3.3045   -0.3762   -1.3185 C   0  0  0  0  0  0  0  0  0  0  0  0
   -1.1944   -0.1539    0.1177 C   0  0  0  0  0  0  0  0  0  0  0  0
   -0.3641    0.3917   -0.9427 N   0  0  0  0  0  0  0  0  0  0  0  0
    0.1871   -0.2714   -1.9950 C   0  0  0  0  0  0  0  0  0  0  0  0
   -0.1643   -1.5453   -2.2406 N   0  0  0  0  0  0  0  0  0  0  0  0
    1.0679    0.3547   -2.7252 N   0  0  0  0  0  0  0  0  0  0  0  0
    1.1363    1.7090   -2.1086 C   0  0  0  0  0  0  0  0  0  0  0  0
    0.4124    1.6143   -0.7494 C   0  0  0  0  0  0  0  0  0  0  0  0
    1.3746    1.6092    0.4610 C   0  0  0  0  0  0  0  0  0  0  0  0
    2.1399    0.3502    0.8133 C   0  0  0  0  0  0  0  0  0  0  0  0
    1.9492   -0.2535    2.0681 C   0  0  0  0  0  0  0  0  0  0  0  0
    2.6548   -1.4045    2.4243 C   0  0  0  0  0  0  0  0  0  0  0  0
    3.5614   -1.9575    1.5316 C   0  0  0  0  0  0  0  0  0  0  0  0
    4.2262   -3.0850    1.9134 O   0  0  0  0  0  0  0  0  0  0  0  0
    3.7804   -1.3720    0.2909 C   0  0  0  0  0  0  0  0  0  0  0  0
    3.0763   -0.2167   -0.0616 C   0  0  0  0  0  0  0  0  0  0  0  0
   -3.3280   -1.5007    1.1997 H   0  0  0  0  0  0  0  0  0  0  0  0
   -4.5239   -0.1996    1.1216 H   0  0  0  0  0  0  0  0  0  0  0  0
   -3.0759   -0.0091    2.1197 H   0  0  0  0  0  0  0  0  0  0  0  0
   -2.4510    2.1833    0.8631 H   0  0  0  0  0  0  0  0  0  0  0  0
   -2.5265    2.2008   -0.9097 H   0  0  0  0  0  0  0  0  0  0  0  0
   -3.9956    1.9619    0.0307 H   0  0  0  0  0  0  0  0  0  0  0  0
   -4.3757   -0.1524   -1.3851 H   0  0  0  0  0  0  0  0  0  0  0  0
   -3.1966   -1.4656   -1.3528 H   0  0  0  0  0  0  0  0  0  0  0  0
   -2.8304    0.0444   -2.2113 H   0  0  0  0  0  0  0  0  0  0  0  0
   -0.8510    0.2156    1.0904 H   0  0  0  0  0  0  0  0  0  0  0  0
   -1.0763   -1.2438    0.1680 H   0  0  0  0  0  0  0  0  0  0  0  0
    0.2180   -1.8478   -3.1296 H   0  0  0  0  0  0  0  0  0  0  0  0
   -1.1575   -1.7108   -2.1948 H   0  0  0  0  0  0  0  0  0  0  0  0
    0.6152    2.4104   -2.7715 H   0  0  0  0  0  0  0  0  0  0  0  0
    2.1741    2.0433   -2.0196 H   0  0  0  0  0  0  0  0  0  0  0  0
   -0.2429    2.4871   -0.6523 H   0  0  0  0  0  0  0  0  0  0  0  0
    0.7782    1.8955    1.3387 H   0  0  0  0  0  0  0  0  0  0  0  0
    2.1027    2.4238    0.3477 H   0  0  0  0  0  0  0  0  0  0  0  0
    1.2452    0.1664    2.7826 H   0  0  0  0  0  0  0  0  0  0  0  0
    2.4959   -1.8672    3.3936 H   0  0  0  0  0  0  0  0  0  0  0  0
    4.7889   -3.3689    1.1745 H   0  0  0  0  0  0  0  0  0  0  0  0
    4.4865   -1.7939   -0.4169 H   0  0  0  0  0  0  0  0  0  0  0  0
    3.2640    0.2221   -1.0379 H   0  0  0  0  0  0  0  0  0  0  0  0
  1  2  1  0
  2  3  1  0
  2  4  1  0
  2  5  1  0
  5  6  1  0
  6  7  1  0
  7  8  1  0
  7  9  2  0
  9 10  1  0
 10 11  1  0
 11 12  1  0
 12 13  1  0
 13 14  2  0
 14 15  1  0
 15 16  2  0
 16 17  1  0
 16 18  1  0
 18 19  2  0
 11  6  1  0
 19 13  1  0
  1 20  1  0
  1 21  1  0
  1 22  1  0
  3 23  1  0
  3 24  1  0
  3 25  1  0
  4 26  1  0
  4 27  1  0
  4 28  1  0
  5 29  1  0
  5 30  1  0
  8 31  1  0
  8 32  1  0
 10 33  1  0
 10 34  1  0
 11 35  1  0
 12 36  1  0
 12 37  1  0
 14 38  1  0
 15 39  1  0
 17 40  1  0
 18 41  1  0
 19 42  1  0
M  END
$$$$
