
     RDKit          3D

 49 52  0  0  0  0  0  0  0  0999 V2000
   -5.9433    2.9773   -0.0720 C   0  0  0  0  0  0  0  0  0  0  0  0
   -4.6286    2.5800    0.5702 C   0  0  0  0  0  0  0  0  0  0  0  0
   -3.7890    2.0147   -0.4444 O   0  0  0  0  0  0  0  0  0  0  0  0
   -2.5765    1.5817    0.0124 C   0  0  0  0  0  0  0  0  0  0  0  0
   -2.1939    1.6784    1.1694 O   0  0  0  0  0  0  0  0  0  0  0  0
   -1.7794    1.0152   -1.1438 C   0  0  0  0  0  0  0  0  0  0  0  0
   -0.6459    0.1027   -0.7198 C   0  0  0  0  0  0  0  0  0  0  0  0
    0.6250    0.7191   -0.7018 C   0  0  0  0  0  0  0  0  0  0  0  0
    1.7485   -0.0052   -0.3556 C   0  0  0  0  0  0  0  0  0  0  0  0
    3.1099    0.5668   -0.3175 C   0  0  0  0  0  0  0  0  0  0  0  0
    3.5211    1.5878   -1.1907 C   0  0  0  0  0  0  0  0  0  0  0  0
    4.8168    2.1158   -1.1310 C   0  0  0  0  0  0  0  0  0  0  0  0
    5.7409    1.6381   -0.2024 C   0  0  0  0  0  0  0  0  0  0  0  0
    6.9671    2.2406   -0.2509 O   0  0  0  0  0  0  0  0  0  0  0  0
    7.9440    1.7798    0.6742 C   0  0  0  0  0  0  0  0  0  0  0  0
    5.3586    0.6206    0.6669 C   0  0  0  0  0  0  0  0  0  0  0  0
    4.0611    0.0933    0.6049 C   0  0  0  0  0  0  0  0  0  0  0  0
    1.6453   -1.3038   -0.0226 N   0  0  0  0  0  0  0  0  0  0  0  0
    0.4469   -1.9027   -0.0186 C   0  0  0  0  0  0  0  0  0  0  0  0
    0.4983   -3.2316    0.3379 C   0  0  0  0  0  0  0  0  0  0  0  0
   -0.6368   -4.0244    0.4012 C   0  0  0  0  0  0  0  0  0  0  0  0
   -1.8841   -3.4892    0.1128 C   0  0  0  0  0  0  0  0  0  0  0  0
   -2.9971   -4.3437    0.2058 C   0  0  0  0  0  0  0  0  0  0  0  0
   -4.2802   -3.8849   -0.0540 C   0  0  0  0  0  0  0  0  0  0  0  0
   -4.4565   -2.5615   -0.4056 C   0  0  0  0  0  0  0  0  0  0  0  0
   -3.3484   -1.7076   -0.5013 C   0  0  0  0  0  0  0  0  0  0  0  0
   -2.0086   -2.1204   -0.2574 C   0  0  0  0  0  0  0  0  0  0  0  0
   -0.7907   -1.2838   -0.3445 C   0  0  0  0  0  0  0  0  0  0  0  0
   -5.7764    3.7028   -0.8751 H   0  0  0  0  0  0  0  0  0  0  0  0
   -6.4292    2.1068   -0.5252 H   0  0  0  0  0  0  0  0  0  0  0  0
   -6.6210    3.4162    0.6655 H   0  0  0  0  0  0  0  0  0  0  0  0
   -4.1438    3.4638    0.9996 H   0  0  0  0  0  0  0  0  0  0  0  0
   -4.8108    1.8385    1.3562 H   0  0  0  0  0  0  0  0  0  0  0  0
   -2.4160    0.5015   -1.8688 H   0  0  0  0  0  0  0  0  0  0  0  0
   -1.3812    1.8789   -1.6934 H   0  0  0  0  0  0  0  0  0  0  0  0
    0.7215    1.7745   -0.9412 H   0  0  0  0  0  0  0  0  0  0  0  0
    2.8453    1.9782   -1.9475 H   0  0  0  0  0  0  0  0  0  0  0  0
    5.1080    2.9039   -1.8213 H   0  0  0  0  0  0  0  0  0  0  0  0
    7.6240    1.9552    1.7066 H   0  0  0  0  0  0  0  0  0  0  0  0
    8.8597    2.3553    0.5075 H   0  0  0  0  0  0  0  0  0  0  0  0
    8.1796    0.7236    0.5064 H   0  0  0  0  0  0  0  0  0  0  0  0
    6.0379    0.2088    1.4053 H   0  0  0  0  0  0  0  0  0  0  0  0
    3.7874   -0.7034    1.2961 H   0  0  0  0  0  0  0  0  0  0  0  0
    1.4629   -3.6765    0.5767 H   0  0  0  0  0  0  0  0  0  0  0  0
   -0.5238   -5.0678    0.6882 H   0  0  0  0  0  0  0  0  0  0  0  0
   -2.8705   -5.3874    0.4892 H   0  0  0  0  0  0  0  0  0  0  0  0
   -5.1312   -4.5551    0.0241 H   0  0  0  0  0  0  0  0  0  0  0  0
   -5.4543   -2.1786   -0.6054 H   0  0  0  0  0  0  0  0  0  0  0  0
   -3.5928   -0.6922   -0.7688 H   0  0  0  0  0  0  0  0  0  0  0  0
  1  2  1  0
  2  3  1  0
  3  4  1  0
  4  5  2  0
  4  6  1  0
  6  7  1  0
  7  8  2  0
  8  9  1  0
  9 10  1  0
 10 11  2  0
 11 12  1  0
 12 13  2  0
 13 14  1  0
 14 15  1  0
 13 16  1  0
 16 17  2  0
  9 18  2  0
 18 19  1  0
 19 20  2  0
 20 21  1  0
 21 22  2  0
 22 23  1  0
 23 24  2  0
 24 25  1  0
 25 26  2  0
 26 27  1  0
 27 28  2  0
 28  7  1  0
 17 10  1  0
 28 19  1  0
 27 22  1  0
  1 29  1  0
  1 30  1  0
  1 31  1  0
  2 32  1  0
  2 33  1  0
  6 34  1  0
  6 35  1  0
  8 36  1  0
 11 37  1  0
 12 38  1  0
 15 39  1  0
 15 40  1  0
 15 41  1  0
 16 42  1  0
 17 43  1  0
 20 44  1  0
 21 45  1  0
 23 46  1  0
 24 47  1  0
 25 48  1  0
 26 49  1  0
M  END
$$$$
