
     RDKit          3D

 43 46  0  0  0  0  0  0  0  0999 V2000
    7.6321   -1.4377   -0.3174 C   0  0  0  0  0  0  0  0  0  0  0  0
    6.5214   -0.5576    0.1784 C   0  0  0  0  0  0  0  0  0  0  0  0
    6.8124    0.6825    0.7672 C   0  0  0  0  0  0  0  0  0  0  0  0
    5.8009    1.5431    1.2134 C   0  0  0  0  0  0  0  0  0  0  0  0
    4.4873    1.1098    1.0326 C   0  0  0  0  0  0  0  0  0  0  0  0
    3.2765    1.6773    1.3382 N   0  0  0  0  0  0  0  0  0  0  0  0
    2.2699    0.8198    0.9357 C   0  0  0  0  0  0  0  0  0  0  0  0
    0.8957    1.1734    1.1394 C   0  0  0  0  0  0  0  0  0  0  0  0
    0.5647    2.4043    1.7802 C   0  0  0  0  0  0  0  0  0  0  0  0
    0.3754    3.4168    2.3155 N   0  0  0  0  0  0  0  0  0  0  0  0
   -0.0326    0.3100    0.6805 C   0  0  0  0  0  0  0  0  0  0  0  0
   -1.4489    0.4516    0.7621 C   0  0  0  0  0  0  0  0  0  0  0  0
   -2.2834    1.1430    1.6329 C   0  0  0  0  0  0  0  0  0  0  0  0
   -3.6235    0.9055    1.2373 C   0  0  0  0  0  0  0  0  0  0  0  0
   -3.5671    0.0686    0.1499 C   0  0  0  0  0  0  0  0  0  0  0  0
   -4.5109   -0.4938   -0.6362 N   0  0  0  0  0  0  0  0  0  0  0  0
   -5.9219   -0.1125   -0.5493 C   0  0  0  0  0  0  0  0  0  0  0  0
   -6.5755   -0.1929   -1.9388 C   0  0  0  0  0  0  0  0  0  0  0  0
   -6.5058   -1.4929   -2.5422 O   0  0  0  0  0  0  0  0  0  0  0  0
   -5.3482   -2.2447   -2.1456 C   0  0  0  0  0  0  0  0  0  0  0  0
   -4.1423   -1.3793   -1.7461 C   0  0  0  0  0  0  0  0  0  0  0  0
   -2.2672   -0.2125   -0.1270 O   0  0  0  0  0  0  0  0  0  0  0  0
    2.7965   -0.2635    0.3898 N   0  0  0  0  0  0  0  0  0  0  0  0
    4.1586   -0.1014    0.4428 C   0  0  0  0  0  0  0  0  0  0  0  0
    5.1830   -0.9513    0.0012 C   0  0  0  0  0  0  0  0  0  0  0  0
    7.8805   -1.1791   -1.3512 H   0  0  0  0  0  0  0  0  0  0  0  0
    8.5275   -1.3223    0.3024 H   0  0  0  0  0  0  0  0  0  0  0  0
    7.3428   -2.4931   -0.2759 H   0  0  0  0  0  0  0  0  0  0  0  0
    7.8499    0.9927    0.8856 H   0  0  0  0  0  0  0  0  0  0  0  0
    6.0370    2.4973    1.6716 H   0  0  0  0  0  0  0  0  0  0  0  0
    3.1582    2.5775    1.7826 H   0  0  0  0  0  0  0  0  0  0  0  0
    0.2959   -0.5876    0.1562 H   0  0  0  0  0  0  0  0  0  0  0  0
   -1.9812    1.7464    2.4772 H   0  0  0  0  0  0  0  0  0  0  0  0
   -4.5168    1.2917    1.7044 H   0  0  0  0  0  0  0  0  0  0  0  0
   -6.0432    0.9076   -0.1679 H   0  0  0  0  0  0  0  0  0  0  0  0
   -6.4276   -0.7992    0.1394 H   0  0  0  0  0  0  0  0  0  0  0  0
   -6.0967    0.5160   -2.6248 H   0  0  0  0  0  0  0  0  0  0  0  0
   -7.6331    0.0818   -1.8732 H   0  0  0  0  0  0  0  0  0  0  0  0
   -5.6462   -2.8869   -1.3082 H   0  0  0  0  0  0  0  0  0  0  0  0
   -5.0813   -2.9009   -2.9801 H   0  0  0  0  0  0  0  0  0  0  0  0
   -3.8241   -0.7680   -2.5989 H   0  0  0  0  0  0  0  0  0  0  0  0
   -3.3162   -2.0435   -1.4666 H   0  0  0  0  0  0  0  0  0  0  0  0
    4.9276   -1.8959   -0.4671 H   0  0  0  0  0  0  0  0  0  0  0  0
  1  2  1  0
  2  3  2  0
  3  4  1  0
  4  5  2  0
  5  6  1  0
  6  7  1  0
  7  8  1  0
  8  9  1  0
  9 10  3  0
  8 11  2  3
 11 12  1  0
 12 13  2  0
 13 14  1  0
 14 15  2  0
 15 16  1  0
 16 17  1  0
 17 18  1  0
 18 19  1  0
 19 20  1  0
 20 21  1  0
 15 22  1  0
  7 23  2  0
 23 24  1  0
 24 25  2  0
 25  2  1  0
 24  5  1  0
 22 12  1  0
 21 16  1  0
  1 26  1  0
  1 27  1  0
  1 28  1  0
  3 29  1  0
  4 30  1  0
  6 31  1  0
 11 32  1  0
 13 33  1  0
 14 34  1  0
 17 35  1  0
 17 36  1  0
 18 37  1  0
 18 38  1  0
 20 39  1  0
 20 40  1  0
 21 41  1  0
 21 42  1  0
 25 43  1  0
M  END
$$$$
