
     RDKit          3D

 46 49  0  0  0  0  0  0  0  0999 V2000
   -0.8280   -2.8820   -1.0253 O   0  0  0  0  0  0  0  0  0  0  0  0
    0.0350   -2.2217   -0.4583 C   0  0  0  0  0  0  0  0  0  0  0  0
    1.4309   -2.7776   -0.2308 C   0  0  0  0  0  0  0  0  0  0  0  0
    2.6723   -1.8416   -1.1767 S   0  0  0  0  0  0  0  0  0  0  0  0
    3.3230   -0.8188    0.1236 C   0  0  0  0  0  0  0  0  0  0  0  0
    2.3983    0.0001    0.7013 N   0  0  0  0  0  0  0  0  0  0  0  0
    2.8295    0.8776    1.6369 C   0  0  0  0  0  0  0  0  0  0  0  0
    4.1473    0.9850    2.0397 C   0  0  0  0  0  0  0  0  0  0  0  0
    5.0808    0.1369    1.4557 C   0  0  0  0  0  0  0  0  0  0  0  0
    4.6704   -0.7794    0.4772 C   0  0  0  0  0  0  0  0  0  0  0  0
    5.6558   -1.7105   -0.0840 C   0  0  0  0  0  0  0  0  0  0  0  0
    5.5227   -2.9091   -0.2314 O   0  0  0  0  0  0  0  0  0  0  0  0
    6.7971   -1.0738   -0.4043 O   0  0  0  0  0  0  0  0  0  0  0  0
   -0.1767   -0.9700    0.0873 N   0  0  0  0  0  0  0  0  0  0  0  0
   -1.3703   -0.1498   -0.1277 C   0  0  0  0  0  0  0  0  0  0  0  0
   -1.2200    1.1510    0.7043 C   0  0  0  0  0  0  0  0  0  0  0  0
   -2.4316    2.0760    0.5080 C   0  0  0  0  0  0  0  0  0  0  0  0
   -2.5466    2.4415   -0.9787 C   0  0  0  0  0  0  0  0  0  0  0  0
   -2.7269    1.1667   -1.8192 C   0  0  0  0  0  0  0  0  0  0  0  0
   -3.9976    0.4312   -1.3629 C   0  0  0  0  0  0  0  0  0  0  0  0
   -3.8884    0.0616    0.1261 C   0  0  0  0  0  0  0  0  0  0  0  0
   -3.7073    1.3431    0.9527 C   0  0  0  0  0  0  0  0  0  0  0  0
   -2.6696   -0.8537    0.3383 C   0  0  0  0  0  0  0  0  0  0  0  0
   -1.5118    0.2459   -1.6169 C   0  0  0  0  0  0  0  0  0  0  0  0
    1.4479   -3.8120   -0.5918 H   0  0  0  0  0  0  0  0  0  0  0  0
    1.6523   -2.8036    0.8429 H   0  0  0  0  0  0  0  0  0  0  0  0
    2.0629    1.5160    2.0628 H   0  0  0  0  0  0  0  0  0  0  0  0
    4.4420    1.7086    2.7925 H   0  0  0  0  0  0  0  0  0  0  0  0
    6.1224    0.1872    1.7619 H   0  0  0  0  0  0  0  0  0  0  0  0
    7.3715   -1.7795   -0.7747 H   0  0  0  0  0  0  0  0  0  0  0  0
    0.6822   -0.4689    0.3259 H   0  0  0  0  0  0  0  0  0  0  0  0
   -0.3032    1.6816    0.4156 H   0  0  0  0  0  0  0  0  0  0  0  0
   -1.1066    0.9045    1.7680 H   0  0  0  0  0  0  0  0  0  0  0  0
   -2.3029    2.9824    1.1085 H   0  0  0  0  0  0  0  0  0  0  0  0
   -1.6481    2.9814   -1.3014 H   0  0  0  0  0  0  0  0  0  0  0  0
   -3.3975    3.1156   -1.1323 H   0  0  0  0  0  0  0  0  0  0  0  0
   -2.8157    1.4343   -2.8756 H   0  0  0  0  0  0  0  0  0  0  0  0
   -4.8769    1.0665   -1.5268 H   0  0  0  0  0  0  0  0  0  0  0  0
   -4.1435   -0.4736   -1.9642 H   0  0  0  0  0  0  0  0  0  0  0  0
   -4.7992   -0.4577    0.4435 H   0  0  0  0  0  0  0  0  0  0  0  0
   -3.6482    1.0944    2.0203 H   0  0  0  0  0  0  0  0  0  0  0  0
   -4.5788    2.0007    0.8246 H   0  0  0  0  0  0  0  0  0  0  0  0
   -2.5882   -1.1243    1.3959 H   0  0  0  0  0  0  0  0  0  0  0  0
   -2.8361   -1.7877   -0.2047 H   0  0  0  0  0  0  0  0  0  0  0  0
   -1.6239   -0.6450   -2.2453 H   0  0  0  0  0  0  0  0  0  0  0  0
   -0.6010    0.7510   -1.9623 H   0  0  0  0  0  0  0  0  0  0  0  0
  1  2  2  0
  2  3  1  0
  3  4  1  0
  4  5  1  0
  5  6  2  0
  6  7  1  0
  7  8  2  0
  8  9  1  0
  9 10  2  0
 10 11  1  0
 11 12  2  0
 11 13  1  0
  2 14  1  0
 14 15  1  0
 15 16  1  0
 16 17  1  0
 17 18  1  0
 18 19  1  0
 19 20  1  0
 20 21  1  0
 21 22  1  0
 21 23  1  0
 19 24  1  0
 10  5  1  0
 23 15  1  0
 24 15  1  0
 22 17  1  0
  3 25  1  0
  3 26  1  0
  7 27  1  0
  8 28  1  0
  9 29  1  0
 13 30  1  0
 14 31  1  0
 16 32  1  0
 16 33  1  0
 17 34  1  0
 18 35  1  0
 18 36  1  0
 19 37  1  0
 20 38  1  0
 20 39  1  0
 21 40  1  0
 22 41  1  0
 22 42  1  0
 23 43  1  0
 23 44  1  0
 24 45  1  0
 24 46  1  0
M  END
$$$$
