
     RDKit          3D

 65 69  0  0  0  0  0  0  0  0999 V2000
   -3.5778    5.9629    3.2542 C   0  0  0  0  0  0  0  0  0  0  0  0
   -2.8377    4.6659    2.9720 C   0  0  0  0  0  0  0  0  0  0  0  0
   -3.3211    4.1378    1.7366 O   0  0  0  0  0  0  0  0  0  0  0  0
   -2.7283    2.9947    1.2731 C   0  0  0  0  0  0  0  0  0  0  0  0
   -3.1675    2.5774    0.0172 C   0  0  0  0  0  0  0  0  0  0  0  0
   -2.6506    1.4191   -0.5725 C   0  0  0  0  0  0  0  0  0  0  0  0
   -1.6813    0.6471    0.0859 C   0  0  0  0  0  0  0  0  0  0  0  0
   -1.1618   -0.6208   -0.5906 C   0  0  0  0  0  0  0  0  0  0  0  0
    0.3471   -0.6265   -0.9480 C   0  0  0  0  0  0  0  0  0  0  0  0
    0.8114    0.6942   -1.4874 C   0  0  0  0  0  0  0  0  0  0  0  0
    0.1199    1.3202   -2.2963 O   0  0  0  0  0  0  0  0  0  0  0  0
    2.1321    1.2666   -1.1393 C   0  0  0  0  0  0  0  0  0  0  0  0
    2.1753    2.6257   -0.7570 C   0  0  0  0  0  0  0  0  0  0  0  0
    3.3950    3.2369   -0.4504 C   0  0  0  0  0  0  0  0  0  0  0  0
    4.5409    2.4739   -0.5581 C   0  0  0  0  0  0  0  0  0  0  0  0
    4.5076    1.1431   -0.9512 C   0  0  0  0  0  0  0  0  0  0  0  0
    3.3087    0.5158   -1.2562 C   0  0  0  0  0  0  0  0  0  0  0  0
    5.8789    0.5842   -0.9039 C   0  0  0  0  0  0  0  0  0  0  0  0
    6.6768    1.8941   -0.7891 C   0  0  0  0  0  0  0  0  0  0  0  0
    7.8740    1.7709    0.1388 C   0  0  0  0  0  0  0  0  0  0  0  0
    5.7996    2.9360   -0.2827 O   0  0  0  0  0  0  0  0  0  0  0  0
    0.9101   -1.2379    0.2955 C   0  0  0  0  0  0  0  0  0  0  0  0
    2.0355   -1.1567    0.7444 O   0  0  0  0  0  0  0  0  0  0  0  0
   -0.1723   -2.1177    0.9227 C   0  0  0  0  0  0  0  0  0  0  0  0
    0.0104   -2.9536    1.7778 O   0  0  0  0  0  0  0  0  0  0  0  0
   -1.3429   -1.7759    0.2856 N   0  0  0  0  0  0  0  0  0  0  0  0
   -2.6475   -2.3300    0.6167 C   0  0  0  0  0  0  0  0  0  0  0  0
   -3.1092   -3.3734   -0.3974 C   0  0  0  0  0  0  0  0  0  0  0  0
   -2.2785   -4.6543   -0.3264 C   0  0  0  0  0  0  0  0  0  0  0  0
   -2.7475   -5.6518   -1.2698 N   0  0  0  0  0  0  0  0  0  0  0  0
   -3.7289   -6.5772   -1.0526 C   0  0  0  0  0  0  0  0  0  0  0  0
   -3.8035   -7.2927   -2.2256 C   0  0  0  0  0  0  0  0  0  0  0  0
   -2.8982   -6.8225   -3.1421 N   0  0  0  0  0  0  0  0  0  0  0  0
   -2.2721   -5.8389   -2.5357 C   0  0  0  0  0  0  0  0  0  0  0  0
   -1.2417    1.0781    1.3486 C   0  0  0  0  0  0  0  0  0  0  0  0
   -1.7611    2.2413    1.9355 C   0  0  0  0  0  0  0  0  0  0  0  0
   -4.6527    5.7798    3.3626 H   0  0  0  0  0  0  0  0  0  0  0  0
   -3.4543    6.6658    2.4227 H   0  0  0  0  0  0  0  0  0  0  0  0
   -3.2033    6.4320    4.1670 H   0  0  0  0  0  0  0  0  0  0  0  0
   -3.0290    3.9592    3.7888 H   0  0  0  0  0  0  0  0  0  0  0  0
   -1.7645    4.8805    2.8996 H   0  0  0  0  0  0  0  0  0  0  0  0
   -3.9144    3.1669   -0.5124 H   0  0  0  0  0  0  0  0  0  0  0  0
   -3.0070    1.1338   -1.5610 H   0  0  0  0  0  0  0  0  0  0  0  0
   -1.7424   -0.8122   -1.5038 H   0  0  0  0  0  0  0  0  0  0  0  0
    0.5273   -1.3705   -1.7375 H   0  0  0  0  0  0  0  0  0  0  0  0
    1.2531    3.2050   -0.7043 H   0  0  0  0  0  0  0  0  0  0  0  0
    3.4441    4.2787   -0.1469 H   0  0  0  0  0  0  0  0  0  0  0  0
    3.2968   -0.5266   -1.5615 H   0  0  0  0  0  0  0  0  0  0  0  0
    6.1519    0.0254   -1.8036 H   0  0  0  0  0  0  0  0  0  0  0  0
    5.9939   -0.0522   -0.0202 H   0  0  0  0  0  0  0  0  0  0  0  0
    7.0229    2.2151   -1.7818 H   0  0  0  0  0  0  0  0  0  0  0  0
    7.5567    1.5312    1.1598 H   0  0  0  0  0  0  0  0  0  0  0  0
    8.5661    0.9964   -0.2039 H   0  0  0  0  0  0  0  0  0  0  0  0
    8.4105    2.7234    0.1947 H   0  0  0  0  0  0  0  0  0  0  0  0
   -3.3711   -1.5084    0.6661 H   0  0  0  0  0  0  0  0  0  0  0  0
   -2.5970   -2.7827    1.6142 H   0  0  0  0  0  0  0  0  0  0  0  0
   -3.0722   -2.9551   -1.4103 H   0  0  0  0  0  0  0  0  0  0  0  0
   -4.1605   -3.6151   -0.1995 H   0  0  0  0  0  0  0  0  0  0  0  0
   -1.2255   -4.4603   -0.5616 H   0  0  0  0  0  0  0  0  0  0  0  0
   -2.3199   -5.0998    0.6749 H   0  0  0  0  0  0  0  0  0  0  0  0
   -4.2739   -6.6511   -0.1219 H   0  0  0  0  0  0  0  0  0  0  0  0
   -4.4597   -8.1201   -2.4621 H   0  0  0  0  0  0  0  0  0  0  0  0
   -1.4799   -5.2399   -2.9634 H   0  0  0  0  0  0  0  0  0  0  0  0
   -0.4996    0.5217    1.9167 H   0  0  0  0  0  0  0  0  0  0  0  0
   -1.3900    2.5229    2.9164 H   0  0  0  0  0  0  0  0  0  0  0  0
  1  2  1  0
  2  3  1  0
  3  4  1  0
  4  5  2  0
  5  6  1  0
  6  7  2  0
  7  8  1  0
  8  9  1  0
  9 10  1  0
 10 11  2  0
 10 12  1  0
 12 13  2  0
 13 14  1  0
 14 15  2  0
 15 16  1  0
 16 17  2  0
 16 18  1  0
 18 19  1  0
 19 20  1  0
 19 21  1  0
  9 22  1  0
 22 23  2  0
 22 24  1  0
 24 25  2  0
 24 26  1  0
 26 27  1  0
 27 28  1  0
 28 29  1  0
 29 30  1  0
 30 31  1  0
 31 32  2  0
 32 33  1  0
 33 34  2  0
  7 35  1  0
 35 36  2  0
 36  4  1  0
 26  8  1  0
 34 30  1  0
 17 12  1  0
 21 15  1  0
  1 37  1  0
  1 38  1  0
  1 39  1  0
  2 40  1  0
  2 41  1  0
  5 42  1  0
  6 43  1  0
  8 44  1  0
  9 45  1  0
 13 46  1  0
 14 47  1  0
 17 48  1  0
 18 49  1  0
 18 50  1  0
 19 51  1  0
 20 52  1  0
 20 53  1  0
 20 54  1  0
 27 55  1  0
 27 56  1  0
 28 57  1  0
 28 58  1  0
 29 59  1  0
 29 60  1  0
 31 61  1  0
 32 62  1  0
 34 63  1  0
 35 64  1  0
 36 65  1  0
M  END
$$$$
