
     RDKit          3D

 51 54  0  0  0  0  0  0  0  0999 V2000
    0.1383    1.4215    1.5422 O   0  0  0  0  0  0  0  0  0  0  0  0
   -0.3890    1.1658    0.4581 C   0  0  0  0  0  0  0  0  0  0  0  0
    0.4582    0.9818   -0.7325 C   0  0  0  0  0  0  0  0  0  0  0  0
    1.8496    0.6920   -0.7228 C   0  0  0  0  0  0  0  0  0  0  0  0
    2.2159    0.6423   -2.0443 C   0  0  0  0  0  0  0  0  0  0  0  0
    3.4779    0.3841   -2.7749 C   0  0  0  0  0  0  0  0  0  0  0  0
    4.1295   -0.7371   -2.1726 O   0  0  0  0  0  0  0  0  0  0  0  0
    5.1958   -0.5207   -1.3463 C   0  0  0  0  0  0  0  0  0  0  0  0
    5.5523    0.6902   -0.7550 C   0  0  0  0  0  0  0  0  0  0  0  0
    6.6676    0.7596    0.0852 C   0  0  0  0  0  0  0  0  0  0  0  0
    7.4260   -0.3822    0.3443 C   0  0  0  0  0  0  0  0  0  0  0  0
    7.0682   -1.6125   -0.2222 C   0  0  0  0  0  0  0  0  0  0  0  0
    7.8890   -2.8466    0.0550 C   0  0  0  0  0  0  0  0  0  0  0  0
    7.2538   -4.0081   -0.2704 F   0  0  0  0  0  0  0  0  0  0  0  0
    8.2331   -2.9677    1.3692 F   0  0  0  0  0  0  0  0  0  0  0  0
    9.0602   -2.8543   -0.6400 F   0  0  0  0  0  0  0  0  0  0  0  0
    5.9499   -1.6652   -1.0691 C   0  0  0  0  0  0  0  0  0  0  0  0
    1.1233    0.9063   -2.8089 O   0  0  0  0  0  0  0  0  0  0  0  0
    0.0295    1.1312   -1.9985 N   0  0  0  0  0  0  0  0  0  0  0  0
   -1.7833    1.0481    0.3535 N   0  0  0  0  0  0  0  0  0  0  0  0
   -2.5862    1.3897    1.5238 C   0  0  0  0  0  0  0  0  0  0  0  0
   -4.0000    1.8172    1.1439 C   0  0  0  0  0  0  0  0  0  0  0  0
   -4.7367    0.7602    0.2980 C   0  0  0  0  0  0  0  0  0  0  0  0
   -5.8433    0.0459    1.0548 C   0  0  0  0  0  0  0  0  0  0  0  0
   -7.1288   -0.0269    0.5075 C   0  0  0  0  0  0  0  0  0  0  0  0
   -8.1184   -0.7014    1.2067 C   0  0  0  0  0  0  0  0  0  0  0  0
   -7.9201   -1.3043    2.3963 N   0  0  0  0  0  0  0  0  0  0  0  0
   -6.6757   -1.2317    2.9080 C   0  0  0  0  0  0  0  0  0  0  0  0
   -5.6211   -0.5795    2.2859 C   0  0  0  0  0  0  0  0  0  0  0  0
   -3.7757   -0.2593   -0.3346 C   0  0  0  0  0  0  0  0  0  0  0  0
   -2.4684    0.3968   -0.7654 C   0  0  0  0  0  0  0  0  0  0  0  0
    2.4786    0.5363    0.1423 H   0  0  0  0  0  0  0  0  0  0  0  0
    4.1070    1.2773   -2.8472 H   0  0  0  0  0  0  0  0  0  0  0  0
    3.2497    0.0880   -3.8065 H   0  0  0  0  0  0  0  0  0  0  0  0
    4.9775    1.5981   -0.9049 H   0  0  0  0  0  0  0  0  0  0  0  0
    6.9416    1.7062    0.5458 H   0  0  0  0  0  0  0  0  0  0  0  0
    8.2926   -0.3125    1.0011 H   0  0  0  0  0  0  0  0  0  0  0  0
    5.6558   -2.6117   -1.5199 H   0  0  0  0  0  0  0  0  0  0  0  0
   -2.6023    0.5117    2.1791 H   0  0  0  0  0  0  0  0  0  0  0  0
   -2.0993    2.1985    2.0803 H   0  0  0  0  0  0  0  0  0  0  0  0
   -4.5664    2.0902    2.0417 H   0  0  0  0  0  0  0  0  0  0  0  0
   -3.9209    2.7361    0.5458 H   0  0  0  0  0  0  0  0  0  0  0  0
   -5.2130    1.3145   -0.5226 H   0  0  0  0  0  0  0  0  0  0  0  0
   -7.3664    0.4287   -0.4485 H   0  0  0  0  0  0  0  0  0  0  0  0
   -9.1292   -0.7758    0.8109 H   0  0  0  0  0  0  0  0  0  0  0  0
   -6.5429   -1.7310    3.8639 H   0  0  0  0  0  0  0  0  0  0  0  0
   -4.6483   -0.5749    2.7612 H   0  0  0  0  0  0  0  0  0  0  0  0
   -4.2551   -0.7370   -1.1977 H   0  0  0  0  0  0  0  0  0  0  0  0
   -3.5444   -1.0662    0.3731 H   0  0  0  0  0  0  0  0  0  0  0  0
   -2.6632    1.1630   -1.5236 H   0  0  0  0  0  0  0  0  0  0  0  0
   -1.8229   -0.3748   -1.1981 H   0  0  0  0  0  0  0  0  0  0  0  0
  1  2  2  0
  2  3  1  0
  3  4  1  0
  4  5  2  0
  5  6  1  0
  6  7  1  0
  7  8  1  0
  8  9  2  0
  9 10  1  0
 10 11  2  0
 11 12  1  0
 12 13  1  0
 13 14  1  0
 13 15  1  0
 13 16  1  0
 12 17  2  0
  5 18  1  0
 18 19  1  0
  2 20  1  0
 20 21  1  0
 21 22  1  0
 22 23  1  0
 23 24  1  0
 24 25  2  0
 25 26  1  0
 26 27  2  0
 27 28  1  0
 28 29  2  0
 23 30  1  0
 30 31  1  0
 19  3  2  0
 31 20  1  0
 17  8  1  0
 29 24  1  0
  4 32  1  0
  6 33  1  0
  6 34  1  0
  9 35  1  0
 10 36  1  0
 11 37  1  0
 17 38  1  0
 21 39  1  0
 21 40  1  0
 22 41  1  0
 22 42  1  0
 23 43  1  0
 25 44  1  0
 26 45  1  0
 28 46  1  0
 29 47  1  0
 30 48  1  0
 30 49  1  0
 31 50  1  0
 31 51  1  0
M  END
$$$$
