
     RDKit          3D

 47 50  0  0  0  0  0  0  0  0999 V2000
   -4.7269    2.8118   -1.2251 C   0  0  0  0  0  0  0  0  0  0  0  0
   -3.6533    2.2443   -0.4135 N   0  0  0  0  0  0  0  0  0  0  0  0
   -2.6976    1.5018   -1.2584 C   0  0  0  0  0  0  0  0  0  0  0  0
   -1.5810    0.8294   -0.4268 C   0  0  0  0  0  0  0  0  0  0  0  0
   -2.1193   -0.0760    0.6149 N   0  0  0  0  0  0  0  0  0  0  0  0
   -1.0450   -0.6327    1.4531 C   0  0  0  0  0  0  0  0  0  0  0  0
   -0.1748   -1.6238    0.7128 C   0  0  0  0  0  0  0  0  0  0  0  0
   -0.7501   -2.7527    0.1244 C   0  0  0  0  0  0  0  0  0  0  0  0
    0.0434   -3.6810   -0.5546 C   0  0  0  0  0  0  0  0  0  0  0  0
   -0.7714   -5.0424   -1.2535 Cl  0  0  0  0  0  0  0  0  0  0  0  0
    1.4480   -3.5175   -0.6543 C   0  0  0  0  0  0  0  0  0  0  0  0
    2.3093   -4.4240   -1.3135 C   0  0  0  0  0  0  0  0  0  0  0  0
    3.6796   -4.1989   -1.3595 C   0  0  0  0  0  0  0  0  0  0  0  0
    4.1649   -3.0691   -0.7401 C   0  0  0  0  0  0  0  0  0  0  0  0
    3.3837   -2.1764   -0.0985 N   0  0  0  0  0  0  0  0  0  0  0  0
    2.0473   -2.3866   -0.0607 C   0  0  0  0  0  0  0  0  0  0  0  0
    1.2136   -1.4650    0.5896 C   0  0  0  0  0  0  0  0  0  0  0  0
    1.8166   -0.3476    1.1986 O   0  0  0  0  0  0  0  0  0  0  0  0
    2.1856    0.6368    0.2843 C   0  0  0  0  0  0  0  0  0  0  0  0
    1.8470    0.6619   -0.8964 O   0  0  0  0  0  0  0  0  0  0  0  0
    2.9759    1.6772    0.9254 C   0  0  0  0  0  0  0  0  0  0  0  0
    3.4915    2.8081    0.3147 C   0  0  0  0  0  0  0  0  0  0  0  0
    4.2199    3.6384    1.2145 C   0  0  0  0  0  0  0  0  0  0  0  0
    4.2401    3.1177    2.4880 C   0  0  0  0  0  0  0  0  0  0  0  0
    3.3857    1.6411    2.5900 S   0  0  0  0  0  0  0  0  0  0  0  0
   -3.0781    0.6769    1.4509 C   0  0  0  0  0  0  0  0  0  0  0  0
   -4.1967    1.3378    0.6144 C   0  0  0  0  0  0  0  0  0  0  0  0
   -4.3198    3.5075   -1.9671 H   0  0  0  0  0  0  0  0  0  0  0  0
   -5.3018    2.0425   -1.7533 H   0  0  0  0  0  0  0  0  0  0  0  0
   -5.4171    3.3878   -0.5988 H   0  0  0  0  0  0  0  0  0  0  0  0
   -3.2179    0.7321   -1.8449 H   0  0  0  0  0  0  0  0  0  0  0  0
   -2.2269    2.1918   -1.9692 H   0  0  0  0  0  0  0  0  0  0  0  0
   -0.9571    1.6106    0.0285 H   0  0  0  0  0  0  0  0  0  0  0  0
   -0.9487    0.2659   -1.1221 H   0  0  0  0  0  0  0  0  0  0  0  0
   -0.4505    0.1725    1.9012 H   0  0  0  0  0  0  0  0  0  0  0  0
   -1.4851   -1.1837    2.2957 H   0  0  0  0  0  0  0  0  0  0  0  0
   -1.8273   -2.8993    0.1884 H   0  0  0  0  0  0  0  0  0  0  0  0
    1.9175   -5.3154   -1.7976 H   0  0  0  0  0  0  0  0  0  0  0  0
    4.3459   -4.8888   -1.8645 H   0  0  0  0  0  0  0  0  0  0  0  0
    5.2266   -2.8396   -0.7408 H   0  0  0  0  0  0  0  0  0  0  0  0
    3.3484    3.0237   -0.7387 H   0  0  0  0  0  0  0  0  0  0  0  0
    4.7041    4.5679    0.9405 H   0  0  0  0  0  0  0  0  0  0  0  0
    4.7165    3.5324    3.3660 H   0  0  0  0  0  0  0  0  0  0  0  0
   -2.5585    1.4522    2.0305 H   0  0  0  0  0  0  0  0  0  0  0  0
   -3.5496   -0.0061    2.1681 H   0  0  0  0  0  0  0  0  0  0  0  0
   -4.8444    1.9037    1.2949 H   0  0  0  0  0  0  0  0  0  0  0  0
   -4.8120    0.5528    0.1539 H   0  0  0  0  0  0  0  0  0  0  0  0
  1  2  1  0
  2  3  1  0
  3  4  1  0
  4  5  1  0
  5  6  1  0
  6  7  1  0
  7  8  2  0
  8  9  1  0
  9 10  1  0
  9 11  2  0
 11 12  1  0
 12 13  2  0
 13 14  1  0
 14 15  2  0
 15 16  1  0
 16 17  2  0
 17 18  1  0
 18 19  1  0
 19 20  2  0
 19 21  1  0
 21 22  2  0
 22 23  1  0
 23 24  2  0
 24 25  1  0
  5 26  1  0
 26 27  1  0
 27  2  1  0
 17  7  1  0
 25 21  1  0
 16 11  1  0
  1 28  1  0
  1 29  1  0
  1 30  1  0
  3 31  1  0
  3 32  1  0
  4 33  1  0
  4 34  1  0
  6 35  1  0
  6 36  1  0
  8 37  1  0
 12 38  1  0
 13 39  1  0
 14 40  1  0
 22 41  1  0
 23 42  1  0
 24 43  1  0
 26 44  1  0
 26 45  1  0
 27 46  1  0
 27 47  1  0
M  END
$$$$
