
     RDKit          3D

 68 69  0  0  0  0  0  0  0  0999 V2000
    9.3264   -0.8076   -2.0372 C   0  0  0  0  0  0  0  0  0  0  0  0
    8.5659    0.3430   -1.3953 C   0  0  0  0  0  0  0  0  0  0  0  0
    7.1766   -0.0483   -0.8837 C   0  0  0  0  0  0  0  0  0  0  0  0
    6.2084   -0.4503   -2.0006 C   0  0  0  0  0  0  0  0  0  0  0  0
    4.8305   -0.8590   -1.4756 C   0  0  0  0  0  0  0  0  0  0  0  0
    4.0128    0.3063   -0.9251 C   0  0  0  0  0  0  0  0  0  0  0  0
    2.7275   -0.1782   -0.4856 O   0  0  0  0  0  0  0  0  0  0  0  0
    2.6561   -0.5785    0.8113 C   0  0  0  0  0  0  0  0  0  0  0  0
    3.5575   -0.5079    1.6362 O   0  0  0  0  0  0  0  0  0  0  0  0
    1.2497   -1.0615    1.1506 C   0  0  0  0  0  0  0  0  0  0  0  0
    0.3482   -0.0391    1.9117 N   0  0  0  0  0  4  0  0  0  0  0  0
   -0.0232    1.1017    0.9679 C   0  0  0  0  0  0  0  0  0  0  0  0
    1.1198    0.5476    3.1013 C   0  0  0  0  0  0  0  0  0  0  0  0
   -0.9161   -0.7360    2.4808 C   0  0  0  0  0  0  0  0  0  0  0  0
   -1.7823   -1.4815    1.4508 C   0  0  0  0  0  0  0  0  0  0  0  0
   -2.3449   -0.5861    0.4943 O   0  0  0  0  0  0  0  0  0  0  0  0
   -3.7182   -0.2744    0.7268 C   0  0  0  0  0  0  0  0  0  0  0  0
   -4.6647   -1.4640    0.4464 C   0  0  0  0  0  0  0  0  0  0  0  0
   -5.6310   -0.8948   -0.6184 C   0  0  0  0  0  0  0  0  0  0  0  0
   -4.8289   -0.8417   -1.9379 C   0  0  0  0  0  0  0  0  0  0  0  0
   -3.8803    0.3464   -1.7142 C   0  0  0  0  0  0  0  0  0  0  0  0
   -4.2413    0.8085   -0.2733 C   0  0  0  0  0  0  0  0  0  0  0  0
   -3.7223    2.2023    0.0341 C   0  0  0  0  0  0  0  0  0  0  0  0
   -5.7847    0.5979   -0.2226 C   0  0  0  0  0  0  0  0  0  0  0  0
   -6.6045    1.4305   -1.2301 C   0  0  0  0  0  0  0  0  0  0  0  0
   -6.4429    0.8227    1.1538 C   0  0  0  0  0  0  0  0  0  0  0  0
   10.3552   -0.5041   -2.2535 H   0  0  0  0  0  0  0  0  0  0  0  0
    8.8672   -1.1147   -2.9815 H   0  0  0  0  0  0  0  0  0  0  0  0
    9.3624   -1.6749   -1.3704 H   0  0  0  0  0  0  0  0  0  0  0  0
    8.4818    1.1697   -2.1110 H   0  0  0  0  0  0  0  0  0  0  0  0
    9.1530    0.7155   -0.5467 H   0  0  0  0  0  0  0  0  0  0  0  0
    7.2704   -0.8701   -0.1630 H   0  0  0  0  0  0  0  0  0  0  0  0
    6.7705    0.8087   -0.3342 H   0  0  0  0  0  0  0  0  0  0  0  0
    6.1036    0.3709   -2.7208 H   0  0  0  0  0  0  0  0  0  0  0  0
    6.6203   -1.3055   -2.5493 H   0  0  0  0  0  0  0  0  0  0  0  0
    4.9331   -1.6432   -0.7134 H   0  0  0  0  0  0  0  0  0  0  0  0
    4.2616   -1.3213   -2.2943 H   0  0  0  0  0  0  0  0  0  0  0  0
    3.8213    1.0380   -1.7164 H   0  0  0  0  0  0  0  0  0  0  0  0
    4.5255    0.8350   -0.1152 H   0  0  0  0  0  0  0  0  0  0  0  0
    0.7275   -1.3515    0.2320 H   0  0  0  0  0  0  0  0  0  0  0  0
    1.3357   -1.9507    1.7852 H   0  0  0  0  0  0  0  0  0  0  0  0
   -0.7717    1.7268    1.4620 H   0  0  0  0  0  0  0  0  0  0  0  0
   -0.3991    0.6886    0.0301 H   0  0  0  0  0  0  0  0  0  0  0  0
    0.8767    1.6892    0.7614 H   0  0  0  0  0  0  0  0  0  0  0  0
    0.4317    1.1674    3.6841 H   0  0  0  0  0  0  0  0  0  0  0  0
    1.9399    1.1677    2.7297 H   0  0  0  0  0  0  0  0  0  0  0  0
    1.4999   -0.2786    3.7103 H   0  0  0  0  0  0  0  0  0  0  0  0
   -0.5621   -1.4416    3.2405 H   0  0  0  0  0  0  0  0  0  0  0  0
   -1.5042    0.0483    2.9705 H   0  0  0  0  0  0  0  0  0  0  0  0
   -1.1918   -2.2231    0.9058 H   0  0  0  0  0  0  0  0  0  0  0  0
   -2.5641   -2.0378    1.9811 H   0  0  0  0  0  0  0  0  0  0  0  0
   -3.8205    0.0723    1.7625 H   0  0  0  0  0  0  0  0  0  0  0  0
   -4.1427   -2.3609    0.0955 H   0  0  0  0  0  0  0  0  0  0  0  0
   -5.2137   -1.7358    1.3547 H   0  0  0  0  0  0  0  0  0  0  0  0
   -6.5615   -1.4607   -0.7018 H   0  0  0  0  0  0  0  0  0  0  0  0
   -4.2780   -1.7665   -2.1320 H   0  0  0  0  0  0  0  0  0  0  0  0
   -5.4817   -0.6656   -2.7974 H   0  0  0  0  0  0  0  0  0  0  0  0
   -2.8315    0.0534   -1.8235 H   0  0  0  0  0  0  0  0  0  0  0  0
   -4.0653    1.1317   -2.4547 H   0  0  0  0  0  0  0  0  0  0  0  0
   -3.9462    2.4919    1.0667 H   0  0  0  0  0  0  0  0  0  0  0  0
   -4.1708    2.9532   -0.6267 H   0  0  0  0  0  0  0  0  0  0  0  0
   -2.6357    2.2523   -0.1017 H   0  0  0  0  0  0  0  0  0  0  0  0
   -6.5992    2.4892   -0.9535 H   0  0  0  0  0  0  0  0  0  0  0  0
   -7.6476    1.0957   -1.2362 H   0  0  0  0  0  0  0  0  0  0  0  0
   -6.2560    1.3707   -2.2623 H   0  0  0  0  0  0  0  0  0  0  0  0
   -6.4242    1.8859    1.4217 H   0  0  0  0  0  0  0  0  0  0  0  0
   -7.4909    0.5026    1.1308 H   0  0  0  0  0  0  0  0  0  0  0  0
   -5.9731    0.2836    1.9785 H   0  0  0  0  0  0  0  0  0  0  0  0
  1  2  1  0
  2  3  1  0
  3  4  1  0
  4  5  1  0
  5  6  1  0
  6  7  1  0
  7  8  1  0
  8  9  2  0
  8 10  1  0
 10 11  1  0
 11 12  1  0
 11 13  1  0
 11 14  1  0
 14 15  1  0
 15 16  1  0
 16 17  1  0
 17 18  1  0
 18 19  1  0
 19 20  1  0
 20 21  1  0
 21 22  1  0
 22 23  1  0
 22 24  1  0
 24 25  1  0
 24 26  1  0
 22 17  1  0
 24 19  1  0
  1 27  1  0
  1 28  1  0
  1 29  1  0
  2 30  1  0
  2 31  1  0
  3 32  1  0
  3 33  1  0
  4 34  1  0
  4 35  1  0
  5 36  1  0
  5 37  1  0
  6 38  1  0
  6 39  1  0
 10 40  1  0
 10 41  1  0
 12 42  1  0
 12 43  1  0
 12 44  1  0
 13 45  1  0
 13 46  1  0
 13 47  1  0
 14 48  1  0
 14 49  1  0
 15 50  1  0
 15 51  1  0
 17 52  1  0
 18 53  1  0
 18 54  1  0
 19 55  1  0
 20 56  1  0
 20 57  1  0
 21 58  1  0
 21 59  1  0
 23 60  1  0
 23 61  1  0
 23 62  1  0
 25 63  1  0
 25 64  1  0
 25 65  1  0
 26 66  1  0
 26 67  1  0
 26 68  1  0
M  CHG  1  11   1
M  END
$$$$
