
     RDKit          3D

 40 42  0  0  0  0  0  0  0  0999 V2000
    6.9897   -1.0075    1.6333 C   0  0  0  0  0  0  0  0  0  0  0  0
    5.4973   -1.0368    1.4744 C   0  0  0  0  0  0  0  0  0  0  0  0
    4.9245   -1.2621    0.2151 C   0  0  0  0  0  0  0  0  0  0  0  0
    3.5379   -1.3242    0.0701 C   0  0  0  0  0  0  0  0  0  0  0  0
    2.7209   -1.1636    1.1920 C   0  0  0  0  0  0  0  0  0  0  0  0
    0.9574   -1.2544    0.9986 S   0  0  0  0  0  6  0  0  0  0  0  0
    0.6830   -2.3077    0.0457 O   0  0  0  0  0  0  0  0  0  0  0  0
    0.3568   -1.2228    2.3150 O   0  0  0  0  0  0  0  0  0  0  0  0
    0.6488    0.2721    0.2865 N   0  0  0  0  0  0  0  0  0  0  0  0
   -0.6553    0.3242   -0.4044 C   0  0  0  0  0  0  0  0  0  0  0  0
   -1.7726    0.9642    0.0708 C   0  0  0  0  0  0  0  0  0  0  0  0
   -2.7770    0.7726   -0.9214 C   0  0  0  0  0  0  0  0  0  0  0  0
   -4.1685    1.2429   -0.9077 C   0  0  0  0  0  0  0  0  0  0  0  0
   -4.7475    1.7745    0.2548 C   0  0  0  0  0  0  0  0  0  0  0  0
   -6.0728    2.2224    0.2531 C   0  0  0  0  0  0  0  0  0  0  0  0
   -6.8367    2.1440   -0.9090 C   0  0  0  0  0  0  0  0  0  0  0  0
   -6.2789    1.6157   -2.0701 C   0  0  0  0  0  0  0  0  0  0  0  0
   -4.9551    1.1677   -2.0683 C   0  0  0  0  0  0  0  0  0  0  0  0
   -2.2806    0.0747   -1.9584 N   0  0  0  0  0  0  0  0  0  0  0  0
   -1.0048   -0.1923   -1.6194 N   0  0  0  0  0  0  0  0  0  0  0  0
   -0.1711   -0.9064   -2.5542 C   0  0  0  0  0  0  0  0  0  0  0  0
    3.2769   -0.9636    2.4573 C   0  0  0  0  0  0  0  0  0  0  0  0
    4.6648   -0.9029    2.5945 C   0  0  0  0  0  0  0  0  0  0  0  0
    7.3633   -2.0148    1.8419 H   0  0  0  0  0  0  0  0  0  0  0  0
    7.2814   -0.3438    2.4540 H   0  0  0  0  0  0  0  0  0  0  0  0
    7.4722   -0.6319    0.7249 H   0  0  0  0  0  0  0  0  0  0  0  0
    5.5581   -1.3951   -0.6597 H   0  0  0  0  0  0  0  0  0  0  0  0
    3.1048   -1.5035   -0.9110 H   0  0  0  0  0  0  0  0  0  0  0  0
    0.6836    0.9605    1.0429 H   0  0  0  0  0  0  0  0  0  0  0  0
   -1.8647    1.4927    1.0075 H   0  0  0  0  0  0  0  0  0  0  0  0
   -4.1856    1.8402    1.1818 H   0  0  0  0  0  0  0  0  0  0  0  0
   -6.5088    2.6288    1.1621 H   0  0  0  0  0  0  0  0  0  0  0  0
   -7.8669    2.4902   -0.9090 H   0  0  0  0  0  0  0  0  0  0  0  0
   -6.8707    1.5480   -2.9790 H   0  0  0  0  0  0  0  0  0  0  0  0
   -4.5369    0.7558   -2.9852 H   0  0  0  0  0  0  0  0  0  0  0  0
    0.8804   -0.7667   -2.2948 H   0  0  0  0  0  0  0  0  0  0  0  0
   -0.3494   -0.5084   -3.5569 H   0  0  0  0  0  0  0  0  0  0  0  0
   -0.4402   -1.9644   -2.5144 H   0  0  0  0  0  0  0  0  0  0  0  0
    2.6465   -0.8634    3.3380 H   0  0  0  0  0  0  0  0  0  0  0  0
    5.0961   -0.7551    3.5829 H   0  0  0  0  0  0  0  0  0  0  0  0
  1  2  1  0
  2  3  2  0
  3  4  1  0
  4  5  2  0
  5  6  1  0
  6  7  2  0
  6  8  2  0
  6  9  1  0
  9 10  1  0
 10 11  2  0
 11 12  1  0
 12 13  1  0
 13 14  2  0
 14 15  1  0
 15 16  2  0
 16 17  1  0
 17 18  2  0
 12 19  2  0
 19 20  1  0
 20 21  1  0
  5 22  1  0
 22 23  2  0
 23  2  1  0
 20 10  1  0
 18 13  1  0
  1 24  1  0
  1 25  1  0
  1 26  1  0
  3 27  1  0
  4 28  1  0
  9 29  1  0
 11 30  1  0
 14 31  1  0
 15 32  1  0
 16 33  1  0
 17 34  1  0
 18 35  1  0
 21 36  1  0
 21 37  1  0
 21 38  1  0
 22 39  1  0
 23 40  1  0
M  END
$$$$
