
     RDKit          3D

 39 41  0  0  0  0  0  0  0  0999 V2000
   -7.4760   -0.0996   -0.4178 C   0  0  0  0  0  0  0  0  0  0  0  0
   -6.6027    0.8114   -1.0731 O   0  0  0  0  0  0  0  0  0  0  0  0
   -5.2672    0.6871   -0.8089 C   0  0  0  0  0  0  0  0  0  0  0  0
   -4.4532    1.6149   -1.4609 C   0  0  0  0  0  0  0  0  0  0  0  0
   -3.0658    1.6054   -1.2824 C   0  0  0  0  0  0  0  0  0  0  0  0
   -2.4714    0.6506   -0.4520 C   0  0  0  0  0  0  0  0  0  0  0  0
   -1.0523    0.6218   -0.2635 N   0  0  0  0  0  0  0  0  0  0  0  0
   -0.1873    1.7219   -0.2707 C   0  0  0  0  0  0  0  0  0  0  0  0
   -0.6029    2.9632   -0.5176 O   0  0  0  0  0  0  0  0  0  0  0  0
    1.0728    1.2887    0.0894 C   0  0  0  0  0  0  0  0  0  0  0  0
    1.0071   -0.1035    0.2671 C   0  0  0  0  0  0  0  0  0  0  0  0
    2.0085   -0.9498    0.5994 N   0  0  0  0  0  0  0  0  0  0  0  0
    3.3566   -0.5882    0.4843 N   0  0  0  0  0  0  0  0  0  0  0  0
    4.2696   -1.5795    0.1552 C   0  0  0  0  0  0  0  0  0  0  0  0
    3.9238   -2.6922   -0.2413 O   0  0  0  0  0  0  0  0  0  0  0  0
    5.6498   -1.1860    0.3435 C   0  0  0  0  0  0  0  0  0  0  0  0
    6.8289   -1.8712    0.1178 C   0  0  0  0  0  0  0  0  0  0  0  0
    7.8838   -1.0013    0.4827 C   0  0  0  0  0  0  0  0  0  0  0  0
    7.2895    0.1617    0.9109 C   0  0  0  0  0  0  0  0  0  0  0  0
    5.9372    0.0638    0.8334 O   0  0  0  0  0  0  0  0  0  0  0  0
   -0.2779   -0.5169   -0.0086 C   0  0  0  0  0  0  0  0  0  0  0  0
   -0.7292   -1.7734   -0.0888 O   0  0  0  0  0  0  0  0  0  0  0  0
   -3.2908   -0.2736    0.2135 C   0  0  0  0  0  0  0  0  0  0  0  0
   -4.6803   -0.2555    0.0335 C   0  0  0  0  0  0  0  0  0  0  0  0
   -8.4982    0.1330   -0.7314 H   0  0  0  0  0  0  0  0  0  0  0  0
   -7.4263    0.0188    0.6697 H   0  0  0  0  0  0  0  0  0  0  0  0
   -7.2637   -1.1322   -0.7138 H   0  0  0  0  0  0  0  0  0  0  0  0
   -4.9026    2.3558   -2.1182 H   0  0  0  0  0  0  0  0  0  0  0  0
   -2.4748    2.3344   -1.8299 H   0  0  0  0  0  0  0  0  0  0  0  0
    0.1618    3.5566   -0.4116 H   0  0  0  0  0  0  0  0  0  0  0  0
    1.9452    1.9157    0.2025 H   0  0  0  0  0  0  0  0  0  0  0  0
    1.8488   -1.9530    0.4335 H   0  0  0  0  0  0  0  0  0  0  0  0
    3.6699    0.2023    1.0386 H   0  0  0  0  0  0  0  0  0  0  0  0
    6.9028   -2.8803   -0.2658 H   0  0  0  0  0  0  0  0  0  0  0  0
    8.9461   -1.1979    0.4395 H   0  0  0  0  0  0  0  0  0  0  0  0
    7.6704    1.1028    1.2835 H   0  0  0  0  0  0  0  0  0  0  0  0
   -1.4981   -1.7851   -0.6870 H   0  0  0  0  0  0  0  0  0  0  0  0
   -2.8786   -0.9880    0.9239 H   0  0  0  0  0  0  0  0  0  0  0  0
   -5.2734   -0.9827    0.5783 H   0  0  0  0  0  0  0  0  0  0  0  0
  1  2  1  0
  2  3  1  0
  3  4  2  0
  4  5  1  0
  5  6  2  0
  6  7  1  0
  7  8  1  0
  8  9  1  0
  8 10  2  0
 10 11  1  0
 11 12  1  0
 12 13  1  0
 13 14  1  0
 14 15  2  0
 14 16  1  0
 16 17  2  0
 17 18  1  0
 18 19  2  0
 19 20  1  0
 11 21  2  0
 21 22  1  0
  6 23  1  0
 23 24  2  0
 24  3  1  0
 21  7  1  0
 20 16  1  0
  1 25  1  0
  1 26  1  0
  1 27  1  0
  4 28  1  0
  5 29  1  0
  9 30  1  0
 10 31  1  0
 12 32  1  0
 13 33  1  0
 17 34  1  0
 18 35  1  0
 19 36  1  0
 22 37  1  0
 23 38  1  0
 24 39  1  0
M  END
$$$$
