
     RDKit          3D

 53 57  0  0  0  0  0  0  0  0999 V2000
    7.9928    0.5466    1.4240 C   0  0  0  0  0  0  0  0  0  0  0  0
    7.3736    0.6967    0.1526 O   0  0  0  0  0  0  0  0  0  0  0  0
    6.0124    0.5845    0.1125 C   0  0  0  0  0  0  0  0  0  0  0  0
    5.1756    0.3224    1.1928 C   0  0  0  0  0  0  0  0  0  0  0  0
    3.7863    0.2327    1.0121 C   0  0  0  0  0  0  0  0  0  0  0  0
    3.2078    0.4033   -0.2525 C   0  0  0  0  0  0  0  0  0  0  0  0
    1.7861    0.3080   -0.4503 N   0  0  0  0  0  0  0  0  0  0  0  0
    1.1639    0.2387   -1.6868 C   0  0  0  0  0  0  0  0  0  0  0  0
   -0.2005    0.1456   -1.5176 C   0  0  0  0  0  0  0  0  0  0  0  0
   -1.1069    0.0807   -2.6463 C   0  0  0  0  0  0  0  0  0  0  0  0
   -1.9979    1.1321   -2.8906 C   0  0  0  0  0  0  0  0  0  0  0  0
   -2.8863    1.0618   -3.9647 C   0  0  0  0  0  0  0  0  0  0  0  0
   -2.8853   -0.0555   -4.7991 C   0  0  0  0  0  0  0  0  0  0  0  0
   -1.9962   -1.1035   -4.5627 C   0  0  0  0  0  0  0  0  0  0  0  0
   -1.1071   -1.0369   -3.4885 C   0  0  0  0  0  0  0  0  0  0  0  0
   -0.4603    0.1518   -0.1184 C   0  0  0  0  0  0  0  0  0  0  0  0
   -1.6136    0.0715    0.6993 C   0  0  0  0  0  0  0  0  0  0  0  0
   -2.9030   -0.0758    0.1466 N   0  0  0  0  0  0  0  0  0  0  0  0
   -4.0536   -0.4543    0.8478 N   0  0  0  0  0  0  0  0  0  0  0  0
   -4.0464   -1.8127    1.3912 C   0  0  0  0  0  0  0  0  0  0  0  0
   -3.8091   -1.9070    2.9032 C   0  0  0  0  0  0  0  0  0  0  0  0
   -4.6648   -1.0113    3.6235 O   0  0  0  0  0  0  0  0  0  0  0  0
   -4.3802    0.3396    3.2374 C   0  0  0  0  0  0  0  0  0  0  0  0
   -4.6103    0.5666    1.7365 C   0  0  0  0  0  0  0  0  0  0  0  0
   -1.4385    0.1588    2.0388 N   0  0  0  0  0  0  0  0  0  0  0  0
   -0.2005    0.2924    2.5311 C   0  0  0  0  0  0  0  0  0  0  0  0
    0.9475    0.3463    1.8526 N   0  0  0  0  0  0  0  0  0  0  0  0
    0.7767    0.2659    0.5180 C   0  0  0  0  0  0  0  0  0  0  0  0
    4.0614    0.6647   -1.3357 C   0  0  0  0  0  0  0  0  0  0  0  0
    5.4468    0.7540   -1.1493 C   0  0  0  0  0  0  0  0  0  0  0  0
    7.8223   -0.4560    1.8299 H   0  0  0  0  0  0  0  0  0  0  0  0
    9.0713    0.6712    1.2873 H   0  0  0  0  0  0  0  0  0  0  0  0
    7.6542    1.3194    2.1221 H   0  0  0  0  0  0  0  0  0  0  0  0
    5.5646    0.1770    2.1954 H   0  0  0  0  0  0  0  0  0  0  0  0
    3.1962    0.0044    1.8933 H   0  0  0  0  0  0  0  0  0  0  0  0
    1.7294    0.2473   -2.6070 H   0  0  0  0  0  0  0  0  0  0  0  0
   -2.0084    2.0099   -2.2474 H   0  0  0  0  0  0  0  0  0  0  0  0
   -3.5792    1.8788   -4.1503 H   0  0  0  0  0  0  0  0  0  0  0  0
   -3.5780   -0.1088   -5.6356 H   0  0  0  0  0  0  0  0  0  0  0  0
   -1.9964   -1.9734   -5.2147 H   0  0  0  0  0  0  0  0  0  0  0  0
   -0.4225   -1.8632   -3.3113 H   0  0  0  0  0  0  0  0  0  0  0  0
   -2.8822   -0.3528   -0.8331 H   0  0  0  0  0  0  0  0  0  0  0  0
   -3.3445   -2.4640    0.8562 H   0  0  0  0  0  0  0  0  0  0  0  0
   -5.0449   -2.2236    1.1933 H   0  0  0  0  0  0  0  0  0  0  0  0
   -2.7666   -1.7133    3.1725 H   0  0  0  0  0  0  0  0  0  0  0  0
   -4.0427   -2.9214    3.2434 H   0  0  0  0  0  0  0  0  0  0  0  0
   -5.0553    0.9871    3.8073 H   0  0  0  0  0  0  0  0  0  0  0  0
   -3.3635    0.5964    3.5467 H   0  0  0  0  0  0  0  0  0  0  0  0
   -4.2893    1.5767    1.4539 H   0  0  0  0  0  0  0  0  0  0  0  0
   -5.6957    0.5450    1.5729 H   0  0  0  0  0  0  0  0  0  0  0  0
   -0.1235    0.3612    3.6119 H   0  0  0  0  0  0  0  0  0  0  0  0
    3.6943    0.8306   -2.3432 H   0  0  0  0  0  0  0  0  0  0  0  0
    6.0902    0.9639   -2.0009 H   0  0  0  0  0  0  0  0  0  0  0  0
  1  2  1  0
  2  3  1  0
  3  4  2  0
  4  5  1  0
  5  6  2  0
  6  7  1  0
  7  8  1  0
  8  9  2  0
  9 10  1  0
 10 11  2  0
 11 12  1  0
 12 13  2  0
 13 14  1  0
 14 15  2  0
  9 16  1  0
 16 17  2  0
 17 18  1  0
 18 19  1  0
 19 20  1  0
 20 21  1  0
 21 22  1  0
 22 23  1  0
 23 24  1  0
 17 25  1  0
 25 26  2  0
 26 27  1  0
 27 28  2  0
  6 29  1  0
 29 30  2  0
 30  3  1  0
 28  7  1  0
 15 10  1  0
 28 16  1  0
 24 19  1  0
  1 31  1  0
  1 32  1  0
  1 33  1  0
  4 34  1  0
  5 35  1  0
  8 36  1  0
 11 37  1  0
 12 38  1  0
 13 39  1  0
 14 40  1  0
 15 41  1  0
 18 42  1  0
 20 43  1  0
 20 44  1  0
 21 45  1  0
 21 46  1  0
 23 47  1  0
 23 48  1  0
 24 49  1  0
 24 50  1  0
 26 51  1  0
 29 52  1  0
 30 53  1  0
M  END
$$$$
