
     RDKit          3D

 42 45  0  0  0  0  0  0  0  0999 V2000
   -3.2174    0.0409   -2.2239 O   0  0  0  0  0  0  0  0  0  0  0  0
   -3.2566    0.2920   -1.0163 C   0  0  0  0  0  0  0  0  0  0  0  0
   -2.1610    1.0584   -0.3970 C   0  0  0  0  0  0  0  0  0  0  0  0
   -1.0678    1.6405   -1.0991 C   0  0  0  0  0  0  0  0  0  0  0  0
   -0.2926    2.2282   -0.1315 C   0  0  0  0  0  0  0  0  0  0  0  0
    0.9718    2.9964   -0.1320 C   0  0  0  0  0  0  0  0  0  0  0  0
    1.8559    2.4458   -1.1127 O   0  0  0  0  0  0  0  0  0  0  0  0
    2.6936    1.4321   -0.7380 C   0  0  0  0  0  0  0  0  0  0  0  0
    2.6222    0.6962    0.4430 C   0  0  0  0  0  0  0  0  0  0  0  0
    3.5453   -0.3272    0.6922 C   0  0  0  0  0  0  0  0  0  0  0  0
    4.5461   -0.6285   -0.2430 C   0  0  0  0  0  0  0  0  0  0  0  0
    5.4692   -1.6695    0.0343 N   0  0  0  0  0  0  0  0  0  0  0  0
    6.5096   -2.1328   -0.7357 C   0  0  0  0  0  0  0  0  0  0  0  0
    7.1392   -3.1106   -0.1239 N   0  0  0  0  0  0  0  0  0  0  0  0
    6.4453   -3.2262    1.0411 C   0  0  0  0  0  0  0  0  0  0  0  0
    5.4263   -2.3799    1.1906 N   0  0  0  0  0  0  0  0  0  0  0  0
    4.6119    0.1029   -1.4337 C   0  0  0  0  0  0  0  0  0  0  0  0
    3.6851    1.1236   -1.6736 C   0  0  0  0  0  0  0  0  0  0  0  0
   -0.8735    2.0247    1.0788 O   0  0  0  0  0  0  0  0  0  0  0  0
   -2.0302    1.2904    0.9208 N   0  0  0  0  0  0  0  0  0  0  0  0
   -4.3286   -0.1469   -0.2490 N   0  0  0  0  0  0  0  0  0  0  0  0
   -5.3694   -0.9665   -0.8433 C   0  0  0  0  0  0  0  0  0  0  0  0
   -6.1638   -1.4919    0.3424 C   0  0  0  0  0  0  0  0  0  0  0  0
   -6.0494   -0.3563    1.3492 C   0  0  0  0  0  0  0  0  0  0  0  0
   -4.6211    0.1373    1.1497 C   0  0  0  0  0  0  0  0  0  0  0  0
   -0.8812    1.6142   -2.1631 H   0  0  0  0  0  0  0  0  0  0  0  0
    0.7555    4.0248   -0.4428 H   0  0  0  0  0  0  0  0  0  0  0  0
    1.4406    3.0649    0.8561 H   0  0  0  0  0  0  0  0  0  0  0  0
    1.8556    0.8735    1.1906 H   0  0  0  0  0  0  0  0  0  0  0  0
    3.4629   -0.8868    1.6233 H   0  0  0  0  0  0  0  0  0  0  0  0
    6.7609   -1.7375   -1.7082 H   0  0  0  0  0  0  0  0  0  0  0  0
    6.6899   -3.9515    1.8070 H   0  0  0  0  0  0  0  0  0  0  0  0
    5.3607   -0.0874   -2.1963 H   0  0  0  0  0  0  0  0  0  0  0  0
    3.7377    1.6875   -2.6031 H   0  0  0  0  0  0  0  0  0  0  0  0
   -4.9422   -1.7670   -1.4547 H   0  0  0  0  0  0  0  0  0  0  0  0
   -5.9837   -0.3204   -1.4811 H   0  0  0  0  0  0  0  0  0  0  0  0
   -5.6877   -2.3942    0.7449 H   0  0  0  0  0  0  0  0  0  0  0  0
   -7.1981   -1.7339    0.0841 H   0  0  0  0  0  0  0  0  0  0  0  0
   -6.2468   -0.6714    2.3774 H   0  0  0  0  0  0  0  0  0  0  0  0
   -6.7595    0.4385    1.0909 H   0  0  0  0  0  0  0  0  0  0  0  0
   -4.5344    1.2056    1.3648 H   0  0  0  0  0  0  0  0  0  0  0  0
   -3.9202   -0.4320    1.7695 H   0  0  0  0  0  0  0  0  0  0  0  0
  1  2  2  0
  2  3  1  0
  3  4  1  0
  4  5  2  0
  5  6  1  0
  6  7  1  0
  7  8  1  0
  8  9  2  0
  9 10  1  0
 10 11  2  0
 11 12  1  0
 12 13  1  0
 13 14  2  0
 14 15  1  0
 15 16  2  0
 11 17  1  0
 17 18  2  0
  5 19  1  0
 19 20  1  0
  2 21  1  0
 21 22  1  0
 22 23  1  0
 23 24  1  0
 24 25  1  0
 20  3  2  0
 25 21  1  0
 18  8  1  0
 16 12  1  0
  4 26  1  0
  6 27  1  0
  6 28  1  0
  9 29  1  0
 10 30  1  0
 13 31  1  0
 15 32  1  0
 17 33  1  0
 18 34  1  0
 22 35  1  0
 22 36  1  0
 23 37  1  0
 23 38  1  0
 24 39  1  0
 24 40  1  0
 25 41  1  0
 25 42  1  0
M  END
$$$$
