
     RDKit          3D

 38 41  0  0  0  0  0  0  0  0999 V2000
    7.7498    2.8179    0.6190 C   0  0  0  0  0  0  0  0  0  0  0  0
    6.6101    1.9120    0.3331 C   0  0  0  0  0  0  0  0  0  0  0  0
    6.7151    0.7060   -0.1840 N   0  0  0  0  0  0  0  0  0  0  0  0
    5.4826    0.0966   -0.3362 N   0  0  0  0  0  0  0  0  0  0  0  0
    4.5058    0.8674    0.0711 C   0  0  0  0  0  0  0  0  0  0  0  0
    3.1571    0.6576    0.0955 N   0  0  0  0  0  0  0  0  0  0  0  0
    2.5789   -0.5133   -0.3453 C   0  0  0  0  0  0  0  0  0  0  0  0
    3.2090   -1.4691   -0.7915 O   0  0  0  0  0  0  0  0  0  0  0  0
    1.1161   -0.5469   -0.2456 C   0  0  0  0  0  0  0  0  0  0  0  0
    0.2149    0.8404    0.1994 S   0  0  0  0  0  0  0  0  0  0  0  0
   -1.2648    0.0179    0.0568 C   0  0  0  0  0  0  0  0  0  0  0  0
   -2.4107    0.6732    0.3142 N   0  0  0  0  0  0  0  0  0  0  0  0
   -3.5362   -0.0573    0.1994 C   0  0  0  0  0  0  0  0  0  0  0  0
   -4.7625    0.7120    0.4973 C   0  0  0  0  0  0  0  0  0  0  0  0
   -4.8571    2.0270    0.9317 C   0  0  0  0  0  0  0  0  0  0  0  0
   -6.1992    2.4649    1.1222 C   0  0  0  0  0  0  0  0  0  0  0  0
   -7.1049    1.4742    0.8267 C   0  0  0  0  0  0  0  0  0  0  0  0
   -6.3361    0.0355    0.3247 S   0  0  0  0  0  0  0  0  0  0  0  0
   -3.5304   -1.4011   -0.1550 C   0  0  0  0  0  0  0  0  0  0  0  0
   -2.3174   -2.0681   -0.4307 C   0  0  0  0  0  0  0  0  0  0  0  0
   -2.3462   -3.5338   -0.7720 C   0  0  0  0  0  0  0  0  0  0  0  0
   -1.9525   -4.3217    0.2640 F   0  0  0  0  0  0  0  0  0  0  0  0
   -1.5437   -3.8599   -1.8251 F   0  0  0  0  0  0  0  0  0  0  0  0
   -3.5889   -3.9767   -1.1185 F   0  0  0  0  0  0  0  0  0  0  0  0
   -1.1224   -1.3109   -0.3207 C   0  0  0  0  0  0  0  0  0  0  0  0
    0.2731   -1.6171   -0.5020 C   0  0  0  0  0  0  0  0  0  0  0  0
    0.7363   -2.8341   -0.8751 N   0  0  0  0  0  0  0  0  0  0  0  0
    4.9929    2.3911    0.6707 S   0  0  0  0  0  0  0  0  0  0  0  0
    7.7967    3.0605    1.6853 H   0  0  0  0  0  0  0  0  0  0  0  0
    7.6596    3.7489    0.0504 H   0  0  0  0  0  0  0  0  0  0  0  0
    8.6960    2.3434    0.3398 H   0  0  0  0  0  0  0  0  0  0  0  0
    2.5769    1.4004    0.4541 H   0  0  0  0  0  0  0  0  0  0  0  0
   -3.9871    2.6504    1.1059 H   0  0  0  0  0  0  0  0  0  0  0  0
   -6.4821    3.4551    1.4576 H   0  0  0  0  0  0  0  0  0  0  0  0
   -8.1838    1.5259    0.8802 H   0  0  0  0  0  0  0  0  0  0  0  0
   -4.4608   -1.9606   -0.2193 H   0  0  0  0  0  0  0  0  0  0  0  0
    1.7352   -2.9309   -1.0979 H   0  0  0  0  0  0  0  0  0  0  0  0
    0.1809   -3.4767   -1.4397 H   0  0  0  0  0  0  0  0  0  0  0  0
  1  2  1  0
  2  3  2  0
  3  4  1  0
  4  5  2  0
  5  6  1  0
  6  7  1  0
  7  8  2  0
  7  9  1  0
  9 10  1  0
 10 11  1  0
 11 12  2  0
 12 13  1  0
 13 14  1  0
 14 15  2  0
 15 16  1  0
 16 17  2  0
 17 18  1  0
 13 19  2  0
 19 20  1  0
 20 21  1  0
 21 22  1  0
 21 23  1  0
 21 24  1  0
 20 25  2  0
 25 26  1  0
 26 27  1  0
  5 28  1  0
 28  2  1  0
 26  9  2  0
 25 11  1  0
 18 14  1  0
  1 29  1  0
  1 30  1  0
  1 31  1  0
  6 32  1  0
 15 33  1  0
 16 34  1  0
 17 35  1  0
 19 36  1  0
 27 37  1  0
 27 38  1  0
M  END
$$$$
