
     RDKit          3D

 45 48  0  0  0  0  0  0  0  0999 V2000
   -5.5895   -1.7970    1.0113 C   0  0  0  0  0  0  0  0  0  0  0  0
   -4.4075   -2.1943    1.8753 C   0  0  0  0  0  0  0  0  0  0  0  0
   -3.1838   -1.7409    1.2780 O   0  0  0  0  0  0  0  0  0  0  0  0
   -2.8210   -0.4659    1.5773 C   0  0  0  0  0  0  0  0  0  0  0  0
   -3.4100    0.3014    2.3221 O   0  0  0  0  0  0  0  0  0  0  0  0
   -1.5852   -0.1210    0.8463 C   0  0  0  0  0  0  0  0  0  0  0  0
   -1.7712    1.0182   -0.0789 C   0  0  0  0  0  0  0  0  0  0  0  0
   -2.6701    1.0824   -0.9051 O   0  0  0  0  0  0  0  0  0  0  0  0
   -0.8957    2.0111    0.2366 O   0  0  0  0  0  0  0  0  0  0  0  0
   -1.1013    3.2611   -0.4367 C   0  0  0  0  0  0  0  0  0  0  0  0
   -0.3508    3.2919   -1.7540 C   0  0  0  0  0  0  0  0  0  0  0  0
   -0.4027   -0.7310    1.1293 C   0  0  0  0  0  0  0  0  0  0  0  0
   -0.2725   -1.5640    2.3840 C   0  0  0  0  0  0  0  0  0  0  0  0
    0.9246   -1.8675    2.9484 C   0  0  0  0  0  0  0  0  0  0  0  0
    1.0346   -2.8396    4.5396 Br  0  0  0  0  0  0  0  0  0  0  0  0
    2.1382   -1.4568    2.3040 C   0  0  0  0  0  0  0  0  0  0  0  0
    3.4270   -1.6135    2.6276 N   0  0  0  0  0  0  0  0  0  0  0  0
    4.1435   -1.1155    1.5293 O   0  0  0  0  0  0  0  0  0  0  0  0
    3.2697   -0.6927    0.5652 C   0  0  0  0  0  0  0  0  0  0  0  0
    3.5331   -0.2069   -0.7215 C   0  0  0  0  0  0  0  0  0  0  0  0
    4.8539   -0.0406   -1.1772 C   0  0  0  0  0  0  0  0  0  0  0  0
    5.0751    0.4233   -2.4695 C   0  0  0  0  0  0  0  0  0  0  0  0
    3.9928    0.7173   -3.2966 C   0  0  0  0  0  0  0  0  0  0  0  0
    2.6784    0.5428   -2.8418 C   0  0  0  0  0  0  0  0  0  0  0  0
    2.4026    0.0665   -1.5402 C   0  0  0  0  0  0  0  0  0  0  0  0
    1.0887   -0.1442   -1.0131 C   0  0  0  0  0  0  0  0  0  0  0  0
   -0.0054   -0.0765   -1.8382 O   0  0  0  0  0  0  0  0  0  0  0  0
    0.8527   -0.4985    0.3280 C   0  0  0  0  0  0  0  0  0  0  0  0
    1.9982   -0.8352    1.0526 C   0  0  0  0  0  0  0  0  0  0  0  0
   -5.6712   -0.7083    0.9336 H   0  0  0  0  0  0  0  0  0  0  0  0
   -6.5225   -2.1884    1.4266 H   0  0  0  0  0  0  0  0  0  0  0  0
   -5.4674   -2.1806   -0.0070 H   0  0  0  0  0  0  0  0  0  0  0  0
   -4.3473   -3.2857    1.9384 H   0  0  0  0  0  0  0  0  0  0  0  0
   -4.5137   -1.8179    2.8992 H   0  0  0  0  0  0  0  0  0  0  0  0
   -0.7132    4.0439    0.2232 H   0  0  0  0  0  0  0  0  0  0  0  0
   -2.1686    3.4653   -0.5807 H   0  0  0  0  0  0  0  0  0  0  0  0
   -0.4455    4.2721   -2.2300 H   0  0  0  0  0  0  0  0  0  0  0  0
    0.7111    3.0773   -1.5982 H   0  0  0  0  0  0  0  0  0  0  0  0
   -0.7360    2.5344   -2.4431 H   0  0  0  0  0  0  0  0  0  0  0  0
   -1.1761   -1.8800    2.8981 H   0  0  0  0  0  0  0  0  0  0  0  0
    5.7008   -0.2683   -0.5337 H   0  0  0  0  0  0  0  0  0  0  0  0
    6.0910    0.5608   -2.8320 H   0  0  0  0  0  0  0  0  0  0  0  0
    4.1704    1.0921   -4.3026 H   0  0  0  0  0  0  0  0  0  0  0  0
    1.8742    0.8182   -3.5199 H   0  0  0  0  0  0  0  0  0  0  0  0
    0.2674   -0.2490   -2.7542 H   0  0  0  0  0  0  0  0  0  0  0  0
  1  2  1  0
  2  3  1  0
  3  4  1  0
  4  5  2  0
  4  6  1  0
  6  7  1  0
  7  8  2  0
  7  9  1  0
  9 10  1  0
 10 11  1  0
  6 12  2  3
 12 13  1  0
 13 14  2  0
 14 15  1  0
 14 16  1  0
 16 17  2  0
 17 18  1  0
 18 19  1  0
 19 20  1  0
 20 21  2  0
 21 22  1  0
 22 23  2  0
 23 24  1  0
 24 25  2  0
 25 26  1  0
 26 27  1  0
 26 28  2  0
 28 29  1  0
 28 12  1  0
 29 16  1  0
 29 19  2  0
 25 20  1  0
  1 30  1  0
  1 31  1  0
  1 32  1  0
  2 33  1  0
  2 34  1  0
 10 35  1  0
 10 36  1  0
 11 37  1  0
 11 38  1  0
 11 39  1  0
 13 40  1  0
 21 41  1  0
 22 42  1  0
 23 43  1  0
 24 44  1  0
 27 45  1  0
M  END
$$$$
