
     RDKit          3D

 71 76  0  0  0  0  0  0  0  0999 V2000
    9.2596   -0.8789    0.2612 C   0  0  0  0  0  0  0  0  0  0  0  0
    9.0719    0.0638    1.3102 O   0  0  0  0  0  0  0  0  0  0  0  0
    7.9051    0.7802    1.2973 C   0  0  0  0  0  0  0  0  0  0  0  0
    7.8300    1.7790    2.2670 C   0  0  0  0  0  0  0  0  0  0  0  0
    6.6985    2.5816    2.3584 C   0  0  0  0  0  0  0  0  0  0  0  0
    5.6319    2.3771    1.4811 C   0  0  0  0  0  0  0  0  0  0  0  0
    5.6635    1.3680    0.5034 C   0  0  0  0  0  0  0  0  0  0  0  0
    4.5609    1.2120   -0.3563 N   0  0  0  0  0  0  0  0  0  0  0  0
    3.3037    0.8513    0.3523 C   0  0  0  0  0  0  0  0  0  0  0  0
    2.0914    0.9566   -0.6031 C   0  0  0  0  0  0  0  0  0  0  0  0
    2.3133    0.1719   -1.8246 N   0  0  0  0  0  0  0  0  0  0  0  0
    1.8861   -1.1294   -2.0404 C   0  0  0  0  0  0  0  0  0  0  0  0
    2.5305   -1.8850   -2.7781 O   0  0  0  0  0  0  0  0  0  0  0  0
    0.6155   -1.6712   -1.3896 C   0  0  0  0  0  0  0  0  0  0  0  0
    0.8014   -2.0745    0.0713 C   0  0  0  0  0  0  0  0  0  0  0  0
   -0.4919   -2.6741    0.6069 C   0  0  0  0  0  0  0  0  0  0  0  0
   -1.6658   -1.7102    0.4355 C   0  0  0  0  0  0  0  0  0  0  0  0
   -1.8070   -1.3066   -0.9669 N   0  0  0  0  0  0  0  0  0  0  0  0
   -2.9610   -0.5486   -1.2777 C   0  0  0  0  0  0  0  0  0  0  0  0
   -3.0675   -0.0328   -2.5432 N   0  0  0  0  0  0  0  0  0  0  0  0
   -4.1595    0.6728   -2.8975 C   0  0  0  0  0  0  0  0  0  0  0  0
   -5.2260    0.9828   -2.1450 N   0  0  0  0  0  0  0  0  0  0  0  0
   -5.1003    0.4767   -0.9085 C   0  0  0  0  0  0  0  0  0  0  0  0
   -4.0487   -0.2710   -0.4034 C   0  0  0  0  0  0  0  0  0  0  0  0
   -4.2945   -0.5782    0.9237 N   0  0  0  0  0  0  0  0  0  0  0  0
   -5.4716   -0.0548    1.2189 C   0  0  0  0  0  0  0  0  0  0  0  0
   -5.9899    0.6005    0.1252 N   0  0  0  0  0  0  0  0  0  0  0  0
   -7.2358    1.3267    0.0663 C   0  0  0  0  0  0  0  0  0  0  0  0
   -8.4641    0.4430    0.2638 C   0  0  0  0  0  0  0  0  0  0  0  0
   -8.4506   -0.4426    1.5152 C   0  0  0  0  0  0  0  0  0  0  0  0
   -7.6171    0.1180    2.6645 C   0  0  0  0  0  0  0  0  0  0  0  0
   -6.1237   -0.1922    2.5602 C   0  0  0  0  0  0  0  0  0  0  0  0
   -0.6048   -0.7827   -1.6418 C   0  0  0  0  0  0  0  0  0  0  0  0
    3.5307    0.6039   -2.5267 C   0  0  0  0  0  0  0  0  0  0  0  0
    4.7636    0.4500   -1.6153 C   0  0  0  0  0  0  0  0  0  0  0  0
    6.8262    0.5816    0.4252 C   0  0  0  0  0  0  0  0  0  0  0  0
    9.2077   -0.3952   -0.7206 H   0  0  0  0  0  0  0  0  0  0  0  0
   10.2621   -1.3050    0.3691 H   0  0  0  0  0  0  0  0  0  0  0  0
    8.5388   -1.6987    0.3398 H   0  0  0  0  0  0  0  0  0  0  0  0
    8.6631    1.9368    2.9470 H   0  0  0  0  0  0  0  0  0  0  0  0
    6.6484    3.3710    3.1034 H   0  0  0  0  0  0  0  0  0  0  0  0
    4.7720    3.0390    1.5488 H   0  0  0  0  0  0  0  0  0  0  0  0
    3.3866   -0.1754    0.7318 H   0  0  0  0  0  0  0  0  0  0  0  0
    3.1134    1.5112    1.2054 H   0  0  0  0  0  0  0  0  0  0  0  0
    1.1870    0.6576   -0.0784 H   0  0  0  0  0  0  0  0  0  0  0  0
    1.9548    2.0001   -0.9123 H   0  0  0  0  0  0  0  0  0  0  0  0
    0.4067   -2.6081   -1.9320 H   0  0  0  0  0  0  0  0  0  0  0  0
    1.0888   -1.2334    0.7048 H   0  0  0  0  0  0  0  0  0  0  0  0
    1.6123   -2.8081    0.1554 H   0  0  0  0  0  0  0  0  0  0  0  0
   -0.3728   -2.9263    1.6669 H   0  0  0  0  0  0  0  0  0  0  0  0
   -0.7053   -3.6114    0.0770 H   0  0  0  0  0  0  0  0  0  0  0  0
   -2.5554   -2.2523    0.7738 H   0  0  0  0  0  0  0  0  0  0  0  0
   -1.5186   -0.8310    1.0758 H   0  0  0  0  0  0  0  0  0  0  0  0
   -4.1735    1.0364   -3.9204 H   0  0  0  0  0  0  0  0  0  0  0  0
   -7.3081    1.8288   -0.9049 H   0  0  0  0  0  0  0  0  0  0  0  0
   -7.1827    2.1225    0.8180 H   0  0  0  0  0  0  0  0  0  0  0  0
   -8.6060   -0.2004   -0.6138 H   0  0  0  0  0  0  0  0  0  0  0  0
   -9.3439    1.0978    0.3058 H   0  0  0  0  0  0  0  0  0  0  0  0
   -8.0948   -1.4472    1.2538 H   0  0  0  0  0  0  0  0  0  0  0  0
   -9.4875   -0.5700    1.8502 H   0  0  0  0  0  0  0  0  0  0  0  0
   -7.7801    1.1972    2.7657 H   0  0  0  0  0  0  0  0  0  0  0  0
   -7.9787   -0.3186    3.6048 H   0  0  0  0  0  0  0  0  0  0  0  0
   -5.5815    0.4378    3.2765 H   0  0  0  0  0  0  0  0  0  0  0  0
   -5.9696   -1.2288    2.8906 H   0  0  0  0  0  0  0  0  0  0  0  0
   -0.4362    0.2489   -1.3181 H   0  0  0  0  0  0  0  0  0  0  0  0
   -0.7537   -0.7460   -2.7296 H   0  0  0  0  0  0  0  0  0  0  0  0
    3.3934    1.6570   -2.8016 H   0  0  0  0  0  0  0  0  0  0  0  0
    3.6738    0.0419   -3.4554 H   0  0  0  0  0  0  0  0  0  0  0  0
    5.6395    0.8308   -2.1529 H   0  0  0  0  0  0  0  0  0  0  0  0
    4.9180   -0.6130   -1.3917 H   0  0  0  0  0  0  0  0  0  0  0  0
    6.8776   -0.2106   -0.3099 H   0  0  0  0  0  0  0  0  0  0  0  0
  1  2  1  0
  2  3  1  0
  3  4  2  0
  4  5  1  0
  5  6  2  0
  6  7  1  0
  7  8  1  0
  8  9  1  0
  9 10  1  0
 10 11  1  0
 11 12  1  0
 12 13  2  0
 12 14  1  0
 14 15  1  0
 15 16  1  0
 16 17  1  0
 17 18  1  0
 18 19  1  0
 19 20  2  0
 20 21  1  0
 21 22  2  0
 22 23  1  0
 23 24  2  0
 24 25  1  0
 25 26  2  0
 26 27  1  0
 27 28  1  0
 28 29  1  0
 29 30  1  0
 30 31  1  0
 31 32  1  0
 18 33  1  0
 11 34  1  0
 34 35  1  0
  7 36  2  0
 36  3  1  0
 35  8  1  0
 33 14  1  0
 24 19  1  0
 32 26  1  0
 27 23  1  0
  1 37  1  0
  1 38  1  0
  1 39  1  0
  4 40  1  0
  5 41  1  0
  6 42  1  0
  9 43  1  0
  9 44  1  0
 10 45  1  0
 10 46  1  0
 14 47  1  0
 15 48  1  0
 15 49  1  0
 16 50  1  0
 16 51  1  0
 17 52  1  0
 17 53  1  0
 21 54  1  0
 28 55  1  0
 28 56  1  0
 29 57  1  0
 29 58  1  0
 30 59  1  0
 30 60  1  0
 31 61  1  0
 31 62  1  0
 32 63  1  0
 32 64  1  0
 33 65  1  0
 33 66  1  0
 34 67  1  0
 34 68  1  0
 35 69  1  0
 35 70  1  0
 36 71  1  0
M  END
$$$$
