
     RDKit          3D

 54 57  0  0  0  0  0  0  0  0999 V2000
   -5.3384   -4.6801   -1.8423 C   0  0  0  0  0  0  0  0  0  0  0  0
   -4.4456   -4.3700   -0.7800 O   0  0  0  0  0  0  0  0  0  0  0  0
   -4.1674   -3.0473   -0.5728 C   0  0  0  0  0  0  0  0  0  0  0  0
   -3.2793   -2.7948    0.4749 C   0  0  0  0  0  0  0  0  0  0  0  0
   -2.9080   -1.4864    0.7966 C   0  0  0  0  0  0  0  0  0  0  0  0
   -3.4227   -0.4063    0.0714 C   0  0  0  0  0  0  0  0  0  0  0  0
   -3.0215    0.9677    0.3987 C   0  0  0  0  0  0  0  0  0  0  0  0
   -4.2218    2.0533    0.9557 S   0  0  0  0  0  0  0  0  0  0  0  0
   -3.1022    3.3409    1.1455 C   0  0  0  0  0  0  0  0  0  0  0  0
   -3.3859    4.6454    1.5977 C   0  0  0  0  0  0  0  0  0  0  0  0
   -2.3478    5.5748    1.6847 C   0  0  0  0  0  0  0  0  0  0  0  0
   -1.0554    5.2202    1.3290 C   0  0  0  0  0  0  0  0  0  0  0  0
   -0.7793    3.9246    0.8823 C   0  0  0  0  0  0  0  0  0  0  0  0
   -1.8101    2.9524    0.7875 C   0  0  0  0  0  0  0  0  0  0  0  0
   -1.7722    1.5693    0.3614 C   0  0  0  0  0  0  0  0  0  0  0  0
   -0.5805    0.8461   -0.0721 C   0  0  0  0  0  0  0  0  0  0  0  0
    0.4323    0.5533    0.8476 C   0  0  0  0  0  0  0  0  0  0  0  0
    1.5809   -0.1370    0.4425 C   0  0  0  0  0  0  0  0  0  0  0  0
    1.7267   -0.5381   -0.8854 C   0  0  0  0  0  0  0  0  0  0  0  0
    2.7903   -1.2098   -1.4190 O   0  0  0  0  0  0  0  0  0  0  0  0
    3.8430   -1.6377   -0.5482 C   0  0  0  0  0  0  0  0  0  0  0  0
    4.8945   -0.5272   -0.3792 C   0  0  0  0  0  0  0  0  0  0  0  0
    6.0734   -0.9326    0.4108 N   0  0  0  0  0  0  0  0  0  0  0  0
    5.7454   -1.1068    1.8272 C   0  0  0  0  0  0  0  0  0  0  0  0
    7.1353    0.0682    0.2707 C   0  0  0  0  0  0  0  0  0  0  0  0
    0.7159   -0.2373   -1.8029 C   0  0  0  0  0  0  0  0  0  0  0  0
   -0.4323    0.4511   -1.4036 C   0  0  0  0  0  0  0  0  0  0  0  0
   -4.3123   -0.6636   -0.9804 C   0  0  0  0  0  0  0  0  0  0  0  0
   -4.6836   -1.9755   -1.3005 C   0  0  0  0  0  0  0  0  0  0  0  0
   -4.9325   -4.3567   -2.8065 H   0  0  0  0  0  0  0  0  0  0  0  0
   -5.4516   -5.7679   -1.8771 H   0  0  0  0  0  0  0  0  0  0  0  0
   -6.3287   -4.2480   -1.6645 H   0  0  0  0  0  0  0  0  0  0  0  0
   -2.8707   -3.6247    1.0462 H   0  0  0  0  0  0  0  0  0  0  0  0
   -2.2152   -1.3195    1.6177 H   0  0  0  0  0  0  0  0  0  0  0  0
   -4.3986    4.9263    1.8733 H   0  0  0  0  0  0  0  0  0  0  0  0
   -2.5578    6.5840    2.0310 H   0  0  0  0  0  0  0  0  0  0  0  0
   -0.2527    5.9505    1.3942 H   0  0  0  0  0  0  0  0  0  0  0  0
    0.2383    3.6640    0.6004 H   0  0  0  0  0  0  0  0  0  0  0  0
    0.3319    0.8560    1.8878 H   0  0  0  0  0  0  0  0  0  0  0  0
    2.3382   -0.3386    1.1918 H   0  0  0  0  0  0  0  0  0  0  0  0
    3.4486   -2.0213    0.3983 H   0  0  0  0  0  0  0  0  0  0  0  0
    4.3166   -2.4948   -1.0423 H   0  0  0  0  0  0  0  0  0  0  0  0
    5.2155   -0.2444   -1.3913 H   0  0  0  0  0  0  0  0  0  0  0  0
    4.4358    0.3768    0.0410 H   0  0  0  0  0  0  0  0  0  0  0  0
    5.3285   -0.1951    2.2702 H   0  0  0  0  0  0  0  0  0  0  0  0
    5.0290   -1.9213    1.9714 H   0  0  0  0  0  0  0  0  0  0  0  0
    6.6393   -1.3862    2.3968 H   0  0  0  0  0  0  0  0  0  0  0  0
    6.8258    1.0535    0.6380 H   0  0  0  0  0  0  0  0  0  0  0  0
    7.4350    0.1684   -0.7785 H   0  0  0  0  0  0  0  0  0  0  0  0
    8.0311   -0.2405    0.8212 H   0  0  0  0  0  0  0  0  0  0  0  0
    0.8220   -0.5454   -2.8404 H   0  0  0  0  0  0  0  0  0  0  0  0
   -1.2039    0.6720   -2.1369 H   0  0  0  0  0  0  0  0  0  0  0  0
   -4.7206    0.1579   -1.5653 H   0  0  0  0  0  0  0  0  0  0  0  0
   -5.3751   -2.1218   -2.1232 H   0  0  0  0  0  0  0  0  0  0  0  0
  1  2  1  0
  2  3  1  0
  3  4  2  0
  4  5  1  0
  5  6  2  0
  6  7  1  0
  7  8  1  0
  8  9  1  0
  9 10  2  0
 10 11  1  0
 11 12  2  0
 12 13  1  0
 13 14  2  0
 14 15  1  0
 15 16  1  0
 16 17  2  0
 17 18  1  0
 18 19  2  0
 19 20  1  0
 20 21  1  0
 21 22  1  0
 22 23  1  0
 23 24  1  0
 23 25  1  0
 19 26  1  0
 26 27  2  0
  6 28  1  0
 28 29  2  0
 29  3  1  0
 15  7  2  0
 27 16  1  0
 14  9  1  0
  1 30  1  0
  1 31  1  0
  1 32  1  0
  4 33  1  0
  5 34  1  0
 10 35  1  0
 11 36  1  0
 12 37  1  0
 13 38  1  0
 17 39  1  0
 18 40  1  0
 21 41  1  0
 21 42  1  0
 22 43  1  0
 22 44  1  0
 24 45  1  0
 24 46  1  0
 24 47  1  0
 25 48  1  0
 25 49  1  0
 25 50  1  0
 26 51  1  0
 27 52  1  0
 28 53  1  0
 29 54  1  0
M  END
$$$$
