
     RDKit          3D

 38 42  0  0  0  0  0  0  0  0999 V2000
    0.4617   -2.5173   -1.0238 O   0  0  0  0  0  0  0  0  0  0  0  0
   -0.0699   -1.3494   -0.6864 C   0  0  0  0  0  0  0  0  0  0  0  0
   -1.2779   -1.0250   -0.1302 C   0  0  0  0  0  0  0  0  0  0  0  0
   -1.3244    0.4029    0.0149 C   0  0  0  0  0  0  0  0  0  0  0  0
   -0.1426    0.9237   -0.4359 C   0  0  0  0  0  0  0  0  0  0  0  0
    0.2586    2.1892   -0.4728 O   0  0  0  0  0  0  0  0  0  0  0  0
    0.6144   -0.1549   -0.8887 N   0  0  0  0  0  0  0  0  0  0  0  0
    1.8929   -0.0620   -1.5915 C   0  0  0  0  0  0  0  0  0  0  0  0
    3.0252    0.3851   -0.6967 C   0  0  0  0  0  0  0  0  0  0  0  0
    3.8594    1.4421   -1.0936 C   0  0  0  0  0  0  0  0  0  0  0  0
    4.9157    1.8560   -0.2803 C   0  0  0  0  0  0  0  0  0  0  0  0
    5.1574    1.2127    0.9316 C   0  0  0  0  0  0  0  0  0  0  0  0
    4.3479    0.1509    1.3290 C   0  0  0  0  0  0  0  0  0  0  0  0
    3.2916   -0.2654    0.5175 C   0  0  0  0  0  0  0  0  0  0  0  0
   -2.6241    0.9127    0.6242 C   0  0  0  0  0  0  0  0  0  0  0  0
   -2.7590    0.1239    1.9551 C   0  0  0  0  0  0  0  0  0  0  0  0
   -2.7194   -1.2276    1.8167 C   0  0  0  0  0  0  0  0  0  0  0  0
   -2.5479   -1.7167    0.3553 C   0  0  0  0  0  0  0  0  0  0  0  0
   -3.7007   -1.1108   -0.5097 C   0  0  0  0  0  0  0  0  0  0  0  0
   -4.9411   -0.4250    0.0250 C   0  0  0  0  0  0  0  0  0  0  0  0
   -3.7465    0.4272   -0.3515 C   0  0  0  0  0  0  0  0  0  0  0  0
   -0.1854   -3.2037   -0.7835 H   0  0  0  0  0  0  0  0  0  0  0  0
    1.2307    2.2127   -0.4783 H   0  0  0  0  0  0  0  0  0  0  0  0
    1.7338    0.6444   -2.4154 H   0  0  0  0  0  0  0  0  0  0  0  0
    2.1374   -1.0319   -2.0365 H   0  0  0  0  0  0  0  0  0  0  0  0
    3.6954    1.9517   -2.0412 H   0  0  0  0  0  0  0  0  0  0  0  0
    5.5542    2.6782   -0.5939 H   0  0  0  0  0  0  0  0  0  0  0  0
    5.9803    1.5347    1.5645 H   0  0  0  0  0  0  0  0  0  0  0  0
    4.5389   -0.3561    2.2714 H   0  0  0  0  0  0  0  0  0  0  0  0
    2.6727   -1.1009    0.8417 H   0  0  0  0  0  0  0  0  0  0  0  0
   -2.6406    1.9946    0.7734 H   0  0  0  0  0  0  0  0  0  0  0  0
   -2.8642    0.6366    2.9009 H   0  0  0  0  0  0  0  0  0  0  0  0
   -2.7917   -1.9228    2.6411 H   0  0  0  0  0  0  0  0  0  0  0  0
   -2.5018   -2.8055    0.2811 H   0  0  0  0  0  0  0  0  0  0  0  0
   -3.7167   -1.5084   -1.5172 H   0  0  0  0  0  0  0  0  0  0  0  0
   -5.2146   -0.5373    1.0667 H   0  0  0  0  0  0  0  0  0  0  0  0
   -5.8076   -0.3815   -0.6279 H   0  0  0  0  0  0  0  0  0  0  0  0
   -3.7921    1.0228   -1.2552 H   0  0  0  0  0  0  0  0  0  0  0  0
  1  2  1  0
  2  3  2  0
  3  4  1  0
  4  5  2  0
  5  6  1  0
  5  7  1  0
  7  8  1  0
  8  9  1  0
  9 10  2  0
 10 11  1  0
 11 12  2  0
 12 13  1  0
 13 14  2  0
  4 15  1  0
 15 16  1  0
 16 17  2  0
 17 18  1  0
 18 19  1  0
 19 20  1  0
 20 21  1  0
  7  2  1  0
 14  9  1  0
 21 15  1  0
 18  3  1  0
 21 19  1  0
  1 22  1  0
  6 23  1  0
  8 24  1  0
  8 25  1  0
 10 26  1  0
 11 27  1  0
 12 28  1  0
 13 29  1  0
 14 30  1  0
 15 31  1  0
 16 32  1  0
 17 33  1  0
 18 34  1  0
 19 35  1  0
 20 36  1  0
 20 37  1  0
 21 38  1  0
M  END
$$$$
