
     RDKit          3D

 39 41  0  0  0  0  0  0  0  0999 V2000
   -3.3254   -2.3004    0.2677 C   0  0  0  0  0  0  0  0  0  0  0  0
   -2.8534   -1.0108   -0.1181 O   0  0  0  0  0  0  0  0  0  0  0  0
   -3.7850   -0.0042   -0.1119 C   0  0  0  0  0  0  0  0  0  0  0  0
   -4.9190   -0.0058    0.7093 C   0  0  0  0  0  0  0  0  0  0  0  0
   -5.8170    1.0633    0.6802 C   0  0  0  0  0  0  0  0  0  0  0  0
   -5.5831    2.1460   -0.1597 C   0  0  0  0  0  0  0  0  0  0  0  0
   -4.4478    2.1620   -0.9696 C   0  0  0  0  0  0  0  0  0  0  0  0
   -3.5328    1.0928   -0.9551 C   0  0  0  0  0  0  0  0  0  0  0  0
   -2.3157    1.1600   -1.8516 C   0  0  0  0  0  0  0  0  0  0  0  0
   -1.0446    2.2885   -1.2063 S   0  0  0  0  0  0  0  0  0  0  0  0
    0.1145    1.1969   -0.5473 C   0  0  0  0  0  0  0  0  0  0  0  0
    1.4060    1.2160   -0.7698 N   0  0  0  0  0  0  0  0  0  0  0  0
    1.9231    0.1837   -0.0157 C   0  0  0  0  0  0  0  0  0  0  0  0
    3.3413   -0.1446    0.0053 C   0  0  0  0  0  0  0  0  0  0  0  0
    3.8325   -1.2880    0.6526 C   0  0  0  0  0  0  0  0  0  0  0  0
    5.2019   -1.5808    0.6474 C   0  0  0  0  0  0  0  0  0  0  0  0
    6.0909   -0.7220   -0.0109 C   0  0  0  0  0  0  0  0  0  0  0  0
    7.5256   -1.0287   -0.0212 N   0  0  0  0  0  4  0  0  0  0  0  0
    8.2877   -0.2187   -0.5690 O   0  0  0  0  0  0  0  0  0  0  0  0
    7.8921   -2.0822    0.5193 O   0  0  0  0  0  1  0  0  0  0  0  0
    5.6206    0.4229   -0.6609 C   0  0  0  0  0  0  0  0  0  0  0  0
    4.2512    0.7033   -0.6488 C   0  0  0  0  0  0  0  0  0  0  0  0
    0.9133   -0.4491    0.6812 C   0  0  0  0  0  0  0  0  0  0  0  0
   -0.2325    0.2181    0.3349 N   0  0  0  0  0  0  0  0  0  0  0  0
   -2.5749   -3.0349   -0.0400 H   0  0  0  0  0  0  0  0  0  0  0  0
   -4.2656   -2.5553   -0.2341 H   0  0  0  0  0  0  0  0  0  0  0  0
   -3.4277   -2.3638    1.3556 H   0  0  0  0  0  0  0  0  0  0  0  0
   -5.1233   -0.8207    1.3958 H   0  0  0  0  0  0  0  0  0  0  0  0
   -6.6955    1.0537    1.3206 H   0  0  0  0  0  0  0  0  0  0  0  0
   -6.2757    2.9837   -0.1768 H   0  0  0  0  0  0  0  0  0  0  0  0
   -4.2720    3.0226   -1.6136 H   0  0  0  0  0  0  0  0  0  0  0  0
   -2.6277    1.5420   -2.8320 H   0  0  0  0  0  0  0  0  0  0  0  0
   -1.8994    0.1670   -2.0527 H   0  0  0  0  0  0  0  0  0  0  0  0
    3.1603   -1.9723    1.1644 H   0  0  0  0  0  0  0  0  0  0  0  0
    5.5525   -2.4761    1.1564 H   0  0  0  0  0  0  0  0  0  0  0  0
    6.2947    1.1023   -1.1780 H   0  0  0  0  0  0  0  0  0  0  0  0
    3.8901    1.5975   -1.1563 H   0  0  0  0  0  0  0  0  0  0  0  0
    0.8942   -1.2795    1.3716 H   0  0  0  0  0  0  0  0  0  0  0  0
   -1.1746    0.0158    0.6439 H   0  0  0  0  0  0  0  0  0  0  0  0
  1  2  1  0
  2  3  1  0
  3  4  2  0
  4  5  1  0
  5  6  2  0
  6  7  1  0
  7  8  2  0
  8  9  1  0
  9 10  1  0
 10 11  1  0
 11 12  2  0
 12 13  1  0
 13 14  1  0
 14 15  2  0
 15 16  1  0
 16 17  2  0
 17 18  1  0
 18 19  2  0
 18 20  1  0
 17 21  1  0
 21 22  2  0
 13 23  2  0
 23 24  1  0
  8  3  1  0
 24 11  1  0
 22 14  1  0
  1 25  1  0
  1 26  1  0
  1 27  1  0
  4 28  1  0
  5 29  1  0
  6 30  1  0
  7 31  1  0
  9 32  1  0
  9 33  1  0
 15 34  1  0
 16 35  1  0
 21 36  1  0
 22 37  1  0
 23 38  1  0
 24 39  1  0
M  CHG  2  18   1  20  -1
M  END
$$$$
