
     RDKit          3D

 28 30  0  0  0  0  0  0  0  0999 V2000
    1.2461    3.8886   -0.3217 S   0  0  0  0  0  0  0  0  0  0  0  0
   -0.1438    2.9873   -0.2033 C   0  0  0  0  0  0  0  0  0  0  0  0
   -1.4119    3.5450   -0.3557 N   0  0  0  0  0  0  0  0  0  0  0  0
   -2.3650    2.5674   -0.4049 N   0  0  0  0  0  0  0  0  0  0  0  0
   -1.7096    1.4527   -0.2067 C   0  0  0  0  0  0  0  0  0  0  0  0
   -2.3687    0.1341   -0.2100 C   0  0  0  0  0  0  0  0  0  0  0  0
   -1.9004   -0.9764    0.4932 C   0  0  0  0  0  0  0  0  0  0  0  0
   -2.6085   -2.1766    0.4358 C   0  0  0  0  0  0  0  0  0  0  0  0
   -3.7723   -2.2223   -0.3145 C   0  0  0  0  0  0  0  0  0  0  0  0
   -4.2668   -1.1648   -0.9915 N   0  0  0  0  0  0  0  0  0  0  0  0
   -3.5561   -0.0105   -0.9200 C   0  0  0  0  0  0  0  0  0  0  0  0
   -0.3613    1.6295   -0.0040 N   0  0  0  0  0  0  0  0  0  0  0  0
    0.5515    0.6157   -0.0837 N   0  0  0  0  0  0  0  0  0  0  0  0
    1.6350    0.7295    0.6162 C   0  0  0  0  0  0  0  0  0  0  0  0
    2.6796   -0.2690    0.5843 C   0  0  0  0  0  0  0  0  0  0  0  0
    3.8846   -0.2417    1.2634 C   0  0  0  0  0  0  0  0  0  0  0  0
    4.6806   -1.3986    1.0033 C   0  0  0  0  0  0  0  0  0  0  0  0
    4.0435   -2.2524    0.1398 C   0  0  0  0  0  0  0  0  0  0  0  0
    4.7905   -3.9104   -0.4469 Br  0  0  0  0  0  0  0  0  0  0  0  0
    2.5253   -1.6932   -0.3569 S   0  0  0  0  0  0  0  0  0  0  0  0
   -1.6181    4.5045   -0.6089 H   0  0  0  0  0  0  0  0  0  0  0  0
   -1.0002   -0.9280    1.0961 H   0  0  0  0  0  0  0  0  0  0  0  0
   -2.2603   -3.0555    0.9675 H   0  0  0  0  0  0  0  0  0  0  0  0
   -4.3562   -3.1355   -0.3894 H   0  0  0  0  0  0  0  0  0  0  0  0
   -3.9881    0.8180   -1.4765 H   0  0  0  0  0  0  0  0  0  0  0  0
    1.8008    1.5743    1.3074 H   0  0  0  0  0  0  0  0  0  0  0  0
    4.1895    0.5695    1.9146 H   0  0  0  0  0  0  0  0  0  0  0  0
    5.6601   -1.5811    1.4283 H   0  0  0  0  0  0  0  0  0  0  0  0
  1  2  2  0
  2  3  1  0
  3  4  1  0
  4  5  2  0
  5  6  1  0
  6  7  2  0
  7  8  1  0
  8  9  2  0
  9 10  1  0
 10 11  2  0
  5 12  1  0
 12 13  1  0
 13 14  2  3
 14 15  1  0
 15 16  2  0
 16 17  1  0
 17 18  2  0
 18 19  1  0
 18 20  1  0
 12  2  1  0
 20 15  1  0
 11  6  1  0
  3 21  1  0
  7 22  1  0
  8 23  1  0
  9 24  1  0
 11 25  1  0
 14 26  1  0
 16 27  1  0
 17 28  1  0
M  END
$$$$
