
     RDKit          3D

 38 39  0  0  0  0  0  0  0  0999 V2000
   -0.8396    2.2313   -1.2674 O   0  0  0  0  0  0  0  0  0  0  0  0
   -0.1100    1.2876   -1.0074 C   0  0  0  0  0  0  0  0  0  0  0  0
    1.1193    1.0232   -1.5718 N   0  0  0  0  0  0  0  0  0  0  0  0
    1.7687    2.0505   -2.3789 C   0  0  0  0  0  0  0  0  0  0  0  0
    1.1489    2.1823   -3.7741 C   0  0  0  0  0  0  0  0  0  0  0  0
    1.3085    0.9564   -4.4973 O   0  0  0  0  0  0  0  0  0  0  0  0
   -0.5869    0.2745    0.0154 C   0  0  0  0  0  0  0  0  0  0  0  0
   -1.7412   -0.5834   -0.4509 C   0  0  0  0  0  0  0  0  0  0  0  0
   -1.4034   -2.0560   -0.4337 C   0  0  0  0  0  0  0  0  0  0  0  0
   -0.7678   -2.6531   -1.5323 C   0  0  0  0  0  0  0  0  0  0  0  0
   -0.4307   -4.0102   -1.5019 C   0  0  0  0  0  0  0  0  0  0  0  0
   -0.7248   -4.7736   -0.3728 C   0  0  0  0  0  0  0  0  0  0  0  0
   -0.2677   -6.6101   -0.3323 Br  0  0  0  0  0  0  0  0  0  0  0  0
   -1.3560   -4.1931    0.7260 C   0  0  0  0  0  0  0  0  0  0  0  0
   -1.6911   -2.8363    0.6966 C   0  0  0  0  0  0  0  0  0  0  0  0
   -0.1182    0.1532    1.2235 N   0  0  0  0  0  0  0  0  0  0  0  0
    0.9479    0.9342    1.5908 C   0  0  0  0  0  0  0  0  0  0  0  0
    1.9988    0.9616    0.9564 O   0  0  0  0  0  0  0  0  0  0  0  0
    0.6808    1.6592    2.8259 C   0  0  0  0  0  0  0  0  0  0  0  0
   -0.4429    1.6474    3.6403 C   0  0  0  0  0  0  0  0  0  0  0  0
   -0.3051    2.4903    4.7847 C   0  0  0  0  0  0  0  0  0  0  0  0
    0.9129    3.1327    4.8039 C   0  0  0  0  0  0  0  0  0  0  0  0
    1.8787    2.7201    3.4502 S   0  0  0  0  0  0  0  0  0  0  0  0
    1.7414    0.4788   -0.9731 H   0  0  0  0  0  0  0  0  0  0  0  0
    2.8216    1.7559   -2.4668 H   0  0  0  0  0  0  0  0  0  0  0  0
    1.7094    3.0059   -1.8408 H   0  0  0  0  0  0  0  0  0  0  0  0
    1.6550    2.9736   -4.3400 H   0  0  0  0  0  0  0  0  0  0  0  0
    0.0816    2.4226   -3.7271 H   0  0  0  0  0  0  0  0  0  0  0  0
    1.0039    0.2501   -3.8964 H   0  0  0  0  0  0  0  0  0  0  0  0
   -2.6043   -0.3800    0.1979 H   0  0  0  0  0  0  0  0  0  0  0  0
   -2.0449   -0.2924   -1.4644 H   0  0  0  0  0  0  0  0  0  0  0  0
   -0.5356   -2.0704   -2.4210 H   0  0  0  0  0  0  0  0  0  0  0  0
    0.0602   -4.4613   -2.3613 H   0  0  0  0  0  0  0  0  0  0  0  0
   -1.5896   -4.7840    1.6096 H   0  0  0  0  0  0  0  0  0  0  0  0
   -2.1731   -2.3903    1.5655 H   0  0  0  0  0  0  0  0  0  0  0  0
   -1.3216    1.0470    3.4317 H   0  0  0  0  0  0  0  0  0  0  0  0
   -1.0627    2.6232    5.5501 H   0  0  0  0  0  0  0  0  0  0  0  0
    1.2796    3.8326    5.5434 H   0  0  0  0  0  0  0  0  0  0  0  0
  1  2  2  0
  2  3  1  0
  3  4  1  0
  4  5  1  0
  5  6  1  0
  2  7  1  0
  7  8  1  0
  8  9  1  0
  9 10  2  0
 10 11  1  0
 11 12  2  0
 12 13  1  0
 12 14  1  0
 14 15  2  0
  7 16  2  3
 16 17  1  0
 17 18  2  0
 17 19  1  0
 19 20  2  0
 20 21  1  0
 21 22  2  0
 22 23  1  0
 15  9  1  0
 23 19  1  0
  3 24  1  0
  4 25  1  0
  4 26  1  0
  5 27  1  0
  5 28  1  0
  6 29  1  0
  8 30  1  0
  8 31  1  0
 10 32  1  0
 11 33  1  0
 14 34  1  0
 15 35  1  0
 20 36  1  0
 21 37  1  0
 22 38  1  0
M  END
$$$$
