
     RDKit          3D

 47 49  0  0  0  0  0  0  0  0999 V2000
   -8.5675   -0.2938    1.6837 C   0  0  0  0  0  0  0  0  0  0  0  0
   -7.6773    0.4881    0.7344 C   0  0  0  0  0  0  0  0  0  0  0  0
   -7.1979   -0.3748   -0.4297 C   0  0  0  0  0  0  0  0  0  0  0  0
   -6.4107    0.3940   -1.3390 O   0  0  0  0  0  0  0  0  0  0  0  0
   -5.0662    0.5052   -1.1256 C   0  0  0  0  0  0  0  0  0  0  0  0
   -4.3828    1.2196   -2.1147 C   0  0  0  0  0  0  0  0  0  0  0  0
   -3.0034    1.4208   -2.0278 C   0  0  0  0  0  0  0  0  0  0  0  0
   -2.2896    0.8951   -0.9478 C   0  0  0  0  0  0  0  0  0  0  0  0
   -0.8195    1.1269   -0.8810 C   0  0  0  0  0  0  0  0  0  0  0  0
   -0.3826    2.1955   -1.2883 O   0  0  0  0  0  0  0  0  0  0  0  0
   -0.0893    0.0611   -0.3860 N   0  0  0  0  0  0  0  0  0  0  0  0
    1.3026    0.0081   -0.1665 C   0  0  0  0  0  0  0  0  0  0  0  0
    1.8404   -1.2137    0.2489 C   0  0  0  0  0  0  0  0  0  0  0  0
    3.2130   -1.3446    0.4924 C   0  0  0  0  0  0  0  0  0  0  0  0
    4.0756   -0.2547    0.3328 C   0  0  0  0  0  0  0  0  0  0  0  0
    5.4447   -0.4760    0.5913 N   0  0  0  0  0  0  0  0  0  0  0  0
    6.4777    0.4531    0.5788 C   0  0  0  0  0  0  0  0  0  0  0  0
    6.3151    1.6562    0.3983 O   0  0  0  0  0  0  0  0  0  0  0  0
    7.7973   -0.1344    0.8288 C   0  0  0  0  0  0  0  0  0  0  0  0
    8.2386   -1.4425    0.7054 C   0  0  0  0  0  0  0  0  0  0  0  0
    9.6133   -1.5964    1.0566 C   0  0  0  0  0  0  0  0  0  0  0  0
   10.1869   -0.4022    1.4251 C   0  0  0  0  0  0  0  0  0  0  0  0
    9.0775    0.8930    1.3426 S   0  0  0  0  0  0  0  0  0  0  0  0
    3.5375    0.9631   -0.0794 C   0  0  0  0  0  0  0  0  0  0  0  0
    2.1618    1.0936   -0.3256 C   0  0  0  0  0  0  0  0  0  0  0  0
   -2.9707    0.1956    0.0560 C   0  0  0  0  0  0  0  0  0  0  0  0
   -4.3549    0.0001   -0.0364 C   0  0  0  0  0  0  0  0  0  0  0  0
   -8.8985    0.3455    2.5077 H   0  0  0  0  0  0  0  0  0  0  0  0
   -8.0307   -1.1467    2.1110 H   0  0  0  0  0  0  0  0  0  0  0  0
   -9.4568   -0.6702    1.1683 H   0  0  0  0  0  0  0  0  0  0  0  0
   -6.8234    0.8958    1.2860 H   0  0  0  0  0  0  0  0  0  0  0  0
   -8.2225    1.3557    0.3443 H   0  0  0  0  0  0  0  0  0  0  0  0
   -8.0717   -0.7180   -0.9968 H   0  0  0  0  0  0  0  0  0  0  0  0
   -6.6826   -1.2846   -0.1010 H   0  0  0  0  0  0  0  0  0  0  0  0
   -4.9318    1.6295   -2.9594 H   0  0  0  0  0  0  0  0  0  0  0  0
   -2.4896    1.9863   -2.8027 H   0  0  0  0  0  0  0  0  0  0  0  0
   -0.5919   -0.8022   -0.2287 H   0  0  0  0  0  0  0  0  0  0  0  0
    1.2041   -2.0839    0.3863 H   0  0  0  0  0  0  0  0  0  0  0  0
    3.5907   -2.3126    0.8108 H   0  0  0  0  0  0  0  0  0  0  0  0
    5.6878   -1.4147    0.8702 H   0  0  0  0  0  0  0  0  0  0  0  0
    7.6231   -2.2644    0.3623 H   0  0  0  0  0  0  0  0  0  0  0  0
   10.1559   -2.5338    1.0297 H   0  0  0  0  0  0  0  0  0  0  0  0
   11.2083   -0.2230    1.7322 H   0  0  0  0  0  0  0  0  0  0  0  0
    4.1545    1.8441   -0.2284 H   0  0  0  0  0  0  0  0  0  0  0  0
    1.7986    2.0681   -0.6388 H   0  0  0  0  0  0  0  0  0  0  0  0
   -2.4466   -0.1734    0.9335 H   0  0  0  0  0  0  0  0  0  0  0  0
   -4.8465   -0.5334    0.7699 H   0  0  0  0  0  0  0  0  0  0  0  0
  1  2  1  0
  2  3  1  0
  3  4  1  0
  4  5  1  0
  5  6  2  0
  6  7  1  0
  7  8  2  0
  8  9  1  0
  9 10  2  0
  9 11  1  0
 11 12  1  0
 12 13  2  0
 13 14  1  0
 14 15  2  0
 15 16  1  0
 16 17  1  0
 17 18  2  0
 17 19  1  0
 19 20  2  0
 20 21  1  0
 21 22  2  0
 22 23  1  0
 15 24  1  0
 24 25  2  0
  8 26  1  0
 26 27  2  0
 27  5  1  0
 25 12  1  0
 23 19  1  0
  1 28  1  0
  1 29  1  0
  1 30  1  0
  2 31  1  0
  2 32  1  0
  3 33  1  0
  3 34  1  0
  6 35  1  0
  7 36  1  0
 11 37  1  0
 13 38  1  0
 14 39  1  0
 16 40  1  0
 20 41  1  0
 21 42  1  0
 22 43  1  0
 24 44  1  0
 25 45  1  0
 26 46  1  0
 27 47  1  0
M  END
$$$$
