
     RDKit          3D

 45 47  0  0  0  0  0  0  0  0999 V2000
   -6.7241   -1.5538    2.0320 N   0  0  0  0  0  0  0  0  0  0  0  0
   -6.9929   -0.8179    0.5408 S   0  0  0  0  0  6  0  0  0  0  0  0
   -7.8656    0.3004    0.8162 O   0  0  0  0  0  0  0  0  0  0  0  0
   -7.3225   -1.8484   -0.4134 O   0  0  0  0  0  0  0  0  0  0  0  0
   -5.3789   -0.1920    0.1590 C   0  0  0  0  0  0  0  0  0  0  0  0
   -4.4274   -1.0477   -0.3980 C   0  0  0  0  0  0  0  0  0  0  0  0
   -3.1527   -0.5595   -0.7053 C   0  0  0  0  0  0  0  0  0  0  0  0
   -2.8325    0.7832   -0.4855 C   0  0  0  0  0  0  0  0  0  0  0  0
   -1.5617    1.3414   -0.7393 N   0  0  0  0  0  0  0  0  0  0  0  0
   -0.5521    0.9648   -1.6180 C   0  0  0  0  0  0  0  0  0  0  0  0
   -0.7751    0.0236   -2.9916 S   0  0  0  0  0  0  0  0  0  0  0  0
    0.6821    1.5528   -1.2600 N   0  0  0  0  0  0  0  0  0  0  0  0
    1.8772    1.4914   -2.1284 C   0  0  0  0  0  0  0  0  0  0  0  0
    2.8195    0.3391   -1.7196 C   0  0  0  0  0  0  0  0  0  0  0  0
    3.1681    0.4498   -0.2750 N   0  0  0  0  0  0  0  0  0  0  0  0
    4.2052   -0.4160    0.1135 C   0  0  0  0  0  0  0  0  0  0  0  0
    5.4795   -0.2665   -0.4613 C   0  0  0  0  0  0  0  0  0  0  0  0
    6.5501   -1.0938   -0.1071 C   0  0  0  0  0  0  0  0  0  0  0  0
    6.3703   -2.0930    0.8419 C   0  0  0  0  0  0  0  0  0  0  0  0
    5.1238   -2.2561    1.4369 C   0  0  0  0  0  0  0  0  0  0  0  0
    4.0567   -1.4227    1.0789 C   0  0  0  0  0  0  0  0  0  0  0  0
    1.9780    0.5377    0.6025 C   0  0  0  0  0  0  0  0  0  0  0  0
    1.0675    1.7046    0.1592 C   0  0  0  0  0  0  0  0  0  0  0  0
   -3.7959    1.6249    0.0902 C   0  0  0  0  0  0  0  0  0  0  0  0
   -5.0718    1.1465    0.4022 C   0  0  0  0  0  0  0  0  0  0  0  0
   -5.7381   -1.6166    2.2807 H   0  0  0  0  0  0  0  0  0  0  0  0
   -7.2706   -1.0657    2.7435 H   0  0  0  0  0  0  0  0  0  0  0  0
   -4.6655   -2.0913   -0.5967 H   0  0  0  0  0  0  0  0  0  0  0  0
   -2.4224   -1.2614   -1.0957 H   0  0  0  0  0  0  0  0  0  0  0  0
   -1.4336    2.2893   -0.4065 H   0  0  0  0  0  0  0  0  0  0  0  0
    1.6045    1.4115   -3.1838 H   0  0  0  0  0  0  0  0  0  0  0  0
    2.3994    2.4495   -2.0109 H   0  0  0  0  0  0  0  0  0  0  0  0
    3.7088    0.3944   -2.3569 H   0  0  0  0  0  0  0  0  0  0  0  0
    2.3347   -0.6282   -1.9013 H   0  0  0  0  0  0  0  0  0  0  0  0
    5.6572    0.5272   -1.1828 H   0  0  0  0  0  0  0  0  0  0  0  0
    7.5225   -0.9481   -0.5694 H   0  0  0  0  0  0  0  0  0  0  0  0
    7.1987   -2.7382    1.1207 H   0  0  0  0  0  0  0  0  0  0  0  0
    4.9755   -3.0339    2.1813 H   0  0  0  0  0  0  0  0  0  0  0  0
    3.1021   -1.5987    1.5641 H   0  0  0  0  0  0  0  0  0  0  0  0
    1.4063   -0.3982    0.5595 H   0  0  0  0  0  0  0  0  0  0  0  0
    2.2827    0.7185    1.6403 H   0  0  0  0  0  0  0  0  0  0  0  0
    1.6000    2.6586    0.2519 H   0  0  0  0  0  0  0  0  0  0  0  0
    0.1989    1.7427    0.8210 H   0  0  0  0  0  0  0  0  0  0  0  0
   -3.5736    2.6723    0.2820 H   0  0  0  0  0  0  0  0  0  0  0  0
   -5.8124    1.8230    0.8236 H   0  0  0  0  0  0  0  0  0  0  0  0
  1  2  1  0
  2  3  2  0
  2  4  2  0
  2  5  1  0
  5  6  2  0
  6  7  1  0
  7  8  2  0
  8  9  1  0
  9 10  1  0
 10 11  2  0
 10 12  1  0
 12 13  1  0
 13 14  1  0
 14 15  1  0
 15 16  1  0
 16 17  2  0
 17 18  1  0
 18 19  2  0
 19 20  1  0
 20 21  2  0
 15 22  1  0
 22 23  1  0
  8 24  1  0
 24 25  2  0
 25  5  1  0
 23 12  1  0
 21 16  1  0
  1 26  1  0
  1 27  1  0
  6 28  1  0
  7 29  1  0
  9 30  1  0
 13 31  1  0
 13 32  1  0
 14 33  1  0
 14 34  1  0
 17 35  1  0
 18 36  1  0
 19 37  1  0
 20 38  1  0
 21 39  1  0
 22 40  1  0
 22 41  1  0
 23 42  1  0
 23 43  1  0
 24 44  1  0
 25 45  1  0
M  END
$$$$
