
     RDKit          3D

 51 54  0  0  0  0  0  0  0  0999 V2000
    0.8791    2.5404   -1.8475 O   0  0  0  0  0  0  0  0  0  0  0  0
    1.1783    1.4933   -1.2716 C   0  0  0  0  0  0  0  0  0  0  0  0
    2.5366    1.2055   -0.8346 C   0  0  0  0  0  0  0  0  0  0  0  0
    3.2826    0.0482   -0.9763 C   0  0  0  0  0  0  0  0  0  0  0  0
    4.5883    0.1656   -0.4110 C   0  0  0  0  0  0  0  0  0  0  0  0
    4.7923    1.4247    0.1179 C   0  0  0  0  0  0  0  0  0  0  0  0
    3.4409    2.4401   -0.0622 S   0  0  0  0  0  0  0  0  0  0  0  0
    6.0447    1.8810    0.8008 C   0  0  0  0  0  0  0  0  0  0  0  0
    7.2056    0.9216    0.4926 C   0  0  0  0  0  0  0  0  0  0  0  0
    6.7751   -0.5490    0.5985 C   0  0  0  0  0  0  0  0  0  0  0  0
    5.6565   -0.8859   -0.4002 C   0  0  0  0  0  0  0  0  0  0  0  0
    0.1976    0.5244   -1.0268 N   0  0  0  0  0  0  0  0  0  0  0  0
   -1.1435    0.7520   -1.5651 C   0  0  0  0  0  0  0  0  0  0  0  0
   -1.9771   -0.5319   -1.6776 C   0  0  0  0  0  0  0  0  0  0  0  0
   -1.9826   -1.3267   -0.4206 N   0  0  0  0  0  0  0  0  0  0  0  0
   -3.3844   -2.1526    0.0207 S   0  0  0  0  0  6  0  0  0  0  0  0
   -3.9294   -2.7470   -1.1748 O   0  0  0  0  0  0  0  0  0  0  0  0
   -3.0793   -2.9655    1.1789 O   0  0  0  0  0  0  0  0  0  0  0  0
   -4.4821   -0.8527    0.5838 C   0  0  0  0  0  0  0  0  0  0  0  0
   -4.2052   -0.3202    1.8583 C   0  0  0  0  0  0  0  0  0  0  0  0
   -4.9946    0.6934    2.3960 C   0  0  0  0  0  0  0  0  0  0  0  0
   -6.0809    1.1722    1.6771 C   0  0  0  0  0  0  0  0  0  0  0  0
   -6.3871    0.6229    0.4309 C   0  0  0  0  0  0  0  0  0  0  0  0
   -5.6060   -0.4081   -0.1393 C   0  0  0  0  0  0  0  0  0  0  0  0
   -6.0544   -0.9819   -1.4658 C   0  0  0  0  0  0  0  0  0  0  0  0
   -5.1199   -0.8710   -2.4451 F   0  0  0  0  0  0  0  0  0  0  0  0
   -7.1476   -0.3272   -1.9669 F   0  0  0  0  0  0  0  0  0  0  0  0
   -6.4391   -2.2808   -1.3877 F   0  0  0  0  0  0  0  0  0  0  0  0
   -1.0332   -0.8868    0.6260 C   0  0  0  0  0  0  0  0  0  0  0  0
    0.3199   -0.5255   -0.0068 C   0  0  0  0  0  0  0  0  0  0  0  0
    2.9139   -0.8391   -1.4771 H   0  0  0  0  0  0  0  0  0  0  0  0
    6.3183    2.8953    0.4891 H   0  0  0  0  0  0  0  0  0  0  0  0
    5.8700    1.9017    1.8836 H   0  0  0  0  0  0  0  0  0  0  0  0
    7.5791    1.1121   -0.5219 H   0  0  0  0  0  0  0  0  0  0  0  0
    8.0351    1.1198    1.1807 H   0  0  0  0  0  0  0  0  0  0  0  0
    6.4274   -0.7477    1.6204 H   0  0  0  0  0  0  0  0  0  0  0  0
    7.6344   -1.2049    0.4192 H   0  0  0  0  0  0  0  0  0  0  0  0
    6.0810   -0.9608   -1.4090 H   0  0  0  0  0  0  0  0  0  0  0  0
    5.2259   -1.8627   -0.1523 H   0  0  0  0  0  0  0  0  0  0  0  0
   -1.0718    1.2315   -2.5479 H   0  0  0  0  0  0  0  0  0  0  0  0
   -1.6404    1.4622   -0.8921 H   0  0  0  0  0  0  0  0  0  0  0  0
   -1.5622   -1.1703   -2.4661 H   0  0  0  0  0  0  0  0  0  0  0  0
   -2.9894   -0.2507   -1.9702 H   0  0  0  0  0  0  0  0  0  0  0  0
   -3.3765   -0.7044    2.4510 H   0  0  0  0  0  0  0  0  0  0  0  0
   -4.7688    1.0998    3.3793 H   0  0  0  0  0  0  0  0  0  0  0  0
   -6.7055    1.9603    2.0927 H   0  0  0  0  0  0  0  0  0  0  0  0
   -7.2644    1.0020   -0.0957 H   0  0  0  0  0  0  0  0  0  0  0  0
   -0.8704   -1.6883    1.3530 H   0  0  0  0  0  0  0  0  0  0  0  0
   -1.4367   -0.0144    1.1501 H   0  0  0  0  0  0  0  0  0  0  0  0
    0.7386   -1.4069   -0.5057 H   0  0  0  0  0  0  0  0  0  0  0  0
    1.0114   -0.2071    0.7794 H   0  0  0  0  0  0  0  0  0  0  0  0
  1  2  2  0
  2  3  1  0
  3  4  2  0
  4  5  1  0
  5  6  2  0
  6  7  1  0
  6  8  1  0
  8  9  1  0
  9 10  1  0
 10 11  1  0
  2 12  1  0
 12 13  1  0
 13 14  1  0
 14 15  1  0
 15 16  1  0
 16 17  2  0
 16 18  2  0
 16 19  1  0
 19 20  2  0
 20 21  1  0
 21 22  2  0
 22 23  1  0
 23 24  2  0
 24 25  1  0
 25 26  1  0
 25 27  1  0
 25 28  1  0
 15 29  1  0
 29 30  1  0
  7  3  1  0
 30 12  1  0
 11  5  1  0
 24 19  1  0
  4 31  1  0
  8 32  1  0
  8 33  1  0
  9 34  1  0
  9 35  1  0
 10 36  1  0
 10 37  1  0
 11 38  1  0
 11 39  1  0
 13 40  1  0
 13 41  1  0
 14 42  1  0
 14 43  1  0
 20 44  1  0
 21 45  1  0
 22 46  1  0
 23 47  1  0
 29 48  1  0
 29 49  1  0
 30 50  1  0
 30 51  1  0
M  END
$$$$
