
     RDKit          3D

 42 44  0  0  0  0  0  0  0  0999 V2000
    1.9429    3.0306    1.2232 C   0  0  0  0  0  0  0  0  0  0  0  0
    2.1569    1.9955    0.2709 O   0  0  0  0  0  0  0  0  0  0  0  0
    1.0925    1.1852   -0.0234 C   0  0  0  0  0  0  0  0  0  0  0  0
   -0.1494    1.2324    0.6124 C   0  0  0  0  0  0  0  0  0  0  0  0
   -1.1881    0.3473    0.2707 C   0  0  0  0  0  0  0  0  0  0  0  0
   -2.3928    0.5001    0.9866 N   0  0  0  0  0  0  0  0  0  0  0  0
   -2.8665   -0.7013    1.7000 C   0  0  0  0  0  0  0  0  0  0  0  0
   -4.3071   -0.9087    1.2379 C   0  0  0  0  0  0  0  0  0  0  0  0
   -4.7462    0.4881    0.8393 C   0  0  0  0  0  0  0  0  0  0  0  0
   -3.4934    1.0427    0.1725 C   0  0  0  0  0  0  0  0  0  0  0  0
   -0.9609   -0.6107   -0.7431 C   0  0  0  0  0  0  0  0  0  0  0  0
   -2.0082   -1.4439   -1.0538 O   0  0  0  0  0  0  0  0  0  0  0  0
   -1.7397   -2.5492   -1.9052 C   0  0  0  0  0  0  0  0  0  0  0  0
    0.2824   -0.6514   -1.3866 C   0  0  0  0  0  0  0  0  0  0  0  0
    1.3114    0.2413   -1.0380 C   0  0  0  0  0  0  0  0  0  0  0  0
    2.6441    0.1613   -1.7480 C   0  0  0  0  0  0  0  0  0  0  0  0
    3.7078   -0.4086   -0.8768 C   0  0  0  0  0  0  0  0  0  0  0  0
    3.7757   -1.6118   -0.3891 N   0  0  0  0  0  0  0  0  0  0  0  0
    4.9304   -1.6468    0.3661 C   0  0  0  0  0  0  0  0  0  0  0  0
    5.5384   -2.9445    1.2091 S   0  0  0  0  0  0  0  0  0  0  0  0
    5.5688   -0.4492    0.3466 N   0  0  0  0  0  0  0  0  0  0  0  0
    4.9072    0.4016   -0.4581 C   0  0  0  0  0  0  0  0  0  0  0  0
    5.1970    1.5118   -0.8343 O   0  0  0  0  0  0  0  0  0  0  0  0
    1.7257    2.6152    2.2127 H   0  0  0  0  0  0  0  0  0  0  0  0
    1.1522    3.7137    0.8958 H   0  0  0  0  0  0  0  0  0  0  0  0
    2.8695    3.6074    1.3015 H   0  0  0  0  0  0  0  0  0  0  0  0
   -0.3541    1.9484    1.4023 H   0  0  0  0  0  0  0  0  0  0  0  0
   -2.8516   -0.4802    2.7738 H   0  0  0  0  0  0  0  0  0  0  0  0
   -2.2593   -1.6003    1.5461 H   0  0  0  0  0  0  0  0  0  0  0  0
   -4.3357   -1.5747    0.3678 H   0  0  0  0  0  0  0  0  0  0  0  0
   -4.9365   -1.3448    2.0188 H   0  0  0  0  0  0  0  0  0  0  0  0
   -4.9952    1.0751    1.7315 H   0  0  0  0  0  0  0  0  0  0  0  0
   -5.6123    0.4879    0.1720 H   0  0  0  0  0  0  0  0  0  0  0  0
   -3.4865    2.1376    0.1885 H   0  0  0  0  0  0  0  0  0  0  0  0
   -3.4552    0.7125   -0.8726 H   0  0  0  0  0  0  0  0  0  0  0  0
   -1.5145   -2.2141   -2.9227 H   0  0  0  0  0  0  0  0  0  0  0  0
   -0.9358   -3.1760   -1.5051 H   0  0  0  0  0  0  0  0  0  0  0  0
   -2.6455   -3.1615   -1.9514 H   0  0  0  0  0  0  0  0  0  0  0  0
    0.4777   -1.3746   -2.1720 H   0  0  0  0  0  0  0  0  0  0  0  0
    2.9308    1.1544   -2.1109 H   0  0  0  0  0  0  0  0  0  0  0  0
    2.5668   -0.4763   -2.6369 H   0  0  0  0  0  0  0  0  0  0  0  0
    6.4558   -0.2617    0.7817 H   0  0  0  0  0  0  0  0  0  0  0  0
  1  2  1  0
  2  3  1  0
  3  4  2  0
  4  5  1  0
  5  6  1  0
  6  7  1  0
  7  8  1  0
  8  9  1  0
  9 10  1  0
  5 11  2  0
 11 12  1  0
 12 13  1  0
 11 14  1  0
 14 15  2  0
 15 16  1  0
 16 17  1  0
 17 18  2  0
 18 19  1  0
 19 20  2  0
 19 21  1  0
 21 22  1  0
 22 23  2  0
 15  3  1  0
 22 17  1  0
 10  6  1  0
  1 24  1  0
  1 25  1  0
  1 26  1  0
  4 27  1  0
  7 28  1  0
  7 29  1  0
  8 30  1  0
  8 31  1  0
  9 32  1  0
  9 33  1  0
 10 34  1  0
 10 35  1  0
 13 36  1  0
 13 37  1  0
 13 38  1  0
 14 39  1  0
 16 40  1  0
 16 41  1  0
 21 42  1  0
M  END
$$$$
