
     RDKit          3D

 42 44  0  0  0  0  0  0  0  0999 V2000
   -4.2319    2.7459   -2.0318 C   0  0  0  0  0  0  0  0  0  0  0  0
   -3.3028    3.0942   -0.8820 C   0  0  0  0  0  0  0  0  0  0  0  0
   -2.6075    1.9368   -0.4211 O   0  0  0  0  0  0  0  0  0  0  0  0
   -3.1861    1.1461    0.5454 C   0  0  0  0  0  0  0  0  0  0  0  0
   -4.4604    1.3382    1.0865 C   0  0  0  0  0  0  0  0  0  0  0  0
   -4.9404    0.4762    2.0739 C   0  0  0  0  0  0  0  0  0  0  0  0
   -4.1476   -0.5722    2.5305 C   0  0  0  0  0  0  0  0  0  0  0  0
   -2.8752   -0.7760    1.9922 C   0  0  0  0  0  0  0  0  0  0  0  0
   -2.3931    0.0592    0.9835 C   0  0  0  0  0  0  0  0  0  0  0  0
   -1.1105   -0.0636    0.3958 N   0  0  0  0  0  0  0  0  0  0  0  0
   -0.2154   -1.1186    0.3070 C   0  0  0  0  0  0  0  0  0  0  0  0
   -0.5163   -2.7359    0.6012 S   0  0  0  0  0  0  0  0  0  0  0  0
    1.0100   -0.6271   -0.1377 N   0  0  0  0  0  0  0  0  0  0  0  0
    2.2420   -1.3975   -0.3110 C   0  0  0  0  0  0  0  0  0  0  0  0
    2.9753   -1.6387    1.0268 C   0  0  0  0  0  0  0  0  0  0  0  0
    4.3597   -1.0101    0.7826 C   0  0  0  0  0  0  0  0  0  0  0  0
    5.1299   -1.8698   -0.2346 C   0  0  0  0  0  0  0  0  0  0  0  0
    4.4059   -1.5737   -1.5567 C   0  0  0  0  0  0  0  0  0  0  0  0
    3.2899   -0.6042   -1.1278 C   0  0  0  0  0  0  0  0  0  0  0  0
    4.0027    0.2180   -0.0510 C   0  0  0  0  0  0  0  0  0  0  0  0
   -3.6763    2.2534   -2.8368 H   0  0  0  0  0  0  0  0  0  0  0  0
   -5.0164    2.0510   -1.7181 H   0  0  0  0  0  0  0  0  0  0  0  0
   -4.7054    3.6469   -2.4322 H   0  0  0  0  0  0  0  0  0  0  0  0
   -3.8130    3.6292   -0.0739 H   0  0  0  0  0  0  0  0  0  0  0  0
   -2.5370    3.7831   -1.2567 H   0  0  0  0  0  0  0  0  0  0  0  0
   -5.1113    2.1419    0.7622 H   0  0  0  0  0  0  0  0  0  0  0  0
   -5.9321    0.6276    2.4930 H   0  0  0  0  0  0  0  0  0  0  0  0
   -4.5143   -1.2333    3.3119 H   0  0  0  0  0  0  0  0  0  0  0  0
   -2.2753   -1.5779    2.4061 H   0  0  0  0  0  0  0  0  0  0  0  0
   -0.9169    0.6998   -0.2449 H   0  0  0  0  0  0  0  0  0  0  0  0
    1.1368    0.3631    0.0226 H   0  0  0  0  0  0  0  0  0  0  0  0
    1.9960   -2.3424   -0.8069 H   0  0  0  0  0  0  0  0  0  0  0  0
    3.0491   -2.7056    1.2622 H   0  0  0  0  0  0  0  0  0  0  0  0
    2.4721   -1.1385    1.8626 H   0  0  0  0  0  0  0  0  0  0  0  0
    4.9175   -0.8129    1.7001 H   0  0  0  0  0  0  0  0  0  0  0  0
    6.1768   -1.5527   -0.3003 H   0  0  0  0  0  0  0  0  0  0  0  0
    5.1106   -2.9352    0.0158 H   0  0  0  0  0  0  0  0  0  0  0  0
    5.0917   -1.0898   -2.2614 H   0  0  0  0  0  0  0  0  0  0  0  0
    4.0192   -2.4828   -2.0279 H   0  0  0  0  0  0  0  0  0  0  0  0
    2.8732   -0.0252   -1.9552 H   0  0  0  0  0  0  0  0  0  0  0  0
    4.8805    0.7532   -0.4285 H   0  0  0  0  0  0  0  0  0  0  0  0
    3.3462    0.9199    0.4728 H   0  0  0  0  0  0  0  0  0  0  0  0
  1  2  1  0
  2  3  1  0
  3  4  1  0
  4  5  2  0
  5  6  1  0
  6  7  2  0
  7  8  1  0
  8  9  2  0
  9 10  1  0
 10 11  1  0
 11 12  2  0
 11 13  1  0
 13 14  1  0
 14 15  1  0
 15 16  1  0
 16 17  1  0
 17 18  1  0
 18 19  1  0
 19 20  1  0
  9  4  1  0
 19 14  1  0
 20 16  1  0
  1 21  1  0
  1 22  1  0
  1 23  1  0
  2 24  1  0
  2 25  1  0
  5 26  1  0
  6 27  1  0
  7 28  1  0
  8 29  1  0
 10 30  1  0
 13 31  1  0
 14 32  1  0
 15 33  1  0
 15 34  1  0
 16 35  1  0
 17 36  1  0
 17 37  1  0
 18 38  1  0
 18 39  1  0
 19 40  1  0
 20 41  1  0
 20 42  1  0
M  END
$$$$
