
     RDKit          3D

 46 49  0  0  0  0  0  0  0  0999 V2000
    9.1129   -1.3223    0.1730 O   0  0  0  0  0  0  0  0  0  0  0  0
    8.1678   -1.5180    0.9509 N   0  0  0  0  0  4  0  0  0  0  0  0
    8.2938   -1.8245    2.1453 O   0  0  0  0  0  1  0  0  0  0  0  0
    6.8062   -1.3820    0.4194 C   0  0  0  0  0  0  0  0  0  0  0  0
    5.7080   -1.5911    1.2618 C   0  0  0  0  0  0  0  0  0  0  0  0
    4.4151   -1.4608    0.7492 C   0  0  0  0  0  0  0  0  0  0  0  0
    4.2086   -1.1221   -0.5984 C   0  0  0  0  0  0  0  0  0  0  0  0
    2.8027   -0.9916   -1.1398 C   0  0  0  0  0  0  0  0  0  0  0  0
    2.1370    0.0413   -0.4169 O   0  0  0  0  0  0  0  0  0  0  0  0
    0.8268    0.2791   -0.7250 C   0  0  0  0  0  0  0  0  0  0  0  0
    0.0829   -0.3701   -1.7100 C   0  0  0  0  0  0  0  0  0  0  0  0
   -1.2582   -0.0246   -1.9212 C   0  0  0  0  0  0  0  0  0  0  0  0
   -1.8752    0.9704   -1.1497 C   0  0  0  0  0  0  0  0  0  0  0  0
   -3.2746    1.2994   -1.4062 C   0  0  0  0  0  0  0  0  0  0  0  0
   -3.6666    1.9023   -2.5769 N   0  0  0  0  0  0  0  0  0  0  0  0
   -4.9792    2.1720   -2.6424 N   0  0  0  0  0  0  0  0  0  0  0  0
   -5.4486    1.7201   -1.4790 C   0  0  0  0  0  0  0  0  0  0  0  0
   -4.4375    1.1623   -0.6612 C   0  0  0  0  0  0  0  0  0  0  0  0
   -4.5436    0.5948    0.6715 C   0  0  0  0  0  0  0  0  0  0  0  0
   -5.3032    1.2536    1.6489 C   0  0  0  0  0  0  0  0  0  0  0  0
   -5.4159    0.7216    2.9371 C   0  0  0  0  0  0  0  0  0  0  0  0
   -4.7738   -0.4738    3.2514 C   0  0  0  0  0  0  0  0  0  0  0  0
   -4.9133   -1.1289    4.8356 Cl  0  0  0  0  0  0  0  0  0  0  0  0
   -4.0228   -1.1433    2.2885 C   0  0  0  0  0  0  0  0  0  0  0  0
   -3.9105   -0.6114    1.0004 C   0  0  0  0  0  0  0  0  0  0  0  0
   -1.1166    1.6154   -0.1652 C   0  0  0  0  0  0  0  0  0  0  0  0
   -1.6150    2.6112    0.6298 O   0  0  0  0  0  0  0  0  0  0  0  0
    0.2193    1.2745    0.0428 C   0  0  0  0  0  0  0  0  0  0  0  0
    5.3196   -0.9161   -1.4302 C   0  0  0  0  0  0  0  0  0  0  0  0
    6.6171   -1.0444   -0.9268 C   0  0  0  0  0  0  0  0  0  0  0  0
    5.8385   -1.8492    2.3106 H   0  0  0  0  0  0  0  0  0  0  0  0
    3.5613   -1.6140    1.4082 H   0  0  0  0  0  0  0  0  0  0  0  0
    2.2920   -1.9538   -1.0080 H   0  0  0  0  0  0  0  0  0  0  0  0
    2.8347   -0.7389   -2.2066 H   0  0  0  0  0  0  0  0  0  0  0  0
    0.5097   -1.1500   -2.3321 H   0  0  0  0  0  0  0  0  0  0  0  0
   -1.8216   -0.5534   -2.6880 H   0  0  0  0  0  0  0  0  0  0  0  0
   -3.0802    2.1712   -3.3602 H   0  0  0  0  0  0  0  0  0  0  0  0
   -6.5076    1.8119   -1.2718 H   0  0  0  0  0  0  0  0  0  0  0  0
   -5.8065    2.1919    1.4247 H   0  0  0  0  0  0  0  0  0  0  0  0
   -6.0026    1.2449    3.6876 H   0  0  0  0  0  0  0  0  0  0  0  0
   -3.5236   -2.0777    2.5306 H   0  0  0  0  0  0  0  0  0  0  0  0
   -3.3299   -1.1557    0.2595 H   0  0  0  0  0  0  0  0  0  0  0  0
   -2.5638    2.7131    0.4452 H   0  0  0  0  0  0  0  0  0  0  0  0
    0.7906    1.7905    0.8108 H   0  0  0  0  0  0  0  0  0  0  0  0
    5.1834   -0.6475   -2.4762 H   0  0  0  0  0  0  0  0  0  0  0  0
    7.4623   -0.8762   -1.5913 H   0  0  0  0  0  0  0  0  0  0  0  0
  1  2  2  0
  2  3  1  0
  2  4  1  0
  4  5  2  0
  5  6  1  0
  6  7  2  0
  7  8  1  0
  8  9  1  0
  9 10  1  0
 10 11  2  0
 11 12  1  0
 12 13  2  0
 13 14  1  0
 14 15  1  0
 15 16  1  0
 16 17  2  0
 17 18  1  0
 18 19  1  0
 19 20  2  0
 20 21  1  0
 21 22  2  0
 22 23  1  0
 22 24  1  0
 24 25  2  0
 13 26  1  0
 26 27  1  0
 26 28  2  0
  7 29  1  0
 29 30  2  0
 30  4  1  0
 28 10  1  0
 18 14  2  0
 25 19  1  0
  5 31  1  0
  6 32  1  0
  8 33  1  0
  8 34  1  0
 11 35  1  0
 12 36  1  0
 15 37  1  0
 17 38  1  0
 20 39  1  0
 21 40  1  0
 24 41  1  0
 25 42  1  0
 27 43  1  0
 28 44  1  0
 29 45  1  0
 30 46  1  0
M  CHG  2   2   1   3  -1
M  END
$$$$
