
     RDKit          3D

 50 52  0  0  0  0  0  0  0  0999 V2000
   -2.9566   -2.5953   -2.3073 C   0  0  0  0  0  0  0  0  0  0  0  0
   -3.7118   -2.2699   -1.1483 O   0  0  0  0  0  0  0  0  0  0  0  0
   -3.3387   -1.1592   -0.4374 C   0  0  0  0  0  0  0  0  0  0  0  0
   -2.2773   -0.3197   -0.7701 C   0  0  0  0  0  0  0  0  0  0  0  0
   -1.9779    0.7766    0.0482 C   0  0  0  0  0  0  0  0  0  0  0  0
   -0.8557    1.6784   -0.2922 C   0  0  0  0  0  0  0  0  0  0  0  0
   -1.1045    2.8738   -0.4221 O   0  0  0  0  0  0  0  0  0  0  0  0
    0.4156    1.1371   -0.4430 N   0  0  0  0  0  0  0  0  0  0  0  0
    0.8120   -0.1982    0.0353 C   0  0  0  0  0  0  0  0  0  0  0  0
    2.3129   -0.2954    0.3684 C   0  0  0  0  0  0  0  0  0  0  0  0
    3.1175    0.0933   -0.8043 N   0  0  0  0  0  0  0  0  0  0  0  0
    4.5027   -0.0510   -0.6320 C   0  0  0  0  0  0  0  0  0  0  0  0
    5.0951   -1.1626   -1.2580 C   0  0  0  0  0  0  0  0  0  0  0  0
    6.4642   -1.4084   -1.1508 C   0  0  0  0  0  0  0  0  0  0  0  0
    7.1513   -2.7780   -1.9331 Cl  0  0  0  0  0  0  0  0  0  0  0  0
    7.2778   -0.5541   -0.4148 C   0  0  0  0  0  0  0  0  0  0  0  0
    6.7146    0.5528    0.2195 C   0  0  0  0  0  0  0  0  0  0  0  0
    5.3397    0.8052    0.1162 C   0  0  0  0  0  0  0  0  0  0  0  0
    4.7416    2.1952    0.9557 Cl  0  0  0  0  0  0  0  0  0  0  0  0
    2.6686    1.3005   -1.5362 C   0  0  0  0  0  0  0  0  0  0  0  0
    1.5071    2.0329   -0.8394 C   0  0  0  0  0  0  0  0  0  0  0  0
   -2.7524    1.0767    1.1749 C   0  0  0  0  0  0  0  0  0  0  0  0
   -3.8184    0.2488    1.5211 C   0  0  0  0  0  0  0  0  0  0  0  0
   -4.6300    0.4300    2.6106 O   0  0  0  0  0  0  0  0  0  0  0  0
   -4.3795    1.5610    3.4342 C   0  0  0  0  0  0  0  0  0  0  0  0
   -4.1062   -0.8625    0.7055 C   0  0  0  0  0  0  0  0  0  0  0  0
   -5.1240   -1.7179    1.0699 O   0  0  0  0  0  0  0  0  0  0  0  0
   -6.3496   -1.2931    0.4757 C   0  0  0  0  0  0  0  0  0  0  0  0
   -1.9121   -2.8045   -2.0530 H   0  0  0  0  0  0  0  0  0  0  0  0
   -3.0301   -1.8036   -3.0604 H   0  0  0  0  0  0  0  0  0  0  0  0
   -3.3826   -3.5059   -2.7395 H   0  0  0  0  0  0  0  0  0  0  0  0
   -1.6749   -0.4848   -1.6566 H   0  0  0  0  0  0  0  0  0  0  0  0
    0.2215   -0.4653    0.9176 H   0  0  0  0  0  0  0  0  0  0  0  0
    0.5728   -0.9055   -0.7670 H   0  0  0  0  0  0  0  0  0  0  0  0
    2.5331    0.3477    1.2284 H   0  0  0  0  0  0  0  0  0  0  0  0
    2.5441   -1.3282    0.6562 H   0  0  0  0  0  0  0  0  0  0  0  0
    4.4702   -1.8375   -1.8387 H   0  0  0  0  0  0  0  0  0  0  0  0
    8.3447   -0.7429   -0.3294 H   0  0  0  0  0  0  0  0  0  0  0  0
    7.3526    1.2175    0.7973 H   0  0  0  0  0  0  0  0  0  0  0  0
    3.4855    2.0066   -1.7268 H   0  0  0  0  0  0  0  0  0  0  0  0
    2.3210    0.9597   -2.5197 H   0  0  0  0  0  0  0  0  0  0  0  0
    1.1208    2.8186   -1.4981 H   0  0  0  0  0  0  0  0  0  0  0  0
    1.8582    2.5233    0.0756 H   0  0  0  0  0  0  0  0  0  0  0  0
   -2.4932    1.9556    1.7567 H   0  0  0  0  0  0  0  0  0  0  0  0
   -3.3855    1.5048    3.8901 H   0  0  0  0  0  0  0  0  0  0  0  0
   -5.1169    1.5555    4.2429 H   0  0  0  0  0  0  0  0  0  0  0  0
   -4.5072    2.4931    2.8739 H   0  0  0  0  0  0  0  0  0  0  0  0
   -6.2939   -1.3213   -0.6180 H   0  0  0  0  0  0  0  0  0  0  0  0
   -6.6333   -0.2907    0.8144 H   0  0  0  0  0  0  0  0  0  0  0  0
   -7.1328   -1.9891    0.7911 H   0  0  0  0  0  0  0  0  0  0  0  0
  1  2  1  0
  2  3  1  0
  3  4  2  0
  4  5  1  0
  5  6  1  0
  6  7  2  0
  6  8  1  0
  8  9  1  0
  9 10  1  0
 10 11  1  0
 11 12  1  0
 12 13  2  0
 13 14  1  0
 14 15  1  0
 14 16  2  0
 16 17  1  0
 17 18  2  0
 18 19  1  0
 11 20  1  0
 20 21  1  0
  5 22  2  0
 22 23  1  0
 23 24  1  0
 24 25  1  0
 23 26  2  0
 26 27  1  0
 27 28  1  0
 26  3  1  0
 21  8  1  0
 18 12  1  0
  1 29  1  0
  1 30  1  0
  1 31  1  0
  4 32  1  0
  9 33  1  0
  9 34  1  0
 10 35  1  0
 10 36  1  0
 13 37  1  0
 16 38  1  0
 17 39  1  0
 20 40  1  0
 20 41  1  0
 21 42  1  0
 21 43  1  0
 22 44  1  0
 25 45  1  0
 25 46  1  0
 25 47  1  0
 28 48  1  0
 28 49  1  0
 28 50  1  0
M  END
$$$$
