
     RDKit          3D

 62 65  0  0  0  0  0  0  0  0999 V2000
   -1.7095    1.4734   -1.6767 O   0  0  0  0  0  0  0  0  0  0  0  0
   -1.3971    0.6608   -0.8108 C   0  0  0  0  0  0  0  0  0  0  0  0
   -2.2786   -0.2621   -0.2958 N   0  0  0  0  0  0  0  0  0  0  0  0
   -3.6697   -0.3065   -0.7126 C   0  0  0  0  0  0  0  0  0  0  0  0
   -4.5278    0.7183    0.0431 C   0  0  0  0  0  0  0  0  0  0  0  0
   -6.0242    0.6974   -0.2137 C   0  0  0  0  0  0  0  0  0  0  0  0
   -6.6403   -0.0824   -1.1229 C   0  0  0  0  0  0  0  0  0  0  0  0
   -8.1271   -0.1094   -1.3390 C   0  0  0  0  0  0  0  0  0  0  0  0
   -8.9139    0.5839   -0.2287 C   0  0  0  0  0  0  0  0  0  0  0  0
   -8.2482    1.8927    0.1737 C   0  0  0  0  0  0  0  0  0  0  0  0
   -6.8142    1.6582    0.6524 C   0  0  0  0  0  0  0  0  0  0  0  0
    0.0117    0.6187   -0.2280 C   0  0  0  0  0  0  0  0  0  0  0  0
    0.0089    0.9485    1.2654 C   0  0  0  0  0  0  0  0  0  0  0  0
    1.4285    1.0546    1.8301 C   0  0  0  0  0  0  0  0  0  0  0  0
    2.4492    0.1329    1.1312 C   0  0  0  0  0  0  0  0  0  0  0  0
    3.5810   -0.2325    2.1065 C   0  0  0  0  0  0  0  0  0  0  0  0
    4.6560   -0.9561    1.4459 N   0  0  0  0  0  0  0  0  0  0  0  0
    5.6093   -0.4563    0.5694 C   0  0  0  0  0  0  0  0  0  0  0  0
    5.7792    0.8997    0.4741 N   0  0  0  0  0  0  0  0  0  0  0  0
    6.6702    1.5445   -0.3419 C   0  0  0  0  0  0  0  0  0  0  0  0
    6.7104    3.2199   -0.2798 S   0  0  0  0  0  0  0  0  0  0  0  0
    7.4708    0.7967   -1.1570 N   0  0  0  0  0  0  0  0  0  0  0  0
    7.3497   -0.4903   -1.0940 C   0  0  0  0  0  0  0  0  0  0  0  0
    8.2145   -1.3261   -1.9738 C   0  0  0  0  0  0  0  0  0  0  0  0
    8.1389   -2.6628   -1.9427 C   0  0  0  0  0  0  0  0  0  0  0  0
    7.2323   -3.3586   -1.0635 C   0  0  0  0  0  0  0  0  0  0  0  0
    6.4091   -2.6925   -0.2418 C   0  0  0  0  0  0  0  0  0  0  0  0
    6.3988   -1.2385   -0.2029 C   0  0  0  0  0  0  0  0  0  0  0  0
    1.7504   -1.1036    0.5493 C   0  0  0  0  0  0  0  0  0  0  0  0
    0.7132   -0.7190   -0.5120 C   0  0  0  0  0  0  0  0  0  0  0  0
   -1.9957   -0.8482    0.4761 H   0  0  0  0  0  0  0  0  0  0  0  0
   -3.7173   -0.1265   -1.7931 H   0  0  0  0  0  0  0  0  0  0  0  0
   -4.0192   -1.3263   -0.5147 H   0  0  0  0  0  0  0  0  0  0  0  0
   -4.1545    1.7266   -0.1815 H   0  0  0  0  0  0  0  0  0  0  0  0
   -4.3695    0.5650    1.1196 H   0  0  0  0  0  0  0  0  0  0  0  0
   -6.0722   -0.7463   -1.7682 H   0  0  0  0  0  0  0  0  0  0  0  0
   -8.3435    0.3705   -2.3011 H   0  0  0  0  0  0  0  0  0  0  0  0
   -8.4638   -1.1496   -1.4183 H   0  0  0  0  0  0  0  0  0  0  0  0
   -8.9783   -0.0761    0.6455 H   0  0  0  0  0  0  0  0  0  0  0  0
   -9.9406    0.7689   -0.5640 H   0  0  0  0  0  0  0  0  0  0  0  0
   -8.2418    2.5775   -0.6836 H   0  0  0  0  0  0  0  0  0  0  0  0
   -8.8255    2.3807    0.9661 H   0  0  0  0  0  0  0  0  0  0  0  0
   -6.8331    1.2622    1.6752 H   0  0  0  0  0  0  0  0  0  0  0  0
   -6.3039    2.6279    0.6937 H   0  0  0  0  0  0  0  0  0  0  0  0
    0.5759    1.4111   -0.7408 H   0  0  0  0  0  0  0  0  0  0  0  0
   -0.5315    0.1710    1.8210 H   0  0  0  0  0  0  0  0  0  0  0  0
   -0.5333    1.8831    1.4546 H   0  0  0  0  0  0  0  0  0  0  0  0
    1.3852    0.8459    2.9067 H   0  0  0  0  0  0  0  0  0  0  0  0
    1.7796    2.0907    1.7383 H   0  0  0  0  0  0  0  0  0  0  0  0
    2.8813    0.6937    0.2913 H   0  0  0  0  0  0  0  0  0  0  0  0
    3.9764    0.6660    2.5938 H   0  0  0  0  0  0  0  0  0  0  0  0
    3.1859   -0.8657    2.9099 H   0  0  0  0  0  0  0  0  0  0  0  0
    4.4767   -1.9496    1.3507 H   0  0  0  0  0  0  0  0  0  0  0  0
    5.2227    1.5012    1.0611 H   0  0  0  0  0  0  0  0  0  0  0  0
    8.8980   -0.8007   -2.6300 H   0  0  0  0  0  0  0  0  0  0  0  0
    8.7750   -3.2610   -2.5882 H   0  0  0  0  0  0  0  0  0  0  0  0
    7.2401   -4.4450   -1.0820 H   0  0  0  0  0  0  0  0  0  0  0  0
    5.7525   -3.2540    0.4113 H   0  0  0  0  0  0  0  0  0  0  0  0
    2.4723   -1.7927    0.0966 H   0  0  0  0  0  0  0  0  0  0  0  0
    1.2552   -1.6583    1.3566 H   0  0  0  0  0  0  0  0  0  0  0  0
    0.0015   -1.5453   -0.6203 H   0  0  0  0  0  0  0  0  0  0  0  0
    1.2135   -0.6393   -1.4859 H   0  0  0  0  0  0  0  0  0  0  0  0
  1  2  2  0
  2  3  1  0
  3  4  1  0
  4  5  1  0
  5  6  1  0
  6  7  2  0
  7  8  1  0
  8  9  1  0
  9 10  1  0
 10 11  1  0
  2 12  1  0
 12 13  1  0
 13 14  1  0
 14 15  1  0
 15 16  1  0
 16 17  1  0
 17 18  1  0
 18 19  1  0
 19 20  1  0
 20 21  2  0
 20 22  1  0
 22 23  2  0
 23 24  1  0
 24 25  2  0
 25 26  1  0
 26 27  2  0
 27 28  1  0
 15 29  1  0
 29 30  1  0
 11  6  1  0
 30 12  1  0
 28 18  2  0
 28 23  1  0
  3 31  1  0
  4 32  1  0
  4 33  1  0
  5 34  1  0
  5 35  1  0
  7 36  1  0
  8 37  1  0
  8 38  1  0
  9 39  1  0
  9 40  1  0
 10 41  1  0
 10 42  1  0
 11 43  1  0
 11 44  1  0
 12 45  1  0
 13 46  1  0
 13 47  1  0
 14 48  1  0
 14 49  1  0
 15 50  1  0
 16 51  1  0
 16 52  1  0
 17 53  1  0
 19 54  1  0
 24 55  1  0
 25 56  1  0
 26 57  1  0
 27 58  1  0
 29 59  1  0
 29 60  1  0
 30 61  1  0
 30 62  1  0
M  END
$$$$
