
     RDKit          3D

 47 50  0  0  0  0  0  0  0  0999 V2000
    0.4769   -0.6162   -2.0510 C   0  0  0  0  0  0  0  0  0  0  0  0
   -0.2332   -1.6673   -1.1741 C   0  0  0  0  0  0  0  0  0  0  0  0
   -0.6164   -2.8506   -2.0866 C   0  0  0  0  0  0  0  0  0  0  0  0
   -1.5381   -1.0630   -0.5676 C   0  0  0  0  0  0  0  0  0  0  0  0
   -1.2554   -0.2497    0.6524 C   0  0  0  0  0  0  0  0  0  0  0  0
   -0.0687   -0.2953    1.3636 C   0  0  0  0  0  0  0  0  0  0  0  0
   -0.2233    0.6528    2.3791 C   0  0  0  0  0  0  0  0  0  0  0  0
   -1.4007    1.2683    2.3196 N   0  0  0  0  0  0  0  0  0  0  0  0
   -2.0755    0.6739    1.2912 N   0  0  0  0  0  0  0  0  0  0  0  0
   -3.4317    1.0627    1.0477 C   0  0  0  0  0  0  0  0  0  0  0  0
   -4.2854    0.3527    0.1932 C   0  0  0  0  0  0  0  0  0  0  0  0
   -5.6038    0.7814   -0.0058 C   0  0  0  0  0  0  0  0  0  0  0  0
   -6.0738    1.9107    0.6516 C   0  0  0  0  0  0  0  0  0  0  0  0
   -7.3362    2.3120    0.4556 F   0  0  0  0  0  0  0  0  0  0  0  0
   -5.2536    2.6209    1.5146 C   0  0  0  0  0  0  0  0  0  0  0  0
   -3.9378    2.1963    1.7167 C   0  0  0  0  0  0  0  0  0  0  0  0
    1.0929   -1.1650    1.0346 C   0  0  0  0  0  0  0  0  0  0  0  0
    2.1821   -0.3120    0.6172 N   0  0  0  0  0  0  0  0  0  0  0  0
    3.4915   -0.7357    0.5881 C   0  0  0  0  0  0  0  0  0  0  0  0
    3.8659   -1.8361    0.9742 O   0  0  0  0  0  0  0  0  0  0  0  0
    4.4471    0.2612    0.0310 C   0  0  0  0  0  0  0  0  0  0  0  0
    5.8010   -0.0301   -0.0325 C   0  0  0  0  0  0  0  0  0  0  0  0
    6.7052    0.8494   -0.5358 N   0  0  0  0  0  0  0  0  0  0  0  0
    6.1915    2.0249   -0.9679 C   0  0  0  0  0  0  0  0  0  0  0  0
    4.8363    2.3148   -0.9050 C   0  0  0  0  0  0  0  0  0  0  0  0
    3.9260    1.4455   -0.4075 N   0  0  0  0  0  0  0  0  0  0  0  0
    0.7084   -2.2017   -0.0484 C   0  0  0  0  0  0  0  0  0  0  0  0
   -0.1237   -0.3754   -2.9361 H   0  0  0  0  0  0  0  0  0  0  0  0
    0.6441    0.3256   -1.5215 H   0  0  0  0  0  0  0  0  0  0  0  0
    1.4468   -0.9859   -2.4020 H   0  0  0  0  0  0  0  0  0  0  0  0
   -1.1148   -3.6449   -1.5196 H   0  0  0  0  0  0  0  0  0  0  0  0
   -1.2999   -2.5323   -2.8819 H   0  0  0  0  0  0  0  0  0  0  0  0
    0.2700   -3.2868   -2.5608 H   0  0  0  0  0  0  0  0  0  0  0  0
   -2.0397   -0.4594   -1.3322 H   0  0  0  0  0  0  0  0  0  0  0  0
   -2.2093   -1.8816   -0.2783 H   0  0  0  0  0  0  0  0  0  0  0  0
    0.4817    0.9389    3.1497 H   0  0  0  0  0  0  0  0  0  0  0  0
   -3.9884   -0.5566   -0.3108 H   0  0  0  0  0  0  0  0  0  0  0  0
   -6.2704    0.2321   -0.6639 H   0  0  0  0  0  0  0  0  0  0  0  0
   -5.6371    3.4973    2.0270 H   0  0  0  0  0  0  0  0  0  0  0  0
   -3.3106    2.7699    2.3983 H   0  0  0  0  0  0  0  0  0  0  0  0
    1.4206   -1.7056    1.9312 H   0  0  0  0  0  0  0  0  0  0  0  0
    1.9920    0.6054    0.2211 H   0  0  0  0  0  0  0  0  0  0  0  0
    6.2008   -0.9758    0.3177 H   0  0  0  0  0  0  0  0  0  0  0  0
    6.9053    2.7356   -1.3704 H   0  0  0  0  0  0  0  0  0  0  0  0
    4.4467    3.2639   -1.2572 H   0  0  0  0  0  0  0  0  0  0  0  0
    0.1847   -3.0253    0.4588 H   0  0  0  0  0  0  0  0  0  0  0  0
    1.6099   -2.6439   -0.4913 H   0  0  0  0  0  0  0  0  0  0  0  0
  1  2  1  0
  2  3  1  0
  2  4  1  0
  4  5  1  0
  5  6  2  0
  6  7  1  0
  7  8  2  0
  8  9  1  0
  9 10  1  0
 10 11  2  0
 11 12  1  0
 12 13  2  0
 13 14  1  0
 13 15  1  0
 15 16  2  0
  6 17  1  0
 17 18  1  0
 18 19  1  0
 19 20  2  0
 19 21  1  0
 21 22  2  0
 22 23  1  0
 23 24  2  0
 24 25  1  0
 25 26  2  0
 17 27  1  0
 27  2  1  0
  9  5  1  0
 16 10  1  0
 26 21  1  0
  1 28  1  0
  1 29  1  0
  1 30  1  0
  3 31  1  0
  3 32  1  0
  3 33  1  0
  4 34  1  0
  4 35  1  0
  7 36  1  0
 11 37  1  0
 12 38  1  0
 15 39  1  0
 16 40  1  0
 17 41  1  0
 18 42  1  0
 22 43  1  0
 24 44  1  0
 25 45  1  0
 27 46  1  0
 27 47  1  0
M  END
$$$$
