
     RDKit          3D

 38 41  0  0  0  0  0  0  0  0999 V2000
    6.3188    1.1694   -1.1564 C   0  0  0  0  0  0  0  0  0  0  0  0
    5.1926    0.6834   -1.9211 N   0  0  0  0  0  0  0  0  0  0  0  0
    4.0221    0.4602   -1.2827 C   0  0  0  0  0  0  0  0  0  0  0  0
    3.7017    0.9347   -0.0969 N   0  0  0  0  0  0  0  0  0  0  0  0
    2.4471    0.5104    0.2209 C   0  0  0  0  0  0  0  0  0  0  0  0
    1.8344    0.8433    1.4016 N   0  0  0  0  0  0  0  0  0  0  0  0
    0.5733    0.3906    1.7053 C   0  0  0  0  0  0  0  0  0  0  0  0
    0.0349    0.6420    2.7787 O   0  0  0  0  0  0  0  0  0  0  0  0
   -0.1256   -0.4502    0.6689 C   0  0  0  0  0  0  0  0  0  0  0  0
    0.4981   -0.7923   -0.4712 C   0  0  0  0  0  0  0  0  0  0  0  0
    1.7978   -0.2886   -0.6898 C   0  0  0  0  0  0  0  0  0  0  0  0
    2.8097   -0.5253   -2.0346 S   0  0  0  0  0  0  0  0  0  0  0  0
   -0.0804   -1.5730   -1.4791 O   0  0  0  0  0  0  0  0  0  0  0  0
   -1.2789   -2.1661   -1.2544 C   0  0  0  0  0  0  0  0  0  0  0  0
   -1.8957   -2.6726   -2.2706 N   0  0  0  0  0  0  0  0  0  0  0  0
   -1.8090   -2.2322    0.1588 C   0  0  0  0  0  0  0  0  0  0  0  0
   -1.2180   -3.4103    0.8145 C   0  0  0  0  0  0  0  0  0  0  0  0
   -0.7570   -4.3308    1.3491 N   0  0  0  0  0  0  0  0  0  0  0  0
   -1.5092   -0.9515    0.9608 C   0  0  0  0  0  0  0  0  0  0  0  0
   -2.5714    0.1239    0.7357 C   0  0  0  0  0  0  0  0  0  0  0  0
   -3.3040    0.6018    1.8354 C   0  0  0  0  0  0  0  0  0  0  0  0
   -4.2891    1.5771    1.6708 C   0  0  0  0  0  0  0  0  0  0  0  0
   -4.5548    2.0937    0.4063 C   0  0  0  0  0  0  0  0  0  0  0  0
   -3.8301    1.6413   -0.6929 C   0  0  0  0  0  0  0  0  0  0  0  0
   -2.8425    0.6664   -0.5318 C   0  0  0  0  0  0  0  0  0  0  0  0
    6.6399    0.4284   -0.4168 H   0  0  0  0  0  0  0  0  0  0  0  0
    7.1604    1.3621   -1.8291 H   0  0  0  0  0  0  0  0  0  0  0  0
    6.0820    2.1087   -0.6452 H   0  0  0  0  0  0  0  0  0  0  0  0
    5.4227    0.0537   -2.6820 H   0  0  0  0  0  0  0  0  0  0  0  0
    2.3385    1.4156    2.0635 H   0  0  0  0  0  0  0  0  0  0  0  0
   -2.7811   -3.1161   -2.0067 H   0  0  0  0  0  0  0  0  0  0  0  0
   -2.8952   -2.3872    0.1093 H   0  0  0  0  0  0  0  0  0  0  0  0
   -1.5472   -1.2281    2.0251 H   0  0  0  0  0  0  0  0  0  0  0  0
   -3.1038    0.2303    2.8398 H   0  0  0  0  0  0  0  0  0  0  0  0
   -4.8426    1.9398    2.5336 H   0  0  0  0  0  0  0  0  0  0  0  0
   -5.3185    2.8566    0.2793 H   0  0  0  0  0  0  0  0  0  0  0  0
   -4.0290    2.0545   -1.6791 H   0  0  0  0  0  0  0  0  0  0  0  0
   -2.2910    0.3583   -1.4170 H   0  0  0  0  0  0  0  0  0  0  0  0
  1  2  1  0
  2  3  1  0
  3  4  2  0
  4  5  1  0
  5  6  1  0
  6  7  1  0
  7  8  2  0
  7  9  1  0
  9 10  2  0
 10 11  1  0
 11 12  1  0
 10 13  1  0
 13 14  1  0
 14 15  2  3
 14 16  1  0
 16 17  1  0
 17 18  3  0
 16 19  1  0
 19 20  1  0
 20 21  2  0
 21 22  1  0
 22 23  2  0
 23 24  1  0
 24 25  2  0
 12  3  1  0
 25 20  1  0
 11  5  2  0
 19  9  1  0
  1 26  1  0
  1 27  1  0
  1 28  1  0
  2 29  1  0
  6 30  1  0
 15 31  1  0
 16 32  1  0
 19 33  1  0
 21 34  1  0
 22 35  1  0
 23 36  1  0
 24 37  1  0
 25 38  1  0
M  END
$$$$
