
     RDKit          3D

 46 47  0  0  0  0  0  0  0  0999 V2000
    6.0033    1.4563   -0.2185 O   0  0  0  0  0  0  0  0  0  0  0  0
    6.8708    0.6570    0.0988 C   0  0  0  0  0  0  0  0  0  0  0  0
    8.0403    0.5993   -0.5611 O   0  0  0  0  0  0  0  0  0  0  0  0
    6.7799   -0.3682    1.1943 C   0  0  0  0  0  0  0  0  0  0  0  0
    5.6418   -0.0550    2.1585 C   0  0  0  0  0  0  0  0  0  0  0  0
    4.3253   -0.6375    1.6753 C   0  0  0  0  0  0  0  0  0  0  0  0
    3.8749   -1.6559    2.1898 O   0  0  0  0  0  0  0  0  0  0  0  0
    3.7627    0.0840    0.6404 N   0  0  0  0  0  0  0  0  0  0  0  0
    2.5566   -0.1776   -0.0392 C   0  0  0  0  0  0  0  0  0  0  0  0
    2.2235    0.6842   -1.0949 C   0  0  0  0  0  0  0  0  0  0  0  0
    1.0447    0.5020   -1.8234 C   0  0  0  0  0  0  0  0  0  0  0  0
    0.1893   -0.5476   -1.4886 C   0  0  0  0  0  0  0  0  0  0  0  0
   -1.3099   -0.8019   -2.4013 S   0  0  0  0  0  6  0  0  0  0  0  0
   -1.3622    0.1457   -3.4927 O   0  0  0  0  0  0  0  0  0  0  0  0
   -1.4546   -2.2242   -2.6154 O   0  0  0  0  0  0  0  0  0  0  0  0
   -2.4729   -0.3657   -1.2745 N   0  0  0  0  0  0  0  0  0  0  0  0
   -2.8290    1.0539   -1.1453 C   0  0  0  0  0  0  0  0  0  0  0  0
   -3.5055    1.3131    0.2050 C   0  0  0  0  0  0  0  0  0  0  0  0
   -4.8341    0.6085    0.3535 C   0  0  0  0  0  0  0  0  0  0  0  0
   -5.9711    1.0830   -0.3147 C   0  0  0  0  0  0  0  0  0  0  0  0
   -7.1919    0.4178   -0.1913 C   0  0  0  0  0  0  0  0  0  0  0  0
   -7.2877   -0.7256    0.5994 C   0  0  0  0  0  0  0  0  0  0  0  0
   -6.1637   -1.2053    1.2684 C   0  0  0  0  0  0  0  0  0  0  0  0
   -4.9421   -0.5421    1.1467 C   0  0  0  0  0  0  0  0  0  0  0  0
    0.5110   -1.4197   -0.4473 C   0  0  0  0  0  0  0  0  0  0  0  0
    1.6927   -1.2296    0.2770 C   0  0  0  0  0  0  0  0  0  0  0  0
    7.9824    1.2863   -1.2577 H   0  0  0  0  0  0  0  0  0  0  0  0
    6.6645   -1.3579    0.7406 H   0  0  0  0  0  0  0  0  0  0  0  0
    7.7235   -0.3380    1.7512 H   0  0  0  0  0  0  0  0  0  0  0  0
    5.5236    1.0203    2.3347 H   0  0  0  0  0  0  0  0  0  0  0  0
    5.8565   -0.5118    3.1324 H   0  0  0  0  0  0  0  0  0  0  0  0
    4.2987    0.8822    0.2981 H   0  0  0  0  0  0  0  0  0  0  0  0
    2.8823    1.5063   -1.3668 H   0  0  0  0  0  0  0  0  0  0  0  0
    0.8073    1.1765   -2.6427 H   0  0  0  0  0  0  0  0  0  0  0  0
   -3.2308   -1.0473   -1.2091 H   0  0  0  0  0  0  0  0  0  0  0  0
   -3.4949    1.3316   -1.9695 H   0  0  0  0  0  0  0  0  0  0  0  0
   -1.9279    1.6733   -1.2035 H   0  0  0  0  0  0  0  0  0  0  0  0
   -2.8343    1.0131    1.0199 H   0  0  0  0  0  0  0  0  0  0  0  0
   -3.6686    2.3914    0.3281 H   0  0  0  0  0  0  0  0  0  0  0  0
   -5.9152    1.9741   -0.9356 H   0  0  0  0  0  0  0  0  0  0  0  0
   -8.0693    0.7920   -0.7123 H   0  0  0  0  0  0  0  0  0  0  0  0
   -8.2389   -1.2427    0.6946 H   0  0  0  0  0  0  0  0  0  0  0  0
   -6.2387   -2.0966    1.8859 H   0  0  0  0  0  0  0  0  0  0  0  0
   -4.0735   -0.9311    1.6740 H   0  0  0  0  0  0  0  0  0  0  0  0
   -0.1485   -2.2469   -0.1938 H   0  0  0  0  0  0  0  0  0  0  0  0
    1.9098   -1.9238    1.0831 H   0  0  0  0  0  0  0  0  0  0  0  0
  1  2  2  0
  2  3  1  0
  2  4  1  0
  4  5  1  0
  5  6  1  0
  6  7  2  0
  6  8  1  0
  8  9  1  0
  9 10  2  0
 10 11  1  0
 11 12  2  0
 12 13  1  0
 13 14  2  0
 13 15  2  0
 13 16  1  0
 16 17  1  0
 17 18  1  0
 18 19  1  0
 19 20  2  0
 20 21  1  0
 21 22  2  0
 22 23  1  0
 23 24  2  0
 12 25  1  0
 25 26  2  0
 26  9  1  0
 24 19  1  0
  3 27  1  0
  4 28  1  0
  4 29  1  0
  5 30  1  0
  5 31  1  0
  8 32  1  0
 10 33  1  0
 11 34  1  0
 16 35  1  0
 17 36  1  0
 17 37  1  0
 18 38  1  0
 18 39  1  0
 20 40  1  0
 21 41  1  0
 22 42  1  0
 23 43  1  0
 24 44  1  0
 25 45  1  0
 26 46  1  0
M  END
$$$$
