
     RDKit          3D

 49 51  0  0  0  0  0  0  0  0999 V2000
   -3.3764   -3.8120    0.1051 C   0  0  0  0  0  0  0  0  0  0  0  0
   -2.7233   -2.5404    0.5860 C   0  0  0  0  0  0  0  0  0  0  0  0
   -2.7742   -2.2622    2.0486 C   0  0  0  0  0  0  0  0  0  0  0  0
   -2.2089   -1.1069    2.4260 C   0  0  0  0  0  0  0  0  0  0  0  0
   -2.1281   -0.6830    3.8617 C   0  0  0  0  0  0  0  0  0  0  0  0
   -1.6560   -0.2755    1.4753 N   0  0  0  0  0  0  0  0  0  0  0  0
   -1.5612   -0.6267    0.1498 C   0  0  0  0  0  0  0  0  0  0  0  0
   -0.9506    0.0247   -0.7887 N   0  0  0  0  0  0  0  0  0  0  0  0
   -0.3872    1.2240   -0.4824 C   0  0  0  0  0  0  0  0  0  0  0  0
    0.8603    1.3178   -0.1731 N   0  0  0  0  0  0  0  0  0  0  0  0
    1.8729    0.0632   -0.0549 S   0  0  0  0  0  6  0  0  0  0  0  0
    3.1904    0.6317    0.1810 O   0  0  0  0  0  0  0  0  0  0  0  0
    1.3352   -0.8815    0.9081 O   0  0  0  0  0  0  0  0  0  0  0  0
    1.8727   -0.6490   -1.7057 C   0  0  0  0  0  0  0  0  0  0  0  0
    2.8436   -1.8032   -1.7522 C   0  0  0  0  0  0  0  0  0  0  0  0
    4.1898   -1.5955   -2.0840 C   0  0  0  0  0  0  0  0  0  0  0  0
    5.0818   -2.6682   -2.1224 C   0  0  0  0  0  0  0  0  0  0  0  0
    4.6387   -3.9565   -1.8293 C   0  0  0  0  0  0  0  0  0  0  0  0
    3.3040   -4.1740   -1.4936 C   0  0  0  0  0  0  0  0  0  0  0  0
    2.4099   -3.1035   -1.4537 C   0  0  0  0  0  0  0  0  0  0  0  0
   -1.2358    2.2942   -0.5794 N   0  0  0  0  0  0  0  0  0  0  0  0
   -1.0462    3.6711   -0.3587 C   0  0  0  0  0  0  0  0  0  0  0  0
    0.1486    4.2212    0.1231 C   0  0  0  0  0  0  0  0  0  0  0  0
    0.2835    5.5988    0.3379 C   0  0  0  0  0  0  0  0  0  0  0  0
   -0.7784    6.4592    0.0797 C   0  0  0  0  0  0  0  0  0  0  0  0
   -1.9807    5.9437   -0.3924 C   0  0  0  0  0  0  0  0  0  0  0  0
   -2.1106    4.5669   -0.6056 C   0  0  0  0  0  0  0  0  0  0  0  0
   -3.7901    3.9338   -1.2460 Br  0  0  0  0  0  0  0  0  0  0  0  0
   -2.1583   -1.7796   -0.3002 N   0  0  0  0  0  0  0  0  0  0  0  0
   -4.1377   -3.5669   -0.6412 H   0  0  0  0  0  0  0  0  0  0  0  0
   -2.6191   -4.4532   -0.3555 H   0  0  0  0  0  0  0  0  0  0  0  0
   -3.8500   -4.3571    0.9255 H   0  0  0  0  0  0  0  0  0  0  0  0
   -3.2213   -2.9751    2.7261 H   0  0  0  0  0  0  0  0  0  0  0  0
   -2.6424    0.2731    4.0049 H   0  0  0  0  0  0  0  0  0  0  0  0
   -2.5897   -1.4156    4.5321 H   0  0  0  0  0  0  0  0  0  0  0  0
   -1.0828   -0.5629    4.1651 H   0  0  0  0  0  0  0  0  0  0  0  0
   -1.0236    0.4381    1.8184 H   0  0  0  0  0  0  0  0  0  0  0  0
    2.1642    0.1362   -2.4106 H   0  0  0  0  0  0  0  0  0  0  0  0
    0.8754   -1.0011   -1.9697 H   0  0  0  0  0  0  0  0  0  0  0  0
    4.5573   -0.5945   -2.3024 H   0  0  0  0  0  0  0  0  0  0  0  0
    6.1250   -2.4967   -2.3745 H   0  0  0  0  0  0  0  0  0  0  0  0
    5.3355   -4.7900   -1.8555 H   0  0  0  0  0  0  0  0  0  0  0  0
    2.9593   -5.1772   -1.2570 H   0  0  0  0  0  0  0  0  0  0  0  0
    1.3721   -3.2890   -1.1799 H   0  0  0  0  0  0  0  0  0  0  0  0
   -2.1471    2.0591   -0.9579 H   0  0  0  0  0  0  0  0  0  0  0  0
    1.0111    3.6004    0.3471 H   0  0  0  0  0  0  0  0  0  0  0  0
    1.2266    5.9943    0.7091 H   0  0  0  0  0  0  0  0  0  0  0  0
   -0.6685    7.5277    0.2472 H   0  0  0  0  0  0  0  0  0  0  0  0
   -2.8096    6.6181   -0.5912 H   0  0  0  0  0  0  0  0  0  0  0  0
  1  2  1  0
  2  3  1  0
  3  4  2  0
  4  5  1  0
  4  6  1  0
  6  7  1  0
  7  8  2  3
  8  9  1  0
  9 10  2  3
 10 11  1  0
 11 12  2  0
 11 13  2  0
 11 14  1  0
 14 15  1  0
 15 16  2  0
 16 17  1  0
 17 18  2  0
 18 19  1  0
 19 20  2  0
  9 21  1  0
 21 22  1  0
 22 23  2  0
 23 24  1  0
 24 25  2  0
 25 26  1  0
 26 27  2  0
 27 28  1  0
  7 29  1  0
 29  2  2  0
 20 15  1  0
 27 22  1  0
  1 30  1  0
  1 31  1  0
  1 32  1  0
  3 33  1  0
  5 34  1  0
  5 35  1  0
  5 36  1  0
  6 37  1  0
 14 38  1  0
 14 39  1  0
 16 40  1  0
 17 41  1  0
 18 42  1  0
 19 43  1  0
 20 44  1  0
 21 45  1  0
 23 46  1  0
 24 47  1  0
 25 48  1  0
 26 49  1  0
M  END
$$$$
