
     RDKit          3D

 61 66  0  0  0  0  0  0  0  0999 V2000
   -3.2487    5.7841    1.6564 C   0  0  0  0  0  0  0  0  0  0  0  0
   -2.4478    4.4848    1.6155 C   0  0  0  0  0  0  0  0  0  0  0  0
   -3.1559    3.4329    0.7365 C   0  0  0  0  0  0  0  0  0  0  0  0
   -2.4259    2.0805    0.7653 C   0  0  0  0  0  0  0  0  0  0  0  0
   -0.9406    2.2383    0.6098 C   0  0  0  0  0  0  0  0  0  0  0  0
   -0.3208    3.4622    0.7829 C   0  0  0  0  0  0  0  0  0  0  0  0
    1.3577    3.3877    0.5305 S   0  0  0  0  0  0  0  0  0  0  0  0
    1.2910    1.7174    0.1973 C   0  0  0  0  0  0  0  0  0  0  0  0
    2.4133    1.0495   -0.1096 N   0  0  0  0  0  0  0  0  0  0  0  0
    2.1982   -0.2535   -0.3460 C   0  0  0  0  0  0  0  0  0  0  0  0
    3.4134   -1.0871   -0.7399 C   0  0  0  0  0  0  0  0  0  0  0  0
    3.5995   -1.2926   -2.1977 N   0  0  0  0  0  0  0  0  0  0  0  0
    4.7393   -2.1983   -2.4614 C   0  0  0  0  0  0  0  0  0  0  0  0
    6.1203   -1.5558   -2.2385 C   0  0  0  0  0  0  0  0  0  0  0  0
    6.2687   -0.3504   -2.9975 O   0  0  0  0  0  0  0  0  0  0  0  0
    5.2281    0.5852   -2.6827 C   0  0  0  0  0  0  0  0  0  0  0  0
    3.8400   -0.0281   -2.9289 C   0  0  0  0  0  0  0  0  0  0  0  0
    1.0096   -0.8857   -0.2712 N   0  0  0  0  0  0  0  0  0  0  0  0
   -0.1061   -0.1883    0.0490 C   0  0  0  0  0  0  0  0  0  0  0  0
   -1.3347   -0.8667    0.1630 N   0  0  0  0  0  0  0  0  0  0  0  0
   -1.5747   -1.7770   -0.9768 C   0  0  0  0  0  0  0  0  0  0  0  0
   -1.4521   -3.2621   -0.6231 C   0  0  0  0  0  0  0  0  0  0  0  0
   -2.3568   -3.5584    0.5436 C   0  0  0  0  0  0  0  0  0  0  0  0
   -3.1432   -4.7107    0.6141 C   0  0  0  0  0  0  0  0  0  0  0  0
   -3.9698   -4.9158    1.7188 C   0  0  0  0  0  0  0  0  0  0  0  0
   -4.0025   -3.9826    2.7567 C   0  0  0  0  0  0  0  0  0  0  0  0
   -3.2045   -2.8404    2.6975 C   0  0  0  0  0  0  0  0  0  0  0  0
   -2.3826   -2.6170    1.5874 C   0  0  0  0  0  0  0  0  0  0  0  0
   -1.4332   -1.4405    1.5200 C   0  0  0  0  0  0  0  0  0  0  0  0
    0.0097    1.1971    0.2891 C   0  0  0  0  0  0  0  0  0  0  0  0
   -1.0125    4.7502    1.1092 C   0  0  0  0  0  0  0  0  0  0  0  0
   -2.7475    6.5296    2.2819 H   0  0  0  0  0  0  0  0  0  0  0  0
   -4.2443    5.6080    2.0761 H   0  0  0  0  0  0  0  0  0  0  0  0
   -3.3718    6.2099    0.6544 H   0  0  0  0  0  0  0  0  0  0  0  0
   -2.3881    4.0914    2.6397 H   0  0  0  0  0  0  0  0  0  0  0  0
   -3.2033    3.7982   -0.2984 H   0  0  0  0  0  0  0  0  0  0  0  0
   -4.1909    3.2871    1.0685 H   0  0  0  0  0  0  0  0  0  0  0  0
   -2.8297    1.4478   -0.0312 H   0  0  0  0  0  0  0  0  0  0  0  0
   -2.6275    1.5852    1.7214 H   0  0  0  0  0  0  0  0  0  0  0  0
    4.2992   -0.6374   -0.2757 H   0  0  0  0  0  0  0  0  0  0  0  0
    3.2831   -2.0690   -0.2655 H   0  0  0  0  0  0  0  0  0  0  0  0
    4.6709   -2.5112   -3.5114 H   0  0  0  0  0  0  0  0  0  0  0  0
    4.6500   -3.1146   -1.8663 H   0  0  0  0  0  0  0  0  0  0  0  0
    6.9026   -2.2485   -2.5660 H   0  0  0  0  0  0  0  0  0  0  0  0
    6.3000   -1.3381   -1.1797 H   0  0  0  0  0  0  0  0  0  0  0  0
    5.3654    1.4570   -3.3311 H   0  0  0  0  0  0  0  0  0  0  0  0
    5.3487    0.9256   -1.6482 H   0  0  0  0  0  0  0  0  0  0  0  0
    3.0561    0.7086   -2.7266 H   0  0  0  0  0  0  0  0  0  0  0  0
    3.7548   -0.2593   -3.9989 H   0  0  0  0  0  0  0  0  0  0  0  0
   -0.9387   -1.5444   -1.8425 H   0  0  0  0  0  0  0  0  0  0  0  0
   -2.6024   -1.5834   -1.3160 H   0  0  0  0  0  0  0  0  0  0  0  0
   -1.7343   -3.8639   -1.4921 H   0  0  0  0  0  0  0  0  0  0  0  0
   -0.4224   -3.5193   -0.3565 H   0  0  0  0  0  0  0  0  0  0  0  0
   -3.1225   -5.4464   -0.1874 H   0  0  0  0  0  0  0  0  0  0  0  0
   -4.5894   -5.8061    1.7728 H   0  0  0  0  0  0  0  0  0  0  0  0
   -4.6455   -4.1524    3.6171 H   0  0  0  0  0  0  0  0  0  0  0  0
   -3.2225   -2.1338    3.5221 H   0  0  0  0  0  0  0  0  0  0  0  0
   -1.7721   -0.6556    2.2088 H   0  0  0  0  0  0  0  0  0  0  0  0
   -0.4586   -1.8004    1.8854 H   0  0  0  0  0  0  0  0  0  0  0  0
   -1.0416    5.3703    0.2035 H   0  0  0  0  0  0  0  0  0  0  0  0
   -0.4544    5.3068    1.8727 H   0  0  0  0  0  0  0  0  0  0  0  0
  1  2  1  0
  2  3  1  0
  3  4  1  0
  4  5  1  0
  5  6  2  0
  6  7  1  0
  7  8  1  0
  8  9  2  0
  9 10  1  0
 10 11  1  0
 11 12  1  0
 12 13  1  0
 13 14  1  0
 14 15  1  0
 15 16  1  0
 16 17  1  0
 10 18  2  0
 18 19  1  0
 19 20  1  0
 20 21  1  0
 21 22  1  0
 22 23  1  0
 23 24  2  0
 24 25  1  0
 25 26  2  0
 26 27  1  0
 27 28  2  0
 28 29  1  0
 19 30  2  0
  6 31  1  0
 31  2  1  0
 30  5  1  0
 30  8  1  0
 17 12  1  0
 29 20  1  0
 28 23  1  0
  1 32  1  0
  1 33  1  0
  1 34  1  0
  2 35  1  0
  3 36  1  0
  3 37  1  0
  4 38  1  0
  4 39  1  0
 11 40  1  0
 11 41  1  0
 13 42  1  0
 13 43  1  0
 14 44  1  0
 14 45  1  0
 16 46  1  0
 16 47  1  0
 17 48  1  0
 17 49  1  0
 21 50  1  0
 21 51  1  0
 22 52  1  0
 22 53  1  0
 24 54  1  0
 25 55  1  0
 26 56  1  0
 27 57  1  0
 29 58  1  0
 29 59  1  0
 31 60  1  0
 31 61  1  0
M  END
$$$$
