
     RDKit          3D

 40 41  0  0  0  0  0  0  0  0999 V2000
   -3.0415   -2.1351    1.8481 O   0  0  0  0  0  0  0  0  0  0  0  0
   -2.1491   -1.3006    1.7287 C   0  0  0  0  0  0  0  0  0  0  0  0
   -0.7765   -1.5277    2.3781 C   0  0  0  0  0  0  0  0  0  0  0  0
    0.2719   -0.6704    1.9215 O   0  0  0  0  0  0  0  0  0  0  0  0
    0.8302   -1.0364    0.7306 C   0  0  0  0  0  0  0  0  0  0  0  0
    0.4445   -1.9683    0.0422 O   0  0  0  0  0  0  0  0  0  0  0  0
    1.9759   -0.1043    0.4034 C   0  0  0  0  0  0  0  0  0  0  0  0
    2.6530   -0.4486   -0.9320 C   0  0  0  0  0  0  0  0  0  0  0  0
    3.5652   -1.6747   -0.8377 C   0  0  0  0  0  0  0  0  0  0  0  0
    4.8958   -1.1508   -0.3018 C   0  0  0  0  0  0  0  0  0  0  0  0
    4.9122    0.3495   -0.5892 C   0  0  0  0  0  0  0  0  0  0  0  0
    3.6359    0.6386   -1.3702 C   0  0  0  0  0  0  0  0  0  0  0  0
   -2.2515   -0.0742    1.0950 N   0  0  0  0  0  0  0  0  0  0  0  0
   -3.3432    0.4669    0.3679 C   0  0  0  0  0  0  0  0  0  0  0  0
   -4.5412   -0.2445    0.2126 C   0  0  0  0  0  0  0  0  0  0  0  0
   -5.6194    0.2870   -0.5062 C   0  0  0  0  0  0  0  0  0  0  0  0
   -5.5271    1.5450   -1.0895 C   0  0  0  0  0  0  0  0  0  0  0  0
   -4.3520    2.2786   -0.9560 C   0  0  0  0  0  0  0  0  0  0  0  0
   -3.2653    1.7465   -0.2331 C   0  0  0  0  0  0  0  0  0  0  0  0
   -2.0561    2.5793   -0.1304 N   0  0  0  0  0  4  0  0  0  0  0  0
   -2.1408    3.7696   -0.4649 O   0  0  0  0  0  0  0  0  0  0  0  0
   -1.0131    2.0508    0.2881 O   0  0  0  0  0  1  0  0  0  0  0  0
   -0.4916   -2.5798    2.2578 H   0  0  0  0  0  0  0  0  0  0  0  0
   -0.8954   -1.3416    3.4510 H   0  0  0  0  0  0  0  0  0  0  0  0
    2.6929   -0.1410    1.2309 H   0  0  0  0  0  0  0  0  0  0  0  0
    1.5624    0.9089    0.3462 H   0  0  0  0  0  0  0  0  0  0  0  0
    1.8868   -0.5978   -1.7020 H   0  0  0  0  0  0  0  0  0  0  0  0
    3.1612   -2.4767   -0.2130 H   0  0  0  0  0  0  0  0  0  0  0  0
    3.7212   -2.0893   -1.8417 H   0  0  0  0  0  0  0  0  0  0  0  0
    5.7389   -1.6626   -0.7773 H   0  0  0  0  0  0  0  0  0  0  0  0
    4.9743   -1.3263    0.7771 H   0  0  0  0  0  0  0  0  0  0  0  0
    5.8032    0.6485   -1.1503 H   0  0  0  0  0  0  0  0  0  0  0  0
    4.9165    0.9083    0.3539 H   0  0  0  0  0  0  0  0  0  0  0  0
    3.2661    1.6537   -1.1964 H   0  0  0  0  0  0  0  0  0  0  0  0
    3.8377    0.5393   -2.4442 H   0  0  0  0  0  0  0  0  0  0  0  0
   -1.4050    0.4965    1.1252 H   0  0  0  0  0  0  0  0  0  0  0  0
   -4.6785   -1.2344    0.6386 H   0  0  0  0  0  0  0  0  0  0  0  0
   -6.5339   -0.2945   -0.6077 H   0  0  0  0  0  0  0  0  0  0  0  0
   -6.3678    1.9513   -1.6471 H   0  0  0  0  0  0  0  0  0  0  0  0
   -4.2967    3.2614   -1.4214 H   0  0  0  0  0  0  0  0  0  0  0  0
  1  2  2  0
  2  3  1  0
  3  4  1  0
  4  5  1  0
  5  6  2  0
  5  7  1  0
  7  8  1  0
  8  9  1  0
  9 10  1  0
 10 11  1  0
 11 12  1  0
  2 13  1  0
 13 14  1  0
 14 15  2  0
 15 16  1  0
 16 17  2  0
 17 18  1  0
 18 19  2  0
 19 20  1  0
 20 21  2  0
 20 22  1  0
 12  8  1  0
 19 14  1  0
  3 23  1  0
  3 24  1  0
  7 25  1  0
  7 26  1  0
  8 27  1  0
  9 28  1  0
  9 29  1  0
 10 30  1  0
 10 31  1  0
 11 32  1  0
 11 33  1  0
 12 34  1  0
 12 35  1  0
 13 36  1  0
 15 37  1  0
 16 38  1  0
 17 39  1  0
 18 40  1  0
M  CHG  2  20   1  22  -1
M  END
$$$$
