
     RDKit          3D

 44 46  0  0  0  0  0  0  0  0999 V2000
   -4.6268    0.7088    2.0539 C   0  0  0  0  0  0  0  0  0  0  0  0
   -5.4924    0.2402    0.9165 C   0  0  0  0  0  0  0  0  0  0  0  0
   -6.8887    0.2668    1.0517 C   0  0  0  0  0  0  0  0  0  0  0  0
   -7.7093   -0.1627    0.0105 C   0  0  0  0  0  0  0  0  0  0  0  0
   -7.1422   -0.6221   -1.1740 C   0  0  0  0  0  0  0  0  0  0  0  0
   -5.7533   -0.6539   -1.3221 C   0  0  0  0  0  0  0  0  0  0  0  0
   -4.9216   -0.2250   -0.2828 C   0  0  0  0  0  0  0  0  0  0  0  0
   -3.5523   -0.2161   -0.3275 O   0  0  0  0  0  0  0  0  0  0  0  0
   -2.9306   -0.6789   -1.5233 C   0  0  0  0  0  0  0  0  0  0  0  0
   -1.4047   -0.6039   -1.4089 C   0  0  0  0  0  0  0  0  0  0  0  0
   -0.6958   -0.9619   -2.3452 O   0  0  0  0  0  0  0  0  0  0  0  0
   -0.9873   -0.1133   -0.1940 N   0  0  0  0  0  0  0  0  0  0  0  0
    0.2980    0.0819    0.2345 C   0  0  0  0  0  0  0  0  0  0  0  0
    0.5740    0.5607    1.4267 N   0  0  0  0  0  0  0  0  0  0  0  0
    1.9324    0.6731    1.6422 N   0  0  0  0  0  0  0  0  0  0  0  0
    2.6362    0.2726    0.6017 C   0  0  0  0  0  0  0  0  0  0  0  0
    4.1407    0.2853    0.5544 C   0  0  0  0  0  0  0  0  0  0  0  0
    4.7432   -1.0854    0.2263 C   0  0  0  0  0  0  0  0  0  0  0  0
    6.2678   -1.0820    0.3747 C   0  0  0  0  0  0  0  0  0  0  0  0
    6.9107    0.2727    0.0711 C   0  0  0  0  0  0  0  0  0  0  0  0
    6.0858    1.0863   -0.9164 C   0  0  0  0  0  0  0  0  0  0  0  0
    4.6811    1.3826   -0.3824 C   0  0  0  0  0  0  0  0  0  0  0  0
    1.6667   -0.2679   -0.7138 S   0  0  0  0  0  0  0  0  0  0  0  0
   -3.9784   -0.1043    2.3961 H   0  0  0  0  0  0  0  0  0  0  0  0
   -5.2275    1.0366    2.9088 H   0  0  0  0  0  0  0  0  0  0  0  0
   -4.0106    1.5563    1.7366 H   0  0  0  0  0  0  0  0  0  0  0  0
   -7.3459    0.6235    1.9722 H   0  0  0  0  0  0  0  0  0  0  0  0
   -8.7900   -0.1384    0.1244 H   0  0  0  0  0  0  0  0  0  0  0  0
   -7.7823   -0.9572   -1.9865 H   0  0  0  0  0  0  0  0  0  0  0  0
   -5.3581   -1.0202   -2.2637 H   0  0  0  0  0  0  0  0  0  0  0  0
   -3.1879   -1.7292   -1.7022 H   0  0  0  0  0  0  0  0  0  0  0  0
   -3.2206   -0.0467   -2.3703 H   0  0  0  0  0  0  0  0  0  0  0  0
   -1.7023    0.1402    0.4794 H   0  0  0  0  0  0  0  0  0  0  0  0
    4.4751    0.5387    1.5720 H   0  0  0  0  0  0  0  0  0  0  0  0
    4.3190   -1.8663    0.8695 H   0  0  0  0  0  0  0  0  0  0  0  0
    4.4929   -1.3689   -0.8045 H   0  0  0  0  0  0  0  0  0  0  0  0
    6.6861   -1.8482   -0.2893 H   0  0  0  0  0  0  0  0  0  0  0  0
    6.5418   -1.3800    1.3940 H   0  0  0  0  0  0  0  0  0  0  0  0
    7.9245    0.1194   -0.3160 H   0  0  0  0  0  0  0  0  0  0  0  0
    7.0168    0.8413    1.0037 H   0  0  0  0  0  0  0  0  0  0  0  0
    6.0055    0.5318   -1.8600 H   0  0  0  0  0  0  0  0  0  0  0  0
    6.5948    2.0282   -1.1505 H   0  0  0  0  0  0  0  0  0  0  0  0
    4.0193    1.5537   -1.2401 H   0  0  0  0  0  0  0  0  0  0  0  0
    4.6963    2.3317    0.1698 H   0  0  0  0  0  0  0  0  0  0  0  0
  1  2  1  0
  2  3  2  0
  3  4  1  0
  4  5  2  0
  5  6  1  0
  6  7  2  0
  7  8  1  0
  8  9  1  0
  9 10  1  0
 10 11  2  0
 10 12  1  0
 12 13  1  0
 13 14  2  0
 14 15  1  0
 15 16  2  0
 16 17  1  0
 17 18  1  0
 18 19  1  0
 19 20  1  0
 20 21  1  0
 21 22  1  0
 16 23  1  0
  7  2  1  0
 23 13  1  0
 22 17  1  0
  1 24  1  0
  1 25  1  0
  1 26  1  0
  3 27  1  0
  4 28  1  0
  5 29  1  0
  6 30  1  0
  9 31  1  0
  9 32  1  0
 12 33  1  0
 17 34  1  0
 18 35  1  0
 18 36  1  0
 19 37  1  0
 19 38  1  0
 20 39  1  0
 20 40  1  0
 21 41  1  0
 21 42  1  0
 22 43  1  0
 22 44  1  0
M  END
$$$$
