
     RDKit          3D

 36 37  0  0  0  0  0  0  0  0999 V2000
   -3.6266    1.0649    1.4688 C   0  0  0  0  0  0  0  0  0  0  0  0
   -2.8318    0.6208    0.2427 C   0  0  0  0  0  0  0  0  0  0  0  0
   -2.7657   -0.9111    0.1652 C   0  0  0  0  0  0  0  0  0  0  0  0
   -1.9210   -1.3617   -1.0349 C   0  0  0  0  0  0  0  0  0  0  0  0
   -1.8074   -2.8842   -1.0731 C   0  0  0  0  0  0  0  0  0  0  0  0
   -0.5302   -0.7154   -0.9927 C   0  0  0  0  0  0  0  0  0  0  0  0
   -0.6738    0.7586   -0.9288 N   0  0  0  0  0  0  0  0  0  0  0  0
    0.6970    1.6636   -1.3746 S   0  0  0  0  0  6  0  0  0  0  0  0
    1.1999    1.1242   -2.6210 O   0  0  0  0  0  0  0  0  0  0  0  0
    0.4047    3.0724   -1.2301 O   0  0  0  0  0  0  0  0  0  0  0  0
    2.0025    1.3066   -0.2102 C   0  0  0  0  0  0  0  0  0  0  0  0
    3.1113    0.4848   -0.2995 C   0  0  0  0  0  0  0  0  0  0  0  0
    3.9216    0.4818    0.8930 C   0  0  0  0  0  0  0  0  0  0  0  0
    5.1410   -0.2836    1.0832 C   0  0  0  0  0  0  0  0  0  0  0  0
    5.8492   -0.3006    2.0775 O   0  0  0  0  0  0  0  0  0  0  0  0
    5.4758   -1.0451    0.0166 O   0  0  0  0  0  0  0  0  0  0  0  0
    3.3591    1.3227    1.8284 C   0  0  0  0  0  0  0  0  0  0  0  0
    3.9068    1.6851    3.4216 Cl  0  0  0  0  0  0  0  0  0  0  0  0
    1.9340    2.0826    1.3078 S   0  0  0  0  0  0  0  0  0  0  0  0
   -1.4186    1.2184    0.2669 C   0  0  0  0  0  0  0  0  0  0  0  0
   -4.6432    0.6590    1.4402 H   0  0  0  0  0  0  0  0  0  0  0  0
   -3.1522    0.7256    2.3959 H   0  0  0  0  0  0  0  0  0  0  0  0
   -3.7027    2.1566    1.5074 H   0  0  0  0  0  0  0  0  0  0  0  0
   -3.3517    0.9882   -0.6524 H   0  0  0  0  0  0  0  0  0  0  0  0
   -3.7794   -1.3216    0.0794 H   0  0  0  0  0  0  0  0  0  0  0  0
   -2.3374   -1.3125    1.0933 H   0  0  0  0  0  0  0  0  0  0  0  0
   -2.4289   -1.0349   -1.9525 H   0  0  0  0  0  0  0  0  0  0  0  0
   -1.3056   -3.2689   -0.1787 H   0  0  0  0  0  0  0  0  0  0  0  0
   -1.2350   -3.2088   -1.9484 H   0  0  0  0  0  0  0  0  0  0  0  0
   -2.7985   -3.3461   -1.1307 H   0  0  0  0  0  0  0  0  0  0  0  0
    0.0177   -1.0059   -1.8953 H   0  0  0  0  0  0  0  0  0  0  0  0
    0.0363   -1.0692   -0.1228 H   0  0  0  0  0  0  0  0  0  0  0  0
    3.3371   -0.0887   -1.1932 H   0  0  0  0  0  0  0  0  0  0  0  0
    6.3079   -1.4765    0.3033 H   0  0  0  0  0  0  0  0  0  0  0  0
   -1.4994    2.3103    0.2692 H   0  0  0  0  0  0  0  0  0  0  0  0
   -0.8927    0.9088    1.1768 H   0  0  0  0  0  0  0  0  0  0  0  0
  1  2  1  0
  2  3  1  0
  3  4  1  0
  4  5  1  0
  4  6  1  0
  6  7  1  0
  7  8  1  0
  8  9  2  0
  8 10  2  0
  8 11  1  0
 11 12  2  0
 12 13  1  0
 13 14  1  0
 14 15  2  0
 14 16  1  0
 13 17  2  0
 17 18  1  0
 17 19  1  0
  7 20  1  0
 20  2  1  0
 19 11  1  0
  1 21  1  0
  1 22  1  0
  1 23  1  0
  2 24  1  0
  3 25  1  0
  3 26  1  0
  4 27  1  0
  5 28  1  0
  5 29  1  0
  5 30  1  0
  6 31  1  0
  6 32  1  0
 12 33  1  0
 16 34  1  0
 20 35  1  0
 20 36  1  0
M  END
$$$$
