
     RDKit          3D

 52 53  0  0  0  0  0  0  0  0999 V2000
   -6.3745    0.3932   -2.0020 C   0  0  0  0  0  0  0  0  0  0  0  0
   -6.3758    1.1423   -0.6746 C   0  0  0  0  0  0  0  0  0  0  0  0
   -5.6906    0.3583    0.4634 C   0  0  0  0  0  0  0  0  0  0  0  0
   -5.8919    1.0779    1.8026 C   0  0  0  0  0  0  0  0  0  0  0  0
   -4.2126    0.1083    0.2114 C   0  0  0  0  0  0  0  0  0  0  0  0
   -3.3058    1.1615    0.0330 C   0  0  0  0  0  0  0  0  0  0  0  0
   -1.9501    0.9076   -0.1952 C   0  0  0  0  0  0  0  0  0  0  0  0
   -1.4650   -0.4065   -0.2591 C   0  0  0  0  0  0  0  0  0  0  0  0
    0.0164   -0.6538   -0.4866 C   0  0  0  0  0  0  0  0  0  0  0  0
    0.2760   -1.6917   -1.5833 C   0  0  0  0  0  0  0  0  0  0  0  0
    0.6444   -1.0410    0.7736 N   0  0  0  0  0  0  0  0  0  0  0  0
    1.9567   -1.0942    1.1244 C   0  0  0  0  0  0  0  0  0  0  0  0
    2.3260   -1.8031    2.5901 S   0  0  0  0  0  0  0  0  0  0  0  0
    2.8470   -0.5869    0.2236 N   0  0  0  0  0  0  0  0  0  0  0  0
    4.2989   -0.4621    0.3931 C   0  0  0  0  0  0  0  0  0  0  0  0
    4.9855   -0.5151   -0.9780 C   0  0  0  0  0  0  0  0  0  0  0  0
    6.4953   -0.3256   -0.8597 C   0  0  0  0  0  0  0  0  0  0  0  0
    6.8429    0.9636   -0.1212 C   0  0  0  0  0  0  0  0  0  0  0  0
    6.1595    1.0327    1.2412 C   0  0  0  0  0  0  0  0  0  0  0  0
    4.6493    0.8411    1.1253 C   0  0  0  0  0  0  0  0  0  0  0  0
   -2.3708   -1.4594   -0.0639 C   0  0  0  0  0  0  0  0  0  0  0  0
   -3.7265   -1.2049    0.1641 C   0  0  0  0  0  0  0  0  0  0  0  0
   -6.8429   -0.5904   -1.8972 H   0  0  0  0  0  0  0  0  0  0  0  0
   -5.3591    0.2540   -2.3851 H   0  0  0  0  0  0  0  0  0  0  0  0
   -6.9381    0.9580   -2.7516 H   0  0  0  0  0  0  0  0  0  0  0  0
   -5.9048    2.1226   -0.8156 H   0  0  0  0  0  0  0  0  0  0  0  0
   -7.4194    1.3361   -0.3962 H   0  0  0  0  0  0  0  0  0  0  0  0
   -6.2001   -0.6116    0.5468 H   0  0  0  0  0  0  0  0  0  0  0  0
   -6.9588    1.1742    2.0319 H   0  0  0  0  0  0  0  0  0  0  0  0
   -5.4236    0.5205    2.6218 H   0  0  0  0  0  0  0  0  0  0  0  0
   -5.4611    2.0853    1.7948 H   0  0  0  0  0  0  0  0  0  0  0  0
   -3.6448    2.1942    0.0754 H   0  0  0  0  0  0  0  0  0  0  0  0
   -1.2735    1.7509   -0.3165 H   0  0  0  0  0  0  0  0  0  0  0  0
    0.4772    0.2865   -0.8121 H   0  0  0  0  0  0  0  0  0  0  0  0
   -0.0453   -2.6951   -1.2827 H   0  0  0  0  0  0  0  0  0  0  0  0
    1.3436   -1.7581   -1.8171 H   0  0  0  0  0  0  0  0  0  0  0  0
   -0.2513   -1.4280   -2.5068 H   0  0  0  0  0  0  0  0  0  0  0  0
    0.0305   -1.4551    1.4667 H   0  0  0  0  0  0  0  0  0  0  0  0
    2.4585    0.0062   -0.4921 H   0  0  0  0  0  0  0  0  0  0  0  0
    4.6573   -1.3111    0.9866 H   0  0  0  0  0  0  0  0  0  0  0  0
    4.7735   -1.4752   -1.4641 H   0  0  0  0  0  0  0  0  0  0  0  0
    4.5725    0.2620   -1.6346 H   0  0  0  0  0  0  0  0  0  0  0  0
    6.9299   -1.1804   -0.3267 H   0  0  0  0  0  0  0  0  0  0  0  0
    6.9446   -0.3106   -1.8591 H   0  0  0  0  0  0  0  0  0  0  0  0
    7.9290    1.0341    0.0068 H   0  0  0  0  0  0  0  0  0  0  0  0
    6.5356    1.8250   -0.7271 H   0  0  0  0  0  0  0  0  0  0  0  0
    6.3733    1.9990    1.7119 H   0  0  0  0  0  0  0  0  0  0  0  0
    6.5753    0.2585    1.8977 H   0  0  0  0  0  0  0  0  0  0  0  0
    4.2147    1.6956    0.5899 H   0  0  0  0  0  0  0  0  0  0  0  0
    4.2059    0.8498    2.1275 H   0  0  0  0  0  0  0  0  0  0  0  0
   -2.0314   -2.4927   -0.0793 H   0  0  0  0  0  0  0  0  0  0  0  0
   -4.4012   -2.0465    0.3082 H   0  0  0  0  0  0  0  0  0  0  0  0
  1  2  1  0
  2  3  1  0
  3  4  1  0
  3  5  1  0
  5  6  2  0
  6  7  1  0
  7  8  2  0
  8  9  1  0
  9 10  1  0
  9 11  1  0
 11 12  1  0
 12 13  2  0
 12 14  1  0
 14 15  1  0
 15 16  1  0
 16 17  1  0
 17 18  1  0
 18 19  1  0
 19 20  1  0
  8 21  1  0
 21 22  2  0
 22  5  1  0
 20 15  1  0
  1 23  1  0
  1 24  1  0
  1 25  1  0
  2 26  1  0
  2 27  1  0
  3 28  1  0
  4 29  1  0
  4 30  1  0
  4 31  1  0
  6 32  1  0
  7 33  1  0
  9 34  1  0
 10 35  1  0
 10 36  1  0
 10 37  1  0
 11 38  1  0
 14 39  1  0
 15 40  1  0
 16 41  1  0
 16 42  1  0
 17 43  1  0
 17 44  1  0
 18 45  1  0
 18 46  1  0
 19 47  1  0
 19 48  1  0
 20 49  1  0
 20 50  1  0
 21 51  1  0
 22 52  1  0
M  END
$$$$
