
     RDKit          3D

 59 62  0  0  0  0  0  0  0  0999 V2000
    8.1757    4.3564    1.3954 C   0  0  0  0  0  0  0  0  0  0  0  0
    7.5822    2.9612    1.4743 C   0  0  0  0  0  0  0  0  0  0  0  0
    6.8739    2.7160    0.2605 O   0  0  0  0  0  0  0  0  0  0  0  0
    6.2808    1.4924    0.1207 C   0  0  0  0  0  0  0  0  0  0  0  0
    5.6329    1.2949   -1.1002 C   0  0  0  0  0  0  0  0  0  0  0  0
    4.9834    0.0901   -1.3780 C   0  0  0  0  0  0  0  0  0  0  0  0
    4.9688   -0.9386   -0.4300 C   0  0  0  0  0  0  0  0  0  0  0  0
    4.2518   -2.2391   -0.7121 C   0  0  0  0  0  0  0  0  0  0  0  0
    2.7289   -2.0925   -0.7776 C   0  0  0  0  0  0  0  0  0  0  0  0
    2.1592   -1.6070    0.4685 N   0  0  0  0  0  0  0  0  0  0  0  0
    0.8161   -1.7825    0.7443 C   0  0  0  0  0  0  0  0  0  0  0  0
    0.0788   -2.4769    0.0500 O   0  0  0  0  0  0  0  0  0  0  0  0
    0.3523   -1.0725    2.0086 C   0  0  0  0  0  0  0  0  0  0  0  0
   -1.0157   -0.4505    1.8680 C   0  0  0  0  0  0  0  0  0  0  0  0
   -1.1733    0.7787    1.2132 C   0  0  0  0  0  0  0  0  0  0  0  0
   -2.4450    1.3349    1.0547 C   0  0  0  0  0  0  0  0  0  0  0  0
   -3.5748    0.6692    1.5333 C   0  0  0  0  0  0  0  0  0  0  0  0
   -4.8447    1.2250    1.3336 N   0  0  0  0  0  0  0  0  0  0  0  0
   -5.5743    0.7294    0.3995 C   0  0  0  0  0  0  0  0  0  0  0  0
   -5.3300   -0.2862   -0.5051 N   0  0  0  0  0  0  0  0  0  0  0  0
   -6.2123   -0.2125   -1.6489 C   0  0  0  0  0  0  0  0  0  0  0  0
   -6.4413   -1.4666   -2.4543 C   0  0  0  0  0  0  0  0  0  0  0  0
   -7.9836   -1.0660   -3.3011 S   0  0  0  0  0  6  0  0  0  0  0  0
   -7.6627   -0.5396   -4.6111 O   0  0  0  0  0  0  0  0  0  0  0  0
   -8.9086   -2.1623   -3.1126 O   0  0  0  0  0  0  0  0  0  0  0  0
   -8.4885    0.3099   -2.2429 C   0  0  0  0  0  0  0  0  0  0  0  0
   -7.5855    0.1125   -1.0509 C   0  0  0  0  0  0  0  0  0  0  0  0
   -7.1843    1.4467    0.1029 S   0  0  0  0  0  0  0  0  0  0  0  0
   -3.4176   -0.5430    2.2089 C   0  0  0  0  0  0  0  0  0  0  0  0
   -2.1492   -1.1060    2.3672 C   0  0  0  0  0  0  0  0  0  0  0  0
    5.6226   -0.7387    0.7927 C   0  0  0  0  0  0  0  0  0  0  0  0
    6.2740    0.4692    1.0670 C   0  0  0  0  0  0  0  0  0  0  0  0
    7.3879    5.1029    1.2493 H   0  0  0  0  0  0  0  0  0  0  0  0
    8.7265    4.5984    2.3088 H   0  0  0  0  0  0  0  0  0  0  0  0
    8.8552    4.4382    0.5403 H   0  0  0  0  0  0  0  0  0  0  0  0
    8.3932    2.2341    1.5957 H   0  0  0  0  0  0  0  0  0  0  0  0
    6.8987    2.9105    2.3295 H   0  0  0  0  0  0  0  0  0  0  0  0
    5.6377    2.0874   -1.8446 H   0  0  0  0  0  0  0  0  0  0  0  0
    4.4932   -0.0352   -2.3407 H   0  0  0  0  0  0  0  0  0  0  0  0
    4.6222   -2.6416   -1.6634 H   0  0  0  0  0  0  0  0  0  0  0  0
    4.5115   -2.9791    0.0559 H   0  0  0  0  0  0  0  0  0  0  0  0
    2.2805   -3.0631   -1.0184 H   0  0  0  0  0  0  0  0  0  0  0  0
    2.4299   -1.3901   -1.5643 H   0  0  0  0  0  0  0  0  0  0  0  0
    2.6274   -0.8202    0.9030 H   0  0  0  0  0  0  0  0  0  0  0  0
    0.3580   -1.8085    2.8216 H   0  0  0  0  0  0  0  0  0  0  0  0
    1.0661   -0.2913    2.2966 H   0  0  0  0  0  0  0  0  0  0  0  0
   -0.3108    1.3107    0.8182 H   0  0  0  0  0  0  0  0  0  0  0  0
   -2.5605    2.2904    0.5499 H   0  0  0  0  0  0  0  0  0  0  0  0
   -4.3451   -0.4817   -0.6632 H   0  0  0  0  0  0  0  0  0  0  0  0
   -5.8658    0.5905   -2.3177 H   0  0  0  0  0  0  0  0  0  0  0  0
   -6.6044   -2.3486   -1.8289 H   0  0  0  0  0  0  0  0  0  0  0  0
   -5.6553   -1.6601   -3.1862 H   0  0  0  0  0  0  0  0  0  0  0  0
   -9.5493    0.2186   -2.0028 H   0  0  0  0  0  0  0  0  0  0  0  0
   -8.2896    1.2419   -2.7803 H   0  0  0  0  0  0  0  0  0  0  0  0
   -7.9517   -0.7290   -0.4454 H   0  0  0  0  0  0  0  0  0  0  0  0
   -4.2906   -1.0572    2.6016 H   0  0  0  0  0  0  0  0  0  0  0  0
   -2.0553   -2.0637    2.8745 H   0  0  0  0  0  0  0  0  0  0  0  0
    5.6331   -1.5247    1.5454 H   0  0  0  0  0  0  0  0  0  0  0  0
    6.7673    0.5752    2.0274 H   0  0  0  0  0  0  0  0  0  0  0  0
  1  2  1  0
  2  3  1  0
  3  4  1  0
  4  5  2  0
  5  6  1  0
  6  7  2  0
  7  8  1  0
  8  9  1  0
  9 10  1  0
 10 11  1  0
 11 12  2  0
 11 13  1  0
 13 14  1  0
 14 15  2  0
 15 16  1  0
 16 17  2  0
 17 18  1  0
 18 19  2  3
 19 20  1  0
 20 21  1  0
 21 22  1  0
 22 23  1  0
 23 24  2  0
 23 25  2  0
 23 26  1  0
 26 27  1  0
 27 28  1  0
 17 29  1  0
 29 30  2  0
  7 31  1  0
 31 32  2  0
 32  4  1  0
 30 14  1  0
 28 19  1  0
 27 21  1  0
  1 33  1  0
  1 34  1  0
  1 35  1  0
  2 36  1  0
  2 37  1  0
  5 38  1  0
  6 39  1  0
  8 40  1  0
  8 41  1  0
  9 42  1  0
  9 43  1  0
 10 44  1  0
 13 45  1  0
 13 46  1  0
 15 47  1  0
 16 48  1  0
 20 49  1  0
 21 50  1  0
 22 51  1  0
 22 52  1  0
 26 53  1  0
 26 54  1  0
 27 55  1  0
 29 56  1  0
 30 57  1  0
 31 58  1  0
 32 59  1  0
M  END
$$$$
