
     RDKit          3D

 53 57  0  0  0  0  0  0  0  0999 V2000
    4.6222    1.0606    1.5234 C   0  0  0  0  0  0  0  0  0  0  0  0
    3.6572    1.1400    2.6714 C   0  0  0  0  0  0  0  0  0  0  0  0
    3.7910    2.2059    3.5801 C   0  0  0  0  0  0  0  0  0  0  0  0
    2.9273    2.3428    4.6700 C   0  0  0  0  0  0  0  0  0  0  0  0
    1.9136    1.4142    4.8785 C   0  0  0  0  0  0  0  0  0  0  0  0
    1.7578    0.3520    3.9910 C   0  0  0  0  0  0  0  0  0  0  0  0
    2.6185    0.2142    2.8858 C   0  0  0  0  0  0  0  0  0  0  0  0
    2.3099   -1.1833    1.8171 S   0  0  0  0  0  6  0  0  0  0  0  0
    3.0457   -1.0757    0.5766 O   0  0  0  0  0  0  0  0  0  0  0  0
    2.4499   -2.3662    2.6444 O   0  0  0  0  0  0  0  0  0  0  0  0
    0.6633   -1.0748    1.4615 N   0  0  0  0  0  0  0  0  0  0  0  0
    0.3499   -0.1376    0.4374 C   0  0  0  0  0  0  0  0  0  0  0  0
    0.6606    1.1412    0.7140 N   0  0  0  0  0  0  0  0  0  0  0  0
    0.4626    2.0149   -0.2842 C   0  0  0  0  0  0  0  0  0  0  0  0
    0.7817    3.3523   -0.0860 C   0  0  0  0  0  0  0  0  0  0  0  0
    0.5992    4.2978   -1.0958 C   0  0  0  0  0  0  0  0  0  0  0  0
    0.0884    3.8983   -2.3247 C   0  0  0  0  0  0  0  0  0  0  0  0
   -0.2331    2.5560   -2.5353 C   0  0  0  0  0  0  0  0  0  0  0  0
   -0.0551    1.6042   -1.5390 C   0  0  0  0  0  0  0  0  0  0  0  0
   -0.3820    0.3189   -1.7847 N   0  0  0  0  0  0  0  0  0  0  0  0
   -0.2085   -0.5722   -0.7863 C   0  0  0  0  0  0  0  0  0  0  0  0
   -0.5680   -1.9266   -0.9610 N   0  0  0  0  0  0  0  0  0  0  0  0
   -0.4693   -2.4206   -2.3427 C   0  0  0  0  0  0  0  0  0  0  0  0
   -1.6486   -2.0158   -3.2321 C   0  0  0  0  0  0  0  0  0  0  0  0
   -2.9801   -2.1649   -2.5442 C   0  0  0  0  0  0  0  0  0  0  0  0
   -4.1577   -2.1560   -3.3070 C   0  0  0  0  0  0  0  0  0  0  0  0
   -5.4022   -2.2684   -2.6889 C   0  0  0  0  0  0  0  0  0  0  0  0
   -5.4815   -2.3818   -1.3040 C   0  0  0  0  0  0  0  0  0  0  0  0
   -4.3165   -2.3764   -0.5366 C   0  0  0  0  0  0  0  0  0  0  0  0
   -3.0551   -2.2561   -1.1444 C   0  0  0  0  0  0  0  0  0  0  0  0
   -1.8183   -2.2918   -0.2718 C   0  0  0  0  0  0  0  0  0  0  0  0
    4.1015    1.2327    0.5753 H   0  0  0  0  0  0  0  0  0  0  0  0
    5.4053    1.8252    1.6006 H   0  0  0  0  0  0  0  0  0  0  0  0
    5.1310    0.0912    1.5144 H   0  0  0  0  0  0  0  0  0  0  0  0
    4.5798    2.9450    3.4449 H   0  0  0  0  0  0  0  0  0  0  0  0
    3.0525    3.1742    5.3595 H   0  0  0  0  0  0  0  0  0  0  0  0
    1.2445    1.5155    5.7305 H   0  0  0  0  0  0  0  0  0  0  0  0
    0.9591   -0.3698    4.1591 H   0  0  0  0  0  0  0  0  0  0  0  0
    0.3344   -2.0131    1.2396 H   0  0  0  0  0  0  0  0  0  0  0  0
    1.1868    3.6603    0.8765 H   0  0  0  0  0  0  0  0  0  0  0  0
    0.8582    5.3394   -0.9204 H   0  0  0  0  0  0  0  0  0  0  0  0
   -0.0593    4.6246   -3.1202 H   0  0  0  0  0  0  0  0  0  0  0  0
   -0.6340    2.2434   -3.4976 H   0  0  0  0  0  0  0  0  0  0  0  0
   -0.4308   -3.5175   -2.2925 H   0  0  0  0  0  0  0  0  0  0  0  0
    0.4788   -2.1150   -2.8053 H   0  0  0  0  0  0  0  0  0  0  0  0
   -1.6288   -2.6410   -4.1336 H   0  0  0  0  0  0  0  0  0  0  0  0
   -1.5478   -0.9780   -3.5662 H   0  0  0  0  0  0  0  0  0  0  0  0
   -4.1075   -2.0611   -4.3894 H   0  0  0  0  0  0  0  0  0  0  0  0
   -6.3091   -2.2663   -3.2881 H   0  0  0  0  0  0  0  0  0  0  0  0
   -6.4505   -2.4765   -0.8188 H   0  0  0  0  0  0  0  0  0  0  0  0
   -4.3969   -2.4691    0.5451 H   0  0  0  0  0  0  0  0  0  0  0  0
   -1.9889   -1.6668    0.6149 H   0  0  0  0  0  0  0  0  0  0  0  0
   -1.7014   -3.3224    0.0893 H   0  0  0  0  0  0  0  0  0  0  0  0
  1  2  1  0
  2  3  2  0
  3  4  1  0
  4  5  2  0
  5  6  1  0
  6  7  2  0
  7  8  1  0
  8  9  2  0
  8 10  2  0
  8 11  1  0
 11 12  1  0
 12 13  2  0
 13 14  1  0
 14 15  2  0
 15 16  1  0
 16 17  2  0
 17 18  1  0
 18 19  2  0
 19 20  1  0
 20 21  2  0
 21 22  1  0
 22 23  1  0
 23 24  1  0
 24 25  1  0
 25 26  2  0
 26 27  1  0
 27 28  2  0
 28 29  1  0
 29 30  2  0
 30 31  1  0
  7  2  1  0
 21 12  1  0
 31 22  1  0
 19 14  1  0
 30 25  1  0
  1 32  1  0
  1 33  1  0
  1 34  1  0
  3 35  1  0
  4 36  1  0
  5 37  1  0
  6 38  1  0
 11 39  1  0
 15 40  1  0
 16 41  1  0
 17 42  1  0
 18 43  1  0
 23 44  1  0
 23 45  1  0
 24 46  1  0
 24 47  1  0
 26 48  1  0
 27 49  1  0
 28 50  1  0
 29 51  1  0
 31 52  1  0
 31 53  1  0
M  END
$$$$
