
     RDKit          3D

 43 45  0  0  0  0  0  0  0  0999 V2000
    3.9431    0.4293    1.8742 C   0  0  0  0  0  0  0  0  0  0  0  0
    4.0684   -0.0752    0.4388 C   0  0  0  0  0  0  0  0  0  0  0  0
    5.5231   -0.4217    0.1243 C   0  0  0  0  0  0  0  0  0  0  0  0
    3.0558   -1.5874    0.1939 S   0  0  0  0  0  0  0  0  0  0  0  0
    1.4021   -0.9127    0.0979 C   0  0  0  0  0  0  0  0  0  0  0  0
    0.3357   -1.7828    0.1691 C   0  0  0  0  0  0  0  0  0  0  0  0
   -0.9329   -1.2474    0.0759 C   0  0  0  0  0  0  0  0  0  0  0  0
   -2.0613   -2.0570    0.1596 N   0  0  0  0  0  0  0  0  0  0  0  0
   -3.3616   -1.3663    0.2006 C   0  0  0  0  0  0  0  0  0  0  0  0
   -4.4827   -2.4032    0.3706 C   0  0  0  0  0  0  0  0  0  0  0  0
   -4.5520   -3.3676   -0.6923 O   0  0  0  0  0  0  0  0  0  0  0  0
   -3.3182   -3.5138   -1.4079 C   0  0  0  0  0  0  0  0  0  0  0  0
   -2.0679   -3.3637   -0.5238 C   0  0  0  0  0  0  0  0  0  0  0  0
   -1.0987    0.0796   -0.0491 N   0  0  0  0  0  0  0  0  0  0  0  0
   -0.0055    0.8622   -0.1186 C   0  0  0  0  0  0  0  0  0  0  0  0
   -0.2081    2.3185   -0.2691 C   0  0  0  0  0  0  0  0  0  0  0  0
    0.8804    3.2102   -0.3421 C   0  0  0  0  0  0  0  0  0  0  0  0
    0.6905    4.5889   -0.4839 C   0  0  0  0  0  0  0  0  0  0  0  0
   -0.5972    5.1107   -0.5565 C   0  0  0  0  0  0  0  0  0  0  0  0
   -1.6931    4.2563   -0.4876 C   0  0  0  0  0  0  0  0  0  0  0  0
   -1.4987    2.8783   -0.3457 C   0  0  0  0  0  0  0  0  0  0  0  0
    1.2548    0.4082   -0.0594 N   0  0  0  0  0  0  0  0  0  0  0  0
    4.5634    1.3215    2.0169 H   0  0  0  0  0  0  0  0  0  0  0  0
    4.2770   -0.3215    2.5994 H   0  0  0  0  0  0  0  0  0  0  0  0
    2.9146    0.7096    2.1228 H   0  0  0  0  0  0  0  0  0  0  0  0
    3.7506    0.7027   -0.2633 H   0  0  0  0  0  0  0  0  0  0  0  0
    5.6367   -0.7635   -0.9106 H   0  0  0  0  0  0  0  0  0  0  0  0
    6.1592    0.4624    0.2451 H   0  0  0  0  0  0  0  0  0  0  0  0
    5.9130   -1.2001    0.7901 H   0  0  0  0  0  0  0  0  0  0  0  0
    0.4935   -2.8424    0.3187 H   0  0  0  0  0  0  0  0  0  0  0  0
   -3.3972   -0.6666    1.0440 H   0  0  0  0  0  0  0  0  0  0  0  0
   -3.5217   -0.8071   -0.7301 H   0  0  0  0  0  0  0  0  0  0  0  0
   -5.4552   -1.9036    0.4240 H   0  0  0  0  0  0  0  0  0  0  0  0
   -4.3473   -2.9583    1.3064 H   0  0  0  0  0  0  0  0  0  0  0  0
   -3.3075   -2.7717   -2.2151 H   0  0  0  0  0  0  0  0  0  0  0  0
   -3.3272   -4.5026   -1.8777 H   0  0  0  0  0  0  0  0  0  0  0  0
   -2.0699   -4.1439    0.2461 H   0  0  0  0  0  0  0  0  0  0  0  0
   -1.1858   -3.5121   -1.1567 H   0  0  0  0  0  0  0  0  0  0  0  0
    1.8993    2.8301   -0.2877 H   0  0  0  0  0  0  0  0  0  0  0  0
    1.5507    5.2512   -0.5368 H   0  0  0  0  0  0  0  0  0  0  0  0
   -0.7465    6.1815   -0.6667 H   0  0  0  0  0  0  0  0  0  0  0  0
   -2.7015    4.6578   -0.5437 H   0  0  0  0  0  0  0  0  0  0  0  0
   -2.3742    2.2330   -0.2942 H   0  0  0  0  0  0  0  0  0  0  0  0
  1  2  1  0
  2  3  1  0
  2  4  1  0
  4  5  1  0
  5  6  2  0
  6  7  1  0
  7  8  1  0
  8  9  1  0
  9 10  1  0
 10 11  1  0
 11 12  1  0
 12 13  1  0
  7 14  2  0
 14 15  1  0
 15 16  1  0
 16 17  2  0
 17 18  1  0
 18 19  2  0
 19 20  1  0
 20 21  2  0
 15 22  2  0
 22  5  1  0
 13  8  1  0
 21 16  1  0
  1 23  1  0
  1 24  1  0
  1 25  1  0
  2 26  1  0
  3 27  1  0
  3 28  1  0
  3 29  1  0
  6 30  1  0
  9 31  1  0
  9 32  1  0
 10 33  1  0
 10 34  1  0
 12 35  1  0
 12 36  1  0
 13 37  1  0
 13 38  1  0
 17 39  1  0
 18 40  1  0
 19 41  1  0
 20 42  1  0
 21 43  1  0
M  END
$$$$
