
     RDKit          3D

 53 56  0  0  0  0  0  0  0  0999 V2000
   -6.8816    3.7253    1.4244 C   0  0  0  0  0  0  0  0  0  0  0  0
   -5.7110    2.8067    1.2419 C   0  0  0  0  0  0  0  0  0  0  0  0
   -5.6939    1.5512    1.8583 C   0  0  0  0  0  0  0  0  0  0  0  0
   -4.6165    0.6785    1.6684 C   0  0  0  0  0  0  0  0  0  0  0  0
   -3.5533    1.0345    0.8390 C   0  0  0  0  0  0  0  0  0  0  0  0
   -2.4054    0.2362    0.6463 N   0  0  0  0  0  0  0  0  0  0  0  0
   -2.2044   -1.1256    0.8145 C   0  0  0  0  0  0  0  0  0  0  0  0
   -3.4167   -2.2730    0.5780 S   0  0  0  0  0  0  0  0  0  0  0  0
   -0.8615   -1.4406    1.1490 N   0  0  0  0  0  0  0  0  0  0  0  0
   -0.3694   -2.8335    1.1686 C   0  0  0  0  0  0  0  0  0  0  0  0
    0.5312   -3.1394    0.0021 C   0  0  0  0  0  0  0  0  0  0  0  0
    1.8058   -3.6772    0.0409 C   0  0  0  0  0  0  0  0  0  0  0  0
    2.3727   -3.8376   -1.2558 C   0  0  0  0  0  0  0  0  0  0  0  0
    1.5050   -3.4426   -2.2481 C   0  0  0  0  0  0  0  0  0  0  0  0
    0.0169   -2.8903   -1.6164 S   0  0  0  0  0  0  0  0  0  0  0  0
    0.0447   -0.4239    1.7265 C   0  0  0  0  0  0  0  0  0  0  0  0
    1.2114   -0.1139    0.8362 C   0  0  0  0  0  0  0  0  0  0  0  0
    2.4703   -0.4968    1.1141 C   0  0  0  0  0  0  0  0  0  0  0  0
    3.5691   -0.2164    0.1905 C   0  0  0  0  0  0  0  0  0  0  0  0
    4.8671   -0.6510    0.4677 C   0  0  0  0  0  0  0  0  0  0  0  0
    5.8947   -0.3960   -0.4378 C   0  0  0  0  0  0  0  0  0  0  0  0
    5.6288    0.2891   -1.6233 C   0  0  0  0  0  0  0  0  0  0  0  0
    4.3316    0.7341   -1.9223 C   0  0  0  0  0  0  0  0  0  0  0  0
    4.0830    1.4646   -3.2105 C   0  0  0  0  0  0  0  0  0  0  0  0
    3.3051    0.4766   -0.9997 C   0  0  0  0  0  0  0  0  0  0  0  0
    1.9941    0.9159   -1.2360 N   0  0  0  0  0  0  0  0  0  0  0  0
    0.9480    0.7052   -0.3813 C   0  0  0  0  0  0  0  0  0  0  0  0
   -0.1593    1.1899   -0.6051 O   0  0  0  0  0  0  0  0  0  0  0  0
   -3.5681    2.2935    0.2274 C   0  0  0  0  0  0  0  0  0  0  0  0
   -4.6431    3.1676    0.4156 C   0  0  0  0  0  0  0  0  0  0  0  0
   -6.5809    4.7724    1.3100 H   0  0  0  0  0  0  0  0  0  0  0  0
   -7.6554    3.4969    0.6842 H   0  0  0  0  0  0  0  0  0  0  0  0
   -7.3075    3.6177    2.4280 H   0  0  0  0  0  0  0  0  0  0  0  0
   -6.5113    1.2442    2.5061 H   0  0  0  0  0  0  0  0  0  0  0  0
   -4.6264   -0.2658    2.2032 H   0  0  0  0  0  0  0  0  0  0  0  0
   -1.6552    0.6875    0.1182 H   0  0  0  0  0  0  0  0  0  0  0  0
   -1.1803   -3.5650    1.1791 H   0  0  0  0  0  0  0  0  0  0  0  0
    0.1710   -2.9827    2.1115 H   0  0  0  0  0  0  0  0  0  0  0  0
    2.3183   -3.9334    0.9607 H   0  0  0  0  0  0  0  0  0  0  0  0
    3.3649   -4.2258   -1.4520 H   0  0  0  0  0  0  0  0  0  0  0  0
    1.6705   -3.4596   -3.3168 H   0  0  0  0  0  0  0  0  0  0  0  0
   -0.4861    0.4990    1.9774 H   0  0  0  0  0  0  0  0  0  0  0  0
    0.3848   -0.8148    2.6936 H   0  0  0  0  0  0  0  0  0  0  0  0
    2.6964   -1.0688    2.0073 H   0  0  0  0  0  0  0  0  0  0  0  0
    5.0897   -1.1912    1.3827 H   0  0  0  0  0  0  0  0  0  0  0  0
    6.9055   -0.7339   -0.2228 H   0  0  0  0  0  0  0  0  0  0  0  0
    6.4467    0.4740   -2.3163 H   0  0  0  0  0  0  0  0  0  0  0  0
    3.7305    2.4810   -3.0093 H   0  0  0  0  0  0  0  0  0  0  0  0
    4.9954    1.5431   -3.8117 H   0  0  0  0  0  0  0  0  0  0  0  0
    3.3395    0.9310   -3.8115 H   0  0  0  0  0  0  0  0  0  0  0  0
    1.7747    1.4472   -2.0652 H   0  0  0  0  0  0  0  0  0  0  0  0
   -2.7450    2.6042   -0.4120 H   0  0  0  0  0  0  0  0  0  0  0  0
   -4.6352    4.1321   -0.0867 H   0  0  0  0  0  0  0  0  0  0  0  0
  1  2  1  0
  2  3  2  0
  3  4  1  0
  4  5  2  0
  5  6  1  0
  6  7  1  0
  7  8  2  0
  7  9  1  0
  9 10  1  0
 10 11  1  0
 11 12  2  0
 12 13  1  0
 13 14  2  0
 14 15  1  0
  9 16  1  0
 16 17  1  0
 17 18  2  0
 18 19  1  0
 19 20  2  0
 20 21  1  0
 21 22  2  0
 22 23  1  0
 23 24  1  0
 23 25  2  0
 25 26  1  0
 26 27  1  0
 27 28  2  0
  5 29  1  0
 29 30  2  0
 30  2  1  0
 15 11  1  0
 27 17  1  0
 25 19  1  0
  1 31  1  0
  1 32  1  0
  1 33  1  0
  3 34  1  0
  4 35  1  0
  6 36  1  0
 10 37  1  0
 10 38  1  0
 12 39  1  0
 13 40  1  0
 14 41  1  0
 16 42  1  0
 16 43  1  0
 18 44  1  0
 20 45  1  0
 21 46  1  0
 22 47  1  0
 24 48  1  0
 24 49  1  0
 24 50  1  0
 26 51  1  0
 29 52  1  0
 30 53  1  0
M  END
$$$$
