
     RDKit          3D

 65 69  0  0  0  0  0  0  0  0999 V2000
   -6.7871    4.7338    2.9191 C   0  0  0  0  0  0  0  0  0  0  0  0
   -5.3836    4.7764    2.6932 O   0  0  0  0  0  0  0  0  0  0  0  0
   -4.8128    3.6670    2.1290 C   0  0  0  0  0  0  0  0  0  0  0  0
   -3.4366    3.7529    1.9536 C   0  0  0  0  0  0  0  0  0  0  0  0
   -2.7164    2.6952    1.3890 C   0  0  0  0  0  0  0  0  0  0  0  0
   -3.3788    1.5111    0.9799 C   0  0  0  0  0  0  0  0  0  0  0  0
   -2.8662    0.2991    0.3808 C   0  0  0  0  0  0  0  0  0  0  0  0
   -1.4738    0.0390    0.0350 C   0  0  0  0  0  0  0  0  0  0  0  0
   -0.8869    0.7010   -1.0486 C   0  0  0  0  0  0  0  0  0  0  0  0
    0.4525    0.4659   -1.3801 C   0  0  0  0  0  0  0  0  0  0  0  0
    1.2142   -0.4289   -0.6274 C   0  0  0  0  0  0  0  0  0  0  0  0
    2.5252   -0.7500   -0.8429 O   0  0  0  0  0  0  0  0  0  0  0  0
    3.2152   -0.0294   -1.8649 C   0  0  0  0  0  0  0  0  0  0  0  0
    4.6877   -0.4853   -1.9194 C   0  0  0  0  0  0  0  0  0  0  0  0
    5.4774   -0.2525   -0.6931 N   0  0  0  0  0  0  0  0  0  0  0  0
    6.7925   -0.9089   -0.7572 C   0  0  0  0  0  0  0  0  0  0  0  0
    7.7897   -0.2081   -1.6845 C   0  0  0  0  0  0  0  0  0  0  0  0
    7.9309    1.2698   -1.3337 C   0  0  0  0  0  0  0  0  0  0  0  0
    6.5658    1.9443   -1.2392 C   0  0  0  0  0  0  0  0  0  0  0  0
    5.6250    1.1602   -0.3215 C   0  0  0  0  0  0  0  0  0  0  0  0
    0.6244   -1.0883    0.4543 C   0  0  0  0  0  0  0  0  0  0  0  0
   -0.7114   -0.8559    0.7894 C   0  0  0  0  0  0  0  0  0  0  0  0
   -3.8613   -0.6337    0.1420 C   0  0  0  0  0  0  0  0  0  0  0  0
   -3.7762   -1.9697   -0.4623 C   0  0  0  0  0  0  0  0  0  0  0  0
   -3.8043   -2.0771   -1.8626 C   0  0  0  0  0  0  0  0  0  0  0  0
   -3.7155   -3.3235   -2.4794 C   0  0  0  0  0  0  0  0  0  0  0  0
   -3.5955   -4.4716   -1.7023 C   0  0  0  0  0  0  0  0  0  0  0  0
   -3.5615   -4.3788   -0.3076 C   0  0  0  0  0  0  0  0  0  0  0  0
   -3.6490   -3.1330    0.3250 C   0  0  0  0  0  0  0  0  0  0  0  0
   -3.6106   -2.9491    1.6847 O   0  0  0  0  0  0  0  0  0  0  0  0
   -3.4876   -4.1044    2.5023 C   0  0  0  0  0  0  0  0  0  0  0  0
   -5.3970   -0.0575    0.6221 S   0  0  0  0  0  0  0  0  0  0  0  0
   -4.7602    1.4444    1.1672 C   0  0  0  0  0  0  0  0  0  0  0  0
   -5.4914    2.5108    1.7377 C   0  0  0  0  0  0  0  0  0  0  0  0
   -7.0803    5.6823    3.3794 H   0  0  0  0  0  0  0  0  0  0  0  0
   -7.0512    3.9305    3.6150 H   0  0  0  0  0  0  0  0  0  0  0  0
   -7.3356    4.6380    1.9762 H   0  0  0  0  0  0  0  0  0  0  0  0
   -2.9089    4.6523    2.2624 H   0  0  0  0  0  0  0  0  0  0  0  0
   -1.6392    2.7852    1.2705 H   0  0  0  0  0  0  0  0  0  0  0  0
   -1.4695    1.4004   -1.6437 H   0  0  0  0  0  0  0  0  0  0  0  0
    0.8659    0.9945   -2.2318 H   0  0  0  0  0  0  0  0  0  0  0  0
    3.1526    1.0505   -1.6929 H   0  0  0  0  0  0  0  0  0  0  0  0
    2.7587   -0.2585   -2.8361 H   0  0  0  0  0  0  0  0  0  0  0  0
    5.1613   -0.0166   -2.7892 H   0  0  0  0  0  0  0  0  0  0  0  0
    4.6718   -1.5671   -2.1065 H   0  0  0  0  0  0  0  0  0  0  0  0
    7.2121   -0.9395    0.2572 H   0  0  0  0  0  0  0  0  0  0  0  0
    6.6826   -1.9589   -1.0560 H   0  0  0  0  0  0  0  0  0  0  0  0
    8.7678   -0.6969   -1.6076 H   0  0  0  0  0  0  0  0  0  0  0  0
    7.4702   -0.3089   -2.7284 H   0  0  0  0  0  0  0  0  0  0  0  0
    8.5505    1.7767   -2.0817 H   0  0  0  0  0  0  0  0  0  0  0  0
    8.4491    1.3649   -0.3713 H   0  0  0  0  0  0  0  0  0  0  0  0
    6.1281    2.0369   -2.2401 H   0  0  0  0  0  0  0  0  0  0  0  0
    6.6887    2.9633   -0.8544 H   0  0  0  0  0  0  0  0  0  0  0  0
    6.0184    1.2038    0.7032 H   0  0  0  0  0  0  0  0  0  0  0  0
    4.6537    1.6620   -0.2668 H   0  0  0  0  0  0  0  0  0  0  0  0
    1.2134   -1.7869    1.0435 H   0  0  0  0  0  0  0  0  0  0  0  0
   -1.1499   -1.3760    1.6378 H   0  0  0  0  0  0  0  0  0  0  0  0
   -3.8941   -1.1833   -2.4759 H   0  0  0  0  0  0  0  0  0  0  0  0
   -3.7376   -3.3970   -3.5635 H   0  0  0  0  0  0  0  0  0  0  0  0
   -3.5243   -5.4450   -2.1816 H   0  0  0  0  0  0  0  0  0  0  0  0
   -3.4618   -5.3004    0.2556 H   0  0  0  0  0  0  0  0  0  0  0  0
   -2.5438   -4.6253    2.3102 H   0  0  0  0  0  0  0  0  0  0  0  0
   -4.3447   -4.7736    2.3732 H   0  0  0  0  0  0  0  0  0  0  0  0
   -3.4781   -3.7754    3.5459 H   0  0  0  0  0  0  0  0  0  0  0  0
   -6.5629    2.4028    1.8583 H   0  0  0  0  0  0  0  0  0  0  0  0
  1  2  1  0
  2  3  1  0
  3  4  2  0
  4  5  1  0
  5  6  2  0
  6  7  1  0
  7  8  1  0
  8  9  2  0
  9 10  1  0
 10 11  2  0
 11 12  1  0
 12 13  1  0
 13 14  1  0
 14 15  1  0
 15 16  1  0
 16 17  1  0
 17 18  1  0
 18 19  1  0
 19 20  1  0
 11 21  1  0
 21 22  2  0
  7 23  2  0
 23 24  1  0
 24 25  2  0
 25 26  1  0
 26 27  2  0
 27 28  1  0
 28 29  2  0
 29 30  1  0
 30 31  1  0
 23 32  1  0
 32 33  1  0
 33 34  2  0
 34  3  1  0
 33  6  1  0
 22  8  1  0
 29 24  1  0
 20 15  1  0
  1 35  1  0
  1 36  1  0
  1 37  1  0
  4 38  1  0
  5 39  1  0
  9 40  1  0
 10 41  1  0
 13 42  1  0
 13 43  1  0
 14 44  1  0
 14 45  1  0
 16 46  1  0
 16 47  1  0
 17 48  1  0
 17 49  1  0
 18 50  1  0
 18 51  1  0
 19 52  1  0
 19 53  1  0
 20 54  1  0
 20 55  1  0
 21 56  1  0
 22 57  1  0
 25 58  1  0
 26 59  1  0
 27 60  1  0
 28 61  1  0
 31 62  1  0
 31 63  1  0
 31 64  1  0
 34 65  1  0
M  END
$$$$
