
     RDKit          3D

 51 53  0  0  0  0  0  0  0  0999 V2000
    2.5719   -1.0860    1.9785 O   0  0  0  0  0  0  0  0  0  0  0  0
    2.2630   -1.2252    0.7998 C   0  0  0  0  0  0  0  0  0  0  0  0
    3.1796   -1.5022   -0.1886 N   0  0  0  0  0  0  0  0  0  0  0  0
    4.6109   -1.5457    0.0651 C   0  0  0  0  0  0  0  0  0  0  0  0
    5.3225   -0.2528   -0.3427 C   0  0  0  0  0  0  0  0  0  0  0  0
    4.9610    0.9857    0.4604 C   0  0  0  0  0  0  0  0  0  0  0  0
    5.3401    2.0822   -0.5043 C   0  0  0  0  0  0  0  0  0  0  0  0
    4.9108    1.4945   -1.8325 C   0  0  0  0  0  0  0  0  0  0  0  0
    5.0308    0.0667   -1.7221 O   0  0  0  0  0  0  0  0  0  0  0  0
    0.8325   -1.1129    0.2953 C   0  0  0  0  0  0  0  0  0  0  0  0
    0.3262   -2.4713   -0.2067 C   0  0  0  0  0  0  0  0  0  0  0  0
   -1.1465   -2.3970   -0.6026 C   0  0  0  0  0  0  0  0  0  0  0  0
   -2.0009   -1.8261    0.5256 C   0  0  0  0  0  0  0  0  0  0  0  0
   -1.4809   -0.4783    0.8920 N   0  0  0  0  0  0  0  0  0  0  0  0
   -2.5038    0.4236    1.9340 S   0  0  0  0  0  6  0  0  0  0  0  0
   -1.8892    1.7101    2.1784 O   0  0  0  0  0  0  0  0  0  0  0  0
   -2.8963   -0.4505    3.0189 O   0  0  0  0  0  0  0  0  0  0  0  0
   -3.9245    0.7246    0.9089 C   0  0  0  0  0  0  0  0  0  0  0  0
   -5.1768    0.2330    1.2817 C   0  0  0  0  0  0  0  0  0  0  0  0
   -6.2789    0.4823    0.4654 C   0  0  0  0  0  0  0  0  0  0  0  0
   -6.1267    1.2176   -0.7137 C   0  0  0  0  0  0  0  0  0  0  0  0
   -4.8684    1.7131   -1.0964 C   0  0  0  0  0  0  0  0  0  0  0  0
   -4.7142    2.5279   -2.3578 C   0  0  0  0  0  0  0  0  0  0  0  0
   -3.4867    2.3901   -2.9325 F   0  0  0  0  0  0  0  0  0  0  0  0
   -4.8806    3.8603   -2.1395 F   0  0  0  0  0  0  0  0  0  0  0  0
   -5.6138    2.1896   -3.3235 F   0  0  0  0  0  0  0  0  0  0  0  0
   -3.7641    1.4684   -0.2662 C   0  0  0  0  0  0  0  0  0  0  0  0
   -0.0756   -0.5748    1.4056 C   0  0  0  0  0  0  0  0  0  0  0  0
    2.9085   -1.3978   -1.1593 H   0  0  0  0  0  0  0  0  0  0  0  0
    4.9887   -2.3719   -0.5470 H   0  0  0  0  0  0  0  0  0  0  0  0
    4.8039   -1.7779    1.1174 H   0  0  0  0  0  0  0  0  0  0  0  0
    6.4058   -0.4183   -0.2817 H   0  0  0  0  0  0  0  0  0  0  0  0
    5.4930    1.0433    1.4139 H   0  0  0  0  0  0  0  0  0  0  0  0
    3.8866    1.0443    0.6614 H   0  0  0  0  0  0  0  0  0  0  0  0
    4.8636    3.0423   -0.2892 H   0  0  0  0  0  0  0  0  0  0  0  0
    6.4267    2.2290   -0.4932 H   0  0  0  0  0  0  0  0  0  0  0  0
    3.8611    1.7224   -2.0453 H   0  0  0  0  0  0  0  0  0  0  0  0
    5.5218    1.8514   -2.6663 H   0  0  0  0  0  0  0  0  0  0  0  0
    0.8259   -0.3968   -0.5381 H   0  0  0  0  0  0  0  0  0  0  0  0
    0.4575   -3.2303    0.5757 H   0  0  0  0  0  0  0  0  0  0  0  0
    0.9150   -2.8094   -1.0675 H   0  0  0  0  0  0  0  0  0  0  0  0
   -1.5070   -3.3962   -0.8712 H   0  0  0  0  0  0  0  0  0  0  0  0
   -1.2482   -1.7660   -1.4946 H   0  0  0  0  0  0  0  0  0  0  0  0
   -3.0336   -1.7572    0.1719 H   0  0  0  0  0  0  0  0  0  0  0  0
   -1.9779   -2.4927    1.3954 H   0  0  0  0  0  0  0  0  0  0  0  0
   -5.3028   -0.3345    2.2014 H   0  0  0  0  0  0  0  0  0  0  0  0
   -7.2605    0.1087    0.7497 H   0  0  0  0  0  0  0  0  0  0  0  0
   -7.0006    1.4076   -1.3368 H   0  0  0  0  0  0  0  0  0  0  0  0
   -2.7800    1.8552   -0.5313 H   0  0  0  0  0  0  0  0  0  0  0  0
   -0.0498   -1.2208    2.2923 H   0  0  0  0  0  0  0  0  0  0  0  0
    0.2812    0.4186    1.7009 H   0  0  0  0  0  0  0  0  0  0  0  0
  1  2  2  0
  2  3  1  0
  3  4  1  0
  4  5  1  0
  5  6  1  0
  6  7  1  0
  7  8  1  0
  8  9  1  0
  2 10  1  0
 10 11  1  0
 11 12  1  0
 12 13  1  0
 13 14  1  0
 14 15  1  0
 15 16  2  0
 15 17  2  0
 15 18  1  0
 18 19  2  0
 19 20  1  0
 20 21  2  0
 21 22  1  0
 22 23  1  0
 23 24  1  0
 23 25  1  0
 23 26  1  0
 22 27  2  0
 14 28  1  0
  9  5  1  0
 28 10  1  0
 27 18  1  0
  3 29  1  0
  4 30  1  0
  4 31  1  0
  5 32  1  0
  6 33  1  0
  6 34  1  0
  7 35  1  0
  7 36  1  0
  8 37  1  0
  8 38  1  0
 10 39  1  0
 11 40  1  0
 11 41  1  0
 12 42  1  0
 12 43  1  0
 13 44  1  0
 13 45  1  0
 19 46  1  0
 20 47  1  0
 21 48  1  0
 27 49  1  0
 28 50  1  0
 28 51  1  0
M  END
$$$$
