
     RDKit          3D

 55 57  0  0  0  0  0  0  0  0999 V2000
    3.3991    0.0005   -0.0594 O   0  0  0  0  0  0  0  0  0  0  0  0
    2.3881    0.4784    0.4318 C   0  0  0  0  0  0  0  0  0  0  0  0
    2.3065    1.4295    1.4205 N   0  0  0  0  0  0  0  0  0  0  0  0
    3.3679    2.0752    2.0786 C   0  0  0  0  0  0  0  0  0  0  0  0
    4.7028    1.9785    1.6848 C   0  0  0  0  0  0  0  0  0  0  0  0
    5.7021    2.6502    2.3995 C   0  0  0  0  0  0  0  0  0  0  0  0
    5.3774    3.4140    3.5159 C   0  0  0  0  0  0  0  0  0  0  0  0
    4.0486    3.5188    3.9115 C   0  0  0  0  0  0  0  0  0  0  0  0
    3.0481    2.8600    3.1919 C   0  0  0  0  0  0  0  0  0  0  0  0
    1.0189    0.0062    0.0132 C   0  0  0  0  0  0  0  0  0  0  0  0
    0.9103   -1.1308   -0.6910 C   0  0  0  0  0  0  0  0  0  0  0  0
   -0.4189   -1.7333   -1.0568 C   0  0  0  0  0  0  0  0  0  0  0  0
   -0.5124   -3.2041   -0.6825 C   0  0  0  0  0  0  0  0  0  0  0  0
   -0.2792   -3.6378    0.6333 C   0  0  0  0  0  0  0  0  0  0  0  0
   -0.3833   -4.9887    0.9712 C   0  0  0  0  0  0  0  0  0  0  0  0
   -0.7247   -5.9401   -0.0009 C   0  0  0  0  0  0  0  0  0  0  0  0
   -0.8479   -7.4030    0.3466 C   0  0  0  0  0  0  0  0  0  0  0  0
    0.0201   -8.1823   -0.3564 F   0  0  0  0  0  0  0  0  0  0  0  0
   -0.6127   -7.6753    1.6598 F   0  0  0  0  0  0  0  0  0  0  0  0
   -2.0877   -7.8987    0.0821 F   0  0  0  0  0  0  0  0  0  0  0  0
   -0.9522   -5.5108   -1.3156 C   0  0  0  0  0  0  0  0  0  0  0  0
   -0.8474   -4.1590   -1.6522 C   0  0  0  0  0  0  0  0  0  0  0  0
   -1.5807   -0.9405   -0.4469 C   0  0  0  0  0  0  0  0  0  0  0  0
   -1.2278    0.5416   -0.4140 C   0  0  0  0  0  0  0  0  0  0  0  0
   -2.3688    1.2332    0.1025 O   0  0  0  0  0  0  0  0  0  0  0  0
   -2.2307    2.6531    0.1435 C   0  0  0  0  0  0  0  0  0  0  0  0
   -2.2763    3.3107   -1.2349 C   0  0  0  0  0  0  0  0  0  0  0  0
   -3.5372    2.9353   -2.0163 C   0  0  0  0  0  0  0  0  0  0  0  0
   -3.5766    3.5988   -3.3866 C   0  0  0  0  0  0  0  0  0  0  0  0
   -3.6266    5.0111   -3.2345 O   0  0  0  0  0  0  0  0  0  0  0  0
   -0.0753    0.7545    0.4110 O   0  0  0  0  0  0  0  0  0  0  0  0
    1.3689    1.6231    1.7553 H   0  0  0  0  0  0  0  0  0  0  0  0
    4.9972    1.3975    0.8156 H   0  0  0  0  0  0  0  0  0  0  0  0
    6.7365    2.5688    2.0818 H   0  0  0  0  0  0  0  0  0  0  0  0
    6.1577    3.9266    4.0728 H   0  0  0  0  0  0  0  0  0  0  0  0
    3.7905    4.1083    4.7853 H   0  0  0  0  0  0  0  0  0  0  0  0
    2.0188    2.9567    3.5262 H   0  0  0  0  0  0  0  0  0  0  0  0
    1.8026   -1.6725   -0.9926 H   0  0  0  0  0  0  0  0  0  0  0  0
   -0.4934   -1.6492   -2.1500 H   0  0  0  0  0  0  0  0  0  0  0  0
   -0.0162   -2.9210    1.4101 H   0  0  0  0  0  0  0  0  0  0  0  0
   -0.1974   -5.2924    1.9999 H   0  0  0  0  0  0  0  0  0  0  0  0
   -1.2164   -6.2352   -2.0860 H   0  0  0  0  0  0  0  0  0  0  0  0
   -1.0335   -3.8588   -2.6800 H   0  0  0  0  0  0  0  0  0  0  0  0
   -2.5045   -1.1097   -1.0144 H   0  0  0  0  0  0  0  0  0  0  0  0
   -1.7961   -1.2711    0.5768 H   0  0  0  0  0  0  0  0  0  0  0  0
   -1.0245    0.8981   -1.4315 H   0  0  0  0  0  0  0  0  0  0  0  0
   -1.3108    2.9306    0.6728 H   0  0  0  0  0  0  0  0  0  0  0  0
   -3.0661    3.0325    0.7475 H   0  0  0  0  0  0  0  0  0  0  0  0
   -2.2227    4.3976   -1.1046 H   0  0  0  0  0  0  0  0  0  0  0  0
   -1.3947    3.0188   -1.8177 H   0  0  0  0  0  0  0  0  0  0  0  0
   -3.5880    1.8483   -2.1469 H   0  0  0  0  0  0  0  0  0  0  0  0
   -4.4142    3.2450   -1.4395 H   0  0  0  0  0  0  0  0  0  0  0  0
   -2.6876    3.3371   -3.9709 H   0  0  0  0  0  0  0  0  0  0  0  0
   -4.4631    3.2791   -3.9359 H   0  0  0  0  0  0  0  0  0  0  0  0
   -3.5666    5.3967   -4.1239 H   0  0  0  0  0  0  0  0  0  0  0  0
  1  2  2  0
  2  3  1  0
  3  4  1  0
  4  5  2  0
  5  6  1  0
  6  7  2  0
  7  8  1  0
  8  9  2  0
  2 10  1  0
 10 11  2  0
 11 12  1  0
 12 13  1  0
 13 14  2  0
 14 15  1  0
 15 16  2  0
 16 17  1  0
 17 18  1  0
 17 19  1  0
 17 20  1  0
 16 21  1  0
 21 22  2  0
 12 23  1  0
 23 24  1  0
 24 25  1  0
 25 26  1  0
 26 27  1  0
 27 28  1  0
 28 29  1  0
 29 30  1  0
 24 31  1  0
  9  4  1  0
 31 10  1  0
 22 13  1  0
  3 32  1  0
  5 33  1  0
  6 34  1  0
  7 35  1  0
  8 36  1  0
  9 37  1  0
 11 38  1  0
 12 39  1  0
 14 40  1  0
 15 41  1  0
 21 42  1  0
 22 43  1  0
 23 44  1  0
 23 45  1  0
 24 46  1  0
 26 47  1  0
 26 48  1  0
 27 49  1  0
 27 50  1  0
 28 51  1  0
 28 52  1  0
 29 53  1  0
 29 54  1  0
 30 55  1  0
M  END
$$$$
