
     RDKit          3D

 41 42  0  0  0  0  0  0  0  0999 V2000
   -4.0767    0.6378   -1.1332 C   0  0  0  0  0  0  0  0  0  0  0  0
   -3.8685   -0.3354    0.0190 C   0  0  0  0  0  0  0  0  0  0  0  0
   -2.6130   -0.0518    0.7431 N   0  0  0  0  0  0  0  0  0  0  0  0
   -2.7997    0.5508    2.0785 C   0  0  0  0  0  0  0  0  0  0  0  0
   -2.9970    2.0556    1.9919 C   0  0  0  0  0  0  0  0  0  0  0  0
   -1.3369   -0.3457    0.2139 C   0  0  0  0  0  0  0  0  0  0  0  0
   -0.1996    0.2556    0.6263 C   0  0  0  0  0  0  0  0  0  0  0  0
    1.1251   -0.0012    0.0796 C   0  0  0  0  0  0  0  0  0  0  0  0
    2.2225    0.5402    0.6424 C   0  0  0  0  0  0  0  0  0  0  0  0
    3.5854    0.3379    0.1363 C   0  0  0  0  0  0  0  0  0  0  0  0
    4.6903    0.7784    0.7913 C   0  0  0  0  0  0  0  0  0  0  0  0
    5.9983    0.5896    0.2550 C   0  0  0  0  0  0  0  0  0  0  0  0
    7.0570    0.4305   -0.1934 N   0  0  0  0  0  0  0  0  0  0  0  0
    4.6146    1.4612    2.0415 C   0  0  0  0  0  0  0  0  0  0  0  0
    4.5412    2.0178    3.0574 N   0  0  0  0  0  0  0  0  0  0  0  0
    3.6596   -0.3978   -1.1966 C   0  0  0  0  0  0  0  0  0  0  0  0
    2.5995   -1.4922   -1.3096 C   0  0  0  0  0  0  0  0  0  0  0  0
    1.1962   -0.9010   -1.1336 C   0  0  0  0  0  0  0  0  0  0  0  0
    0.1527   -2.0135   -1.0368 C   0  0  0  0  0  0  0  0  0  0  0  0
   -1.2498   -1.4275   -0.8580 C   0  0  0  0  0  0  0  0  0  0  0  0
   -3.2738    0.5721   -1.8727 H   0  0  0  0  0  0  0  0  0  0  0  0
   -5.0208    0.4202   -1.6427 H   0  0  0  0  0  0  0  0  0  0  0  0
   -4.1152    1.6724   -0.7799 H   0  0  0  0  0  0  0  0  0  0  0  0
   -3.8814   -1.3653   -0.3519 H   0  0  0  0  0  0  0  0  0  0  0  0
   -4.7294   -0.2582    0.6943 H   0  0  0  0  0  0  0  0  0  0  0  0
   -3.6653    0.0979    2.5775 H   0  0  0  0  0  0  0  0  0  0  0  0
   -1.9467    0.3240    2.7290 H   0  0  0  0  0  0  0  0  0  0  0  0
   -2.1784    2.5406    1.4516 H   0  0  0  0  0  0  0  0  0  0  0  0
   -3.0465    2.4873    2.9966 H   0  0  0  0  0  0  0  0  0  0  0  0
   -3.9313    2.3026    1.4789 H   0  0  0  0  0  0  0  0  0  0  0  0
   -0.2483    1.0117    1.4040 H   0  0  0  0  0  0  0  0  0  0  0  0
    2.0926    1.1625    1.5273 H   0  0  0  0  0  0  0  0  0  0  0  0
    3.5213    0.3299   -2.0071 H   0  0  0  0  0  0  0  0  0  0  0  0
    4.6371   -0.8665   -1.3522 H   0  0  0  0  0  0  0  0  0  0  0  0
    2.6768   -1.9798   -2.2889 H   0  0  0  0  0  0  0  0  0  0  0  0
    2.7902   -2.2659   -0.5537 H   0  0  0  0  0  0  0  0  0  0  0  0
    0.9676   -0.2871   -2.0170 H   0  0  0  0  0  0  0  0  0  0  0  0
    0.3798   -2.6750   -0.1895 H   0  0  0  0  0  0  0  0  0  0  0  0
    0.1736   -2.6375   -1.9385 H   0  0  0  0  0  0  0  0  0  0  0  0
   -1.9132   -2.2624   -0.6049 H   0  0  0  0  0  0  0  0  0  0  0  0
   -1.5897   -1.0130   -1.8139 H   0  0  0  0  0  0  0  0  0  0  0  0
  1  2  1  0
  2  3  1  0
  3  4  1  0
  4  5  1  0
  3  6  1  0
  6  7  2  0
  7  8  1  0
  8  9  2  0
  9 10  1  0
 10 11  2  3
 11 12  1  0
 12 13  3  0
 11 14  1  0
 14 15  3  0
 10 16  1  0
 16 17  1  0
 17 18  1  0
 18 19  1  0
 19 20  1  0
 20  6  1  0
 18  8  1  0
  1 21  1  0
  1 22  1  0
  1 23  1  0
  2 24  1  0
  2 25  1  0
  4 26  1  0
  4 27  1  0
  5 28  1  0
  5 29  1  0
  5 30  1  0
  7 31  1  0
  9 32  1  0
 16 33  1  0
 16 34  1  0
 17 35  1  0
 17 36  1  0
 18 37  1  0
 19 38  1  0
 19 39  1  0
 20 40  1  0
 20 41  1  0
M  END
$$$$
