
     RDKit          3D

 48 50  0  0  0  0  0  0  0  0999 V2000
    3.0797    1.2146    1.0096 C   0  0  0  0  0  0  0  0  0  0  0  0
    1.7532    1.0400    0.9165 C   0  0  0  0  0  0  0  0  0  0  0  0
    0.7569    1.8454    1.6185 C   0  0  0  0  0  0  0  0  0  0  0  0
    1.0369    2.9321    2.5674 C   0  0  0  0  0  0  0  0  0  0  0  0
    1.8704    3.8078    2.3817 O   0  0  0  0  0  0  0  0  0  0  0  0
    0.2887    2.7810    3.6917 O   0  0  0  0  0  0  0  0  0  0  0  0
    0.5010    3.7965    4.6707 C   0  0  0  0  0  0  0  0  0  0  0  0
   -0.4684    1.4334    1.2481 C   0  0  0  0  0  0  0  0  0  0  0  0
   -1.6541    1.9438    1.6966 O   0  0  0  0  0  0  0  0  0  0  0  0
   -0.3546    0.3256    0.2879 C   0  0  0  0  0  0  0  0  0  0  0  0
   -1.3403   -0.3691   -0.3156 C   0  0  0  0  0  0  0  0  0  0  0  0
   -2.7848   -0.1582   -0.2299 C   0  0  0  0  0  0  0  0  0  0  0  0
   -3.3861    0.9259   -0.8821 C   0  0  0  0  0  0  0  0  0  0  0  0
   -4.7642    1.1303   -0.7832 C   0  0  0  0  0  0  0  0  0  0  0  0
   -5.5340    0.2443   -0.0362 C   0  0  0  0  0  0  0  0  0  0  0  0
   -6.8813    0.4061    0.0899 O   0  0  0  0  0  0  0  0  0  0  0  0
   -4.9501   -0.8399    0.6092 C   0  0  0  0  0  0  0  0  0  0  0  0
   -3.5731   -1.0446    0.5114 C   0  0  0  0  0  0  0  0  0  0  0  0
    1.0339    0.1151    0.1433 N   0  0  0  0  0  0  0  0  0  0  0  0
    1.6318   -0.8157   -0.7467 C   0  0  0  0  0  0  0  0  0  0  0  0
    2.4664   -1.8328   -0.2589 C   0  0  0  0  0  0  0  0  0  0  0  0
    3.0613   -2.7604   -1.1241 C   0  0  0  0  0  0  0  0  0  0  0  0
    3.9803   -3.8168   -0.5864 C   0  0  0  0  0  0  0  0  0  0  0  0
    2.8332   -2.6515   -2.5012 C   0  0  0  0  0  0  0  0  0  0  0  0
    1.9954   -1.6532   -3.0126 C   0  0  0  0  0  0  0  0  0  0  0  0
    1.7825   -1.5231   -4.4917 C   0  0  0  0  0  0  0  0  0  0  0  0
    1.4097   -0.7360   -2.1302 C   0  0  0  0  0  0  0  0  0  0  0  0
    3.7736    0.6056    0.4412 H   0  0  0  0  0  0  0  0  0  0  0  0
    3.5200    1.9849    1.6344 H   0  0  0  0  0  0  0  0  0  0  0  0
   -0.1656    3.5986    5.5146 H   0  0  0  0  0  0  0  0  0  0  0  0
    1.5338    3.7700    5.0318 H   0  0  0  0  0  0  0  0  0  0  0  0
    0.2578    4.7825    4.2622 H   0  0  0  0  0  0  0  0  0  0  0  0
   -2.3539    1.2865    1.5528 H   0  0  0  0  0  0  0  0  0  0  0  0
   -1.0806   -1.2031   -0.9646 H   0  0  0  0  0  0  0  0  0  0  0  0
   -2.7834    1.6206   -1.4642 H   0  0  0  0  0  0  0  0  0  0  0  0
   -5.2129    1.9784   -1.2910 H   0  0  0  0  0  0  0  0  0  0  0  0
   -7.1504    1.1920   -0.4137 H   0  0  0  0  0  0  0  0  0  0  0  0
   -5.5661   -1.5249    1.1854 H   0  0  0  0  0  0  0  0  0  0  0  0
   -3.1237   -1.8959    1.0182 H   0  0  0  0  0  0  0  0  0  0  0  0
    2.6440   -1.9038    0.8123 H   0  0  0  0  0  0  0  0  0  0  0  0
    3.9566   -4.7127   -1.2158 H   0  0  0  0  0  0  0  0  0  0  0  0
    3.6788   -4.1208    0.4215 H   0  0  0  0  0  0  0  0  0  0  0  0
    5.0059   -3.4369   -0.5499 H   0  0  0  0  0  0  0  0  0  0  0  0
    3.3136   -3.3516   -3.1827 H   0  0  0  0  0  0  0  0  0  0  0  0
    2.5443   -0.8665   -4.9231 H   0  0  0  0  0  0  0  0  0  0  0  0
    1.8385   -2.5007   -4.9820 H   0  0  0  0  0  0  0  0  0  0  0  0
    0.7926   -1.1080   -4.7086 H   0  0  0  0  0  0  0  0  0  0  0  0
    0.7870    0.0653   -2.5225 H   0  0  0  0  0  0  0  0  0  0  0  0
  1  2  2  0
  2  3  1  0
  3  4  1  0
  4  5  2  0
  4  6  1  0
  6  7  1  0
  3  8  2  0
  8  9  1  0
  8 10  1  0
 10 11  2  3
 11 12  1  0
 12 13  2  0
 13 14  1  0
 14 15  2  0
 15 16  1  0
 15 17  1  0
 17 18  2  0
 10 19  1  0
 19 20  1  0
 20 21  2  0
 21 22  1  0
 22 23  1  0
 22 24  2  0
 24 25  1  0
 25 26  1  0
 25 27  2  0
 19  2  1  0
 27 20  1  0
 18 12  1  0
  1 28  1  0
  1 29  1  0
  7 30  1  0
  7 31  1  0
  7 32  1  0
  9 33  1  0
 11 34  1  0
 13 35  1  0
 14 36  1  0
 16 37  1  0
 17 38  1  0
 18 39  1  0
 21 40  1  0
 23 41  1  0
 23 42  1  0
 23 43  1  0
 24 44  1  0
 26 45  1  0
 26 46  1  0
 26 47  1  0
 27 48  1  0
M  END
$$$$
