
     RDKit          3D

 64 68  0  0  0  0  0  0  0  0999 V2000
   -4.3678    0.8418   -1.7613 C   0  0  0  0  0  0  0  0  0  0  0  0
   -5.2948    0.7046   -0.5439 C   0  0  0  0  0  0  0  0  0  0  0  0
   -6.6229    0.0642   -0.9709 C   0  0  0  0  0  0  0  0  0  0  0  0
   -5.5721    2.1141    0.0011 C   0  0  0  0  0  0  0  0  0  0  0  0
   -4.7086   -0.1402    0.6082 C   0  0  0  0  0  0  0  0  0  0  0  0
   -5.1995   -0.1224    1.7457 O   0  0  0  0  0  0  0  0  0  0  0  0
   -3.5622   -1.0602    0.3533 C   0  0  0  0  0  0  0  0  0  0  0  0
   -3.8746   -2.1890   -0.4448 C   0  0  0  0  0  0  0  0  0  0  0  0
   -4.1691   -3.0859   -1.1203 N   0  0  0  0  0  0  0  0  0  0  0  0
   -2.3355   -0.7509    0.8254 C   0  0  0  0  0  0  0  0  0  0  0  0
   -2.0103    0.7993    1.5823 S   0  0  0  0  0  0  0  0  0  0  0  0
   -0.3214    0.6580    1.2472 C   0  0  0  0  0  0  0  0  0  0  0  0
    0.5163    1.7066    1.3073 C   0  0  0  0  0  0  0  0  0  0  0  0
    1.8862    1.7327    0.9117 C   0  0  0  0  0  0  0  0  0  0  0  0
    2.9251    2.0937    1.7323 C   0  0  0  0  0  0  0  0  0  0  0  0
    4.0794    1.9528    0.9941 N   0  0  0  0  0  0  0  0  0  0  0  0
    5.4206    2.1573    1.4271 C   0  0  0  0  0  0  0  0  0  0  0  0
    6.4706    1.9940    0.5105 C   0  0  0  0  0  0  0  0  0  0  0  0
    7.7972    2.1845    0.9115 C   0  0  0  0  0  0  0  0  0  0  0  0
    8.0838    2.5409    2.2287 C   0  0  0  0  0  0  0  0  0  0  0  0
    7.0465    2.7048    3.1453 C   0  0  0  0  0  0  0  0  0  0  0  0
    5.7165    2.5142    2.7503 C   0  0  0  0  0  0  0  0  0  0  0  0
    3.8099    1.5915   -0.2864 N   0  0  0  0  0  0  0  0  0  0  0  0
    2.4793    1.4372   -0.3480 C   0  0  0  0  0  0  0  0  0  0  0  0
    1.8310    1.0171   -1.5879 C   0  0  0  0  0  0  0  0  0  0  0  0
    2.3581   -0.0193   -2.3659 C   0  0  0  0  0  0  0  0  0  0  0  0
    1.6985   -0.4247   -3.5226 C   0  0  0  0  0  0  0  0  0  0  0  0
    0.5139    0.2118   -3.8594 C   0  0  0  0  0  0  0  0  0  0  0  0
   -0.0336    1.2141   -3.1352 N   0  0  0  0  0  0  0  0  0  0  0  0
    0.6540    1.6089   -2.0311 C   0  0  0  0  0  0  0  0  0  0  0  0
    0.0291   -0.7470    0.8939 C   0  0  0  0  0  0  0  0  0  0  0  0
    1.1808   -1.1602    0.8610 O   0  0  0  0  0  0  0  0  0  0  0  0
   -1.1536   -1.4870    0.6881 N   0  0  0  0  0  0  0  0  0  0  0  0
   -1.0480   -2.9079    0.5370 C   0  0  0  0  0  0  0  0  0  0  0  0
   -1.8894   -3.7689    1.2635 C   0  0  0  0  0  0  0  0  0  0  0  0
   -1.7659   -5.1572    1.1427 C   0  0  0  0  0  0  0  0  0  0  0  0
   -0.8051   -5.6886    0.2981 C   0  0  0  0  0  0  0  0  0  0  0  0
   -0.6837   -7.0173    0.1860 F   0  0  0  0  0  0  0  0  0  0  0  0
    0.0452   -4.8611   -0.4182 C   0  0  0  0  0  0  0  0  0  0  0  0
   -0.0669   -3.4745   -0.2929 C   0  0  0  0  0  0  0  0  0  0  0  0
   -3.3939    1.2748   -1.4769 H   0  0  0  0  0  0  0  0  0  0  0  0
   -4.8212    1.5007   -2.5162 H   0  0  0  0  0  0  0  0  0  0  0  0
   -4.1832   -0.1233   -2.2490 H   0  0  0  0  0  0  0  0  0  0  0  0
   -7.1215    0.6465   -1.7493 H   0  0  0  0  0  0  0  0  0  0  0  0
   -6.4712   -0.9519   -1.3447 H   0  0  0  0  0  0  0  0  0  0  0  0
   -7.3118   -0.0036   -0.1174 H   0  0  0  0  0  0  0  0  0  0  0  0
   -5.9723    2.7721   -0.7830 H   0  0  0  0  0  0  0  0  0  0  0  0
   -6.3049    2.0930    0.8186 H   0  0  0  0  0  0  0  0  0  0  0  0
   -4.6582    2.5671    0.3881 H   0  0  0  0  0  0  0  0  0  0  0  0
    0.1192    2.6614    1.6484 H   0  0  0  0  0  0  0  0  0  0  0  0
    2.9401    2.4002    2.7671 H   0  0  0  0  0  0  0  0  0  0  0  0
    6.2663    1.7139   -0.5236 H   0  0  0  0  0  0  0  0  0  0  0  0
    8.6039    2.0504    0.1952 H   0  0  0  0  0  0  0  0  0  0  0  0
    9.1174    2.6905    2.5378 H   0  0  0  0  0  0  0  0  0  0  0  0
    7.2693    2.9819    4.1729 H   0  0  0  0  0  0  0  0  0  0  0  0
    4.9454    2.6435    3.5028 H   0  0  0  0  0  0  0  0  0  0  0  0
    3.2782   -0.5116   -2.0630 H   0  0  0  0  0  0  0  0  0  0  0  0
    2.1012   -1.2152   -4.1471 H   0  0  0  0  0  0  0  0  0  0  0  0
   -0.0385   -0.0691   -4.7514 H   0  0  0  0  0  0  0  0  0  0  0  0
    0.2092    2.4512   -1.5053 H   0  0  0  0  0  0  0  0  0  0  0  0
   -2.6261   -3.3802    1.9632 H   0  0  0  0  0  0  0  0  0  0  0  0
   -2.4074   -5.8242    1.7051 H   0  0  0  0  0  0  0  0  0  0  0  0
    0.7877   -5.3005   -1.0694 H   0  0  0  0  0  0  0  0  0  0  0  0
    0.6152   -2.8492   -0.8663 H   0  0  0  0  0  0  0  0  0  0  0  0
  1  2  1  0
  2  3  1  0
  2  4  1  0
  2  5  1  0
  5  6  2  0
  5  7  1  0
  7  8  1  0
  8  9  3  0
  7 10  2  3
 10 11  1  0
 11 12  1  0
 12 13  2  3
 13 14  1  0
 14 15  2  0
 15 16  1  0
 16 17  1  0
 17 18  2  0
 18 19  1  0
 19 20  2  0
 20 21  1  0
 21 22  2  0
 16 23  1  0
 23 24  2  0
 24 25  1  0
 25 26  2  0
 26 27  1  0
 27 28  2  0
 28 29  1  0
 29 30  2  0
 12 31  1  0
 31 32  2  0
 31 33  1  0
 33 34  1  0
 34 35  2  0
 35 36  1  0
 36 37  2  0
 37 38  1  0
 37 39  1  0
 39 40  2  0
 33 10  1  0
 40 34  1  0
 24 14  1  0
 30 25  1  0
 22 17  1  0
  1 41  1  0
  1 42  1  0
  1 43  1  0
  3 44  1  0
  3 45  1  0
  3 46  1  0
  4 47  1  0
  4 48  1  0
  4 49  1  0
 13 50  1  0
 15 51  1  0
 18 52  1  0
 19 53  1  0
 20 54  1  0
 21 55  1  0
 22 56  1  0
 26 57  1  0
 27 58  1  0
 28 59  1  0
 30 60  1  0
 35 61  1  0
 36 62  1  0
 39 63  1  0
 40 64  1  0
M  END
$$$$
