
     RDKit          3D

 38 39  0  0  0  0  0  0  0  0999 V2000
   -2.2559    2.9587    1.2270 C   0  0  0  0  0  0  0  0  0  0  0  0
   -2.7796    2.7483   -0.0882 O   0  0  0  0  0  0  0  0  0  0  0  0
   -2.3922    1.5132   -0.5397 C   0  0  0  0  0  0  0  0  0  0  0  0
   -1.1166    1.3719   -1.0919 C   0  0  0  0  0  0  0  0  0  0  0  0
   -0.6745    0.1186   -1.5214 C   0  0  0  0  0  0  0  0  0  0  0  0
    0.6665   -0.0476   -2.0797 C   0  0  0  0  0  0  0  0  0  0  0  0
    1.8018   -0.2106   -1.3823 C   0  0  0  0  0  0  0  0  0  0  0  0
    1.9170   -0.2001    0.1061 C   0  0  0  0  0  0  0  0  0  0  0  0
    1.1539    0.4322    0.8284 O   0  0  0  0  0  0  0  0  0  0  0  0
    3.0625   -0.9394    0.7040 C   0  0  0  0  0  0  0  0  0  0  0  0
    3.5723   -0.4899    1.9290 C   0  0  0  0  0  0  0  0  0  0  0  0
    4.6448   -1.1529    2.5275 C   0  0  0  0  0  0  0  0  0  0  0  0
    5.1963   -2.2696    1.9110 C   0  0  0  0  0  0  0  0  0  0  0  0
    6.2397   -2.8861    2.5334 O   0  0  0  0  0  0  0  0  0  0  0  0
    4.6902   -2.7409    0.7049 C   0  0  0  0  0  0  0  0  0  0  0  0
    3.6172   -2.0769    0.1006 C   0  0  0  0  0  0  0  0  0  0  0  0
   -1.5228   -0.9874   -1.4086 C   0  0  0  0  0  0  0  0  0  0  0  0
   -2.8108   -0.8356   -0.8890 C   0  0  0  0  0  0  0  0  0  0  0  0
   -3.2621    0.4205   -0.4826 C   0  0  0  0  0  0  0  0  0  0  0  0
   -4.5377    0.4585    0.0109 O   0  0  0  0  0  0  0  0  0  0  0  0
   -5.3252    1.5450   -0.4984 C   0  0  0  0  0  0  0  0  0  0  0  0
   -6.7348    1.1321   -0.5838 C   0  0  0  0  0  0  0  0  0  0  0  0
   -7.8484    0.8161   -0.6734 N   0  0  0  0  0  0  0  0  0  0  0  0
   -1.1627    2.8963    1.2449 H   0  0  0  0  0  0  0  0  0  0  0  0
   -2.5389    3.9688    1.5358 H   0  0  0  0  0  0  0  0  0  0  0  0
   -2.6916    2.2498    1.9372 H   0  0  0  0  0  0  0  0  0  0  0  0
   -0.4609    2.2333   -1.1554 H   0  0  0  0  0  0  0  0  0  0  0  0
    0.7007   -0.0679   -3.1666 H   0  0  0  0  0  0  0  0  0  0  0  0
    2.7286   -0.3575   -1.9276 H   0  0  0  0  0  0  0  0  0  0  0  0
    3.1335    0.3771    2.4204 H   0  0  0  0  0  0  0  0  0  0  0  0
    5.0435   -0.8018    3.4742 H   0  0  0  0  0  0  0  0  0  0  0  0
    6.5195   -3.6507    2.0040 H   0  0  0  0  0  0  0  0  0  0  0  0
    5.1072   -3.6235    0.2304 H   0  0  0  0  0  0  0  0  0  0  0  0
    3.2136   -2.4744   -0.8252 H   0  0  0  0  0  0  0  0  0  0  0  0
   -1.1880   -1.9725   -1.7166 H   0  0  0  0  0  0  0  0  0  0  0  0
   -3.4651   -1.6991   -0.8078 H   0  0  0  0  0  0  0  0  0  0  0  0
   -5.2439    2.3944    0.1851 H   0  0  0  0  0  0  0  0  0  0  0  0
   -4.9969    1.8497   -1.4992 H   0  0  0  0  0  0  0  0  0  0  0  0
  1  2  1  0
  2  3  1  0
  3  4  2  0
  4  5  1  0
  5  6  1  0
  6  7  2  3
  7  8  1  0
  8  9  2  0
  8 10  1  0
 10 11  2  0
 11 12  1  0
 12 13  2  0
 13 14  1  0
 13 15  1  0
 15 16  2  0
  5 17  2  0
 17 18  1  0
 18 19  2  0
 19 20  1  0
 20 21  1  0
 21 22  1  0
 22 23  3  0
 19  3  1  0
 16 10  1  0
  1 24  1  0
  1 25  1  0
  1 26  1  0
  4 27  1  0
  6 28  1  0
  7 29  1  0
 11 30  1  0
 12 31  1  0
 14 32  1  0
 15 33  1  0
 16 34  1  0
 17 35  1  0
 18 36  1  0
 21 37  1  0
 21 38  1  0
M  END
$$$$
