
     RDKit          3D

 42 45  0  0  0  0  0  0  0  0999 V2000
   -3.3901   -1.9509   -1.5553 O   0  0  0  0  0  0  0  0  0  0  0  0
   -3.2418   -0.9103   -0.9258 C   0  0  0  0  0  0  0  0  0  0  0  0
   -2.0169   -0.3968   -0.5610 N   0  0  0  0  0  0  0  0  0  0  0  0
   -0.7849   -1.1238   -0.7555 C   0  0  0  0  0  0  0  0  0  0  0  0
   -0.5965   -2.1811    0.3561 C   0  0  0  0  0  0  0  0  0  0  0  0
    0.8448   -2.7114    0.4076 C   0  0  0  0  0  0  0  0  0  0  0  0
    1.8712   -1.5953    0.6885 C   0  0  0  0  0  0  0  0  0  0  0  0
    1.5833   -0.4050   -0.1664 C   0  0  0  0  0  0  0  0  0  0  0  0
    0.3539   -0.1591   -0.7567 C   0  0  0  0  0  0  0  0  0  0  0  0
    0.4621    1.1371   -1.2742 C   0  0  0  0  0  0  0  0  0  0  0  0
    1.6339    1.7008   -0.9871 N   0  0  0  0  0  0  0  0  0  0  0  0
    2.3700    0.7149   -0.3934 N   0  0  0  0  0  0  0  0  0  0  0  0
    3.7215    0.9867   -0.0639 C   0  0  0  0  0  0  0  0  0  0  0  0
    4.0932    2.3116    0.2269 C   0  0  0  0  0  0  0  0  0  0  0  0
    5.4124    2.6189    0.5716 C   0  0  0  0  0  0  0  0  0  0  0  0
    6.3766    1.6141    0.6051 C   0  0  0  0  0  0  0  0  0  0  0  0
    6.0238    0.3076    0.2722 C   0  0  0  0  0  0  0  0  0  0  0  0
    4.7056    0.0017   -0.0706 C   0  0  0  0  0  0  0  0  0  0  0  0
    4.4634   -1.2362   -0.5187 F   0  0  0  0  0  0  0  0  0  0  0  0
   -4.4098   -0.0879   -0.4721 C   0  0  0  0  0  0  0  0  0  0  0  0
   -5.7010   -0.4702   -0.8120 C   0  0  0  0  0  0  0  0  0  0  0  0
   -6.7557    0.3209   -0.3674 C   0  0  0  0  0  0  0  0  0  0  0  0
   -6.4850    1.4543    0.3942 C   0  0  0  0  0  0  0  0  0  0  0  0
   -5.1632    1.7569    0.6863 C   0  0  0  0  0  0  0  0  0  0  0  0
   -4.1128    1.0146    0.2750 N   0  0  0  0  0  0  0  0  0  0  0  0
   -2.0433    0.4011    0.0695 H   0  0  0  0  0  0  0  0  0  0  0  0
   -0.8219   -1.6297   -1.7285 H   0  0  0  0  0  0  0  0  0  0  0  0
   -0.8474   -1.7493    1.3348 H   0  0  0  0  0  0  0  0  0  0  0  0
   -1.2931   -3.0132    0.1979 H   0  0  0  0  0  0  0  0  0  0  0  0
    1.0815   -3.1926   -0.5503 H   0  0  0  0  0  0  0  0  0  0  0  0
    0.9281   -3.4829    1.1817 H   0  0  0  0  0  0  0  0  0  0  0  0
    2.8627   -2.0170    0.5464 H   0  0  0  0  0  0  0  0  0  0  0  0
    1.7950   -1.2936    1.7405 H   0  0  0  0  0  0  0  0  0  0  0  0
   -0.2805    1.7128   -1.8126 H   0  0  0  0  0  0  0  0  0  0  0  0
    3.3548    3.1122    0.2077 H   0  0  0  0  0  0  0  0  0  0  0  0
    5.6844    3.6448    0.8090 H   0  0  0  0  0  0  0  0  0  0  0  0
    7.4047    1.8528    0.8652 H   0  0  0  0  0  0  0  0  0  0  0  0
    6.7757   -0.4757    0.2478 H   0  0  0  0  0  0  0  0  0  0  0  0
   -5.8796   -1.3595   -1.4077 H   0  0  0  0  0  0  0  0  0  0  0  0
   -7.7804    0.0556   -0.6137 H   0  0  0  0  0  0  0  0  0  0  0  0
   -7.2883    2.0893    0.7529 H   0  0  0  0  0  0  0  0  0  0  0  0
   -4.9103    2.6330    1.2778 H   0  0  0  0  0  0  0  0  0  0  0  0
  1  2  2  0
  2  3  1  0
  3  4  1  0
  4  5  1  0
  5  6  1  0
  6  7  1  0
  7  8  1  0
  8  9  2  0
  9 10  1  0
 10 11  2  0
 11 12  1  0
 12 13  1  0
 13 14  2  0
 14 15  1  0
 15 16  2  0
 16 17  1  0
 17 18  2  0
 18 19  1  0
  2 20  1  0
 20 21  2  0
 21 22  1  0
 22 23  2  0
 23 24  1  0
 24 25  2  0
  9  4  1  0
 18 13  1  0
 25 20  1  0
 12  8  1  0
  3 26  1  0
  4 27  1  0
  5 28  1  0
  5 29  1  0
  6 30  1  0
  6 31  1  0
  7 32  1  0
  7 33  1  0
 10 34  1  0
 14 35  1  0
 15 36  1  0
 16 37  1  0
 17 38  1  0
 21 39  1  0
 22 40  1  0
 23 41  1  0
 24 42  1  0
M  END
$$$$
