
     RDKit          3D

 40 41  0  0  0  0  0  0  0  0999 V2000
   -1.0886    1.8455    2.1127 C   0  0  0  0  0  0  0  0  0  0  0  0
   -2.2556    1.4491    1.2841 C   0  0  0  0  0  0  0  0  0  0  0  0
   -3.3808    2.1715    1.3378 N   0  0  0  0  0  0  0  0  0  0  0  0
   -4.2078    1.5625    0.4755 N   0  0  0  0  0  0  0  0  0  0  0  0
   -5.5306    2.1074    0.2731 C   0  0  0  0  0  0  0  0  0  0  0  0
   -3.6648    0.4503   -0.1159 C   0  0  0  0  0  0  0  0  0  0  0  0
   -4.4115   -0.3837   -1.0930 C   0  0  0  0  0  0  0  0  0  0  0  0
   -2.3730    0.3523    0.3846 C   0  0  0  0  0  0  0  0  0  0  0  0
   -1.4010   -0.6615    0.0314 C   0  0  0  0  0  0  0  0  0  0  0  0
   -0.2313   -0.6379    0.5861 N   0  0  0  0  0  0  0  0  0  0  0  0
    0.6846   -1.5896    0.2057 N   0  0  0  0  0  0  0  0  0  0  0  0
    0.8607   -2.0239   -1.1035 C   0  0  0  0  0  0  0  0  0  0  0  0
    0.1472   -1.7429   -2.0631 O   0  0  0  0  0  0  0  0  0  0  0  0
    2.0923   -2.8820   -1.2811 C   0  0  0  0  0  0  0  0  0  0  0  0
    3.2874   -2.0185   -1.6639 C   0  0  0  0  0  0  0  0  0  0  0  0
    3.6982   -1.0639   -0.6470 N   0  0  0  0  0  0  0  0  0  0  0  0
    4.2480    0.1662   -0.8664 C   0  0  0  0  0  0  0  0  0  0  0  0
    4.4710    0.7069    0.3834 C   0  0  0  0  0  0  0  0  0  0  0  0
    5.0399    1.9821    0.6856 N   0  0  0  0  0  4  0  0  0  0  0  0
    5.3847    2.6874   -0.2707 O   0  0  0  0  0  0  0  0  0  0  0  0
    5.1483    2.2727    1.8831 O   0  0  0  0  0  1  0  0  0  0  0  0
    4.0211   -0.2695    1.2884 C   0  0  0  0  0  0  0  0  0  0  0  0
    3.5401   -1.3538    0.6652 N   0  0  0  0  0  0  0  0  0  0  0  0
   -1.3028    2.7420    2.7043 H   0  0  0  0  0  0  0  0  0  0  0  0
   -0.2237    2.0644    1.4787 H   0  0  0  0  0  0  0  0  0  0  0  0
   -0.8215    1.0440    2.8085 H   0  0  0  0  0  0  0  0  0  0  0  0
   -5.5710    3.1241    0.6730 H   0  0  0  0  0  0  0  0  0  0  0  0
   -5.7432    2.1295   -0.7984 H   0  0  0  0  0  0  0  0  0  0  0  0
   -6.2453    1.4684    0.7971 H   0  0  0  0  0  0  0  0  0  0  0  0
   -5.4379   -0.5618   -0.7561 H   0  0  0  0  0  0  0  0  0  0  0  0
   -4.4474    0.1143   -2.0671 H   0  0  0  0  0  0  0  0  0  0  0  0
   -3.9423   -1.3621   -1.2295 H   0  0  0  0  0  0  0  0  0  0  0  0
   -1.7174   -1.4367   -0.6844 H   0  0  0  0  0  0  0  0  0  0  0  0
    1.5236   -1.5962    0.7958 H   0  0  0  0  0  0  0  0  0  0  0  0
    1.8850   -3.6087   -2.0753 H   0  0  0  0  0  0  0  0  0  0  0  0
    2.2814   -3.4626   -0.3707 H   0  0  0  0  0  0  0  0  0  0  0  0
    4.1610   -2.6513   -1.8559 H   0  0  0  0  0  0  0  0  0  0  0  0
    3.0707   -1.4472   -2.5743 H   0  0  0  0  0  0  0  0  0  0  0  0
    4.4324    0.5497   -1.8614 H   0  0  0  0  0  0  0  0  0  0  0  0
    4.0196   -0.2366    2.3717 H   0  0  0  0  0  0  0  0  0  0  0  0
  1  2  1  0
  2  3  2  0
  3  4  1  0
  4  5  1  0
  4  6  1  0
  6  7  1  0
  6  8  2  0
  8  9  1  0
  9 10  2  3
 10 11  1  0
 11 12  1  0
 12 13  2  0
 12 14  1  0
 14 15  1  0
 15 16  1  0
 16 17  1  0
 17 18  2  0
 18 19  1  0
 19 20  2  0
 19 21  1  0
 18 22  1  0
 22 23  2  0
  8  2  1  0
 23 16  1  0
  1 24  1  0
  1 25  1  0
  1 26  1  0
  5 27  1  0
  5 28  1  0
  5 29  1  0
  7 30  1  0
  7 31  1  0
  7 32  1  0
  9 33  1  0
 11 34  1  0
 14 35  1  0
 14 36  1  0
 15 37  1  0
 15 38  1  0
 17 39  1  0
 22 40  1  0
M  CHG  2  19   1  21  -1
M  END
$$$$
