
     RDKit          3D

 35 36  0  0  0  0  0  0  0  0999 V2000
    6.1148   -0.2916   -2.1483 C   0  0  0  0  0  0  0  0  0  0  0  0
    4.7048   -0.3379   -1.6403 C   0  0  0  0  0  0  0  0  0  0  0  0
    3.7729   -1.2094   -2.2109 C   0  0  0  0  0  0  0  0  0  0  0  0
    2.4474   -1.2357   -1.7596 C   0  0  0  0  0  0  0  0  0  0  0  0
    2.0315   -0.3959   -0.7275 C   0  0  0  0  0  0  0  0  0  0  0  0
    0.7102   -0.3349   -0.2301 N   0  0  0  0  0  0  0  0  0  0  0  0
   -0.3172   -1.2442   -0.2765 C   0  0  0  0  0  0  0  0  0  0  0  0
   -0.2547   -2.8815   -0.5983 S   0  0  0  0  0  0  0  0  0  0  0  0
   -1.5539   -0.7347    0.0236 N   0  0  0  0  0  0  0  0  0  0  0  0
   -1.9582    0.6542   -0.0317 C   0  0  0  0  0  0  0  0  0  0  0  0
   -3.3893    0.7361    0.3648 C   0  0  0  0  0  0  0  0  0  0  0  0
   -4.5032    0.9618   -0.4258 C   0  0  0  0  0  0  0  0  0  0  0  0
   -5.6411    0.9545    0.4118 C   0  0  0  0  0  0  0  0  0  0  0  0
   -5.2012    0.7226    1.6945 C   0  0  0  0  0  0  0  0  0  0  0  0
   -3.8370    0.5891    1.6611 N   0  0  0  0  0  0  0  0  0  0  0  0
   -3.0158    0.3163    2.8214 C   0  0  0  0  0  0  0  0  0  0  0  0
    2.9569    0.5055   -0.1854 C   0  0  0  0  0  0  0  0  0  0  0  0
    4.2815    0.5334   -0.6341 C   0  0  0  0  0  0  0  0  0  0  0  0
    6.1927    0.4247   -2.9720 H   0  0  0  0  0  0  0  0  0  0  0  0
    6.8067    0.0062   -1.3534 H   0  0  0  0  0  0  0  0  0  0  0  0
    6.4342   -1.2768   -2.5040 H   0  0  0  0  0  0  0  0  0  0  0  0
    4.0663   -1.8747   -3.0204 H   0  0  0  0  0  0  0  0  0  0  0  0
    1.7590   -1.9027   -2.2662 H   0  0  0  0  0  0  0  0  0  0  0  0
    0.5494    0.4232    0.4166 H   0  0  0  0  0  0  0  0  0  0  0  0
   -2.2974   -1.4116   -0.1166 H   0  0  0  0  0  0  0  0  0  0  0  0
   -1.8066    1.0116   -1.0560 H   0  0  0  0  0  0  0  0  0  0  0  0
   -1.3295    1.2550    0.6319 H   0  0  0  0  0  0  0  0  0  0  0  0
   -4.4945    1.1152   -1.4979 H   0  0  0  0  0  0  0  0  0  0  0  0
   -6.6711    1.0997    0.1127 H   0  0  0  0  0  0  0  0  0  0  0  0
   -5.7523    0.6384    2.6223 H   0  0  0  0  0  0  0  0  0  0  0  0
   -2.2319    1.0750    2.8816 H   0  0  0  0  0  0  0  0  0  0  0  0
   -2.5863   -0.6824    2.7142 H   0  0  0  0  0  0  0  0  0  0  0  0
   -3.6328    0.3582    3.7229 H   0  0  0  0  0  0  0  0  0  0  0  0
    2.6664    1.1936    0.6040 H   0  0  0  0  0  0  0  0  0  0  0  0
    4.9792    1.2399   -0.1903 H   0  0  0  0  0  0  0  0  0  0  0  0
  1  2  1  0
  2  3  2  0
  3  4  1  0
  4  5  2  0
  5  6  1  0
  6  7  1  0
  7  8  2  0
  7  9  1  0
  9 10  1  0
 10 11  1  0
 11 12  2  0
 12 13  1  0
 13 14  2  0
 14 15  1  0
 15 16  1  0
  5 17  1  0
 17 18  2  0
 18  2  1  0
 15 11  1  0
  1 19  1  0
  1 20  1  0
  1 21  1  0
  3 22  1  0
  4 23  1  0
  6 24  1  0
  9 25  1  0
 10 26  1  0
 10 27  1  0
 12 28  1  0
 13 29  1  0
 14 30  1  0
 16 31  1  0
 16 32  1  0
 16 33  1  0
 17 34  1  0
 18 35  1  0
M  END
$$$$
