
     RDKit          3D

 40 41  0  0  0  0  0  0  0  0999 V2000
    1.2715    3.9136    2.5489 O   0  0  0  0  0  0  0  0  0  0  0  0
    1.2455    3.5984    1.3716 C   0  0  0  0  0  0  0  0  0  0  0  0
    2.3616    3.6287    0.6214 O   0  0  0  0  0  0  0  0  0  0  0  0
    0.0437    3.1219    0.6113 C   0  0  0  0  0  0  0  0  0  0  0  0
   -0.2983    1.6956    1.0334 C   0  0  0  0  0  0  0  0  0  0  0  0
   -1.6215    1.3223    0.4603 N   0  0  0  0  0  0  0  0  0  0  0  0
   -2.0511   -0.0390    0.8153 C   0  0  0  0  0  0  0  0  0  0  0  0
   -2.3544   -0.1825    2.2650 C   0  0  0  0  0  0  0  0  0  0  0  0
   -1.8242   -0.9641    3.2703 C   0  0  0  0  0  0  0  0  0  0  0  0
   -2.5324   -0.6306    4.4498 C   0  0  0  0  0  0  0  0  0  0  0  0
   -3.4468    0.3312    4.0899 C   0  0  0  0  0  0  0  0  0  0  0  0
   -3.3462    0.6121    2.7653 O   0  0  0  0  0  0  0  0  0  0  0  0
    0.8343    0.7684    0.5661 C   0  0  0  0  0  0  0  0  0  0  0  0
    1.7426    0.3935    1.3000 O   0  0  0  0  0  0  0  0  0  0  0  0
    0.7271    0.4547   -0.7532 O   0  0  0  0  0  0  0  0  0  0  0  0
    1.7234   -0.4555   -1.2468 C   0  0  0  0  0  0  0  0  0  0  0  0
    1.2178   -1.0640   -2.5523 C   0  0  0  0  0  0  0  0  0  0  0  0
    2.2815   -1.8505   -3.2984 C   0  0  0  0  0  0  0  0  0  0  0  0
    1.4395   -2.7946   -4.1193 C   0  0  0  0  0  0  0  0  0  0  0  0
    0.3202   -3.1352   -3.1585 C   0  0  0  0  0  0  0  0  0  0  0  0
    0.1533   -2.0052   -2.2897 O   0  0  0  0  0  0  0  0  0  0  0  0
    3.0660    3.9011    1.2475 H   0  0  0  0  0  0  0  0  0  0  0  0
    0.2371    3.1971   -0.4659 H   0  0  0  0  0  0  0  0  0  0  0  0
   -0.7749    3.8174    0.8331 H   0  0  0  0  0  0  0  0  0  0  0  0
   -0.3461    1.6337    2.1276 H   0  0  0  0  0  0  0  0  0  0  0  0
   -2.3300    1.9588    0.8303 H   0  0  0  0  0  0  0  0  0  0  0  0
   -1.3177   -0.7877    0.4974 H   0  0  0  0  0  0  0  0  0  0  0  0
   -2.9648   -0.2582    0.2500 H   0  0  0  0  0  0  0  0  0  0  0  0
   -1.0204   -1.6799    3.1637 H   0  0  0  0  0  0  0  0  0  0  0  0
   -2.3923   -1.0377    5.4412 H   0  0  0  0  0  0  0  0  0  0  0  0
   -4.1995    0.8886    4.6299 H   0  0  0  0  0  0  0  0  0  0  0  0
    2.6445    0.1112   -1.4196 H   0  0  0  0  0  0  0  0  0  0  0  0
    1.9030   -1.2513   -0.5139 H   0  0  0  0  0  0  0  0  0  0  0  0
    0.7912   -0.2838   -3.1951 H   0  0  0  0  0  0  0  0  0  0  0  0
    2.9344   -1.2146   -3.9026 H   0  0  0  0  0  0  0  0  0  0  0  0
    2.9059   -2.4241   -2.6025 H   0  0  0  0  0  0  0  0  0  0  0  0
    1.0356   -2.2688   -4.9926 H   0  0  0  0  0  0  0  0  0  0  0  0
    1.9818   -3.6756   -4.4721 H   0  0  0  0  0  0  0  0  0  0  0  0
    0.5812   -3.9971   -2.5356 H   0  0  0  0  0  0  0  0  0  0  0  0
   -0.6222   -3.3480   -3.6714 H   0  0  0  0  0  0  0  0  0  0  0  0
  1  2  2  0
  2  3  1  0
  2  4  1  0
  4  5  1  0
  5  6  1  0
  6  7  1  0
  7  8  1  0
  8  9  2  0
  9 10  1  0
 10 11  2  0
 11 12  1  0
  5 13  1  0
 13 14  2  0
 13 15  1  0
 15 16  1  0
 16 17  1  0
 17 18  1  0
 18 19  1  0
 19 20  1  0
 20 21  1  0
 12  8  1  0
 21 17  1  0
  3 22  1  0
  4 23  1  0
  4 24  1  0
  5 25  1  0
  6 26  1  0
  7 27  1  0
  7 28  1  0
  9 29  1  0
 10 30  1  0
 11 31  1  0
 16 32  1  0
 16 33  1  0
 17 34  1  0
 18 35  1  0
 18 36  1  0
 19 37  1  0
 19 38  1  0
 20 39  1  0
 20 40  1  0
M  END
$$$$
