
     RDKit          3D

 33 36  0  0  0  0  0  0  0  0999 V2000
    7.0208    1.3550    0.8206 C   0  0  0  0  0  0  0  0  0  0  0  0
    5.6429    1.3825    0.2939 C   0  0  0  0  0  0  0  0  0  0  0  0
    4.7861    2.3910   -0.0688 C   0  0  0  0  0  0  0  0  0  0  0  0
    3.5989    1.7539   -0.5042 C   0  0  0  0  0  0  0  0  0  0  0  0
    3.7663    0.3810   -0.3670 C   0  0  0  0  0  0  0  0  0  0  0  0
    2.9259   -0.7219   -0.6735 C   0  0  0  0  0  0  0  0  0  0  0  0
    1.5966   -0.7925   -0.5122 C   0  0  0  0  0  0  0  0  0  0  0  0
    0.7351   -2.2790   -0.9643 S   0  0  0  0  0  0  0  0  0  0  0  0
   -0.7404   -1.5814   -0.4546 C   0  0  0  0  0  0  0  0  0  0  0  0
   -1.9838   -1.9633   -0.4260 N   0  0  0  0  0  0  0  0  0  0  0  0
   -2.6080   -0.8565    0.1431 C   0  0  0  0  0  0  0  0  0  0  0  0
   -4.0509   -0.8257    0.3461 C   0  0  0  0  0  0  0  0  0  0  0  0
   -4.8666   -1.3158   -0.6912 C   0  0  0  0  0  0  0  0  0  0  0  0
   -6.2586   -1.3044   -0.5803 C   0  0  0  0  0  0  0  0  0  0  0  0
   -6.8575   -0.8084    0.5729 C   0  0  0  0  0  0  0  0  0  0  0  0
   -6.0649   -0.3337    1.6180 C   0  0  0  0  0  0  0  0  0  0  0  0
   -4.6663   -0.3443    1.5125 C   0  0  0  0  0  0  0  0  0  0  0  0
   -3.7010    0.2512    3.0407 Br  0  0  0  0  0  0  0  0  0  0  0  0
   -1.7822    0.1807    0.3979 N   0  0  0  0  0  0  0  0  0  0  0  0
   -0.5981   -0.3333    0.0250 N   0  0  0  0  0  0  0  0  0  0  0  0
    0.6587    0.2354    0.0556 C   0  0  0  0  0  0  0  0  0  0  0  0
    0.8646    1.3552    0.4809 O   0  0  0  0  0  0  0  0  0  0  0  0
    5.0473    0.1772    0.1031 O   0  0  0  0  0  0  0  0  0  0  0  0
    7.6815    0.8135    0.1366 H   0  0  0  0  0  0  0  0  0  0  0  0
    7.0486    0.8578    1.7950 H   0  0  0  0  0  0  0  0  0  0  0  0
    7.4147    2.3686    0.9439 H   0  0  0  0  0  0  0  0  0  0  0  0
    4.9878    3.4523   -0.0321 H   0  0  0  0  0  0  0  0  0  0  0  0
    2.7167    2.2540   -0.8799 H   0  0  0  0  0  0  0  0  0  0  0  0
    3.4597   -1.5972   -1.0396 H   0  0  0  0  0  0  0  0  0  0  0  0
   -4.4140   -1.7079   -1.6011 H   0  0  0  0  0  0  0  0  0  0  0  0
   -6.8718   -1.6829   -1.3946 H   0  0  0  0  0  0  0  0  0  0  0  0
   -7.9409   -0.7979    0.6639 H   0  0  0  0  0  0  0  0  0  0  0  0
   -6.5473    0.0369    2.5198 H   0  0  0  0  0  0  0  0  0  0  0  0
  1  2  1  0
  2  3  2  0
  3  4  1  0
  4  5  2  0
  5  6  1  0
  6  7  2  3
  7  8  1  0
  8  9  1  0
  9 10  2  0
 10 11  1  0
 11 12  1  0
 12 13  2  0
 13 14  1  0
 14 15  2  0
 15 16  1  0
 16 17  2  0
 17 18  1  0
 11 19  2  0
 19 20  1  0
 20 21  1  0
 21 22  2  0
  5 23  1  0
 23  2  1  0
 21  7  1  0
 20  9  1  0
 17 12  1  0
  1 24  1  0
  1 25  1  0
  1 26  1  0
  3 27  1  0
  4 28  1  0
  6 29  1  0
 13 30  1  0
 14 31  1  0
 15 32  1  0
 16 33  1  0
M  END
$$$$
