
     RDKit          3D

 42 45  0  0  0  0  0  0  0  0999 V2000
   -0.8816   -0.7297   -0.0822 O   0  0  0  0  0  0  0  0  0  0  0  0
   -1.3218    0.0272    0.7715 C   0  0  0  0  0  0  0  0  0  0  0  0
   -0.5689    1.1567    1.3896 C   0  0  0  0  0  0  0  0  0  0  0  0
    0.6857    1.5802    1.1828 C   0  0  0  0  0  0  0  0  0  0  0  0
    1.6249    1.0534    0.2577 C   0  0  0  0  0  0  0  0  0  0  0  0
    1.4963    0.6090   -1.0525 C   0  0  0  0  0  0  0  0  0  0  0  0
    2.7771    0.2209   -1.5151 C   0  0  0  0  0  0  0  0  0  0  0  0
    3.6453    0.4525   -0.4744 C   0  0  0  0  0  0  0  0  0  0  0  0
    5.0846    0.3079   -0.3047 C   0  0  0  0  0  0  0  0  0  0  0  0
    5.9279    0.8006   -1.3174 C   0  0  0  0  0  0  0  0  0  0  0  0
    7.3176    0.6987   -1.2128 C   0  0  0  0  0  0  0  0  0  0  0  0
    7.8883    0.0976   -0.0954 C   0  0  0  0  0  0  0  0  0  0  0  0
    7.0692   -0.4058    0.9145 C   0  0  0  0  0  0  0  0  0  0  0  0
    5.6750   -0.3059    0.8139 C   0  0  0  0  0  0  0  0  0  0  0  0
    4.7480   -1.0136    2.0943 Cl  0  0  0  0  0  0  0  0  0  0  0  0
    2.9651    0.9867    0.5749 O   0  0  0  0  0  0  0  0  0  0  0  0
   -1.5808    1.9330    2.5648 S   0  0  0  0  0  0  0  0  0  0  0  0
   -2.9437    0.8666    2.2621 C   0  0  0  0  0  0  0  0  0  0  0  0
   -4.3802    1.0218    3.0979 S   0  0  0  0  0  0  0  0  0  0  0  0
   -2.5994   -0.0597    1.3028 N   0  0  0  0  0  0  0  0  0  0  0  0
   -3.5065   -1.0749    0.7557 C   0  0  0  0  0  0  0  0  0  0  0  0
   -4.0615   -0.6664   -0.6229 C   0  0  0  0  0  0  0  0  0  0  0  0
   -5.0243   -1.7009   -1.1895 C   0  0  0  0  0  0  0  0  0  0  0  0
   -6.3643   -1.2162   -0.6945 C   0  0  0  0  0  0  0  0  0  0  0  0
   -6.1970    0.2848   -0.7588 C   0  0  0  0  0  0  0  0  0  0  0  0
   -4.8144    0.5567   -0.4923 O   0  0  0  0  0  0  0  0  0  0  0  0
    1.0743    2.3884    1.7993 H   0  0  0  0  0  0  0  0  0  0  0  0
    0.5759    0.5687   -1.6188 H   0  0  0  0  0  0  0  0  0  0  0  0
    3.0304   -0.1800   -2.4860 H   0  0  0  0  0  0  0  0  0  0  0  0
    5.5037    1.2849   -2.1951 H   0  0  0  0  0  0  0  0  0  0  0  0
    7.9520    1.0927   -2.0033 H   0  0  0  0  0  0  0  0  0  0  0  0
    8.9691    0.0169   -0.0105 H   0  0  0  0  0  0  0  0  0  0  0  0
    7.5222   -0.8833    1.7802 H   0  0  0  0  0  0  0  0  0  0  0  0
   -2.9483   -2.0140    0.6578 H   0  0  0  0  0  0  0  0  0  0  0  0
   -4.3242   -1.2555    1.4586 H   0  0  0  0  0  0  0  0  0  0  0  0
   -3.2397   -0.4838   -1.3232 H   0  0  0  0  0  0  0  0  0  0  0  0
   -4.7951   -2.7290   -0.8953 H   0  0  0  0  0  0  0  0  0  0  0  0
   -5.0071   -1.6541   -2.2854 H   0  0  0  0  0  0  0  0  0  0  0  0
   -6.5173   -1.5336    0.3433 H   0  0  0  0  0  0  0  0  0  0  0  0
   -7.2078   -1.5766   -1.2890 H   0  0  0  0  0  0  0  0  0  0  0  0
   -6.8233    0.8105   -0.0329 H   0  0  0  0  0  0  0  0  0  0  0  0
   -6.4256    0.6665   -1.7596 H   0  0  0  0  0  0  0  0  0  0  0  0
  1  2  2  0
  2  3  1  0
  3  4  2  3
  4  5  1  0
  5  6  2  0
  6  7  1  0
  7  8  2  0
  8  9  1  0
  9 10  2  0
 10 11  1  0
 11 12  2  0
 12 13  1  0
 13 14  2  0
 14 15  1  0
  8 16  1  0
  3 17  1  0
 17 18  1  0
 18 19  2  0
 18 20  1  0
 20 21  1  0
 21 22  1  0
 22 23  1  0
 23 24  1  0
 24 25  1  0
 25 26  1  0
 20  2  1  0
 26 22  1  0
 16  5  1  0
 14  9  1  0
  4 27  1  0
  6 28  1  0
  7 29  1  0
 10 30  1  0
 11 31  1  0
 12 32  1  0
 13 33  1  0
 21 34  1  0
 21 35  1  0
 22 36  1  0
 23 37  1  0
 23 38  1  0
 24 39  1  0
 24 40  1  0
 25 41  1  0
 25 42  1  0
M  END
$$$$
