
     RDKit          3D

 54 55  0  0  0  0  0  0  0  0999 V2000
   -0.7639    3.7568    0.1661 C   0  0  0  0  0  0  0  0  0  0  0  0
   -1.3218    2.5382   -0.3104 O   0  0  0  0  0  0  0  0  0  0  0  0
   -0.4618    1.6383   -0.8847 C   0  0  0  0  0  0  0  0  0  0  0  0
    0.9320    1.7013   -0.7767 C   0  0  0  0  0  0  0  0  0  0  0  0
    1.7534    0.7479   -1.4060 C   0  0  0  0  0  0  0  0  0  0  0  0
    3.2574    0.8388   -1.2758 C   0  0  0  0  0  0  0  0  0  0  0  0
    3.6294    0.5975    0.1115 N   0  0  0  0  0  0  0  0  0  0  0  0
    4.9795    0.5440    0.4692 C   0  0  0  0  0  0  0  0  0  0  0  0
    6.0054    1.1380   -0.2756 C   0  0  0  0  0  0  0  0  0  0  0  0
    7.3343    1.1160    0.1699 C   0  0  0  0  0  0  0  0  0  0  0  0
    7.6564    0.5207    1.3920 C   0  0  0  0  0  0  0  0  0  0  0  0
    9.0453    0.4746    1.9083 C   0  0  0  0  0  0  0  0  0  0  0  0
    9.3979   -0.0181    2.9639 O   0  0  0  0  0  0  0  0  0  0  0  0
    9.9317    1.0481    1.0750 O   0  0  0  0  0  0  0  0  0  0  0  0
    6.6392   -0.0399    2.1670 C   0  0  0  0  0  0  0  0  0  0  0  0
    5.3161   -0.0133    1.7122 C   0  0  0  0  0  0  0  0  0  0  0  0
    1.1599   -0.2822   -2.1457 C   0  0  0  0  0  0  0  0  0  0  0  0
   -0.2302   -0.3582   -2.2536 C   0  0  0  0  0  0  0  0  0  0  0  0
   -0.9700   -1.7824   -3.2674 Br  0  0  0  0  0  0  0  0  0  0  0  0
   -1.0427    0.5850   -1.6120 C   0  0  0  0  0  0  0  0  0  0  0  0
   -2.4053    0.5005   -1.7727 O   0  0  0  0  0  0  0  0  0  0  0  0
   -3.0482    0.0948   -0.5681 C   0  0  0  0  0  0  0  0  0  0  0  0
   -4.3995   -0.5747   -0.8473 C   0  0  0  0  0  0  0  0  0  0  0  0
   -4.8445   -0.7706   -1.9731 O   0  0  0  0  0  0  0  0  0  0  0  0
   -5.0634   -0.9439    0.3139 N   0  0  0  0  0  0  0  0  0  0  0  0
   -6.3942   -1.5708    0.3547 C   0  0  0  0  0  0  0  0  0  0  0  0
   -6.3982   -2.9149   -0.3920 C   0  0  0  0  0  0  0  0  0  0  0  0
   -6.7466   -1.8404    1.8296 C   0  0  0  0  0  0  0  0  0  0  0  0
   -7.4591   -0.6331   -0.2356 C   0  0  0  0  0  0  0  0  0  0  0  0
   -0.1525    3.5835    1.0575 H   0  0  0  0  0  0  0  0  0  0  0  0
   -0.1908    4.2674   -0.6152 H   0  0  0  0  0  0  0  0  0  0  0  0
   -1.5916    4.4123    0.4539 H   0  0  0  0  0  0  0  0  0  0  0  0
    1.4178    2.4826   -0.1972 H   0  0  0  0  0  0  0  0  0  0  0  0
    3.7373    0.1040   -1.9338 H   0  0  0  0  0  0  0  0  0  0  0  0
    3.5672    1.8388   -1.6025 H   0  0  0  0  0  0  0  0  0  0  0  0
    3.1005   -0.1681    0.5240 H   0  0  0  0  0  0  0  0  0  0  0  0
    5.7994    1.6350   -1.2189 H   0  0  0  0  0  0  0  0  0  0  0  0
    8.1050    1.5769   -0.4432 H   0  0  0  0  0  0  0  0  0  0  0  0
   10.7890    0.9446    1.5388 H   0  0  0  0  0  0  0  0  0  0  0  0
    6.8662   -0.4912    3.1307 H   0  0  0  0  0  0  0  0  0  0  0  0
    4.5406   -0.4359    2.3476 H   0  0  0  0  0  0  0  0  0  0  0  0
    1.7814   -1.0263   -2.6394 H   0  0  0  0  0  0  0  0  0  0  0  0
   -3.2448    0.9737    0.0565 H   0  0  0  0  0  0  0  0  0  0  0  0
   -2.4369   -0.6272   -0.0092 H   0  0  0  0  0  0  0  0  0  0  0  0
   -4.6682   -0.6366    1.1936 H   0  0  0  0  0  0  0  0  0  0  0  0
   -5.6126   -3.5780   -0.0113 H   0  0  0  0  0  0  0  0  0  0  0  0
   -6.2281   -2.7906   -1.4660 H   0  0  0  0  0  0  0  0  0  0  0  0
   -7.3591   -3.4291   -0.2746 H   0  0  0  0  0  0  0  0  0  0  0  0
   -7.7314   -2.3114    1.9272 H   0  0  0  0  0  0  0  0  0  0  0  0
   -6.0080   -2.5030    2.2969 H   0  0  0  0  0  0  0  0  0  0  0  0
   -6.7605   -0.9094    2.4092 H   0  0  0  0  0  0  0  0  0  0  0  0
   -7.4504    0.3393    0.2705 H   0  0  0  0  0  0  0  0  0  0  0  0
   -7.2944   -0.4469   -1.3018 H   0  0  0  0  0  0  0  0  0  0  0  0
   -8.4636   -1.0588   -0.1301 H   0  0  0  0  0  0  0  0  0  0  0  0
  1  2  1  0
  2  3  1  0
  3  4  2  0
  4  5  1  0
  5  6  1  0
  6  7  1  0
  7  8  1  0
  8  9  2  0
  9 10  1  0
 10 11  2  0
 11 12  1  0
 12 13  2  0
 12 14  1  0
 11 15  1  0
 15 16  2  0
  5 17  2  0
 17 18  1  0
 18 19  1  0
 18 20  2  0
 20 21  1  0
 21 22  1  0
 22 23  1  0
 23 24  2  0
 23 25  1  0
 25 26  1  0
 26 27  1  0
 26 28  1  0
 26 29  1  0
 20  3  1  0
 16  8  1  0
  1 30  1  0
  1 31  1  0
  1 32  1  0
  4 33  1  0
  6 34  1  0
  6 35  1  0
  7 36  1  0
  9 37  1  0
 10 38  1  0
 14 39  1  0
 15 40  1  0
 16 41  1  0
 17 42  1  0
 22 43  1  0
 22 44  1  0
 25 45  1  0
 27 46  1  0
 27 47  1  0
 27 48  1  0
 28 49  1  0
 28 50  1  0
 28 51  1  0
 29 52  1  0
 29 53  1  0
 29 54  1  0
M  END
$$$$
