
     RDKit          3D

 48 51  0  0  0  0  0  0  0  0999 V2000
    2.7338   -0.4037   -1.1232 O   0  0  0  0  0  0  0  0  0  0  0  0
    3.5368    0.0420   -0.3149 C   0  0  0  0  0  0  0  0  0  0  0  0
    3.3851    0.1285    1.0697 N   0  0  0  0  0  0  0  0  0  0  0  0
    2.5406   -0.5022    1.9552 C   0  0  0  0  0  0  0  0  0  0  0  0
    3.1661   -0.6648    3.5115 S   0  0  0  0  0  0  0  0  0  0  0  0
    1.2954   -0.9342    1.5595 N   0  0  0  0  0  0  0  0  0  0  0  0
    0.5085   -1.8799    2.3759 C   0  0  0  0  0  0  0  0  0  0  0  0
   -0.7332   -2.4007    1.6323 C   0  0  0  0  0  0  0  0  0  0  0  0
   -1.6795   -1.3249    1.2670 N   0  0  0  0  0  0  0  0  0  0  0  0
   -2.5703   -1.7798    0.1886 C   0  0  0  0  0  0  0  0  0  0  0  0
   -3.7881   -0.8956    0.0048 C   0  0  0  0  0  0  0  0  0  0  0  0
   -4.6240   -0.5897    1.1058 C   0  0  0  0  0  0  0  0  0  0  0  0
   -5.7619    0.2082    0.9506 C   0  0  0  0  0  0  0  0  0  0  0  0
   -6.0438    0.6802   -0.3119 C   0  0  0  0  0  0  0  0  0  0  0  0
   -5.2439    0.3844   -1.3902 C   0  0  0  0  0  0  0  0  0  0  0  0
   -4.1156   -0.3997   -1.2683 C   0  0  0  0  0  0  0  0  0  0  0  0
   -5.6988    0.9448   -2.5432 O   0  0  0  0  0  0  0  0  0  0  0  0
   -6.8765    1.6275   -2.0653 C   0  0  0  0  0  0  0  0  0  0  0  0
   -7.1020    1.4644   -0.6500 O   0  0  0  0  0  0  0  0  0  0  0  0
   -0.9704   -0.0687    0.9324 C   0  0  0  0  0  0  0  0  0  0  0  0
    0.5065   -0.2464    0.5212 C   0  0  0  0  0  0  0  0  0  0  0  0
    4.8062    0.6195   -0.8394 C   0  0  0  0  0  0  0  0  0  0  0  0
    4.7642    1.3351   -2.0437 C   0  0  0  0  0  0  0  0  0  0  0  0
    5.9328    1.8892   -2.5723 C   0  0  0  0  0  0  0  0  0  0  0  0
    7.1436    1.7173   -1.9035 C   0  0  0  0  0  0  0  0  0  0  0  0
    8.5830    2.3977   -2.5537 Cl  0  0  0  0  0  0  0  0  0  0  0  0
    7.1980    0.9892   -0.7146 C   0  0  0  0  0  0  0  0  0  0  0  0
    6.0305    0.4336   -0.1819 C   0  0  0  0  0  0  0  0  0  0  0  0
    4.1864    0.4924    1.5668 H   0  0  0  0  0  0  0  0  0  0  0  0
    0.2019   -1.3666    3.2960 H   0  0  0  0  0  0  0  0  0  0  0  0
    1.1516   -2.7223    2.6545 H   0  0  0  0  0  0  0  0  0  0  0  0
   -1.2534   -3.1272    2.2671 H   0  0  0  0  0  0  0  0  0  0  0  0
   -0.3925   -2.9354    0.7348 H   0  0  0  0  0  0  0  0  0  0  0  0
   -2.0139   -1.8682   -0.7539 H   0  0  0  0  0  0  0  0  0  0  0  0
   -2.9543   -2.7827    0.4200 H   0  0  0  0  0  0  0  0  0  0  0  0
   -4.3736   -0.9751    2.0931 H   0  0  0  0  0  0  0  0  0  0  0  0
   -6.3994    0.4473    1.7938 H   0  0  0  0  0  0  0  0  0  0  0  0
   -3.5064   -0.6178   -2.1386 H   0  0  0  0  0  0  0  0  0  0  0  0
   -6.7739    2.6969   -2.2828 H   0  0  0  0  0  0  0  0  0  0  0  0
   -7.7485    1.2415   -2.6059 H   0  0  0  0  0  0  0  0  0  0  0  0
   -0.9980    0.5587    1.8331 H   0  0  0  0  0  0  0  0  0  0  0  0
   -1.4901    0.5051    0.1567 H   0  0  0  0  0  0  0  0  0  0  0  0
    0.9352    0.7384    0.3119 H   0  0  0  0  0  0  0  0  0  0  0  0
    0.5424   -0.8607   -0.3845 H   0  0  0  0  0  0  0  0  0  0  0  0
    3.8212    1.4617   -2.5729 H   0  0  0  0  0  0  0  0  0  0  0  0
    5.8916    2.4463   -3.5049 H   0  0  0  0  0  0  0  0  0  0  0  0
    8.1478    0.8415   -0.2058 H   0  0  0  0  0  0  0  0  0  0  0  0
    6.1029   -0.1641    0.7232 H   0  0  0  0  0  0  0  0  0  0  0  0
  1  2  2  0
  2  3  1  0
  3  4  1  0
  4  5  2  0
  4  6  1  0
  6  7  1  0
  7  8  1  0
  8  9  1  0
  9 10  1  0
 10 11  1  0
 11 12  2  0
 12 13  1  0
 13 14  2  0
 14 15  1  0
 15 16  2  0
 15 17  1  0
 17 18  1  0
 18 19  1  0
  9 20  1  0
 20 21  1  0
  2 22  1  0
 22 23  2  0
 23 24  1  0
 24 25  2  0
 25 26  1  0
 25 27  1  0
 27 28  2  0
 21  6  1  0
 28 22  1  0
 16 11  1  0
 19 14  1  0
  3 29  1  0
  7 30  1  0
  7 31  1  0
  8 32  1  0
  8 33  1  0
 10 34  1  0
 10 35  1  0
 12 36  1  0
 13 37  1  0
 16 38  1  0
 18 39  1  0
 18 40  1  0
 20 41  1  0
 20 42  1  0
 21 43  1  0
 21 44  1  0
 23 45  1  0
 24 46  1  0
 27 47  1  0
 28 48  1  0
M  END
$$$$
