
     RDKit          3D

 60 64  0  0  0  0  0  0  0  0999 V2000
   -2.3515    0.3712    3.1958 O   0  0  0  0  0  0  0  0  0  0  0  0
   -2.2074    0.1130    1.9994 C   0  0  0  0  0  0  0  0  0  0  0  0
   -0.8673    0.2926    1.3134 C   0  0  0  0  0  0  0  0  0  0  0  0
    0.1675    0.8815    2.2735 C   0  0  0  0  0  0  0  0  0  0  0  0
    1.4558    1.1116    1.6136 N   0  0  0  0  0  0  0  0  0  0  0  0
    1.6472    2.3431    1.0060 C   0  0  0  0  0  0  0  0  0  0  0  0
    0.7821    3.2144    0.9300 O   0  0  0  0  0  0  0  0  0  0  0  0
    2.9692    2.5862    0.4134 C   0  0  0  0  0  0  0  0  0  0  0  0
    3.2700    3.8681   -0.0788 C   0  0  0  0  0  0  0  0  0  0  0  0
    4.5171    4.1256   -0.6368 C   0  0  0  0  0  0  0  0  0  0  0  0
    5.4596    3.1044   -0.6983 C   0  0  0  0  0  0  0  0  0  0  0  0
    5.1520    1.8275   -0.2088 C   0  0  0  0  0  0  0  0  0  0  0  0
    3.8967    1.5444    0.3528 C   0  0  0  0  0  0  0  0  0  0  0  0
    3.5416    0.2603    0.8594 N   0  0  0  0  0  0  0  0  0  0  0  0
    4.4291   -0.8970    0.6941 C   0  0  0  0  0  0  0  0  0  0  0  0
    4.2381   -1.6041   -0.6365 C   0  0  0  0  0  0  0  0  0  0  0  0
    5.1836   -1.4726   -1.6708 C   0  0  0  0  0  0  0  0  0  0  0  0
    4.9977   -2.1113   -2.9008 C   0  0  0  0  0  0  0  0  0  0  0  0
    3.8630   -2.8973   -3.1185 C   0  0  0  0  0  0  0  0  0  0  0  0
    2.9194   -3.0462   -2.0928 C   0  0  0  0  0  0  0  0  0  0  0  0
    1.7254   -3.8763   -2.3157 N   0  0  0  0  0  4  0  0  0  0  0  0
    0.9617   -4.0703   -1.3526 O   0  0  0  0  0  0  0  0  0  0  0  0
    1.5497   -4.3332   -3.4577 O   0  0  0  0  0  1  0  0  0  0  0  0
    3.1033   -2.4082   -0.8571 C   0  0  0  0  0  0  0  0  0  0  0  0
    2.3269    0.0359    1.5059 C   0  0  0  0  0  0  0  0  0  0  0  0
    2.0251   -1.0767    1.9468 O   0  0  0  0  0  0  0  0  0  0  0  0
   -3.2639   -0.3324    1.2122 N   0  0  0  0  0  0  0  0  0  0  0  0
   -3.1052   -1.0091   -0.0745 C   0  0  0  0  0  0  0  0  0  0  0  0
   -4.2091   -0.6051   -1.0507 C   0  0  0  0  0  0  0  0  0  0  0  0
   -5.5788   -0.7213   -0.4338 C   0  0  0  0  0  0  0  0  0  0  0  0
   -6.7121   -0.8177   -1.2541 C   0  0  0  0  0  0  0  0  0  0  0  0
   -7.9855   -0.8925   -0.6935 C   0  0  0  0  0  0  0  0  0  0  0  0
   -8.1384   -0.8646    0.6894 C   0  0  0  0  0  0  0  0  0  0  0  0
   -7.0173   -0.7551    1.5130 C   0  0  0  0  0  0  0  0  0  0  0  0
   -5.7297   -0.6723    0.9626 C   0  0  0  0  0  0  0  0  0  0  0  0
   -4.5405   -0.5504    1.8896 C   0  0  0  0  0  0  0  0  0  0  0  0
   -0.9987    0.9621    0.4543 H   0  0  0  0  0  0  0  0  0  0  0  0
   -0.5177   -0.6821    0.9525 H   0  0  0  0  0  0  0  0  0  0  0  0
    0.3176    0.2070    3.1260 H   0  0  0  0  0  0  0  0  0  0  0  0
   -0.1977    1.8296    2.6877 H   0  0  0  0  0  0  0  0  0  0  0  0
    2.5317    4.6674   -0.0211 H   0  0  0  0  0  0  0  0  0  0  0  0
    4.7535    5.1180   -1.0154 H   0  0  0  0  0  0  0  0  0  0  0  0
    6.4422    3.3002   -1.1241 H   0  0  0  0  0  0  0  0  0  0  0  0
    5.9385    1.0838   -0.2736 H   0  0  0  0  0  0  0  0  0  0  0  0
    5.4739   -0.6067    0.8462 H   0  0  0  0  0  0  0  0  0  0  0  0
    4.2431   -1.6280    1.4914 H   0  0  0  0  0  0  0  0  0  0  0  0
    6.0843   -0.8738   -1.5324 H   0  0  0  0  0  0  0  0  0  0  0  0
    5.7408   -1.9941   -3.6918 H   0  0  0  0  0  0  0  0  0  0  0  0
    3.7337   -3.3865   -4.0817 H   0  0  0  0  0  0  0  0  0  0  0  0
    2.3704   -2.5384   -0.0596 H   0  0  0  0  0  0  0  0  0  0  0  0
   -2.1331   -0.7994   -0.5286 H   0  0  0  0  0  0  0  0  0  0  0  0
   -3.1399   -2.0893    0.1256 H   0  0  0  0  0  0  0  0  0  0  0  0
   -4.1410   -1.2368   -1.9429 H   0  0  0  0  0  0  0  0  0  0  0  0
   -4.0626    0.4369   -1.3601 H   0  0  0  0  0  0  0  0  0  0  0  0
   -6.6073   -0.8323   -2.3359 H   0  0  0  0  0  0  0  0  0  0  0  0
   -8.8614   -0.9687   -1.3358 H   0  0  0  0  0  0  0  0  0  0  0  0
   -9.1317   -0.9260    1.1286 H   0  0  0  0  0  0  0  0  0  0  0  0
   -7.1530   -0.7282    2.5920 H   0  0  0  0  0  0  0  0  0  0  0  0
   -4.4443   -1.4765    2.4719 H   0  0  0  0  0  0  0  0  0  0  0  0
   -4.7164    0.2772    2.5876 H   0  0  0  0  0  0  0  0  0  0  0  0
  1  2  2  0
  2  3  1  0
  3  4  1  0
  4  5  1  0
  5  6  1  0
  6  7  2  0
  6  8  1  0
  8  9  2  0
  9 10  1  0
 10 11  2  0
 11 12  1  0
 12 13  2  0
 13 14  1  0
 14 15  1  0
 15 16  1  0
 16 17  2  0
 17 18  1  0
 18 19  2  0
 19 20  1  0
 20 21  1  0
 21 22  2  0
 21 23  1  0
 20 24  2  0
 14 25  1  0
 25 26  2  0
  2 27  1  0
 27 28  1  0
 28 29  1  0
 29 30  1  0
 30 31  2  0
 31 32  1  0
 32 33  2  0
 33 34  1  0
 34 35  2  0
 35 36  1  0
 25  5  1  0
 36 27  1  0
 13  8  1  0
 24 16  1  0
 35 30  1  0
  3 37  1  0
  3 38  1  0
  4 39  1  0
  4 40  1  0
  9 41  1  0
 10 42  1  0
 11 43  1  0
 12 44  1  0
 15 45  1  0
 15 46  1  0
 17 47  1  0
 18 48  1  0
 19 49  1  0
 24 50  1  0
 28 51  1  0
 28 52  1  0
 29 53  1  0
 29 54  1  0
 31 55  1  0
 32 56  1  0
 33 57  1  0
 34 58  1  0
 36 59  1  0
 36 60  1  0
M  CHG  2  21   1  23  -1
M  END
$$$$
