
     RDKit          3D

 53 56  0  0  0  0  0  0  0  0999 V2000
    7.6427    0.9270    1.6815 C   0  0  0  0  0  0  0  0  0  0  0  0
    7.2413    0.3417    0.3346 C   0  0  0  0  0  0  0  0  0  0  0  0
    6.4646    1.3384   -0.5251 C   0  0  0  0  0  0  0  0  0  0  0  0
    5.2737    1.7833    0.1235 O   0  0  0  0  0  0  0  0  0  0  0  0
    4.1190    1.0784   -0.0620 C   0  0  0  0  0  0  0  0  0  0  0  0
    3.9914   -0.1492   -0.7045 C   0  0  0  0  0  0  0  0  0  0  0  0
    2.7340   -0.7623   -0.8138 C   0  0  0  0  0  0  0  0  0  0  0  0
    1.5694   -0.1717   -0.2870 C   0  0  0  0  0  0  0  0  0  0  0  0
    0.2477   -0.8225   -0.4085 C   0  0  0  0  0  0  0  0  0  0  0  0
   -0.8181   -0.1680    0.0802 N   0  0  0  0  0  0  0  0  0  0  0  0
   -2.0233   -0.7528   -0.0408 C   0  0  0  0  0  0  0  0  0  0  0  0
   -3.1591   -0.0430    0.4142 N   0  0  0  0  0  0  0  0  0  0  0  0
   -3.8885    0.5913   -0.7123 C   0  0  0  0  0  0  0  0  0  0  0  0
   -4.3068    2.0518   -0.4046 C   0  0  0  0  0  0  0  0  0  0  0  0
   -4.9143    2.2853    0.9221 N   0  0  0  0  0  0  0  0  0  0  0  0
   -6.3304    1.9175    0.9313 C   0  0  0  0  0  0  0  0  0  0  0  0
   -4.1788    1.5524    1.9841 C   0  0  0  0  0  0  0  0  0  0  0  0
   -2.8629    0.8818    1.5251 C   0  0  0  0  0  0  0  0  0  0  0  0
   -2.1755   -2.0249   -0.6248 C   0  0  0  0  0  0  0  0  0  0  0  0
   -3.3997   -2.7339   -0.7325 C   0  0  0  0  0  0  0  0  0  0  0  0
   -3.4518   -3.9918   -1.3282 C   0  0  0  0  0  0  0  0  0  0  0  0
   -2.2840   -4.5591   -1.8174 C   0  0  0  0  0  0  0  0  0  0  0  0
   -1.0754   -3.8675   -1.6975 C   0  0  0  0  0  0  0  0  0  0  0  0
   -0.9995   -2.6127   -1.1032 C   0  0  0  0  0  0  0  0  0  0  0  0
    0.1946   -2.0230   -1.0093 N   0  0  0  0  0  0  0  0  0  0  0  0
    1.7255    1.0662    0.3616 C   0  0  0  0  0  0  0  0  0  0  0  0
    2.9798    1.6786    0.4743 C   0  0  0  0  0  0  0  0  0  0  0  0
    8.2264    0.1960    2.2510 H   0  0  0  0  0  0  0  0  0  0  0  0
    6.7632    1.1939    2.2779 H   0  0  0  0  0  0  0  0  0  0  0  0
    8.2571    1.8245    1.5508 H   0  0  0  0  0  0  0  0  0  0  0  0
    6.6397   -0.5555    0.5176 H   0  0  0  0  0  0  0  0  0  0  0  0
    8.1421    0.0273   -0.2050 H   0  0  0  0  0  0  0  0  0  0  0  0
    6.2655    0.9441   -1.5282 H   0  0  0  0  0  0  0  0  0  0  0  0
    7.0844    2.2300   -0.6785 H   0  0  0  0  0  0  0  0  0  0  0  0
    4.8437   -0.6703   -1.1267 H   0  0  0  0  0  0  0  0  0  0  0  0
    2.6701   -1.7241   -1.3221 H   0  0  0  0  0  0  0  0  0  0  0  0
   -3.2943    0.5985   -1.6366 H   0  0  0  0  0  0  0  0  0  0  0  0
   -4.7898   -0.0011   -0.9114 H   0  0  0  0  0  0  0  0  0  0  0  0
   -3.4105    2.6841   -0.4675 H   0  0  0  0  0  0  0  0  0  0  0  0
   -4.9654    2.4207   -1.2008 H   0  0  0  0  0  0  0  0  0  0  0  0
   -6.7740    2.1244    1.9123 H   0  0  0  0  0  0  0  0  0  0  0  0
   -6.4869    0.8566    0.6976 H   0  0  0  0  0  0  0  0  0  0  0  0
   -6.8910    2.5159    0.2031 H   0  0  0  0  0  0  0  0  0  0  0  0
   -4.8112    0.7696    2.4254 H   0  0  0  0  0  0  0  0  0  0  0  0
   -3.9541    2.2601    2.7908 H   0  0  0  0  0  0  0  0  0  0  0  0
   -2.4399    0.3270    2.3722 H   0  0  0  0  0  0  0  0  0  0  0  0
   -2.1402    1.6564    1.2344 H   0  0  0  0  0  0  0  0  0  0  0  0
   -4.3132   -2.3035   -0.3286 H   0  0  0  0  0  0  0  0  0  0  0  0
   -4.3959   -4.5251   -1.4017 H   0  0  0  0  0  0  0  0  0  0  0  0
   -2.3038   -5.5410   -2.2833 H   0  0  0  0  0  0  0  0  0  0  0  0
   -0.1629   -4.3256   -2.0736 H   0  0  0  0  0  0  0  0  0  0  0  0
    0.8613    1.5707    0.7914 H   0  0  0  0  0  0  0  0  0  0  0  0
    3.0642    2.6351    0.9847 H   0  0  0  0  0  0  0  0  0  0  0  0
  1  2  1  0
  2  3  1  0
  3  4  1  0
  4  5  1  0
  5  6  2  0
  6  7  1  0
  7  8  2  0
  8  9  1  0
  9 10  2  0
 10 11  1  0
 11 12  1  0
 12 13  1  0
 13 14  1  0
 14 15  1  0
 15 16  1  0
 15 17  1  0
 17 18  1  0
 11 19  2  0
 19 20  1  0
 20 21  2  0
 21 22  1  0
 22 23  2  0
 23 24  1  0
 24 25  2  0
  8 26  1  0
 26 27  2  0
 27  5  1  0
 25  9  1  0
 18 12  1  0
 24 19  1  0
  1 28  1  0
  1 29  1  0
  1 30  1  0
  2 31  1  0
  2 32  1  0
  3 33  1  0
  3 34  1  0
  6 35  1  0
  7 36  1  0
 13 37  1  0
 13 38  1  0
 14 39  1  0
 14 40  1  0
 16 41  1  0
 16 42  1  0
 16 43  1  0
 17 44  1  0
 17 45  1  0
 18 46  1  0
 18 47  1  0
 20 48  1  0
 21 49  1  0
 22 50  1  0
 23 51  1  0
 26 52  1  0
 27 53  1  0
M  END
$$$$
