
     RDKit          3D

 58 60  0  0  0  0  0  0  0  0999 V2000
    8.6840    1.5612   -0.6589 C   0  0  0  0  0  0  0  0  0  0  0  0
    7.8432    1.3490    0.5888 C   0  0  0  0  0  0  0  0  0  0  0  0
    6.7047    0.3638    0.3343 C   0  0  0  0  0  0  0  0  0  0  0  0
    5.8627    0.1439    1.5887 C   0  0  0  0  0  0  0  0  0  0  0  0
    4.8596   -0.8444    1.3500 O   0  0  0  0  0  0  0  0  0  0  0  0
    3.6385   -0.4524    0.8825 C   0  0  0  0  0  0  0  0  0  0  0  0
    2.6994   -1.4844    0.7923 C   0  0  0  0  0  0  0  0  0  0  0  0
    1.4035   -1.2375    0.3309 C   0  0  0  0  0  0  0  0  0  0  0  0
    1.0312    0.0567   -0.0461 C   0  0  0  0  0  0  0  0  0  0  0  0
   -0.3496    0.3600   -0.5330 C   0  0  0  0  0  0  0  0  0  0  0  0
   -0.6703    1.5231   -0.7477 O   0  0  0  0  0  0  0  0  0  0  0  0
   -1.1801   -0.7262   -0.6675 N   0  0  0  0  0  0  0  0  0  0  0  0
   -2.2215   -0.6447   -1.4455 C   0  0  0  0  0  0  0  0  0  0  0  0
   -3.1596   -1.8156   -1.6241 C   0  0  0  0  0  0  0  0  0  0  0  0
   -3.3920   -2.6087   -0.3594 C   0  0  0  0  0  0  0  0  0  0  0  0
   -4.3199   -2.1625    0.5942 C   0  0  0  0  0  0  0  0  0  0  0  0
   -4.5252   -2.8822    1.7741 C   0  0  0  0  0  0  0  0  0  0  0  0
   -3.7923   -4.0536    2.0047 C   0  0  0  0  0  0  0  0  0  0  0  0
   -4.0038   -4.8129    3.2434 N   0  0  0  0  0  4  0  0  0  0  0  0
   -3.3181   -5.8301    3.4202 O   0  0  0  0  0  0  0  0  0  0  0  0
   -4.8576   -4.3948    4.0390 O   0  0  0  0  0  1  0  0  0  0  0  0
   -2.8580   -4.5061    1.0646 C   0  0  0  0  0  0  0  0  0  0  0  0
   -2.6603   -3.7807   -0.1125 C   0  0  0  0  0  0  0  0  0  0  0  0
   -2.5629    0.5488   -2.3110 C   0  0  0  0  0  0  0  0  0  0  0  0
   -2.1087    0.6816   -3.4315 O   0  0  0  0  0  0  0  0  0  0  0  0
   -3.4492    1.3200   -1.6583 O   0  0  0  0  0  0  0  0  0  0  0  0
   -3.7448    2.5306   -2.3552 C   0  0  0  0  0  0  0  0  0  0  0  0
   -4.5930    3.3387   -1.4463 C   0  0  0  0  0  0  0  0  0  0  0  0
   -4.3878    3.8795   -0.1933 C   0  0  0  0  0  0  0  0  0  0  0  0
   -5.5820    4.5576    0.1492 C   0  0  0  0  0  0  0  0  0  0  0  0
   -6.4385    4.3862   -0.9132 C   0  0  0  0  0  0  0  0  0  0  0  0
   -5.8464    3.6487   -1.8881 O   0  0  0  0  0  0  0  0  0  0  0  0
    1.9720    1.0911    0.0393 C   0  0  0  0  0  0  0  0  0  0  0  0
    3.2706    0.8367    0.4986 C   0  0  0  0  0  0  0  0  0  0  0  0
    9.4974    2.2637   -0.4523 H   0  0  0  0  0  0  0  0  0  0  0  0
    9.1261    0.6198   -1.0003 H   0  0  0  0  0  0  0  0  0  0  0  0
    8.0797    1.9723   -1.4737 H   0  0  0  0  0  0  0  0  0  0  0  0
    8.4852    0.9771    1.3960 H   0  0  0  0  0  0  0  0  0  0  0  0
    7.4352    2.3125    0.9155 H   0  0  0  0  0  0  0  0  0  0  0  0
    7.1058   -0.5997   -0.0060 H   0  0  0  0  0  0  0  0  0  0  0  0
    6.0720    0.7272   -0.4838 H   0  0  0  0  0  0  0  0  0  0  0  0
    6.5048   -0.2586    2.3809 H   0  0  0  0  0  0  0  0  0  0  0  0
    5.4472    1.0757    1.9869 H   0  0  0  0  0  0  0  0  0  0  0  0
    2.9796   -2.4924    1.0897 H   0  0  0  0  0  0  0  0  0  0  0  0
    0.6955   -2.0608    0.2814 H   0  0  0  0  0  0  0  0  0  0  0  0
   -4.1262   -1.4610   -2.0030 H   0  0  0  0  0  0  0  0  0  0  0  0
   -2.7420   -2.4618   -2.4060 H   0  0  0  0  0  0  0  0  0  0  0  0
   -4.8883   -1.2484    0.4258 H   0  0  0  0  0  0  0  0  0  0  0  0
   -5.2517   -2.5166    2.4978 H   0  0  0  0  0  0  0  0  0  0  0  0
   -2.2787   -5.4116    1.2328 H   0  0  0  0  0  0  0  0  0  0  0  0
   -1.9251   -4.1324   -0.8346 H   0  0  0  0  0  0  0  0  0  0  0  0
   -4.2796    2.3006   -3.2834 H   0  0  0  0  0  0  0  0  0  0  0  0
   -2.8222    3.0779   -2.5845 H   0  0  0  0  0  0  0  0  0  0  0  0
   -3.4849    3.7892    0.3951 H   0  0  0  0  0  0  0  0  0  0  0  0
   -5.7947    5.1028    1.0585 H   0  0  0  0  0  0  0  0  0  0  0  0
   -7.4488    4.7102   -1.1217 H   0  0  0  0  0  0  0  0  0  0  0  0
    1.7000    2.1051   -0.2496 H   0  0  0  0  0  0  0  0  0  0  0  0
    3.9654    1.6685    0.5356 H   0  0  0  0  0  0  0  0  0  0  0  0
  1  2  1  0
  2  3  1  0
  3  4  1  0
  4  5  1  0
  5  6  1  0
  6  7  2  0
  7  8  1  0
  8  9  2  0
  9 10  1  0
 10 11  2  0
 10 12  1  0
 12 13  2  3
 13 14  1  0
 14 15  1  0
 15 16  2  0
 16 17  1  0
 17 18  2  0
 18 19  1  0
 19 20  2  0
 19 21  1  0
 18 22  1  0
 22 23  2  0
 13 24  1  0
 24 25  2  0
 24 26  1  0
 26 27  1  0
 27 28  1  0
 28 29  2  0
 29 30  1  0
 30 31  2  0
 31 32  1  0
  9 33  1  0
 33 34  2  0
 34  6  1  0
 23 15  1  0
 32 28  1  0
  1 35  1  0
  1 36  1  0
  1 37  1  0
  2 38  1  0
  2 39  1  0
  3 40  1  0
  3 41  1  0
  4 42  1  0
  4 43  1  0
  7 44  1  0
  8 45  1  0
 14 46  1  0
 14 47  1  0
 16 48  1  0
 17 49  1  0
 22 50  1  0
 23 51  1  0
 27 52  1  0
 27 53  1  0
 29 54  1  0
 30 55  1  0
 31 56  1  0
 33 57  1  0
 34 58  1  0
M  CHG  2  19   1  21  -1
M  END
$$$$
