
     RDKit          3D

 67 69  0  0  0  0  0  0  0  0999 V2000
   -0.2124   -2.1549   -0.1768 C   0  0  0  0  0  0  0  0  0  0  0  0
   -0.4373   -0.8329   -0.9040 C   0  0  0  0  0  0  0  0  0  0  0  0
   -1.8267   -0.4042   -0.7667 N   0  0  0  0  0  0  0  0  0  0  0  0
   -2.8362   -0.9210   -1.5411 C   0  0  0  0  0  0  0  0  0  0  0  0
   -2.6431   -1.7681   -2.4064 O   0  0  0  0  0  0  0  0  0  0  0  0
   -4.2131   -0.4234   -1.2660 C   0  0  0  0  0  0  0  0  0  0  0  0
   -5.2938   -1.2383   -1.6121 C   0  0  0  0  0  0  0  0  0  0  0  0
   -6.6085   -0.8197   -1.3717 C   0  0  0  0  0  0  0  0  0  0  0  0
   -6.8809    0.4276   -0.7865 C   0  0  0  0  0  0  0  0  0  0  0  0
   -8.3132    0.9191   -0.5077 C   0  0  0  0  0  0  0  0  0  0  0  0
   -8.4767    1.2205    0.9983 C   0  0  0  0  0  0  0  0  0  0  0  0
   -9.4090   -0.1019   -0.8893 C   0  0  0  0  0  0  0  0  0  0  0  0
   -8.5848    2.2060   -1.3158 C   0  0  0  0  0  0  0  0  0  0  0  0
   -5.7777    1.2425   -0.4619 C   0  0  0  0  0  0  0  0  0  0  0  0
   -4.4609    0.8284   -0.6996 C   0  0  0  0  0  0  0  0  0  0  0  0
    0.4515    0.2712   -0.2939 C   0  0  0  0  0  0  0  0  0  0  0  0
   -0.0427    1.0991    0.4835 O   0  0  0  0  0  0  0  0  0  0  0  0
    1.8043    0.2828   -0.5955 N   0  0  0  0  0  0  0  0  0  0  0  0
    2.6249    1.3297    0.0169 C   0  0  0  0  0  0  0  0  0  0  0  0
    4.0986    1.3076   -0.4295 C   0  0  0  0  0  0  0  0  0  0  0  0
    4.6375   -0.0573   -0.3870 N   0  0  0  0  0  0  0  0  0  0  0  0
    6.0810   -0.0808   -0.6295 C   0  0  0  0  0  0  0  0  0  0  0  0
    6.6932   -1.4127   -0.2913 C   0  0  0  0  0  0  0  0  0  0  0  0
    7.4133   -1.7293    0.7986 C   0  0  0  0  0  0  0  0  0  0  0  0
    7.6783   -0.8432    1.9356 C   0  0  0  0  0  0  0  0  0  0  0  0
    8.9986   -0.5597    2.2989 C   0  0  0  0  0  0  0  0  0  0  0  0
    9.2672    0.2590    3.3988 C   0  0  0  0  0  0  0  0  0  0  0  0
    8.2177    0.7910    4.1463 C   0  0  0  0  0  0  0  0  0  0  0  0
    6.8984    0.5115    3.7928 C   0  0  0  0  0  0  0  0  0  0  0  0
    6.6298   -0.3066    2.6937 C   0  0  0  0  0  0  0  0  0  0  0  0
    3.8768   -0.9695   -1.2615 C   0  0  0  0  0  0  0  0  0  0  0  0
    2.4551   -0.4962   -1.6493 C   0  0  0  0  0  0  0  0  0  0  0  0
   -0.8423   -2.9474   -0.5947 H   0  0  0  0  0  0  0  0  0  0  0  0
    0.8294   -2.4839   -0.2397 H   0  0  0  0  0  0  0  0  0  0  0  0
   -0.4606   -2.0628    0.8871 H   0  0  0  0  0  0  0  0  0  0  0  0
   -0.2316   -0.9294   -1.9741 H   0  0  0  0  0  0  0  0  0  0  0  0
   -2.0180    0.2212    0.0087 H   0  0  0  0  0  0  0  0  0  0  0  0
   -5.1183   -2.2104   -2.0698 H   0  0  0  0  0  0  0  0  0  0  0  0
   -7.4058   -1.4997   -1.6595 H   0  0  0  0  0  0  0  0  0  0  0  0
   -8.2474    0.3359    1.6050 H   0  0  0  0  0  0  0  0  0  0  0  0
   -9.5034    1.5275    1.2308 H   0  0  0  0  0  0  0  0  0  0  0  0
   -7.8178    2.0298    1.3333 H   0  0  0  0  0  0  0  0  0  0  0  0
  -10.4087    0.2894   -0.6649 H   0  0  0  0  0  0  0  0  0  0  0  0
   -9.2973   -1.0399   -0.3328 H   0  0  0  0  0  0  0  0  0  0  0  0
   -9.3889   -0.3352   -1.9603 H   0  0  0  0  0  0  0  0  0  0  0  0
   -9.6097    2.5612   -1.1586 H   0  0  0  0  0  0  0  0  0  0  0  0
   -7.9145    3.0236   -1.0298 H   0  0  0  0  0  0  0  0  0  0  0  0
   -8.4525    2.0324   -2.3903 H   0  0  0  0  0  0  0  0  0  0  0  0
   -5.9302    2.2263   -0.0212 H   0  0  0  0  0  0  0  0  0  0  0  0
   -3.6511    1.5105   -0.4572 H   0  0  0  0  0  0  0  0  0  0  0  0
    2.5599    1.1977    1.1044 H   0  0  0  0  0  0  0  0  0  0  0  0
    2.1818    2.3039   -0.2228 H   0  0  0  0  0  0  0  0  0  0  0  0
    4.1880    1.7193   -1.4437 H   0  0  0  0  0  0  0  0  0  0  0  0
    4.6629    1.9694    0.2387 H   0  0  0  0  0  0  0  0  0  0  0  0
    6.3055    0.1579   -1.6774 H   0  0  0  0  0  0  0  0  0  0  0  0
    6.5706    0.7034   -0.0400 H   0  0  0  0  0  0  0  0  0  0  0  0
    6.5621   -2.1875   -1.0434 H   0  0  0  0  0  0  0  0  0  0  0  0
    7.8369   -2.7278    0.8876 H   0  0  0  0  0  0  0  0  0  0  0  0
    9.8265   -0.9686    1.7253 H   0  0  0  0  0  0  0  0  0  0  0  0
   10.2955    0.4786    3.6732 H   0  0  0  0  0  0  0  0  0  0  0  0
    8.4268    1.4254    5.0038 H   0  0  0  0  0  0  0  0  0  0  0  0
    6.0777    0.9223    4.3741 H   0  0  0  0  0  0  0  0  0  0  0  0
    5.5954   -0.5224    2.4298 H   0  0  0  0  0  0  0  0  0  0  0  0
    4.4138   -1.1768   -2.1961 H   0  0  0  0  0  0  0  0  0  0  0  0
    3.7843   -1.9249   -0.7302 H   0  0  0  0  0  0  0  0  0  0  0  0
    2.5144    0.1638   -2.5244 H   0  0  0  0  0  0  0  0  0  0  0  0
    1.8577   -1.3594   -1.9477 H   0  0  0  0  0  0  0  0  0  0  0  0
  1  2  1  0
  2  3  1  0
  3  4  1  0
  4  5  2  0
  4  6  1  0
  6  7  2  0
  7  8  1  0
  8  9  2  0
  9 10  1  0
 10 11  1  0
 10 12  1  0
 10 13  1  0
  9 14  1  0
 14 15  2  0
  2 16  1  0
 16 17  2  0
 16 18  1  0
 18 19  1  0
 19 20  1  0
 20 21  1  0
 21 22  1  0
 22 23  1  0
 23 24  2  3
 24 25  1  0
 25 26  2  0
 26 27  1  0
 27 28  2  0
 28 29  1  0
 29 30  2  0
 21 31  1  0
 31 32  1  0
 15  6  1  0
 32 18  1  0
 30 25  1  0
  1 33  1  0
  1 34  1  0
  1 35  1  0
  2 36  1  0
  3 37  1  0
  7 38  1  0
  8 39  1  0
 11 40  1  0
 11 41  1  0
 11 42  1  0
 12 43  1  0
 12 44  1  0
 12 45  1  0
 13 46  1  0
 13 47  1  0
 13 48  1  0
 14 49  1  0
 15 50  1  0
 19 51  1  0
 19 52  1  0
 20 53  1  0
 20 54  1  0
 22 55  1  0
 22 56  1  0
 23 57  1  0
 24 58  1  0
 26 59  1  0
 27 60  1  0
 28 61  1  0
 29 62  1  0
 30 63  1  0
 31 64  1  0
 31 65  1  0
 32 66  1  0
 32 67  1  0
M  END
$$$$
