
     RDKit          3D

 33 36  0  0  0  0  0  0  0  0999 V2000
    2.2192   -2.5043   -0.7042 O   0  0  0  0  0  0  0  0  0  0  0  0
    2.0133   -1.3733   -0.2936 C   0  0  0  0  0  0  0  0  0  0  0  0
    0.6057   -0.9016   -0.0075 C   0  0  0  0  0  0  0  0  0  0  0  0
   -0.3437   -1.3382   -0.7845 N   0  0  0  0  0  0  0  0  0  0  0  0
   -1.6694   -0.9462   -0.5519 C   0  0  0  0  0  0  0  0  0  0  0  0
   -2.4571   -1.7108    0.3739 C   0  0  0  0  0  0  0  0  0  0  0  0
   -3.7996   -1.4285    0.7040 C   0  0  0  0  0  0  0  0  0  0  0  0
   -4.2522   -0.3221    0.0003 C   0  0  0  0  0  0  0  0  0  0  0  0
   -5.5046    0.2163    0.0842 C   0  0  0  0  0  0  0  0  0  0  0  0
   -5.4842    1.2705   -0.7837 N   0  0  0  0  0  0  0  0  0  0  0  0
   -4.3070    1.4513   -1.4145 N   0  0  0  0  0  0  0  0  0  0  0  0
   -3.5154    0.4685   -0.9527 C   0  0  0  0  0  0  0  0  0  0  0  0
   -2.1819    0.1618   -1.2632 C   0  0  0  0  0  0  0  0  0  0  0  0
    0.4823    0.0432    1.1517 C   0  0  0  0  0  0  0  0  0  0  0  0
    0.5730   -0.9131    2.6550 Cl  0  0  0  0  0  0  0  0  0  0  0  0
    1.5620    1.0931    1.2040 C   0  0  0  0  0  0  0  0  0  0  0  0
    1.3914    2.1796    1.7536 O   0  0  0  0  0  0  0  0  0  0  0  0
    2.8862    0.7776    0.6146 C   0  0  0  0  0  0  0  0  0  0  0  0
    3.9409    1.6858    0.7827 C   0  0  0  0  0  0  0  0  0  0  0  0
    5.2072    1.3946    0.2717 C   0  0  0  0  0  0  0  0  0  0  0  0
    5.4285    0.1965   -0.4053 C   0  0  0  0  0  0  0  0  0  0  0  0
    4.3822   -0.7097   -0.5788 C   0  0  0  0  0  0  0  0  0  0  0  0
    3.1085   -0.4149   -0.0746 C   0  0  0  0  0  0  0  0  0  0  0  0
   -1.9853   -2.5724    0.8495 H   0  0  0  0  0  0  0  0  0  0  0  0
   -4.3763   -2.0143    1.4055 H   0  0  0  0  0  0  0  0  0  0  0  0
   -6.3868   -0.0362    0.6540 H   0  0  0  0  0  0  0  0  0  0  0  0
   -6.2394    1.9136   -0.9967 H   0  0  0  0  0  0  0  0  0  0  0  0
   -1.6070    0.7237   -1.9842 H   0  0  0  0  0  0  0  0  0  0  0  0
   -0.4796    0.5607    1.1400 H   0  0  0  0  0  0  0  0  0  0  0  0
    3.7865    2.6209    1.3201 H   0  0  0  0  0  0  0  0  0  0  0  0
    6.0234    2.1015    0.4078 H   0  0  0  0  0  0  0  0  0  0  0  0
    6.4167   -0.0320   -0.7996 H   0  0  0  0  0  0  0  0  0  0  0  0
    4.5628   -1.6418   -1.1133 H   0  0  0  0  0  0  0  0  0  0  0  0
  1  2  2  0
  2  3  1  0
  3  4  2  3
  4  5  1  0
  5  6  1  0
  6  7  2  0
  7  8  1  0
  8  9  2  0
  9 10  1  0
 10 11  1  0
 11 12  2  0
 12 13  1  0
  3 14  1  0
 14 15  1  0
 14 16  1  0
 16 17  2  0
 16 18  1  0
 18 19  2  0
 19 20  1  0
 20 21  2  0
 21 22  1  0
 22 23  2  0
 23  2  1  0
 13  5  2  0
 23 18  1  0
 12  8  1  0
  6 24  1  0
  7 25  1  0
  9 26  1  0
 10 27  1  0
 13 28  1  0
 14 29  1  0
 19 30  1  0
 20 31  1  0
 21 32  1  0
 22 33  1  0
M  END
$$$$
