
     RDKit          3D

 50 53  0  0  0  0  0  0  0  0999 V2000
    6.8266    0.6191   -1.0700 C   0  0  0  0  0  0  0  0  0  0  0  0
    6.2213   -0.6228   -0.4336 C   0  0  0  0  0  0  0  0  0  0  0  0
    5.4624   -0.2870    0.7790 N   0  0  0  0  0  0  0  0  0  0  0  0
    6.2278   -0.2208    2.0322 C   0  0  0  0  0  0  0  0  0  0  0  0
    6.3608    1.2101    2.5364 C   0  0  0  0  0  0  0  0  0  0  0  0
    4.0853   -0.0908    0.7411 C   0  0  0  0  0  0  0  0  0  0  0  0
    3.2930   -0.1018    1.9021 C   0  0  0  0  0  0  0  0  0  0  0  0
    1.9032    0.0918    1.8702 C   0  0  0  0  0  0  0  0  0  0  0  0
    1.2483    0.3010    0.6601 C   0  0  0  0  0  0  0  0  0  0  0  0
   -0.2005    0.5169    0.6462 C   0  0  0  0  0  0  0  0  0  0  0  0
   -1.1114   -0.2925    0.0875 C   0  0  0  0  0  0  0  0  0  0  0  0
   -0.8242   -1.7995   -0.7474 S   0  0  0  0  0  0  0  0  0  0  0  0
   -2.5120   -1.9669   -1.0003 C   0  0  0  0  0  0  0  0  0  0  0  0
   -3.2601   -2.8438   -1.6029 N   0  0  0  0  0  0  0  0  0  0  0  0
   -4.5612   -2.3859   -1.4642 N   0  0  0  0  0  0  0  0  0  0  0  0
   -4.5535   -1.2491   -0.7728 C   0  0  0  0  0  0  0  0  0  0  0  0
   -5.7259   -0.4449   -0.4288 C   0  0  0  0  0  0  0  0  0  0  0  0
   -5.9620   -0.0949    0.9115 C   0  0  0  0  0  0  0  0  0  0  0  0
   -7.0853    0.6510    1.2720 C   0  0  0  0  0  0  0  0  0  0  0  0
   -7.9962    1.0472    0.2996 C   0  0  0  0  0  0  0  0  0  0  0  0
   -7.7854    0.6984   -1.0335 C   0  0  0  0  0  0  0  0  0  0  0  0
   -6.6534   -0.0429   -1.4148 C   0  0  0  0  0  0  0  0  0  0  0  0
   -6.4855   -0.4090   -2.8663 C   0  0  0  0  0  0  0  0  0  0  0  0
   -3.2454   -0.9591   -0.4753 N   0  0  0  0  0  0  0  0  0  0  0  0
   -2.5630    0.0490    0.1610 C   0  0  0  0  0  0  0  0  0  0  0  0
   -3.1044    1.0114    0.6706 O   0  0  0  0  0  0  0  0  0  0  0  0
    2.0042    0.3331   -0.5084 C   0  0  0  0  0  0  0  0  0  0  0  0
    3.3931    0.1365   -0.4612 C   0  0  0  0  0  0  0  0  0  0  0  0
    7.5515    1.0912   -0.3996 H   0  0  0  0  0  0  0  0  0  0  0  0
    7.3499    0.3525   -1.9936 H   0  0  0  0  0  0  0  0  0  0  0  0
    6.0628    1.3638   -1.3135 H   0  0  0  0  0  0  0  0  0  0  0  0
    5.6074   -1.1669   -1.1607 H   0  0  0  0  0  0  0  0  0  0  0  0
    7.0310   -1.3198   -0.1828 H   0  0  0  0  0  0  0  0  0  0  0  0
    5.7898   -0.8682    2.7999 H   0  0  0  0  0  0  0  0  0  0  0  0
    7.2406   -0.6131    1.8763 H   0  0  0  0  0  0  0  0  0  0  0  0
    5.3900    1.6514    2.7799 H   0  0  0  0  0  0  0  0  0  0  0  0
    6.9750    1.2333    3.4422 H   0  0  0  0  0  0  0  0  0  0  0  0
    6.8376    1.8508    1.7882 H   0  0  0  0  0  0  0  0  0  0  0  0
    3.7367   -0.2758    2.8773 H   0  0  0  0  0  0  0  0  0  0  0  0
    1.3489    0.0680    2.8055 H   0  0  0  0  0  0  0  0  0  0  0  0
   -0.5233    1.4197    1.1643 H   0  0  0  0  0  0  0  0  0  0  0  0
   -5.2749   -0.4035    1.6962 H   0  0  0  0  0  0  0  0  0  0  0  0
   -7.2495    0.9175    2.3129 H   0  0  0  0  0  0  0  0  0  0  0  0
   -8.8747    1.6235    0.5783 H   0  0  0  0  0  0  0  0  0  0  0  0
   -8.5149    1.0086   -1.7792 H   0  0  0  0  0  0  0  0  0  0  0  0
   -7.1713    0.1610   -3.5025 H   0  0  0  0  0  0  0  0  0  0  0  0
   -5.4714   -0.1811   -3.2105 H   0  0  0  0  0  0  0  0  0  0  0  0
   -6.6956   -1.4727   -3.0151 H   0  0  0  0  0  0  0  0  0  0  0  0
    1.5346    0.5166   -1.4717 H   0  0  0  0  0  0  0  0  0  0  0  0
    3.9235    0.1896   -1.4071 H   0  0  0  0  0  0  0  0  0  0  0  0
  1  2  1  0
  2  3  1  0
  3  4  1  0
  4  5  1  0
  3  6  1  0
  6  7  2  0
  7  8  1  0
  8  9  2  0
  9 10  1  0
 10 11  2  3
 11 12  1  0
 12 13  1  0
 13 14  2  0
 14 15  1  0
 15 16  2  0
 16 17  1  0
 17 18  2  0
 18 19  1  0
 19 20  2  0
 20 21  1  0
 21 22  2  0
 22 23  1  0
 16 24  1  0
 24 25  1  0
 25 26  2  0
  9 27  1  0
 27 28  2  0
 28  6  1  0
 25 11  1  0
 24 13  1  0
 22 17  1  0
  1 29  1  0
  1 30  1  0
  1 31  1  0
  2 32  1  0
  2 33  1  0
  4 34  1  0
  4 35  1  0
  5 36  1  0
  5 37  1  0
  5 38  1  0
  7 39  1  0
  8 40  1  0
 10 41  1  0
 18 42  1  0
 19 43  1  0
 20 44  1  0
 21 45  1  0
 23 46  1  0
 23 47  1  0
 23 48  1  0
 27 49  1  0
 28 50  1  0
M  END
$$$$
