
     RDKit          3D

 57 61  0  0  0  0  0  0  0  0999 V2000
   -6.6862    1.9943   -1.4423 C   0  0  0  0  0  0  0  0  0  0  0  0
   -5.4353    1.9412   -2.0498 C   0  0  0  0  0  0  0  0  0  0  0  0
   -4.2931    1.6777   -1.2877 C   0  0  0  0  0  0  0  0  0  0  0  0
   -4.3777    1.4711    0.1008 C   0  0  0  0  0  0  0  0  0  0  0  0
   -3.1886    1.1506    1.0007 C   0  0  0  0  0  0  0  0  0  0  0  0
   -2.7773   -0.3105    1.1262 C   0  0  0  0  0  0  0  0  0  0  0  0
   -2.2021   -0.7583    2.3313 C   0  0  0  0  0  0  0  0  0  0  0  0
   -1.7980   -2.0862    2.4869 C   0  0  0  0  0  0  0  0  0  0  0  0
   -1.9570   -2.9899    1.4403 C   0  0  0  0  0  0  0  0  0  0  0  0
   -2.5174   -2.5662    0.2382 C   0  0  0  0  0  0  0  0  0  0  0  0
   -2.9222   -1.2380    0.0807 C   0  0  0  0  0  0  0  0  0  0  0  0
   -1.9745    1.9076    0.5443 C   0  0  0  0  0  0  0  0  0  0  0  0
   -1.5128    2.9734    1.2225 N   0  0  0  0  0  0  0  0  0  0  0  0
   -0.3494    3.3204    0.5368 O   0  0  0  0  0  0  0  0  0  0  0  0
   -0.2189    2.4283   -0.4867 C   0  0  0  0  0  0  0  0  0  0  0  0
    0.9969    2.5590   -1.3433 C   0  0  0  0  0  0  0  0  0  0  0  0
    2.0546    1.5424   -1.1367 N   0  0  0  0  0  0  0  0  0  0  0  0
    1.5966    0.1897   -1.4854 C   0  0  0  0  0  0  0  0  0  0  0  0
    2.7575   -0.8044   -1.4233 C   0  0  0  0  0  0  0  0  0  0  0  0
    3.4107   -0.7922   -0.0334 C   0  0  0  0  0  0  0  0  0  0  0  0
    4.5792   -1.7546    0.0544 C   0  0  0  0  0  0  0  0  0  0  0  0
    5.7269   -1.6014   -0.7306 C   0  0  0  0  0  0  0  0  0  0  0  0
    6.7553   -2.5237   -0.6028 C   0  0  0  0  0  0  0  0  0  0  0  0
    6.7226   -3.5757    0.2414 N   0  0  0  0  0  0  0  0  0  0  0  0
    5.6089   -3.7093    0.9913 C   0  0  0  0  0  0  0  0  0  0  0  0
    4.5290   -2.8402    0.9351 C   0  0  0  0  0  0  0  0  0  0  0  0
    3.8061    0.6417    0.3503 C   0  0  0  0  0  0  0  0  0  0  0  0
    2.6128    1.5907    0.2207 C   0  0  0  0  0  0  0  0  0  0  0  0
   -1.1973    1.5528   -0.5411 N   0  0  0  0  0  0  0  0  0  0  0  0
   -5.6577    1.5150    0.6892 C   0  0  0  0  0  0  0  0  0  0  0  0
   -6.7986    1.7790   -0.0728 C   0  0  0  0  0  0  0  0  0  0  0  0
   -7.5730    2.1983   -2.0367 H   0  0  0  0  0  0  0  0  0  0  0  0
   -5.3449    2.1002   -3.1213 H   0  0  0  0  0  0  0  0  0  0  0  0
   -3.3380    1.6277   -1.8056 H   0  0  0  0  0  0  0  0  0  0  0  0
   -3.4460    1.5121    2.0077 H   0  0  0  0  0  0  0  0  0  0  0  0
   -2.0625   -0.0689    3.1630 H   0  0  0  0  0  0  0  0  0  0  0  0
   -1.3615   -2.4152    3.4269 H   0  0  0  0  0  0  0  0  0  0  0  0
   -1.6460   -4.0244    1.5600 H   0  0  0  0  0  0  0  0  0  0  0  0
   -2.6410   -3.2693   -0.5816 H   0  0  0  0  0  0  0  0  0  0  0  0
   -3.3472   -0.9394   -0.8743 H   0  0  0  0  0  0  0  0  0  0  0  0
    1.4371    3.5542   -1.2013 H   0  0  0  0  0  0  0  0  0  0  0  0
    0.6836    2.5330   -2.3947 H   0  0  0  0  0  0  0  0  0  0  0  0
    0.7994   -0.1535   -0.8146 H   0  0  0  0  0  0  0  0  0  0  0  0
    1.1944    0.1817   -2.5058 H   0  0  0  0  0  0  0  0  0  0  0  0
    3.4897   -0.5509   -2.2009 H   0  0  0  0  0  0  0  0  0  0  0  0
    2.3886   -1.8107   -1.6576 H   0  0  0  0  0  0  0  0  0  0  0  0
    2.6468   -1.1199    0.6868 H   0  0  0  0  0  0  0  0  0  0  0  0
    5.8274   -0.7825   -1.4351 H   0  0  0  0  0  0  0  0  0  0  0  0
    7.6600   -2.4361   -1.1973 H   0  0  0  0  0  0  0  0  0  0  0  0
    5.6032   -4.5634    1.6623 H   0  0  0  0  0  0  0  0  0  0  0  0
    3.6665   -3.0158    1.5696 H   0  0  0  0  0  0  0  0  0  0  0  0
    4.1810    0.6657    1.3812 H   0  0  0  0  0  0  0  0  0  0  0  0
    4.6226    1.0051   -0.2873 H   0  0  0  0  0  0  0  0  0  0  0  0
    1.8585    1.3286    0.9737 H   0  0  0  0  0  0  0  0  0  0  0  0
    2.9596    2.6067    0.4456 H   0  0  0  0  0  0  0  0  0  0  0  0
   -5.7766    1.3397    1.7572 H   0  0  0  0  0  0  0  0  0  0  0  0
   -7.7746    1.8125    0.4046 H   0  0  0  0  0  0  0  0  0  0  0  0
  1  2  2  0
  2  3  1  0
  3  4  2  0
  4  5  1  0
  5  6  1  0
  6  7  2  0
  7  8  1  0
  8  9  2  0
  9 10  1  0
 10 11  2  0
  5 12  1  0
 12 13  2  0
 13 14  1  0
 14 15  1  0
 15 16  1  0
 16 17  1  0
 17 18  1  0
 18 19  1  0
 19 20  1  0
 20 21  1  0
 21 22  2  0
 22 23  1  0
 23 24  2  0
 24 25  1  0
 25 26  2  0
 20 27  1  0
 27 28  1  0
 15 29  2  0
  4 30  1  0
 30 31  2  0
 31  1  1  0
 11  6  1  0
 29 12  1  0
 28 17  1  0
 26 21  1  0
  1 32  1  0
  2 33  1  0
  3 34  1  0
  5 35  1  0
  7 36  1  0
  8 37  1  0
  9 38  1  0
 10 39  1  0
 11 40  1  0
 16 41  1  0
 16 42  1  0
 18 43  1  0
 18 44  1  0
 19 45  1  0
 19 46  1  0
 20 47  1  0
 22 48  1  0
 23 49  1  0
 25 50  1  0
 26 51  1  0
 27 52  1  0
 27 53  1  0
 28 54  1  0
 28 55  1  0
 30 56  1  0
 31 57  1  0
M  END
$$$$
