
     RDKit          3D

 34 36  0  0  0  0  0  0  0  0999 V2000
   -2.4553   -2.9447   -2.4446 O   0  0  0  0  0  0  0  0  0  0  0  0
   -2.2230   -1.9639   -1.7483 C   0  0  0  0  0  0  0  0  0  0  0  0
   -3.2560   -1.1395   -1.3163 O   0  0  0  0  0  0  0  0  0  0  0  0
   -3.0047   -0.0052   -0.5216 C   0  0  0  0  0  0  0  0  0  0  0  0
   -4.1208    0.7469   -0.1519 C   0  0  0  0  0  0  0  0  0  0  0  0
   -3.9472    1.8823    0.6336 C   0  0  0  0  0  0  0  0  0  0  0  0
   -2.6665    2.2529    1.0398 C   0  0  0  0  0  0  0  0  0  0  0  0
   -1.5574    1.4880    0.6607 C   0  0  0  0  0  0  0  0  0  0  0  0
   -1.7089    0.3397   -0.1309 C   0  0  0  0  0  0  0  0  0  0  0  0
   -0.5675   -0.5030   -0.5573 C   0  0  0  0  0  0  0  0  0  0  0  0
    0.7026   -0.0946   -0.1270 N   0  0  0  0  0  0  0  0  0  0  0  0
    1.3347   -0.7313    1.0454 C   0  0  0  0  0  0  0  0  0  0  0  0
    2.4989    0.1155    1.5459 C   0  0  0  0  0  0  0  0  0  0  0  0
    3.5823    0.2708    0.4790 C   0  0  0  0  0  0  0  0  0  0  0  0
    3.0302    0.1551   -0.9413 C   0  0  0  0  0  0  0  0  0  0  0  0
    1.5949    0.6593   -1.0325 C   0  0  0  0  0  0  0  0  0  0  0  0
   -0.8884   -1.5675   -1.3143 C   0  0  0  0  0  0  0  0  0  0  0  0
    0.1709   -2.4148   -1.7567 N   0  0  0  0  0  4  0  0  0  0  0  0
    0.7288   -2.1150   -2.8223 O   0  0  0  0  0  0  0  0  0  0  0  0
    0.4603   -3.3807   -1.0358 O   0  0  0  0  0  1  0  0  0  0  0  0
   -5.1155    0.4503   -0.4734 H   0  0  0  0  0  0  0  0  0  0  0  0
   -4.8072    2.4782    0.9294 H   0  0  0  0  0  0  0  0  0  0  0  0
   -2.5271    3.1398    1.6540 H   0  0  0  0  0  0  0  0  0  0  0  0
   -0.5713    1.8033    0.9943 H   0  0  0  0  0  0  0  0  0  0  0  0
    1.6849   -1.7369    0.7869 H   0  0  0  0  0  0  0  0  0  0  0  0
    0.5965   -0.8357    1.8494 H   0  0  0  0  0  0  0  0  0  0  0  0
    2.1273    1.1097    1.8263 H   0  0  0  0  0  0  0  0  0  0  0  0
    2.9310   -0.3251    2.4512 H   0  0  0  0  0  0  0  0  0  0  0  0
    4.3591   -0.4903    0.6199 H   0  0  0  0  0  0  0  0  0  0  0  0
    4.0751    1.2414    0.6123 H   0  0  0  0  0  0  0  0  0  0  0  0
    3.0650   -0.8963   -1.2542 H   0  0  0  0  0  0  0  0  0  0  0  0
    3.6735    0.7090   -1.6340 H   0  0  0  0  0  0  0  0  0  0  0  0
    1.5518    1.7211   -0.7617 H   0  0  0  0  0  0  0  0  0  0  0  0
    1.2491    0.5814   -2.0701 H   0  0  0  0  0  0  0  0  0  0  0  0
  1  2  2  0
  2  3  1  0
  3  4  1  0
  4  5  2  0
  5  6  1  0
  6  7  2  0
  7  8  1  0
  8  9  2  0
  9 10  1  0
 10 11  1  0
 11 12  1  0
 12 13  1  0
 13 14  1  0
 14 15  1  0
 15 16  1  0
 10 17  2  0
 17 18  1  0
 18 19  2  0
 18 20  1  0
 17  2  1  0
  9  4  1  0
 16 11  1  0
  5 21  1  0
  6 22  1  0
  7 23  1  0
  8 24  1  0
 12 25  1  0
 12 26  1  0
 13 27  1  0
 13 28  1  0
 14 29  1  0
 14 30  1  0
 15 31  1  0
 15 32  1  0
 16 33  1  0
 16 34  1  0
M  CHG  2  18   1  20  -1
M  END
$$$$
