
     RDKit          3D

 30 31  0  0  0  0  0  0  0  0999 V2000
    1.7413    1.1286    1.0914 C   0  0  0  0  0  0  0  0  0  0  0  0
    1.9609   -0.2003    0.3896 C   0  0  0  0  0  0  0  0  0  0  0  0
    1.0191   -1.0765    0.1569 N   0  0  0  0  0  0  0  0  0  0  0  0
   -0.2901   -0.7516    0.4073 N   0  0  0  0  0  0  0  0  0  0  0  0
   -0.9138    0.2537   -0.3308 C   0  0  0  0  0  0  0  0  0  0  0  0
   -0.3379    1.0400   -1.0814 O   0  0  0  0  0  0  0  0  0  0  0  0
   -2.3966    0.3384   -0.2169 C   0  0  0  0  0  0  0  0  0  0  0  0
   -3.0758   -0.1891    0.8909 C   0  0  0  0  0  0  0  0  0  0  0  0
   -4.4677   -0.0989    0.9579 C   0  0  0  0  0  0  0  0  0  0  0  0
   -5.2948   -0.7534    2.3178 Cl  0  0  0  0  0  0  0  0  0  0  0  0
   -5.1937    0.5164   -0.0601 C   0  0  0  0  0  0  0  0  0  0  0  0
   -4.5226    1.0609   -1.1540 C   0  0  0  0  0  0  0  0  0  0  0  0
   -3.1328    0.9806   -1.2261 C   0  0  0  0  0  0  0  0  0  0  0  0
   -2.5550    1.5580   -2.3250 O   0  0  0  0  0  0  0  0  0  0  0  0
    3.3110   -0.5657   -0.0407 C   0  0  0  0  0  0  0  0  0  0  0  0
    3.7184   -1.7664   -0.6051 C   0  0  0  0  0  0  0  0  0  0  0  0
    5.1099   -1.7907   -0.9194 C   0  0  0  0  0  0  0  0  0  0  0  0
    5.7072   -0.6036   -0.5874 C   0  0  0  0  0  0  0  0  0  0  0  0
    7.5650   -0.2462   -0.8565 Br  0  0  0  0  0  0  0  0  0  0  0  0
    4.6362    0.5202    0.0831 S   0  0  0  0  0  0  0  0  0  0  0  0
    1.8132    1.9436    0.3656 H   0  0  0  0  0  0  0  0  0  0  0  0
    2.4965    1.2741    1.8697 H   0  0  0  0  0  0  0  0  0  0  0  0
    0.7707    1.1790    1.5890 H   0  0  0  0  0  0  0  0  0  0  0  0
   -0.8589   -1.5768    0.5798 H   0  0  0  0  0  0  0  0  0  0  0  0
   -2.5401   -0.6487    1.7164 H   0  0  0  0  0  0  0  0  0  0  0  0
   -6.2773    0.5844   -0.0050 H   0  0  0  0  0  0  0  0  0  0  0  0
   -5.0786    1.5540   -1.9478 H   0  0  0  0  0  0  0  0  0  0  0  0
   -1.5790    1.5608   -2.1955 H   0  0  0  0  0  0  0  0  0  0  0  0
    3.0397   -2.5926   -0.7857 H   0  0  0  0  0  0  0  0  0  0  0  0
    5.6258   -2.6323   -1.3645 H   0  0  0  0  0  0  0  0  0  0  0  0
  1  2  1  0
  2  3  2  3
  3  4  1  0
  4  5  1  0
  5  6  2  0
  5  7  1  0
  7  8  2  0
  8  9  1  0
  9 10  1  0
  9 11  2  0
 11 12  1  0
 12 13  2  0
 13 14  1  0
  2 15  1  0
 15 16  2  0
 16 17  1  0
 17 18  2  0
 18 19  1  0
 18 20  1  0
 13  7  1  0
 20 15  1  0
  1 21  1  0
  1 22  1  0
  1 23  1  0
  4 24  1  0
  8 25  1  0
 11 26  1  0
 12 27  1  0
 14 28  1  0
 16 29  1  0
 17 30  1  0
M  END
$$$$
