
     RDKit          3D

 56 60  0  0  0  0  0  0  0  0999 V2000
    7.8936   -2.4598    0.5404 C   0  0  0  0  0  0  0  0  0  0  0  0
    6.7624   -1.5609    0.2067 C   0  0  0  0  0  0  0  0  0  0  0  0
    6.0246   -1.7862   -0.8878 N   0  0  0  0  0  0  0  0  0  0  0  0
    5.0950   -0.8025   -0.8747 N   0  0  0  0  0  0  0  0  0  0  0  0
    4.1161   -0.7481   -1.9570 C   0  0  0  0  0  0  0  0  0  0  0  0
    2.7794   -1.3133   -1.5409 C   0  0  0  0  0  0  0  0  0  0  0  0
    2.6469   -2.6708   -1.2122 C   0  0  0  0  0  0  0  0  0  0  0  0
    1.4074   -3.1982   -0.8468 C   0  0  0  0  0  0  0  0  0  0  0  0
    0.2821   -2.3746   -0.7980 C   0  0  0  0  0  0  0  0  0  0  0  0
    0.3984   -1.0147   -1.1084 C   0  0  0  0  0  0  0  0  0  0  0  0
   -0.7715   -0.0924   -1.0701 C   0  0  0  0  0  0  0  0  0  0  0  0
   -0.7826    0.8946   -1.7953 O   0  0  0  0  0  0  0  0  0  0  0  0
   -1.7621   -0.4103   -0.1631 N   0  0  0  0  0  0  0  0  0  0  0  0
   -2.9534    0.4102    0.0859 C   0  0  0  0  0  0  0  0  0  0  0  0
   -3.8302   -0.3128    1.1446 C   0  0  0  0  0  0  0  0  0  0  0  0
   -5.0975    0.4977    1.4593 C   0  0  0  0  0  0  0  0  0  0  0  0
   -4.6918    1.8787    1.9978 C   0  0  0  0  0  0  0  0  0  0  0  0
   -3.8463    2.6224    0.9519 C   0  0  0  0  0  0  0  0  0  0  0  0
   -4.6666    2.7873   -0.3388 C   0  0  0  0  0  0  0  0  0  0  0  0
   -5.0769    1.4092   -0.8855 C   0  0  0  0  0  0  0  0  0  0  0  0
   -5.9155    0.6735    0.1709 C   0  0  0  0  0  0  0  0  0  0  0  0
   -3.8110    0.5894   -1.1926 C   0  0  0  0  0  0  0  0  0  0  0  0
   -2.5791    1.8041    0.6467 C   0  0  0  0  0  0  0  0  0  0  0  0
    1.6416   -0.4935   -1.4946 C   0  0  0  0  0  0  0  0  0  0  0  0
    5.2318    0.0639    0.1866 C   0  0  0  0  0  0  0  0  0  0  0  0
    4.3422    1.2283    0.4178 C   0  0  0  0  0  0  0  0  0  0  0  0
    6.3020   -0.4245    0.8994 C   0  0  0  0  0  0  0  0  0  0  0  0
    7.0398    0.2505    2.4831 Br  0  0  0  0  0  0  0  0  0  0  0  0
    7.9962   -3.2661   -0.1931 H   0  0  0  0  0  0  0  0  0  0  0  0
    7.7422   -2.9183    1.5225 H   0  0  0  0  0  0  0  0  0  0  0  0
    8.8348   -1.9015    0.5581 H   0  0  0  0  0  0  0  0  0  0  0  0
    4.5146   -1.3134   -2.8080 H   0  0  0  0  0  0  0  0  0  0  0  0
    4.0374    0.2971   -2.2747 H   0  0  0  0  0  0  0  0  0  0  0  0
    3.5163   -3.3281   -1.2442 H   0  0  0  0  0  0  0  0  0  0  0  0
    1.3202   -4.2558   -0.6089 H   0  0  0  0  0  0  0  0  0  0  0  0
   -0.6785   -2.8139   -0.5452 H   0  0  0  0  0  0  0  0  0  0  0  0
   -1.5324   -1.0958    0.5437 H   0  0  0  0  0  0  0  0  0  0  0  0
   -4.1085   -1.3124    0.7848 H   0  0  0  0  0  0  0  0  0  0  0  0
   -3.2554   -0.4693    2.0673 H   0  0  0  0  0  0  0  0  0  0  0  0
   -5.6976   -0.0297    2.2091 H   0  0  0  0  0  0  0  0  0  0  0  0
   -4.1228    1.7661    2.9287 H   0  0  0  0  0  0  0  0  0  0  0  0
   -5.5872    2.4639    2.2407 H   0  0  0  0  0  0  0  0  0  0  0  0
   -3.5642    3.6080    1.3387 H   0  0  0  0  0  0  0  0  0  0  0  0
   -5.5603    3.3910   -0.1388 H   0  0  0  0  0  0  0  0  0  0  0  0
   -4.0785    3.3285   -1.0901 H   0  0  0  0  0  0  0  0  0  0  0  0
   -5.6655    1.5353   -1.8011 H   0  0  0  0  0  0  0  0  0  0  0  0
   -6.8317    1.2384    0.3823 H   0  0  0  0  0  0  0  0  0  0  0  0
   -6.2267   -0.3059   -0.2127 H   0  0  0  0  0  0  0  0  0  0  0  0
   -3.2438    1.0982   -1.9803 H   0  0  0  0  0  0  0  0  0  0  0  0
   -4.0900   -0.3912   -1.6001 H   0  0  0  0  0  0  0  0  0  0  0  0
   -1.9765    1.6951    1.5578 H   0  0  0  0  0  0  0  0  0  0  0  0
   -1.9581    2.3587   -0.0666 H   0  0  0  0  0  0  0  0  0  0  0  0
    1.7147    0.5617   -1.7555 H   0  0  0  0  0  0  0  0  0  0  0  0
    4.7319    1.8811    1.2045 H   0  0  0  0  0  0  0  0  0  0  0  0
    4.2435    1.8357   -0.4871 H   0  0  0  0  0  0  0  0  0  0  0  0
    3.3467    0.8950    0.7266 H   0  0  0  0  0  0  0  0  0  0  0  0
  1  2  1  0
  2  3  2  0
  3  4  1  0
  4  5  1  0
  5  6  1  0
  6  7  2  0
  7  8  1  0
  8  9  2  0
  9 10  1  0
 10 11  1  0
 11 12  2  0
 11 13  1  0
 13 14  1  0
 14 15  1  0
 15 16  1  0
 16 17  1  0
 17 18  1  0
 18 19  1  0
 19 20  1  0
 20 21  1  0
 20 22  1  0
 18 23  1  0
 10 24  2  0
  4 25  1  0
 25 26  1  0
 25 27  2  0
 27 28  1  0
 27  2  1  0
 24  6  1  0
 22 14  1  0
 23 14  1  0
 21 16  1  0
  1 29  1  0
  1 30  1  0
  1 31  1  0
  5 32  1  0
  5 33  1  0
  7 34  1  0
  8 35  1  0
  9 36  1  0
 13 37  1  0
 15 38  1  0
 15 39  1  0
 16 40  1  0
 17 41  1  0
 17 42  1  0
 18 43  1  0
 19 44  1  0
 19 45  1  0
 20 46  1  0
 21 47  1  0
 21 48  1  0
 22 49  1  0
 22 50  1  0
 23 51  1  0
 23 52  1  0
 24 53  1  0
 26 54  1  0
 26 55  1  0
 26 56  1  0
M  END
$$$$
