
     RDKit          3D

 39 41  0  0  0  0  0  0  0  0999 V2000
    0.5582    0.2974   -2.1782 S   0  0  0  0  0  0  0  0  0  0  0  0
    0.4971   -0.2630   -0.6010 C   0  0  0  0  0  0  0  0  0  0  0  0
    1.5724   -0.9812   -0.1602 N   0  0  0  0  0  0  0  0  0  0  0  0
    2.0731   -1.0687    1.2108 C   0  0  0  0  0  0  0  0  0  0  0  0
    3.3867   -0.2985    1.4133 C   0  0  0  0  0  0  0  0  0  0  0  0
    3.2841    1.2119    1.2251 C   0  0  0  0  0  0  0  0  0  0  0  0
    4.0435    1.4738   -0.0528 C   0  0  0  0  0  0  0  0  0  0  0  0
    5.0552    0.3541   -0.0671 C   0  0  0  0  0  0  0  0  0  0  0  0
    4.3810   -0.7816    0.4857 O   0  0  0  0  0  0  0  0  0  0  0  0
   -0.5381   -0.0662    0.2973 N   0  0  0  0  0  0  0  0  0  0  0  0
   -1.1255   -1.2331    0.9660 C   0  0  0  0  0  0  0  0  0  0  0  0
   -2.2690   -1.8151    0.1277 C   0  0  0  0  0  0  0  0  0  0  0  0
   -3.2334   -0.7521   -0.3414 C   0  0  0  0  0  0  0  0  0  0  0  0
   -4.5010   -1.1204   -0.8120 C   0  0  0  0  0  0  0  0  0  0  0  0
   -5.3855   -0.1526   -1.2868 C   0  0  0  0  0  0  0  0  0  0  0  0
   -5.0091    1.1882   -1.3031 C   0  0  0  0  0  0  0  0  0  0  0  0
   -3.7456    1.5645   -0.8473 C   0  0  0  0  0  0  0  0  0  0  0  0
   -2.8428    0.6010   -0.3743 C   0  0  0  0  0  0  0  0  0  0  0  0
   -1.4944    1.0388    0.1547 C   0  0  0  0  0  0  0  0  0  0  0  0
    2.2887   -1.1199   -0.8669 H   0  0  0  0  0  0  0  0  0  0  0  0
    2.2494   -2.1347    1.3896 H   0  0  0  0  0  0  0  0  0  0  0  0
    1.3312   -0.7053    1.9264 H   0  0  0  0  0  0  0  0  0  0  0  0
    3.7514   -0.5131    2.4252 H   0  0  0  0  0  0  0  0  0  0  0  0
    3.7908    1.7137    2.0588 H   0  0  0  0  0  0  0  0  0  0  0  0
    2.2578    1.5899    1.2021 H   0  0  0  0  0  0  0  0  0  0  0  0
    3.3712    1.3783   -0.9108 H   0  0  0  0  0  0  0  0  0  0  0  0
    4.5028    2.4651   -0.0910 H   0  0  0  0  0  0  0  0  0  0  0  0
    5.4119    0.1187   -1.0734 H   0  0  0  0  0  0  0  0  0  0  0  0
    5.9169    0.5844    0.5690 H   0  0  0  0  0  0  0  0  0  0  0  0
   -1.4883   -0.9059    1.9480 H   0  0  0  0  0  0  0  0  0  0  0  0
   -0.3862   -2.0220    1.1283 H   0  0  0  0  0  0  0  0  0  0  0  0
   -1.8573   -2.3118   -0.7598 H   0  0  0  0  0  0  0  0  0  0  0  0
   -2.7975   -2.5695    0.7218 H   0  0  0  0  0  0  0  0  0  0  0  0
   -4.8029   -2.1652   -0.8161 H   0  0  0  0  0  0  0  0  0  0  0  0
   -6.3668   -0.4458   -1.6503 H   0  0  0  0  0  0  0  0  0  0  0  0
   -5.6985    1.9413   -1.6758 H   0  0  0  0  0  0  0  0  0  0  0  0
   -3.4651    2.6153   -0.8686 H   0  0  0  0  0  0  0  0  0  0  0  0
   -1.6437    1.4497    1.1613 H   0  0  0  0  0  0  0  0  0  0  0  0
   -1.0726    1.8393   -0.4609 H   0  0  0  0  0  0  0  0  0  0  0  0
  1  2  2  0
  2  3  1  0
  3  4  1  0
  4  5  1  0
  5  6  1  0
  6  7  1  0
  7  8  1  0
  8  9  1  0
  2 10  1  0
 10 11  1  0
 11 12  1  0
 12 13  1  0
 13 14  2  0
 14 15  1  0
 15 16  2  0
 16 17  1  0
 17 18  2  0
 18 19  1  0
  9  5  1  0
 19 10  1  0
 18 13  1  0
  3 20  1  0
  4 21  1  0
  4 22  1  0
  5 23  1  0
  6 24  1  0
  6 25  1  0
  7 26  1  0
  7 27  1  0
  8 28  1  0
  8 29  1  0
 11 30  1  0
 11 31  1  0
 12 32  1  0
 12 33  1  0
 14 34  1  0
 15 35  1  0
 16 36  1  0
 17 37  1  0
 19 38  1  0
 19 39  1  0
M  END
$$$$
