
     RDKit          3D

 47 49  0  0  0  0  0  0  0  0999 V2000
    7.9524   -1.6815   -2.9140 C   0  0  0  0  0  0  0  0  0  0  0  0
    7.5263   -1.4267   -1.5814 O   0  0  0  0  0  0  0  0  0  0  0  0
    6.1848   -1.2474   -1.3881 C   0  0  0  0  0  0  0  0  0  0  0  0
    5.2168   -1.1551   -2.3854 C   0  0  0  0  0  0  0  0  0  0  0  0
    3.8682   -0.9671   -2.0485 C   0  0  0  0  0  0  0  0  0  0  0  0
    3.4688   -0.8903   -0.7149 C   0  0  0  0  0  0  0  0  0  0  0  0
    2.1367   -0.6729   -0.3003 N   0  0  0  0  0  0  0  0  0  0  0  0
    0.9276   -0.9501   -0.9282 C   0  0  0  0  0  0  0  0  0  0  0  0
    0.7192   -2.0928   -2.1481 S   0  0  0  0  0  0  0  0  0  0  0  0
   -0.1428   -0.2031   -0.3796 N   0  0  0  0  0  0  0  0  0  0  0  0
    0.0812    1.0056    0.4347 C   0  0  0  0  0  0  0  0  0  0  0  0
   -1.0251    2.0522    0.3074 C   0  0  0  0  0  0  0  0  0  0  0  0
   -2.3497    1.4259    0.6359 C   0  0  0  0  0  0  0  0  0  0  0  0
   -3.3448    2.1266    1.3292 C   0  0  0  0  0  0  0  0  0  0  0  0
   -4.5721    1.5171    1.6132 C   0  0  0  0  0  0  0  0  0  0  0  0
   -5.5993    2.1214    2.2951 O   0  0  0  0  0  0  0  0  0  0  0  0
   -5.3912    3.4438    2.7663 C   0  0  0  0  0  0  0  0  0  0  0  0
   -4.8097    0.1958    1.1839 C   0  0  0  0  0  0  0  0  0  0  0  0
   -6.0396   -0.3284    1.4990 O   0  0  0  0  0  0  0  0  0  0  0  0
   -6.3026   -1.6710    1.1186 C   0  0  0  0  0  0  0  0  0  0  0  0
   -3.8172   -0.4901    0.4728 C   0  0  0  0  0  0  0  0  0  0  0  0
   -2.5814    0.1154    0.2018 C   0  0  0  0  0  0  0  0  0  0  0  0
   -1.5426   -0.6051   -0.6256 C   0  0  0  0  0  0  0  0  0  0  0  0
    4.4491   -0.9487    0.2810 C   0  0  0  0  0  0  0  0  0  0  0  0
    5.7940   -1.1320   -0.0542 C   0  0  0  0  0  0  0  0  0  0  0  0
    7.4707   -2.5782   -3.3195 H   0  0  0  0  0  0  0  0  0  0  0  0
    7.7762   -0.8121   -3.5556 H   0  0  0  0  0  0  0  0  0  0  0  0
    9.0309   -1.8646   -2.8908 H   0  0  0  0  0  0  0  0  0  0  0  0
    5.4721   -1.2116   -3.4387 H   0  0  0  0  0  0  0  0  0  0  0  0
    3.1575   -0.8491   -2.8598 H   0  0  0  0  0  0  0  0  0  0  0  0
    2.0307   -0.4929    0.6886 H   0  0  0  0  0  0  0  0  0  0  0  0
    0.1654    0.6693    1.4762 H   0  0  0  0  0  0  0  0  0  0  0  0
    1.0332    1.4702    0.1571 H   0  0  0  0  0  0  0  0  0  0  0  0
   -1.0642    2.4484   -0.7144 H   0  0  0  0  0  0  0  0  0  0  0  0
   -0.8107    2.8856    0.9859 H   0  0  0  0  0  0  0  0  0  0  0  0
   -3.1386    3.1451    1.6392 H   0  0  0  0  0  0  0  0  0  0  0  0
   -5.2320    4.1388    1.9370 H   0  0  0  0  0  0  0  0  0  0  0  0
   -4.5635    3.4852    3.4814 H   0  0  0  0  0  0  0  0  0  0  0  0
   -6.2982    3.7559    3.2906 H   0  0  0  0  0  0  0  0  0  0  0  0
   -5.5965   -2.3630    1.5900 H   0  0  0  0  0  0  0  0  0  0  0  0
   -7.3060   -1.9290    1.4728 H   0  0  0  0  0  0  0  0  0  0  0  0
   -6.2963   -1.7799    0.0289 H   0  0  0  0  0  0  0  0  0  0  0  0
   -3.9839   -1.4999    0.1107 H   0  0  0  0  0  0  0  0  0  0  0  0
   -1.7627   -0.4208   -1.6841 H   0  0  0  0  0  0  0  0  0  0  0  0
   -1.6183   -1.6819   -0.4346 H   0  0  0  0  0  0  0  0  0  0  0  0
    4.1841   -0.8691    1.3321 H   0  0  0  0  0  0  0  0  0  0  0  0
    6.5431   -1.1882    0.7329 H   0  0  0  0  0  0  0  0  0  0  0  0
  1  2  1  0
  2  3  1  0
  3  4  2  0
  4  5  1  0
  5  6  2  0
  6  7  1  0
  7  8  1  0
  8  9  2  0
  8 10  1  0
 10 11  1  0
 11 12  1  0
 12 13  1  0
 13 14  2  0
 14 15  1  0
 15 16  1  0
 16 17  1  0
 15 18  2  0
 18 19  1  0
 19 20  1  0
 18 21  1  0
 21 22  2  0
 22 23  1  0
  6 24  1  0
 24 25  2  0
 25  3  1  0
 23 10  1  0
 22 13  1  0
  1 26  1  0
  1 27  1  0
  1 28  1  0
  4 29  1  0
  5 30  1  0
  7 31  1  0
 11 32  1  0
 11 33  1  0
 12 34  1  0
 12 35  1  0
 14 36  1  0
 17 37  1  0
 17 38  1  0
 17 39  1  0
 20 40  1  0
 20 41  1  0
 20 42  1  0
 21 43  1  0
 23 44  1  0
 23 45  1  0
 24 46  1  0
 25 47  1  0
M  END
$$$$
