
     RDKit          3D

 58 62  0  0  0  0  0  0  0  0999 V2000
   -4.4570    2.1183    4.0261 C   0  0  0  0  0  0  0  0  0  0  0  0
   -4.9063    2.2008    2.6789 O   0  0  0  0  0  0  0  0  0  0  0  0
   -4.0330    1.7938    1.7078 C   0  0  0  0  0  0  0  0  0  0  0  0
   -4.5366    1.8618    0.4049 C   0  0  0  0  0  0  0  0  0  0  0  0
   -3.7535    1.4718   -0.6844 C   0  0  0  0  0  0  0  0  0  0  0  0
   -2.4577    0.9936   -0.4727 C   0  0  0  0  0  0  0  0  0  0  0  0
   -1.6324    0.5751   -1.6383 C   0  0  0  0  0  0  0  0  0  0  0  0
   -1.6976    1.2694   -2.7232 N   0  0  0  0  0  0  0  0  0  0  0  0
   -0.7941    0.9227   -3.8178 C   0  0  0  0  0  0  0  0  0  0  0  0
    0.6452    1.2706   -3.4336 C   0  0  0  0  0  0  0  0  0  0  0  0
    1.2067    2.2488   -3.9375 O   0  0  0  0  0  0  0  0  0  0  0  0
    1.3104    0.3928   -2.5710 N   0  0  0  0  0  0  0  0  0  0  0  0
    2.7190    0.6887   -2.2984 C   0  0  0  0  0  0  0  0  0  0  0  0
    2.8691    1.5143   -1.0137 C   0  0  0  0  0  0  0  0  0  0  0  0
    1.9370    1.8098   -0.2686 O   0  0  0  0  0  0  0  0  0  0  0  0
    4.1764    1.8831   -0.7544 N   0  0  0  0  0  0  0  0  0  0  0  0
    4.5262    2.5415    0.4821 C   0  0  0  0  0  0  0  0  0  0  0  0
    4.8586    1.5049    1.4885 C   0  0  0  0  0  0  0  0  0  0  0  0
    4.1453    0.9396    2.5250 C   0  0  0  0  0  0  0  0  0  0  0  0
    5.0045   -0.0058    3.1317 C   0  0  0  0  0  0  0  0  0  0  0  0
    6.1834    0.0388    2.4227 C   0  0  0  0  0  0  0  0  0  0  0  0
    6.1042    0.9503    1.4188 O   0  0  0  0  0  0  0  0  0  0  0  0
    0.5782   -0.5770   -1.8757 C   0  0  0  0  0  0  0  0  0  0  0  0
    1.4069   -1.9830   -1.3771 S   0  0  0  0  0  0  0  0  0  0  0  0
   -0.0209   -2.7160   -0.8396 C   0  0  0  0  0  0  0  0  0  0  0  0
   -1.1178   -1.8804   -0.9362 C   0  0  0  0  0  0  0  0  0  0  0  0
   -0.7558   -0.5905   -1.4936 C   0  0  0  0  0  0  0  0  0  0  0  0
   -2.4915   -2.3567   -0.5411 C   0  0  0  0  0  0  0  0  0  0  0  0
   -2.4481   -3.6429    0.2982 C   0  0  0  0  0  0  0  0  0  0  0  0
   -1.4589   -4.6663   -0.2701 C   0  0  0  0  0  0  0  0  0  0  0  0
   -0.0295   -4.1105   -0.2960 C   0  0  0  0  0  0  0  0  0  0  0  0
   -1.9381    0.9500    0.8273 C   0  0  0  0  0  0  0  0  0  0  0  0
   -2.7278    1.3437    1.9152 C   0  0  0  0  0  0  0  0  0  0  0  0
   -5.2772    2.4518    4.6718 H   0  0  0  0  0  0  0  0  0  0  0  0
   -3.6028    2.7825    4.1993 H   0  0  0  0  0  0  0  0  0  0  0  0
   -4.2171    1.0835    4.3008 H   0  0  0  0  0  0  0  0  0  0  0  0
   -5.5470    2.2277    0.2361 H   0  0  0  0  0  0  0  0  0  0  0  0
   -4.1566    1.5429   -1.6917 H   0  0  0  0  0  0  0  0  0  0  0  0
   -1.0603    1.5283   -4.6923 H   0  0  0  0  0  0  0  0  0  0  0  0
   -0.8842   -0.1225   -4.1372 H   0  0  0  0  0  0  0  0  0  0  0  0
    3.3013   -0.2330   -2.2113 H   0  0  0  0  0  0  0  0  0  0  0  0
    3.1570    1.2611   -3.1249 H   0  0  0  0  0  0  0  0  0  0  0  0
    4.9231    1.4003   -1.2338 H   0  0  0  0  0  0  0  0  0  0  0  0
    3.6983    3.1668    0.8261 H   0  0  0  0  0  0  0  0  0  0  0  0
    5.3900    3.1830    0.2877 H   0  0  0  0  0  0  0  0  0  0  0  0
    3.1263    1.1833    2.7976 H   0  0  0  0  0  0  0  0  0  0  0  0
    4.7925   -0.6425    3.9784 H   0  0  0  0  0  0  0  0  0  0  0  0
    7.1237   -0.4885    2.5030 H   0  0  0  0  0  0  0  0  0  0  0  0
   -3.0676   -2.5369   -1.4574 H   0  0  0  0  0  0  0  0  0  0  0  0
   -3.0296   -1.5974    0.0309 H   0  0  0  0  0  0  0  0  0  0  0  0
   -2.1597   -3.3994    1.3285 H   0  0  0  0  0  0  0  0  0  0  0  0
   -3.4523   -4.0799    0.3404 H   0  0  0  0  0  0  0  0  0  0  0  0
   -1.7684   -4.9376   -1.2873 H   0  0  0  0  0  0  0  0  0  0  0  0
   -1.4833   -5.5845    0.3283 H   0  0  0  0  0  0  0  0  0  0  0  0
    0.3756   -4.0968    0.7237 H   0  0  0  0  0  0  0  0  0  0  0  0
    0.6052   -4.7736   -0.8956 H   0  0  0  0  0  0  0  0  0  0  0  0
   -0.9131    0.6303    1.0047 H   0  0  0  0  0  0  0  0  0  0  0  0
   -2.2880    1.2963    2.9063 H   0  0  0  0  0  0  0  0  0  0  0  0
  1  2  1  0
  2  3  1  0
  3  4  2  0
  4  5  1  0
  5  6  2  0
  6  7  1  0
  7  8  2  0
  8  9  1  0
  9 10  1  0
 10 11  2  0
 10 12  1  0
 12 13  1  0
 13 14  1  0
 14 15  2  0
 14 16  1  0
 16 17  1  0
 17 18  1  0
 18 19  2  0
 19 20  1  0
 20 21  2  0
 21 22  1  0
 12 23  1  0
 23 24  1  0
 24 25  1  0
 25 26  2  0
 26 27  1  0
 26 28  1  0
 28 29  1  0
 29 30  1  0
 30 31  1  0
  6 32  1  0
 32 33  2  0
 33  3  1  0
 27  7  1  0
 22 18  1  0
 27 23  2  0
 31 25  1  0
  1 34  1  0
  1 35  1  0
  1 36  1  0
  4 37  1  0
  5 38  1  0
  9 39  1  0
  9 40  1  0
 13 41  1  0
 13 42  1  0
 16 43  1  0
 17 44  1  0
 17 45  1  0
 19 46  1  0
 20 47  1  0
 21 48  1  0
 28 49  1  0
 28 50  1  0
 29 51  1  0
 29 52  1  0
 30 53  1  0
 30 54  1  0
 31 55  1  0
 31 56  1  0
 32 57  1  0
 33 58  1  0
M  END
$$$$
