
     RDKit          3D

 42 43  0  0  0  0  0  0  0  0999 V2000
    5.6092    2.0267   -3.0036 C   0  0  0  0  0  0  0  0  0  0  0  0
    4.7269    2.2485   -1.8163 C   0  0  0  0  0  0  0  0  0  0  0  0
    5.0999    3.5078   -0.7287 S   0  0  0  0  0  0  0  0  0  0  0  0
    3.7653    3.1495    0.2553 C   0  0  0  0  0  0  0  0  0  0  0  0
    3.5399    3.8851    1.3568 N   0  0  0  0  0  0  0  0  0  0  0  0
    2.4594    3.4941    2.0266 C   0  0  0  0  0  0  0  0  0  0  0  0
    1.6331    2.4909    1.7122 N   0  0  0  0  0  0  0  0  0  0  0  0
    1.8970    1.7715    0.5998 C   0  0  0  0  0  0  0  0  0  0  0  0
    0.7752    0.4680    0.1824 S   0  0  0  0  0  0  0  0  0  0  0  0
    0.2379   -0.0190    1.8551 C   0  0  0  0  0  0  0  0  0  0  0  0
   -0.6713   -1.2313    1.7699 C   0  0  0  0  0  0  0  0  0  0  0  0
   -0.3943   -2.2990    2.3099 O   0  0  0  0  0  0  0  0  0  0  0  0
   -1.8497   -1.0101    1.0806 N   0  0  0  0  0  0  0  0  0  0  0  0
   -2.7966   -2.0883    0.8051 C   0  0  0  0  0  0  0  0  0  0  0  0
   -2.3140   -2.8752   -0.4173 C   0  0  0  0  0  0  0  0  0  0  0  0
   -4.2241   -1.5105    0.6250 C   0  0  0  0  0  0  0  0  0  0  0  0
   -4.6885   -0.7870    1.8970 C   0  0  0  0  0  0  0  0  0  0  0  0
   -5.2526   -2.5867    0.2638 C   0  0  0  0  0  0  0  0  0  0  0  0
    3.0094    2.0803   -0.2084 C   0  0  0  0  0  0  0  0  0  0  0  0
    3.5875    1.5460   -1.4401 C   0  0  0  0  0  0  0  0  0  0  0  0
    3.0407    0.3858   -2.2161 C   0  0  0  0  0  0  0  0  0  0  0  0
    6.4342    2.7449   -3.0543 H   0  0  0  0  0  0  0  0  0  0  0  0
    5.0294    2.1211   -3.9278 H   0  0  0  0  0  0  0  0  0  0  0  0
    6.0438    1.0223   -2.9683 H   0  0  0  0  0  0  0  0  0  0  0  0
    2.2218    4.0514    2.9274 H   0  0  0  0  0  0  0  0  0  0  0  0
   -0.3122    0.7927    2.3420 H   0  0  0  0  0  0  0  0  0  0  0  0
    1.1089   -0.2775    2.4659 H   0  0  0  0  0  0  0  0  0  0  0  0
   -1.8684   -0.1998    0.4713 H   0  0  0  0  0  0  0  0  0  0  0  0
   -2.7908   -2.7676    1.6672 H   0  0  0  0  0  0  0  0  0  0  0  0
   -2.3553   -2.2596   -1.3226 H   0  0  0  0  0  0  0  0  0  0  0  0
   -1.2759   -3.2022   -0.2914 H   0  0  0  0  0  0  0  0  0  0  0  0
   -2.9166   -3.7734   -0.5811 H   0  0  0  0  0  0  0  0  0  0  0  0
   -4.2092   -0.7722   -0.1880 H   0  0  0  0  0  0  0  0  0  0  0  0
   -4.7029   -1.4671    2.7556 H   0  0  0  0  0  0  0  0  0  0  0  0
   -4.0328    0.0550    2.1407 H   0  0  0  0  0  0  0  0  0  0  0  0
   -5.6989   -0.3842    1.7680 H   0  0  0  0  0  0  0  0  0  0  0  0
   -6.2630   -2.1646    0.2297 H   0  0  0  0  0  0  0  0  0  0  0  0
   -5.0532   -3.0141   -0.7235 H   0  0  0  0  0  0  0  0  0  0  0  0
   -5.2506   -3.3991    0.9982 H   0  0  0  0  0  0  0  0  0  0  0  0
    2.0310    0.6069   -2.5753 H   0  0  0  0  0  0  0  0  0  0  0  0
    3.6510    0.1551   -3.0947 H   0  0  0  0  0  0  0  0  0  0  0  0
    3.0196   -0.5152   -1.5954 H   0  0  0  0  0  0  0  0  0  0  0  0
  1  2  1  0
  2  3  1  0
  3  4  1  0
  4  5  2  0
  5  6  1  0
  6  7  2  0
  7  8  1  0
  8  9  1  0
  9 10  1  0
 10 11  1  0
 11 12  2  0
 11 13  1  0
 13 14  1  0
 14 15  1  0
 14 16  1  0
 16 17  1  0
 16 18  1  0
  8 19  2  0
 19 20  1  0
 20 21  1  0
 20  2  2  0
 19  4  1  0
  1 22  1  0
  1 23  1  0
  1 24  1  0
  6 25  1  0
 10 26  1  0
 10 27  1  0
 13 28  1  0
 14 29  1  0
 15 30  1  0
 15 31  1  0
 15 32  1  0
 16 33  1  0
 17 34  1  0
 17 35  1  0
 17 36  1  0
 18 37  1  0
 18 38  1  0
 18 39  1  0
 21 40  1  0
 21 41  1  0
 21 42  1  0
M  END
$$$$
