
     RDKit          3D

 34 36  0  0  0  0  0  0  0  0999 V2000
    4.5718   -1.3068    1.3631 C   0  0  0  0  0  0  0  0  0  0  0  0
    3.7383   -0.4120    0.5821 N   0  0  0  0  0  0  0  0  0  0  0  0
    2.4818   -0.9469    0.0907 C   0  0  0  0  0  0  0  0  0  0  0  0
    1.6012    0.0903   -0.5202 C   0  0  0  0  0  0  0  0  0  0  0  0
    0.2304   -0.0996   -0.7191 C   0  0  0  0  0  0  0  0  0  0  0  0
   -0.5029    0.8917   -1.3735 C   0  0  0  0  0  0  0  0  0  0  0  0
   -1.9485    0.7698   -1.6390 C   0  0  0  0  0  0  0  0  0  0  0  0
   -2.3855    1.1427   -2.7267 O   0  0  0  0  0  0  0  0  0  0  0  0
   -2.8905    0.1840   -0.6524 C   0  0  0  0  0  0  0  0  0  0  0  0
   -2.6544    0.2754    0.7266 C   0  0  0  0  0  0  0  0  0  0  0  0
   -3.5533   -0.2976    1.6305 C   0  0  0  0  0  0  0  0  0  0  0  0
   -4.6934   -0.9529    1.1651 C   0  0  0  0  0  0  0  0  0  0  0  0
   -4.9481   -1.0242   -0.2040 C   0  0  0  0  0  0  0  0  0  0  0  0
   -4.0582   -0.4461   -1.1058 C   0  0  0  0  0  0  0  0  0  0  0  0
   -4.3909   -0.5311   -2.4314 O   0  0  0  0  0  0  0  0  0  0  0  0
    0.1768    2.0050   -1.8487 C   0  0  0  0  0  0  0  0  0  0  0  0
    1.5046    2.2092   -1.6673 N   0  0  0  0  0  0  0  0  0  0  0  0
    2.1806    1.2526   -1.0012 C   0  0  0  0  0  0  0  0  0  0  0  0
    3.5311    1.4565   -0.7988 N   0  0  0  0  0  0  0  0  0  0  0  0
    4.3327    0.6812   -0.0200 C   0  0  0  0  0  0  0  0  0  0  0  0
    5.5116    0.9884    0.1426 O   0  0  0  0  0  0  0  0  0  0  0  0
    3.9727   -1.7562    2.1602 H   0  0  0  0  0  0  0  0  0  0  0  0
    4.9605   -2.0900    0.7055 H   0  0  0  0  0  0  0  0  0  0  0  0
    5.4125   -0.7720    1.8142 H   0  0  0  0  0  0  0  0  0  0  0  0
    1.9649   -1.4154    0.9360 H   0  0  0  0  0  0  0  0  0  0  0  0
    2.7119   -1.7156   -0.6563 H   0  0  0  0  0  0  0  0  0  0  0  0
   -0.2442   -1.0203   -0.3899 H   0  0  0  0  0  0  0  0  0  0  0  0
   -1.7898    0.8032    1.1204 H   0  0  0  0  0  0  0  0  0  0  0  0
   -3.3705   -0.2260    2.7006 H   0  0  0  0  0  0  0  0  0  0  0  0
   -5.3937   -1.3966    1.8690 H   0  0  0  0  0  0  0  0  0  0  0  0
   -5.8447   -1.5183   -0.5693 H   0  0  0  0  0  0  0  0  0  0  0  0
   -3.8099    0.0892   -2.9268 H   0  0  0  0  0  0  0  0  0  0  0  0
   -0.3373    2.7889   -2.4002 H   0  0  0  0  0  0  0  0  0  0  0  0
    3.9324    2.2995   -1.1814 H   0  0  0  0  0  0  0  0  0  0  0  0
  1  2  1  0
  2  3  1  0
  3  4  1  0
  4  5  2  0
  5  6  1  0
  6  7  1  0
  7  8  2  0
  7  9  1  0
  9 10  2  0
 10 11  1  0
 11 12  2  0
 12 13  1  0
 13 14  2  0
 14 15  1  0
  6 16  2  0
 16 17  1  0
 17 18  2  0
 18 19  1  0
 19 20  1  0
 20 21  2  0
 20  2  1  0
 18  4  1  0
 14  9  1  0
  1 22  1  0
  1 23  1  0
  1 24  1  0
  3 25  1  0
  3 26  1  0
  5 27  1  0
 10 28  1  0
 11 29  1  0
 12 30  1  0
 13 31  1  0
 15 32  1  0
 16 33  1  0
 19 34  1  0
M  END
$$$$
