
     RDKit          3D

 46 50  0  0  0  0  0  0  0  0999 V2000
    0.7362    2.0108    1.7612 O   0  0  0  0  0  0  0  0  0  0  0  0
    0.5229    1.0974    0.9777 C   0  0  0  0  0  0  0  0  0  0  0  0
    1.4575    0.2522    0.4071 N   0  0  0  0  0  0  0  0  0  0  0  0
    2.8656    0.2376    0.5891 C   0  0  0  0  0  0  0  0  0  0  0  0
    3.4925    1.1285    1.4700 C   0  0  0  0  0  0  0  0  0  0  0  0
    4.8726    1.1065    1.6514 C   0  0  0  0  0  0  0  0  0  0  0  0
    5.6508    0.1910    0.9551 C   0  0  0  0  0  0  0  0  0  0  0  0
    5.0646   -0.7167    0.0654 C   0  0  0  0  0  0  0  0  0  0  0  0
    5.8842   -1.6280   -0.6217 C   0  0  0  0  0  0  0  0  0  0  0  0
    5.3462   -2.5474   -1.5174 C   0  0  0  0  0  0  0  0  0  0  0  0
    3.9781   -2.5661   -1.7381 C   0  0  0  0  0  0  0  0  0  0  0  0
    3.1486   -1.6656   -1.0615 C   0  0  0  0  0  0  0  0  0  0  0  0
    3.6578   -0.7123   -0.1379 C   0  0  0  0  0  0  0  0  0  0  0  0
   -0.8307    0.7677    0.5678 C   0  0  0  0  0  0  0  0  0  0  0  0
   -1.4244   -0.4746    0.7105 C   0  0  0  0  0  0  0  0  0  0  0  0
   -2.7230   -0.3623    0.2739 N   0  0  0  0  0  0  0  0  0  0  0  0
   -3.7301   -1.3687    0.2519 C   0  0  0  0  0  0  0  0  0  0  0  0
   -3.4776   -2.6639    0.7263 C   0  0  0  0  0  0  0  0  0  0  0  0
   -4.4865   -3.6315    0.6899 C   0  0  0  0  0  0  0  0  0  0  0  0
   -5.7462   -3.3159    0.1835 C   0  0  0  0  0  0  0  0  0  0  0  0
   -6.0043   -2.0310   -0.2882 C   0  0  0  0  0  0  0  0  0  0  0  0
   -5.0022   -1.0590   -0.2551 C   0  0  0  0  0  0  0  0  0  0  0  0
   -2.9781    0.8841   -0.1840 N   0  0  0  0  0  0  0  0  0  0  0  0
   -1.8424    1.5732   -0.0057 C   0  0  0  0  0  0  0  0  0  0  0  0
   -1.7659    3.0800   -0.4776 C   0  0  0  0  0  0  0  0  0  0  0  0
   -2.8511    3.7516   -1.0074 C   0  0  0  0  0  0  0  0  0  0  0  0
   -2.5369    5.0937   -1.3716 C   0  0  0  0  0  0  0  0  0  0  0  0
   -1.2193    5.3975   -1.1140 C   0  0  0  0  0  0  0  0  0  0  0  0
   -0.3776    4.0686   -0.4442 S   0  0  0  0  0  0  0  0  0  0  0  0
    1.0835   -0.4153   -0.2480 H   0  0  0  0  0  0  0  0  0  0  0  0
    2.9343    1.8633    2.0411 H   0  0  0  0  0  0  0  0  0  0  0  0
    5.3383    1.8078    2.3393 H   0  0  0  0  0  0  0  0  0  0  0  0
    6.7272    0.1944    1.1148 H   0  0  0  0  0  0  0  0  0  0  0  0
    6.9611   -1.6272   -0.4628 H   0  0  0  0  0  0  0  0  0  0  0  0
    5.9960   -3.2436   -2.0407 H   0  0  0  0  0  0  0  0  0  0  0  0
    3.5502   -3.2791   -2.4384 H   0  0  0  0  0  0  0  0  0  0  0  0
    2.0887   -1.7309   -1.2831 H   0  0  0  0  0  0  0  0  0  0  0  0
   -1.0325   -1.3913    1.1238 H   0  0  0  0  0  0  0  0  0  0  0  0
   -2.5155   -2.9565    1.1338 H   0  0  0  0  0  0  0  0  0  0  0  0
   -4.2900   -4.6349    1.0603 H   0  0  0  0  0  0  0  0  0  0  0  0
   -6.5280   -4.0709    0.1584 H   0  0  0  0  0  0  0  0  0  0  0  0
   -6.9868   -1.7821   -0.6817 H   0  0  0  0  0  0  0  0  0  0  0  0
   -5.2298   -0.0618   -0.6283 H   0  0  0  0  0  0  0  0  0  0  0  0
   -3.8293    3.2998   -1.1233 H   0  0  0  0  0  0  0  0  0  0  0  0
   -3.2412    5.7967   -1.7988 H   0  0  0  0  0  0  0  0  0  0  0  0
   -0.7074    6.3341   -1.2868 H   0  0  0  0  0  0  0  0  0  0  0  0
  1  2  2  0
  2  3  1  0
  3  4  1  0
  4  5  2  0
  5  6  1  0
  6  7  2  0
  7  8  1  0
  8  9  2  0
  9 10  1  0
 10 11  2  0
 11 12  1  0
 12 13  2  0
  2 14  1  0
 14 15  2  0
 15 16  1  0
 16 17  1  0
 17 18  2  0
 18 19  1  0
 19 20  2  0
 20 21  1  0
 21 22  2  0
 16 23  1  0
 23 24  2  0
 24 25  1  0
 25 26  2  0
 26 27  1  0
 27 28  2  0
 28 29  1  0
 13  4  1  0
 24 14  1  0
 29 25  1  0
 13  8  1  0
 22 17  1  0
  3 30  1  0
  5 31  1  0
  6 32  1  0
  7 33  1  0
  9 34  1  0
 10 35  1  0
 11 36  1  0
 12 37  1  0
 15 38  1  0
 18 39  1  0
 19 40  1  0
 20 41  1  0
 21 42  1  0
 22 43  1  0
 26 44  1  0
 27 45  1  0
 28 46  1  0
M  END
$$$$
