
     RDKit          3D

 22 23  0  0  0  0  0  0  0  0999 V2000
   -4.1761    0.2333    0.3173 C   0  0  0  0  0  0  0  0  0  0  0  0
   -2.6813    0.1857    0.2047 C   0  0  0  0  0  0  0  0  0  0  0  0
   -1.9698    1.2914   -0.2659 C   0  0  0  0  0  0  0  0  0  0  0  0
   -0.5785    1.2332   -0.4004 C   0  0  0  0  0  0  0  0  0  0  0  0
    0.1404    0.0692   -0.0784 C   0  0  0  0  0  0  0  0  0  0  0  0
    1.6066    0.0706   -0.2413 C   0  0  0  0  0  0  0  0  0  0  0  0
    2.3000    1.0761   -0.7455 N   0  0  0  0  0  0  0  0  0  0  0  0
    3.6559    0.8240   -0.7888 N   0  0  0  0  0  0  0  0  0  0  0  0
    3.9594   -0.3598   -0.3126 C   0  0  0  0  0  0  0  0  0  0  0  0
    5.2113   -0.8509   -0.2281 N   0  0  0  0  0  0  0  0  0  0  0  0
    2.6032   -1.2542    0.2328 S   0  0  0  0  0  0  0  0  0  0  0  0
   -0.5890   -1.0407    0.3771 C   0  0  0  0  0  0  0  0  0  0  0  0
   -1.9822   -0.9845    0.5124 C   0  0  0  0  0  0  0  0  0  0  0  0
   -4.5280   -0.4206    1.1222 H   0  0  0  0  0  0  0  0  0  0  0  0
   -4.5182    1.2472    0.5502 H   0  0  0  0  0  0  0  0  0  0  0  0
   -4.6327   -0.0869   -0.6242 H   0  0  0  0  0  0  0  0  0  0  0  0
   -2.4896    2.2092   -0.5326 H   0  0  0  0  0  0  0  0  0  0  0  0
   -0.0539    2.1156   -0.7661 H   0  0  0  0  0  0  0  0  0  0  0  0
    5.3873   -1.5579    0.4754 H   0  0  0  0  0  0  0  0  0  0  0  0
    5.9492   -0.1580   -0.3003 H   0  0  0  0  0  0  0  0  0  0  0  0
   -0.0973   -1.9760    0.6314 H   0  0  0  0  0  0  0  0  0  0  0  0
   -2.5168   -1.8661    0.8607 H   0  0  0  0  0  0  0  0  0  0  0  0
  1  2  1  0
  2  3  2  0
  3  4  1  0
  4  5  2  0
  5  6  1  0
  6  7  2  0
  7  8  1  0
  8  9  2  0
  9 10  1  0
  9 11  1  0
  5 12  1  0
 12 13  2  0
 13  2  1  0
 11  6  1  0
  1 14  1  0
  1 15  1  0
  1 16  1  0
  3 17  1  0
  4 18  1  0
 10 19  1  0
 10 20  1  0
 12 21  1  0
 13 22  1  0
M  END
$$$$
