
     RDKit          3D

 67 72  0  0  0  0  0  0  0  0999 V2000
   -1.7951    4.9363    3.8115 C   0  0  0  0  0  0  0  0  0  0  0  0
   -1.7123    4.8927    2.3925 O   0  0  0  0  0  0  0  0  0  0  0  0
   -1.4875    3.6694    1.8250 C   0  0  0  0  0  0  0  0  0  0  0  0
   -1.2905    2.4709    2.5070 C   0  0  0  0  0  0  0  0  0  0  0  0
   -1.0691    1.2816    1.8002 C   0  0  0  0  0  0  0  0  0  0  0  0
   -1.0436    1.2671    0.3991 C   0  0  0  0  0  0  0  0  0  0  0  0
   -0.7899    0.0096   -0.4139 C   0  0  0  0  0  0  0  0  0  0  0  0
   -1.4935   -1.2861    0.0627 C   0  0  0  0  0  0  0  0  0  0  0  0
   -2.8136   -1.4963   -0.6940 C   0  0  0  0  0  0  0  0  0  0  0  0
   -2.8375   -1.5024   -1.9307 O   0  0  0  0  0  0  0  0  0  0  0  0
   -4.1057   -1.6901    0.1280 C   0  0  0  0  0  0  0  0  0  0  0  0
   -4.3929   -0.4266    0.9490 C   0  0  0  0  0  0  0  0  0  0  0  0
   -3.9764   -2.9108    1.0504 C   0  0  0  0  0  0  0  0  0  0  0  0
   -5.2885   -1.9304   -0.8306 C   0  0  0  0  0  0  0  0  0  0  0  0
   -0.5746   -2.3724   -0.3039 N   0  0  0  0  0  0  0  0  0  0  0  0
   -0.5382   -3.4516    0.5387 N   0  0  0  0  0  0  0  0  0  0  0  0
    0.5447   -4.1666    0.5724 C   0  0  0  0  0  0  0  0  0  0  0  0
    1.7690   -3.8764   -0.1783 C   0  0  0  0  0  0  0  0  0  0  0  0
    2.8714   -4.7276   -0.0811 C   0  0  0  0  0  0  0  0  0  0  0  0
    4.0262   -4.4347   -0.8054 C   0  0  0  0  0  0  0  0  0  0  0  0
    4.0688   -3.3036   -1.6207 C   0  0  0  0  0  0  0  0  0  0  0  0
    2.9597   -2.4588   -1.7109 C   0  0  0  0  0  0  0  0  0  0  0  0
    1.7996   -2.7327   -0.9744 C   0  0  0  0  0  0  0  0  0  0  0  0
    0.5784   -1.8625   -1.0496 C   0  0  0  0  0  0  0  0  0  0  0  0
    0.6915   -0.4091   -0.5633 C   0  0  0  0  0  0  0  0  0  0  0  0
    1.3806    0.4771   -1.5471 N   0  0  0  0  0  0  0  0  0  0  0  0
    2.3403    0.9969   -0.8472 C   0  0  0  0  0  0  0  0  0  0  0  0
    3.3231    1.9834   -1.3268 C   0  0  0  0  0  0  0  0  0  0  0  0
    4.3501    2.4562   -0.5001 C   0  0  0  0  0  0  0  0  0  0  0  0
    5.2619    3.3947   -0.9884 C   0  0  0  0  0  0  0  0  0  0  0  0
    5.1524    3.8619   -2.2979 C   0  0  0  0  0  0  0  0  0  0  0  0
    4.1313    3.3942   -3.1241 C   0  0  0  0  0  0  0  0  0  0  0  0
    3.2173    2.4563   -2.6411 C   0  0  0  0  0  0  0  0  0  0  0  0
    2.4983    0.6210    0.4340 O   0  0  0  0  0  0  0  0  0  0  0  0
    1.5148   -0.2792    0.7022 C   0  0  0  0  0  0  0  0  0  0  0  0
    1.3638   -0.8291    1.7793 O   0  0  0  0  0  0  0  0  0  0  0  0
   -1.2321    2.4825   -0.2756 C   0  0  0  0  0  0  0  0  0  0  0  0
   -1.4538    3.6672    0.4313 C   0  0  0  0  0  0  0  0  0  0  0  0
   -1.9980    5.9717    4.1044 H   0  0  0  0  0  0  0  0  0  0  0  0
   -0.8459    4.6413    4.2710 H   0  0  0  0  0  0  0  0  0  0  0  0
   -2.6224    4.3180    4.1778 H   0  0  0  0  0  0  0  0  0  0  0  0
   -1.2954    2.4224    3.5910 H   0  0  0  0  0  0  0  0  0  0  0  0
   -0.9039    0.3735    2.3781 H   0  0  0  0  0  0  0  0  0  0  0  0
   -1.1565    0.2309   -1.4279 H   0  0  0  0  0  0  0  0  0  0  0  0
   -1.6433   -1.3144    1.1435 H   0  0  0  0  0  0  0  0  0  0  0  0
   -3.6434   -0.2720    1.7312 H   0  0  0  0  0  0  0  0  0  0  0  0
   -5.3679   -0.4910    1.4454 H   0  0  0  0  0  0  0  0  0  0  0  0
   -4.3983    0.4681    0.3165 H   0  0  0  0  0  0  0  0  0  0  0  0
   -3.6837   -3.8052    0.4863 H   0  0  0  0  0  0  0  0  0  0  0  0
   -3.2253   -2.7585    1.8325 H   0  0  0  0  0  0  0  0  0  0  0  0
   -4.9282   -3.1247    1.5529 H   0  0  0  0  0  0  0  0  0  0  0  0
   -6.2271   -2.0609   -0.2802 H   0  0  0  0  0  0  0  0  0  0  0  0
   -5.1292   -2.8313   -1.4361 H   0  0  0  0  0  0  0  0  0  0  0  0
   -5.4207   -1.0885   -1.5212 H   0  0  0  0  0  0  0  0  0  0  0  0
    0.5525   -5.0496    1.2327 H   0  0  0  0  0  0  0  0  0  0  0  0
    2.8377   -5.6137    0.5456 H   0  0  0  0  0  0  0  0  0  0  0  0
    4.8910   -5.0905   -0.7417 H   0  0  0  0  0  0  0  0  0  0  0  0
    4.9652   -3.0828   -2.1962 H   0  0  0  0  0  0  0  0  0  0  0  0
    3.0050   -1.5961   -2.3727 H   0  0  0  0  0  0  0  0  0  0  0  0
    0.2532   -1.8637   -2.1004 H   0  0  0  0  0  0  0  0  0  0  0  0
    4.4549    2.1069    0.5244 H   0  0  0  0  0  0  0  0  0  0  0  0
    6.0589    3.7628   -0.3469 H   0  0  0  0  0  0  0  0  0  0  0  0
    5.8636    4.5933   -2.6746 H   0  0  0  0  0  0  0  0  0  0  0  0
    4.0451    3.7619   -4.1439 H   0  0  0  0  0  0  0  0  0  0  0  0
    2.4220    2.1026   -3.2943 H   0  0  0  0  0  0  0  0  0  0  0  0
   -1.2073    2.5196   -1.3646 H   0  0  0  0  0  0  0  0  0  0  0  0
   -1.6013    4.5974   -0.1111 H   0  0  0  0  0  0  0  0  0  0  0  0
  1  2  1  0
  2  3  1  0
  3  4  2  0
  4  5  1  0
  5  6  2  0
  6  7  1  0
  7  8  1  0
  8  9  1  0
  9 10  2  0
  9 11  1  0
 11 12  1  0
 11 13  1  0
 11 14  1  0
  8 15  1  0
 15 16  1  0
 16 17  2  0
 17 18  1  0
 18 19  2  0
 19 20  1  0
 20 21  2  0
 21 22  1  0
 22 23  2  0
 23 24  1  0
 24 25  1  0
 25 26  1  0
 26 27  2  0
 27 28  1  0
 28 29  2  0
 29 30  1  0
 30 31  2  0
 31 32  1  0
 32 33  2  0
 27 34  1  0
 34 35  1  0
 35 36  2  0
  6 37  1  0
 37 38  2  0
 38  3  1  0
 25  7  1  0
 33 28  1  0
 24 15  1  0
 35 25  1  0
 23 18  1  0
  1 39  1  0
  1 40  1  0
  1 41  1  0
  4 42  1  0
  5 43  1  0
  7 44  1  0
  8 45  1  0
 12 46  1  0
 12 47  1  0
 12 48  1  0
 13 49  1  0
 13 50  1  0
 13 51  1  0
 14 52  1  0
 14 53  1  0
 14 54  1  0
 17 55  1  0
 19 56  1  0
 20 57  1  0
 21 58  1  0
 22 59  1  0
 24 60  1  0
 29 61  1  0
 30 62  1  0
 31 63  1  0
 32 64  1  0
 33 65  1  0
 37 66  1  0
 38 67  1  0
M  END
$$$$
