
     RDKit          3D

 48 51  0  0  0  0  0  0  0  0999 V2000
    3.2289   -2.5657   -2.8226 O   0  0  0  0  0  0  0  0  0  0  0  0
    3.2584   -2.0730   -1.4582 S   0  0  0  0  0  6  0  0  0  0  0  0
    4.0975   -2.7267   -0.4742 O   0  0  0  0  0  0  0  0  0  0  0  0
    3.7087   -0.3299   -1.5579 C   0  0  0  0  0  0  0  0  0  0  0  0
    3.5375    0.4082   -0.2563 C   0  0  0  0  0  0  0  0  0  0  0  0
    2.6047    1.4528   -0.1582 C   0  0  0  0  0  0  0  0  0  0  0  0
    2.4473    2.1586    1.0360 C   0  0  0  0  0  0  0  0  0  0  0  0
    3.2296    1.8391    2.1428 C   0  0  0  0  0  0  0  0  0  0  0  0
    4.1765    0.8216    2.0529 C   0  0  0  0  0  0  0  0  0  0  0  0
    4.3366    0.1163    0.8588 C   0  0  0  0  0  0  0  0  0  0  0  0
    1.6842   -2.1072   -0.9062 N   0  0  0  0  0  0  0  0  0  0  0  0
    1.3936   -2.1461    0.5429 C   0  0  0  0  0  0  0  0  0  0  0  0
   -0.1045   -2.4216    0.7774 C   0  0  0  0  0  0  0  0  0  0  0  0
   -1.0177   -1.4163    0.1904 N   0  0  0  0  0  0  0  0  0  0  0  0
   -1.3978   -0.4007    1.1866 C   0  0  0  0  0  0  0  0  0  0  0  0
   -2.4578    0.5629    0.6917 C   0  0  0  0  0  0  0  0  0  0  0  0
   -2.1966    1.9527    0.6516 C   0  0  0  0  0  0  0  0  0  0  0  0
   -3.1665    2.8545    0.2020 C   0  0  0  0  0  0  0  0  0  0  0  0
   -4.3821    2.3428   -0.1962 C   0  0  0  0  0  0  0  0  0  0  0  0
   -4.6487    0.9949   -0.1580 C   0  0  0  0  0  0  0  0  0  0  0  0
   -3.7133    0.0821    0.2802 C   0  0  0  0  0  0  0  0  0  0  0  0
   -5.9034    0.7016   -0.5924 O   0  0  0  0  0  0  0  0  0  0  0  0
   -6.3961    2.0199   -0.9075 C   0  0  0  0  0  0  0  0  0  0  0  0
   -5.4353    3.0676   -0.6595 O   0  0  0  0  0  0  0  0  0  0  0  0
   -0.4340   -0.7982   -1.0223 C   0  0  0  0  0  0  0  0  0  0  0  0
    0.5696   -1.6860   -1.7843 C   0  0  0  0  0  0  0  0  0  0  0  0
    3.1006    0.1115   -2.3545 H   0  0  0  0  0  0  0  0  0  0  0  0
    4.7553   -0.2869   -1.8785 H   0  0  0  0  0  0  0  0  0  0  0  0
    1.9939    1.7322   -1.0144 H   0  0  0  0  0  0  0  0  0  0  0  0
    1.7221    2.9657    1.0999 H   0  0  0  0  0  0  0  0  0  0  0  0
    3.1121    2.3910    3.0719 H   0  0  0  0  0  0  0  0  0  0  0  0
    4.7979    0.5790    2.9117 H   0  0  0  0  0  0  0  0  0  0  0  0
    5.0914   -0.6680    0.8121 H   0  0  0  0  0  0  0  0  0  0  0  0
    1.9680   -2.9524    1.0106 H   0  0  0  0  0  0  0  0  0  0  0  0
    1.6682   -1.2029    1.0194 H   0  0  0  0  0  0  0  0  0  0  0  0
   -0.2928   -2.5525    1.8501 H   0  0  0  0  0  0  0  0  0  0  0  0
   -0.3530   -3.3878    0.3184 H   0  0  0  0  0  0  0  0  0  0  0  0
   -0.5129    0.1516    1.5299 H   0  0  0  0  0  0  0  0  0  0  0  0
   -1.8173   -0.8915    2.0750 H   0  0  0  0  0  0  0  0  0  0  0  0
   -1.2303    2.3356    0.9730 H   0  0  0  0  0  0  0  0  0  0  0  0
   -2.9731    3.9205    0.1683 H   0  0  0  0  0  0  0  0  0  0  0  0
   -3.9407   -0.9790    0.2968 H   0  0  0  0  0  0  0  0  0  0  0  0
   -7.2897    2.2141   -0.3031 H   0  0  0  0  0  0  0  0  0  0  0  0
   -6.6764    2.0454   -1.9669 H   0  0  0  0  0  0  0  0  0  0  0  0
    0.0887    0.1293   -0.7598 H   0  0  0  0  0  0  0  0  0  0  0  0
   -1.2462   -0.5251   -1.7060 H   0  0  0  0  0  0  0  0  0  0  0  0
    0.9458   -1.1262   -2.6470 H   0  0  0  0  0  0  0  0  0  0  0  0
    0.0694   -2.5833   -2.1666 H   0  0  0  0  0  0  0  0  0  0  0  0
  1  2  2  0
  2  3  2  0
  2  4  1  0
  4  5  1  0
  5  6  2  0
  6  7  1  0
  7  8  2  0
  8  9  1  0
  9 10  2  0
  2 11  1  0
 11 12  1  0
 12 13  1  0
 13 14  1  0
 14 15  1  0
 15 16  1  0
 16 17  2  0
 17 18  1  0
 18 19  2  0
 19 20  1  0
 20 21  2  0
 20 22  1  0
 22 23  1  0
 23 24  1  0
 14 25  1  0
 25 26  1  0
 10  5  1  0
 26 11  1  0
 21 16  1  0
 24 19  1  0
  4 27  1  0
  4 28  1  0
  6 29  1  0
  7 30  1  0
  8 31  1  0
  9 32  1  0
 10 33  1  0
 12 34  1  0
 12 35  1  0
 13 36  1  0
 13 37  1  0
 15 38  1  0
 15 39  1  0
 17 40  1  0
 18 41  1  0
 21 42  1  0
 23 43  1  0
 23 44  1  0
 25 45  1  0
 25 46  1  0
 26 47  1  0
 26 48  1  0
M  END
$$$$
