
     RDKit          3D

 40 41  0  0  0  0  0  0  0  0999 V2000
    5.5157    0.2375   -1.0302 C   0  0  0  0  0  0  0  0  0  0  0  0
    4.8580    0.7577    0.2341 C   0  0  0  0  0  0  0  0  0  0  0  0
    3.5479    0.1937    0.3773 O   0  0  0  0  0  0  0  0  0  0  0  0
    2.5345    0.8561   -0.2517 C   0  0  0  0  0  0  0  0  0  0  0  0
    2.7011    1.8734   -0.9168 O   0  0  0  0  0  0  0  0  0  0  0  0
    1.2259    0.2221   -0.0577 C   0  0  0  0  0  0  0  0  0  0  0  0
    0.0078    0.7878   -0.4371 C   0  0  0  0  0  0  0  0  0  0  0  0
   -0.2638    2.1241   -1.0482 C   0  0  0  0  0  0  0  0  0  0  0  0
   -0.9902   -0.1232   -0.1556 N   0  0  0  0  0  0  0  0  0  0  0  0
   -2.3947    0.0190   -0.5274 C   0  0  0  0  0  0  0  0  0  0  0  0
   -3.0627    0.7238    0.5125 O   0  0  0  0  0  0  0  0  0  0  0  0
   -4.4347    0.9701    0.2229 C   0  0  0  0  0  0  0  0  0  0  0  0
   -4.6253    2.2163   -0.6403 C   0  0  0  0  0  0  0  0  0  0  0  0
   -6.0032    2.4485   -0.9016 O   0  0  0  0  0  0  0  0  0  0  0  0
   -0.4637   -1.2276    0.4868 C   0  0  0  0  0  0  0  0  0  0  0  0
   -1.0939   -2.3696    1.0166 C   0  0  0  0  0  0  0  0  0  0  0  0
   -0.3012   -3.3620    1.5981 C   0  0  0  0  0  0  0  0  0  0  0  0
    1.0756   -3.2128    1.6438 C   0  0  0  0  0  0  0  0  0  0  0  0
    1.8729   -4.1704    2.2022 O   0  0  0  0  0  0  0  0  0  0  0  0
    1.6996   -2.0786    1.1260 C   0  0  0  0  0  0  0  0  0  0  0  0
    0.9229   -1.0509    0.5411 C   0  0  0  0  0  0  0  0  0  0  0  0
    6.5387    0.6140   -1.1184 H   0  0  0  0  0  0  0  0  0  0  0  0
    4.9538    0.5407   -1.9192 H   0  0  0  0  0  0  0  0  0  0  0  0
    5.5409   -0.8572   -1.0276 H   0  0  0  0  0  0  0  0  0  0  0  0
    4.8271    1.8532    0.2504 H   0  0  0  0  0  0  0  0  0  0  0  0
    5.4389    0.4412    1.1066 H   0  0  0  0  0  0  0  0  0  0  0  0
   -0.1046    2.0827   -2.1302 H   0  0  0  0  0  0  0  0  0  0  0  0
   -1.2861    2.4652   -0.8619 H   0  0  0  0  0  0  0  0  0  0  0  0
    0.3961    2.8887   -0.6270 H   0  0  0  0  0  0  0  0  0  0  0  0
   -2.8269   -0.9775   -0.6623 H   0  0  0  0  0  0  0  0  0  0  0  0
   -2.4430    0.5530   -1.4813 H   0  0  0  0  0  0  0  0  0  0  0  0
   -4.9036    0.0918   -0.2376 H   0  0  0  0  0  0  0  0  0  0  0  0
   -4.9508    1.1214    1.1778 H   0  0  0  0  0  0  0  0  0  0  0  0
   -4.0983    2.1314   -1.5955 H   0  0  0  0  0  0  0  0  0  0  0  0
   -4.2154    3.0936   -0.1290 H   0  0  0  0  0  0  0  0  0  0  0  0
   -6.3278    1.7312   -1.4721 H   0  0  0  0  0  0  0  0  0  0  0  0
   -2.1729   -2.4848    0.9908 H   0  0  0  0  0  0  0  0  0  0  0  0
   -0.7830   -4.2433    2.0100 H   0  0  0  0  0  0  0  0  0  0  0  0
    1.3081   -4.8820    2.5446 H   0  0  0  0  0  0  0  0  0  0  0  0
    2.7804   -1.9981    1.1875 H   0  0  0  0  0  0  0  0  0  0  0  0
  1  2  1  0
  2  3  1  0
  3  4  1  0
  4  5  2  0
  4  6  1  0
  6  7  2  0
  7  8  1  0
  7  9  1  0
  9 10  1  0
 10 11  1  0
 11 12  1  0
 12 13  1  0
 13 14  1  0
  9 15  1  0
 15 16  2  0
 16 17  1  0
 17 18  2  0
 18 19  1  0
 18 20  1  0
 20 21  2  0
 21  6  1  0
 21 15  1  0
  1 22  1  0
  1 23  1  0
  1 24  1  0
  2 25  1  0
  2 26  1  0
  8 27  1  0
  8 28  1  0
  8 29  1  0
 10 30  1  0
 10 31  1  0
 12 32  1  0
 12 33  1  0
 13 34  1  0
 13 35  1  0
 14 36  1  0
 16 37  1  0
 17 38  1  0
 19 39  1  0
 20 40  1  0
M  END
$$$$
