
     RDKit          3D

 48 49  0  0  0  0  0  0  0  0999 V2000
    2.6201   -2.3853   -2.2318 C   0  0  0  0  0  0  0  0  0  0  0  0
    2.2940   -0.9970   -2.2952 O   0  0  0  0  0  0  0  0  0  0  0  0
    1.6790   -0.5982   -1.1326 C   0  0  0  0  0  0  0  0  0  0  0  0
    0.2924   -0.4242   -1.1794 C   0  0  0  0  0  0  0  0  0  0  0  0
   -0.4022    0.0048   -0.0469 C   0  0  0  0  0  0  0  0  0  0  0  0
   -1.7956    0.1321   -0.1560 N   0  0  0  0  0  0  0  0  0  0  0  0
   -2.7006    0.5738    0.7939 C   0  0  0  0  0  0  0  0  0  0  0  0
   -2.4471    0.9579    1.9311 O   0  0  0  0  0  0  0  0  0  0  0  0
   -4.1571    0.4809    0.2872 C   0  0  0  0  0  0  0  0  0  0  0  0
   -4.7061   -0.9132    0.6097 C   0  0  0  0  0  0  0  0  0  0  0  0
   -6.1081   -1.1057    0.0424 C   0  0  0  0  0  0  0  0  0  0  0  0
   -6.1356   -0.7651   -1.4431 C   0  0  0  0  0  0  0  0  0  0  0  0
   -5.5532    0.6218   -1.7006 C   0  0  0  0  0  0  0  0  0  0  0  0
   -4.1879    0.7377   -1.1804 N   0  0  0  0  0  0  0  0  0  0  0  0
    0.3143    0.2726    1.1188 C   0  0  0  0  0  0  0  0  0  0  0  0
    1.7095    0.1231    1.1552 C   0  0  0  0  0  0  0  0  0  0  0  0
    2.4095   -0.3098    0.0289 C   0  0  0  0  0  0  0  0  0  0  0  0
    3.7653   -0.4685   -0.0525 O   0  0  0  0  0  0  0  0  0  0  0  0
    4.5693   -0.2435    1.1048 C   0  0  0  0  0  0  0  0  0  0  0  0
    4.9621    1.2354    1.2495 C   0  0  0  0  0  0  0  0  0  0  0  0
    5.7519    1.7214    0.0327 C   0  0  0  0  0  0  0  0  0  0  0  0
    5.7714    1.4443    2.5279 C   0  0  0  0  0  0  0  0  0  0  0  0
    2.9917   -2.6852   -3.2156 H   0  0  0  0  0  0  0  0  0  0  0  0
    3.4096   -2.5840   -1.4995 H   0  0  0  0  0  0  0  0  0  0  0  0
    1.7338   -2.9910   -2.0083 H   0  0  0  0  0  0  0  0  0  0  0  0
   -0.2286   -0.6329   -2.1093 H   0  0  0  0  0  0  0  0  0  0  0  0
   -2.2261   -0.0766   -1.0555 H   0  0  0  0  0  0  0  0  0  0  0  0
   -4.7372    1.2591    0.7996 H   0  0  0  0  0  0  0  0  0  0  0  0
   -4.7259   -1.0646    1.6957 H   0  0  0  0  0  0  0  0  0  0  0  0
   -4.0419   -1.6880    0.2035 H   0  0  0  0  0  0  0  0  0  0  0  0
   -6.8123   -0.4590    0.5796 H   0  0  0  0  0  0  0  0  0  0  0  0
   -6.4373   -2.1389    0.1969 H   0  0  0  0  0  0  0  0  0  0  0  0
   -7.1660   -0.8090   -1.8130 H   0  0  0  0  0  0  0  0  0  0  0  0
   -5.5621   -1.5157   -2.0018 H   0  0  0  0  0  0  0  0  0  0  0  0
   -6.1934    1.3916   -1.2525 H   0  0  0  0  0  0  0  0  0  0  0  0
   -5.5349    0.8095   -2.7799 H   0  0  0  0  0  0  0  0  0  0  0  0
   -3.8665    1.6971   -1.3365 H   0  0  0  0  0  0  0  0  0  0  0  0
   -0.1821    0.6091    2.0241 H   0  0  0  0  0  0  0  0  0  0  0  0
    2.2101    0.3692    2.0853 H   0  0  0  0  0  0  0  0  0  0  0  0
    4.0991   -0.6439    2.0109 H   0  0  0  0  0  0  0  0  0  0  0  0
    5.4782   -0.8423    0.9647 H   0  0  0  0  0  0  0  0  0  0  0  0
    4.0558    1.8489    1.3118 H   0  0  0  0  0  0  0  0  0  0  0  0
    6.0401    2.7705    0.1536 H   0  0  0  0  0  0  0  0  0  0  0  0
    5.1554    1.6449   -0.8819 H   0  0  0  0  0  0  0  0  0  0  0  0
    6.6664    1.1347   -0.1077 H   0  0  0  0  0  0  0  0  0  0  0  0
    6.0349    2.5000    2.6530 H   0  0  0  0  0  0  0  0  0  0  0  0
    5.1939    1.1387    3.4066 H   0  0  0  0  0  0  0  0  0  0  0  0
    6.7001    0.8624    2.5123 H   0  0  0  0  0  0  0  0  0  0  0  0
  1  2  1  0
  2  3  1  0
  3  4  2  0
  4  5  1  0
  5  6  1  0
  6  7  1  0
  7  8  2  0
  7  9  1  0
  9 10  1  0
 10 11  1  0
 11 12  1  0
 12 13  1  0
 13 14  1  0
  5 15  2  0
 15 16  1  0
 16 17  2  0
 17 18  1  0
 18 19  1  0
 19 20  1  0
 20 21  1  0
 20 22  1  0
 17  3  1  0
 14  9  1  0
  1 23  1  0
  1 24  1  0
  1 25  1  0
  4 26  1  0
  6 27  1  0
  9 28  1  0
 10 29  1  0
 10 30  1  0
 11 31  1  0
 11 32  1  0
 12 33  1  0
 12 34  1  0
 13 35  1  0
 13 36  1  0
 14 37  1  0
 15 38  1  0
 16 39  1  0
 19 40  1  0
 19 41  1  0
 20 42  1  0
 21 43  1  0
 21 44  1  0
 21 45  1  0
 22 46  1  0
 22 47  1  0
 22 48  1  0
M  END
$$$$
