
     RDKit          3D

 39 40  0  0  0  0  0  0  0  0999 V2000
    4.6617    1.0634   -2.7721 C   0  0  0  0  0  0  0  0  0  0  0  0
    4.9410    0.8777   -1.3904 O   0  0  0  0  0  0  0  0  0  0  0  0
    4.0318    0.1546   -0.6685 C   0  0  0  0  0  0  0  0  0  0  0  0
    2.8385   -0.3811   -1.1518 C   0  0  0  0  0  0  0  0  0  0  0  0
    1.9950   -1.1026   -0.2995 C   0  0  0  0  0  0  0  0  0  0  0  0
    2.3341   -1.2993    1.0453 C   0  0  0  0  0  0  0  0  0  0  0  0
    1.4095   -2.0617    1.9659 C   0  0  0  0  0  0  0  0  0  0  0  0
    0.5436   -1.1351    2.8232 C   0  0  0  0  0  0  0  0  0  0  0  0
   -0.3503   -0.3482    2.0157 O   0  0  0  0  0  0  0  0  0  0  0  0
   -1.4770   -0.9701    1.5983 C   0  0  0  0  0  0  0  0  0  0  0  0
   -1.8134   -2.1103    1.8713 O   0  0  0  0  0  0  0  0  0  0  0  0
   -2.2785   -0.0653    0.7307 C   0  0  0  0  0  0  0  0  0  0  0  0
   -1.8313    1.2077    0.3582 C   0  0  0  0  0  0  0  0  0  0  0  0
   -2.6179    2.0223   -0.4662 C   0  0  0  0  0  0  0  0  0  0  0  0
   -3.8825    1.6103   -0.9097 C   0  0  0  0  0  0  0  0  0  0  0  0
   -4.5463    2.4223   -1.8445 N   0  0  0  0  0  0  0  0  0  0  0  0
   -4.2912    0.3050   -0.5709 C   0  0  0  0  0  0  0  0  0  0  0  0
   -5.5657   -0.2263   -1.0544 N   0  0  0  0  0  4  0  0  0  0  0  0
   -5.6380   -1.4475   -1.2527 O   0  0  0  0  0  0  0  0  0  0  0  0
   -6.5014    0.5730   -1.2178 O   0  0  0  0  0  1  0  0  0  0  0  0
   -3.5111   -0.5232    0.2551 C   0  0  0  0  0  0  0  0  0  0  0  0
    3.5313   -0.7579    1.5257 C   0  0  0  0  0  0  0  0  0  0  0  0
    4.3706   -0.0374    0.6725 C   0  0  0  0  0  0  0  0  0  0  0  0
    3.7423    1.6409   -2.9143 H   0  0  0  0  0  0  0  0  0  0  0  0
    5.4858    1.6385   -3.2053 H   0  0  0  0  0  0  0  0  0  0  0  0
    4.6124    0.1043   -3.2983 H   0  0  0  0  0  0  0  0  0  0  0  0
    2.5325   -0.2574   -2.1850 H   0  0  0  0  0  0  0  0  0  0  0  0
    1.0679   -1.5115   -0.6961 H   0  0  0  0  0  0  0  0  0  0  0  0
    2.0120   -2.7062    2.6178 H   0  0  0  0  0  0  0  0  0  0  0  0
    0.7799   -2.7311    1.3680 H   0  0  0  0  0  0  0  0  0  0  0  0
   -0.0261   -1.7118    3.5620 H   0  0  0  0  0  0  0  0  0  0  0  0
    1.1669   -0.4309    3.3854 H   0  0  0  0  0  0  0  0  0  0  0  0
   -0.8616    1.5785    0.6862 H   0  0  0  0  0  0  0  0  0  0  0  0
   -2.2243    2.9923   -0.7661 H   0  0  0  0  0  0  0  0  0  0  0  0
   -5.5536    2.2439   -1.9016 H   0  0  0  0  0  0  0  0  0  0  0  0
   -4.3526    3.4163   -1.7587 H   0  0  0  0  0  0  0  0  0  0  0  0
   -3.8557   -1.5218    0.5227 H   0  0  0  0  0  0  0  0  0  0  0  0
    3.8222   -0.8920    2.5648 H   0  0  0  0  0  0  0  0  0  0  0  0
    5.2995    0.3775    1.0562 H   0  0  0  0  0  0  0  0  0  0  0  0
  1  2  1  0
  2  3  1  0
  3  4  2  0
  4  5  1  0
  5  6  2  0
  6  7  1  0
  7  8  1  0
  8  9  1  0
  9 10  1  0
 10 11  2  0
 10 12  1  0
 12 13  2  0
 13 14  1  0
 14 15  2  0
 15 16  1  0
 15 17  1  0
 17 18  1  0
 18 19  2  0
 18 20  1  0
 17 21  2  0
  6 22  1  0
 22 23  2  0
 23  3  1  0
 21 12  1  0
  1 24  1  0
  1 25  1  0
  1 26  1  0
  4 27  1  0
  5 28  1  0
  7 29  1  0
  7 30  1  0
  8 31  1  0
  8 32  1  0
 13 33  1  0
 14 34  1  0
 16 35  1  0
 16 36  1  0
 21 37  1  0
 22 38  1  0
 23 39  1  0
M  CHG  2  18   1  20  -1
M  END
$$$$
