
     RDKit          3D

 56 59  0  0  0  0  0  0  0  0999 V2000
   -1.7180   -3.3769   -0.9786 C   0  0  0  0  0  0  0  0  0  0  0  0
   -1.6058   -2.3409    0.1435 C   0  0  0  0  0  0  0  0  0  0  0  0
   -2.1149   -0.9638   -0.3709 C   0  0  0  0  0  0  0  0  0  0  0  0
   -1.3528   -0.2026   -0.9730 O   0  0  0  0  0  0  0  0  0  0  0  0
   -3.4595   -0.6868   -0.1535 N   0  0  0  0  0  0  0  0  0  0  0  0
   -4.4272   -1.5341    0.5693 C   0  0  0  0  0  0  0  0  0  0  0  0
   -5.8082   -0.8815    0.4426 C   0  0  0  0  0  0  0  0  0  0  0  0
   -5.4661    0.4446   -0.1519 C   0  0  0  0  0  0  0  0  0  0  0  0
   -6.3319    1.5023   -0.3906 C   0  0  0  0  0  0  0  0  0  0  0  0
   -5.8220    2.6522   -0.9936 C   0  0  0  0  0  0  0  0  0  0  0  0
   -4.4685    2.7247   -1.3516 C   0  0  0  0  0  0  0  0  0  0  0  0
   -3.6068    1.6489   -1.1108 C   0  0  0  0  0  0  0  0  0  0  0  0
   -4.1169    0.5110   -0.5077 C   0  0  0  0  0  0  0  0  0  0  0  0
   -0.2435   -2.2970    0.7312 N   0  0  0  0  0  0  0  0  0  0  0  0
    0.8536   -1.9098   -0.1776 C   0  0  0  0  0  0  0  0  0  0  0  0
    1.5947   -0.6084    0.2024 C   0  0  0  0  0  0  0  0  0  0  0  0
    2.1427   -0.6761    1.5974 N   0  0  0  0  0  0  0  0  0  0  0  0
    2.7084    0.8023    2.2313 S   0  0  0  0  0  6  0  0  0  0  0  0
    3.3542    0.5288    3.4985 O   0  0  0  0  0  0  0  0  0  0  0  0
    1.6283    1.7629    2.1400 O   0  0  0  0  0  0  0  0  0  0  0  0
    3.9812    1.2667    1.0830 C   0  0  0  0  0  0  0  0  0  0  0  0
    5.1893    0.5637    1.0905 C   0  0  0  0  0  0  0  0  0  0  0  0
    6.2017    0.9268    0.2005 C   0  0  0  0  0  0  0  0  0  0  0  0
    6.0140    1.9906   -0.6992 C   0  0  0  0  0  0  0  0  0  0  0  0
    7.1221    2.3928   -1.6442 C   0  0  0  0  0  0  0  0  0  0  0  0
    6.6692    3.0203   -2.7657 F   0  0  0  0  0  0  0  0  0  0  0  0
    8.0095    3.2492   -1.0678 F   0  0  0  0  0  0  0  0  0  0  0  0
    7.8557    1.3318   -2.0840 F   0  0  0  0  0  0  0  0  0  0  0  0
    4.7987    2.6977   -0.6783 C   0  0  0  0  0  0  0  0  0  0  0  0
    3.7823    2.3391    0.2103 C   0  0  0  0  0  0  0  0  0  0  0  0
    1.2410   -1.4213    2.5365 C   0  0  0  0  0  0  0  0  0  0  0  0
   -0.1955   -1.5441    1.9966 C   0  0  0  0  0  0  0  0  0  0  0  0
   -2.7605   -3.4973   -1.2913 H   0  0  0  0  0  0  0  0  0  0  0  0
   -1.1542   -3.0874   -1.8707 H   0  0  0  0  0  0  0  0  0  0  0  0
   -1.3546   -4.3555   -0.6463 H   0  0  0  0  0  0  0  0  0  0  0  0
   -2.2569   -2.6927    0.9498 H   0  0  0  0  0  0  0  0  0  0  0  0
   -4.1152   -1.5815    1.6196 H   0  0  0  0  0  0  0  0  0  0  0  0
   -4.4256   -2.5497    0.1619 H   0  0  0  0  0  0  0  0  0  0  0  0
   -6.2979   -0.7881    1.4161 H   0  0  0  0  0  0  0  0  0  0  0  0
   -6.4477   -1.4510   -0.2398 H   0  0  0  0  0  0  0  0  0  0  0  0
   -7.3814    1.4415   -0.1207 H   0  0  0  0  0  0  0  0  0  0  0  0
   -6.4766    3.4978   -1.1907 H   0  0  0  0  0  0  0  0  0  0  0  0
   -4.0819    3.6265   -1.8210 H   0  0  0  0  0  0  0  0  0  0  0  0
   -2.5635    1.7325   -1.3939 H   0  0  0  0  0  0  0  0  0  0  0  0
    0.5362   -1.8396   -1.2228 H   0  0  0  0  0  0  0  0  0  0  0  0
    1.5828   -2.7306   -0.1504 H   0  0  0  0  0  0  0  0  0  0  0  0
    2.4288   -0.4769   -0.4954 H   0  0  0  0  0  0  0  0  0  0  0  0
    0.9240    0.2513    0.1001 H   0  0  0  0  0  0  0  0  0  0  0  0
    5.3429   -0.2599    1.7856 H   0  0  0  0  0  0  0  0  0  0  0  0
    7.1432    0.3775    0.2108 H   0  0  0  0  0  0  0  0  0  0  0  0
    4.6408    3.5357   -1.3573 H   0  0  0  0  0  0  0  0  0  0  0  0
    2.8475    2.8972    0.2160 H   0  0  0  0  0  0  0  0  0  0  0  0
    1.2065   -0.9419    3.5209 H   0  0  0  0  0  0  0  0  0  0  0  0
    1.6753   -2.4167    2.6908 H   0  0  0  0  0  0  0  0  0  0  0  0
   -0.6183   -0.5385    1.8762 H   0  0  0  0  0  0  0  0  0  0  0  0
   -0.8029   -2.0656    2.7457 H   0  0  0  0  0  0  0  0  0  0  0  0
  1  2  1  0
  2  3  1  0
  3  4  2  0
  3  5  1  0
  5  6  1  0
  6  7  1  0
  7  8  1  0
  8  9  2  0
  9 10  1  0
 10 11  2  0
 11 12  1  0
 12 13  2  0
  2 14  1  0
 14 15  1  0
 15 16  1  0
 16 17  1  0
 17 18  1  0
 18 19  2  0
 18 20  2  0
 18 21  1  0
 21 22  2  0
 22 23  1  0
 23 24  2  0
 24 25  1  0
 25 26  1  0
 25 27  1  0
 25 28  1  0
 24 29  1  0
 29 30  2  0
 17 31  1  0
 31 32  1  0
 13  5  1  0
 32 14  1  0
 13  8  1  0
 30 21  1  0
  1 33  1  0
  1 34  1  0
  1 35  1  0
  2 36  1  0
  6 37  1  0
  6 38  1  0
  7 39  1  0
  7 40  1  0
  9 41  1  0
 10 42  1  0
 11 43  1  0
 12 44  1  0
 15 45  1  0
 15 46  1  0
 16 47  1  0
 16 48  1  0
 22 49  1  0
 23 50  1  0
 29 51  1  0
 30 52  1  0
 31 53  1  0
 31 54  1  0
 32 55  1  0
 32 56  1  0
M  END
$$$$
