
     RDKit          3D

 44 46  0  0  0  0  0  0  0  0999 V2000
   -5.1748   -1.1526    2.0525 C   0  0  0  0  0  0  0  0  0  0  0  0
   -5.0114   -0.8171    0.5952 C   0  0  0  0  0  0  0  0  0  0  0  0
   -5.4902   -1.7071   -0.3781 C   0  0  0  0  0  0  0  0  0  0  0  0
   -5.3481   -1.4172   -1.7333 C   0  0  0  0  0  0  0  0  0  0  0  0
   -4.7267   -0.2366   -2.1272 C   0  0  0  0  0  0  0  0  0  0  0  0
   -4.2462    0.6593   -1.1686 C   0  0  0  0  0  0  0  0  0  0  0  0
   -4.3861    0.3784    0.1943 C   0  0  0  0  0  0  0  0  0  0  0  0
   -3.9371    1.1764    1.2152 O   0  0  0  0  0  0  0  0  0  0  0  0
   -3.3360    2.4223    0.8890 C   0  0  0  0  0  0  0  0  0  0  0  0
   -1.8753    2.3265    0.4318 C   0  0  0  0  0  0  0  0  0  0  0  0
   -1.3760    3.2216   -0.2431 O   0  0  0  0  0  0  0  0  0  0  0  0
   -1.2551    1.1900    0.8978 N   0  0  0  0  0  0  0  0  0  0  0  0
    0.0432    0.8054    0.6917 C   0  0  0  0  0  0  0  0  0  0  0  0
    0.5184   -0.3314    1.1495 N   0  0  0  0  0  0  0  0  0  0  0  0
    1.8489   -0.5085    0.8283 N   0  0  0  0  0  0  0  0  0  0  0  0
    2.3303    0.5078    0.1411 C   0  0  0  0  0  0  0  0  0  0  0  0
    3.7439    0.6193   -0.3642 C   0  0  0  0  0  0  0  0  0  0  0  0
    3.9642   -0.3581   -1.5355 C   0  0  0  0  0  0  0  0  0  0  0  0
    5.4374   -0.7089   -1.7020 C   0  0  0  0  0  0  0  0  0  0  0  0
    5.9963   -1.4107   -0.4634 C   0  0  0  0  0  0  0  0  0  0  0  0
    5.2959   -1.0089    0.8360 C   0  0  0  0  0  0  0  0  0  0  0  0
    4.7621    0.4191    0.7778 C   0  0  0  0  0  0  0  0  0  0  0  0
    1.1783    1.7479   -0.1579 S   0  0  0  0  0  0  0  0  0  0  0  0
   -5.7845   -0.3916    2.5502 H   0  0  0  0  0  0  0  0  0  0  0  0
   -4.1960   -1.2113    2.5396 H   0  0  0  0  0  0  0  0  0  0  0  0
   -5.6715   -2.1189    2.1901 H   0  0  0  0  0  0  0  0  0  0  0  0
   -5.9771   -2.6346   -0.0845 H   0  0  0  0  0  0  0  0  0  0  0  0
   -5.7205   -2.1132   -2.4807 H   0  0  0  0  0  0  0  0  0  0  0  0
   -4.6131   -0.0111   -3.1849 H   0  0  0  0  0  0  0  0  0  0  0  0
   -3.7662    1.5623   -1.5318 H   0  0  0  0  0  0  0  0  0  0  0  0
   -3.9317    2.9792    0.1567 H   0  0  0  0  0  0  0  0  0  0  0  0
   -3.3317    3.0213    1.8072 H   0  0  0  0  0  0  0  0  0  0  0  0
   -1.8167    0.5100    1.3984 H   0  0  0  0  0  0  0  0  0  0  0  0
    3.9010    1.6389   -0.7434 H   0  0  0  0  0  0  0  0  0  0  0  0
    3.3953   -1.2861   -1.3886 H   0  0  0  0  0  0  0  0  0  0  0  0
    3.5807    0.0899   -2.4606 H   0  0  0  0  0  0  0  0  0  0  0  0
    6.0074    0.2100   -1.8887 H   0  0  0  0  0  0  0  0  0  0  0  0
    5.5795   -1.3472   -2.5815 H   0  0  0  0  0  0  0  0  0  0  0  0
    7.0688   -1.1925   -0.3903 H   0  0  0  0  0  0  0  0  0  0  0  0
    5.9145   -2.4977   -0.5841 H   0  0  0  0  0  0  0  0  0  0  0  0
    4.4665   -1.6999    1.0304 H   0  0  0  0  0  0  0  0  0  0  0  0
    5.9924   -1.1179    1.6751 H   0  0  0  0  0  0  0  0  0  0  0  0
    5.6127    1.0942    0.6132 H   0  0  0  0  0  0  0  0  0  0  0  0
    4.3344    0.6993    1.7481 H   0  0  0  0  0  0  0  0  0  0  0  0
  1  2  1  0
  2  3  2  0
  3  4  1  0
  4  5  2  0
  5  6  1  0
  6  7  2  0
  7  8  1  0
  8  9  1  0
  9 10  1  0
 10 11  2  0
 10 12  1  0
 12 13  1  0
 13 14  2  0
 14 15  1  0
 15 16  2  0
 16 17  1  0
 17 18  1  0
 18 19  1  0
 19 20  1  0
 20 21  1  0
 21 22  1  0
 16 23  1  0
  7  2  1  0
 23 13  1  0
 22 17  1  0
  1 24  1  0
  1 25  1  0
  1 26  1  0
  3 27  1  0
  4 28  1  0
  5 29  1  0
  6 30  1  0
  9 31  1  0
  9 32  1  0
 12 33  1  0
 17 34  1  0
 18 35  1  0
 18 36  1  0
 19 37  1  0
 19 38  1  0
 20 39  1  0
 20 40  1  0
 21 41  1  0
 21 42  1  0
 22 43  1  0
 22 44  1  0
M  END
$$$$
