
     RDKit          3D

 49 52  0  0  0  0  0  0  0  0999 V2000
    3.6946    1.4653   -1.9865 O   0  0  0  0  0  0  0  0  0  0  0  0
    3.3666    1.5374   -0.8039 C   0  0  0  0  0  0  0  0  0  0  0  0
    2.6986    2.7954   -0.2664 C   0  0  0  0  0  0  0  0  0  0  0  0
    0.9178    2.7610   -0.6349 S   0  0  0  0  0  0  0  0  0  0  0  0
    0.4018    1.5586    0.4924 C   0  0  0  0  0  0  0  0  0  0  0  0
    1.0313    1.2457    1.5980 N   0  0  0  0  0  0  0  0  0  0  0  0
    0.3675    0.1906    2.1632 N   0  0  0  0  0  0  0  0  0  0  0  0
   -0.6726   -0.1102    1.4058 C   0  0  0  0  0  0  0  0  0  0  0  0
   -1.5815   -1.2224    1.6460 C   0  0  0  0  0  0  0  0  0  0  0  0
   -1.0864   -2.5272    1.6486 C   0  0  0  0  0  0  0  0  0  0  0  0
   -1.9715   -3.5664    1.8770 C   0  0  0  0  0  0  0  0  0  0  0  0
   -3.2907   -3.3905    2.1032 N   0  0  0  0  0  0  0  0  0  0  0  0
   -3.7398   -2.1174    2.1268 C   0  0  0  0  0  0  0  0  0  0  0  0
   -2.9339   -1.0130    1.9102 C   0  0  0  0  0  0  0  0  0  0  0  0
   -0.6907    0.7505    0.3256 N   0  0  0  0  0  0  0  0  0  0  0  0
   -1.5646    0.6924   -0.8329 C   0  0  0  0  0  0  0  0  0  0  0  0
   -2.5897    1.8254   -0.8716 C   0  0  0  0  0  0  0  0  0  0  0  0
   -3.2614    1.9581   -2.2299 C   0  0  0  0  0  0  0  0  0  0  0  0
   -4.5542    2.6420   -1.8636 C   0  0  0  0  0  0  0  0  0  0  0  0
   -4.8998    1.9769   -0.5488 C   0  0  0  0  0  0  0  0  0  0  0  0
   -3.6601    1.5795    0.0598 O   0  0  0  0  0  0  0  0  0  0  0  0
    3.5354    0.5473    0.1484 N   0  0  0  0  0  0  0  0  0  0  0  0
    4.1479   -0.7209   -0.0108 C   0  0  0  0  0  0  0  0  0  0  0  0
    4.7183   -1.1500   -1.2135 C   0  0  0  0  0  0  0  0  0  0  0  0
    5.3053   -2.4171   -1.3171 C   0  0  0  0  0  0  0  0  0  0  0  0
    5.3349   -3.2722   -0.2191 C   0  0  0  0  0  0  0  0  0  0  0  0
    4.7799   -2.8600    0.9894 C   0  0  0  0  0  0  0  0  0  0  0  0
    4.1933   -1.5945    1.0930 C   0  0  0  0  0  0  0  0  0  0  0  0
    3.5484   -1.1350    2.6315 Cl  0  0  0  0  0  0  0  0  0  0  0  0
    3.1472    3.6575   -0.7716 H   0  0  0  0  0  0  0  0  0  0  0  0
    2.8869    2.9223    0.8047 H   0  0  0  0  0  0  0  0  0  0  0  0
   -0.0335   -2.7306    1.4815 H   0  0  0  0  0  0  0  0  0  0  0  0
   -1.6329   -4.5984    1.8861 H   0  0  0  0  0  0  0  0  0  0  0  0
   -4.7998   -2.0031    2.3374 H   0  0  0  0  0  0  0  0  0  0  0  0
   -3.3559   -0.0154    1.9654 H   0  0  0  0  0  0  0  0  0  0  0  0
   -0.9187    0.7188   -1.7184 H   0  0  0  0  0  0  0  0  0  0  0  0
   -2.0659   -0.2810   -0.8341 H   0  0  0  0  0  0  0  0  0  0  0  0
   -2.1414    2.7845   -0.5883 H   0  0  0  0  0  0  0  0  0  0  0  0
   -2.6601    2.5234   -2.9474 H   0  0  0  0  0  0  0  0  0  0  0  0
   -3.4758    0.9717   -2.6596 H   0  0  0  0  0  0  0  0  0  0  0  0
   -4.3774    3.7127   -1.7064 H   0  0  0  0  0  0  0  0  0  0  0  0
   -5.3393    2.5330   -2.6164 H   0  0  0  0  0  0  0  0  0  0  0  0
   -5.4453    2.6414    0.1273 H   0  0  0  0  0  0  0  0  0  0  0  0
   -5.4960    1.0717   -0.7059 H   0  0  0  0  0  0  0  0  0  0  0  0
    3.0909    0.6939    1.0582 H   0  0  0  0  0  0  0  0  0  0  0  0
    4.7252   -0.5232   -2.0997 H   0  0  0  0  0  0  0  0  0  0  0  0
    5.7430   -2.7299   -2.2626 H   0  0  0  0  0  0  0  0  0  0  0  0
    5.7939   -4.2540   -0.3039 H   0  0  0  0  0  0  0  0  0  0  0  0
    4.8103   -3.5245    1.8490 H   0  0  0  0  0  0  0  0  0  0  0  0
  1  2  2  0
  2  3  1  0
  3  4  1  0
  4  5  1  0
  5  6  2  0
  6  7  1  0
  7  8  2  0
  8  9  1  0
  9 10  2  0
 10 11  1  0
 11 12  2  0
 12 13  1  0
 13 14  2  0
  8 15  1  0
 15 16  1  0
 16 17  1  0
 17 18  1  0
 18 19  1  0
 19 20  1  0
 20 21  1  0
  2 22  1  0
 22 23  1  0
 23 24  2  0
 24 25  1  0
 25 26  2  0
 26 27  1  0
 27 28  2  0
 28 29  1  0
 15  5  1  0
 21 17  1  0
 28 23  1  0
 14  9  1  0
  3 30  1  0
  3 31  1  0
 10 32  1  0
 11 33  1  0
 13 34  1  0
 14 35  1  0
 16 36  1  0
 16 37  1  0
 17 38  1  0
 18 39  1  0
 18 40  1  0
 19 41  1  0
 19 42  1  0
 20 43  1  0
 20 44  1  0
 22 45  1  0
 24 46  1  0
 25 47  1  0
 26 48  1  0
 27 49  1  0
M  END
$$$$
