
     RDKit          3D

 46 48  0  0  0  0  0  0  0  0999 V2000
    6.5808    0.7519   -2.0828 C   0  0  0  0  0  0  0  0  0  0  0  0
    5.6423    1.3415   -2.9718 O   0  0  0  0  0  0  0  0  0  0  0  0
    5.2247    2.6512   -2.5741 C   0  0  0  0  0  0  0  0  0  0  0  0
    4.2115    2.6282   -1.4297 C   0  0  0  0  0  0  0  0  0  0  0  0
    3.0357    1.9312   -1.8686 O   0  0  0  0  0  0  0  0  0  0  0  0
    2.0618    1.8057   -0.9249 C   0  0  0  0  0  0  0  0  0  0  0  0
    2.1400    2.2863    0.1999 O   0  0  0  0  0  0  0  0  0  0  0  0
    0.9111    1.0501   -1.3898 C   0  0  0  0  0  0  0  0  0  0  0  0
    0.7322    0.4733   -2.6403 C   0  0  0  0  0  0  0  0  0  0  0  0
    1.5584    0.3974   -3.8670 C   0  0  0  0  0  0  0  0  0  0  0  0
   -0.4780   -0.1497   -2.7113 O   0  0  0  0  0  0  0  0  0  0  0  0
   -1.0871    0.0093   -1.5092 C   0  0  0  0  0  0  0  0  0  0  0  0
   -2.3438   -0.4890   -1.1734 C   0  0  0  0  0  0  0  0  0  0  0  0
   -2.7961   -0.2220    0.1229 C   0  0  0  0  0  0  0  0  0  0  0  0
   -2.0161    0.5129    1.0179 C   0  0  0  0  0  0  0  0  0  0  0  0
   -2.4859    0.7245    2.3444 N   0  0  0  0  0  0  0  0  0  0  0  0
   -2.1352   -0.4603    3.5024 S   0  0  0  0  0  6  0  0  0  0  0  0
   -0.8546   -1.0644    3.2075 O   0  0  0  0  0  0  0  0  0  0  0  0
   -2.3967    0.1488    4.7898 O   0  0  0  0  0  0  0  0  0  0  0  0
   -3.4136   -1.6629    3.2251 C   0  0  0  0  0  0  0  0  0  0  0  0
   -3.1058   -2.8726    2.5910 C   0  0  0  0  0  0  0  0  0  0  0  0
   -4.1149   -3.8147    2.3886 C   0  0  0  0  0  0  0  0  0  0  0  0
   -5.4079   -3.5431    2.8280 C   0  0  0  0  0  0  0  0  0  0  0  0
   -6.3734   -4.4498    2.6308 F   0  0  0  0  0  0  0  0  0  0  0  0
   -5.7146   -2.3468    3.4710 C   0  0  0  0  0  0  0  0  0  0  0  0
   -4.7123   -1.3985    3.6771 C   0  0  0  0  0  0  0  0  0  0  0  0
   -0.7523    0.9967    0.6527 C   0  0  0  0  0  0  0  0  0  0  0  0
   -0.2779    0.7412   -0.6505 C   0  0  0  0  0  0  0  0  0  0  0  0
    6.9053   -0.2000   -2.5123 H   0  0  0  0  0  0  0  0  0  0  0  0
    6.1252    0.5491   -1.1103 H   0  0  0  0  0  0  0  0  0  0  0  0
    7.4580    1.3950   -1.9639 H   0  0  0  0  0  0  0  0  0  0  0  0
    6.0975    3.2605   -2.3142 H   0  0  0  0  0  0  0  0  0  0  0  0
    4.7547    3.1000   -3.4559 H   0  0  0  0  0  0  0  0  0  0  0  0
    3.9421    3.6568   -1.1645 H   0  0  0  0  0  0  0  0  0  0  0  0
    4.6254    2.1200   -0.5530 H   0  0  0  0  0  0  0  0  0  0  0  0
    2.5115   -0.0981   -3.6586 H   0  0  0  0  0  0  0  0  0  0  0  0
    1.0506   -0.1710   -4.6529 H   0  0  0  0  0  0  0  0  0  0  0  0
    1.7610    1.3997   -4.2565 H   0  0  0  0  0  0  0  0  0  0  0  0
   -2.9342   -1.0540   -1.8846 H   0  0  0  0  0  0  0  0  0  0  0  0
   -3.7764   -0.5863    0.4205 H   0  0  0  0  0  0  0  0  0  0  0  0
   -2.3463    1.6533    2.7432 H   0  0  0  0  0  0  0  0  0  0  0  0
   -2.0933   -3.0841    2.2529 H   0  0  0  0  0  0  0  0  0  0  0  0
   -3.9022   -4.7588    1.8962 H   0  0  0  0  0  0  0  0  0  0  0  0
   -6.7299   -2.1651    3.8104 H   0  0  0  0  0  0  0  0  0  0  0  0
   -4.9440   -0.4656    4.1865 H   0  0  0  0  0  0  0  0  0  0  0  0
   -0.1370    1.5440    1.3612 H   0  0  0  0  0  0  0  0  0  0  0  0
  1  2  1  0
  2  3  1  0
  3  4  1  0
  4  5  1  0
  5  6  1  0
  6  7  2  0
  6  8  1  0
  8  9  2  0
  9 10  1  0
  9 11  1  0
 11 12  1  0
 12 13  2  0
 13 14  1  0
 14 15  2  0
 15 16  1  0
 16 17  1  0
 17 18  2  0
 17 19  2  0
 17 20  1  0
 20 21  2  0
 21 22  1  0
 22 23  2  0
 23 24  1  0
 23 25  1  0
 25 26  2  0
 15 27  1  0
 27 28  2  0
 28  8  1  0
 28 12  1  0
 26 20  1  0
  1 29  1  0
  1 30  1  0
  1 31  1  0
  3 32  1  0
  3 33  1  0
  4 34  1  0
  4 35  1  0
 10 36  1  0
 10 37  1  0
 10 38  1  0
 13 39  1  0
 14 40  1  0
 16 41  1  0
 21 42  1  0
 22 43  1  0
 25 44  1  0
 26 45  1  0
 27 46  1  0
M  END
$$$$
