
     RDKit          3D

 38 41  0  0  0  0  0  0  0  0999 V2000
    8.2608    1.5293    0.4057 C   0  0  0  0  0  0  0  0  0  0  0  0
    6.7882    1.7078    0.4279 C   0  0  0  0  0  0  0  0  0  0  0  0
    6.1670    2.8516    0.6237 N   0  0  0  0  0  0  0  0  0  0  0  0
    4.7948    2.7032    0.5890 N   0  0  0  0  0  0  0  0  0  0  0  0
    4.4331    1.4583    0.3695 C   0  0  0  0  0  0  0  0  0  0  0  0
    3.1150    1.0898    0.2964 N   0  0  0  0  0  0  0  0  0  0  0  0
    2.6023   -0.1695    0.0740 C   0  0  0  0  0  0  0  0  0  0  0  0
    3.2843   -1.1782   -0.0931 O   0  0  0  0  0  0  0  0  0  0  0  0
    1.1367   -0.2369    0.0494 C   0  0  0  0  0  0  0  0  0  0  0  0
    0.1701    1.1177    0.4559 S   0  0  0  0  0  0  0  0  0  0  0  0
   -1.2739    0.2567    0.2152 C   0  0  0  0  0  0  0  0  0  0  0  0
   -2.4523    0.8770    0.4028 N   0  0  0  0  0  0  0  0  0  0  0  0
   -3.5413    0.1251    0.1690 C   0  0  0  0  0  0  0  0  0  0  0  0
   -4.8339    0.8042    0.3547 C   0  0  0  0  0  0  0  0  0  0  0  0
   -6.0308    0.6078   -0.3163 C   0  0  0  0  0  0  0  0  0  0  0  0
   -7.0788    1.4511    0.1571 C   0  0  0  0  0  0  0  0  0  0  0  0
   -6.6570    2.2684    1.1793 C   0  0  0  0  0  0  0  0  0  0  0  0
   -5.0114    2.0190    1.5616 S   0  0  0  0  0  0  0  0  0  0  0  0
   -3.4809   -1.1987   -0.2456 C   0  0  0  0  0  0  0  0  0  0  0  0
   -2.2354   -1.8345   -0.4273 C   0  0  0  0  0  0  0  0  0  0  0  0
   -2.2014   -3.2583   -0.9121 C   0  0  0  0  0  0  0  0  0  0  0  0
   -3.4054   -3.8892   -0.7957 F   0  0  0  0  0  0  0  0  0  0  0  0
   -1.8624   -3.3578   -2.2253 F   0  0  0  0  0  0  0  0  0  0  0  0
   -1.3182   -4.0420   -0.2303 F   0  0  0  0  0  0  0  0  0  0  0  0
   -1.0709   -1.0604   -0.1785 C   0  0  0  0  0  0  0  0  0  0  0  0
    0.3418   -1.3311   -0.2567 C   0  0  0  0  0  0  0  0  0  0  0  0
    0.8600   -2.5332   -0.6069 N   0  0  0  0  0  0  0  0  0  0  0  0
    5.7345    0.3745    0.1891 S   0  0  0  0  0  0  0  0  0  0  0  0
    8.7653    2.4859    0.5755 H   0  0  0  0  0  0  0  0  0  0  0  0
    8.5813    0.8361    1.1898 H   0  0  0  0  0  0  0  0  0  0  0  0
    8.5919    1.1417   -0.5629 H   0  0  0  0  0  0  0  0  0  0  0  0
    2.4711    1.8590    0.4246 H   0  0  0  0  0  0  0  0  0  0  0  0
   -6.1556   -0.1020   -1.1251 H   0  0  0  0  0  0  0  0  0  0  0  0
   -8.0884    1.4597   -0.2353 H   0  0  0  0  0  0  0  0  0  0  0  0
   -7.2343    3.0047    1.7218 H   0  0  0  0  0  0  0  0  0  0  0  0
   -4.3992   -1.7548   -0.4230 H   0  0  0  0  0  0  0  0  0  0  0  0
    1.8730   -2.6752   -0.5175 H   0  0  0  0  0  0  0  0  0  0  0  0
    0.3602   -3.4065   -0.4402 H   0  0  0  0  0  0  0  0  0  0  0  0
  1  2  1  0
  2  3  2  0
  3  4  1  0
  4  5  2  0
  5  6  1  0
  6  7  1  0
  7  8  2  0
  7  9  1  0
  9 10  1  0
 10 11  1  0
 11 12  2  0
 12 13  1  0
 13 14  1  0
 14 15  2  0
 15 16  1  0
 16 17  2  0
 17 18  1  0
 13 19  2  0
 19 20  1  0
 20 21  1  0
 21 22  1  0
 21 23  1  0
 21 24  1  0
 20 25  2  0
 25 26  1  0
 26 27  1  0
  5 28  1  0
 28  2  1  0
 26  9  2  0
 25 11  1  0
 18 14  1  0
  1 29  1  0
  1 30  1  0
  1 31  1  0
  6 32  1  0
 15 33  1  0
 16 34  1  0
 17 35  1  0
 19 36  1  0
 27 37  1  0
 27 38  1  0
M  END
$$$$
