
     RDKit          3D

 68 70  0  0  0  0  0  0  0  0999 V2000
    6.5862    1.4527   -1.8547 C   0  0  0  0  0  0  0  0  0  0  0  0
    5.6467    0.6797   -0.9447 C   0  0  0  0  0  0  0  0  0  0  0  0
    5.0539    1.5731    0.0811 N   0  0  0  0  0  0  0  0  0  0  0  0
    4.0810    2.5711   -0.4342 C   0  0  0  0  0  0  0  0  0  0  0  0
    4.6762    3.9630   -0.3079 C   0  0  0  0  0  0  0  0  0  0  0  0
    4.7069    0.8709    1.5958 S   0  0  0  0  0  6  0  0  0  0  0  0
    4.1227    1.8776    2.4552 O   0  0  0  0  0  0  0  0  0  0  0  0
    5.8749    0.1267    2.0193 O   0  0  0  0  0  0  0  0  0  0  0  0
    3.4389   -0.3250    1.2144 C   0  0  0  0  0  0  0  0  0  0  0  0
    3.7873   -1.6714    1.0642 C   0  0  0  0  0  0  0  0  0  0  0  0
    2.7956   -2.6225    0.8184 C   0  0  0  0  0  0  0  0  0  0  0  0
    1.4513   -2.2382    0.7184 C   0  0  0  0  0  0  0  0  0  0  0  0
    0.4102   -3.1610    0.4395 N   0  0  0  0  0  0  0  0  0  0  0  0
    0.4183   -3.5800   -0.9852 C   0  0  0  0  0  0  0  0  0  0  0  0
   -0.5142   -4.7874   -1.1734 C   0  0  0  0  0  0  0  0  0  0  0  0
   -0.1187   -5.9435   -0.4178 O   0  0  0  0  0  0  0  0  0  0  0  0
    0.6882   -5.6327    0.7277 C   0  0  0  0  0  0  0  0  0  0  0  0
    0.3182   -4.2974    1.3926 C   0  0  0  0  0  0  0  0  0  0  0  0
    1.1165   -0.8690    0.8690 C   0  0  0  0  0  0  0  0  0  0  0  0
   -0.2549   -0.5587    0.7580 N   0  0  0  0  0  0  0  0  0  0  0  0
   -0.8351    0.6814    0.5956 C   0  0  0  0  0  0  0  0  0  0  0  0
   -0.2353    1.7455    0.4831 O   0  0  0  0  0  0  0  0  0  0  0  0
   -2.3550    0.5917    0.5778 C   0  0  0  0  0  0  0  0  0  0  0  0
   -3.0044    1.8082   -0.0887 C   0  0  0  0  0  0  0  0  0  0  0  0
   -4.5387    1.8427    0.0490 C   0  0  0  0  0  0  0  0  0  0  0  0
   -5.0811    3.1680   -0.5299 C   0  0  0  0  0  0  0  0  0  0  0  0
   -6.5584    3.1162   -0.9287 C   0  0  0  0  0  0  0  0  0  0  0  0
   -7.3256    2.0636   -0.1434 C   0  0  0  0  0  0  0  0  0  0  0  0
   -6.7522    0.6640   -0.3694 C   0  0  0  0  0  0  0  0  0  0  0  0
   -5.2384    0.6493   -0.6154 C   0  0  0  0  0  0  0  0  0  0  0  0
    2.1037    0.0782    1.1389 C   0  0  0  0  0  0  0  0  0  0  0  0
    6.0414    2.1794   -2.4638 H   0  0  0  0  0  0  0  0  0  0  0  0
    7.0989    0.7670   -2.5375 H   0  0  0  0  0  0  0  0  0  0  0  0
    7.3416    1.9958   -1.2775 H   0  0  0  0  0  0  0  0  0  0  0  0
    6.2242   -0.1195   -0.4703 H   0  0  0  0  0  0  0  0  0  0  0  0
    4.8523    0.2092   -1.5364 H   0  0  0  0  0  0  0  0  0  0  0  0
    3.1385    2.5399    0.1160 H   0  0  0  0  0  0  0  0  0  0  0  0
    3.8260    2.3653   -1.4788 H   0  0  0  0  0  0  0  0  0  0  0  0
    3.9597    4.7160   -0.6500 H   0  0  0  0  0  0  0  0  0  0  0  0
    5.5863    4.0662   -0.9059 H   0  0  0  0  0  0  0  0  0  0  0  0
    4.9368    4.1880    0.7308 H   0  0  0  0  0  0  0  0  0  0  0  0
    4.8240   -1.9889    1.1507 H   0  0  0  0  0  0  0  0  0  0  0  0
    3.0879   -3.6618    0.6997 H   0  0  0  0  0  0  0  0  0  0  0  0
    0.0703   -2.7481   -1.6095 H   0  0  0  0  0  0  0  0  0  0  0  0
    1.4299   -3.8588   -1.3086 H   0  0  0  0  0  0  0  0  0  0  0  0
   -0.5431   -5.0821   -2.2260 H   0  0  0  0  0  0  0  0  0  0  0  0
   -1.5363   -4.5299   -0.8729 H   0  0  0  0  0  0  0  0  0  0  0  0
    0.5694   -6.4548    1.4432 H   0  0  0  0  0  0  0  0  0  0  0  0
    1.7373   -5.6339    0.4078 H   0  0  0  0  0  0  0  0  0  0  0  0
    0.9235   -4.1356    2.2917 H   0  0  0  0  0  0  0  0  0  0  0  0
   -0.7291   -4.3501    1.7180 H   0  0  0  0  0  0  0  0  0  0  0  0
   -0.8295   -1.3916    0.6560 H   0  0  0  0  0  0  0  0  0  0  0  0
   -2.6454   -0.3199    0.0449 H   0  0  0  0  0  0  0  0  0  0  0  0
   -2.6899    0.5057    1.6185 H   0  0  0  0  0  0  0  0  0  0  0  0
   -2.7254    1.8209   -1.1517 H   0  0  0  0  0  0  0  0  0  0  0  0
   -2.5937    2.7273    0.3507 H   0  0  0  0  0  0  0  0  0  0  0  0
   -4.7787    1.8188    1.1221 H   0  0  0  0  0  0  0  0  0  0  0  0
   -4.5023    3.4716   -1.4138 H   0  0  0  0  0  0  0  0  0  0  0  0
   -4.9300    3.9643    0.2142 H   0  0  0  0  0  0  0  0  0  0  0  0
   -6.6375    2.8908   -2.0010 H   0  0  0  0  0  0  0  0  0  0  0  0
   -7.0118    4.1049   -0.7843 H   0  0  0  0  0  0  0  0  0  0  0  0
   -7.2822    2.3085    0.9257 H   0  0  0  0  0  0  0  0  0  0  0  0
   -8.3870    2.0771   -0.4208 H   0  0  0  0  0  0  0  0  0  0  0  0
   -7.2512    0.1881   -1.2237 H   0  0  0  0  0  0  0  0  0  0  0  0
   -6.9907    0.0458    0.5059 H   0  0  0  0  0  0  0  0  0  0  0  0
   -4.8433   -0.3052   -0.2557 H   0  0  0  0  0  0  0  0  0  0  0  0
   -5.0488    0.6756   -1.6965 H   0  0  0  0  0  0  0  0  0  0  0  0
    1.8434    1.1167    1.3219 H   0  0  0  0  0  0  0  0  0  0  0  0
  1  2  1  0
  2  3  1  0
  3  4  1  0
  4  5  1  0
  3  6  1  0
  6  7  2  0
  6  8  2  0
  6  9  1  0
  9 10  2  0
 10 11  1  0
 11 12  2  0
 12 13  1  0
 13 14  1  0
 14 15  1  0
 15 16  1  0
 16 17  1  0
 17 18  1  0
 12 19  1  0
 19 20  1  0
 20 21  1  0
 21 22  2  0
 21 23  1  0
 23 24  1  0
 24 25  1  0
 25 26  1  0
 26 27  1  0
 27 28  1  0
 28 29  1  0
 29 30  1  0
 19 31  2  0
 31  9  1  0
 18 13  1  0
 30 25  1  0
  1 32  1  0
  1 33  1  0
  1 34  1  0
  2 35  1  0
  2 36  1  0
  4 37  1  0
  4 38  1  0
  5 39  1  0
  5 40  1  0
  5 41  1  0
 10 42  1  0
 11 43  1  0
 14 44  1  0
 14 45  1  0
 15 46  1  0
 15 47  1  0
 17 48  1  0
 17 49  1  0
 18 50  1  0
 18 51  1  0
 20 52  1  0
 23 53  1  0
 23 54  1  0
 24 55  1  0
 24 56  1  0
 25 57  1  0
 26 58  1  0
 26 59  1  0
 27 60  1  0
 27 61  1  0
 28 62  1  0
 28 63  1  0
 29 64  1  0
 29 65  1  0
 30 66  1  0
 30 67  1  0
 31 68  1  0
M  END
$$$$
