
     RDKit          3D

 50 52  0  0  0  0  0  0  0  0999 V2000
   -4.2963   -1.6551   -3.3686 C   0  0  0  0  0  0  0  0  0  0  0  0
   -4.5704   -1.4451   -1.9890 O   0  0  0  0  0  0  0  0  0  0  0  0
   -3.7906   -0.5275   -1.3340 C   0  0  0  0  0  0  0  0  0  0  0  0
   -2.5709   -0.0462   -1.8059 C   0  0  0  0  0  0  0  0  0  0  0  0
   -1.8517    0.8775   -1.0404 C   0  0  0  0  0  0  0  0  0  0  0  0
   -0.5662    1.3776   -1.5648 C   0  0  0  0  0  0  0  0  0  0  0  0
   -0.5996    2.0341   -2.6019 O   0  0  0  0  0  0  0  0  0  0  0  0
    0.6028    1.0725   -0.8785 N   0  0  0  0  0  0  0  0  0  0  0  0
    0.6804    0.2893    0.3674 C   0  0  0  0  0  0  0  0  0  0  0  0
    1.9712   -0.5492    0.4639 C   0  0  0  0  0  0  0  0  0  0  0  0
    3.1547    0.3020    0.2007 N   0  0  0  0  0  0  0  0  0  0  0  0
    4.3624   -0.3287    0.5611 C   0  0  0  0  0  0  0  0  0  0  0  0
    5.1655   -0.9917   -0.3827 C   0  0  0  0  0  0  0  0  0  0  0  0
    6.3528   -1.6241   -0.0020 C   0  0  0  0  0  0  0  0  0  0  0  0
    7.3047   -2.4318   -1.1875 Cl  0  0  0  0  0  0  0  0  0  0  0  0
    6.7718   -1.6137    1.3244 C   0  0  0  0  0  0  0  0  0  0  0  0
    5.9966   -0.9635    2.2815 C   0  0  0  0  0  0  0  0  0  0  0  0
    4.8063   -0.3286    1.9064 C   0  0  0  0  0  0  0  0  0  0  0  0
    3.9211    0.4909    3.1524 Cl  0  0  0  0  0  0  0  0  0  0  0  0
    3.0894    0.9451   -1.1298 C   0  0  0  0  0  0  0  0  0  0  0  0
    1.8229    1.8139   -1.2264 C   0  0  0  0  0  0  0  0  0  0  0  0
   -2.3483    1.3671    0.1739 C   0  0  0  0  0  0  0  0  0  0  0  0
   -3.5646    0.8911    0.6598 C   0  0  0  0  0  0  0  0  0  0  0  0
   -4.1363    1.2789    1.8436 O   0  0  0  0  0  0  0  0  0  0  0  0
   -3.6096    2.4418    2.4692 C   0  0  0  0  0  0  0  0  0  0  0  0
   -4.2637   -0.0763   -0.0871 C   0  0  0  0  0  0  0  0  0  0  0  0
   -5.4856   -0.5213    0.3695 O   0  0  0  0  0  0  0  0  0  0  0  0
   -5.3082   -1.6907    1.1664 C   0  0  0  0  0  0  0  0  0  0  0  0
   -3.3514   -2.1918   -3.5004 H   0  0  0  0  0  0  0  0  0  0  0  0
   -4.2967   -0.7120   -3.9256 H   0  0  0  0  0  0  0  0  0  0  0  0
   -5.0945   -2.2830   -3.7759 H   0  0  0  0  0  0  0  0  0  0  0  0
   -2.1528   -0.3686   -2.7539 H   0  0  0  0  0  0  0  0  0  0  0  0
    0.6399    1.0076    1.1950 H   0  0  0  0  0  0  0  0  0  0  0  0
   -0.1790   -0.3807    0.4562 H   0  0  0  0  0  0  0  0  0  0  0  0
    1.9335   -1.3612   -0.2745 H   0  0  0  0  0  0  0  0  0  0  0  0
    2.0123   -1.0096    1.4577 H   0  0  0  0  0  0  0  0  0  0  0  0
    4.8671   -1.0400   -1.4254 H   0  0  0  0  0  0  0  0  0  0  0  0
    7.6960   -2.1047    1.6176 H   0  0  0  0  0  0  0  0  0  0  0  0
    6.3248   -0.9467    3.3178 H   0  0  0  0  0  0  0  0  0  0  0  0
    3.9680    1.5808   -1.2912 H   0  0  0  0  0  0  0  0  0  0  0  0
    3.0572    0.1869   -1.9222 H   0  0  0  0  0  0  0  0  0  0  0  0
    1.8902    2.6516   -0.5213 H   0  0  0  0  0  0  0  0  0  0  0  0
    1.7471    2.2381   -2.2328 H   0  0  0  0  0  0  0  0  0  0  0  0
   -1.7687    2.1107    0.7100 H   0  0  0  0  0  0  0  0  0  0  0  0
   -4.2562    2.6872    3.3172 H   0  0  0  0  0  0  0  0  0  0  0  0
   -3.6135    3.2991    1.7876 H   0  0  0  0  0  0  0  0  0  0  0  0
   -2.6050    2.2528    2.8610 H   0  0  0  0  0  0  0  0  0  0  0  0
   -4.6904   -1.4840    2.0471 H   0  0  0  0  0  0  0  0  0  0  0  0
   -4.8736   -2.5099    0.5832 H   0  0  0  0  0  0  0  0  0  0  0  0
   -6.2947   -2.0112    1.5144 H   0  0  0  0  0  0  0  0  0  0  0  0
  1  2  1  0
  2  3  1  0
  3  4  2  0
  4  5  1  0
  5  6  1  0
  6  7  2  0
  6  8  1  0
  8  9  1  0
  9 10  1  0
 10 11  1  0
 11 12  1  0
 12 13  2  0
 13 14  1  0
 14 15  1  0
 14 16  2  0
 16 17  1  0
 17 18  2  0
 18 19  1  0
 11 20  1  0
 20 21  1  0
  5 22  2  0
 22 23  1  0
 23 24  1  0
 24 25  1  0
 23 26  2  0
 26 27  1  0
 27 28  1  0
 26  3  1  0
 21  8  1  0
 18 12  1  0
  1 29  1  0
  1 30  1  0
  1 31  1  0
  4 32  1  0
  9 33  1  0
  9 34  1  0
 10 35  1  0
 10 36  1  0
 13 37  1  0
 16 38  1  0
 17 39  1  0
 20 40  1  0
 20 41  1  0
 21 42  1  0
 21 43  1  0
 22 44  1  0
 25 45  1  0
 25 46  1  0
 25 47  1  0
 28 48  1  0
 28 49  1  0
 28 50  1  0
M  END
$$$$
