
     RDKit          3D

 45 47  0  0  0  0  0  0  0  0999 V2000
   -6.8653    1.6611   -0.1034 C   0  0  0  0  0  0  0  0  0  0  0  0
   -5.7759    0.7550   -0.5960 C   0  0  0  0  0  0  0  0  0  0  0  0
   -6.0905   -0.4591   -1.2153 C   0  0  0  0  0  0  0  0  0  0  0  0
   -5.0791   -1.2798   -1.7129 C   0  0  0  0  0  0  0  0  0  0  0  0
   -3.7444   -0.8920   -1.6017 C   0  0  0  0  0  0  0  0  0  0  0  0
   -3.4071    0.3238   -0.9922 C   0  0  0  0  0  0  0  0  0  0  0  0
   -1.9657    0.7475   -0.8776 C   0  0  0  0  0  0  0  0  0  0  0  0
   -1.4746    1.6073   -2.3764 S   0  0  0  0  0  6  0  0  0  0  0  0
   -2.2950    2.8002   -2.5198 O   0  0  0  0  0  0  0  0  0  0  0  0
   -1.3833    0.6532   -3.4704 O   0  0  0  0  0  0  0  0  0  0  0  0
    0.1741    2.1879   -2.0162 C   0  0  0  0  0  0  0  0  0  0  0  0
    1.0493    1.0453   -1.6836 C   0  0  0  0  0  0  0  0  0  0  0  0
    1.7929    0.1615   -2.4329 C   0  0  0  0  0  0  0  0  0  0  0  0
    2.4197   -0.7127   -1.5100 C   0  0  0  0  0  0  0  0  0  0  0  0
    2.0294   -0.3133   -0.2428 C   0  0  0  0  0  0  0  0  0  0  0  0
    2.3178   -0.8010    1.0944 C   0  0  0  0  0  0  0  0  0  0  0  0
    1.7845   -0.3505    2.1058 O   0  0  0  0  0  0  0  0  0  0  0  0
    3.2477   -1.8194    1.1572 N   0  0  0  0  0  0  0  0  0  0  0  0
    3.7708   -2.2802    2.4222 C   0  0  0  0  0  0  0  0  0  0  0  0
    5.0325   -1.5509    2.6946 C   0  0  0  0  0  0  0  0  0  0  0  0
    5.3415   -0.4477    3.4629 C   0  0  0  0  0  0  0  0  0  0  0  0
    6.7301   -0.2266    3.3025 C   0  0  0  0  0  0  0  0  0  0  0  0
    7.1779   -1.2035    2.4447 C   0  0  0  0  0  0  0  0  0  0  0  0
    6.1536   -2.0106    2.0651 O   0  0  0  0  0  0  0  0  0  0  0  0
    1.1916    0.7665   -0.3597 O   0  0  0  0  0  0  0  0  0  0  0  0
   -4.4332    1.1451   -0.5003 C   0  0  0  0  0  0  0  0  0  0  0  0
   -6.5287    2.2410    0.7625 H   0  0  0  0  0  0  0  0  0  0  0  0
   -7.7406    1.0842    0.2133 H   0  0  0  0  0  0  0  0  0  0  0  0
   -7.1652    2.3517   -0.8976 H   0  0  0  0  0  0  0  0  0  0  0  0
   -7.1274   -0.7695   -1.3209 H   0  0  0  0  0  0  0  0  0  0  0  0
   -5.3323   -2.2189   -2.1979 H   0  0  0  0  0  0  0  0  0  0  0  0
   -2.9705   -1.5398   -2.0092 H   0  0  0  0  0  0  0  0  0  0  0  0
   -1.8203    1.4277   -0.0328 H   0  0  0  0  0  0  0  0  0  0  0  0
   -1.3247   -0.1281   -0.7448 H   0  0  0  0  0  0  0  0  0  0  0  0
    0.5338    2.7156   -2.9046 H   0  0  0  0  0  0  0  0  0  0  0  0
    0.1038    2.9021   -1.1904 H   0  0  0  0  0  0  0  0  0  0  0  0
    1.8630    0.1402   -3.5131 H   0  0  0  0  0  0  0  0  0  0  0  0
    3.0701   -1.5412   -1.7523 H   0  0  0  0  0  0  0  0  0  0  0  0
    3.8050   -2.0266    0.3423 H   0  0  0  0  0  0  0  0  0  0  0  0
    3.9607   -3.3541    2.3286 H   0  0  0  0  0  0  0  0  0  0  0  0
    3.0442   -2.1263    3.2259 H   0  0  0  0  0  0  0  0  0  0  0  0
    4.6434    0.1260    4.0581 H   0  0  0  0  0  0  0  0  0  0  0  0
    7.3307    0.5508    3.7536 H   0  0  0  0  0  0  0  0  0  0  0  0
    8.1449   -1.4469    2.0268 H   0  0  0  0  0  0  0  0  0  0  0  0
   -4.1886    2.1047   -0.0473 H   0  0  0  0  0  0  0  0  0  0  0  0
  1  2  1  0
  2  3  2  0
  3  4  1  0
  4  5  2  0
  5  6  1  0
  6  7  1  0
  7  8  1  0
  8  9  2  0
  8 10  2  0
  8 11  1  0
 11 12  1  0
 12 13  2  0
 13 14  1  0
 14 15  2  0
 15 16  1  0
 16 17  2  0
 16 18  1  0
 18 19  1  0
 19 20  1  0
 20 21  2  0
 21 22  1  0
 22 23  2  0
 23 24  1  0
 15 25  1  0
  6 26  2  0
 26  2  1  0
 25 12  1  0
 24 20  1  0
  1 27  1  0
  1 28  1  0
  1 29  1  0
  3 30  1  0
  4 31  1  0
  5 32  1  0
  7 33  1  0
  7 34  1  0
 11 35  1  0
 11 36  1  0
 13 37  1  0
 14 38  1  0
 18 39  1  0
 19 40  1  0
 19 41  1  0
 21 42  1  0
 22 43  1  0
 23 44  1  0
 26 45  1  0
M  END
$$$$
