
     RDKit          3D

 32 34  0  0  0  0  0  0  0  0999 V2000
    0.2078   -3.1822    0.9419 N   0  0  0  0  0  0  0  0  0  0  0  0
    0.7939   -1.9265    0.6835 C   0  0  0  0  0  0  0  0  0  0  0  0
    2.0871   -1.8826    0.1473 C   0  0  0  0  0  0  0  0  0  0  0  0
    2.6569   -0.6690   -0.2396 C   0  0  0  0  0  0  0  0  0  0  0  0
    1.9376    0.5203   -0.1000 C   0  0  0  0  0  0  0  0  0  0  0  0
    0.6270    0.4921    0.3663 C   0  0  0  0  0  0  0  0  0  0  0  0
    0.0443   -0.7322    0.7249 C   0  0  0  0  0  0  0  0  0  0  0  0
   -1.3562   -0.7546    1.2195 C   0  0  0  0  0  0  0  0  0  0  0  0
   -1.6315   -1.4234    2.2139 O   0  0  0  0  0  0  0  0  0  0  0  0
   -2.4289    0.0112    0.5339 C   0  0  0  0  0  0  0  0  0  0  0  0
   -2.4029    0.2364   -0.8489 C   0  0  0  0  0  0  0  0  0  0  0  0
   -3.4358    0.9514   -1.4588 C   0  0  0  0  0  0  0  0  0  0  0  0
   -4.4989    1.4326   -0.6939 C   0  0  0  0  0  0  0  0  0  0  0  0
   -4.5306    1.1900    0.6791 C   0  0  0  0  0  0  0  0  0  0  0  0
   -5.9794    1.8335    1.7092 Br  0  0  0  0  0  0  0  0  0  0  0  0
   -3.5053    0.4775    1.2977 C   0  0  0  0  0  0  0  0  0  0  0  0
    2.4496    1.7508   -0.4219 O   0  0  0  0  0  0  0  0  0  0  0  0
    3.8743    1.7012   -0.5668 C   0  0  0  0  0  0  0  0  0  0  0  0
    4.2850    0.5011   -1.4039 C   0  0  0  0  0  0  0  0  0  0  0  0
    3.9311   -0.7204   -0.7449 O   0  0  0  0  0  0  0  0  0  0  0  0
    0.8718   -3.8869    1.2475 H   0  0  0  0  0  0  0  0  0  0  0  0
   -0.5710   -3.0956    1.6058 H   0  0  0  0  0  0  0  0  0  0  0  0
    2.6582   -2.7984    0.0205 H   0  0  0  0  0  0  0  0  0  0  0  0
    0.0774    1.4245    0.4604 H   0  0  0  0  0  0  0  0  0  0  0  0
   -1.5980   -0.1539   -1.4673 H   0  0  0  0  0  0  0  0  0  0  0  0
   -3.4167    1.1259   -2.5322 H   0  0  0  0  0  0  0  0  0  0  0  0
   -5.3004    1.9861   -1.1771 H   0  0  0  0  0  0  0  0  0  0  0  0
   -3.5363    0.2822    2.3675 H   0  0  0  0  0  0  0  0  0  0  0  0
    4.3257    1.6680    0.4326 H   0  0  0  0  0  0  0  0  0  0  0  0
    4.1904    2.6289   -1.0538 H   0  0  0  0  0  0  0  0  0  0  0  0
    5.3694    0.4959   -1.5522 H   0  0  0  0  0  0  0  0  0  0  0  0
    3.8047    0.5162   -2.3901 H   0  0  0  0  0  0  0  0  0  0  0  0
  1  2  1  0
  2  3  2  0
  3  4  1  0
  4  5  2  0
  5  6  1  0
  6  7  2  0
  7  8  1  0
  8  9  2  0
  8 10  1  0
 10 11  2  0
 11 12  1  0
 12 13  2  0
 13 14  1  0
 14 15  1  0
 14 16  2  0
  5 17  1  0
 17 18  1  0
 18 19  1  0
 19 20  1  0
  7  2  1  0
 16 10  1  0
 20  4  1  0
  1 21  1  0
  1 22  1  0
  3 23  1  0
  6 24  1  0
 11 25  1  0
 12 26  1  0
 13 27  1  0
 16 28  1  0
 18 29  1  0
 18 30  1  0
 19 31  1  0
 19 32  1  0
M  END
$$$$
