
     RDKit          3D

 48 50  0  0  0  0  0  0  0  0999 V2000
   -2.5061    1.6155    0.7377 O   0  0  0  0  0  0  0  0  0  0  0  0
   -2.2419    0.4163    0.6090 C   0  0  0  0  0  0  0  0  0  0  0  0
   -0.8187   -0.0940    0.8560 C   0  0  0  0  0  0  0  0  0  0  0  0
    0.1488    0.8128    0.1971 N   0  0  0  0  0  0  0  0  0  0  0  0
    1.2658    1.2880    0.9511 C   0  0  0  0  0  0  0  0  0  0  0  0
    2.1080    0.4113    1.6340 C   0  0  0  0  0  0  0  0  0  0  0  0
    3.2195    0.9080    2.3160 C   0  0  0  0  0  0  0  0  0  0  0  0
    3.4983    2.2795    2.3120 C   0  0  0  0  0  0  0  0  0  0  0  0
    4.8959    2.8064    3.1763 Cl  0  0  0  0  0  0  0  0  0  0  0  0
    2.6684    3.1715    1.6225 C   0  0  0  0  0  0  0  0  0  0  0  0
    2.9484    4.6494    1.5956 C   0  0  0  0  0  0  0  0  0  0  0  0
    4.1504    4.9505    1.0315 F   0  0  0  0  0  0  0  0  0  0  0  0
    2.9555    5.2095    2.8368 F   0  0  0  0  0  0  0  0  0  0  0  0
    2.0270    5.3611    0.8855 F   0  0  0  0  0  0  0  0  0  0  0  0
    1.5514    2.6554    0.9384 C   0  0  0  0  0  0  0  0  0  0  0  0
    0.3400    0.6408   -1.4869 S   0  0  0  0  0  6  0  0  0  0  0  0
   -0.9101    0.1665   -2.0460 O   0  0  0  0  0  0  0  0  0  0  0  0
    0.9999    1.8144   -2.0203 O   0  0  0  0  0  0  0  0  0  0  0  0
    1.5010   -0.7109   -1.6190 C   0  0  0  0  0  0  0  0  0  0  0  0
    2.8733   -0.4400   -1.6456 C   0  0  0  0  0  0  0  0  0  0  0  0
    3.7795   -1.4932   -1.7647 C   0  0  0  0  0  0  0  0  0  0  0  0
    3.3150   -2.8047   -1.8763 C   0  0  0  0  0  0  0  0  0  0  0  0
    1.9440   -3.0683   -1.8803 C   0  0  0  0  0  0  0  0  0  0  0  0
    1.0310   -2.0206   -1.7600 C   0  0  0  0  0  0  0  0  0  0  0  0
   -3.2202   -0.5045    0.2672 N   0  0  0  0  0  0  0  0  0  0  0  0
   -4.5346   -0.0164   -0.1602 C   0  0  0  0  0  0  0  0  0  0  0  0
   -5.1078   -0.9064   -1.2677 C   0  0  0  0  0  0  0  0  0  0  0  0
   -5.2481   -2.2855   -0.8897 O   0  0  0  0  0  0  0  0  0  0  0  0
   -4.3759   -2.6917    0.1706 C   0  0  0  0  0  0  0  0  0  0  0  0
   -3.0334   -1.9530    0.1707 C   0  0  0  0  0  0  0  0  0  0  0  0
   -0.6794   -0.1046    1.9434 H   0  0  0  0  0  0  0  0  0  0  0  0
   -0.6607   -1.1134    0.5021 H   0  0  0  0  0  0  0  0  0  0  0  0
    1.9223   -0.6591    1.6340 H   0  0  0  0  0  0  0  0  0  0  0  0
    3.8725    0.2176    2.8462 H   0  0  0  0  0  0  0  0  0  0  0  0
    0.8917    3.3276    0.3871 H   0  0  0  0  0  0  0  0  0  0  0  0
    3.2410    0.5819   -1.5773 H   0  0  0  0  0  0  0  0  0  0  0  0
    4.8481   -1.2913   -1.7836 H   0  0  0  0  0  0  0  0  0  0  0  0
    4.0247   -3.6228   -1.9795 H   0  0  0  0  0  0  0  0  0  0  0  0
    1.5899   -4.0903   -1.9937 H   0  0  0  0  0  0  0  0  0  0  0  0
   -0.0348   -2.2313   -1.7936 H   0  0  0  0  0  0  0  0  0  0  0  0
   -5.1822   -0.0456    0.7237 H   0  0  0  0  0  0  0  0  0  0  0  0
   -4.4715    1.0204   -0.5052 H   0  0  0  0  0  0  0  0  0  0  0  0
   -6.0955   -0.5464   -1.5721 H   0  0  0  0  0  0  0  0  0  0  0  0
   -4.4592   -0.8750   -2.1509 H   0  0  0  0  0  0  0  0  0  0  0  0
   -4.2141   -3.7697    0.0719 H   0  0  0  0  0  0  0  0  0  0  0  0
   -4.9026   -2.5257    1.1178 H   0  0  0  0  0  0  0  0  0  0  0  0
   -2.4987   -2.1421   -0.7668 H   0  0  0  0  0  0  0  0  0  0  0  0
   -2.4159   -2.2979    1.0054 H   0  0  0  0  0  0  0  0  0  0  0  0
  1  2  2  0
  2  3  1  0
  3  4  1  0
  4  5  1  0
  5  6  2  0
  6  7  1  0
  7  8  2  0
  8  9  1  0
  8 10  1  0
 10 11  1  0
 11 12  1  0
 11 13  1  0
 11 14  1  0
 10 15  2  0
  4 16  1  0
 16 17  2  0
 16 18  2  0
 16 19  1  0
 19 20  2  0
 20 21  1  0
 21 22  2  0
 22 23  1  0
 23 24  2  0
  2 25  1  0
 25 26  1  0
 26 27  1  0
 27 28  1  0
 28 29  1  0
 29 30  1  0
 15  5  1  0
 24 19  1  0
 30 25  1  0
  3 31  1  0
  3 32  1  0
  6 33  1  0
  7 34  1  0
 15 35  1  0
 20 36  1  0
 21 37  1  0
 22 38  1  0
 23 39  1  0
 24 40  1  0
 26 41  1  0
 26 42  1  0
 27 43  1  0
 27 44  1  0
 29 45  1  0
 29 46  1  0
 30 47  1  0
 30 48  1  0
M  END
$$$$
