
     RDKit          3D

 54 56  0  0  0  0  0  0  0  0999 V2000
    7.3714    1.8224   -0.5331 C   0  0  0  0  0  0  0  0  0  0  0  0
    7.0108    0.7939   -1.4463 O   0  0  0  0  0  0  0  0  0  0  0  0
    5.7655    0.2476   -1.2993 C   0  0  0  0  0  0  0  0  0  0  0  0
    5.4548   -0.7539   -2.2220 C   0  0  0  0  0  0  0  0  0  0  0  0
    4.2153   -1.3983   -2.1881 C   0  0  0  0  0  0  0  0  0  0  0  0
    3.2652   -1.0508   -1.2211 C   0  0  0  0  0  0  0  0  0  0  0  0
    1.9183   -1.7333   -1.1759 C   0  0  0  0  0  0  0  0  0  0  0  0
    0.8656   -0.8191   -1.6193 N   0  0  0  0  0  0  0  0  0  0  0  0
   -0.4484   -1.4584   -1.6965 C   0  0  0  0  0  0  0  0  0  0  0  0
   -1.0682   -1.8132   -0.3354 C   0  0  0  0  0  0  0  0  0  0  0  0
   -1.2240   -0.6106    0.6289 C   0  0  0  0  0  0  0  0  0  0  0  0
   -1.5534   -1.0013    2.0751 C   0  0  0  0  0  0  0  0  0  0  0  0
   -1.2281   -0.0987    3.1073 C   0  0  0  0  0  0  0  0  0  0  0  0
   -1.5163   -0.3985    4.4396 C   0  0  0  0  0  0  0  0  0  0  0  0
   -2.1363   -1.6004    4.7499 C   0  0  0  0  0  0  0  0  0  0  0  0
   -2.4148   -1.8903    6.0277 F   0  0  0  0  0  0  0  0  0  0  0  0
   -2.4761   -2.5056    3.7531 C   0  0  0  0  0  0  0  0  0  0  0  0
   -2.1889   -2.2070    2.4186 C   0  0  0  0  0  0  0  0  0  0  0  0
   -2.2113    0.4187    0.0841 C   0  0  0  0  0  0  0  0  0  0  0  0
   -3.5917    0.1715    0.0459 C   0  0  0  0  0  0  0  0  0  0  0  0
   -4.4794    1.1260   -0.4653 C   0  0  0  0  0  0  0  0  0  0  0  0
   -4.0004    2.3416   -0.9514 C   0  0  0  0  0  0  0  0  0  0  0  0
   -4.7558    3.3538   -1.4761 O   0  0  0  0  0  0  0  0  0  0  0  0
   -6.1641    3.1592   -1.4963 C   0  0  0  0  0  0  0  0  0  0  0  0
   -2.6276    2.5914   -0.9233 C   0  0  0  0  0  0  0  0  0  0  0  0
   -1.7396    1.6423   -0.4114 C   0  0  0  0  0  0  0  0  0  0  0  0
    3.5790   -0.0410   -0.3004 C   0  0  0  0  0  0  0  0  0  0  0  0
    4.8207    0.6032   -0.3375 C   0  0  0  0  0  0  0  0  0  0  0  0
    6.7086    2.6884   -0.6318 H   0  0  0  0  0  0  0  0  0  0  0  0
    8.3855    2.1498   -0.7820 H   0  0  0  0  0  0  0  0  0  0  0  0
    7.3855    1.4495    0.4964 H   0  0  0  0  0  0  0  0  0  0  0  0
    6.1860   -1.0338   -2.9763 H   0  0  0  0  0  0  0  0  0  0  0  0
    4.0013   -2.1712   -2.9221 H   0  0  0  0  0  0  0  0  0  0  0  0
    1.9391   -2.6300   -1.8076 H   0  0  0  0  0  0  0  0  0  0  0  0
    1.7443   -2.0677   -0.1466 H   0  0  0  0  0  0  0  0  0  0  0  0
    1.1194   -0.4718   -2.5451 H   0  0  0  0  0  0  0  0  0  0  0  0
   -0.3906   -2.3621   -2.3160 H   0  0  0  0  0  0  0  0  0  0  0  0
   -1.1238   -0.7786   -2.2284 H   0  0  0  0  0  0  0  0  0  0  0  0
   -0.4554   -2.5893    0.1405 H   0  0  0  0  0  0  0  0  0  0  0  0
   -2.0451   -2.2765   -0.5269 H   0  0  0  0  0  0  0  0  0  0  0  0
   -0.2346   -0.1352    0.6934 H   0  0  0  0  0  0  0  0  0  0  0  0
   -0.7515    0.8513    2.8713 H   0  0  0  0  0  0  0  0  0  0  0  0
   -1.2652    0.2990    5.2319 H   0  0  0  0  0  0  0  0  0  0  0  0
   -2.9655   -3.4368    4.0197 H   0  0  0  0  0  0  0  0  0  0  0  0
   -2.4755   -2.9281    1.6581 H   0  0  0  0  0  0  0  0  0  0  0  0
   -3.9928   -0.7670    0.4215 H   0  0  0  0  0  0  0  0  0  0  0  0
   -5.5372    0.8863   -0.4666 H   0  0  0  0  0  0  0  0  0  0  0  0
   -6.5613    3.0387   -0.4829 H   0  0  0  0  0  0  0  0  0  0  0  0
   -6.4359    2.3100   -2.1319 H   0  0  0  0  0  0  0  0  0  0  0  0
   -6.6192    4.0561   -1.9273 H   0  0  0  0  0  0  0  0  0  0  0  0
   -2.2442    3.5345   -1.3050 H   0  0  0  0  0  0  0  0  0  0  0  0
   -0.6737    1.8621   -0.4127 H   0  0  0  0  0  0  0  0  0  0  0  0
    2.8463    0.2531    0.4488 H   0  0  0  0  0  0  0  0  0  0  0  0
    5.0131    1.3782    0.3964 H   0  0  0  0  0  0  0  0  0  0  0  0
  1  2  1  0
  2  3  1  0
  3  4  2  0
  4  5  1  0
  5  6  2  0
  6  7  1  0
  7  8  1  0
  8  9  1  0
  9 10  1  0
 10 11  1  0
 11 12  1  0
 12 13  2  0
 13 14  1  0
 14 15  2  0
 15 16  1  0
 15 17  1  0
 17 18  2  0
 11 19  1  0
 19 20  2  0
 20 21  1  0
 21 22  2  0
 22 23  1  0
 23 24  1  0
 22 25  1  0
 25 26  2  0
  6 27  1  0
 27 28  2  0
 28  3  1  0
 18 12  1  0
 26 19  1  0
  1 29  1  0
  1 30  1  0
  1 31  1  0
  4 32  1  0
  5 33  1  0
  7 34  1  0
  7 35  1  0
  8 36  1  0
  9 37  1  0
  9 38  1  0
 10 39  1  0
 10 40  1  0
 11 41  1  0
 13 42  1  0
 14 43  1  0
 17 44  1  0
 18 45  1  0
 20 46  1  0
 21 47  1  0
 24 48  1  0
 24 49  1  0
 24 50  1  0
 25 51  1  0
 26 52  1  0
 27 53  1  0
 28 54  1  0
M  END
$$$$
