
     RDKit          3D

 36 38  0  0  0  0  0  0  0  0999 V2000
   -0.8216    0.3602   -0.0035 O   0  0  0  0  0  0  0  0  0  0  0  0
   -0.7832    0.6933    1.1739 C   0  0  0  0  0  0  0  0  0  0  0  0
   -2.0026    1.0172    1.9789 C   0  0  0  0  0  0  0  0  0  0  0  0
   -3.2902    0.8639    1.6344 C   0  0  0  0  0  0  0  0  0  0  0  0
   -3.8026    0.3314    0.3698 C   0  0  0  0  0  0  0  0  0  0  0  0
   -4.4659   -0.9015    0.3641 C   0  0  0  0  0  0  0  0  0  0  0  0
   -4.9867   -1.4138   -0.8257 C   0  0  0  0  0  0  0  0  0  0  0  0
   -4.8480   -0.6924   -2.0052 C   0  0  0  0  0  0  0  0  0  0  0  0
   -5.3682   -1.2315   -3.1441 O   0  0  0  0  0  0  0  0  0  0  0  0
   -4.2003    0.5385   -2.0160 C   0  0  0  0  0  0  0  0  0  0  0  0
   -3.6819    1.0526   -0.8244 C   0  0  0  0  0  0  0  0  0  0  0  0
   -1.5482    1.6423    3.5250 S   0  0  0  0  0  0  0  0  0  0  0  0
    0.1711    1.4587    3.2096 C   0  0  0  0  0  0  0  0  0  0  0  0
    1.3320    1.9112    4.3254 S   0  0  0  0  0  0  0  0  0  0  0  0
    0.3564    0.8875    1.9597 N   0  0  0  0  0  0  0  0  0  0  0  0
    1.6526    0.7269    1.4938 N   0  0  0  0  0  0  0  0  0  0  0  0
    1.8877   -0.1340    0.5565 C   0  0  0  0  0  0  0  0  0  0  0  0
    3.2462   -0.3069   -0.0008 C   0  0  0  0  0  0  0  0  0  0  0  0
    3.4369   -1.2308   -1.0329 C   0  0  0  0  0  0  0  0  0  0  0  0
    4.7122   -1.4108   -1.5711 C   0  0  0  0  0  0  0  0  0  0  0  0
    5.7816   -0.6706   -1.0765 C   0  0  0  0  0  0  0  0  0  0  0  0
    7.0079   -0.8815   -1.6331 O   0  0  0  0  0  0  0  0  0  0  0  0
    5.6010    0.2518   -0.0495 C   0  0  0  0  0  0  0  0  0  0  0  0
    4.3263    0.4352    0.4912 C   0  0  0  0  0  0  0  0  0  0  0  0
   -4.0753    1.1264    2.3421 H   0  0  0  0  0  0  0  0  0  0  0  0
   -4.5809   -1.4748    1.2808 H   0  0  0  0  0  0  0  0  0  0  0  0
   -5.4971   -2.3727   -0.8325 H   0  0  0  0  0  0  0  0  0  0  0  0
   -5.1655   -0.6385   -3.8862 H   0  0  0  0  0  0  0  0  0  0  0  0
   -4.0860    1.1083   -2.9325 H   0  0  0  0  0  0  0  0  0  0  0  0
   -3.1730    2.0136   -0.8399 H   0  0  0  0  0  0  0  0  0  0  0  0
    1.1185   -0.8075    0.1435 H   0  0  0  0  0  0  0  0  0  0  0  0
    2.6064   -1.8105   -1.4273 H   0  0  0  0  0  0  0  0  0  0  0  0
    4.8727   -2.1250   -2.3742 H   0  0  0  0  0  0  0  0  0  0  0  0
    7.6533   -0.3028   -1.1945 H   0  0  0  0  0  0  0  0  0  0  0  0
    6.4311    0.8323    0.3410 H   0  0  0  0  0  0  0  0  0  0  0  0
    4.1832    1.1543    1.2948 H   0  0  0  0  0  0  0  0  0  0  0  0
  1  2  2  0
  2  3  1  0
  3  4  2  3
  4  5  1  0
  5  6  2  0
  6  7  1  0
  7  8  2  0
  8  9  1  0
  8 10  1  0
 10 11  2  0
  3 12  1  0
 12 13  1  0
 13 14  2  0
 13 15  1  0
 15 16  1  0
 16 17  2  3
 17 18  1  0
 18 19  2  0
 19 20  1  0
 20 21  2  0
 21 22  1  0
 21 23  1  0
 23 24  2  0
 15  2  1  0
 24 18  1  0
 11  5  1  0
  4 25  1  0
  6 26  1  0
  7 27  1  0
  9 28  1  0
 10 29  1  0
 11 30  1  0
 17 31  1  0
 19 32  1  0
 20 33  1  0
 22 34  1  0
 23 35  1  0
 24 36  1  0
M  END
$$$$
