
     RDKit          3D

 53 56  0  0  0  0  0  0  0  0999 V2000
    7.3216    0.5927    1.0458 C   0  0  0  0  0  0  0  0  0  0  0  0
    6.6947    1.4202    0.0751 O   0  0  0  0  0  0  0  0  0  0  0  0
    5.5202    0.8280   -0.4868 C   0  0  0  0  0  0  0  0  0  0  0  0
    4.2935    1.1143    0.3748 C   0  0  0  0  0  0  0  0  0  0  0  0
    3.0870    0.4957   -0.1572 N   0  0  0  0  0  0  0  0  0  0  0  0
    2.5915   -0.7245    0.2462 C   0  0  0  0  0  0  0  0  0  0  0  0
    3.2364   -1.5890    1.2716 C   0  0  0  0  0  0  0  0  0  0  0  0
    1.4146   -0.9360   -0.4438 C   0  0  0  0  0  0  0  0  0  0  0  0
    1.1796    0.1682   -1.3075 C   0  0  0  0  0  0  0  0  0  0  0  0
    0.0487    0.3904   -2.2295 C   0  0  0  0  0  0  0  0  0  0  0  0
    0.0008    1.3954   -2.9451 O   0  0  0  0  0  0  0  0  0  0  0  0
   -1.0342   -0.6727   -2.3404 C   0  0  0  0  0  0  0  0  0  0  0  0
   -2.7010    0.0095   -2.0689 S   0  0  0  0  0  0  0  0  0  0  0  0
   -2.6996    0.0899   -0.3053 C   0  0  0  0  0  0  0  0  0  0  0  0
   -1.5876    0.5116    0.3211 N   0  0  0  0  0  0  0  0  0  0  0  0
   -1.5753    0.5692    1.6647 C   0  0  0  0  0  0  0  0  0  0  0  0
   -0.3131    1.0479    2.3113 C   0  0  0  0  0  0  0  0  0  0  0  0
   -2.5719    0.1953    2.4755 N   0  0  0  0  0  0  0  0  0  0  0  0
   -3.6659   -0.2212    1.8147 C   0  0  0  0  0  0  0  0  0  0  0  0
   -5.0493   -0.7536    2.6886 S   0  0  0  0  0  0  0  0  0  0  0  0
   -5.8562   -1.0507    1.2578 C   0  0  0  0  0  0  0  0  0  0  0  0
   -5.1265   -0.7746    0.1331 C   0  0  0  0  0  0  0  0  0  0  0  0
   -3.8218   -0.2955    0.4315 C   0  0  0  0  0  0  0  0  0  0  0  0
   -5.9179   -1.0681   -1.0917 C   0  0  0  0  0  0  0  0  0  0  0  0
   -7.3628   -1.2283   -0.5228 C   0  0  0  0  0  0  0  0  0  0  0  0
   -7.2134   -1.5766    0.9884 C   0  0  0  0  0  0  0  0  0  0  0  0
    2.2465    1.0463   -1.1094 C   0  0  0  0  0  0  0  0  0  0  0  0
    2.4926    2.3624   -1.7747 C   0  0  0  0  0  0  0  0  0  0  0  0
    8.1742    1.1380    1.4567 H   0  0  0  0  0  0  0  0  0  0  0  0
    6.6361    0.3552    1.8637 H   0  0  0  0  0  0  0  0  0  0  0  0
    7.6874   -0.3268    0.5821 H   0  0  0  0  0  0  0  0  0  0  0  0
    5.3863    1.2722   -1.4791 H   0  0  0  0  0  0  0  0  0  0  0  0
    5.6694   -0.2478   -0.6423 H   0  0  0  0  0  0  0  0  0  0  0  0
    4.4377    0.7573    1.3998 H   0  0  0  0  0  0  0  0  0  0  0  0
    4.1219    2.1921    0.4775 H   0  0  0  0  0  0  0  0  0  0  0  0
    4.3147   -1.6627    1.1145 H   0  0  0  0  0  0  0  0  0  0  0  0
    2.8262   -2.6025    1.2401 H   0  0  0  0  0  0  0  0  0  0  0  0
    3.0548   -1.1862    2.2707 H   0  0  0  0  0  0  0  0  0  0  0  0
    0.7908   -1.8098   -0.3114 H   0  0  0  0  0  0  0  0  0  0  0  0
   -0.8790   -1.5142   -1.6624 H   0  0  0  0  0  0  0  0  0  0  0  0
   -0.9872   -1.0751   -3.3588 H   0  0  0  0  0  0  0  0  0  0  0  0
   -0.5356    1.5749    3.2443 H   0  0  0  0  0  0  0  0  0  0  0  0
    0.3321    0.1946    2.5353 H   0  0  0  0  0  0  0  0  0  0  0  0
    0.2239    1.7354    1.6515 H   0  0  0  0  0  0  0  0  0  0  0  0
   -5.8787   -0.2616   -1.8293 H   0  0  0  0  0  0  0  0  0  0  0  0
   -5.5840   -2.0030   -1.5518 H   0  0  0  0  0  0  0  0  0  0  0  0
   -7.8845   -0.2685   -0.6125 H   0  0  0  0  0  0  0  0  0  0  0  0
   -7.9473   -1.9706   -1.0694 H   0  0  0  0  0  0  0  0  0  0  0  0
   -7.9965   -1.0999    1.5856 H   0  0  0  0  0  0  0  0  0  0  0  0
   -7.2419   -2.6610    1.1392 H   0  0  0  0  0  0  0  0  0  0  0  0
    2.5857    2.2197   -2.8560 H   0  0  0  0  0  0  0  0  0  0  0  0
    1.6577    3.0440   -1.5867 H   0  0  0  0  0  0  0  0  0  0  0  0
    3.4048    2.8599   -1.4393 H   0  0  0  0  0  0  0  0  0  0  0  0
  1  2  1  0
  2  3  1  0
  3  4  1  0
  4  5  1  0
  5  6  1  0
  6  7  1  0
  6  8  2  0
  8  9  1  0
  9 10  1  0
 10 11  2  0
 10 12  1  0
 12 13  1  0
 13 14  1  0
 14 15  2  0
 15 16  1  0
 16 17  1  0
 16 18  2  0
 18 19  1  0
 19 20  1  0
 20 21  1  0
 21 22  2  0
 22 23  1  0
 22 24  1  0
 24 25  1  0
 25 26  1  0
  9 27  2  0
 27 28  1  0
 27  5  1  0
 23 14  1  0
 23 19  2  0
 26 21  1  0
  1 29  1  0
  1 30  1  0
  1 31  1  0
  3 32  1  0
  3 33  1  0
  4 34  1  0
  4 35  1  0
  7 36  1  0
  7 37  1  0
  7 38  1  0
  8 39  1  0
 12 40  1  0
 12 41  1  0
 17 42  1  0
 17 43  1  0
 17 44  1  0
 24 45  1  0
 24 46  1  0
 25 47  1  0
 25 48  1  0
 26 49  1  0
 26 50  1  0
 28 51  1  0
 28 52  1  0
 28 53  1  0
M  END
$$$$
