
     RDKit          3D

 45 47  0  0  0  0  0  0  0  0999 V2000
    1.4433   -2.1022    0.0670 O   0  0  0  0  0  0  0  0  0  0  0  0
    1.0631   -1.4140    1.0010 C   0  0  0  0  0  0  0  0  0  0  0  0
    1.6343   -1.3553    2.2509 N   0  0  0  0  0  0  0  0  0  0  0  0
    2.9309   -1.9417    2.4983 C   0  0  0  0  0  0  0  0  0  0  0  0
    3.9741   -0.9030    2.3065 C   0  0  0  0  0  0  0  0  0  0  0  0
    4.5133    0.0644    3.1305 C   0  0  0  0  0  0  0  0  0  0  0  0
    5.4814    0.7526    2.3597 C   0  0  0  0  0  0  0  0  0  0  0  0
    5.4683    0.1664    1.1164 C   0  0  0  0  0  0  0  0  0  0  0  0
    4.5556   -0.8369    1.0742 O   0  0  0  0  0  0  0  0  0  0  0  0
   -0.1907   -0.5502    0.8242 C   0  0  0  0  0  0  0  0  0  0  0  0
   -1.4012   -1.3363    0.4416 C   0  0  0  0  0  0  0  0  0  0  0  0
   -2.6029   -0.7544    0.3048 C   0  0  0  0  0  0  0  0  0  0  0  0
   -3.8479   -1.4936   -0.0941 C   0  0  0  0  0  0  0  0  0  0  0  0
   -4.4438   -0.9630   -1.3755 C   0  0  0  0  0  0  0  0  0  0  0  0
   -3.9043   -1.3337   -2.6159 C   0  0  0  0  0  0  0  0  0  0  0  0
   -4.4444   -0.8328   -3.8014 C   0  0  0  0  0  0  0  0  0  0  0  0
   -5.5252    0.0458   -3.7595 C   0  0  0  0  0  0  0  0  0  0  0  0
   -6.0649    0.4272   -2.5325 C   0  0  0  0  0  0  0  0  0  0  0  0
   -5.5259   -0.0720   -1.3454 C   0  0  0  0  0  0  0  0  0  0  0  0
   -0.2201    0.7411    0.9749 N   0  0  0  0  0  0  0  0  0  0  0  0
    0.9445    1.3698    1.3231 C   0  0  0  0  0  0  0  0  0  0  0  0
    1.3580    1.3878    2.4787 O   0  0  0  0  0  0  0  0  0  0  0  0
    1.6057    2.0126    0.2067 C   0  0  0  0  0  0  0  0  0  0  0  0
    2.7690    2.7602    0.1594 C   0  0  0  0  0  0  0  0  0  0  0  0
    2.9647    3.1299   -1.1933 C   0  0  0  0  0  0  0  0  0  0  0  0
    1.9122    2.5881   -1.8936 C   0  0  0  0  0  0  0  0  0  0  0  0
    1.6391    2.7521   -3.7685 Br  0  0  0  0  0  0  0  0  0  0  0  0
    1.0837    1.9114   -1.0568 O   0  0  0  0  0  0  0  0  0  0  0  0
    1.3429   -0.5999    2.8672 H   0  0  0  0  0  0  0  0  0  0  0  0
    3.0989   -2.7973    1.8364 H   0  0  0  0  0  0  0  0  0  0  0  0
    2.9360   -2.2979    3.5332 H   0  0  0  0  0  0  0  0  0  0  0  0
    4.2363    0.2518    4.1587 H   0  0  0  0  0  0  0  0  0  0  0  0
    6.1098    1.5751    2.6707 H   0  0  0  0  0  0  0  0  0  0  0  0
    6.0159    0.3362    0.1998 H   0  0  0  0  0  0  0  0  0  0  0  0
   -1.2564   -2.3973    0.2636 H   0  0  0  0  0  0  0  0  0  0  0  0
   -2.7153    0.3148    0.4788 H   0  0  0  0  0  0  0  0  0  0  0  0
   -4.5806   -1.4106    0.7184 H   0  0  0  0  0  0  0  0  0  0  0  0
   -3.6546   -2.5678   -0.2103 H   0  0  0  0  0  0  0  0  0  0  0  0
   -3.0546   -2.0112   -2.6640 H   0  0  0  0  0  0  0  0  0  0  0  0
   -4.0176   -1.1246   -4.7574 H   0  0  0  0  0  0  0  0  0  0  0  0
   -5.9431    0.4375   -4.6829 H   0  0  0  0  0  0  0  0  0  0  0  0
   -6.9039    1.1172   -2.4997 H   0  0  0  0  0  0  0  0  0  0  0  0
   -5.9543    0.2415   -0.3963 H   0  0  0  0  0  0  0  0  0  0  0  0
    3.3966    2.9967    1.0082 H   0  0  0  0  0  0  0  0  0  0  0  0
    3.7741    3.7155   -1.6057 H   0  0  0  0  0  0  0  0  0  0  0  0
  1  2  2  0
  2  3  1  0
  3  4  1  0
  4  5  1  0
  5  6  2  0
  6  7  1  0
  7  8  2  0
  8  9  1  0
  2 10  1  0
 10 11  1  0
 11 12  2  3
 12 13  1  0
 13 14  1  0
 14 15  2  0
 15 16  1  0
 16 17  2  0
 17 18  1  0
 18 19  2  0
 10 20  2  3
 20 21  1  0
 21 22  2  0
 21 23  1  0
 23 24  2  0
 24 25  1  0
 25 26  2  0
 26 27  1  0
 26 28  1  0
  9  5  1  0
 19 14  1  0
 28 23  1  0
  3 29  1  0
  4 30  1  0
  4 31  1  0
  6 32  1  0
  7 33  1  0
  8 34  1  0
 11 35  1  0
 12 36  1  0
 13 37  1  0
 13 38  1  0
 15 39  1  0
 16 40  1  0
 17 41  1  0
 18 42  1  0
 19 43  1  0
 24 44  1  0
 25 45  1  0
M  END
$$$$
