
     RDKit          3D

 38 39  0  0  0  0  0  0  0  0999 V2000
   -1.9380    3.2349    0.2720 C   0  0  0  0  0  0  0  0  0  0  0  0
   -2.9512    2.3108    0.6754 O   0  0  0  0  0  0  0  0  0  0  0  0
   -2.6261    1.0560    0.2298 C   0  0  0  0  0  0  0  0  0  0  0  0
   -1.7762    0.2723    1.0133 C   0  0  0  0  0  0  0  0  0  0  0  0
   -1.3870   -0.9975    0.5720 C   0  0  0  0  0  0  0  0  0  0  0  0
   -0.4833   -1.8251    1.3740 C   0  0  0  0  0  0  0  0  0  0  0  0
    0.8359   -1.6413    1.5515 C   0  0  0  0  0  0  0  0  0  0  0  0
    1.6533   -0.5312    0.9813 C   0  0  0  0  0  0  0  0  0  0  0  0
    1.1989    0.5851    0.7744 O   0  0  0  0  0  0  0  0  0  0  0  0
    3.0970   -0.8044    0.7309 C   0  0  0  0  0  0  0  0  0  0  0  0
    3.9916    0.2745    0.7547 C   0  0  0  0  0  0  0  0  0  0  0  0
    5.3511    0.0671    0.5188 C   0  0  0  0  0  0  0  0  0  0  0  0
    5.8138   -1.2174    0.2467 C   0  0  0  0  0  0  0  0  0  0  0  0
    7.1474   -1.3769    0.0200 O   0  0  0  0  0  0  0  0  0  0  0  0
    4.9383   -2.2988    0.2010 C   0  0  0  0  0  0  0  0  0  0  0  0
    3.5756   -2.0908    0.4390 C   0  0  0  0  0  0  0  0  0  0  0  0
   -1.8843   -1.4876   -0.6440 C   0  0  0  0  0  0  0  0  0  0  0  0
   -2.7605   -0.7138   -1.4122 C   0  0  0  0  0  0  0  0  0  0  0  0
   -3.1511    0.5521   -0.9659 C   0  0  0  0  0  0  0  0  0  0  0  0
   -3.9966    1.2458   -1.7890 O   0  0  0  0  0  0  0  0  0  0  0  0
   -5.1834    1.6966   -1.1181 C   0  0  0  0  0  0  0  0  0  0  0  0
   -6.2668    1.8721   -2.0994 C   0  0  0  0  0  0  0  0  0  0  0  0
   -7.1355    2.0095   -2.8614 N   0  0  0  0  0  0  0  0  0  0  0  0
   -1.9047    3.3281   -0.8156 H   0  0  0  0  0  0  0  0  0  0  0  0
   -2.1985    4.2074    0.6889 H   0  0  0  0  0  0  0  0  0  0  0  0
   -0.9549    2.9568    0.6592 H   0  0  0  0  0  0  0  0  0  0  0  0
   -1.3792    0.6756    1.9446 H   0  0  0  0  0  0  0  0  0  0  0  0
   -0.9626   -2.6843    1.8414 H   0  0  0  0  0  0  0  0  0  0  0  0
    1.3798   -2.3576    2.1604 H   0  0  0  0  0  0  0  0  0  0  0  0
    3.6318    1.2814    0.9619 H   0  0  0  0  0  0  0  0  0  0  0  0
    6.0435    0.9046    0.5359 H   0  0  0  0  0  0  0  0  0  0  0  0
    7.3296   -2.3156   -0.1593 H   0  0  0  0  0  0  0  0  0  0  0  0
    5.2924   -3.2991   -0.0288 H   0  0  0  0  0  0  0  0  0  0  0  0
    2.9019   -2.9396    0.3680 H   0  0  0  0  0  0  0  0  0  0  0  0
   -1.5932   -2.4700   -1.0033 H   0  0  0  0  0  0  0  0  0  0  0  0
   -3.1466   -1.1031   -2.3542 H   0  0  0  0  0  0  0  0  0  0  0  0
   -5.5080    0.9666   -0.3637 H   0  0  0  0  0  0  0  0  0  0  0  0
   -4.9943    2.6569   -0.6229 H   0  0  0  0  0  0  0  0  0  0  0  0
  1  2  1  0
  2  3  1  0
  3  4  2  0
  4  5  1  0
  5  6  1  0
  6  7  2  3
  7  8  1  0
  8  9  2  0
  8 10  1  0
 10 11  2  0
 11 12  1  0
 12 13  2  0
 13 14  1  0
 13 15  1  0
 15 16  2  0
  5 17  2  0
 17 18  1  0
 18 19  2  0
 19 20  1  0
 20 21  1  0
 21 22  1  0
 22 23  3  0
 19  3  1  0
 16 10  1  0
  1 24  1  0
  1 25  1  0
  1 26  1  0
  4 27  1  0
  6 28  1  0
  7 29  1  0
 11 30  1  0
 12 31  1  0
 14 32  1  0
 15 33  1  0
 16 34  1  0
 17 35  1  0
 18 36  1  0
 21 37  1  0
 21 38  1  0
M  END
$$$$
