
     RDKit          3D

 50 53  0  0  0  0  0  0  0  0999 V2000
    0.6435    3.9000   -0.6191 C   0  0  0  0  0  0  0  0  0  0  0  0
    1.0127    3.1954    0.6777 C   0  0  0  0  0  0  0  0  0  0  0  0
    0.6733    1.7245    0.6348 C   0  0  0  0  0  0  0  0  0  0  0  0
    1.6518    0.7994    0.2375 C   0  0  0  0  0  0  0  0  0  0  0  0
    1.3694   -0.5704    0.1747 C   0  0  0  0  0  0  0  0  0  0  0  0
    2.3838   -1.5581   -0.2286 C   0  0  0  0  0  0  0  0  0  0  0  0
    3.7723   -1.2563   -0.6264 C   0  0  0  0  0  0  0  0  0  0  0  0
    4.0765   -0.9726   -1.9638 C   0  0  0  0  0  0  0  0  0  0  0  0
    5.3901   -0.6863   -2.3389 C   0  0  0  0  0  0  0  0  0  0  0  0
    6.4043   -0.6824   -1.3818 C   0  0  0  0  0  0  0  0  0  0  0  0
    6.1080   -0.9640   -0.0486 C   0  0  0  0  0  0  0  0  0  0  0  0
    4.7955   -1.2507    0.3300 C   0  0  0  0  0  0  0  0  0  0  0  0
    2.0366   -2.8543   -0.2457 C   0  0  0  0  0  0  0  0  0  0  0  0
    0.6985   -3.3331    0.1184 C   0  0  0  0  0  0  0  0  0  0  0  0
    0.4285   -4.5280    0.0931 O   0  0  0  0  0  0  0  0  0  0  0  0
   -0.2303   -2.3758    0.4857 O   0  0  0  0  0  0  0  0  0  0  0  0
    0.0828   -0.9984    0.5136 C   0  0  0  0  0  0  0  0  0  0  0  0
   -0.9365   -0.1084    0.8940 C   0  0  0  0  0  0  0  0  0  0  0  0
   -2.2987   -0.6269    1.3145 C   0  0  0  0  0  0  0  0  0  0  0  0
   -3.4200    0.2300    0.8596 N   0  0  0  0  0  0  0  0  0  0  0  0
   -4.6886   -0.1557    1.5271 C   0  0  0  0  0  0  0  0  0  0  0  0
   -5.5801   -1.0763    0.6797 C   0  0  0  0  0  0  0  0  0  0  0  0
   -5.9681   -0.4846   -0.5667 O   0  0  0  0  0  0  0  0  0  0  0  0
   -5.0115    0.4597   -1.0662 C   0  0  0  0  0  0  0  0  0  0  0  0
   -3.5776    0.1390   -0.6193 C   0  0  0  0  0  0  0  0  0  0  0  0
   -0.6097    1.2571    0.9516 C   0  0  0  0  0  0  0  0  0  0  0  0
   -1.5526    2.1853    1.3119 O   0  0  0  0  0  0  0  0  0  0  0  0
    0.9099    4.9602   -0.5623 H   0  0  0  0  0  0  0  0  0  0  0  0
    1.1730    3.4624   -1.4723 H   0  0  0  0  0  0  0  0  0  0  0  0
   -0.4308    3.8312   -0.8201 H   0  0  0  0  0  0  0  0  0  0  0  0
    0.5064    3.6746    1.5240 H   0  0  0  0  0  0  0  0  0  0  0  0
    2.0860    3.3207    0.8676 H   0  0  0  0  0  0  0  0  0  0  0  0
    2.6440    1.1659   -0.0208 H   0  0  0  0  0  0  0  0  0  0  0  0
    3.2937   -0.9700   -2.7189 H   0  0  0  0  0  0  0  0  0  0  0  0
    5.6226   -0.4659   -3.3777 H   0  0  0  0  0  0  0  0  0  0  0  0
    7.4272   -0.4592   -1.6754 H   0  0  0  0  0  0  0  0  0  0  0  0
    6.8996   -0.9596    0.6965 H   0  0  0  0  0  0  0  0  0  0  0  0
    4.5764   -1.4655    1.3736 H   0  0  0  0  0  0  0  0  0  0  0  0
    2.7315   -3.6370   -0.5325 H   0  0  0  0  0  0  0  0  0  0  0  0
   -2.4647   -1.6583    0.9821 H   0  0  0  0  0  0  0  0  0  0  0  0
   -2.2792   -0.6485    2.4124 H   0  0  0  0  0  0  0  0  0  0  0  0
   -4.5087   -0.6044    2.5109 H   0  0  0  0  0  0  0  0  0  0  0  0
   -5.2386    0.7754    1.7144 H   0  0  0  0  0  0  0  0  0  0  0  0
   -6.4979   -1.3168    1.2260 H   0  0  0  0  0  0  0  0  0  0  0  0
   -5.0712   -2.0235    0.4666 H   0  0  0  0  0  0  0  0  0  0  0  0
   -5.3104    1.4613   -0.7354 H   0  0  0  0  0  0  0  0  0  0  0  0
   -5.0777    0.4453   -2.1588 H   0  0  0  0  0  0  0  0  0  0  0  0
   -3.3340   -0.8721   -0.9715 H   0  0  0  0  0  0  0  0  0  0  0  0
   -2.8851    0.8386   -1.0995 H   0  0  0  0  0  0  0  0  0  0  0  0
   -2.4259    1.7369    1.2725 H   0  0  0  0  0  0  0  0  0  0  0  0
  1  2  1  0
  2  3  1  0
  3  4  2  0
  4  5  1  0
  5  6  1  0
  6  7  1  0
  7  8  2  0
  8  9  1  0
  9 10  2  0
 10 11  1  0
 11 12  2  0
  6 13  2  0
 13 14  1  0
 14 15  2  0
 14 16  1  0
 16 17  1  0
 17 18  1  0
 18 19  1  0
 19 20  1  0
 20 21  1  0
 21 22  1  0
 22 23  1  0
 23 24  1  0
 24 25  1  0
 18 26  2  0
 26 27  1  0
 26  3  1  0
 17  5  2  0
 25 20  1  0
 12  7  1  0
  1 28  1  0
  1 29  1  0
  1 30  1  0
  2 31  1  0
  2 32  1  0
  4 33  1  0
  8 34  1  0
  9 35  1  0
 10 36  1  0
 11 37  1  0
 12 38  1  0
 13 39  1  0
 19 40  1  0
 19 41  1  0
 21 42  1  0
 21 43  1  0
 22 44  1  0
 22 45  1  0
 24 46  1  0
 24 47  1  0
 25 48  1  0
 25 49  1  0
 27 50  1  0
M  END
$$$$
