
     RDKit          3D

 49 52  0  0  0  0  0  0  0  0999 V2000
    7.0067    1.8593    0.8256 C   0  0  0  0  0  0  0  0  0  0  0  0
    6.7957    0.4819    0.2668 C   0  0  0  0  0  0  0  0  0  0  0  0
    7.8578   -0.4335    0.2235 C   0  0  0  0  0  0  0  0  0  0  0  0
    7.6653   -1.7112   -0.3050 C   0  0  0  0  0  0  0  0  0  0  0  0
    8.9789   -2.8223   -0.3495 Cl  0  0  0  0  0  0  0  0  0  0  0  0
    6.4227   -2.0913   -0.8053 C   0  0  0  0  0  0  0  0  0  0  0  0
    5.3598   -1.1883   -0.7724 C   0  0  0  0  0  0  0  0  0  0  0  0
    5.5407    0.0865   -0.2237 C   0  0  0  0  0  0  0  0  0  0  0  0
    4.5243    1.0133   -0.2263 O   0  0  0  0  0  0  0  0  0  0  0  0
    3.3383    0.7374    0.3244 C   0  0  0  0  0  0  0  0  0  0  0  0
    3.0725   -0.3538    1.0113 N   0  0  0  0  0  0  0  0  0  0  0  0
    1.7673   -0.3140    1.4571 C   0  0  0  0  0  0  0  0  0  0  0  0
    1.0443    0.8085    1.1061 C   0  0  0  0  0  0  0  0  0  0  0  0
   -0.3710    1.1657    1.4409 C   0  0  0  0  0  0  0  0  0  0  0  0
   -1.2433    1.1883    0.2590 N   0  0  0  0  0  0  0  0  0  0  0  0
   -1.5403   -0.1580   -0.2777 C   0  0  0  0  0  0  0  0  0  0  0  0
   -2.8810   -0.7866    0.1731 C   0  0  0  0  0  0  0  0  0  0  0  0
   -4.0179    0.1031   -0.1157 N   0  0  0  0  0  0  0  0  0  0  0  0
   -5.2821   -0.4088   -0.3596 C   0  0  0  0  0  0  0  0  0  0  0  0
   -5.6759   -1.6655    0.1310 C   0  0  0  0  0  0  0  0  0  0  0  0
   -6.9538   -2.1892   -0.1027 C   0  0  0  0  0  0  0  0  0  0  0  0
   -7.8804   -1.4626   -0.8394 C   0  0  0  0  0  0  0  0  0  0  0  0
   -7.5253   -0.2161   -1.3381 C   0  0  0  0  0  0  0  0  0  0  0  0
   -6.2451    0.2993   -1.0971 C   0  0  0  0  0  0  0  0  0  0  0  0
   -3.7014    1.5258   -0.3124 C   0  0  0  0  0  0  0  0  0  0  0  0
   -2.4910    1.9261    0.5615 C   0  0  0  0  0  0  0  0  0  0  0  0
    2.0499    1.8623    0.1960 S   0  0  0  0  0  0  0  0  0  0  0  0
    8.0166    1.9766    1.2325 H   0  0  0  0  0  0  0  0  0  0  0  0
    6.8722    2.6102    0.0409 H   0  0  0  0  0  0  0  0  0  0  0  0
    6.2995    2.0524    1.6387 H   0  0  0  0  0  0  0  0  0  0  0  0
    8.8380   -0.1513    0.6008 H   0  0  0  0  0  0  0  0  0  0  0  0
    6.2749   -3.0829   -1.2227 H   0  0  0  0  0  0  0  0  0  0  0  0
    4.3936   -1.4825   -1.1723 H   0  0  0  0  0  0  0  0  0  0  0  0
    1.3886   -1.1424    2.0438 H   0  0  0  0  0  0  0  0  0  0  0  0
   -0.7653    0.4774    2.2004 H   0  0  0  0  0  0  0  0  0  0  0  0
   -0.3520    2.1607    1.9074 H   0  0  0  0  0  0  0  0  0  0  0  0
   -1.5702   -0.0581   -1.3710 H   0  0  0  0  0  0  0  0  0  0  0  0
   -0.7289   -0.8665   -0.0779 H   0  0  0  0  0  0  0  0  0  0  0  0
   -2.8482   -0.9972    1.2489 H   0  0  0  0  0  0  0  0  0  0  0  0
   -2.9864   -1.7403   -0.3587 H   0  0  0  0  0  0  0  0  0  0  0  0
   -4.9940   -2.2595    0.7326 H   0  0  0  0  0  0  0  0  0  0  0  0
   -7.2202   -3.1632    0.2989 H   0  0  0  0  0  0  0  0  0  0  0  0
   -8.8725   -1.8646   -1.0233 H   0  0  0  0  0  0  0  0  0  0  0  0
   -8.2385    0.3611   -1.9203 H   0  0  0  0  0  0  0  0  0  0  0  0
   -6.0098    1.2689   -1.5260 H   0  0  0  0  0  0  0  0  0  0  0  0
   -3.4898    1.7216   -1.3706 H   0  0  0  0  0  0  0  0  0  0  0  0
   -4.5445    2.1578   -0.0084 H   0  0  0  0  0  0  0  0  0  0  0  0
   -2.2994    2.9982    0.4389 H   0  0  0  0  0  0  0  0  0  0  0  0
   -2.7796    1.7673    1.6103 H   0  0  0  0  0  0  0  0  0  0  0  0
  1  2  1  0
  2  3  2  0
  3  4  1  0
  4  5  1  0
  4  6  2  0
  6  7  1  0
  7  8  2  0
  8  9  1  0
  9 10  1  0
 10 11  2  0
 11 12  1  0
 12 13  2  0
 13 14  1  0
 14 15  1  0
 15 16  1  0
 16 17  1  0
 17 18  1  0
 18 19  1  0
 19 20  2  0
 20 21  1  0
 21 22  2  0
 22 23  1  0
 23 24  2  0
 18 25  1  0
 25 26  1  0
 13 27  1  0
  8  2  1  0
 27 10  1  0
 26 15  1  0
 24 19  1  0
  1 28  1  0
  1 29  1  0
  1 30  1  0
  3 31  1  0
  6 32  1  0
  7 33  1  0
 12 34  1  0
 14 35  1  0
 14 36  1  0
 16 37  1  0
 16 38  1  0
 17 39  1  0
 17 40  1  0
 20 41  1  0
 21 42  1  0
 22 43  1  0
 23 44  1  0
 24 45  1  0
 25 46  1  0
 25 47  1  0
 26 48  1  0
 26 49  1  0
M  END
$$$$
