
     RDKit          3D

 38 39  0  0  0  0  0  0  0  0999 V2000
    7.1408   -0.0001    0.2880 C   0  0  0  0  0  0  0  0  0  0  0  0
    5.6612    0.1574    0.1052 C   0  0  0  0  0  0  0  0  0  0  0  0
    4.7825   -0.8437    0.5251 C   0  0  0  0  0  0  0  0  0  0  0  0
    3.4016   -0.7129    0.3264 C   0  0  0  0  0  0  0  0  0  0  0  0
    2.8624    0.4112   -0.3044 C   0  0  0  0  0  0  0  0  0  0  0  0
    1.4947    0.6041   -0.5308 N   0  0  0  0  0  0  0  0  0  0  0  0
    0.3515   -0.1461   -0.2635 C   0  0  0  0  0  0  0  0  0  0  0  0
    0.4128   -1.3218    0.3333 N   0  0  0  0  0  0  0  0  0  0  0  0
   -0.7657   -1.8949    0.5028 C   0  0  0  0  0  0  0  0  0  0  0  0
   -0.7519   -3.4181    1.2785 Cl  0  0  0  0  0  0  0  0  0  0  0  0
   -1.9550   -1.4318    0.1593 N   0  0  0  0  0  0  0  0  0  0  0  0
   -1.9144   -0.2549   -0.4280 C   0  0  0  0  0  0  0  0  0  0  0  0
   -3.0640    0.3689   -0.8670 N   0  0  0  0  0  0  0  0  0  0  0  0
   -4.3733    0.1630   -0.2392 C   0  0  0  0  0  0  0  0  0  0  0  0
   -5.3383    1.1706   -0.8999 C   0  0  0  0  0  0  0  0  0  0  0  0
   -4.3285    0.4581    1.2669 C   0  0  0  0  0  0  0  0  0  0  0  0
   -4.9142   -1.2483   -0.5115 C   0  0  0  0  0  0  0  0  0  0  0  0
   -0.7915    0.4193   -0.6538 N   0  0  0  0  0  0  0  0  0  0  0  0
    3.7581    1.4038   -0.7342 C   0  0  0  0  0  0  0  0  0  0  0  0
    5.1383    1.2795   -0.5391 C   0  0  0  0  0  0  0  0  0  0  0  0
    7.5726   -0.5116   -0.5777 H   0  0  0  0  0  0  0  0  0  0  0  0
    7.3634   -0.5803    1.1896 H   0  0  0  0  0  0  0  0  0  0  0  0
    7.6264    0.9749    0.4016 H   0  0  0  0  0  0  0  0  0  0  0  0
    5.1613   -1.7389    1.0135 H   0  0  0  0  0  0  0  0  0  0  0  0
    2.7658   -1.5191    0.6784 H   0  0  0  0  0  0  0  0  0  0  0  0
    1.2329    1.4573   -1.0033 H   0  0  0  0  0  0  0  0  0  0  0  0
   -2.8207    1.3366   -1.0514 H   0  0  0  0  0  0  0  0  0  0  0  0
   -6.3518    1.0801   -0.4932 H   0  0  0  0  0  0  0  0  0  0  0  0
   -5.0053    2.2030   -0.7396 H   0  0  0  0  0  0  0  0  0  0  0  0
   -5.3947    1.0118   -1.9834 H   0  0  0  0  0  0  0  0  0  0  0  0
   -5.3322    0.4194    1.7053 H   0  0  0  0  0  0  0  0  0  0  0  0
   -3.7115   -0.2654    1.8099 H   0  0  0  0  0  0  0  0  0  0  0  0
   -3.9146    1.4540    1.4630 H   0  0  0  0  0  0  0  0  0  0  0  0
   -4.3631   -2.0202    0.0333 H   0  0  0  0  0  0  0  0  0  0  0  0
   -4.8596   -1.4941   -1.5783 H   0  0  0  0  0  0  0  0  0  0  0  0
   -5.9622   -1.3333   -0.2013 H   0  0  0  0  0  0  0  0  0  0  0  0
    3.3880    2.2952   -1.2352 H   0  0  0  0  0  0  0  0  0  0  0  0
    5.7985    2.0673   -0.8943 H   0  0  0  0  0  0  0  0  0  0  0  0
  1  2  1  0
  2  3  2  0
  3  4  1  0
  4  5  2  0
  5  6  1  0
  6  7  1  0
  7  8  2  0
  8  9  1  0
  9 10  1  0
  9 11  2  0
 11 12  1  0
 12 13  1  0
 13 14  1  0
 14 15  1  0
 14 16  1  0
 14 17  1  0
 12 18  2  0
  5 19  1  0
 19 20  2  0
 20  2  1  0
 18  7  1  0
  1 21  1  0
  1 22  1  0
  1 23  1  0
  3 24  1  0
  4 25  1  0
  6 26  1  0
 13 27  1  0
 15 28  1  0
 15 29  1  0
 15 30  1  0
 16 31  1  0
 16 32  1  0
 16 33  1  0
 17 34  1  0
 17 35  1  0
 17 36  1  0
 19 37  1  0
 20 38  1  0
M  END
$$$$
