
     RDKit          3D

 47 49  0  0  0  0  0  0  0  0999 V2000
   -7.0081   -1.7878   -1.1364 C   0  0  0  0  0  0  0  0  0  0  0  0
   -5.7886   -2.6323   -0.8100 C   0  0  0  0  0  0  0  0  0  0  0  0
   -5.1807   -2.1997    0.4059 O   0  0  0  0  0  0  0  0  0  0  0  0
   -4.2395   -1.2104    0.3643 C   0  0  0  0  0  0  0  0  0  0  0  0
   -3.8392   -0.4937   -0.7657 C   0  0  0  0  0  0  0  0  0  0  0  0
   -2.8597    0.5002   -0.6608 C   0  0  0  0  0  0  0  0  0  0  0  0
   -2.2830    0.7731    0.5813 C   0  0  0  0  0  0  0  0  0  0  0  0
   -1.0317    2.0230    0.7328 S   0  0  0  0  0  6  0  0  0  0  0  0
   -1.4693    2.9396    1.7621 O   0  0  0  0  0  0  0  0  0  0  0  0
   -0.6934    2.4905   -0.5947 O   0  0  0  0  0  0  0  0  0  0  0  0
    0.3011    1.1415    1.3238 N   0  0  0  0  0  0  0  0  0  0  0  0
    0.8996    0.1213    0.3996 C   0  0  0  0  0  0  0  0  0  0  0  0
    1.9170    0.7353   -0.5860 C   0  0  0  0  0  0  0  0  0  0  0  0
    2.9199    1.5394    0.1272 N   0  0  0  0  0  0  0  0  0  0  0  0
    4.1171    0.9793    0.5792 C   0  0  0  0  0  0  0  0  0  0  0  0
    4.6247    1.2605    1.6617 O   0  0  0  0  0  0  0  0  0  0  0  0
    4.8266    0.0176   -0.2955 C   0  0  0  0  0  0  0  0  0  0  0  0
    4.9688    0.2619   -1.6610 C   0  0  0  0  0  0  0  0  0  0  0  0
    5.6624   -0.6700   -2.4092 C   0  0  0  0  0  0  0  0  0  0  0  0
    6.2106   -1.7896   -1.8887 N   0  0  0  0  0  0  0  0  0  0  0  0
    6.0849   -1.9782   -0.5564 C   0  0  0  0  0  0  0  0  0  0  0  0
    5.4116   -1.1085    0.2793 C   0  0  0  0  0  0  0  0  0  0  0  0
    2.3206    2.5853    0.9620 C   0  0  0  0  0  0  0  0  0  0  0  0
    1.3629    1.9708    1.9921 C   0  0  0  0  0  0  0  0  0  0  0  0
   -2.6818    0.0725    1.7202 C   0  0  0  0  0  0  0  0  0  0  0  0
   -3.6583   -0.9177    1.6039 C   0  0  0  0  0  0  0  0  0  0  0  0
   -7.5145   -2.1692   -2.0276 H   0  0  0  0  0  0  0  0  0  0  0  0
   -6.7369   -0.7425   -1.3111 H   0  0  0  0  0  0  0  0  0  0  0  0
   -7.7146   -1.7962   -0.2997 H   0  0  0  0  0  0  0  0  0  0  0  0
   -6.1193   -3.6633   -0.6396 H   0  0  0  0  0  0  0  0  0  0  0  0
   -5.0769   -2.6806   -1.6413 H   0  0  0  0  0  0  0  0  0  0  0  0
   -4.2756   -0.6726   -1.7426 H   0  0  0  0  0  0  0  0  0  0  0  0
   -2.5626    1.0561   -1.5474 H   0  0  0  0  0  0  0  0  0  0  0  0
    0.1187   -0.4133   -0.1492 H   0  0  0  0  0  0  0  0  0  0  0  0
    1.4016   -0.6265    1.0269 H   0  0  0  0  0  0  0  0  0  0  0  0
    1.4264    1.3941   -1.3082 H   0  0  0  0  0  0  0  0  0  0  0  0
    2.3807   -0.0769   -1.1499 H   0  0  0  0  0  0  0  0  0  0  0  0
    4.5641    1.1539   -2.1253 H   0  0  0  0  0  0  0  0  0  0  0  0
    5.8066   -0.5382   -3.4780 H   0  0  0  0  0  0  0  0  0  0  0  0
    6.5599   -2.8750   -0.1684 H   0  0  0  0  0  0  0  0  0  0  0  0
    5.3485   -1.2966    1.3456 H   0  0  0  0  0  0  0  0  0  0  0  0
    3.1037    3.1579    1.4706 H   0  0  0  0  0  0  0  0  0  0  0  0
    1.7905    3.2752    0.2964 H   0  0  0  0  0  0  0  0  0  0  0  0
    1.9106    1.3120    2.6774 H   0  0  0  0  0  0  0  0  0  0  0  0
    0.9117    2.7515    2.6120 H   0  0  0  0  0  0  0  0  0  0  0  0
   -2.2421    0.2931    2.6902 H   0  0  0  0  0  0  0  0  0  0  0  0
   -3.9750   -1.4668    2.4882 H   0  0  0  0  0  0  0  0  0  0  0  0
  1  2  1  0
  2  3  1  0
  3  4  1  0
  4  5  2  0
  5  6  1  0
  6  7  2  0
  7  8  1  0
  8  9  2  0
  8 10  2  0
  8 11  1  0
 11 12  1  0
 12 13  1  0
 13 14  1  0
 14 15  1  0
 15 16  2  0
 15 17  1  0
 17 18  2  0
 18 19  1  0
 19 20  2  0
 20 21  1  0
 21 22  2  0
 14 23  1  0
 23 24  1  0
  7 25  1  0
 25 26  2  0
 26  4  1  0
 24 11  1  0
 22 17  1  0
  1 27  1  0
  1 28  1  0
  1 29  1  0
  2 30  1  0
  2 31  1  0
  5 32  1  0
  6 33  1  0
 12 34  1  0
 12 35  1  0
 13 36  1  0
 13 37  1  0
 18 38  1  0
 19 39  1  0
 21 40  1  0
 22 41  1  0
 23 42  1  0
 23 43  1  0
 24 44  1  0
 24 45  1  0
 25 46  1  0
 26 47  1  0
M  END
$$$$
