
     RDKit          3D

 43 46  0  0  0  0  0  0  0  0999 V2000
   -1.4595    6.4757   -4.9433 N   0  0  0  0  0  0  0  0  0  0  0  0
   -1.4790    5.5071   -4.3042 C   0  0  0  0  0  0  0  0  0  0  0  0
   -1.4767    4.2841   -3.4958 C   0  0  0  0  0  0  0  0  0  0  0  0
   -0.0453    3.8377   -3.2384 C   0  0  0  0  0  0  0  0  0  0  0  0
   -0.0079    2.5992   -2.4910 N   0  0  0  0  0  0  0  0  0  0  0  0
    0.2573    2.4523   -1.1626 C   0  0  0  0  0  0  0  0  0  0  0  0
    0.1413    1.1017   -0.8998 C   0  0  0  0  0  0  0  0  0  0  0  0
    0.3722    0.4363    0.3487 C   0  0  0  0  0  0  0  0  0  0  0  0
    0.3345    0.9307    1.6068 C   0  0  0  0  0  0  0  0  0  0  0  0
   -0.0191    2.2780    1.9242 C   0  0  0  0  0  0  0  0  0  0  0  0
   -0.3480    3.3656    2.1741 N   0  0  0  0  0  0  0  0  0  0  0  0
    0.5909    0.0174    2.6771 C   0  0  0  0  0  0  0  0  0  0  0  0
   -0.0757   -1.0938    2.9176 N   0  0  0  0  0  0  0  0  0  0  0  0
    0.4249   -1.7261    4.0469 C   0  0  0  0  0  0  0  0  0  0  0  0
   -0.1005   -2.8959    4.6405 C   0  0  0  0  0  0  0  0  0  0  0  0
    0.5148   -3.4366    5.7761 C   0  0  0  0  0  0  0  0  0  0  0  0
    1.6513   -2.8324    6.3170 C   0  0  0  0  0  0  0  0  0  0  0  0
    2.1921   -1.6724    5.7449 C   0  0  0  0  0  0  0  0  0  0  0  0
    1.5495   -1.1269    4.6207 C   0  0  0  0  0  0  0  0  0  0  0  0
    1.9383    0.3024    3.7437 S   0  0  0  0  0  0  0  0  0  0  0  0
   -0.1835    0.5048   -2.1654 C   0  0  0  0  0  0  0  0  0  0  0  0
   -0.3996   -0.9048   -2.5063 C   0  0  0  0  0  0  0  0  0  0  0  0
   -1.2189   -1.7300   -1.7194 C   0  0  0  0  0  0  0  0  0  0  0  0
   -1.4030   -3.0738   -2.0648 C   0  0  0  0  0  0  0  0  0  0  0  0
   -0.7785   -3.5860   -3.1990 C   0  0  0  0  0  0  0  0  0  0  0  0
   -0.9593   -4.8733   -3.5288 F   0  0  0  0  0  0  0  0  0  0  0  0
    0.0291   -2.7841   -3.9956 C   0  0  0  0  0  0  0  0  0  0  0  0
    0.2156   -1.4425   -3.6505 C   0  0  0  0  0  0  0  0  0  0  0  0
   -0.2581    1.4438   -3.1240 N   0  0  0  0  0  0  0  0  0  0  0  0
   -1.9930    4.4656   -2.5416 H   0  0  0  0  0  0  0  0  0  0  0  0
   -2.0441    3.4977   -4.0162 H   0  0  0  0  0  0  0  0  0  0  0  0
    0.5119    4.5914   -2.6644 H   0  0  0  0  0  0  0  0  0  0  0  0
    0.5004    3.6716   -4.1767 H   0  0  0  0  0  0  0  0  0  0  0  0
    0.5126    3.3094   -0.5504 H   0  0  0  0  0  0  0  0  0  0  0  0
    0.6008   -0.6309    0.2522 H   0  0  0  0  0  0  0  0  0  0  0  0
   -0.9825   -3.3746    4.2095 H   0  0  0  0  0  0  0  0  0  0  0  0
    0.1026   -4.3447    6.2289 H   0  0  0  0  0  0  0  0  0  0  0  0
    2.1270   -3.2668    7.1948 H   0  0  0  0  0  0  0  0  0  0  0  0
    3.0813   -1.2050    6.1648 H   0  0  0  0  0  0  0  0  0  0  0  0
   -1.7322   -1.3342   -0.8456 H   0  0  0  0  0  0  0  0  0  0  0  0
   -2.0324   -3.7230   -1.4630 H   0  0  0  0  0  0  0  0  0  0  0  0
    0.5057   -3.2039   -4.8758 H   0  0  0  0  0  0  0  0  0  0  0  0
    0.8428   -0.8112   -4.2782 H   0  0  0  0  0  0  0  0  0  0  0  0
  1  2  3  0
  2  3  1  0
  3  4  1  0
  4  5  1  0
  5  6  1  0
  6  7  2  0
  7  8  1  0
  8  9  2  3
  9 10  1  0
 10 11  3  0
  9 12  1  0
 12 13  2  0
 13 14  1  0
 14 15  2  0
 15 16  1  0
 16 17  2  0
 17 18  1  0
 18 19  2  0
 19 20  1  0
  7 21  1  0
 21 22  1  0
 22 23  2  0
 23 24  1  0
 24 25  2  0
 25 26  1  0
 25 27  1  0
 27 28  2  0
 21 29  2  0
 29  5  1  0
 20 12  1  0
 28 22  1  0
 19 14  1  0
  3 30  1  0
  3 31  1  0
  4 32  1  0
  4 33  1  0
  6 34  1  0
  8 35  1  0
 15 36  1  0
 16 37  1  0
 17 38  1  0
 18 39  1  0
 23 40  1  0
 24 41  1  0
 27 42  1  0
 28 43  1  0
M  END
$$$$
