
     RDKit          3D

 57 60  0  0  0  0  0  0  0  0999 V2000
   -6.6708   -2.7302    0.8708 C   0  0  0  0  0  0  0  0  0  0  0  0
   -6.3766   -1.4629    0.1619 C   0  0  0  0  0  0  0  0  0  0  0  0
   -7.3193   -0.8854   -0.5898 N   0  0  0  0  0  0  0  0  0  0  0  0
   -6.7434    0.2614   -1.0993 O   0  0  0  0  0  0  0  0  0  0  0  0
   -5.4651    0.3673   -0.6515 C   0  0  0  0  0  0  0  0  0  0  0  0
   -4.7119    1.5494   -1.1148 C   0  0  0  0  0  0  0  0  0  0  0  0
   -5.1671   -0.7136    0.1526 C   0  0  0  0  0  0  0  0  0  0  0  0
   -3.8982   -1.0255    0.8636 C   0  0  0  0  0  0  0  0  0  0  0  0
   -2.7130   -0.6238    0.1678 O   0  0  0  0  0  0  0  0  0  0  0  0
   -2.3268   -1.3085   -0.9515 C   0  0  0  0  0  0  0  0  0  0  0  0
   -2.8319   -2.5482   -1.3517 C   0  0  0  0  0  0  0  0  0  0  0  0
   -2.3533   -3.1684   -2.5129 C   0  0  0  0  0  0  0  0  0  0  0  0
   -1.3656   -2.5607   -3.2869 C   0  0  0  0  0  0  0  0  0  0  0  0
   -0.8495   -1.3273   -2.9012 C   0  0  0  0  0  0  0  0  0  0  0  0
   -1.3253   -0.7146   -1.7352 C   0  0  0  0  0  0  0  0  0  0  0  0
   -0.7693    0.6044   -1.3752 C   0  0  0  0  0  0  0  0  0  0  0  0
   -1.3648    1.6074   -1.7582 O   0  0  0  0  0  0  0  0  0  0  0  0
    0.4226    0.6342   -0.6634 N   0  0  0  0  0  0  0  0  0  0  0  0
    1.1184   -0.5510   -0.1502 C   0  0  0  0  0  0  0  0  0  0  0  0
    2.0853   -0.2352    1.0068 C   0  0  0  0  0  0  0  0  0  0  0  0
    3.0459    0.8166    0.6355 N   0  0  0  0  0  0  0  0  0  0  0  0
    4.2641    0.9505    1.2843 C   0  0  0  0  0  0  0  0  0  0  0  0
    4.5275    0.3317    2.5164 C   0  0  0  0  0  0  0  0  0  0  0  0
    5.7588    0.4654    3.1682 C   0  0  0  0  0  0  0  0  0  0  0  0
    6.7727    1.2235    2.5951 C   0  0  0  0  0  0  0  0  0  0  0  0
    6.5628    1.8462    1.3616 C   0  0  0  0  0  0  0  0  0  0  0  0
    7.6453    2.6837    0.7310 C   0  0  0  0  0  0  0  0  0  0  0  0
    7.6032    3.9807    1.1431 F   0  0  0  0  0  0  0  0  0  0  0  0
    8.9010    2.2411    1.0213 F   0  0  0  0  0  0  0  0  0  0  0  0
    7.5735    2.7224   -0.6292 F   0  0  0  0  0  0  0  0  0  0  0  0
    5.3110    1.7067    0.7299 C   0  0  0  0  0  0  0  0  0  0  0  0
    2.5712    1.8606   -0.2960 C   0  0  0  0  0  0  0  0  0  0  0  0
    1.0347    1.9274   -0.3609 C   0  0  0  0  0  0  0  0  0  0  0  0
   -6.0636   -3.5438    0.4620 H   0  0  0  0  0  0  0  0  0  0  0  0
   -7.7244   -3.0125    0.7758 H   0  0  0  0  0  0  0  0  0  0  0  0
   -6.4442   -2.6330    1.9373 H   0  0  0  0  0  0  0  0  0  0  0  0
   -4.1918    1.3232   -2.0501 H   0  0  0  0  0  0  0  0  0  0  0  0
   -5.3831    2.3955   -1.2936 H   0  0  0  0  0  0  0  0  0  0  0  0
   -3.9738    1.8615   -0.3701 H   0  0  0  0  0  0  0  0  0  0  0  0
   -3.8998   -0.4621    1.8048 H   0  0  0  0  0  0  0  0  0  0  0  0
   -3.8289   -2.0794    1.1566 H   0  0  0  0  0  0  0  0  0  0  0  0
   -3.6029   -3.0651   -0.7911 H   0  0  0  0  0  0  0  0  0  0  0  0
   -2.7622   -4.1294   -2.8187 H   0  0  0  0  0  0  0  0  0  0  0  0
   -1.0078   -3.0433   -4.1933 H   0  0  0  0  0  0  0  0  0  0  0  0
   -0.0913   -0.8374   -3.5070 H   0  0  0  0  0  0  0  0  0  0  0  0
    0.3899   -1.2984    0.1783 H   0  0  0  0  0  0  0  0  0  0  0  0
    1.6777   -0.9751   -0.9932 H   0  0  0  0  0  0  0  0  0  0  0  0
    1.5151    0.0924    1.8849 H   0  0  0  0  0  0  0  0  0  0  0  0
    2.6040   -1.1670    1.2620 H   0  0  0  0  0  0  0  0  0  0  0  0
    3.7619   -0.2548    3.0165 H   0  0  0  0  0  0  0  0  0  0  0  0
    5.9174   -0.0211    4.1274 H   0  0  0  0  0  0  0  0  0  0  0  0
    7.7263    1.3246    3.1103 H   0  0  0  0  0  0  0  0  0  0  0  0
    5.1746    2.1877   -0.2373 H   0  0  0  0  0  0  0  0  0  0  0  0
    2.9310    2.8512    0.0072 H   0  0  0  0  0  0  0  0  0  0  0  0
    2.9678    1.6425   -1.2951 H   0  0  0  0  0  0  0  0  0  0  0  0
    0.6339    2.2444    0.6098 H   0  0  0  0  0  0  0  0  0  0  0  0
    0.7284    2.6743   -1.1013 H   0  0  0  0  0  0  0  0  0  0  0  0
  1  2  1  0
  2  3  2  0
  3  4  1  0
  4  5  1  0
  5  6  1  0
  5  7  2  0
  7  8  1  0
  8  9  1  0
  9 10  1  0
 10 11  2  0
 11 12  1  0
 12 13  2  0
 13 14  1  0
 14 15  2  0
 15 16  1  0
 16 17  2  0
 16 18  1  0
 18 19  1  0
 19 20  1  0
 20 21  1  0
 21 22  1  0
 22 23  2  0
 23 24  1  0
 24 25  2  0
 25 26  1  0
 26 27  1  0
 27 28  1  0
 27 29  1  0
 27 30  1  0
 26 31  2  0
 21 32  1  0
 32 33  1  0
  7  2  1  0
 15 10  1  0
 33 18  1  0
 31 22  1  0
  1 34  1  0
  1 35  1  0
  1 36  1  0
  6 37  1  0
  6 38  1  0
  6 39  1  0
  8 40  1  0
  8 41  1  0
 11 42  1  0
 12 43  1  0
 13 44  1  0
 14 45  1  0
 19 46  1  0
 19 47  1  0
 20 48  1  0
 20 49  1  0
 23 50  1  0
 24 51  1  0
 25 52  1  0
 31 53  1  0
 32 54  1  0
 32 55  1  0
 33 56  1  0
 33 57  1  0
M  END
$$$$
