
     RDKit          3D

 54 56  0  0  0  0  0  0  0  0999 V2000
   -2.6316    0.8206   -2.6456 C   0  0  0  0  0  0  0  0  0  0  0  0
   -3.8297    0.5379   -1.7749 C   0  0  0  0  0  0  0  0  0  0  0  0
   -5.0874    0.6837   -2.3846 C   0  0  0  0  0  0  0  0  0  0  0  0
   -6.2568    0.5376   -1.6529 C   0  0  0  0  0  0  0  0  0  0  0  0
   -6.1900    0.2564   -0.2923 C   0  0  0  0  0  0  0  0  0  0  0  0
   -4.9545    0.0945    0.3664 C   0  0  0  0  0  0  0  0  0  0  0  0
   -4.9472   -0.2574    1.8567 C   0  0  0  0  0  0  0  0  0  0  0  0
   -4.8065   -1.7725    2.0442 C   0  0  0  0  0  0  0  0  0  0  0  0
   -6.1577    0.2504    2.6577 C   0  0  0  0  0  0  0  0  0  0  0  0
   -3.7589    0.1817   -0.4059 C   0  0  0  0  0  0  0  0  0  0  0  0
   -2.5156   -0.0372    0.2436 N   0  0  0  0  0  0  0  0  0  0  0  0
   -1.4677   -0.7952   -0.2694 C   0  0  0  0  0  0  0  0  0  0  0  0
   -1.4884   -1.4350   -1.3174 O   0  0  0  0  0  0  0  0  0  0  0  0
   -0.2393   -0.7920    0.6321 C   0  0  0  0  0  0  0  0  0  0  0  0
    0.8691   -0.0195   -0.0200 C   0  0  0  0  0  0  0  0  0  0  0  0
    0.9131    1.3276   -0.3295 C   0  0  0  0  0  0  0  0  0  0  0  0
    2.1376    1.6970   -0.9581 C   0  0  0  0  0  0  0  0  0  0  0  0
    2.9998    0.6264   -1.0969 C   0  0  0  0  0  0  0  0  0  0  0  0
    4.6365    0.4926   -1.7814 S   0  0  0  0  0  6  0  0  0  0  0  0
    5.0640    1.8606   -1.9944 O   0  0  0  0  0  0  0  0  0  0  0  0
    4.5261   -0.4423   -2.8804 O   0  0  0  0  0  0  0  0  0  0  0  0
    5.6546   -0.1880   -0.5946 N   0  0  0  0  0  0  0  0  0  0  0  0
    5.8535    0.6653    0.6188 C   0  0  0  0  0  0  0  0  0  0  0  0
    6.6788   -0.1076    1.6537 C   0  0  0  0  0  0  0  0  0  0  0  0
    7.9522   -0.4916    1.1153 O   0  0  0  0  0  0  0  0  0  0  0  0
    7.7773   -1.3319   -0.0365 C   0  0  0  0  0  0  0  0  0  0  0  0
    6.9826   -0.6163   -1.1358 C   0  0  0  0  0  0  0  0  0  0  0  0
    2.3235   -0.8113   -0.4654 S   0  0  0  0  0  0  0  0  0  0  0  0
   -2.8643    1.6098   -3.3716 H   0  0  0  0  0  0  0  0  0  0  0  0
   -2.3402   -0.0728   -3.2048 H   0  0  0  0  0  0  0  0  0  0  0  0
   -1.7853    1.1960   -2.0643 H   0  0  0  0  0  0  0  0  0  0  0  0
   -5.1558    0.9294   -3.4432 H   0  0  0  0  0  0  0  0  0  0  0  0
   -7.2215    0.6523   -2.1397 H   0  0  0  0  0  0  0  0  0  0  0  0
   -7.1313    0.1479    0.2400 H   0  0  0  0  0  0  0  0  0  0  0  0
   -4.0893    0.2380    2.3254 H   0  0  0  0  0  0  0  0  0  0  0  0
   -5.6592   -2.3080    1.6099 H   0  0  0  0  0  0  0  0  0  0  0  0
   -4.7548   -2.0293    3.1079 H   0  0  0  0  0  0  0  0  0  0  0  0
   -3.8976   -2.1571    1.5679 H   0  0  0  0  0  0  0  0  0  0  0  0
   -7.0804   -0.2817    2.3984 H   0  0  0  0  0  0  0  0  0  0  0  0
   -5.9915    0.0980    3.7302 H   0  0  0  0  0  0  0  0  0  0  0  0
   -6.3186    1.3229    2.4953 H   0  0  0  0  0  0  0  0  0  0  0  0
   -2.5191    0.0398    1.2496 H   0  0  0  0  0  0  0  0  0  0  0  0
    0.0339   -1.8359    0.8251 H   0  0  0  0  0  0  0  0  0  0  0  0
   -0.4674   -0.3423    1.6053 H   0  0  0  0  0  0  0  0  0  0  0  0
    0.0980    2.0160   -0.1339 H   0  0  0  0  0  0  0  0  0  0  0  0
    2.3832    2.6966   -1.3001 H   0  0  0  0  0  0  0  0  0  0  0  0
    4.8887    0.9335    1.0579 H   0  0  0  0  0  0  0  0  0  0  0  0
    6.3877    1.5803    0.3362 H   0  0  0  0  0  0  0  0  0  0  0  0
    6.1489   -1.0053    1.9954 H   0  0  0  0  0  0  0  0  0  0  0  0
    6.8660    0.5244    2.5278 H   0  0  0  0  0  0  0  0  0  0  0  0
    8.7723   -1.5918   -0.4088 H   0  0  0  0  0  0  0  0  0  0  0  0
    7.2804   -2.2596    0.2715 H   0  0  0  0  0  0  0  0  0  0  0  0
    7.5344    0.2667   -1.4774 H   0  0  0  0  0  0  0  0  0  0  0  0
    6.8454   -1.3023   -1.9769 H   0  0  0  0  0  0  0  0  0  0  0  0
  1  2  1  0
  2  3  2  0
  3  4  1  0
  4  5  2  0
  5  6  1  0
  6  7  1  0
  7  8  1  0
  7  9  1  0
  6 10  2  0
 10 11  1  0
 11 12  1  0
 12 13  2  0
 12 14  1  0
 14 15  1  0
 15 16  2  0
 16 17  1  0
 17 18  2  0
 18 19  1  0
 19 20  2  0
 19 21  2  0
 19 22  1  0
 22 23  1  0
 23 24  1  0
 24 25  1  0
 25 26  1  0
 26 27  1  0
 18 28  1  0
 10  2  1  0
 28 15  1  0
 27 22  1  0
  1 29  1  0
  1 30  1  0
  1 31  1  0
  3 32  1  0
  4 33  1  0
  5 34  1  0
  7 35  1  0
  8 36  1  0
  8 37  1  0
  8 38  1  0
  9 39  1  0
  9 40  1  0
  9 41  1  0
 11 42  1  0
 14 43  1  0
 14 44  1  0
 16 45  1  0
 17 46  1  0
 23 47  1  0
 23 48  1  0
 24 49  1  0
 24 50  1  0
 26 51  1  0
 26 52  1  0
 27 53  1  0
 27 54  1  0
M  END
$$$$
