
     RDKit          3D

 45 47  0  0  0  0  0  0  0  0999 V2000
    7.5187    0.1547    1.9694 N   0  0  0  0  0  0  0  0  0  0  0  0
    6.3657    0.2059    2.0917 C   0  0  0  0  0  0  0  0  0  0  0  0
    4.9468    0.2628    2.2253 C   0  0  0  0  0  0  0  0  0  0  0  0
    4.4491    0.6035    3.5180 C   0  0  0  0  0  0  0  0  0  0  0  0
    4.0331    0.8781    4.5663 N   0  0  0  0  0  0  0  0  0  0  0  0
    4.1252   -0.0040    1.1777 C   0  0  0  0  0  0  0  0  0  0  0  0
    2.6613    0.0162    1.2849 C   0  0  0  0  0  0  0  0  0  0  0  0
    1.8296   -0.1229    0.2346 C   0  0  0  0  0  0  0  0  0  0  0  0
    0.3854   -0.0961    0.4170 C   0  0  0  0  0  0  0  0  0  0  0  0
   -0.5181   -0.0969   -0.5870 C   0  0  0  0  0  0  0  0  0  0  0  0
   -1.9161   -0.0683   -0.3803 N   0  0  0  0  0  0  0  0  0  0  0  0
   -2.4880    0.5308    0.8422 C   0  0  0  0  0  0  0  0  0  0  0  0
   -3.8049    1.2758    0.6289 C   0  0  0  0  0  0  0  0  0  0  0  0
   -5.0273    0.3685    0.7277 C   0  0  0  0  0  0  0  0  0  0  0  0
   -5.2145   -0.5629   -0.4609 C   0  0  0  0  0  0  0  0  0  0  0  0
   -3.9972   -1.4233   -0.7830 C   0  0  0  0  0  0  0  0  0  0  0  0
   -2.8434   -0.6221   -1.3846 C   0  0  0  0  0  0  0  0  0  0  0  0
   -0.0219   -0.0881   -2.0284 C   0  0  0  0  0  0  0  0  0  0  0  0
    1.4150    0.4155   -2.1753 C   0  0  0  0  0  0  0  0  0  0  0  0
    2.3349   -0.2955   -1.1810 C   0  0  0  0  0  0  0  0  0  0  0  0
    3.7757    0.2070   -1.3230 C   0  0  0  0  0  0  0  0  0  0  0  0
    4.6519   -0.3612   -0.2074 C   0  0  0  0  0  0  0  0  0  0  0  0
    2.2227    0.1579    2.2723 H   0  0  0  0  0  0  0  0  0  0  0  0
    0.0345   -0.0948    1.4454 H   0  0  0  0  0  0  0  0  0  0  0  0
   -2.5892   -0.2406    1.6149 H   0  0  0  0  0  0  0  0  0  0  0  0
   -1.7841    1.2765    1.2337 H   0  0  0  0  0  0  0  0  0  0  0  0
   -3.8970    2.0217    1.4292 H   0  0  0  0  0  0  0  0  0  0  0  0
   -3.8041    1.8330   -0.3150 H   0  0  0  0  0  0  0  0  0  0  0  0
   -4.9761   -0.2214    1.6512 H   0  0  0  0  0  0  0  0  0  0  0  0
   -5.9233    0.9955    0.8147 H   0  0  0  0  0  0  0  0  0  0  0  0
   -6.0651   -1.2227   -0.2490 H   0  0  0  0  0  0  0  0  0  0  0  0
   -5.4953    0.0236   -1.3446 H   0  0  0  0  0  0  0  0  0  0  0  0
   -3.6753   -1.9911    0.0978 H   0  0  0  0  0  0  0  0  0  0  0  0
   -4.3170   -2.1615   -1.5300 H   0  0  0  0  0  0  0  0  0  0  0  0
   -2.3007   -1.3212   -2.0318 H   0  0  0  0  0  0  0  0  0  0  0  0
   -3.2074    0.1814   -2.0356 H   0  0  0  0  0  0  0  0  0  0  0  0
   -0.0874   -1.1058   -2.4331 H   0  0  0  0  0  0  0  0  0  0  0  0
   -0.6648    0.5535   -2.6433 H   0  0  0  0  0  0  0  0  0  0  0  0
    1.4399    1.5012   -2.0094 H   0  0  0  0  0  0  0  0  0  0  0  0
    1.7577    0.2437   -3.2027 H   0  0  0  0  0  0  0  0  0  0  0  0
    2.3220   -1.3716   -1.4082 H   0  0  0  0  0  0  0  0  0  0  0  0
    3.8068    1.3045   -1.2907 H   0  0  0  0  0  0  0  0  0  0  0  0
    4.1799   -0.0935   -2.2973 H   0  0  0  0  0  0  0  0  0  0  0  0
    5.6704    0.0090   -0.3660 H   0  0  0  0  0  0  0  0  0  0  0  0
    4.6917   -1.4549   -0.2959 H   0  0  0  0  0  0  0  0  0  0  0  0
  1  2  3  0
  2  3  1  0
  3  4  1  0
  4  5  3  0
  3  6  2  3
  6  7  1  0
  7  8  2  0
  8  9  1  0
  9 10  2  0
 10 11  1  0
 11 12  1  0
 12 13  1  0
 13 14  1  0
 14 15  1  0
 15 16  1  0
 16 17  1  0
 10 18  1  0
 18 19  1  0
 19 20  1  0
 20 21  1  0
 21 22  1  0
 22  6  1  0
 20  8  1  0
 17 11  1  0
  7 23  1  0
  9 24  1  0
 12 25  1  0
 12 26  1  0
 13 27  1  0
 13 28  1  0
 14 29  1  0
 14 30  1  0
 15 31  1  0
 15 32  1  0
 16 33  1  0
 16 34  1  0
 17 35  1  0
 17 36  1  0
 18 37  1  0
 18 38  1  0
 19 39  1  0
 19 40  1  0
 20 41  1  0
 21 42  1  0
 21 43  1  0
 22 44  1  0
 22 45  1  0
M  END
$$$$
