
     RDKit          3D

 47 49  0  0  0  0  0  0  0  0999 V2000
    7.4062    0.6298    1.2473 C   0  0  0  0  0  0  0  0  0  0  0  0
    7.0187    0.6504   -0.2210 C   0  0  0  0  0  0  0  0  0  0  0  0
    6.3355   -0.5493   -0.5806 O   0  0  0  0  0  0  0  0  0  0  0  0
    4.9747   -0.5903   -0.4714 C   0  0  0  0  0  0  0  0  0  0  0  0
    4.3859   -1.7404   -1.0003 C   0  0  0  0  0  0  0  0  0  0  0  0
    3.0004   -1.9245   -0.9546 C   0  0  0  0  0  0  0  0  0  0  0  0
    2.1794   -0.9558   -0.3625 C   0  0  0  0  0  0  0  0  0  0  0  0
    0.7614   -1.1450   -0.3132 N   0  0  0  0  0  0  0  0  0  0  0  0
    0.0906   -2.3740   -0.2283 C   0  0  0  0  0  0  0  0  0  0  0  0
    0.6826   -3.5448    0.0150 O   0  0  0  0  0  0  0  0  0  0  0  0
   -1.2609   -2.1456   -0.3802 C   0  0  0  0  0  0  0  0  0  0  0  0
   -1.4504   -0.7559   -0.4599 C   0  0  0  0  0  0  0  0  0  0  0  0
   -2.6207   -0.0582   -0.5871 N   0  0  0  0  0  0  0  0  0  0  0  0
   -2.8613    0.5232   -1.9203 C   0  0  0  0  0  0  0  0  0  0  0  0
   -3.8304   -0.6500    0.0222 C   0  0  0  0  0  0  0  0  0  0  0  0
   -4.8237    0.4193    0.4247 C   0  0  0  0  0  0  0  0  0  0  0  0
   -4.4603    1.4123    1.3475 C   0  0  0  0  0  0  0  0  0  0  0  0
   -5.3745    2.3944    1.7304 C   0  0  0  0  0  0  0  0  0  0  0  0
   -6.6623    2.3925    1.1980 C   0  0  0  0  0  0  0  0  0  0  0  0
   -7.0372    1.4092    0.2838 C   0  0  0  0  0  0  0  0  0  0  0  0
   -6.1239    0.4256   -0.1008 C   0  0  0  0  0  0  0  0  0  0  0  0
   -0.2155   -0.1509   -0.3545 C   0  0  0  0  0  0  0  0  0  0  0  0
    0.0497    1.1561   -0.3414 O   0  0  0  0  0  0  0  0  0  0  0  0
    2.7695    0.2017    0.1571 C   0  0  0  0  0  0  0  0  0  0  0  0
    4.1596    0.3786    0.1090 C   0  0  0  0  0  0  0  0  0  0  0  0
    8.0009   -0.2615    1.4737 H   0  0  0  0  0  0  0  0  0  0  0  0
    7.9914    1.5172    1.5049 H   0  0  0  0  0  0  0  0  0  0  0  0
    6.5246    0.5942    1.8940 H   0  0  0  0  0  0  0  0  0  0  0  0
    7.9366    0.6742   -0.8195 H   0  0  0  0  0  0  0  0  0  0  0  0
    6.4602    1.5524   -0.4943 H   0  0  0  0  0  0  0  0  0  0  0  0
    5.0123   -2.4951   -1.4708 H   0  0  0  0  0  0  0  0  0  0  0  0
    2.5869   -2.8074   -1.4375 H   0  0  0  0  0  0  0  0  0  0  0  0
    1.5352   -3.3759    0.4553 H   0  0  0  0  0  0  0  0  0  0  0  0
   -2.0147   -2.9199   -0.3883 H   0  0  0  0  0  0  0  0  0  0  0  0
   -3.6497    1.2815   -1.8811 H   0  0  0  0  0  0  0  0  0  0  0  0
   -1.9669    1.0199   -2.3127 H   0  0  0  0  0  0  0  0  0  0  0  0
   -3.1617   -0.2539   -2.6325 H   0  0  0  0  0  0  0  0  0  0  0  0
   -3.5776   -1.2069    0.9349 H   0  0  0  0  0  0  0  0  0  0  0  0
   -4.2878   -1.3671   -0.6718 H   0  0  0  0  0  0  0  0  0  0  0  0
   -3.4554    1.4202    1.7655 H   0  0  0  0  0  0  0  0  0  0  0  0
   -5.0812    3.1598    2.4439 H   0  0  0  0  0  0  0  0  0  0  0  0
   -7.3745    3.1572    1.4968 H   0  0  0  0  0  0  0  0  0  0  0  0
   -8.0427    1.4080   -0.1290 H   0  0  0  0  0  0  0  0  0  0  0  0
   -6.4342   -0.3345   -0.8140 H   0  0  0  0  0  0  0  0  0  0  0  0
   -0.8358    1.5713   -0.3193 H   0  0  0  0  0  0  0  0  0  0  0  0
    2.1754    0.9734    0.6397 H   0  0  0  0  0  0  0  0  0  0  0  0
    4.5655    1.2843    0.5462 H   0  0  0  0  0  0  0  0  0  0  0  0
  1  2  1  0
  2  3  1  0
  3  4  1  0
  4  5  2  0
  5  6  1  0
  6  7  2  0
  7  8  1  0
  8  9  1  0
  9 10  1  0
  9 11  2  0
 11 12  1  0
 12 13  1  0
 13 14  1  0
 13 15  1  0
 15 16  1  0
 16 17  2  0
 17 18  1  0
 18 19  2  0
 19 20  1  0
 20 21  2  0
 12 22  2  0
 22 23  1  0
  7 24  1  0
 24 25  2  0
 25  4  1  0
 22  8  1  0
 21 16  1  0
  1 26  1  0
  1 27  1  0
  1 28  1  0
  2 29  1  0
  2 30  1  0
  5 31  1  0
  6 32  1  0
 10 33  1  0
 11 34  1  0
 14 35  1  0
 14 36  1  0
 14 37  1  0
 15 38  1  0
 15 39  1  0
 17 40  1  0
 18 41  1  0
 19 42  1  0
 20 43  1  0
 21 44  1  0
 23 45  1  0
 24 46  1  0
 25 47  1  0
M  END
$$$$
