
     RDKit          3D

 50 52  0  0  0  0  0  0  0  0999 V2000
   -5.1506   -0.8380   -3.0747 C   0  0  0  0  0  0  0  0  0  0  0  0
   -5.1353   -0.0871   -1.8672 O   0  0  0  0  0  0  0  0  0  0  0  0
   -4.1025   -0.3255   -0.9981 C   0  0  0  0  0  0  0  0  0  0  0  0
   -2.9367   -1.0168   -1.3233 C   0  0  0  0  0  0  0  0  0  0  0  0
   -1.9379   -1.1867   -0.3574 C   0  0  0  0  0  0  0  0  0  0  0  0
   -0.7160   -1.9307   -0.7346 C   0  0  0  0  0  0  0  0  0  0  0  0
   -0.8562   -3.0492   -1.2220 O   0  0  0  0  0  0  0  0  0  0  0  0
    0.5234   -1.3406   -0.5222 N   0  0  0  0  0  0  0  0  0  0  0  0
    1.7223   -2.1314   -0.8168 C   0  0  0  0  0  0  0  0  0  0  0  0
    2.9745   -1.5667   -0.1267 C   0  0  0  0  0  0  0  0  0  0  0  0
    3.2221   -0.1725   -0.5396 N   0  0  0  0  0  0  0  0  0  0  0  0
    4.4105    0.4752   -0.1960 C   0  0  0  0  0  0  0  0  0  0  0  0
    5.1086    0.1036    0.9711 C   0  0  0  0  0  0  0  0  0  0  0  0
    6.2918    0.7401    1.3609 C   0  0  0  0  0  0  0  0  0  0  0  0
    7.0856    0.2517    2.8083 Cl  0  0  0  0  0  0  0  0  0  0  0  0
    6.8295    1.7651    0.5958 C   0  0  0  0  0  0  0  0  0  0  0  0
    6.1816    2.1469   -0.5745 C   0  0  0  0  0  0  0  0  0  0  0  0
    4.9941    1.5104   -0.9709 C   0  0  0  0  0  0  0  0  0  0  0  0
    4.3542    2.0117   -2.5041 Cl  0  0  0  0  0  0  0  0  0  0  0  0
    2.0345    0.6388   -0.8817 C   0  0  0  0  0  0  0  0  0  0  0  0
    0.7460    0.0859   -0.2368 C   0  0  0  0  0  0  0  0  0  0  0  0
   -2.1046   -0.7149    0.9507 C   0  0  0  0  0  0  0  0  0  0  0  0
   -3.2641   -0.0194    1.2900 C   0  0  0  0  0  0  0  0  0  0  0  0
   -3.5217    0.5061    2.5295 O   0  0  0  0  0  0  0  0  0  0  0  0
   -2.7254    0.0387    3.6104 C   0  0  0  0  0  0  0  0  0  0  0  0
   -4.2431    0.1953    0.3018 C   0  0  0  0  0  0  0  0  0  0  0  0
   -5.4070    0.8490    0.6443 O   0  0  0  0  0  0  0  0  0  0  0  0
   -5.2748    2.2441    0.3790 C   0  0  0  0  0  0  0  0  0  0  0  0
   -6.0985   -0.6348   -3.5823 H   0  0  0  0  0  0  0  0  0  0  0  0
   -4.3422   -0.5209   -3.7413 H   0  0  0  0  0  0  0  0  0  0  0  0
   -5.1021   -1.9142   -2.8775 H   0  0  0  0  0  0  0  0  0  0  0  0
   -2.7712   -1.4296   -2.3135 H   0  0  0  0  0  0  0  0  0  0  0  0
    1.8526   -2.1258   -1.9061 H   0  0  0  0  0  0  0  0  0  0  0  0
    1.5576   -3.1693   -0.5065 H   0  0  0  0  0  0  0  0  0  0  0  0
    2.8236   -1.6142    0.9587 H   0  0  0  0  0  0  0  0  0  0  0  0
    3.8357   -2.1934   -0.3863 H   0  0  0  0  0  0  0  0  0  0  0  0
    4.7225   -0.6796    1.6167 H   0  0  0  0  0  0  0  0  0  0  0  0
    7.7495    2.2595    0.8948 H   0  0  0  0  0  0  0  0  0  0  0  0
    6.6131    2.9335   -1.1893 H   0  0  0  0  0  0  0  0  0  0  0  0
    2.1507    1.6802   -0.5583 H   0  0  0  0  0  0  0  0  0  0  0  0
    1.9068    0.6265   -1.9705 H   0  0  0  0  0  0  0  0  0  0  0  0
    0.8159    0.1797    0.8534 H   0  0  0  0  0  0  0  0  0  0  0  0
   -0.1087    0.6785   -0.5767 H   0  0  0  0  0  0  0  0  0  0  0  0
   -1.3234   -0.9076    1.6774 H   0  0  0  0  0  0  0  0  0  0  0  0
   -3.1530    0.4347    4.5365 H   0  0  0  0  0  0  0  0  0  0  0  0
   -1.7004    0.4146    3.5300 H   0  0  0  0  0  0  0  0  0  0  0  0
   -2.7414   -1.0545    3.6761 H   0  0  0  0  0  0  0  0  0  0  0  0
   -4.4633    2.6873    0.9667 H   0  0  0  0  0  0  0  0  0  0  0  0
   -5.1173    2.4354   -0.6880 H   0  0  0  0  0  0  0  0  0  0  0  0
   -6.2092    2.7308    0.6741 H   0  0  0  0  0  0  0  0  0  0  0  0
  1  2  1  0
  2  3  1  0
  3  4  2  0
  4  5  1  0
  5  6  1  0
  6  7  2  0
  6  8  1  0
  8  9  1  0
  9 10  1  0
 10 11  1  0
 11 12  1  0
 12 13  2  0
 13 14  1  0
 14 15  1  0
 14 16  2  0
 16 17  1  0
 17 18  2  0
 18 19  1  0
 11 20  1  0
 20 21  1  0
  5 22  2  0
 22 23  1  0
 23 24  1  0
 24 25  1  0
 23 26  2  0
 26 27  1  0
 27 28  1  0
 26  3  1  0
 21  8  1  0
 18 12  1  0
  1 29  1  0
  1 30  1  0
  1 31  1  0
  4 32  1  0
  9 33  1  0
  9 34  1  0
 10 35  1  0
 10 36  1  0
 13 37  1  0
 16 38  1  0
 17 39  1  0
 20 40  1  0
 20 41  1  0
 21 42  1  0
 21 43  1  0
 22 44  1  0
 25 45  1  0
 25 46  1  0
 25 47  1  0
 28 48  1  0
 28 49  1  0
 28 50  1  0
M  END
$$$$
