
     RDKit          3D

 44 46  0  0  0  0  0  0  0  0999 V2000
    4.1683    1.8997   -2.7898 C   0  0  0  0  0  0  0  0  0  0  0  0
    3.0604    1.5914   -1.8876 N   0  0  0  0  0  0  0  0  0  0  0  0
    3.5566    0.9231   -0.6658 C   0  0  0  0  0  0  0  0  0  0  0  0
    2.4194    0.5558    0.3041 C   0  0  0  0  0  0  0  0  0  0  0  0
    1.3491   -0.2007   -0.3466 N   0  0  0  0  0  0  0  0  0  0  0  0
    0.5597   -1.0134    0.4657 C   0  0  0  0  0  0  0  0  0  0  0  0
    0.8212   -1.2722    1.6374 O   0  0  0  0  0  0  0  0  0  0  0  0
   -0.6436   -1.6337   -0.1263 C   0  0  0  0  0  0  0  0  0  0  0  0
   -0.4602   -2.7867   -0.9034 C   0  0  0  0  0  0  0  0  0  0  0  0
   -1.5600   -3.4056   -1.4928 C   0  0  0  0  0  0  0  0  0  0  0  0
   -2.8360   -2.8790   -1.3015 C   0  0  0  0  0  0  0  0  0  0  0  0
   -3.0172   -1.7361   -0.5156 C   0  0  0  0  0  0  0  0  0  0  0  0
   -1.9255   -1.0942    0.0956 C   0  0  0  0  0  0  0  0  0  0  0  0
   -2.1520    0.1106    0.9123 C   0  0  0  0  0  0  0  0  0  0  0  0
   -2.3473    1.3409    0.2522 C   0  0  0  0  0  0  0  0  0  0  0  0
   -2.5260    2.5285    0.9646 C   0  0  0  0  0  0  0  0  0  0  0  0
   -2.5167    2.5125    2.3548 C   0  0  0  0  0  0  0  0  0  0  0  0
   -2.3372    1.3073    3.0329 C   0  0  0  0  0  0  0  0  0  0  0  0
   -2.1593    0.1054    2.3240 C   0  0  0  0  0  0  0  0  0  0  0  0
   -2.0207   -1.1608    3.0909 C   0  0  0  0  0  0  0  0  0  0  0  0
   -2.3851   -2.2702    2.7509 O   0  0  0  0  0  0  0  0  0  0  0  0
   -1.4226   -0.9610    4.2814 O   0  0  0  0  0  0  0  0  0  0  0  0
    0.8968    0.3582   -1.6256 C   0  0  0  0  0  0  0  0  0  0  0  0
    2.0719    0.7206   -2.5534 C   0  0  0  0  0  0  0  0  0  0  0  0
    4.8842    2.5707   -2.3024 H   0  0  0  0  0  0  0  0  0  0  0  0
    3.8028    2.4226   -3.6805 H   0  0  0  0  0  0  0  0  0  0  0  0
    4.7043    1.0003   -3.1140 H   0  0  0  0  0  0  0  0  0  0  0  0
    4.2569    1.5839   -0.1410 H   0  0  0  0  0  0  0  0  0  0  0  0
    4.1039    0.0087   -0.9319 H   0  0  0  0  0  0  0  0  0  0  0  0
    1.9661    1.4650    0.7189 H   0  0  0  0  0  0  0  0  0  0  0  0
    2.8299   -0.0170    1.1430 H   0  0  0  0  0  0  0  0  0  0  0  0
    0.5358   -3.2005   -1.0387 H   0  0  0  0  0  0  0  0  0  0  0  0
   -1.4253   -4.3039   -2.0898 H   0  0  0  0  0  0  0  0  0  0  0  0
   -3.6979   -3.3676   -1.7498 H   0  0  0  0  0  0  0  0  0  0  0  0
   -4.0261   -1.3566   -0.3626 H   0  0  0  0  0  0  0  0  0  0  0  0
   -2.3500    1.3790   -0.8360 H   0  0  0  0  0  0  0  0  0  0  0  0
   -2.6669    3.4659    0.4321 H   0  0  0  0  0  0  0  0  0  0  0  0
   -2.6514    3.4353    2.9134 H   0  0  0  0  0  0  0  0  0  0  0  0
   -2.3419    1.3070    4.1209 H   0  0  0  0  0  0  0  0  0  0  0  0
   -1.2841   -1.8712    4.6160 H   0  0  0  0  0  0  0  0  0  0  0  0
    0.2357   -0.3401   -2.1450 H   0  0  0  0  0  0  0  0  0  0  0  0
    0.3102    1.2557   -1.3955 H   0  0  0  0  0  0  0  0  0  0  0  0
    2.5521   -0.2058   -2.8963 H   0  0  0  0  0  0  0  0  0  0  0  0
    1.6677    1.2281   -3.4374 H   0  0  0  0  0  0  0  0  0  0  0  0
  1  2  1  0
  2  3  1  0
  3  4  1  0
  4  5  1  0
  5  6  1  0
  6  7  2  0
  6  8  1  0
  8  9  2  0
  9 10  1  0
 10 11  2  0
 11 12  1  0
 12 13  2  0
 13 14  1  0
 14 15  2  0
 15 16  1  0
 16 17  2  0
 17 18  1  0
 18 19  2  0
 19 20  1  0
 20 21  2  0
 20 22  1  0
  5 23  1  0
 23 24  1  0
 24  2  1  0
 13  8  1  0
 19 14  1  0
  1 25  1  0
  1 26  1  0
  1 27  1  0
  3 28  1  0
  3 29  1  0
  4 30  1  0
  4 31  1  0
  9 32  1  0
 10 33  1  0
 11 34  1  0
 12 35  1  0
 15 36  1  0
 16 37  1  0
 17 38  1  0
 18 39  1  0
 22 40  1  0
 23 41  1  0
 23 42  1  0
 24 43  1  0
 24 44  1  0
M  END
$$$$
