
     RDKit          3D

 33 33  0  0  0  0  0  0  0  0999 V2000
    6.2415    0.4009    3.0551 C   0  0  0  0  0  0  0  0  0  0  0  0
    5.1685    1.1992    3.1326 C   0  0  0  0  0  0  0  0  0  0  0  0
    3.8305    0.8768    2.5537 C   0  0  0  0  0  0  0  0  0  0  0  0
    3.5902    1.7839    1.4534 N   0  0  0  0  0  0  0  0  0  0  0  0
    2.4261    1.9761    0.7752 C   0  0  0  0  0  0  0  0  0  0  0  0
    2.4200    3.0419   -0.5163 S   0  0  0  0  0  0  0  0  0  0  0  0
    1.3230    1.3018    1.2379 N   0  0  0  0  0  0  0  0  0  0  0  0
    0.1373    1.2814    0.4711 N   0  0  0  0  0  0  0  0  0  0  0  0
   -0.4704    0.0443    0.3020 C   0  0  0  0  0  0  0  0  0  0  0  0
   -0.1245   -0.9431    0.9480 O   0  0  0  0  0  0  0  0  0  0  0  0
   -1.5904    0.0661   -0.7378 C   0  0  0  0  0  0  0  0  0  0  0  0
   -2.1598   -1.2226   -0.9061 O   0  0  0  0  0  0  0  0  0  0  0  0
   -3.1780   -1.3669   -1.8107 C   0  0  0  0  0  0  0  0  0  0  0  0
   -3.7106   -0.3258   -2.5793 C   0  0  0  0  0  0  0  0  0  0  0  0
   -4.7536   -0.5735   -3.4790 C   0  0  0  0  0  0  0  0  0  0  0  0
   -5.2687   -1.8606   -3.6146 C   0  0  0  0  0  0  0  0  0  0  0  0
   -6.5506   -2.1535   -4.7232 Cl  0  0  0  0  0  0  0  0  0  0  0  0
   -4.7531   -2.9078   -2.8597 C   0  0  0  0  0  0  0  0  0  0  0  0
   -3.7119   -2.6598   -1.9618 C   0  0  0  0  0  0  0  0  0  0  0  0
   -3.1046   -3.9963   -1.0464 Cl  0  0  0  0  0  0  0  0  0  0  0  0
    7.1848    0.6926    3.5076 H   0  0  0  0  0  0  0  0  0  0  0  0
    6.2081   -0.5554    2.5414 H   0  0  0  0  0  0  0  0  0  0  0  0
    5.2528    2.1443    3.6655 H   0  0  0  0  0  0  0  0  0  0  0  0
    3.0489    1.0013    3.3099 H   0  0  0  0  0  0  0  0  0  0  0  0
    3.7781   -0.1466    2.1673 H   0  0  0  0  0  0  0  0  0  0  0  0
    4.3955    2.2451    1.0443 H   0  0  0  0  0  0  0  0  0  0  0  0
    1.4576    0.4498    1.7823 H   0  0  0  0  0  0  0  0  0  0  0  0
    0.0755    1.9991   -0.2494 H   0  0  0  0  0  0  0  0  0  0  0  0
   -1.1536    0.4105   -1.6829 H   0  0  0  0  0  0  0  0  0  0  0  0
   -2.3507    0.7717   -0.3819 H   0  0  0  0  0  0  0  0  0  0  0  0
   -3.3419    0.6922   -2.5068 H   0  0  0  0  0  0  0  0  0  0  0  0
   -5.1594    0.2439   -4.0709 H   0  0  0  0  0  0  0  0  0  0  0  0
   -5.1562   -3.9110   -2.9668 H   0  0  0  0  0  0  0  0  0  0  0  0
  1  2  2  0
  2  3  1  0
  3  4  1  0
  4  5  1  0
  5  6  2  0
  5  7  1  0
  7  8  1  0
  8  9  1  0
  9 10  2  0
  9 11  1  0
 11 12  1  0
 12 13  1  0
 13 14  2  0
 14 15  1  0
 15 16  2  0
 16 17  1  0
 16 18  1  0
 18 19  2  0
 19 20  1  0
 19 13  1  0
  1 21  1  0
  1 22  1  0
  2 23  1  0
  3 24  1  0
  3 25  1  0
  4 26  1  0
  7 27  1  0
  8 28  1  0
 11 29  1  0
 11 30  1  0
 14 31  1  0
 15 32  1  0
 18 33  1  0
M  END
$$$$
