
     RDKit          3D

 44 46  0  0  0  0  0  0  0  0999 V2000
    3.5755    3.9659   -3.0558 C   0  0  0  0  0  0  0  0  0  0  0  0
    2.5819    2.9181   -2.8337 N   0  0  0  0  0  0  0  0  0  0  0  0
    1.6065    3.3336   -1.8030 C   0  0  0  0  0  0  0  0  0  0  0  0
    0.5640    2.2370   -1.4877 C   0  0  0  0  0  0  0  0  0  0  0  0
    1.2228    0.9705   -1.0767 N   0  0  0  0  0  0  0  0  0  0  0  0
    0.5440    0.0087   -0.3136 C   0  0  0  0  0  0  0  0  0  0  0  0
   -0.7964   -0.0872   -0.2081 C   0  0  0  0  0  0  0  0  0  0  0  0
   -1.4406   -1.0804    0.6307 C   0  0  0  0  0  0  0  0  0  0  0  0
   -2.6123   -0.8093    1.2357 C   0  0  0  0  0  0  0  0  0  0  0  0
   -3.2669   -1.7150    2.1869 C   0  0  0  0  0  0  0  0  0  0  0  0
   -4.4512   -1.4249    2.7854 C   0  0  0  0  0  0  0  0  0  0  0  0
   -5.1594   -0.2129    2.5327 C   0  0  0  0  0  0  0  0  0  0  0  0
   -5.7273    0.7769    2.3198 N   0  0  0  0  0  0  0  0  0  0  0  0
   -5.0661   -2.3376    3.6931 C   0  0  0  0  0  0  0  0  0  0  0  0
   -5.5543   -3.0914    4.4284 N   0  0  0  0  0  0  0  0  0  0  0  0
   -2.5136   -3.0104    2.4766 C   0  0  0  0  0  0  0  0  0  0  0  0
   -1.0001   -2.9065    2.2572 C   0  0  0  0  0  0  0  0  0  0  0  0
   -0.7112   -2.3905    0.8439 C   0  0  0  0  0  0  0  0  0  0  0  0
    0.7973   -2.3478    0.5408 C   0  0  0  0  0  0  0  0  0  0  0  0
    1.3794   -0.9382    0.5337 C   0  0  0  0  0  0  0  0  0  0  0  0
    2.2165    0.5410   -2.0965 C   0  0  0  0  0  0  0  0  0  0  0  0
    3.2328    1.6651   -2.3951 C   0  0  0  0  0  0  0  0  0  0  0  0
    4.1456    4.1996   -2.1494 H   0  0  0  0  0  0  0  0  0  0  0  0
    4.2810    3.6648   -3.8381 H   0  0  0  0  0  0  0  0  0  0  0  0
    3.0915    4.8848   -3.4046 H   0  0  0  0  0  0  0  0  0  0  0  0
    2.1278    3.6022   -0.8740 H   0  0  0  0  0  0  0  0  0  0  0  0
    1.0701    4.2259   -2.1476 H   0  0  0  0  0  0  0  0  0  0  0  0
   -0.0689    2.0551   -2.3654 H   0  0  0  0  0  0  0  0  0  0  0  0
   -0.0774    2.6080   -0.6791 H   0  0  0  0  0  0  0  0  0  0  0  0
   -1.4411    0.6143   -0.7282 H   0  0  0  0  0  0  0  0  0  0  0  0
   -3.0758    0.1580    1.0432 H   0  0  0  0  0  0  0  0  0  0  0  0
   -2.9146   -3.7953    1.8215 H   0  0  0  0  0  0  0  0  0  0  0  0
   -2.6719   -3.3403    3.5097 H   0  0  0  0  0  0  0  0  0  0  0  0
   -0.5491   -3.8961    2.3993 H   0  0  0  0  0  0  0  0  0  0  0  0
   -0.5567   -2.2397    3.0087 H   0  0  0  0  0  0  0  0  0  0  0  0
   -1.1435   -3.1171    0.1392 H   0  0  0  0  0  0  0  0  0  0  0  0
    1.3607   -2.9797    1.2377 H   0  0  0  0  0  0  0  0  0  0  0  0
    0.9590   -2.7855   -0.4545 H   0  0  0  0  0  0  0  0  0  0  0  0
    1.4187   -0.5450    1.5583 H   0  0  0  0  0  0  0  0  0  0  0  0
    2.4181   -0.9907    0.1947 H   0  0  0  0  0  0  0  0  0  0  0  0
    1.6853    0.2636   -3.0163 H   0  0  0  0  0  0  0  0  0  0  0  0
    2.7718   -0.3442   -1.7718 H   0  0  0  0  0  0  0  0  0  0  0  0
    3.8376    1.8440   -1.4957 H   0  0  0  0  0  0  0  0  0  0  0  0
    3.9103    1.3131   -3.1823 H   0  0  0  0  0  0  0  0  0  0  0  0
  1  2  1  0
  2  3  1  0
  3  4  1  0
  4  5  1  0
  5  6  1  0
  6  7  2  0
  7  8  1  0
  8  9  2  0
  9 10  1  0
 10 11  2  3
 11 12  1  0
 12 13  3  0
 11 14  1  0
 14 15  3  0
 10 16  1  0
 16 17  1  0
 17 18  1  0
 18 19  1  0
 19 20  1  0
  5 21  1  0
 21 22  1  0
 22  2  1  0
 20  6  1  0
 18  8  1  0
  1 23  1  0
  1 24  1  0
  1 25  1  0
  3 26  1  0
  3 27  1  0
  4 28  1  0
  4 29  1  0
  7 30  1  0
  9 31  1  0
 16 32  1  0
 16 33  1  0
 17 34  1  0
 17 35  1  0
 18 36  1  0
 19 37  1  0
 19 38  1  0
 20 39  1  0
 20 40  1  0
 21 41  1  0
 21 42  1  0
 22 43  1  0
 22 44  1  0
M  END
$$$$
