
     RDKit          3D

 40 41  0  0  0  0  0  0  0  0999 V2000
    1.1929   -3.4620    1.6164 C   0  0  0  0  0  0  0  0  0  0  0  0
    1.1893   -2.0508    1.3955 O   0  0  0  0  0  0  0  0  0  0  0  0
    1.5584   -1.6911    0.1425 C   0  0  0  0  0  0  0  0  0  0  0  0
    1.8889   -2.4484   -0.7557 O   0  0  0  0  0  0  0  0  0  0  0  0
    1.5133   -0.2140    0.0116 C   0  0  0  0  0  0  0  0  0  0  0  0
    2.4761    0.4411   -0.6644 C   0  0  0  0  0  0  0  0  0  0  0  0
    3.7031   -0.1662   -1.2806 C   0  0  0  0  0  0  0  0  0  0  0  0
    2.3921    1.8362   -0.9017 O   0  0  0  0  0  0  0  0  0  0  0  0
    1.4202    2.5781   -0.3304 C   0  0  0  0  0  0  0  0  0  0  0  0
    1.2268    3.7754   -0.7725 N   0  0  0  0  0  0  0  0  0  0  0  0
    0.6457    2.0147    0.8199 C   0  0  0  0  0  0  0  0  0  0  0  0
    1.4189    2.2458    2.0507 C   0  0  0  0  0  0  0  0  0  0  0  0
    2.0203    2.3874    3.0334 N   0  0  0  0  0  0  0  0  0  0  0  0
    0.3564    0.5177    0.6397 C   0  0  0  0  0  0  0  0  0  0  0  0
   -0.9620    0.2729   -0.0680 C   0  0  0  0  0  0  0  0  0  0  0  0
   -1.2694    0.2412   -1.4637 C   0  0  0  0  0  0  0  0  0  0  0  0
   -0.3852    0.4295   -2.6431 C   0  0  0  0  0  0  0  0  0  0  0  0
   -2.5653   -0.0029   -1.6764 N   0  0  0  0  0  0  0  0  0  0  0  0
   -3.0935   -0.1453   -0.4557 N   0  0  0  0  0  0  0  0  0  0  0  0
   -4.5013   -0.4465   -0.3328 C   0  0  0  0  0  0  0  0  0  0  0  0
   -2.1848    0.0365    0.5530 C   0  0  0  0  0  0  0  0  0  0  0  0
   -2.5570   -0.0446    1.9910 C   0  0  0  0  0  0  0  0  0  0  0  0
    0.4850   -3.9570    0.9441 H   0  0  0  0  0  0  0  0  0  0  0  0
    0.8763   -3.6439    2.6471 H   0  0  0  0  0  0  0  0  0  0  0  0
    2.2011   -3.8676    1.4865 H   0  0  0  0  0  0  0  0  0  0  0  0
    3.5312   -0.3699   -2.3419 H   0  0  0  0  0  0  0  0  0  0  0  0
    4.0147   -1.0895   -0.7848 H   0  0  0  0  0  0  0  0  0  0  0  0
    4.5462    0.5289   -1.1998 H   0  0  0  0  0  0  0  0  0  0  0  0
    1.8909    3.9355   -1.5410 H   0  0  0  0  0  0  0  0  0  0  0  0
   -0.2960    2.5738    0.9020 H   0  0  0  0  0  0  0  0  0  0  0  0
    0.2310    0.1068    1.6520 H   0  0  0  0  0  0  0  0  0  0  0  0
    0.1313    1.3911   -2.5919 H   0  0  0  0  0  0  0  0  0  0  0  0
   -0.9576    0.4176   -3.5773 H   0  0  0  0  0  0  0  0  0  0  0  0
    0.3553   -0.3731   -2.7035 H   0  0  0  0  0  0  0  0  0  0  0  0
   -4.6301   -1.2324    0.4153 H   0  0  0  0  0  0  0  0  0  0  0  0
   -5.0192    0.4665   -0.0296 H   0  0  0  0  0  0  0  0  0  0  0  0
   -4.8846   -0.7948   -1.2957 H   0  0  0  0  0  0  0  0  0  0  0  0
   -1.8433    0.4999    2.6167 H   0  0  0  0  0  0  0  0  0  0  0  0
   -3.5436    0.3926    2.1742 H   0  0  0  0  0  0  0  0  0  0  0  0
   -2.5725   -1.0888    2.3188 H   0  0  0  0  0  0  0  0  0  0  0  0
  1  2  1  0
  2  3  1  0
  3  4  2  0
  3  5  1  0
  5  6  2  0
  6  7  1  0
  6  8  1  0
  8  9  1  0
  9 10  2  3
  9 11  1  0
 11 12  1  0
 12 13  3  0
 11 14  1  0
 14 15  1  0
 15 16  1  0
 16 17  1  0
 16 18  2  0
 18 19  1  0
 19 20  1  0
 19 21  1  0
 21 22  1  0
 14  5  1  0
 21 15  2  0
  1 23  1  0
  1 24  1  0
  1 25  1  0
  7 26  1  0
  7 27  1  0
  7 28  1  0
 10 29  1  0
 11 30  1  0
 14 31  1  0
 17 32  1  0
 17 33  1  0
 17 34  1  0
 20 35  1  0
 20 36  1  0
 20 37  1  0
 22 38  1  0
 22 39  1  0
 22 40  1  0
M  END
$$$$
