
     RDKit          3D

 44 47  0  0  0  0  0  0  0  0999 V2000
    3.1733   -1.4007   -0.0307 C   0  0  0  0  0  0  0  0  0  0  0  0
    3.1105    0.0961   -0.3769 C   0  0  0  0  0  0  0  0  0  0  0  0
    3.9455    0.3288   -1.6480 C   0  0  0  0  0  0  0  0  0  0  0  0
    1.6746    0.5879   -0.6321 C   0  0  0  0  0  0  0  0  0  0  0  0
    0.8524    0.6657    0.6692 C   0  0  0  0  0  0  0  0  0  0  0  0
   -0.4268    1.4972    0.4992 C   0  0  0  0  0  0  0  0  0  0  0  0
   -1.3803    0.8483   -0.5100 C   0  0  0  0  0  0  0  0  0  0  0  0
   -2.7227    1.5528   -0.4599 C   0  0  0  0  0  0  0  0  0  0  0  0
   -3.6961    1.5047    0.5224 C   0  0  0  0  0  0  0  0  0  0  0  0
   -4.8268    2.3122    0.2092 C   0  0  0  0  0  0  0  0  0  0  0  0
   -4.6812    2.9564   -0.9980 C   0  0  0  0  0  0  0  0  0  0  0  0
   -3.1900    2.5891   -1.7466 S   0  0  0  0  0  0  0  0  0  0  0  0
   -1.4632   -0.6456   -0.2635 C   0  0  0  0  0  0  0  0  0  0  0  0
   -2.4471   -1.4328   -0.8895 C   0  0  0  0  0  0  0  0  0  0  0  0
   -2.5187   -2.8083   -0.6536 C   0  0  0  0  0  0  0  0  0  0  0  0
   -3.7586   -3.7171   -1.4363 Cl  0  0  0  0  0  0  0  0  0  0  0  0
   -1.5984   -3.4155    0.2019 C   0  0  0  0  0  0  0  0  0  0  0  0
   -1.6681   -4.7600    0.4422 O   0  0  0  0  0  0  0  0  0  0  0  0
   -0.5998   -2.6542    0.8048 C   0  0  0  0  0  0  0  0  0  0  0  0
   -0.5222   -1.2812    0.5539 C   0  0  0  0  0  0  0  0  0  0  0  0
    0.5179   -0.6355    1.1633 O   0  0  0  0  0  0  0  0  0  0  0  0
    1.6457    1.2850    1.7206 N   0  0  0  0  0  0  0  0  0  0  0  0
    2.9937    1.2816    1.7968 C   0  0  0  0  0  0  0  0  0  0  0  0
    3.7738    1.8099    3.1629 S   0  0  0  0  0  0  0  0  0  0  0  0
    3.6904    0.8717    0.7122 N   0  0  0  0  0  0  0  0  0  0  0  0
    4.2133   -1.7470    0.0074 H   0  0  0  0  0  0  0  0  0  0  0  0
    2.7475   -1.6216    0.9523 H   0  0  0  0  0  0  0  0  0  0  0  0
    2.6488   -2.0044   -0.7791 H   0  0  0  0  0  0  0  0  0  0  0  0
    3.9676    1.3908   -1.9192 H   0  0  0  0  0  0  0  0  0  0  0  0
    4.9858    0.0142   -1.5037 H   0  0  0  0  0  0  0  0  0  0  0  0
    3.5383   -0.2293   -2.4983 H   0  0  0  0  0  0  0  0  0  0  0  0
    1.7223    1.5954   -1.0695 H   0  0  0  0  0  0  0  0  0  0  0  0
    1.1979   -0.0615   -1.3756 H   0  0  0  0  0  0  0  0  0  0  0  0
   -0.9263    1.5773    1.4768 H   0  0  0  0  0  0  0  0  0  0  0  0
   -0.1902    2.5256    0.1944 H   0  0  0  0  0  0  0  0  0  0  0  0
   -0.9515    0.9668   -1.5150 H   0  0  0  0  0  0  0  0  0  0  0  0
   -3.6052    0.9114    1.4252 H   0  0  0  0  0  0  0  0  0  0  0  0
   -5.7030    2.4150    0.8379 H   0  0  0  0  0  0  0  0  0  0  0  0
   -5.3800    3.6278   -1.4783 H   0  0  0  0  0  0  0  0  0  0  0  0
   -3.1718   -0.9727   -1.5594 H   0  0  0  0  0  0  0  0  0  0  0  0
   -0.9795   -5.0123    1.0786 H   0  0  0  0  0  0  0  0  0  0  0  0
    0.1351   -3.1120    1.4606 H   0  0  0  0  0  0  0  0  0  0  0  0
    1.1786    1.4737    2.5981 H   0  0  0  0  0  0  0  0  0  0  0  0
    4.6943    0.8257    0.8535 H   0  0  0  0  0  0  0  0  0  0  0  0
  1  2  1  0
  2  3  1  0
  2  4  1  0
  4  5  1  0
  5  6  1  0
  6  7  1  0
  7  8  1  0
  8  9  2  0
  9 10  1  0
 10 11  2  0
 11 12  1  0
  7 13  1  0
 13 14  2  0
 14 15  1  0
 15 16  1  0
 15 17  2  0
 17 18  1  0
 17 19  1  0
 19 20  2  0
 20 21  1  0
  5 22  1  0
 22 23  1  0
 23 24  2  0
 23 25  1  0
 25  2  1  0
 21  5  1  0
 12  8  1  0
 20 13  1  0
  1 26  1  0
  1 27  1  0
  1 28  1  0
  3 29  1  0
  3 30  1  0
  3 31  1  0
  4 32  1  0
  4 33  1  0
  6 34  1  0
  6 35  1  0
  7 36  1  0
  9 37  1  0
 10 38  1  0
 11 39  1  0
 14 40  1  0
 18 41  1  0
 19 42  1  0
 22 43  1  0
 25 44  1  0
M  END
$$$$
