
     RDKit          3D

 36 37  0  0  0  0  0  0  0  0999 V2000
    3.9174   -2.7935    1.6824 C   0  0  0  0  0  0  0  0  0  0  0  0
    4.1975   -1.4169    1.4610 O   0  0  0  0  0  0  0  0  0  0  0  0
    3.3594   -0.7425    0.6164 C   0  0  0  0  0  0  0  0  0  0  0  0
    3.6873    0.6045    0.4248 C   0  0  0  0  0  0  0  0  0  0  0  0
    2.9165    1.4161   -0.4100 C   0  0  0  0  0  0  0  0  0  0  0  0
    1.8009    0.8729   -1.0491 C   0  0  0  0  0  0  0  0  0  0  0  0
    0.8255    1.8869   -2.1357 S   0  0  0  0  0  6  0  0  0  0  0  0
    0.1574    1.0176   -3.0824 O   0  0  0  0  0  0  0  0  0  0  0  0
    1.6517    2.9924   -2.5752 O   0  0  0  0  0  0  0  0  0  0  0  0
   -0.3512    2.5495   -1.0780 N   0  0  0  0  0  0  0  0  0  0  0  0
   -0.9657    1.6635   -0.0572 N   0  0  0  0  0  0  0  0  0  0  0  0
   -2.1138    1.1350   -0.3733 C   0  0  0  0  0  0  0  0  0  0  0  0
   -2.8505    1.4395   -1.6623 C   0  0  0  0  0  0  0  0  0  0  0  0
   -2.7307    0.1623    0.5799 C   0  0  0  0  0  0  0  0  0  0  0  0
   -2.3400    0.1828    1.9203 C   0  0  0  0  0  0  0  0  0  0  0  0
   -2.9096   -0.7369    2.7816 C   0  0  0  0  0  0  0  0  0  0  0  0
   -3.8186   -1.6575    2.3977 N   0  0  0  0  0  0  0  0  0  0  0  0
   -4.1705   -1.6646    1.0951 C   0  0  0  0  0  0  0  0  0  0  0  0
   -3.6594   -0.7871    0.1541 C   0  0  0  0  0  0  0  0  0  0  0  0
    1.4733   -0.4756   -0.8808 C   0  0  0  0  0  0  0  0  0  0  0  0
    2.2507   -1.2803   -0.0416 C   0  0  0  0  0  0  0  0  0  0  0  0
    2.9381   -2.9260    2.1540 H   0  0  0  0  0  0  0  0  0  0  0  0
    3.9897   -3.3658    0.7516 H   0  0  0  0  0  0  0  0  0  0  0  0
    4.6737   -3.1818    2.3713 H   0  0  0  0  0  0  0  0  0  0  0  0
    4.5559    1.0219    0.9295 H   0  0  0  0  0  0  0  0  0  0  0  0
    3.1944    2.4572   -0.5537 H   0  0  0  0  0  0  0  0  0  0  0  0
   -0.0142    3.4530   -0.7328 H   0  0  0  0  0  0  0  0  0  0  0  0
   -2.5189    0.7493   -2.4423 H   0  0  0  0  0  0  0  0  0  0  0  0
   -3.9316    1.3422   -1.5305 H   0  0  0  0  0  0  0  0  0  0  0  0
   -2.6671    2.4673   -1.9864 H   0  0  0  0  0  0  0  0  0  0  0  0
   -1.6116    0.8954    2.2927 H   0  0  0  0  0  0  0  0  0  0  0  0
   -2.6416   -0.7598    3.8343 H   0  0  0  0  0  0  0  0  0  0  0  0
   -4.8958   -2.4247    0.8171 H   0  0  0  0  0  0  0  0  0  0  0  0
   -3.9767   -0.8725   -0.8783 H   0  0  0  0  0  0  0  0  0  0  0  0
    0.6133   -0.9031   -1.3914 H   0  0  0  0  0  0  0  0  0  0  0  0
    1.9649   -2.3206    0.0746 H   0  0  0  0  0  0  0  0  0  0  0  0
  1  2  1  0
  2  3  1  0
  3  4  2  0
  4  5  1  0
  5  6  2  0
  6  7  1  0
  7  8  2  0
  7  9  2  0
  7 10  1  0
 10 11  1  0
 11 12  2  3
 12 13  1  0
 12 14  1  0
 14 15  2  0
 15 16  1  0
 16 17  2  0
 17 18  1  0
 18 19  2  0
  6 20  1  0
 20 21  2  0
 21  3  1  0
 19 14  1  0
  1 22  1  0
  1 23  1  0
  1 24  1  0
  4 25  1  0
  5 26  1  0
 10 27  1  0
 13 28  1  0
 13 29  1  0
 13 30  1  0
 15 31  1  0
 16 32  1  0
 18 33  1  0
 19 34  1  0
 20 35  1  0
 21 36  1  0
M  END
$$$$
