
     RDKit          3D

 31 32  0  0  0  0  0  0  0  0999 V2000
    6.8969    0.9860   -4.4701 N   0  0  0  0  0  0  0  0  0  0  0  0
    5.7153    1.0210   -3.8243 C   0  0  0  0  0  0  0  0  0  0  0  0
    4.5864    1.4337   -4.3565 N   0  0  0  0  0  0  0  0  0  0  0  0
    3.5307    1.3724   -3.4676 N   0  0  0  0  0  0  0  0  0  0  0  0
    3.9059    0.9157   -2.2937 C   0  0  0  0  0  0  0  0  0  0  0  0
    2.7948    0.7171   -0.9601 S   0  0  0  0  0  0  0  0  0  0  0  0
    1.3210    1.5156   -1.6534 C   0  0  0  0  0  0  0  0  0  0  0  0
    0.2183    1.4993   -0.6172 C   0  0  0  0  0  0  0  0  0  0  0  0
    0.0957    2.3621    0.2533 O   0  0  0  0  0  0  0  0  0  0  0  0
   -0.6494    0.4275   -0.7269 N   0  0  0  0  0  0  0  0  0  0  0  0
   -1.5529    0.2291    0.3259 N   0  0  0  0  0  0  0  0  0  0  0  0
   -2.0444   -1.0429    0.5300 C   0  0  0  0  0  0  0  0  0  0  0  0
   -1.7788   -1.9797   -0.2197 O   0  0  0  0  0  0  0  0  0  0  0  0
   -2.9406   -1.2363    1.7025 C   0  0  0  0  0  0  0  0  0  0  0  0
   -3.8639   -2.2915    1.6607 C   0  0  0  0  0  0  0  0  0  0  0  0
   -4.7258   -2.5183    2.7372 C   0  0  0  0  0  0  0  0  0  0  0  0
   -4.6591   -1.6967    3.8607 C   0  0  0  0  0  0  0  0  0  0  0  0
   -5.7183   -1.9745    5.1871 Cl  0  0  0  0  0  0  0  0  0  0  0  0
   -3.7342   -0.6540    3.9196 C   0  0  0  0  0  0  0  0  0  0  0  0
   -2.8709   -0.4232    2.8429 C   0  0  0  0  0  0  0  0  0  0  0  0
    5.5705    0.5302   -2.1840 S   0  0  0  0  0  0  0  0  0  0  0  0
    7.7407    1.0151   -3.9096 H   0  0  0  0  0  0  0  0  0  0  0  0
    6.9496    1.5463   -5.3148 H   0  0  0  0  0  0  0  0  0  0  0  0
    1.5281    2.5579   -1.9171 H   0  0  0  0  0  0  0  0  0  0  0  0
    0.9896    0.9919   -2.5564 H   0  0  0  0  0  0  0  0  0  0  0  0
   -0.3842   -0.4199   -1.2315 H   0  0  0  0  0  0  0  0  0  0  0  0
   -1.7499    1.0387    0.9095 H   0  0  0  0  0  0  0  0  0  0  0  0
   -3.9168   -2.9386    0.7861 H   0  0  0  0  0  0  0  0  0  0  0  0
   -5.4417   -3.3357    2.6917 H   0  0  0  0  0  0  0  0  0  0  0  0
   -3.6740   -0.0235    4.8038 H   0  0  0  0  0  0  0  0  0  0  0  0
   -2.1386    0.3751    2.9295 H   0  0  0  0  0  0  0  0  0  0  0  0
  1  2  1  0
  2  3  2  0
  3  4  1  0
  4  5  2  0
  5  6  1  0
  6  7  1  0
  7  8  1  0
  8  9  2  0
  8 10  1  0
 10 11  1  0
 11 12  1  0
 12 13  2  0
 12 14  1  0
 14 15  2  0
 15 16  1  0
 16 17  2  0
 17 18  1  0
 17 19  1  0
 19 20  2  0
  5 21  1  0
 21  2  1  0
 20 14  1  0
  1 22  1  0
  1 23  1  0
  7 24  1  0
  7 25  1  0
 10 26  1  0
 11 27  1  0
 15 28  1  0
 16 29  1  0
 19 30  1  0
 20 31  1  0
M  END
$$$$
