
     RDKit          3D

 24 25  0  0  0  0  0  0  0  0999 V2000
    2.2049    1.3074   -2.8824 C   0  0  0  0  0  0  0  0  0  0  0  0
    1.9509    1.1137   -1.4766 N   0  0  0  0  0  0  0  0  0  0  0  0
    2.8403    1.5581   -0.5615 N   0  0  0  0  0  0  0  0  0  0  0  0
    2.2350    1.1851    0.5796 C   0  0  0  0  0  0  0  0  0  0  0  0
    2.8314    1.4556    1.8807 N   0  0  0  0  0  4  0  0  0  0  0  0
    3.9236    2.0451    1.9103 O   0  0  0  0  0  0  0  0  0  0  0  0
    2.2015    1.0749    2.8798 O   0  0  0  0  0  1  0  0  0  0  0  0
    1.0312    0.5398    0.4344 N   0  0  0  0  0  0  0  0  0  0  0  0
    0.8808    0.5106   -0.8702 C   0  0  0  0  0  0  0  0  0  0  0  0
   -0.4399   -0.1681   -1.7627 S   0  0  0  0  0  0  0  0  0  0  0  0
   -1.4394   -0.7625   -0.4121 C   0  0  0  0  0  0  0  0  0  0  0  0
   -1.2720   -2.0666    0.0688 C   0  0  0  0  0  0  0  0  0  0  0  0
   -2.0690   -2.5394    1.1152 C   0  0  0  0  0  0  0  0  0  0  0  0
   -3.0381   -1.7103    1.6765 C   0  0  0  0  0  0  0  0  0  0  0  0
   -4.0219   -2.2936    2.9615 Cl  0  0  0  0  0  0  0  0  0  0  0  0
   -3.2187   -0.4134    1.2000 C   0  0  0  0  0  0  0  0  0  0  0  0
   -2.4216    0.0593    0.1536 C   0  0  0  0  0  0  0  0  0  0  0  0
    2.2539    0.3290   -3.3665 H   0  0  0  0  0  0  0  0  0  0  0  0
    3.1576    1.8279   -3.0118 H   0  0  0  0  0  0  0  0  0  0  0  0
    1.3977    1.9118   -3.3031 H   0  0  0  0  0  0  0  0  0  0  0  0
   -0.5176   -2.7218   -0.3596 H   0  0  0  0  0  0  0  0  0  0  0  0
   -1.9268   -3.5505    1.4872 H   0  0  0  0  0  0  0  0  0  0  0  0
   -3.9735    0.2341    1.6381 H   0  0  0  0  0  0  0  0  0  0  0  0
   -2.5701    1.0737   -0.2082 H   0  0  0  0  0  0  0  0  0  0  0  0
  1  2  1  0
  2  3  1  0
  3  4  2  0
  4  5  1  0
  5  6  2  0
  5  7  1  0
  4  8  1  0
  8  9  2  0
  9 10  1  0
 10 11  1  0
 11 12  2  0
 12 13  1  0
 13 14  2  0
 14 15  1  0
 14 16  1  0
 16 17  2  0
  9  2  1  0
 17 11  1  0
  1 18  1  0
  1 19  1  0
  1 20  1  0
 12 21  1  0
 13 22  1  0
 16 23  1  0
 17 24  1  0
M  CHG  2   5   1   7  -1
M  END
$$$$
