
     RDKit          3D

 52 55  0  0  0  0  0  0  0  0999 V2000
    7.6283   -3.2942    1.2745 C   0  0  0  0  0  0  0  0  0  0  0  0
    7.5093   -1.7841    1.3572 C   0  0  0  0  0  0  0  0  0  0  0  0
    6.1314   -1.3925    1.2753 O   0  0  0  0  0  0  0  0  0  0  0  0
    5.6300   -1.2225    0.0172 C   0  0  0  0  0  0  0  0  0  0  0  0
    6.2861   -1.3860   -1.0049 O   0  0  0  0  0  0  0  0  0  0  0  0
    4.2365   -0.8028    0.0852 C   0  0  0  0  0  0  0  0  0  0  0  0
    3.5907   -0.0099   -1.2946 S   0  0  0  0  0  0  0  0  0  0  0  0
    2.0939    0.2566   -0.5434 C   0  0  0  0  0  0  0  0  0  0  0  0
    1.1056    0.9155   -1.1856 N   0  0  0  0  0  0  0  0  0  0  0  0
   -0.0074    1.0613   -0.5260 C   0  0  0  0  0  0  0  0  0  0  0  0
   -1.1815    1.7847   -1.1539 C   0  0  0  0  0  0  0  0  0  0  0  0
   -0.9929    2.4935   -2.7246 S   0  0  0  0  0  0  0  0  0  0  0  0
   -1.5597    1.1328   -3.7804 C   0  0  0  0  0  0  0  0  0  0  0  0
   -0.5082    0.0666   -3.9254 C   0  0  0  0  0  0  0  0  0  0  0  0
    0.3746    0.0257   -4.7664 O   0  0  0  0  0  0  0  0  0  0  0  0
   -0.6157   -0.9109   -2.9987 O   0  0  0  0  0  0  0  0  0  0  0  0
   -2.3290    1.9144   -0.4734 C   0  0  0  0  0  0  0  0  0  0  0  0
   -2.4769    1.3509    0.8448 C   0  0  0  0  0  0  0  0  0  0  0  0
   -3.7289    1.4755    1.6449 C   0  0  0  0  0  0  0  0  0  0  0  0
   -3.6926    1.7813    2.8358 O   0  0  0  0  0  0  0  0  0  0  0  0
   -5.0474    1.2702    0.9925 C   0  0  0  0  0  0  0  0  0  0  0  0
   -5.1979    0.4115   -0.1068 C   0  0  0  0  0  0  0  0  0  0  0  0
   -6.4508    0.2509   -0.7051 C   0  0  0  0  0  0  0  0  0  0  0  0
   -7.5585    0.9349   -0.2051 C   0  0  0  0  0  0  0  0  0  0  0  0
   -7.4222    1.7687    0.9040 C   0  0  0  0  0  0  0  0  0  0  0  0
   -6.1763    1.9236    1.5074 C   0  0  0  0  0  0  0  0  0  0  0  0
   -6.1322    2.7365    2.6085 O   0  0  0  0  0  0  0  0  0  0  0  0
   -1.4346    0.7431    1.4280 C   0  0  0  0  0  0  0  0  0  0  0  0
   -0.2103    0.5737    0.7807 N   0  0  0  0  0  0  0  0  0  0  0  0
    0.8120   -0.1063    1.4717 C   0  0  0  0  0  0  0  0  0  0  0  0
    0.6878   -0.5390    2.6162 O   0  0  0  0  0  0  0  0  0  0  0  0
    2.0489   -0.2722    0.7218 C   0  0  0  0  0  0  0  0  0  0  0  0
    3.2822   -0.9322    1.0952 C   0  0  0  0  0  0  0  0  0  0  0  0
    3.4920   -1.6451    2.3978 C   0  0  0  0  0  0  0  0  0  0  0  0
    8.6685   -3.6087    1.3969 H   0  0  0  0  0  0  0  0  0  0  0  0
    7.2618   -3.6653    0.3122 H   0  0  0  0  0  0  0  0  0  0  0  0
    7.0211   -3.7705    2.0513 H   0  0  0  0  0  0  0  0  0  0  0  0
    7.8816   -1.4391    2.3274 H   0  0  0  0  0  0  0  0  0  0  0  0
    8.1131   -1.2894    0.5879 H   0  0  0  0  0  0  0  0  0  0  0  0
   -1.7778    1.5247   -4.7793 H   0  0  0  0  0  0  0  0  0  0  0  0
   -2.4914    0.6948   -3.4069 H   0  0  0  0  0  0  0  0  0  0  0  0
    0.1906   -1.4491   -3.1607 H   0  0  0  0  0  0  0  0  0  0  0  0
   -3.1615    2.4766   -0.8886 H   0  0  0  0  0  0  0  0  0  0  0  0
   -4.3604   -0.1560   -0.5033 H   0  0  0  0  0  0  0  0  0  0  0  0
   -6.5673   -0.4147   -1.5577 H   0  0  0  0  0  0  0  0  0  0  0  0
   -8.5338    0.8089   -0.6698 H   0  0  0  0  0  0  0  0  0  0  0  0
   -8.2873    2.2897    1.3066 H   0  0  0  0  0  0  0  0  0  0  0  0
   -5.2695    2.5963    3.0590 H   0  0  0  0  0  0  0  0  0  0  0  0
   -1.5108    0.3436    2.4391 H   0  0  0  0  0  0  0  0  0  0  0  0
    4.1695   -2.4967    2.2823 H   0  0  0  0  0  0  0  0  0  0  0  0
    2.5594   -2.0607    2.7877 H   0  0  0  0  0  0  0  0  0  0  0  0
    3.9075   -0.9589    3.1421 H   0  0  0  0  0  0  0  0  0  0  0  0
  1  2  1  0
  2  3  1  0
  3  4  1  0
  4  5  2  0
  4  6  1  0
  6  7  1  0
  7  8  1  0
  8  9  1  0
  9 10  2  0
 10 11  1  0
 11 12  1  0
 12 13  1  0
 13 14  1  0
 14 15  2  0
 14 16  1  0
 11 17  2  0
 17 18  1  0
 18 19  1  0
 19 20  2  0
 19 21  1  0
 21 22  2  0
 22 23  1  0
 23 24  2  0
 24 25  1  0
 25 26  2  0
 26 27  1  0
 18 28  2  0
 28 29  1  0
 29 30  1  0
 30 31  2  0
 30 32  1  0
 32 33  1  0
 33 34  1  0
 33  6  2  0
 32  8  2  0
 29 10  1  0
 26 21  1  0
  1 35  1  0
  1 36  1  0
  1 37  1  0
  2 38  1  0
  2 39  1  0
 13 40  1  0
 13 41  1  0
 16 42  1  0
 17 43  1  0
 22 44  1  0
 23 45  1  0
 24 46  1  0
 25 47  1  0
 27 48  1  0
 28 49  1  0
 34 50  1  0
 34 51  1  0
 34 52  1  0
M  END
$$$$
