
     RDKit          3D

 47 50  0  0  0  0  0  0  0  0999 V2000
    0.2677    5.1720    0.1813 N   0  0  0  0  0  0  0  0  0  0  0  0
    0.9740    3.9767    0.1908 C   0  0  0  0  0  0  0  0  0  0  0  0
    2.3238    4.0323    0.2213 N   0  0  0  0  0  0  0  0  0  0  0  0
    3.0097    2.8717    0.2352 C   0  0  0  0  0  0  0  0  0  0  0  0
    2.5278    1.6111    0.2507 N   0  0  0  0  0  0  0  0  0  0  0  0
    1.1831    1.6085    0.2277 C   0  0  0  0  0  0  0  0  0  0  0  0
    0.3534    2.7167    0.1999 C   0  0  0  0  0  0  0  0  0  0  0  0
   -0.9681    2.3418    0.2160 N   0  0  0  0  0  0  0  0  0  0  0  0
   -0.9580    1.0255    0.1994 C   0  0  0  0  0  0  0  0  0  0  0  0
   -2.0466    0.2029    0.1822 N   0  0  0  0  0  0  0  0  0  0  0  0
   -2.3142   -0.4288   -1.1273 C   0  0  0  0  0  0  0  0  0  0  0  0
   -3.3530   -1.5359   -0.9655 C   0  0  0  0  0  0  0  0  0  0  0  0
   -4.6339   -1.0021   -0.3313 C   0  0  0  0  0  0  0  0  0  0  0  0
   -4.3276   -0.2706    0.9716 C   0  0  0  0  0  0  0  0  0  0  0  0
   -3.2633    0.8053    0.7649 C   0  0  0  0  0  0  0  0  0  0  0  0
    0.3345    0.5315    0.2517 N   0  0  0  0  0  0  0  0  0  0  0  0
    0.7103   -0.8617    0.3805 C   0  0  0  0  0  0  0  0  0  0  0  0
    1.1777   -1.3282   -0.9123 O   0  0  0  0  0  0  0  0  0  0  0  0
    2.3599   -2.1183   -0.6715 C   0  0  0  0  0  0  0  0  0  0  0  0
    3.2523   -2.0720   -1.9069 C   0  0  0  0  0  0  0  0  0  0  0  0
    2.5461   -2.5986   -3.0296 O   0  0  0  0  0  0  0  0  0  0  0  0
    3.0145   -1.5166    0.5616 C   0  0  0  0  0  0  0  0  0  0  0  0
    3.8792   -2.4315    1.2300 O   0  0  0  0  0  0  0  0  0  0  0  0
    1.8034   -1.1758    1.4188 C   0  0  0  0  0  0  0  0  0  0  0  0
    1.4350   -2.3311    2.2010 O   0  0  0  0  0  0  0  0  0  0  0  0
    0.8105    5.9419    0.5469 H   0  0  0  0  0  0  0  0  0  0  0  0
   -0.6915    5.0763    0.4948 H   0  0  0  0  0  0  0  0  0  0  0  0
    4.0918    2.9671    0.2398 H   0  0  0  0  0  0  0  0  0  0  0  0
   -1.4049   -0.8706   -1.5478 H   0  0  0  0  0  0  0  0  0  0  0  0
   -2.6694    0.3220   -1.8441 H   0  0  0  0  0  0  0  0  0  0  0  0
   -2.9415   -2.3348   -0.3367 H   0  0  0  0  0  0  0  0  0  0  0  0
   -3.5798   -1.9777   -1.9425 H   0  0  0  0  0  0  0  0  0  0  0  0
   -5.1290   -0.3152   -1.0286 H   0  0  0  0  0  0  0  0  0  0  0  0
   -5.3302   -1.8259   -0.1430 H   0  0  0  0  0  0  0  0  0  0  0  0
   -5.2431    0.1846    1.3635 H   0  0  0  0  0  0  0  0  0  0  0  0
   -3.9792   -0.9920    1.7194 H   0  0  0  0  0  0  0  0  0  0  0  0
   -3.0345    1.2559    1.7389 H   0  0  0  0  0  0  0  0  0  0  0  0
   -3.6513    1.5976    0.1114 H   0  0  0  0  0  0  0  0  0  0  0  0
   -0.1883   -1.4394    0.6215 H   0  0  0  0  0  0  0  0  0  0  0  0
    2.0367   -3.1525   -0.4966 H   0  0  0  0  0  0  0  0  0  0  0  0
    3.5322   -1.0435   -2.1558 H   0  0  0  0  0  0  0  0  0  0  0  0
    4.1613   -2.6620   -1.7632 H   0  0  0  0  0  0  0  0  0  0  0  0
    1.6800   -2.1487   -3.0303 H   0  0  0  0  0  0  0  0  0  0  0  0
    3.5843   -0.6231    0.2929 H   0  0  0  0  0  0  0  0  0  0  0  0
    4.4300   -1.9103    1.8424 H   0  0  0  0  0  0  0  0  0  0  0  0
    1.9985   -0.3735    2.1354 H   0  0  0  0  0  0  0  0  0  0  0  0
    2.2296   -2.9009    2.2415 H   0  0  0  0  0  0  0  0  0  0  0  0
  1  2  1  0
  2  3  2  0
  3  4  1  0
  4  5  2  0
  5  6  1  0
  6  7  2  0
  7  8  1  0
  8  9  2  0
  9 10  1  0
 10 11  1  0
 11 12  1  0
 12 13  1  0
 13 14  1  0
 14 15  1  0
  9 16  1  0
 16 17  1  0
 17 18  1  0
 18 19  1  0
 19 20  1  0
 20 21  1  0
 19 22  1  0
 22 23  1  0
 22 24  1  0
 24 25  1  0
  7  2  1  0
 15 10  1  0
 24 17  1  0
 16  6  1  0
  1 26  1  0
  1 27  1  0
  4 28  1  0
 11 29  1  0
 11 30  1  0
 12 31  1  0
 12 32  1  0
 13 33  1  0
 13 34  1  0
 14 35  1  0
 14 36  1  0
 15 37  1  0
 15 38  1  0
 17 39  1  0
 19 40  1  0
 20 41  1  0
 20 42  1  0
 21 43  1  0
 22 44  1  0
 23 45  1  0
 24 46  1  0
 25 47  1  0
M  END
$$$$
