
     RDKit          3D

 50 53  0  0  0  0  0  0  0  0999 V2000
    7.6159    1.9519    0.4994 C   0  0  0  0  0  0  0  0  0  0  0  0
    6.6885    1.1179    1.1834 O   0  0  0  0  0  0  0  0  0  0  0  0
    5.4201    1.0624    0.6770 C   0  0  0  0  0  0  0  0  0  0  0  0
    4.5554    0.2036    1.3567 C   0  0  0  0  0  0  0  0  0  0  0  0
    3.2237    0.0442    0.9499 C   0  0  0  0  0  0  0  0  0  0  0  0
    2.7375    0.7441   -0.1567 C   0  0  0  0  0  0  0  0  0  0  0  0
    1.3898    0.6268   -0.6201 N   0  0  0  0  0  0  0  0  0  0  0  0
    0.9300    1.5278   -1.5393 N   0  0  0  0  0  0  0  0  0  0  0  0
   -0.3535    1.2317   -1.7211 C   0  0  0  0  0  0  0  0  0  0  0  0
   -0.7604    0.1350   -0.9546 C   0  0  0  0  0  0  0  0  0  0  0  0
    0.3854   -0.2782   -0.2975 C   0  0  0  0  0  0  0  0  0  0  0  0
    0.4723   -1.5073    0.5467 C   0  0  0  0  0  0  0  0  0  0  0  0
   -0.7400   -2.4589    0.2925 C   0  0  0  0  0  0  0  0  0  0  0  0
   -0.8358   -3.4589    1.4606 C   0  0  0  0  0  0  0  0  0  0  0  0
   -0.5293   -3.2644   -1.0060 C   0  0  0  0  0  0  0  0  0  0  0  0
   -2.0643   -1.6428    0.2217 C   0  0  0  0  0  0  0  0  0  0  0  0
   -2.0758   -0.5616   -0.8855 C   0  0  0  0  0  0  0  0  0  0  0  0
   -3.0956    0.4314   -0.6226 N   0  0  0  0  0  0  0  0  0  0  0  0
   -4.4196    0.1864   -0.9041 C   0  0  0  0  0  0  0  0  0  0  0  0
   -4.8023   -0.8349   -1.4643 O   0  0  0  0  0  0  0  0  0  0  0  0
   -5.3454    1.2202   -0.4756 C   0  0  0  0  0  0  0  0  0  0  0  0
   -6.7561    1.1817   -0.5810 C   0  0  0  0  0  0  0  0  0  0  0  0
   -7.3443    2.2802   -0.1006 N   0  0  0  0  0  0  0  0  0  0  0  0
   -6.3151    3.0379    0.3030 N   0  0  0  0  0  0  0  0  0  0  0  0
   -5.0970    2.4505    0.1055 C   0  0  0  0  0  0  0  0  0  0  0  0
    3.6086    1.6219   -0.8266 C   0  0  0  0  0  0  0  0  0  0  0  0
    4.9395    1.7760   -0.4167 C   0  0  0  0  0  0  0  0  0  0  0  0
    7.3050    3.0014    0.5372 H   0  0  0  0  0  0  0  0  0  0  0  0
    7.7595    1.6183   -0.5338 H   0  0  0  0  0  0  0  0  0  0  0  0
    8.5793    1.8719    1.0122 H   0  0  0  0  0  0  0  0  0  0  0  0
    4.9208   -0.3452    2.2224 H   0  0  0  0  0  0  0  0  0  0  0  0
    2.6063   -0.6077    1.5523 H   0  0  0  0  0  0  0  0  0  0  0  0
   -0.9362    1.8255   -2.4147 H   0  0  0  0  0  0  0  0  0  0  0  0
    0.4691   -1.1977    1.5995 H   0  0  0  0  0  0  0  0  0  0  0  0
    1.4022   -2.0527    0.3505 H   0  0  0  0  0  0  0  0  0  0  0  0
   -1.6620   -4.1632    1.3114 H   0  0  0  0  0  0  0  0  0  0  0  0
    0.0873   -4.0411    1.5591 H   0  0  0  0  0  0  0  0  0  0  0  0
   -1.0068   -2.9431    2.4122 H   0  0  0  0  0  0  0  0  0  0  0  0
   -1.3862   -3.9187   -1.2037 H   0  0  0  0  0  0  0  0  0  0  0  0
    0.3614   -3.8989   -0.9333 H   0  0  0  0  0  0  0  0  0  0  0  0
   -0.3968   -2.6202   -1.8806 H   0  0  0  0  0  0  0  0  0  0  0  0
   -2.2257   -1.1603    1.1973 H   0  0  0  0  0  0  0  0  0  0  0  0
   -2.9200   -2.3160    0.0792 H   0  0  0  0  0  0  0  0  0  0  0  0
   -2.2843   -1.0341   -1.8533 H   0  0  0  0  0  0  0  0  0  0  0  0
   -2.8615    1.1995   -0.0112 H   0  0  0  0  0  0  0  0  0  0  0  0
   -7.3701    0.3882   -0.9909 H   0  0  0  0  0  0  0  0  0  0  0  0
   -6.5183    3.9475    0.7054 H   0  0  0  0  0  0  0  0  0  0  0  0
   -4.1894    2.9641    0.3863 H   0  0  0  0  0  0  0  0  0  0  0  0
    3.2679    2.1950   -1.6884 H   0  0  0  0  0  0  0  0  0  0  0  0
    5.5661    2.4627   -0.9761 H   0  0  0  0  0  0  0  0  0  0  0  0
  1  2  1  0
  2  3  1  0
  3  4  2  0
  4  5  1  0
  5  6  2  0
  6  7  1  0
  7  8  1  0
  8  9  2  0
  9 10  1  0
 10 11  2  0
 11 12  1  0
 12 13  1  0
 13 14  1  0
 13 15  1  0
 13 16  1  0
 16 17  1  0
 17 18  1  0
 18 19  1  0
 19 20  2  0
 19 21  1  0
 21 22  1  0
 22 23  2  0
 23 24  1  0
 24 25  1  0
  6 26  1  0
 26 27  2  0
 27  3  1  0
 11  7  1  0
 25 21  2  0
 17 10  1  0
  1 28  1  0
  1 29  1  0
  1 30  1  0
  4 31  1  0
  5 32  1  0
  9 33  1  0
 12 34  1  0
 12 35  1  0
 14 36  1  0
 14 37  1  0
 14 38  1  0
 15 39  1  0
 15 40  1  0
 15 41  1  0
 16 42  1  0
 16 43  1  0
 17 44  1  0
 18 45  1  0
 22 46  1  0
 24 47  1  0
 25 48  1  0
 26 49  1  0
 27 50  1  0
M  END
$$$$
