
     RDKit          3D

 52 54  0  0  0  0  0  0  0  0999 V2000
    3.0707   -1.1352   -1.4640 O   0  0  0  0  0  0  0  0  0  0  0  0
    3.6396   -0.1427   -1.9140 C   0  0  0  0  0  0  0  0  0  0  0  0
    5.1356   -0.0718   -2.1553 C   0  0  0  0  0  0  0  0  0  0  0  0
    5.9276   -0.9346   -1.1752 C   0  0  0  0  0  0  0  0  0  0  0  0
    6.0109   -0.3019    0.1937 C   0  0  0  0  0  0  0  0  0  0  0  0
    5.0924   -0.6467    1.1939 C   0  0  0  0  0  0  0  0  0  0  0  0
    5.1539   -0.0417    2.4499 C   0  0  0  0  0  0  0  0  0  0  0  0
    6.1323    0.9134    2.7178 C   0  0  0  0  0  0  0  0  0  0  0  0
    7.0504    1.2646    1.7301 C   0  0  0  0  0  0  0  0  0  0  0  0
    6.9901    0.6614    0.4729 C   0  0  0  0  0  0  0  0  0  0  0  0
    2.9639    1.0009   -2.3218 N   0  0  0  0  0  0  0  0  0  0  0  0
    1.6066    1.2930   -2.2566 C   0  0  0  0  0  0  0  0  0  0  0  0
    1.1797    2.8149   -2.7924 S   0  0  0  0  0  0  0  0  0  0  0  0
    0.8294    0.2760   -1.7545 N   0  0  0  0  0  0  0  0  0  0  0  0
   -0.5550    0.1158   -1.5294 C   0  0  0  0  0  0  0  0  0  0  0  0
   -1.5493    1.0424   -1.8476 C   0  0  0  0  0  0  0  0  0  0  0  0
   -2.8974    0.7719   -1.5754 C   0  0  0  0  0  0  0  0  0  0  0  0
   -3.2541   -0.4351   -0.9758 C   0  0  0  0  0  0  0  0  0  0  0  0
   -4.9545   -0.7934   -0.6173 S   0  0  0  0  0  6  0  0  0  0  0  0
   -5.7546    0.3507   -0.9974 O   0  0  0  0  0  0  0  0  0  0  0  0
   -5.2329   -2.1102   -1.1485 O   0  0  0  0  0  0  0  0  0  0  0  0
   -4.9601   -0.8925    1.0820 N   0  0  0  0  0  0  0  0  0  0  0  0
   -4.6633    0.3652    1.8387 C   0  0  0  0  0  0  0  0  0  0  0  0
   -5.9125    1.2368    2.0237 C   0  0  0  0  0  0  0  0  0  0  0  0
   -6.9841    0.4984    2.6270 O   0  0  0  0  0  0  0  0  0  0  0  0
   -7.3364   -0.6298    1.8127 C   0  0  0  0  0  0  0  0  0  0  0  0
   -6.1488   -1.5848    1.6717 C   0  0  0  0  0  0  0  0  0  0  0  0
   -2.2807   -1.3809   -0.6608 C   0  0  0  0  0  0  0  0  0  0  0  0
   -0.9402   -1.1006   -0.9379 C   0  0  0  0  0  0  0  0  0  0  0  0
    5.3034   -0.4384   -3.1752 H   0  0  0  0  0  0  0  0  0  0  0  0
    5.4763    0.9695   -2.1182 H   0  0  0  0  0  0  0  0  0  0  0  0
    5.5022   -1.9425   -1.0958 H   0  0  0  0  0  0  0  0  0  0  0  0
    6.9472   -1.0710   -1.5578 H   0  0  0  0  0  0  0  0  0  0  0  0
    4.3205   -1.3896    1.0003 H   0  0  0  0  0  0  0  0  0  0  0  0
    4.4375   -0.3172    3.2196 H   0  0  0  0  0  0  0  0  0  0  0  0
    6.1802    1.3824    3.6970 H   0  0  0  0  0  0  0  0  0  0  0  0
    7.8152    2.0078    1.9404 H   0  0  0  0  0  0  0  0  0  0  0  0
    7.7156    0.9461   -0.2856 H   0  0  0  0  0  0  0  0  0  0  0  0
    3.5145    1.7703   -2.6809 H   0  0  0  0  0  0  0  0  0  0  0  0
    1.3851   -0.5371   -1.4812 H   0  0  0  0  0  0  0  0  0  0  0  0
   -1.3309    1.9903   -2.3209 H   0  0  0  0  0  0  0  0  0  0  0  0
   -3.6528    1.5086   -1.8407 H   0  0  0  0  0  0  0  0  0  0  0  0
   -4.2849    0.0597    2.8224 H   0  0  0  0  0  0  0  0  0  0  0  0
   -3.8631    0.9360    1.3597 H   0  0  0  0  0  0  0  0  0  0  0  0
   -5.6765    2.0728    2.6900 H   0  0  0  0  0  0  0  0  0  0  0  0
   -6.2622    1.6666    1.0802 H   0  0  0  0  0  0  0  0  0  0  0  0
   -8.1659   -1.1445    2.3078 H   0  0  0  0  0  0  0  0  0  0  0  0
   -7.6980   -0.2774    0.8405 H   0  0  0  0  0  0  0  0  0  0  0  0
   -5.8490   -1.9496    2.6621 H   0  0  0  0  0  0  0  0  0  0  0  0
   -6.4232   -2.4650    1.0828 H   0  0  0  0  0  0  0  0  0  0  0  0
   -2.5566   -2.3294   -0.2052 H   0  0  0  0  0  0  0  0  0  0  0  0
   -0.1939   -1.8518   -0.6841 H   0  0  0  0  0  0  0  0  0  0  0  0
  1  2  2  0
  2  3  1  0
  3  4  1  0
  4  5  1  0
  5  6  2  0
  6  7  1  0
  7  8  2  0
  8  9  1  0
  9 10  2  0
  2 11  1  0
 11 12  1  0
 12 13  2  0
 12 14  1  0
 14 15  1  0
 15 16  2  0
 16 17  1  0
 17 18  2  0
 18 19  1  0
 19 20  2  0
 19 21  2  0
 19 22  1  0
 22 23  1  0
 23 24  1  0
 24 25  1  0
 25 26  1  0
 26 27  1  0
 18 28  1  0
 28 29  2  0
 10  5  1  0
 29 15  1  0
 27 22  1  0
  3 30  1  0
  3 31  1  0
  4 32  1  0
  4 33  1  0
  6 34  1  0
  7 35  1  0
  8 36  1  0
  9 37  1  0
 10 38  1  0
 11 39  1  0
 14 40  1  0
 16 41  1  0
 17 42  1  0
 23 43  1  0
 23 44  1  0
 24 45  1  0
 24 46  1  0
 26 47  1  0
 26 48  1  0
 27 49  1  0
 27 50  1  0
 28 51  1  0
 29 52  1  0
M  END
$$$$
