
     RDKit          3D

 47 49  0  0  0  0  0  0  0  0999 V2000
    2.2219   -2.3930   -1.2887 O   0  0  0  0  0  0  0  0  0  0  0  0
    2.0471   -1.4632   -0.5106 C   0  0  0  0  0  0  0  0  0  0  0  0
    0.7092   -0.7915   -0.3016 C   0  0  0  0  0  0  0  0  0  0  0  0
   -0.3735   -1.4584   -1.1460 C   0  0  0  0  0  0  0  0  0  0  0  0
   -1.6720   -0.7970   -0.9844 N   0  0  0  0  0  0  0  0  0  0  0  0
   -2.4740   -1.1661    0.0819 C   0  0  0  0  0  0  0  0  0  0  0  0
   -2.1918   -1.9913    0.9400 O   0  0  0  0  0  0  0  0  0  0  0  0
   -3.7394   -0.3866    0.0713 C   0  0  0  0  0  0  0  0  0  0  0  0
   -4.6892   -0.5756    0.9973 C   0  0  0  0  0  0  0  0  0  0  0  0
   -5.9619    0.1469    1.0896 C   0  0  0  0  0  0  0  0  0  0  0  0
   -6.9437    0.0216    0.0967 C   0  0  0  0  0  0  0  0  0  0  0  0
   -8.1542    0.7073    0.2154 C   0  0  0  0  0  0  0  0  0  0  0  0
   -8.3822    1.5085    1.3278 C   0  0  0  0  0  0  0  0  0  0  0  0
   -9.5441    2.1648    1.4413 F   0  0  0  0  0  0  0  0  0  0  0  0
   -7.4240    1.6354    2.3264 C   0  0  0  0  0  0  0  0  0  0  0  0
   -6.2126    0.9508    2.2099 C   0  0  0  0  0  0  0  0  0  0  0  0
   -3.7297    0.7357   -1.2273 S   0  0  0  0  0  0  0  0  0  0  0  0
   -2.1373    0.2304   -1.7790 C   0  0  0  0  0  0  0  0  0  0  0  0
   -1.3765    0.9557   -3.0740 S   0  0  0  0  0  0  0  0  0  0  0  0
    3.0563   -0.9023    0.2445 N   0  0  0  0  0  0  0  0  0  0  0  0
    4.3858   -1.4794    0.2900 C   0  0  0  0  0  0  0  0  0  0  0  0
    5.1826   -1.3183   -1.0064 C   0  0  0  0  0  0  0  0  0  0  0  0
    5.2868    0.1205   -1.5118 C   0  0  0  0  0  0  0  0  0  0  0  0
    5.8667    1.0352   -0.5521 N   0  0  0  0  0  0  0  0  0  0  0  0
    7.1723    1.0728   -0.1518 C   0  0  0  0  0  0  0  0  0  0  0  0
    7.2264    2.0840    0.7794 C   0  0  0  0  0  0  0  0  0  0  0  0
    5.9932    2.6611    0.9435 N   0  0  0  0  0  0  0  0  0  0  0  0
    5.1996    2.0227    0.1139 C   0  0  0  0  0  0  0  0  0  0  0  0
    0.8067    0.2670   -0.5679 H   0  0  0  0  0  0  0  0  0  0  0  0
    0.4501   -0.8479    0.7620 H   0  0  0  0  0  0  0  0  0  0  0  0
   -0.4792   -2.5090   -0.8472 H   0  0  0  0  0  0  0  0  0  0  0  0
   -0.0910   -1.4622   -2.2040 H   0  0  0  0  0  0  0  0  0  0  0  0
   -4.5323   -1.3121    1.7847 H   0  0  0  0  0  0  0  0  0  0  0  0
   -6.7765   -0.6097   -0.7730 H   0  0  0  0  0  0  0  0  0  0  0  0
   -8.9187    0.6201   -0.5500 H   0  0  0  0  0  0  0  0  0  0  0  0
   -7.6258    2.2644    3.1875 H   0  0  0  0  0  0  0  0  0  0  0  0
   -5.4674    1.0541    2.9955 H   0  0  0  0  0  0  0  0  0  0  0  0
    2.7938   -0.2905    1.0094 H   0  0  0  0  0  0  0  0  0  0  0  0
    4.2846   -2.5450    0.5260 H   0  0  0  0  0  0  0  0  0  0  0  0
    4.9126   -1.0082    1.1264 H   0  0  0  0  0  0  0  0  0  0  0  0
    4.7311   -1.9262   -1.7989 H   0  0  0  0  0  0  0  0  0  0  0  0
    6.1883   -1.7253   -0.8432 H   0  0  0  0  0  0  0  0  0  0  0  0
    5.9183    0.1572   -2.4073 H   0  0  0  0  0  0  0  0  0  0  0  0
    4.3018    0.5068   -1.7976 H   0  0  0  0  0  0  0  0  0  0  0  0
    7.9272    0.4040   -0.5407 H   0  0  0  0  0  0  0  0  0  0  0  0
    8.0869    2.4279    1.3387 H   0  0  0  0  0  0  0  0  0  0  0  0
    4.1480    2.2297   -0.0354 H   0  0  0  0  0  0  0  0  0  0  0  0
  1  2  2  0
  2  3  1  0
  3  4  1  0
  4  5  1  0
  5  6  1  0
  6  7  2  0
  6  8  1  0
  8  9  2  3
  9 10  1  0
 10 11  2  0
 11 12  1  0
 12 13  2  0
 13 14  1  0
 13 15  1  0
 15 16  2  0
  8 17  1  0
 17 18  1  0
 18 19  2  0
  2 20  1  0
 20 21  1  0
 21 22  1  0
 22 23  1  0
 23 24  1  0
 24 25  1  0
 25 26  2  0
 26 27  1  0
 27 28  2  0
 18  5  1  0
 28 24  1  0
 16 10  1  0
  3 29  1  0
  3 30  1  0
  4 31  1  0
  4 32  1  0
  9 33  1  0
 11 34  1  0
 12 35  1  0
 15 36  1  0
 16 37  1  0
 20 38  1  0
 21 39  1  0
 21 40  1  0
 22 41  1  0
 22 42  1  0
 23 43  1  0
 23 44  1  0
 25 45  1  0
 26 46  1  0
 28 47  1  0
M  END
$$$$
