
     RDKit          3D

 43 45  0  0  0  0  0  0  0  0999 V2000
   -6.2310   -1.1487   -0.6621 C   0  0  0  0  0  0  0  0  0  0  0  0
   -4.9554   -0.9838    0.0323 N   0  0  0  0  0  0  0  0  0  0  0  0
   -3.9459   -1.9253   -0.5044 C   0  0  0  0  0  0  0  0  0  0  0  0
   -2.5655   -1.7509    0.1731 C   0  0  0  0  0  0  0  0  0  0  0  0
   -2.0959   -0.3555    0.0068 N   0  0  0  0  0  0  0  0  0  0  0  0
   -0.7887   -0.0940    0.4445 C   0  0  0  0  0  0  0  0  0  0  0  0
   -0.3312   -0.4889    1.7104 C   0  0  0  0  0  0  0  0  0  0  0  0
    0.9820   -0.2250    2.1242 C   0  0  0  0  0  0  0  0  0  0  0  0
    1.8790    0.4351    1.2758 C   0  0  0  0  0  0  0  0  0  0  0  0
    3.2549    0.6978    1.7670 C   0  0  0  0  0  0  0  0  0  0  0  0
    3.4257    0.9219    2.9620 O   0  0  0  0  0  0  0  0  0  0  0  0
    4.4251    0.7007    0.8530 C   0  0  0  0  0  0  0  0  0  0  0  0
    5.4803    1.5804    1.1268 C   0  0  0  0  0  0  0  0  0  0  0  0
    6.6044    1.6076    0.2982 C   0  0  0  0  0  0  0  0  0  0  0  0
    6.6766    0.7461   -0.7954 C   0  0  0  0  0  0  0  0  0  0  0  0
    8.1974    0.7806   -1.9171 Br  0  0  0  0  0  0  0  0  0  0  0  0
    5.6398   -0.1478   -1.0637 C   0  0  0  0  0  0  0  0  0  0  0  0
    4.5143   -0.1771   -0.2351 C   0  0  0  0  0  0  0  0  0  0  0  0
    1.4486    0.8719    0.0240 C   0  0  0  0  0  0  0  0  0  0  0  0
    0.1286    0.6007   -0.3653 C   0  0  0  0  0  0  0  0  0  0  0  0
   -0.2702    1.0436   -1.6845 N   0  0  0  0  0  4  0  0  0  0  0  0
    0.1977    0.4167   -2.6465 O   0  0  0  0  0  0  0  0  0  0  0  0
   -0.9759    2.0599   -1.7559 O   0  0  0  0  0  1  0  0  0  0  0  0
   -3.0799    0.6157    0.5503 C   0  0  0  0  0  0  0  0  0  0  0  0
   -4.4583    0.4041   -0.1197 C   0  0  0  0  0  0  0  0  0  0  0  0
   -6.1490   -0.9530   -1.7374 H   0  0  0  0  0  0  0  0  0  0  0  0
   -6.6125   -2.1666   -0.5254 H   0  0  0  0  0  0  0  0  0  0  0  0
   -6.9844   -0.4713   -0.2451 H   0  0  0  0  0  0  0  0  0  0  0  0
   -4.2821   -2.9556   -0.3375 H   0  0  0  0  0  0  0  0  0  0  0  0
   -3.8321   -1.7853   -1.5879 H   0  0  0  0  0  0  0  0  0  0  0  0
   -1.8534   -2.4416   -0.2947 H   0  0  0  0  0  0  0  0  0  0  0  0
   -2.6536   -2.0166    1.2339 H   0  0  0  0  0  0  0  0  0  0  0  0
   -0.9964   -0.9965    2.4053 H   0  0  0  0  0  0  0  0  0  0  0  0
    1.3018   -0.5372    3.1181 H   0  0  0  0  0  0  0  0  0  0  0  0
    5.4292    2.2456    1.9871 H   0  0  0  0  0  0  0  0  0  0  0  0
    7.4155    2.2974    0.5177 H   0  0  0  0  0  0  0  0  0  0  0  0
    5.7028   -0.8299   -1.9084 H   0  0  0  0  0  0  0  0  0  0  0  0
    3.7307   -0.9013   -0.4428 H   0  0  0  0  0  0  0  0  0  0  0  0
    2.1075    1.4251   -0.6403 H   0  0  0  0  0  0  0  0  0  0  0  0
   -2.7525    1.6443    0.3574 H   0  0  0  0  0  0  0  0  0  0  0  0
   -3.1771    0.4931    1.6373 H   0  0  0  0  0  0  0  0  0  0  0  0
   -4.3785    0.6640   -1.1840 H   0  0  0  0  0  0  0  0  0  0  0  0
   -5.1723    1.0994    0.3375 H   0  0  0  0  0  0  0  0  0  0  0  0
  1  2  1  0
  2  3  1  0
  3  4  1  0
  4  5  1  0
  5  6  1  0
  6  7  2  0
  7  8  1  0
  8  9  2  0
  9 10  1  0
 10 11  2  0
 10 12  1  0
 12 13  2  0
 13 14  1  0
 14 15  2  0
 15 16  1  0
 15 17  1  0
 17 18  2  0
  9 19  1  0
 19 20  2  0
 20 21  1  0
 21 22  2  0
 21 23  1  0
  5 24  1  0
 24 25  1  0
 25  2  1  0
 20  6  1  0
 18 12  1  0
  1 26  1  0
  1 27  1  0
  1 28  1  0
  3 29  1  0
  3 30  1  0
  4 31  1  0
  4 32  1  0
  7 33  1  0
  8 34  1  0
 13 35  1  0
 14 36  1  0
 17 37  1  0
 18 38  1  0
 19 39  1  0
 24 40  1  0
 24 41  1  0
 25 42  1  0
 25 43  1  0
M  CHG  2  21   1  23  -1
M  END
$$$$
