
     RDKit          3D

 53 56  0  0  0  0  0  0  0  0999 V2000
    2.6014   -5.5950   -0.2690 C   0  0  0  0  0  0  0  0  0  0  0  0
    1.8848   -4.4075    0.0539 O   0  0  0  0  0  0  0  0  0  0  0  0
    1.8853   -3.4128   -0.8762 C   0  0  0  0  0  0  0  0  0  0  0  0
    2.6400   -3.3894   -2.0366 C   0  0  0  0  0  0  0  0  0  0  0  0
    2.5639   -2.2905   -2.9071 C   0  0  0  0  0  0  0  0  0  0  0  0
    1.7214   -1.2111   -2.6238 C   0  0  0  0  0  0  0  0  0  0  0  0
    1.6069   -0.0802   -3.3982 O   0  0  0  0  0  0  0  0  0  0  0  0
    2.3259   -0.0319   -4.6155 C   0  0  0  0  0  0  0  0  0  0  0  0
    0.9356   -1.2402   -1.4627 C   0  0  0  0  0  0  0  0  0  0  0  0
   -0.0065   -0.1106   -1.1176 C   0  0  0  0  0  0  0  0  0  0  0  0
    0.6733    0.9182   -0.3153 N   0  0  0  0  0  0  0  0  0  0  0  0
   -0.2611    1.9186    0.1196 N   0  0  0  0  0  0  0  0  0  0  0  0
   -0.9771    1.7667    1.3040 C   0  0  0  0  0  0  0  0  0  0  0  0
   -0.7124    0.5755    2.1477 C   0  0  0  0  0  0  0  0  0  0  0  0
    0.5426    0.3810    2.7260 C   0  0  0  0  0  0  0  0  0  0  0  0
    0.7813   -0.7618    3.4896 C   0  0  0  0  0  0  0  0  0  0  0  0
   -0.2381   -1.7058    3.6750 C   0  0  0  0  0  0  0  0  0  0  0  0
   -1.4989   -1.5174    3.0971 C   0  0  0  0  0  0  0  0  0  0  0  0
   -2.5790   -2.5379    3.2891 C   0  0  0  0  0  0  0  0  0  0  0  0
   -1.7406   -0.3531    2.3537 C   0  0  0  0  0  0  0  0  0  0  0  0
   -1.8767    2.6147    1.6909 N   0  0  0  0  0  0  0  0  0  0  0  0
   -2.1099    3.7533    0.9103 C   0  0  0  0  0  0  0  0  0  0  0  0
   -3.0695    4.6748    1.3391 C   0  0  0  0  0  0  0  0  0  0  0  0
   -3.3272    5.8335    0.6029 C   0  0  0  0  0  0  0  0  0  0  0  0
   -2.6266    6.0812   -0.5742 C   0  0  0  0  0  0  0  0  0  0  0  0
   -1.6665    5.1710   -1.0141 C   0  0  0  0  0  0  0  0  0  0  0  0
   -1.4151    4.0164   -0.2672 C   0  0  0  0  0  0  0  0  0  0  0  0
   -0.4027    3.0417   -0.7007 C   0  0  0  0  0  0  0  0  0  0  0  0
    0.2626    3.2406   -1.7154 O   0  0  0  0  0  0  0  0  0  0  0  0
    1.0447   -2.3353   -0.5904 C   0  0  0  0  0  0  0  0  0  0  0  0
    3.6730   -5.4030   -0.3119 H   0  0  0  0  0  0  0  0  0  0  0  0
    2.2451   -6.0357   -1.1985 H   0  0  0  0  0  0  0  0  0  0  0  0
    2.4323   -6.3172    0.5259 H   0  0  0  0  0  0  0  0  0  0  0  0
    3.3160   -4.1976   -2.2945 H   0  0  0  0  0  0  0  0  0  0  0  0
    3.1895   -2.3038   -3.7914 H   0  0  0  0  0  0  0  0  0  0  0  0
    2.1111    0.9368   -5.0932 H   0  0  0  0  0  0  0  0  0  0  0  0
    3.4120   -0.0849   -4.4453 H   0  0  0  0  0  0  0  0  0  0  0  0
    1.9967   -0.8157   -5.2931 H   0  0  0  0  0  0  0  0  0  0  0  0
   -0.4294    0.3254   -2.0303 H   0  0  0  0  0  0  0  0  0  0  0  0
   -0.8605   -0.5304   -0.5723 H   0  0  0  0  0  0  0  0  0  0  0  0
    1.3195    1.3914   -0.9593 H   0  0  0  0  0  0  0  0  0  0  0  0
    1.3334    1.1104    2.5773 H   0  0  0  0  0  0  0  0  0  0  0  0
    1.7678   -0.9286    3.9292 H   0  0  0  0  0  0  0  0  0  0  0  0
   -0.0339   -2.5965    4.2680 H   0  0  0  0  0  0  0  0  0  0  0  0
   -2.1524   -3.5287    3.4824 H   0  0  0  0  0  0  0  0  0  0  0  0
   -3.1934   -2.6219    2.3851 H   0  0  0  0  0  0  0  0  0  0  0  0
   -3.2187   -2.2599    4.1302 H   0  0  0  0  0  0  0  0  0  0  0  0
   -2.7170   -0.1789    1.9102 H   0  0  0  0  0  0  0  0  0  0  0  0
   -3.6143    4.4882    2.2615 H   0  0  0  0  0  0  0  0  0  0  0  0
   -4.0732    6.5441    0.9531 H   0  0  0  0  0  0  0  0  0  0  0  0
   -2.8235    6.9834   -1.1456 H   0  0  0  0  0  0  0  0  0  0  0  0
   -1.1138    5.3620   -1.9285 H   0  0  0  0  0  0  0  0  0  0  0  0
    0.4716   -2.3458    0.3264 H   0  0  0  0  0  0  0  0  0  0  0  0
  1  2  1  0
  2  3  1  0
  3  4  2  0
  4  5  1  0
  5  6  2  0
  6  7  1  0
  7  8  1  0
  6  9  1  0
  9 10  1  0
 10 11  1  0
 11 12  1  0
 12 13  1  0
 13 14  1  0
 14 15  2  0
 15 16  1  0
 16 17  2  0
 17 18  1  0
 18 19  1  0
 18 20  2  0
 13 21  2  0
 21 22  1  0
 22 23  2  0
 23 24  1  0
 24 25  2  0
 25 26  1  0
 26 27  2  0
 27 28  1  0
 28 29  2  0
  9 30  2  0
 30  3  1  0
 28 12  1  0
 20 14  1  0
 27 22  1  0
  1 31  1  0
  1 32  1  0
  1 33  1  0
  4 34  1  0
  5 35  1  0
  8 36  1  0
  8 37  1  0
  8 38  1  0
 10 39  1  0
 10 40  1  0
 11 41  1  0
 15 42  1  0
 16 43  1  0
 17 44  1  0
 19 45  1  0
 19 46  1  0
 19 47  1  0
 20 48  1  0
 23 49  1  0
 24 50  1  0
 25 51  1  0
 26 52  1  0
 30 53  1  0
M  END
$$$$
