
     RDKit          3D

 34 36  0  0  0  0  0  0  0  0999 V2000
   -1.7411    0.5668    1.1218 O   0  0  0  0  0  0  0  0  0  0  0  0
   -2.2585    0.1843    0.0787 C   0  0  0  0  0  0  0  0  0  0  0  0
   -1.5564   -0.3118   -1.0112 N   0  0  0  0  0  0  0  0  0  0  0  0
   -0.1873   -0.4988   -1.1571 C   0  0  0  0  0  0  0  0  0  0  0  0
    0.2914   -1.1437   -2.6199 S   0  0  0  0  0  0  0  0  0  0  0  0
    0.5571   -0.1186   -0.0652 N   0  0  0  0  0  0  0  0  0  0  0  0
    1.9398   -0.1098    0.2278 C   0  0  0  0  0  0  0  0  0  0  0  0
    2.2801    0.3464    1.5341 C   0  0  0  0  0  0  0  0  0  0  0  0
    3.6061    0.4182    1.9825 C   0  0  0  0  0  0  0  0  0  0  0  0
    4.5711    0.0255    1.0934 C   0  0  0  0  0  0  0  0  0  0  0  0
    5.9527   -0.0178    1.2358 N   0  0  0  0  0  0  0  0  0  0  0  0
    6.5132   -0.4931    0.0413 C   0  0  0  0  0  0  0  0  0  0  0  0
    7.6972   -0.6593   -0.1902 O   0  0  0  0  0  0  0  0  0  0  0  0
    5.4448   -0.7386   -0.8329 N   0  0  0  0  0  0  0  0  0  0  0  0
    4.2544   -0.4204   -0.1857 C   0  0  0  0  0  0  0  0  0  0  0  0
    2.9576   -0.4993   -0.6478 C   0  0  0  0  0  0  0  0  0  0  0  0
   -3.7203    0.2547   -0.1099 C   0  0  0  0  0  0  0  0  0  0  0  0
   -4.2204    1.0729   -1.1341 C   0  0  0  0  0  0  0  0  0  0  0  0
   -5.5977    1.1724   -1.3326 C   0  0  0  0  0  0  0  0  0  0  0  0
   -6.4730    0.4608   -0.5125 C   0  0  0  0  0  0  0  0  0  0  0  0
   -5.9742   -0.3521    0.5084 C   0  0  0  0  0  0  0  0  0  0  0  0
   -4.5957   -0.4576    0.7154 C   0  0  0  0  0  0  0  0  0  0  0  0
   -4.0449   -1.5188    1.9596 Cl  0  0  0  0  0  0  0  0  0  0  0  0
   -2.0868   -0.6211   -1.8162 H   0  0  0  0  0  0  0  0  0  0  0  0
   -0.0270    0.2189    0.7035 H   0  0  0  0  0  0  0  0  0  0  0  0
    1.4928    0.6525    2.2229 H   0  0  0  0  0  0  0  0  0  0  0  0
    3.8454    0.7662    2.9794 H   0  0  0  0  0  0  0  0  0  0  0  0
    6.4936    0.2399    2.0444 H   0  0  0  0  0  0  0  0  0  0  0  0
    5.5538   -1.0900   -1.7701 H   0  0  0  0  0  0  0  0  0  0  0  0
    2.7863   -0.8495   -1.6523 H   0  0  0  0  0  0  0  0  0  0  0  0
   -3.5471    1.6505   -1.7641 H   0  0  0  0  0  0  0  0  0  0  0  0
   -5.9911    1.8115   -2.1207 H   0  0  0  0  0  0  0  0  0  0  0  0
   -7.5475    0.5406   -0.6654 H   0  0  0  0  0  0  0  0  0  0  0  0
   -6.6683   -0.9040    1.1388 H   0  0  0  0  0  0  0  0  0  0  0  0
  1  2  2  0
  2  3  1  0
  3  4  1  0
  4  5  2  0
  4  6  1  0
  6  7  1  0
  7  8  2  0
  8  9  1  0
  9 10  2  0
 10 11  1  0
 11 12  1  0
 12 13  2  0
 12 14  1  0
 14 15  1  0
 15 16  2  0
  2 17  1  0
 17 18  2  0
 18 19  1  0
 19 20  2  0
 20 21  1  0
 21 22  2  0
 22 23  1  0
 16  7  1  0
 22 17  1  0
 15 10  1  0
  3 24  1  0
  6 25  1  0
  8 26  1  0
  9 27  1  0
 11 28  1  0
 14 29  1  0
 16 30  1  0
 18 31  1  0
 19 32  1  0
 20 33  1  0
 21 34  1  0
M  END
$$$$
