
     RDKit          3D

 45 47  0  0  0  0  0  0  0  0999 V2000
    3.9671   -2.7326    3.6445 N   0  0  0  0  0  0  0  0  0  0  0  0
    4.3111   -1.8499    2.9738 C   0  0  0  0  0  0  0  0  0  0  0  0
    4.7201   -0.7653    2.1429 C   0  0  0  0  0  0  0  0  0  0  0  0
    6.0819   -0.3583    2.2635 C   0  0  0  0  0  0  0  0  0  0  0  0
    7.1881   -0.0167    2.3519 N   0  0  0  0  0  0  0  0  0  0  0  0
    3.8684   -0.1469    1.2856 C   0  0  0  0  0  0  0  0  0  0  0  0
    2.4546   -0.5194    1.1557 C   0  0  0  0  0  0  0  0  0  0  0  0
    1.6298   -0.0170    0.2160 C   0  0  0  0  0  0  0  0  0  0  0  0
    0.2331   -0.4245    0.1530 C   0  0  0  0  0  0  0  0  0  0  0  0
   -0.6252   -0.0952   -0.8368 C   0  0  0  0  0  0  0  0  0  0  0  0
   -1.9848   -0.4799   -0.8657 N   0  0  0  0  0  0  0  0  0  0  0  0
   -2.9562    0.1879   -1.7672 C   0  0  0  0  0  0  0  0  0  0  0  0
   -4.4324   -0.0030   -1.4055 C   0  0  0  0  0  0  0  0  0  0  0  0
   -4.8533    0.5078   -0.0263 C   0  0  0  0  0  0  0  0  0  0  0  0
   -3.8295    0.3766    1.0991 C   0  0  0  0  0  0  0  0  0  0  0  0
   -3.1823   -1.0013    1.2430 C   0  0  0  0  0  0  0  0  0  0  0  0
   -2.5243   -1.5562   -0.0207 C   0  0  0  0  0  0  0  0  0  0  0  0
   -0.1071    0.7267   -2.0136 C   0  0  0  0  0  0  0  0  0  0  0  0
    1.4146    0.6967   -2.1673 C   0  0  0  0  0  0  0  0  0  0  0  0
    2.0960    0.9740   -0.8272 C   0  0  0  0  0  0  0  0  0  0  0  0
    3.6206    0.9471   -0.9827 C   0  0  0  0  0  0  0  0  0  0  0  0
    4.3001    1.0048    0.3850 C   0  0  0  0  0  0  0  0  0  0  0  0
    2.0515   -1.2493    1.8577 H   0  0  0  0  0  0  0  0  0  0  0  0
   -0.1176   -1.0193    0.9902 H   0  0  0  0  0  0  0  0  0  0  0  0
   -2.8029   -0.1938   -2.7842 H   0  0  0  0  0  0  0  0  0  0  0  0
   -2.7559    1.2663   -1.7868 H   0  0  0  0  0  0  0  0  0  0  0  0
   -5.0399    0.5180   -2.1567 H   0  0  0  0  0  0  0  0  0  0  0  0
   -4.7178   -1.0554   -1.5072 H   0  0  0  0  0  0  0  0  0  0  0  0
   -5.7775   -0.0069    0.2645 H   0  0  0  0  0  0  0  0  0  0  0  0
   -5.1191    1.5685   -0.1134 H   0  0  0  0  0  0  0  0  0  0  0  0
   -4.3191    0.6341    2.0475 H   0  0  0  0  0  0  0  0  0  0  0  0
   -3.0466    1.1337    0.9635 H   0  0  0  0  0  0  0  0  0  0  0  0
   -3.9236   -1.7253    1.6033 H   0  0  0  0  0  0  0  0  0  0  0  0
   -2.4229   -0.9285    2.0328 H   0  0  0  0  0  0  0  0  0  0  0  0
   -1.7478   -2.2786    0.2565 H   0  0  0  0  0  0  0  0  0  0  0  0
   -3.2375   -2.1647   -0.5879 H   0  0  0  0  0  0  0  0  0  0  0  0
   -0.4377    1.7652   -1.8905 H   0  0  0  0  0  0  0  0  0  0  0  0
   -0.5343    0.3550   -2.9520 H   0  0  0  0  0  0  0  0  0  0  0  0
    1.7210    1.4371   -2.9153 H   0  0  0  0  0  0  0  0  0  0  0  0
    1.7199   -0.2862   -2.5511 H   0  0  0  0  0  0  0  0  0  0  0  0
    1.8018    1.9782   -0.4881 H   0  0  0  0  0  0  0  0  0  0  0  0
    3.9382    0.0367   -1.5085 H   0  0  0  0  0  0  0  0  0  0  0  0
    3.9472    1.7972   -1.5940 H   0  0  0  0  0  0  0  0  0  0  0  0
    5.3821    1.0111    0.2168 H   0  0  0  0  0  0  0  0  0  0  0  0
    4.0484    1.9514    0.8815 H   0  0  0  0  0  0  0  0  0  0  0  0
  1  2  3  0
  2  3  1  0
  3  4  1  0
  4  5  3  0
  3  6  2  3
  6  7  1  0
  7  8  2  0
  8  9  1  0
  9 10  2  0
 10 11  1  0
 11 12  1  0
 12 13  1  0
 13 14  1  0
 14 15  1  0
 15 16  1  0
 16 17  1  0
 10 18  1  0
 18 19  1  0
 19 20  1  0
 20 21  1  0
 21 22  1  0
 22  6  1  0
 20  8  1  0
 17 11  1  0
  7 23  1  0
  9 24  1  0
 12 25  1  0
 12 26  1  0
 13 27  1  0
 13 28  1  0
 14 29  1  0
 14 30  1  0
 15 31  1  0
 15 32  1  0
 16 33  1  0
 16 34  1  0
 17 35  1  0
 17 36  1  0
 18 37  1  0
 18 38  1  0
 19 39  1  0
 19 40  1  0
 20 41  1  0
 21 42  1  0
 21 43  1  0
 22 44  1  0
 22 45  1  0
M  END
$$$$
