
     RDKit          3D

 56 58  0  0  0  0  0  0  0  0999 V2000
   -6.6379    3.0652   -1.1259 C   0  0  0  0  0  0  0  0  0  0  0  0
   -6.2396    1.6150   -1.3253 C   0  0  0  0  0  0  0  0  0  0  0  0
   -4.8889    1.4091   -0.8875 O   0  0  0  0  0  0  0  0  0  0  0  0
   -4.7317    1.1410    0.4394 C   0  0  0  0  0  0  0  0  0  0  0  0
   -5.6432    1.0425    1.2525 O   0  0  0  0  0  0  0  0  0  0  0  0
   -3.2761    0.9682    0.7973 C   0  0  0  0  0  0  0  0  0  0  0  0
   -2.5057    2.2548    0.6081 C   0  0  0  0  0  0  0  0  0  0  0  0
   -3.0269    3.3675    0.6468 O   0  0  0  0  0  0  0  0  0  0  0  0
   -1.0309    2.1781    0.4550 C   0  0  0  0  0  0  0  0  0  0  0  0
   -0.3870    1.0011    0.3755 C   0  0  0  0  0  0  0  0  0  0  0  0
    1.0709    0.9956    0.2976 C   0  0  0  0  0  0  0  0  0  0  0  0
    1.8633   -0.0892    0.3207 C   0  0  0  0  0  0  0  0  0  0  0  0
    3.3291   -0.0237    0.2378 C   0  0  0  0  0  0  0  0  0  0  0  0
    4.0789    0.9175    0.9411 C   0  0  0  0  0  0  0  0  0  0  0  0
    5.4807    0.9257    0.8559 C   0  0  0  0  0  0  0  0  0  0  0  0
    6.1953   -0.0100    0.0877 C   0  0  0  0  0  0  0  0  0  0  0  0
    7.5916    0.0143   -0.0090 N   0  0  0  0  0  0  0  0  0  0  0  0
    8.3562    0.8157    0.9449 C   0  0  0  0  0  0  0  0  0  0  0  0
    8.2848   -1.1532   -0.5509 C   0  0  0  0  0  0  0  0  0  0  0  0
    5.4132   -0.9466   -0.6101 C   0  0  0  0  0  0  0  0  0  0  0  0
    4.0113   -0.9645   -0.5312 C   0  0  0  0  0  0  0  0  0  0  0  0
   -1.1360   -0.3136    0.3554 C   0  0  0  0  0  0  0  0  0  0  0  0
   -2.6249   -0.1585   -0.0206 C   0  0  0  0  0  0  0  0  0  0  0  0
   -3.3350   -1.4994    0.1025 C   0  0  0  0  0  0  0  0  0  0  0  0
   -3.5885   -2.0919    1.3488 C   0  0  0  0  0  0  0  0  0  0  0  0
   -4.2425   -3.3228    1.4306 C   0  0  0  0  0  0  0  0  0  0  0  0
   -4.6480   -3.9783    0.2708 C   0  0  0  0  0  0  0  0  0  0  0  0
   -4.3999   -3.4041   -0.9732 C   0  0  0  0  0  0  0  0  0  0  0  0
   -3.7472   -2.1732   -1.0578 C   0  0  0  0  0  0  0  0  0  0  0  0
   -5.9358    3.7306   -1.6389 H   0  0  0  0  0  0  0  0  0  0  0  0
   -6.6164    3.3366   -0.0657 H   0  0  0  0  0  0  0  0  0  0  0  0
   -7.6445    3.2476   -1.5127 H   0  0  0  0  0  0  0  0  0  0  0  0
   -6.9320    0.9335   -0.8179 H   0  0  0  0  0  0  0  0  0  0  0  0
   -6.2705    1.3682   -2.3916 H   0  0  0  0  0  0  0  0  0  0  0  0
   -3.2331    0.7400    1.8708 H   0  0  0  0  0  0  0  0  0  0  0  0
   -0.5210    3.1361    0.4510 H   0  0  0  0  0  0  0  0  0  0  0  0
    1.5417    1.9761    0.2133 H   0  0  0  0  0  0  0  0  0  0  0  0
    1.4567   -1.0940    0.3905 H   0  0  0  0  0  0  0  0  0  0  0  0
    3.5926    1.6564    1.5730 H   0  0  0  0  0  0  0  0  0  0  0  0
    5.9969    1.6966    1.4197 H   0  0  0  0  0  0  0  0  0  0  0  0
    8.1820    0.4774    1.9723 H   0  0  0  0  0  0  0  0  0  0  0  0
    9.4325    0.7440    0.7515 H   0  0  0  0  0  0  0  0  0  0  0  0
    8.1075    1.8789    0.8591 H   0  0  0  0  0  0  0  0  0  0  0  0
    9.3705   -1.0047   -0.5558 H   0  0  0  0  0  0  0  0  0  0  0  0
    8.0770   -2.0475    0.0472 H   0  0  0  0  0  0  0  0  0  0  0  0
    8.0030   -1.3332   -1.5939 H   0  0  0  0  0  0  0  0  0  0  0  0
    5.8740   -1.6961   -1.2459 H   0  0  0  0  0  0  0  0  0  0  0  0
    3.4659   -1.7186   -1.0938 H   0  0  0  0  0  0  0  0  0  0  0  0
   -0.6845   -0.9939   -0.3789 H   0  0  0  0  0  0  0  0  0  0  0  0
   -1.0274   -0.7875    1.3399 H   0  0  0  0  0  0  0  0  0  0  0  0
   -2.6515    0.1383   -1.0806 H   0  0  0  0  0  0  0  0  0  0  0  0
   -3.2852   -1.6057    2.2732 H   0  0  0  0  0  0  0  0  0  0  0  0
   -4.4392   -3.7689    2.4024 H   0  0  0  0  0  0  0  0  0  0  0  0
   -5.1595   -4.9349    0.3370 H   0  0  0  0  0  0  0  0  0  0  0  0
   -4.7174   -3.9139   -1.8791 H   0  0  0  0  0  0  0  0  0  0  0  0
   -3.5675   -1.7437   -2.0414 H   0  0  0  0  0  0  0  0  0  0  0  0
  1  2  1  0
  2  3  1  0
  3  4  1  0
  4  5  2  0
  4  6  1  0
  6  7  1  0
  7  8  2  0
  7  9  1  0
  9 10  2  0
 10 11  1  0
 11 12  2  3
 12 13  1  0
 13 14  2  0
 14 15  1  0
 15 16  2  0
 16 17  1  0
 17 18  1  0
 17 19  1  0
 16 20  1  0
 20 21  2  0
 10 22  1  0
 22 23  1  0
 23 24  1  0
 24 25  2  0
 25 26  1  0
 26 27  2  0
 27 28  1  0
 28 29  2  0
 23  6  1  0
 29 24  1  0
 21 13  1  0
  1 30  1  0
  1 31  1  0
  1 32  1  0
  2 33  1  0
  2 34  1  0
  6 35  1  0
  9 36  1  0
 11 37  1  0
 12 38  1  0
 14 39  1  0
 15 40  1  0
 18 41  1  0
 18 42  1  0
 18 43  1  0
 19 44  1  0
 19 45  1  0
 19 46  1  0
 20 47  1  0
 21 48  1  0
 22 49  1  0
 22 50  1  0
 23 51  1  0
 25 52  1  0
 26 53  1  0
 27 54  1  0
 28 55  1  0
 29 56  1  0
M  END
$$$$
