
     RDKit          3D

 65 68  0  0  0  0  0  0  0  0999 V2000
   -1.9750   -2.0246    3.8865 C   0  0  0  0  0  0  0  0  0  0  0  0
   -2.8974   -1.1804    3.0579 C   0  0  0  0  0  0  0  0  0  0  0  0
   -4.2564   -1.5011    2.9624 C   0  0  0  0  0  0  0  0  0  0  0  0
   -5.1241   -0.7010    2.2150 C   0  0  0  0  0  0  0  0  0  0  0  0
   -4.6487    0.4421    1.5617 C   0  0  0  0  0  0  0  0  0  0  0  0
   -5.5764    1.2930    0.7247 C   0  0  0  0  0  0  0  0  0  0  0  0
   -5.8116    0.7097   -0.6742 C   0  0  0  0  0  0  0  0  0  0  0  0
   -4.5935    0.6063   -1.4567 N   0  0  0  0  0  0  0  0  0  0  0  0
   -4.0152    1.7155   -2.0363 C   0  0  0  0  0  0  0  0  0  0  0  0
   -4.5445    2.8206   -2.0573 O   0  0  0  0  0  0  0  0  0  0  0  0
   -2.6558    1.4176   -2.6363 C   0  0  0  0  0  0  0  0  0  0  0  0
   -1.9868    2.6727   -3.1932 C   0  0  0  0  0  0  0  0  0  0  0  0
   -0.6276    2.3862   -3.8312 C   0  0  0  0  0  0  0  0  0  0  0  0
    0.3675    1.9365   -2.8617 N   0  0  0  0  0  0  0  0  0  0  0  0
    0.9267    2.9429   -2.0656 N   0  0  0  0  0  0  0  0  0  0  0  0
    1.8041    2.6643   -1.1427 C   0  0  0  0  0  0  0  0  0  0  0  0
    2.3726    3.7955   -0.3344 C   0  0  0  0  0  0  0  0  0  0  0  0
    2.1919    1.2922   -0.9260 C   0  0  0  0  0  0  0  0  0  0  0  0
    3.0135    0.6536   -0.0114 C   0  0  0  0  0  0  0  0  0  0  0  0
    3.6975    1.1945    1.1913 C   0  0  0  0  0  0  0  0  0  0  0  0
    3.0389   -0.6894   -0.4102 N   0  0  0  0  0  0  0  0  0  0  0  0
    3.8691   -1.7738    0.0155 C   0  0  0  0  0  0  0  0  0  0  0  0
    5.0738   -1.5769    0.6979 C   0  0  0  0  0  0  0  0  0  0  0  0
    5.8529   -2.6721    1.0926 C   0  0  0  0  0  0  0  0  0  0  0  0
    5.4567   -3.9785    0.7911 C   0  0  0  0  0  0  0  0  0  0  0  0
    6.2780   -5.1482    1.2463 C   0  0  0  0  0  0  0  0  0  0  0  0
    4.2615   -4.1779    0.0969 C   0  0  0  0  0  0  0  0  0  0  0  0
    3.4810   -3.0870   -0.2984 C   0  0  0  0  0  0  0  0  0  0  0  0
    2.0924   -0.9290   -1.3590 N   0  0  0  0  0  0  0  0  0  0  0  0
    1.6409    0.2760   -1.7127 C   0  0  0  0  0  0  0  0  0  0  0  0
    0.6570    0.5599   -2.7493 C   0  0  0  0  0  0  0  0  0  0  0  0
    0.1204   -0.3072   -3.4361 O   0  0  0  0  0  0  0  0  0  0  0  0
   -3.2914    0.7711    1.6709 C   0  0  0  0  0  0  0  0  0  0  0  0
   -2.4245   -0.0309    2.4162 C   0  0  0  0  0  0  0  0  0  0  0  0
   -2.0053   -1.6974    4.9306 H   0  0  0  0  0  0  0  0  0  0  0  0
   -0.9436   -1.9521    3.5246 H   0  0  0  0  0  0  0  0  0  0  0  0
   -2.2640   -3.0799    3.8351 H   0  0  0  0  0  0  0  0  0  0  0  0
   -4.6487   -2.3799    3.4696 H   0  0  0  0  0  0  0  0  0  0  0  0
   -6.1746   -0.9757    2.1498 H   0  0  0  0  0  0  0  0  0  0  0  0
   -5.1732    2.3106    0.6500 H   0  0  0  0  0  0  0  0  0  0  0  0
   -6.5373    1.3876    1.2460 H   0  0  0  0  0  0  0  0  0  0  0  0
   -6.2378   -0.2976   -0.6122 H   0  0  0  0  0  0  0  0  0  0  0  0
   -6.5206    1.3441   -1.2180 H   0  0  0  0  0  0  0  0  0  0  0  0
   -4.0107   -0.2078   -1.2983 H   0  0  0  0  0  0  0  0  0  0  0  0
   -2.0352    0.9766   -1.8484 H   0  0  0  0  0  0  0  0  0  0  0  0
   -2.7874    0.6756   -3.4323 H   0  0  0  0  0  0  0  0  0  0  0  0
   -2.6387    3.1251   -3.9509 H   0  0  0  0  0  0  0  0  0  0  0  0
   -1.8753    3.4157   -2.3933 H   0  0  0  0  0  0  0  0  0  0  0  0
   -0.2418    3.3007   -4.2974 H   0  0  0  0  0  0  0  0  0  0  0  0
   -0.7359    1.6424   -4.6284 H   0  0  0  0  0  0  0  0  0  0  0  0
    1.9459    3.7746    0.6720 H   0  0  0  0  0  0  0  0  0  0  0  0
    3.4609    3.7111   -0.2768 H   0  0  0  0  0  0  0  0  0  0  0  0
    2.1229    4.7550   -0.7967 H   0  0  0  0  0  0  0  0  0  0  0  0
    4.6943    1.5669    0.9365 H   0  0  0  0  0  0  0  0  0  0  0  0
    3.7759    0.4503    1.9895 H   0  0  0  0  0  0  0  0  0  0  0  0
    3.1299    2.0236    1.6236 H   0  0  0  0  0  0  0  0  0  0  0  0
    5.4702   -0.5914    0.9071 H   0  0  0  0  0  0  0  0  0  0  0  0
    6.7831   -2.4950    1.6285 H   0  0  0  0  0  0  0  0  0  0  0  0
    5.9728   -5.4494    2.2533 H   0  0  0  0  0  0  0  0  0  0  0  0
    7.3434   -4.8955    1.2597 H   0  0  0  0  0  0  0  0  0  0  0  0
    6.1551   -6.0002    0.5695 H   0  0  0  0  0  0  0  0  0  0  0  0
    3.9255   -5.1835   -0.1472 H   0  0  0  0  0  0  0  0  0  0  0  0
    2.5595   -3.2833   -0.8449 H   0  0  0  0  0  0  0  0  0  0  0  0
   -2.9008    1.6568    1.1739 H   0  0  0  0  0  0  0  0  0  0  0  0
   -1.3758    0.2475    2.4908 H   0  0  0  0  0  0  0  0  0  0  0  0
  1  2  1  0
  2  3  2  0
  3  4  1  0
  4  5  2  0
  5  6  1  0
  6  7  1  0
  7  8  1  0
  8  9  1  0
  9 10  2  0
  9 11  1  0
 11 12  1  0
 12 13  1  0
 13 14  1  0
 14 15  1  0
 15 16  2  0
 16 17  1  0
 16 18  1  0
 18 19  2  0
 19 20  1  0
 19 21  1  0
 21 22  1  0
 22 23  2  0
 23 24  1  0
 24 25  2  0
 25 26  1  0
 25 27  1  0
 27 28  2  0
 21 29  1  0
 29 30  2  0
 30 31  1  0
 31 32  2  0
  5 33  1  0
 33 34  2  0
 34  2  1  0
 31 14  1  0
 30 18  1  0
 28 22  1  0
  1 35  1  0
  1 36  1  0
  1 37  1  0
  3 38  1  0
  4 39  1  0
  6 40  1  0
  6 41  1  0
  7 42  1  0
  7 43  1  0
  8 44  1  0
 11 45  1  0
 11 46  1  0
 12 47  1  0
 12 48  1  0
 13 49  1  0
 13 50  1  0
 17 51  1  0
 17 52  1  0
 17 53  1  0
 20 54  1  0
 20 55  1  0
 20 56  1  0
 23 57  1  0
 24 58  1  0
 26 59  1  0
 26 60  1  0
 26 61  1  0
 27 62  1  0
 28 63  1  0
 33 64  1  0
 34 65  1  0
M  END
$$$$
