
     RDKit          3D

 49 51  0  0  0  0  0  0  0  0999 V2000
   -9.0932    1.5644    3.1857 C   0  0  0  0  0  0  0  0  0  0  0  0
   -8.5881    0.4992    2.3902 O   0  0  0  0  0  0  0  0  0  0  0  0
   -7.2695    0.5650    2.0370 C   0  0  0  0  0  0  0  0  0  0  0  0
   -6.8182   -0.4994    1.2576 C   0  0  0  0  0  0  0  0  0  0  0  0
   -5.4887   -0.5550    0.8277 C   0  0  0  0  0  0  0  0  0  0  0  0
   -4.5848    0.4569    1.1714 C   0  0  0  0  0  0  0  0  0  0  0  0
   -3.2602    0.3225    0.6955 N   0  0  0  0  0  0  0  0  0  0  0  0
   -2.2001    1.1903    0.9029 C   0  0  0  0  0  0  0  0  0  0  0  0
   -2.2554    2.2346    1.5476 O   0  0  0  0  0  0  0  0  0  0  0  0
   -0.8976    0.7742    0.2663 C   0  0  0  0  0  0  0  0  0  0  0  0
   -0.8259   -0.4269   -0.4892 C   0  0  0  0  0  0  0  0  0  0  0  0
   -0.8502   -1.4252   -1.0805 N   0  0  0  0  0  0  0  0  0  0  0  0
    0.1624    1.5904    0.4359 C   0  0  0  0  0  0  0  0  0  0  0  0
    1.5055    1.3686   -0.1112 C   0  0  0  0  0  0  0  0  0  0  0  0
    2.2990    0.2978    0.3131 C   0  0  0  0  0  0  0  0  0  0  0  0
    3.5817    0.1092   -0.2167 C   0  0  0  0  0  0  0  0  0  0  0  0
    4.0861    0.9950   -1.1677 C   0  0  0  0  0  0  0  0  0  0  0  0
    5.3098    0.9254   -1.7734 O   0  0  0  0  0  0  0  0  0  0  0  0
    6.2497   -0.0484   -1.3070 C   0  0  0  0  0  0  0  0  0  0  0  0
    6.0513   -1.4073   -1.9295 C   0  0  0  0  0  0  0  0  0  0  0  0
    5.5848   -1.5594   -3.2431 C   0  0  0  0  0  0  0  0  0  0  0  0
    5.4391   -2.8324   -3.8010 C   0  0  0  0  0  0  0  0  0  0  0  0
    5.7692   -3.9662   -3.0587 C   0  0  0  0  0  0  0  0  0  0  0  0
    6.2488   -3.8267   -1.7581 C   0  0  0  0  0  0  0  0  0  0  0  0
    6.3898   -2.5553   -1.2088 C   0  0  0  0  0  0  0  0  0  0  0  0
    6.8573   -2.4424    0.0430 F   0  0  0  0  0  0  0  0  0  0  0  0
    3.2938    2.0671   -1.5859 C   0  0  0  0  0  0  0  0  0  0  0  0
    2.0138    2.2592   -1.0594 C   0  0  0  0  0  0  0  0  0  0  0  0
   -5.0401    1.5203    1.9515 C   0  0  0  0  0  0  0  0  0  0  0  0
   -6.3744    1.5749    2.3822 C   0  0  0  0  0  0  0  0  0  0  0  0
  -10.1514    1.3640    3.3795 H   0  0  0  0  0  0  0  0  0  0  0  0
   -9.0271    2.5196    2.6545 H   0  0  0  0  0  0  0  0  0  0  0  0
   -8.5810    1.6124    4.1524 H   0  0  0  0  0  0  0  0  0  0  0  0
   -7.5075   -1.2938    0.9815 H   0  0  0  0  0  0  0  0  0  0  0  0
   -5.1791   -1.4027    0.2216 H   0  0  0  0  0  0  0  0  0  0  0  0
   -3.1049   -0.5136    0.1433 H   0  0  0  0  0  0  0  0  0  0  0  0
    0.0627    2.5173    1.0003 H   0  0  0  0  0  0  0  0  0  0  0  0
    1.9348   -0.4037    1.0607 H   0  0  0  0  0  0  0  0  0  0  0  0
    4.1509   -0.7457    0.1332 H   0  0  0  0  0  0  0  0  0  0  0  0
    6.2649   -0.0813   -0.2108 H   0  0  0  0  0  0  0  0  0  0  0  0
    7.2414    0.3081   -1.6109 H   0  0  0  0  0  0  0  0  0  0  0  0
    5.3250   -0.6850   -3.8372 H   0  0  0  0  0  0  0  0  0  0  0  0
    5.0666   -2.9378   -4.8174 H   0  0  0  0  0  0  0  0  0  0  0  0
    5.6542   -4.9552   -3.4948 H   0  0  0  0  0  0  0  0  0  0  0  0
    6.5145   -4.6988   -1.1693 H   0  0  0  0  0  0  0  0  0  0  0  0
    3.6782    2.7620   -2.3290 H   0  0  0  0  0  0  0  0  0  0  0  0
    1.4228    3.1054   -1.4023 H   0  0  0  0  0  0  0  0  0  0  0  0
   -4.3864    2.3335    2.2498 H   0  0  0  0  0  0  0  0  0  0  0  0
   -6.6745    2.4246    2.9867 H   0  0  0  0  0  0  0  0  0  0  0  0
  1  2  1  0
  2  3  1  0
  3  4  2  0
  4  5  1  0
  5  6  2  0
  6  7  1  0
  7  8  1  0
  8  9  2  0
  8 10  1  0
 10 11  1  0
 11 12  3  0
 10 13  2  3
 13 14  1  0
 14 15  2  0
 15 16  1  0
 16 17  2  0
 17 18  1  0
 18 19  1  0
 19 20  1  0
 20 21  2  0
 21 22  1  0
 22 23  2  0
 23 24  1  0
 24 25  2  0
 25 26  1  0
 17 27  1  0
 27 28  2  0
  6 29  1  0
 29 30  2  0
 30  3  1  0
 28 14  1  0
 25 20  1  0
  1 31  1  0
  1 32  1  0
  1 33  1  0
  4 34  1  0
  5 35  1  0
  7 36  1  0
 13 37  1  0
 15 38  1  0
 16 39  1  0
 19 40  1  0
 19 41  1  0
 21 42  1  0
 22 43  1  0
 23 44  1  0
 24 45  1  0
 27 46  1  0
 28 47  1  0
 29 48  1  0
 30 49  1  0
M  END
$$$$
