
     RDKit          3D

 42 44  0  0  0  0  0  0  0  0999 V2000
    3.8353    1.6763    1.8582 C   0  0  0  0  0  0  0  0  0  0  0  0
    3.6977    0.2532    1.3148 C   0  0  0  0  0  0  0  0  0  0  0  0
    5.0189   -0.5030    1.4526 C   0  0  0  0  0  0  0  0  0  0  0  0
    2.4090   -0.6616    2.2489 S   0  0  0  0  0  0  0  0  0  0  0  0
    1.0004   -0.4318    1.1752 C   0  0  0  0  0  0  0  0  0  0  0  0
    0.1067   -1.4697    1.0240 C   0  0  0  0  0  0  0  0  0  0  0  0
   -0.9539   -1.2744    0.1649 C   0  0  0  0  0  0  0  0  0  0  0  0
   -1.8691   -2.2712   -0.0907 N   0  0  0  0  0  0  0  0  0  0  0  0
   -3.0054   -2.0004   -0.9659 C   0  0  0  0  0  0  0  0  0  0  0  0
   -3.7692   -3.3225   -0.9450 C   0  0  0  0  0  0  0  0  0  0  0  0
   -3.5883   -3.7763    0.4945 C   0  0  0  0  0  0  0  0  0  0  0  0
   -2.1495   -3.3727    0.8234 C   0  0  0  0  0  0  0  0  0  0  0  0
   -1.0900   -0.1050   -0.4838 N   0  0  0  0  0  0  0  0  0  0  0  0
   -0.2057    0.8744   -0.2385 C   0  0  0  0  0  0  0  0  0  0  0  0
   -0.3641    2.1514   -0.9542 C   0  0  0  0  0  0  0  0  0  0  0  0
    0.7788    2.7710   -1.5118 C   0  0  0  0  0  0  0  0  0  0  0  0
    0.6943    3.9687   -2.2273 C   0  0  0  0  0  0  0  0  0  0  0  0
   -0.5405    4.5821   -2.4042 C   0  0  0  0  0  0  0  0  0  0  0  0
   -1.6831    4.0064   -1.8521 C   0  0  0  0  0  0  0  0  0  0  0  0
   -1.5989    2.8072   -1.1271 C   0  0  0  0  0  0  0  0  0  0  0  0
   -3.0755    2.2418   -0.4192 Cl  0  0  0  0  0  0  0  0  0  0  0  0
    0.8653    0.7498    0.5590 N   0  0  0  0  0  0  0  0  0  0  0  0
    2.9166    2.2552    1.7174 H   0  0  0  0  0  0  0  0  0  0  0  0
    4.6432    2.2096    1.3421 H   0  0  0  0  0  0  0  0  0  0  0  0
    4.0665    1.6667    2.9284 H   0  0  0  0  0  0  0  0  0  0  0  0
    3.4426    0.2908    0.2480 H   0  0  0  0  0  0  0  0  0  0  0  0
    5.7987   -0.0122    0.8582 H   0  0  0  0  0  0  0  0  0  0  0  0
    5.3677   -0.5314    2.4913 H   0  0  0  0  0  0  0  0  0  0  0  0
    4.9310   -1.5351    1.0900 H   0  0  0  0  0  0  0  0  0  0  0  0
    0.2598   -2.4097    1.5342 H   0  0  0  0  0  0  0  0  0  0  0  0
   -3.6318   -1.2009   -0.5517 H   0  0  0  0  0  0  0  0  0  0  0  0
   -2.7002   -1.7346   -1.9849 H   0  0  0  0  0  0  0  0  0  0  0  0
   -4.8209   -3.2101   -1.2261 H   0  0  0  0  0  0  0  0  0  0  0  0
   -3.3042   -4.0456   -1.6274 H   0  0  0  0  0  0  0  0  0  0  0  0
   -4.2827   -3.2307    1.1443 H   0  0  0  0  0  0  0  0  0  0  0  0
   -3.7663   -4.8473    0.6322 H   0  0  0  0  0  0  0  0  0  0  0  0
   -2.0734   -3.0842    1.8754 H   0  0  0  0  0  0  0  0  0  0  0  0
   -1.4538   -4.1965    0.6236 H   0  0  0  0  0  0  0  0  0  0  0  0
    1.7541    2.2994   -1.3949 H   0  0  0  0  0  0  0  0  0  0  0  0
    1.5949    4.4193   -2.6424 H   0  0  0  0  0  0  0  0  0  0  0  0
   -0.6109    5.5030   -2.9716 H   0  0  0  0  0  0  0  0  0  0  0  0
   -2.6441    4.5007   -1.9817 H   0  0  0  0  0  0  0  0  0  0  0  0
  1  2  1  0
  2  3  1  0
  2  4  1  0
  4  5  1  0
  5  6  2  0
  6  7  1  0
  7  8  1  0
  8  9  1  0
  9 10  1  0
 10 11  1  0
 11 12  1  0
  7 13  2  0
 13 14  1  0
 14 15  1  0
 15 16  2  0
 16 17  1  0
 17 18  2  0
 18 19  1  0
 19 20  2  0
 20 21  1  0
 14 22  2  0
 22  5  1  0
 12  8  1  0
 20 15  1  0
  1 23  1  0
  1 24  1  0
  1 25  1  0
  2 26  1  0
  3 27  1  0
  3 28  1  0
  3 29  1  0
  6 30  1  0
  9 31  1  0
  9 32  1  0
 10 33  1  0
 10 34  1  0
 11 35  1  0
 11 36  1  0
 12 37  1  0
 12 38  1  0
 16 39  1  0
 17 40  1  0
 18 41  1  0
 19 42  1  0
M  END
$$$$
