
     RDKit          3D

 40 43  0  0  0  0  0  0  0  0999 V2000
   -0.6967    3.9207   -0.6096 C   0  0  0  0  0  0  0  0  0  0  0  0
   -0.3453    2.6776   -0.9656 C   0  0  0  0  0  0  0  0  0  0  0  0
   -1.1306    1.8150   -1.9173 C   0  0  0  0  0  0  0  0  0  0  0  0
   -1.8616    0.8003   -1.1587 N   0  0  0  0  0  0  0  0  0  0  0  0
   -1.3180   -0.4120   -0.7686 C   0  0  0  0  0  0  0  0  0  0  0  0
    0.3249   -0.7947   -1.2401 S   0  0  0  0  0  0  0  0  0  0  0  0
    0.9646   -1.2460    0.4005 C   0  0  0  0  0  0  0  0  0  0  0  0
    2.4756   -1.1787    0.3894 C   0  0  0  0  0  0  0  0  0  0  0  0
    3.2126   -2.3004    0.3205 C   0  0  0  0  0  0  0  0  0  0  0  0
    4.6877   -2.2048    0.3143 C   0  0  0  0  0  0  0  0  0  0  0  0
    5.3677   -3.2249    0.2523 O   0  0  0  0  0  0  0  0  0  0  0  0
    5.1716   -0.9233    0.3868 N   0  0  0  0  0  0  0  0  0  0  0  0
    6.5070   -0.5834    0.3949 C   0  0  0  0  0  0  0  0  0  0  0  0
    6.7303    0.7330    0.4829 C   0  0  0  0  0  0  0  0  0  0  0  0
    5.2383    1.6311    0.5642 S   0  0  0  0  0  0  0  0  0  0  0  0
    4.3081    0.1441    0.4707 C   0  0  0  0  0  0  0  0  0  0  0  0
    3.0207    0.0872    0.4846 N   0  0  0  0  0  0  0  0  0  0  0  0
   -1.9402   -1.3092   -0.0757 N   0  0  0  0  0  0  0  0  0  0  0  0
   -3.2549   -1.0510    0.3190 C   0  0  0  0  0  0  0  0  0  0  0  0
   -3.9344   -2.0106    1.0736 C   0  0  0  0  0  0  0  0  0  0  0  0
   -5.2507   -1.7895    1.4880 C   0  0  0  0  0  0  0  0  0  0  0  0
   -5.8992   -0.6026    1.1491 C   0  0  0  0  0  0  0  0  0  0  0  0
   -5.2306    0.3614    0.3956 C   0  0  0  0  0  0  0  0  0  0  0  0
   -3.9118    0.1287   -0.0140 C   0  0  0  0  0  0  0  0  0  0  0  0
   -3.1735    1.1226   -0.8118 C   0  0  0  0  0  0  0  0  0  0  0  0
   -3.7442    2.1639   -1.1309 O   0  0  0  0  0  0  0  0  0  0  0  0
   -1.6099    4.3805   -0.9781 H   0  0  0  0  0  0  0  0  0  0  0  0
   -0.0822    4.4995    0.0731 H   0  0  0  0  0  0  0  0  0  0  0  0
    0.5792    2.2626   -0.5686 H   0  0  0  0  0  0  0  0  0  0  0  0
   -1.8297    2.4259   -2.5008 H   0  0  0  0  0  0  0  0  0  0  0  0
   -0.4570    1.3564   -2.6470 H   0  0  0  0  0  0  0  0  0  0  0  0
    0.5782   -0.5586    1.1622 H   0  0  0  0  0  0  0  0  0  0  0  0
    0.6134   -2.2520    0.6555 H   0  0  0  0  0  0  0  0  0  0  0  0
    2.7870   -3.2933    0.2532 H   0  0  0  0  0  0  0  0  0  0  0  0
    7.2599   -1.3593    0.3332 H   0  0  0  0  0  0  0  0  0  0  0  0
    7.7019    1.2075    0.5042 H   0  0  0  0  0  0  0  0  0  0  0  0
   -3.4328   -2.9381    1.3383 H   0  0  0  0  0  0  0  0  0  0  0  0
   -5.7683   -2.5449    2.0745 H   0  0  0  0  0  0  0  0  0  0  0  0
   -6.9234   -0.4288    1.4704 H   0  0  0  0  0  0  0  0  0  0  0  0
   -5.7338    1.2882    0.1292 H   0  0  0  0  0  0  0  0  0  0  0  0
  1  2  2  0
  2  3  1  0
  3  4  1  0
  4  5  1  0
  5  6  1  0
  6  7  1  0
  7  8  1  0
  8  9  2  0
  9 10  1  0
 10 11  2  0
 10 12  1  0
 12 13  1  0
 13 14  2  0
 14 15  1  0
 15 16  1  0
 16 17  2  0
  5 18  2  0
 18 19  1  0
 19 20  2  0
 20 21  1  0
 21 22  2  0
 22 23  1  0
 23 24  2  0
 24 25  1  0
 25 26  2  0
 25  4  1  0
 17  8  1  0
 24 19  1  0
 16 12  1  0
  1 27  1  0
  1 28  1  0
  2 29  1  0
  3 30  1  0
  3 31  1  0
  7 32  1  0
  7 33  1  0
  9 34  1  0
 13 35  1  0
 14 36  1  0
 20 37  1  0
 21 38  1  0
 22 39  1  0
 23 40  1  0
M  END
$$$$
