
     RDKit          3D

 57 61  0  0  0  0  0  0  0  0999 V2000
   -6.9298    1.6239    3.9698 C   0  0  0  0  0  0  0  0  0  0  0  0
   -6.0749    1.3085    2.7790 C   0  0  0  0  0  0  0  0  0  0  0  0
   -6.5666    1.4873    1.4846 C   0  0  0  0  0  0  0  0  0  0  0  0
   -5.7780    1.1613    0.3755 C   0  0  0  0  0  0  0  0  0  0  0  0
   -4.4783    0.6420    0.5190 C   0  0  0  0  0  0  0  0  0  0  0  0
   -3.6635    0.3116   -0.6707 C   0  0  0  0  0  0  0  0  0  0  0  0
   -2.2801    0.3604   -0.6789 C   0  0  0  0  0  0  0  0  0  0  0  0
   -1.6099    0.0307   -1.8588 C   0  0  0  0  0  0  0  0  0  0  0  0
   -0.1309    0.0753   -1.8356 C   0  0  0  0  0  0  0  0  0  0  0  0
    0.4389    0.8987   -2.5366 O   0  0  0  0  0  0  0  0  0  0  0  0
    0.4314   -0.8616   -0.9898 N   0  0  0  0  0  0  0  0  0  0  0  0
    1.8023   -1.0643   -0.7303 C   0  0  0  0  0  0  0  0  0  0  0  0
    2.1387   -2.1047    0.1484 C   0  0  0  0  0  0  0  0  0  0  0  0
    3.4742   -2.3693    0.4646 C   0  0  0  0  0  0  0  0  0  0  0  0
    4.4820   -1.5826   -0.0960 C   0  0  0  0  0  0  0  0  0  0  0  0
    6.1800   -1.9453    0.2792 S   0  0  0  0  0  6  0  0  0  0  0  0
    6.2855   -3.3915    0.3240 O   0  0  0  0  0  0  0  0  0  0  0  0
    7.0422   -1.1841   -0.5994 O   0  0  0  0  0  0  0  0  0  0  0  0
    6.3602   -1.4314    1.8487 N   0  0  0  0  0  0  0  0  0  0  0  0
    6.5958   -0.0770    2.0487 C   0  0  0  0  0  0  0  0  0  0  0  0
    7.4517    0.1698    3.0454 N   0  0  0  0  0  0  0  0  0  0  0  0
    7.6045    1.4687    3.3650 C   0  0  0  0  0  0  0  0  0  0  0  0
    6.9083    2.4876    2.7566 C   0  0  0  0  0  0  0  0  0  0  0  0
    6.0159    2.0978    1.7852 C   0  0  0  0  0  0  0  0  0  0  0  0
    5.8234    0.8153    1.4282 N   0  0  0  0  0  0  0  0  0  0  0  0
    4.1635   -0.5549   -0.9842 C   0  0  0  0  0  0  0  0  0  0  0  0
    2.8238   -0.2941   -1.2928 C   0  0  0  0  0  0  0  0  0  0  0  0
   -2.3102   -0.3260   -3.0274 C   0  0  0  0  0  0  0  0  0  0  0  0
   -1.7060   -0.6659   -4.2640 C   0  0  0  0  0  0  0  0  0  0  0  0
   -2.4807   -1.0172   -5.3673 C   0  0  0  0  0  0  0  0  0  0  0  0
   -3.8631   -1.0357   -5.2516 C   0  0  0  0  0  0  0  0  0  0  0  0
   -4.4600   -0.7011   -4.0336 C   0  0  0  0  0  0  0  0  0  0  0  0
   -3.7107   -0.3463   -2.9194 C   0  0  0  0  0  0  0  0  0  0  0  0
   -4.3587   -0.0426   -1.7807 N   0  0  0  0  0  0  0  0  0  0  0  0
   -4.0099    0.4472    1.8311 C   0  0  0  0  0  0  0  0  0  0  0  0
   -4.7959    0.7720    2.9443 C   0  0  0  0  0  0  0  0  0  0  0  0
   -6.3150    1.9467    4.8166 H   0  0  0  0  0  0  0  0  0  0  0  0
   -7.5024    0.7390    4.2645 H   0  0  0  0  0  0  0  0  0  0  0  0
   -7.6273    2.4382    3.7464 H   0  0  0  0  0  0  0  0  0  0  0  0
   -7.5677    1.8812    1.3237 H   0  0  0  0  0  0  0  0  0  0  0  0
   -6.1905    1.3180   -0.6206 H   0  0  0  0  0  0  0  0  0  0  0  0
   -1.7214    0.6797    0.1944 H   0  0  0  0  0  0  0  0  0  0  0  0
   -0.2045   -1.5026   -0.5305 H   0  0  0  0  0  0  0  0  0  0  0  0
    1.3682   -2.7272    0.5962 H   0  0  0  0  0  0  0  0  0  0  0  0
    3.7206   -3.1853    1.1401 H   0  0  0  0  0  0  0  0  0  0  0  0
    6.9712   -2.0240    2.3981 H   0  0  0  0  0  0  0  0  0  0  0  0
    8.3232    1.6726    4.1538 H   0  0  0  0  0  0  0  0  0  0  0  0
    7.0466    3.5246    3.0294 H   0  0  0  0  0  0  0  0  0  0  0  0
    5.4075    2.8245    1.2541 H   0  0  0  0  0  0  0  0  0  0  0  0
    4.9451    0.0553   -1.4318 H   0  0  0  0  0  0  0  0  0  0  0  0
    2.6133    0.5206   -1.9791 H   0  0  0  0  0  0  0  0  0  0  0  0
   -0.6229   -0.6473   -4.3771 H   0  0  0  0  0  0  0  0  0  0  0  0
   -2.0042   -1.2696   -6.3113 H   0  0  0  0  0  0  0  0  0  0  0  0
   -4.4815   -1.3057   -6.1037 H   0  0  0  0  0  0  0  0  0  0  0  0
   -5.5448   -0.7173   -3.9515 H   0  0  0  0  0  0  0  0  0  0  0  0
   -3.0277    0.0188    2.0139 H   0  0  0  0  0  0  0  0  0  0  0  0
   -4.4005    0.5975    3.9427 H   0  0  0  0  0  0  0  0  0  0  0  0
  1  2  1  0
  2  3  2  0
  3  4  1  0
  4  5  2  0
  5  6  1  0
  6  7  2  0
  7  8  1  0
  8  9  1  0
  9 10  2  0
  9 11  1  0
 11 12  1  0
 12 13  2  0
 13 14  1  0
 14 15  2  0
 15 16  1  0
 16 17  2  0
 16 18  2  0
 16 19  1  0
 19 20  1  0
 20 21  2  0
 21 22  1  0
 22 23  2  0
 23 24  1  0
 24 25  2  0
 15 26  1  0
 26 27  2  0
  8 28  2  0
 28 29  1  0
 29 30  2  0
 30 31  1  0
 31 32  2  0
 32 33  1  0
 33 34  2  0
  5 35  1  0
 35 36  2  0
 36  2  1  0
 34  6  1  0
 27 12  1  0
 33 28  1  0
 25 20  1  0
  1 37  1  0
  1 38  1  0
  1 39  1  0
  3 40  1  0
  4 41  1  0
  7 42  1  0
 11 43  1  0
 13 44  1  0
 14 45  1  0
 19 46  1  0
 22 47  1  0
 23 48  1  0
 24 49  1  0
 26 50  1  0
 27 51  1  0
 29 52  1  0
 30 53  1  0
 31 54  1  0
 32 55  1  0
 35 56  1  0
 36 57  1  0
M  END
$$$$
