
     RDKit          3D

 33 35  0  0  0  0  0  0  0  0999 V2000
   -6.4850   -0.0355   -0.9258 C   0  0  0  0  0  0  0  0  0  0  0  0
   -5.2604   -0.5360   -0.2215 C   0  0  0  0  0  0  0  0  0  0  0  0
   -5.3734   -1.4141    0.8361 C   0  0  0  0  0  0  0  0  0  0  0  0
   -4.1928   -1.8161    1.4140 C   0  0  0  0  0  0  0  0  0  0  0  0
   -2.9823   -1.3991    1.0024 N   0  0  0  0  0  0  0  0  0  0  0  0
   -2.9690   -0.5388   -0.0295 C   0  0  0  0  0  0  0  0  0  0  0  0
   -1.4134    0.0467   -0.6444 S   0  0  0  0  0  0  0  0  0  0  0  0
   -0.3565   -0.3735    0.7736 C   0  0  0  0  0  0  0  0  0  0  0  0
    1.0408    0.1047    0.5580 C   0  0  0  0  0  0  0  0  0  0  0  0
    1.9869   -0.3510   -0.3401 C   0  0  0  0  0  0  0  0  0  0  0  0
    3.1083    0.4188   -0.1421 N   0  0  0  0  0  0  0  0  0  0  0  0
    4.3559    0.3923   -0.7921 C   0  0  0  0  0  0  0  0  0  0  0  0
    4.5955   -0.5937   -1.8940 C   0  0  0  0  0  0  0  0  0  0  0  0
    5.2972    1.2719   -0.3889 C   0  0  0  0  0  0  0  0  0  0  0  0
    5.0010    2.2053    0.6859 C   0  0  0  0  0  0  0  0  0  0  0  0
    3.8020    2.2175    1.2968 C   0  0  0  0  0  0  0  0  0  0  0  0
    2.7940    1.3009    0.8900 C   0  0  0  0  0  0  0  0  0  0  0  0
    1.5651    1.1218    1.3264 N   0  0  0  0  0  0  0  0  0  0  0  0
   -4.0666   -0.0937   -0.6656 N   0  0  0  0  0  0  0  0  0  0  0  0
   -6.2166    0.6501   -1.7359 H   0  0  0  0  0  0  0  0  0  0  0  0
   -7.0412   -0.8729   -1.3585 H   0  0  0  0  0  0  0  0  0  0  0  0
   -7.1315    0.5021   -0.2251 H   0  0  0  0  0  0  0  0  0  0  0  0
   -6.3301   -1.7701    1.1940 H   0  0  0  0  0  0  0  0  0  0  0  0
   -4.1856   -2.5077    2.2516 H   0  0  0  0  0  0  0  0  0  0  0  0
   -0.3405   -1.4595    0.9168 H   0  0  0  0  0  0  0  0  0  0  0  0
   -0.7619    0.0873    1.6811 H   0  0  0  0  0  0  0  0  0  0  0  0
    1.9449   -1.1277   -1.0892 H   0  0  0  0  0  0  0  0  0  0  0  0
    3.8866   -0.4372   -2.7137 H   0  0  0  0  0  0  0  0  0  0  0  0
    5.6045   -0.5005   -2.3103 H   0  0  0  0  0  0  0  0  0  0  0  0
    4.4860   -1.6190   -1.5253 H   0  0  0  0  0  0  0  0  0  0  0  0
    6.2826    1.3137   -0.8423 H   0  0  0  0  0  0  0  0  0  0  0  0
    5.7799    2.9004    0.9840 H   0  0  0  0  0  0  0  0  0  0  0  0
    3.5757    2.9126    2.0967 H   0  0  0  0  0  0  0  0  0  0  0  0
  1  2  1  0
  2  3  2  0
  3  4  1  0
  4  5  2  0
  5  6  1  0
  6  7  1  0
  7  8  1  0
  8  9  1  0
  9 10  2  0
 10 11  1  0
 11 12  1  0
 12 13  1  0
 12 14  2  0
 14 15  1  0
 15 16  2  0
 16 17  1  0
 17 18  2  0
  6 19  2  0
 19  2  1  0
 18  9  1  0
 17 11  1  0
  1 20  1  0
  1 21  1  0
  1 22  1  0
  3 23  1  0
  4 24  1  0
  8 25  1  0
  8 26  1  0
 10 27  1  0
 13 28  1  0
 13 29  1  0
 13 30  1  0
 14 31  1  0
 15 32  1  0
 16 33  1  0
M  END
$$$$
