
     RDKit          3D

 47 49  0  0  0  0  0  0  0  0999 V2000
    6.4003    1.1891    2.8068 C   0  0  0  0  0  0  0  0  0  0  0  0
    5.6240    0.3252    1.8517 C   0  0  0  0  0  0  0  0  0  0  0  0
    4.2967    0.6670    1.5486 C   0  0  0  0  0  0  0  0  0  0  0  0
    3.5350   -0.0939    0.6594 C   0  0  0  0  0  0  0  0  0  0  0  0
    2.2635    0.3689    0.4617 O   0  0  0  0  0  0  0  0  0  0  0  0
    1.4716   -0.2965   -0.5199 C   0  0  0  0  0  0  0  0  0  0  0  0
    0.1689    0.4057   -0.5690 C   0  0  0  0  0  0  0  0  0  0  0  0
   -0.6953    0.9027    0.3740 C   0  0  0  0  0  0  0  0  0  0  0  0
   -1.7874    1.4372   -0.3657 C   0  0  0  0  0  0  0  0  0  0  0  0
   -2.9583    2.1147    0.2187 C   0  0  0  0  0  0  0  0  0  0  0  0
   -2.8723    2.5452    1.3718 O   0  0  0  0  0  0  0  0  0  0  0  0
   -4.1503    2.2646   -0.5109 N   0  0  0  0  0  0  0  0  0  0  0  0
   -5.2598    2.8962    0.1876 C   0  0  0  0  0  0  0  0  0  0  0  0
   -4.5202    1.4405   -1.6721 C   0  0  0  0  0  0  0  0  0  0  0  0
   -4.8889    0.0129   -1.3139 C   0  0  0  0  0  0  0  0  0  0  0  0
   -4.0766   -1.0503   -1.7041 C   0  0  0  0  0  0  0  0  0  0  0  0
   -4.4451   -2.3478   -1.3558 C   0  0  0  0  0  0  0  0  0  0  0  0
   -5.6129   -2.5543   -0.6318 C   0  0  0  0  0  0  0  0  0  0  0  0
   -6.3689   -1.4485   -0.2862 C   0  0  0  0  0  0  0  0  0  0  0  0
   -6.0369   -0.1784   -0.6113 N   0  0  0  0  0  0  0  0  0  0  0  0
   -1.5599    1.2897   -1.6814 N   0  0  0  0  0  0  0  0  0  0  0  0
   -0.3538    0.6303   -1.8019 O   0  0  0  0  0  0  0  0  0  0  0  0
    4.1002   -1.2233    0.0689 C   0  0  0  0  0  0  0  0  0  0  0  0
    5.4248   -1.6003    0.3583 C   0  0  0  0  0  0  0  0  0  0  0  0
    5.9957   -2.8266   -0.3036 C   0  0  0  0  0  0  0  0  0  0  0  0
    6.1835   -0.8155    1.2482 C   0  0  0  0  0  0  0  0  0  0  0  0
    7.8234   -1.2586    1.6007 Cl  0  0  0  0  0  0  0  0  0  0  0  0
    7.2920    1.5926    2.3168 H   0  0  0  0  0  0  0  0  0  0  0  0
    5.8054    2.0425    3.1516 H   0  0  0  0  0  0  0  0  0  0  0  0
    6.6929    0.6145    3.6913 H   0  0  0  0  0  0  0  0  0  0  0  0
    3.8432    1.5455    2.0045 H   0  0  0  0  0  0  0  0  0  0  0  0
    1.3003   -1.3395   -0.2313 H   0  0  0  0  0  0  0  0  0  0  0  0
    1.9619   -0.2501   -1.4989 H   0  0  0  0  0  0  0  0  0  0  0  0
   -0.5708    0.8947    1.4472 H   0  0  0  0  0  0  0  0  0  0  0  0
   -5.7946    2.1440    0.7760 H   0  0  0  0  0  0  0  0  0  0  0  0
   -5.9378    3.3581   -0.5368 H   0  0  0  0  0  0  0  0  0  0  0  0
   -4.9024    3.6792    0.8648 H   0  0  0  0  0  0  0  0  0  0  0  0
   -3.7365    1.4660   -2.4301 H   0  0  0  0  0  0  0  0  0  0  0  0
   -5.3860    1.9054   -2.1592 H   0  0  0  0  0  0  0  0  0  0  0  0
   -3.1684   -0.8794   -2.2742 H   0  0  0  0  0  0  0  0  0  0  0  0
   -3.8252   -3.1899   -1.6497 H   0  0  0  0  0  0  0  0  0  0  0  0
   -5.9280   -3.5515   -0.3481 H   0  0  0  0  0  0  0  0  0  0  0  0
   -7.2912   -1.5563    0.2778 H   0  0  0  0  0  0  0  0  0  0  0  0
    3.5318   -1.8365   -0.6230 H   0  0  0  0  0  0  0  0  0  0  0  0
    6.8137   -2.5506   -0.9765 H   0  0  0  0  0  0  0  0  0  0  0  0
    6.3582   -3.5347    0.4482 H   0  0  0  0  0  0  0  0  0  0  0  0
    5.2409   -3.3499   -0.9002 H   0  0  0  0  0  0  0  0  0  0  0  0
  1  2  1  0
  2  3  2  0
  3  4  1  0
  4  5  1  0
  5  6  1  0
  6  7  1  0
  7  8  2  0
  8  9  1  0
  9 10  1  0
 10 11  2  0
 10 12  1  0
 12 13  1  0
 12 14  1  0
 14 15  1  0
 15 16  2  0
 16 17  1  0
 17 18  2  0
 18 19  1  0
 19 20  2  0
  9 21  2  0
 21 22  1  0
  4 23  2  0
 23 24  1  0
 24 25  1  0
 24 26  2  0
 26 27  1  0
 26  2  1  0
 22  7  1  0
 20 15  1  0
  1 28  1  0
  1 29  1  0
  1 30  1  0
  3 31  1  0
  6 32  1  0
  6 33  1  0
  8 34  1  0
 13 35  1  0
 13 36  1  0
 13 37  1  0
 14 38  1  0
 14 39  1  0
 16 40  1  0
 17 41  1  0
 18 42  1  0
 19 43  1  0
 23 44  1  0
 25 45  1  0
 25 46  1  0
 25 47  1  0
M  END
$$$$
