
     RDKit          3D

 50 53  0  0  0  0  0  0  0  0999 V2000
   -6.5228    4.6960   -2.2645 C   0  0  0  0  0  0  0  0  0  0  0  0
   -6.3770    3.3718   -1.6368 C   0  0  0  0  0  0  0  0  0  0  0  0
   -6.7992    2.8132   -0.4558 C   0  0  0  0  0  0  0  0  0  0  0  0
   -6.3091    1.4897   -0.4965 C   0  0  0  0  0  0  0  0  0  0  0  0
   -6.4984    0.5658    0.5145 N   0  0  0  0  0  0  0  0  0  0  0  0
   -6.0368   -1.0341    0.4468 S   0  0  0  0  0  6  0  0  0  0  0  0
   -6.4371   -1.5976    1.7226 O   0  0  0  0  0  0  0  0  0  0  0  0
   -6.4894   -1.6324   -0.7891 O   0  0  0  0  0  0  0  0  0  0  0  0
   -4.2621   -0.9619    0.4533 C   0  0  0  0  0  0  0  0  0  0  0  0
   -3.5835   -0.8172    1.6648 C   0  0  0  0  0  0  0  0  0  0  0  0
   -2.1856   -0.7994    1.6737 C   0  0  0  0  0  0  0  0  0  0  0  0
   -1.4573   -0.9340    0.4822 C   0  0  0  0  0  0  0  0  0  0  0  0
   -0.0510   -0.9041    0.5849 N   0  0  0  0  0  0  0  0  0  0  0  0
    0.8742   -1.0082   -0.4422 C   0  0  0  0  0  0  0  0  0  0  0  0
    0.6306   -1.1421   -1.6351 O   0  0  0  0  0  0  0  0  0  0  0  0
    2.2948   -0.9350    0.0824 C   0  0  0  0  0  0  0  0  0  0  0  0
    3.3088   -1.0371   -1.0509 C   0  0  0  0  0  0  0  0  0  0  0  0
    4.6712   -0.9633   -0.5524 N   0  0  0  0  0  0  0  0  0  0  0  0
    5.3871   -2.0462   -0.1198 C   0  0  0  0  0  0  0  0  0  0  0  0
    5.0564   -3.2149   -0.0684 O   0  0  0  0  0  0  0  0  0  0  0  0
    6.6770   -1.5342    0.3393 C   0  0  0  0  0  0  0  0  0  0  0  0
    7.7765   -2.1997    0.8446 C   0  0  0  0  0  0  0  0  0  0  0  0
    8.8777   -1.4218    1.2166 C   0  0  0  0  0  0  0  0  0  0  0  0
    8.8516   -0.0177    1.0800 C   0  0  0  0  0  0  0  0  0  0  0  0
    7.7238    0.6328    0.5692 C   0  0  0  0  0  0  0  0  0  0  0  0
    6.6513   -0.1576    0.2054 C   0  0  0  0  0  0  0  0  0  0  0  0
    5.3450    0.2084   -0.3389 C   0  0  0  0  0  0  0  0  0  0  0  0
    4.9705    1.3522   -0.5116 O   0  0  0  0  0  0  0  0  0  0  0  0
   -2.1515   -1.0938   -0.7199 C   0  0  0  0  0  0  0  0  0  0  0  0
   -3.5510   -1.1168   -0.7368 C   0  0  0  0  0  0  0  0  0  0  0  0
   -5.6281    1.2655   -1.6203 N   0  0  0  0  0  0  0  0  0  0  0  0
   -5.6730    2.4451   -2.3383 O   0  0  0  0  0  0  0  0  0  0  0  0
   -7.1022    5.3710   -1.6271 H   0  0  0  0  0  0  0  0  0  0  0  0
   -5.5418    5.1491   -2.4370 H   0  0  0  0  0  0  0  0  0  0  0  0
   -7.0379    4.6103   -3.2262 H   0  0  0  0  0  0  0  0  0  0  0  0
   -7.3795    3.2926    0.3167 H   0  0  0  0  0  0  0  0  0  0  0  0
   -7.0044    0.8166    1.3571 H   0  0  0  0  0  0  0  0  0  0  0  0
   -4.1293   -0.7270    2.6010 H   0  0  0  0  0  0  0  0  0  0  0  0
   -1.6758   -0.6849    2.6272 H   0  0  0  0  0  0  0  0  0  0  0  0
    0.3209   -0.7923    1.5198 H   0  0  0  0  0  0  0  0  0  0  0  0
    2.4224    0.0131    0.6183 H   0  0  0  0  0  0  0  0  0  0  0  0
    2.4463   -1.7510    0.7990 H   0  0  0  0  0  0  0  0  0  0  0  0
    3.1867   -1.9869   -1.5848 H   0  0  0  0  0  0  0  0  0  0  0  0
    3.1590   -0.2214   -1.7680 H   0  0  0  0  0  0  0  0  0  0  0  0
    7.7817   -3.2801    0.9469 H   0  0  0  0  0  0  0  0  0  0  0  0
    9.7676   -1.9042    1.6178 H   0  0  0  0  0  0  0  0  0  0  0  0
    9.7217    0.5653    1.3776 H   0  0  0  0  0  0  0  0  0  0  0  0
    7.6888    1.7121    0.4614 H   0  0  0  0  0  0  0  0  0  0  0  0
   -1.6359   -1.2076   -1.6688 H   0  0  0  0  0  0  0  0  0  0  0  0
   -4.0721   -1.2463   -1.6840 H   0  0  0  0  0  0  0  0  0  0  0  0
  1  2  1  0
  2  3  2  0
  3  4  1  0
  4  5  1  0
  5  6  1  0
  6  7  2  0
  6  8  2  0
  6  9  1  0
  9 10  2  0
 10 11  1  0
 11 12  2  0
 12 13  1  0
 13 14  1  0
 14 15  2  0
 14 16  1  0
 16 17  1  0
 17 18  1  0
 18 19  1  0
 19 20  2  0
 19 21  1  0
 21 22  2  0
 22 23  1  0
 23 24  2  0
 24 25  1  0
 25 26  2  0
 26 27  1  0
 27 28  2  0
 12 29  1  0
 29 30  2  0
  4 31  2  0
 31 32  1  0
 32  2  1  0
 30  9  1  0
 27 18  1  0
 26 21  1  0
  1 33  1  0
  1 34  1  0
  1 35  1  0
  3 36  1  0
  5 37  1  0
 10 38  1  0
 11 39  1  0
 13 40  1  0
 16 41  1  0
 16 42  1  0
 17 43  1  0
 17 44  1  0
 22 45  1  0
 23 46  1  0
 24 47  1  0
 25 48  1  0
 29 49  1  0
 30 50  1  0
M  END
$$$$
