
     RDKit          3D

 67 72  0  0  0  0  0  0  0  0999 V2000
   -0.7268    1.7716    0.1570 O   0  0  0  0  0  0  0  0  0  0  0  0
   -1.3274    0.7472    0.4917 C   0  0  0  0  0  0  0  0  0  0  0  0
   -0.6319   -0.3241    1.3333 C   0  0  0  0  0  0  0  0  0  0  0  0
   -1.1493   -0.2881    2.7824 C   0  0  0  0  0  0  0  0  0  0  0  0
   -0.0374   -0.3820    3.8208 C   0  0  0  0  0  0  0  0  0  0  0  0
    1.0081   -1.4227    3.4339 C   0  0  0  0  0  0  0  0  0  0  0  0
    1.5575   -1.1423    2.1073 N   0  0  0  0  0  0  0  0  0  0  0  0
    2.9205   -1.3997    1.9442 C   0  0  0  0  0  0  0  0  0  0  0  0
    3.4976   -2.3512    2.7454 N   0  0  0  0  0  0  0  0  0  0  0  0
    4.8094   -2.6332    2.6174 C   0  0  0  0  0  0  0  0  0  0  0  0
    5.6971   -2.0895    1.7703 N   0  0  0  0  0  0  0  0  0  0  0  0
    5.1087   -1.1675    0.9908 C   0  0  0  0  0  0  0  0  0  0  0  0
    3.7805   -0.7722    1.0042 C   0  0  0  0  0  0  0  0  0  0  0  0
    3.5815    0.2154    0.0581 N   0  0  0  0  0  0  0  0  0  0  0  0
    4.7506    0.4211   -0.5200 C   0  0  0  0  0  0  0  0  0  0  0  0
    5.7095   -0.4114    0.0155 N   0  0  0  0  0  0  0  0  0  0  0  0
    7.1205   -0.4895   -0.3088 C   0  0  0  0  0  0  0  0  0  0  0  0
    7.4667   -0.1772   -1.7602 C   0  0  0  0  0  0  0  0  0  0  0  0
    7.4902    1.3178   -2.0770 C   0  0  0  0  0  0  0  0  0  0  0  0
    6.3234    2.1317   -1.5133 C   0  0  0  0  0  0  0  0  0  0  0  0
    4.9797    1.4192   -1.6108 C   0  0  0  0  0  0  0  0  0  0  0  0
    0.8953   -0.1408    1.2634 C   0  0  0  0  0  0  0  0  0  0  0  0
   -2.6633    0.5536    0.1433 N   0  0  0  0  0  0  0  0  0  0  0  0
   -3.3940    1.7192   -0.3771 C   0  0  0  0  0  0  0  0  0  0  0  0
   -4.5863    1.3565   -1.2811 C   0  0  0  0  0  0  0  0  0  0  0  0
   -5.4466    0.3453   -0.6198 N   0  0  0  0  0  0  0  0  0  0  0  0
   -6.6866    0.1780   -1.2712 C   0  0  0  0  0  0  0  0  0  0  0  0
   -7.6172    1.2325   -1.2045 C   0  0  0  0  0  0  0  0  0  0  0  0
   -8.8741    1.1488   -1.8145 C   0  0  0  0  0  0  0  0  0  0  0  0
   -9.2335    0.0018   -2.5153 C   0  0  0  0  0  0  0  0  0  0  0  0
   -8.3378   -1.0601   -2.5945 C   0  0  0  0  0  0  0  0  0  0  0  0
   -7.0878   -0.9705   -1.9773 C   0  0  0  0  0  0  0  0  0  0  0  0
   -6.2685   -2.0277   -2.0995 F   0  0  0  0  0  0  0  0  0  0  0  0
   -4.6851   -0.8757   -0.2902 C   0  0  0  0  0  0  0  0  0  0  0  0
   -3.5171   -0.5309    0.6553 C   0  0  0  0  0  0  0  0  0  0  0  0
   -0.8481   -1.3049    0.8930 H   0  0  0  0  0  0  0  0  0  0  0  0
   -1.7322    0.6208    2.9789 H   0  0  0  0  0  0  0  0  0  0  0  0
   -1.8380   -1.1294    2.9345 H   0  0  0  0  0  0  0  0  0  0  0  0
    0.4427    0.5996    3.9236 H   0  0  0  0  0  0  0  0  0  0  0  0
   -0.4664   -0.6245    4.7994 H   0  0  0  0  0  0  0  0  0  0  0  0
    0.5555   -2.4221    3.4265 H   0  0  0  0  0  0  0  0  0  0  0  0
    1.7775   -1.4139    4.2162 H   0  0  0  0  0  0  0  0  0  0  0  0
    5.1950   -3.3973    3.2862 H   0  0  0  0  0  0  0  0  0  0  0  0
    7.4422   -1.5170   -0.0979 H   0  0  0  0  0  0  0  0  0  0  0  0
    7.6496    0.1750    0.3842 H   0  0  0  0  0  0  0  0  0  0  0  0
    8.4616   -0.5822   -1.9833 H   0  0  0  0  0  0  0  0  0  0  0  0
    6.7691   -0.6907   -2.4330 H   0  0  0  0  0  0  0  0  0  0  0  0
    7.5175    1.4350   -3.1682 H   0  0  0  0  0  0  0  0  0  0  0  0
    8.4260    1.7542   -1.7032 H   0  0  0  0  0  0  0  0  0  0  0  0
    6.5336    2.4080   -0.4715 H   0  0  0  0  0  0  0  0  0  0  0  0
    6.2710    3.0738   -2.0739 H   0  0  0  0  0  0  0  0  0  0  0  0
    4.1853    2.1737   -1.5413 H   0  0  0  0  0  0  0  0  0  0  0  0
    4.8629    0.9353   -2.5870 H   0  0  0  0  0  0  0  0  0  0  0  0
    1.1841   -0.2686    0.2132 H   0  0  0  0  0  0  0  0  0  0  0  0
    1.1939    0.8687    1.5753 H   0  0  0  0  0  0  0  0  0  0  0  0
   -3.7526    2.2745    0.4990 H   0  0  0  0  0  0  0  0  0  0  0  0
   -2.7182    2.3824   -0.9275 H   0  0  0  0  0  0  0  0  0  0  0  0
   -5.1368    2.2782   -1.5015 H   0  0  0  0  0  0  0  0  0  0  0  0
   -4.2157    0.9536   -2.2324 H   0  0  0  0  0  0  0  0  0  0  0  0
   -7.3682    2.1319   -0.6450 H   0  0  0  0  0  0  0  0  0  0  0  0
   -9.5702    1.9794   -1.7302 H   0  0  0  0  0  0  0  0  0  0  0  0
  -10.2068   -0.0666   -2.9939 H   0  0  0  0  0  0  0  0  0  0  0  0
   -8.5973   -1.9626   -3.1375 H   0  0  0  0  0  0  0  0  0  0  0  0
   -5.3285   -1.6080    0.2121 H   0  0  0  0  0  0  0  0  0  0  0  0
   -4.2740   -1.3285   -1.2015 H   0  0  0  0  0  0  0  0  0  0  0  0
   -3.9088   -0.1953    1.6226 H   0  0  0  0  0  0  0  0  0  0  0  0
   -2.9318   -1.4362    0.8245 H   0  0  0  0  0  0  0  0  0  0  0  0
  1  2  2  0
  2  3  1  0
  3  4  1  0
  4  5  1  0
  5  6  1  0
  6  7  1  0
  7  8  1  0
  8  9  2  0
  9 10  1  0
 10 11  2  0
 11 12  1  0
 12 13  2  0
 13 14  1  0
 14 15  2  0
 15 16  1  0
 16 17  1  0
 17 18  1  0
 18 19  1  0
 19 20  1  0
 20 21  1  0
  7 22  1  0
  2 23  1  0
 23 24  1  0
 24 25  1  0
 25 26  1  0
 26 27  1  0
 27 28  2  0
 28 29  1  0
 29 30  2  0
 30 31  1  0
 31 32  2  0
 32 33  1  0
 26 34  1  0
 34 35  1  0
 22  3  1  0
 35 23  1  0
 13  8  1  0
 21 15  1  0
 32 27  1  0
 16 12  1  0
  3 36  1  0
  4 37  1  0
  4 38  1  0
  5 39  1  0
  5 40  1  0
  6 41  1  0
  6 42  1  0
 10 43  1  0
 17 44  1  0
 17 45  1  0
 18 46  1  0
 18 47  1  0
 19 48  1  0
 19 49  1  0
 20 50  1  0
 20 51  1  0
 21 52  1  0
 21 53  1  0
 22 54  1  0
 22 55  1  0
 24 56  1  0
 24 57  1  0
 25 58  1  0
 25 59  1  0
 28 60  1  0
 29 61  1  0
 30 62  1  0
 31 63  1  0
 34 64  1  0
 34 65  1  0
 35 66  1  0
 35 67  1  0
M  END
$$$$
