
     RDKit          3D

 25 26  0  0  0  0  0  0  0  0999 V2000
    3.9017   -1.4193   -0.5482 C   0  0  0  0  0  0  0  0  0  0  0  0
    3.3425   -0.1363   -0.0863 C   0  0  0  0  0  0  0  0  0  0  0  0
    4.2260    0.8451    0.2714 O   0  0  0  0  0  0  0  0  0  0  0  0
    3.4336    1.8858    0.6448 C   0  0  0  0  0  0  0  0  0  0  0  0
    2.1405    1.6656    0.5609 N   0  0  0  0  0  0  0  0  0  0  0  0
    2.0664    0.3592    0.0884 C   0  0  0  0  0  0  0  0  0  0  0  0
    0.8044   -0.3324   -0.1658 C   0  0  0  0  0  0  0  0  0  0  0  0
    0.7680   -1.4837   -0.5820 O   0  0  0  0  0  0  0  0  0  0  0  0
   -0.2741    0.4800    0.1242 N   0  0  0  0  0  0  0  0  0  0  0  0
   -1.6434    0.1871    0.0137 C   0  0  0  0  0  0  0  0  0  0  0  0
   -2.1449   -1.0385   -0.4309 C   0  0  0  0  0  0  0  0  0  0  0  0
   -3.5261   -1.2515   -0.5126 C   0  0  0  0  0  0  0  0  0  0  0  0
   -4.4092   -0.2387   -0.1495 C   0  0  0  0  0  0  0  0  0  0  0  0
   -6.1057   -0.5023   -0.2505 Cl  0  0  0  0  0  0  0  0  0  0  0  0
   -3.9235    0.9872    0.2952 C   0  0  0  0  0  0  0  0  0  0  0  0
   -2.5436    1.1981    0.3761 C   0  0  0  0  0  0  0  0  0  0  0  0
    3.5706   -2.2371    0.0991 H   0  0  0  0  0  0  0  0  0  0  0  0
    3.5762   -1.6336   -1.5707 H   0  0  0  0  0  0  0  0  0  0  0  0
    4.9960   -1.4026   -0.5384 H   0  0  0  0  0  0  0  0  0  0  0  0
    3.9399    2.7837    0.9710 H   0  0  0  0  0  0  0  0  0  0  0  0
   -0.0135    1.4045    0.4592 H   0  0  0  0  0  0  0  0  0  0  0  0
   -1.4893   -1.8531   -0.7231 H   0  0  0  0  0  0  0  0  0  0  0  0
   -3.8997   -2.2110   -0.8606 H   0  0  0  0  0  0  0  0  0  0  0  0
   -4.6087    1.7810    0.5798 H   0  0  0  0  0  0  0  0  0  0  0  0
   -2.1842    2.1630    0.7261 H   0  0  0  0  0  0  0  0  0  0  0  0
  1  2  1  0
  2  3  1  0
  3  4  1  0
  4  5  2  0
  5  6  1  0
  6  7  1  0
  7  8  2  0
  7  9  1  0
  9 10  1  0
 10 11  2  0
 11 12  1  0
 12 13  2  0
 13 14  1  0
 13 15  1  0
 15 16  2  0
  6  2  2  0
 16 10  1  0
  1 17  1  0
  1 18  1  0
  1 19  1  0
  4 20  1  0
  9 21  1  0
 11 22  1  0
 12 23  1  0
 15 24  1  0
 16 25  1  0
M  END
$$$$
