
     RDKit          3D

 92 91  0  0  0  0  0  0  0  0999 V2000
  -13.6271   -0.6899    0.3624 C   0  0  0  0  0  0  0  0  0  0  0  0
  -12.2272   -0.4435   -0.1776 C   0  0  0  0  0  0  0  0  0  0  0  0
  -11.1556   -0.8282    0.8445 C   0  0  0  0  0  0  0  0  0  0  0  0
   -9.7511   -0.5565    0.3019 C   0  0  0  0  0  0  0  0  0  0  0  0
   -8.6057   -1.0579    1.2138 C   0  0  0  0  0  0  0  0  0  0  0  0
   -8.5788   -0.3716    2.5995 C   0  0  0  0  0  0  0  0  0  0  0  0
   -9.2704   -1.1877    3.6858 C   0  0  0  0  0  0  0  0  0  0  0  0
   -7.2465   -0.8759    0.4971 C   0  0  0  0  0  0  0  0  0  0  0  0
   -6.9929    0.5482    0.2720 N   0  0  0  0  0  0  0  0  0  0  0  0
   -5.8302    0.8883   -0.1635 C   0  0  0  0  0  0  0  0  0  0  0  0
   -5.5899    2.2002   -0.4116 N   0  0  0  0  0  0  0  0  0  0  0  0
   -4.8449   -0.0042   -0.4343 N   0  0  0  0  0  0  0  0  0  0  0  0
   -3.9627   -0.2322    0.4792 C   0  0  0  0  0  0  0  0  0  0  0  0
   -3.8902    0.3004    1.7285 N   0  0  0  0  0  0  0  0  0  0  0  0
   -2.9125   -1.0884    0.3215 N   0  0  0  0  0  0  0  0  0  0  0  0
   -2.7327   -1.8923   -0.8756 C   0  0  0  0  0  0  0  0  0  0  0  0
   -2.1094   -1.0817   -2.0156 C   0  0  0  0  0  0  0  0  0  0  0  0
   -0.5990   -0.8358   -1.8807 C   0  0  0  0  0  0  0  0  0  0  0  0
   -0.2151    0.0538   -0.6967 C   0  0  0  0  0  0  0  0  0  0  0  0
    1.2431    0.5206   -0.7289 C   0  0  0  0  0  0  0  0  0  0  0  0
    2.2511   -0.6262   -0.6687 C   0  0  0  0  0  0  0  0  0  0  0  0
    3.5811   -0.1063   -0.3603 N   0  0  0  0  0  0  0  0  0  0  0  0
    4.3164    0.3878   -1.2921 C   0  0  0  0  0  0  0  0  0  0  0  0
    4.0188    0.4340   -2.6174 N   0  0  0  0  0  0  0  0  0  0  0  0
    5.5460    0.8937   -0.9854 N   0  0  0  0  0  0  0  0  0  0  0  0
    5.8666    1.2657    0.2070 C   0  0  0  0  0  0  0  0  0  0  0  0
    5.1006    1.2408    1.3308 N   0  0  0  0  0  0  0  0  0  0  0  0
    7.0864    1.7798    0.5436 N   0  0  0  0  0  0  0  0  0  0  0  0
    8.0623    2.1729   -0.4609 C   0  0  0  0  0  0  0  0  0  0  0  0
    8.8757    0.9675   -0.9776 C   0  0  0  0  0  0  0  0  0  0  0  0
    9.8034    1.4437   -2.1167 C   0  0  0  0  0  0  0  0  0  0  0  0
   10.6046    0.3267   -2.7697 C   0  0  0  0  0  0  0  0  0  0  0  0
    9.6151    0.2085    0.1515 C   0  0  0  0  0  0  0  0  0  0  0  0
   10.7145    1.0073    0.8620 C   0  0  0  0  0  0  0  0  0  0  0  0
   11.3617    0.2427    2.0212 C   0  0  0  0  0  0  0  0  0  0  0  0
   12.1369   -0.9887    1.5788 C   0  0  0  0  0  0  0  0  0  0  0  0
  -13.7731   -1.7466    0.6068 H   0  0  0  0  0  0  0  0  0  0  0  0
  -13.8094   -0.0993    1.2666 H   0  0  0  0  0  0  0  0  0  0  0  0
  -14.3754   -0.4076   -0.3844 H   0  0  0  0  0  0  0  0  0  0  0  0
  -12.0905   -1.0237   -1.0977 H   0  0  0  0  0  0  0  0  0  0  0  0
  -12.1255    0.6149   -0.4432 H   0  0  0  0  0  0  0  0  0  0  0  0
  -11.2552   -1.8894    1.0982 H   0  0  0  0  0  0  0  0  0  0  0  0
  -11.3194   -0.2500    1.7604 H   0  0  0  0  0  0  0  0  0  0  0  0
   -9.6537   -1.0450   -0.6765 H   0  0  0  0  0  0  0  0  0  0  0  0
   -9.6450    0.5210    0.1239 H   0  0  0  0  0  0  0  0  0  0  0  0
   -8.7383   -2.1392    1.3548 H   0  0  0  0  0  0  0  0  0  0  0  0
   -7.5420   -0.2229    2.9279 H   0  0  0  0  0  0  0  0  0  0  0  0
   -9.0310    0.6258    2.5449 H   0  0  0  0  0  0  0  0  0  0  0  0
   -9.2119   -0.6597    4.6429 H   0  0  0  0  0  0  0  0  0  0  0  0
   -8.7812   -2.1590    3.8108 H   0  0  0  0  0  0  0  0  0  0  0  0
  -10.3263   -1.3615    3.4651 H   0  0  0  0  0  0  0  0  0  0  0  0
   -7.2668   -1.4108   -0.4607 H   0  0  0  0  0  0  0  0  0  0  0  0
   -6.4667   -1.3291    1.1211 H   0  0  0  0  0  0  0  0  0  0  0  0
   -6.4665    2.6857   -0.5613 H   0  0  0  0  0  0  0  0  0  0  0  0
   -4.9470    2.3049   -1.1854 H   0  0  0  0  0  0  0  0  0  0  0  0
   -2.9477    0.5814    1.9701 H   0  0  0  0  0  0  0  0  0  0  0  0
   -4.5368    1.0720    1.8716 H   0  0  0  0  0  0  0  0  0  0  0  0
   -2.7121   -1.5959    1.1768 H   0  0  0  0  0  0  0  0  0  0  0  0
   -3.6961   -2.3079   -1.1946 H   0  0  0  0  0  0  0  0  0  0  0  0
   -2.0887   -2.7470   -0.6388 H   0  0  0  0  0  0  0  0  0  0  0  0
   -2.6253   -0.1231   -2.1429 H   0  0  0  0  0  0  0  0  0  0  0  0
   -2.2635   -1.6438   -2.9454 H   0  0  0  0  0  0  0  0  0  0  0  0
   -0.2506   -0.3647   -2.8084 H   0  0  0  0  0  0  0  0  0  0  0  0
   -0.0843   -1.8009   -1.8053 H   0  0  0  0  0  0  0  0  0  0  0  0
   -0.8587    0.9414   -0.6835 H   0  0  0  0  0  0  0  0  0  0  0  0
   -0.3845   -0.4817    0.2433 H   0  0  0  0  0  0  0  0  0  0  0  0
    1.4154    1.1241   -1.6279 H   0  0  0  0  0  0  0  0  0  0  0  0
    1.4055    1.1894    0.1258 H   0  0  0  0  0  0  0  0  0  0  0  0
    1.9748   -1.3125    0.1408 H   0  0  0  0  0  0  0  0  0  0  0  0
    2.2403   -1.2255   -1.5850 H   0  0  0  0  0  0  0  0  0  0  0  0
    3.5555   -0.3958   -2.9549 H   0  0  0  0  0  0  0  0  0  0  0  0
    4.8631    0.6325   -3.1421 H   0  0  0  0  0  0  0  0  0  0  0  0
    4.2374    0.7254    1.1239 H   0  0  0  0  0  0  0  0  0  0  0  0
    5.5832    0.7750    2.0895 H   0  0  0  0  0  0  0  0  0  0  0  0
    6.9939    2.4608    1.2887 H   0  0  0  0  0  0  0  0  0  0  0  0
    7.5557    2.6805   -1.2913 H   0  0  0  0  0  0  0  0  0  0  0  0
    8.7343    2.9179   -0.0211 H   0  0  0  0  0  0  0  0  0  0  0  0
    8.1710    0.2487   -1.4177 H   0  0  0  0  0  0  0  0  0  0  0  0
   10.4894    2.2183   -1.7553 H   0  0  0  0  0  0  0  0  0  0  0  0
    9.1907    1.9173   -2.8944 H   0  0  0  0  0  0  0  0  0  0  0  0
   11.1439    0.7134   -3.6402 H   0  0  0  0  0  0  0  0  0  0  0  0
    9.9498   -0.4812   -3.1095 H   0  0  0  0  0  0  0  0  0  0  0  0
   11.3481   -0.0892   -2.0843 H   0  0  0  0  0  0  0  0  0  0  0  0
    8.8838   -0.1299    0.8964 H   0  0  0  0  0  0  0  0  0  0  0  0
   10.0427   -0.7080   -0.2704 H   0  0  0  0  0  0  0  0  0  0  0  0
   11.4934    1.2984    0.1488 H   0  0  0  0  0  0  0  0  0  0  0  0
   10.2935    1.9328    1.2693 H   0  0  0  0  0  0  0  0  0  0  0  0
   12.0517    0.9197    2.5386 H   0  0  0  0  0  0  0  0  0  0  0  0
   10.5974   -0.0487    2.7515 H   0  0  0  0  0  0  0  0  0  0  0  0
   11.4712   -1.7592    1.1799 H   0  0  0  0  0  0  0  0  0  0  0  0
   12.6713   -1.4224    2.4303 H   0  0  0  0  0  0  0  0  0  0  0  0
   12.8738   -0.7355    0.8106 H   0  0  0  0  0  0  0  0  0  0  0  0
  1  2  1  0
  2  3  1  0
  3  4  1  0
  4  5  1  0
  5  6  1  0
  6  7  1  0
  5  8  1  0
  8  9  1  0
  9 10  2  3
 10 11  1  0
 10 12  1  0
 12 13  2  3
 13 14  1  0
 13 15  1  0
 15 16  1  0
 16 17  1  0
 17 18  1  0
 18 19  1  0
 19 20  1  0
 20 21  1  0
 21 22  1  0
 22 23  2  3
 23 24  1  0
 23 25  1  0
 25 26  2  3
 26 27  1  0
 26 28  1  0
 28 29  1  0
 29 30  1  0
 30 31  1  0
 31 32  1  0
 30 33  1  0
 33 34  1  0
 34 35  1  0
 35 36  1  0
  1 37  1  0
  1 38  1  0
  1 39  1  0
  2 40  1  0
  2 41  1  0
  3 42  1  0
  3 43  1  0
  4 44  1  0
  4 45  1  0
  5 46  1  0
  6 47  1  0
  6 48  1  0
  7 49  1  0
  7 50  1  0
  7 51  1  0
  8 52  1  0
  8 53  1  0
 11 54  1  0
 11 55  1  0
 14 56  1  0
 14 57  1  0
 15 58  1  0
 16 59  1  0
 16 60  1  0
 17 61  1  0
 17 62  1  0
 18 63  1  0
 18 64  1  0
 19 65  1  0
 19 66  1  0
 20 67  1  0
 20 68  1  0
 21 69  1  0
 21 70  1  0
 24 71  1  0
 24 72  1  0
 27 73  1  0
 27 74  1  0
 28 75  1  0
 29 76  1  0
 29 77  1  0
 30 78  1  0
 31 79  1  0
 31 80  1  0
 32 81  1  0
 32 82  1  0
 32 83  1  0
 33 84  1  0
 33 85  1  0
 34 86  1  0
 34 87  1  0
 35 88  1  0
 35 89  1  0
 36 90  1  0
 36 91  1  0
 36 92  1  0
M  END
$$$$
