
     RDKit          3D

 45 47  0  0  0  0  0  0  0  0999 V2000
   -4.2981    1.5474   -2.5681 C   0  0  0  0  0  0  0  0  0  0  0  0
   -4.7444    0.3243   -1.7797 C   0  0  0  0  0  0  0  0  0  0  0  0
   -4.3303    0.4197   -0.3738 N   0  0  0  0  0  0  0  0  0  0  0  0
   -5.2971    1.0486    0.5353 C   0  0  0  0  0  0  0  0  0  0  0  0
   -6.1880    0.0029    1.1905 C   0  0  0  0  0  0  0  0  0  0  0  0
   -3.0822   -0.0152    0.0603 C   0  0  0  0  0  0  0  0  0  0  0  0
   -2.7179   -0.0229    1.4174 C   0  0  0  0  0  0  0  0  0  0  0  0
   -1.4590   -0.4599    1.8614 C   0  0  0  0  0  0  0  0  0  0  0  0
   -0.4981   -0.9027    0.9551 C   0  0  0  0  0  0  0  0  0  0  0  0
    0.7847   -1.3983    1.4615 C   0  0  0  0  0  0  0  0  0  0  0  0
    2.0120   -1.0589    1.0448 C   0  0  0  0  0  0  0  0  0  0  0  0
    3.2212   -1.6483    1.6849 C   0  0  0  0  0  0  0  0  0  0  0  0
    3.2789   -2.4600    2.5844 O   0  0  0  0  0  0  0  0  0  0  0  0
    4.3649   -1.0386    0.9987 C   0  0  0  0  0  0  0  0  0  0  0  0
    5.7110   -1.2595    1.2276 C   0  0  0  0  0  0  0  0  0  0  0  0
    6.6268   -0.5534    0.4381 C   0  0  0  0  0  0  0  0  0  0  0  0
    6.1847    0.3521   -0.5563 C   0  0  0  0  0  0  0  0  0  0  0  0
    7.1409    1.1081   -1.4024 C   0  0  0  0  0  0  0  0  0  0  0  0
    6.8429    1.8972   -2.2784 O   0  0  0  0  0  0  0  0  0  0  0  0
    8.4231    0.8364   -1.1076 O   0  0  0  0  0  0  0  0  0  0  0  0
    4.8132    0.5591   -0.7693 C   0  0  0  0  0  0  0  0  0  0  0  0
    3.9254   -0.1493    0.0224 C   0  0  0  0  0  0  0  0  0  0  0  0
    2.4577   -0.1062   -0.0093 C   0  0  0  0  0  0  0  0  0  0  0  0
    1.8015    0.5795   -0.7619 O   0  0  0  0  0  0  0  0  0  0  0  0
   -0.8351   -0.9272   -0.3941 C   0  0  0  0  0  0  0  0  0  0  0  0
   -2.0974   -0.4854   -0.8254 C   0  0  0  0  0  0  0  0  0  0  0  0
   -4.6339    1.4699   -3.6069 H   0  0  0  0  0  0  0  0  0  0  0  0
   -4.7194    2.4646   -2.1434 H   0  0  0  0  0  0  0  0  0  0  0  0
   -3.2092    1.6539   -2.5711 H   0  0  0  0  0  0  0  0  0  0  0  0
   -5.8386    0.2569   -1.8365 H   0  0  0  0  0  0  0  0  0  0  0  0
   -4.3849   -0.5983   -2.2490 H   0  0  0  0  0  0  0  0  0  0  0  0
   -4.8042    1.6728    1.2889 H   0  0  0  0  0  0  0  0  0  0  0  0
   -5.9359    1.7423   -0.0264 H   0  0  0  0  0  0  0  0  0  0  0  0
   -6.9170    0.4864    1.8483 H   0  0  0  0  0  0  0  0  0  0  0  0
   -6.7387   -0.5711    0.4379 H   0  0  0  0  0  0  0  0  0  0  0  0
   -5.6088   -0.7064    1.7893 H   0  0  0  0  0  0  0  0  0  0  0  0
   -3.4129    0.3031    2.1844 H   0  0  0  0  0  0  0  0  0  0  0  0
   -1.2478   -0.4434    2.9282 H   0  0  0  0  0  0  0  0  0  0  0  0
    0.6901   -2.1058    2.2859 H   0  0  0  0  0  0  0  0  0  0  0  0
    6.0433   -1.9556    1.9926 H   0  0  0  0  0  0  0  0  0  0  0  0
    7.6923   -0.7115    0.6007 H   0  0  0  0  0  0  0  0  0  0  0  0
    8.9339    1.3957   -1.7311 H   0  0  0  0  0  0  0  0  0  0  0  0
    4.4518    1.2502   -1.5272 H   0  0  0  0  0  0  0  0  0  0  0  0
   -0.1273   -1.2798   -1.1399 H   0  0  0  0  0  0  0  0  0  0  0  0
   -2.2740   -0.5134   -1.8958 H   0  0  0  0  0  0  0  0  0  0  0  0
  1  2  1  0
  2  3  1  0
  3  4  1  0
  4  5  1  0
  3  6  1  0
  6  7  2  0
  7  8  1  0
  8  9  2  0
  9 10  1  0
 10 11  2  3
 11 12  1  0
 12 13  2  0
 12 14  1  0
 14 15  2  0
 15 16  1  0
 16 17  2  0
 17 18  1  0
 18 19  2  0
 18 20  1  0
 17 21  1  0
 21 22  2  0
 22 23  1  0
 23 24  2  0
  9 25  1  0
 25 26  2  0
 26  6  1  0
 23 11  1  0
 22 14  1  0
  1 27  1  0
  1 28  1  0
  1 29  1  0
  2 30  1  0
  2 31  1  0
  4 32  1  0
  4 33  1  0
  5 34  1  0
  5 35  1  0
  5 36  1  0
  7 37  1  0
  8 38  1  0
 10 39  1  0
 15 40  1  0
 16 41  1  0
 20 42  1  0
 21 43  1  0
 25 44  1  0
 26 45  1  0
M  END
$$$$
