
     RDKit          3D

 41 44  0  0  0  0  0  0  0  0999 V2000
   -6.5358   -0.8777   -0.5764 C   0  0  0  0  0  0  0  0  0  0  0  0
   -5.4605   -1.2010    0.4640 C   0  0  0  0  0  0  0  0  0  0  0  0
   -5.0576   -2.6760    0.3920 C   0  0  0  0  0  0  0  0  0  0  0  0
   -4.2561   -0.2867    0.3252 C   0  0  0  0  0  0  0  0  0  0  0  0
   -3.4763   -0.2668   -0.8401 C   0  0  0  0  0  0  0  0  0  0  0  0
   -2.3673    0.5780   -0.9457 C   0  0  0  0  0  0  0  0  0  0  0  0
   -2.0111    1.4118    0.1172 C   0  0  0  0  0  0  0  0  0  0  0  0
   -0.8734    2.3296    0.0223 C   0  0  0  0  0  0  0  0  0  0  0  0
    0.4193    1.9883   -0.0882 C   0  0  0  0  0  0  0  0  0  0  0  0
    1.6827    3.2202   -0.1822 S   0  0  0  0  0  0  0  0  0  0  0  0
    2.8698    1.9899   -0.2679 C   0  0  0  0  0  0  0  0  0  0  0  0
    4.1670    1.9604   -0.3661 N   0  0  0  0  0  0  0  0  0  0  0  0
    4.4212    0.5921   -0.3838 C   0  0  0  0  0  0  0  0  0  0  0  0
    5.7765    0.0624   -0.4854 C   0  0  0  0  0  0  0  0  0  0  0  0
    6.0108   -1.3149   -0.4997 C   0  0  0  0  0  0  0  0  0  0  0  0
    7.3173   -1.7614   -0.5978 C   0  0  0  0  0  0  0  0  0  0  0  0
    8.3859   -0.9412   -0.6812 N   0  0  0  0  0  0  0  0  0  0  0  0
    8.1378    0.3852   -0.6655 C   0  0  0  0  0  0  0  0  0  0  0  0
    6.8685    0.9293   -0.5704 C   0  0  0  0  0  0  0  0  0  0  0  0
    3.3180   -0.1840   -0.3010 N   0  0  0  0  0  0  0  0  0  0  0  0
    2.3518    0.7487   -0.2274 N   0  0  0  0  0  0  0  0  0  0  0  0
    0.9845    0.5972   -0.1265 C   0  0  0  0  0  0  0  0  0  0  0  0
    0.4377   -0.4879   -0.0862 O   0  0  0  0  0  0  0  0  0  0  0  0
   -2.7896    1.4063    1.2780 C   0  0  0  0  0  0  0  0  0  0  0  0
   -3.8992    0.5623    1.3821 C   0  0  0  0  0  0  0  0  0  0  0  0
   -6.1896   -1.0706   -1.5976 H   0  0  0  0  0  0  0  0  0  0  0  0
   -7.4297   -1.4881   -0.4081 H   0  0  0  0  0  0  0  0  0  0  0  0
   -6.8331    0.1753   -0.5179 H   0  0  0  0  0  0  0  0  0  0  0  0
   -5.9103   -1.0379    1.4524 H   0  0  0  0  0  0  0  0  0  0  0  0
   -4.6493   -2.9420   -0.5891 H   0  0  0  0  0  0  0  0  0  0  0  0
   -4.2971   -2.9112    1.1449 H   0  0  0  0  0  0  0  0  0  0  0  0
   -5.9234   -3.3208    0.5773 H   0  0  0  0  0  0  0  0  0  0  0  0
   -3.7210   -0.9147   -1.6788 H   0  0  0  0  0  0  0  0  0  0  0  0
   -1.7857    0.5663   -1.8641 H   0  0  0  0  0  0  0  0  0  0  0  0
   -1.1571    3.3801    0.0681 H   0  0  0  0  0  0  0  0  0  0  0  0
    5.1969   -2.0304   -0.4358 H   0  0  0  0  0  0  0  0  0  0  0  0
    7.5454   -2.8235   -0.6123 H   0  0  0  0  0  0  0  0  0  0  0  0
    9.0155    1.0217   -0.7337 H   0  0  0  0  0  0  0  0  0  0  0  0
    6.7395    2.0069   -0.5632 H   0  0  0  0  0  0  0  0  0  0  0  0
   -2.5402    2.0528    2.1162 H   0  0  0  0  0  0  0  0  0  0  0  0
   -4.4825    0.5721    2.3005 H   0  0  0  0  0  0  0  0  0  0  0  0
  1  2  1  0
  2  3  1  0
  2  4  1  0
  4  5  2  0
  5  6  1  0
  6  7  2  0
  7  8  1  0
  8  9  2  3
  9 10  1  0
 10 11  1  0
 11 12  2  0
 12 13  1  0
 13 14  1  0
 14 15  2  0
 15 16  1  0
 16 17  2  0
 17 18  1  0
 18 19  2  0
 13 20  2  0
 20 21  1  0
 21 22  1  0
 22 23  2  0
  7 24  1  0
 24 25  2  0
 25  4  1  0
 22  9  1  0
 21 11  1  0
 19 14  1  0
  1 26  1  0
  1 27  1  0
  1 28  1  0
  2 29  1  0
  3 30  1  0
  3 31  1  0
  3 32  1  0
  5 33  1  0
  6 34  1  0
  8 35  1  0
 15 36  1  0
 16 37  1  0
 18 38  1  0
 19 39  1  0
 24 40  1  0
 25 41  1  0
M  END
$$$$
