
     RDKit          3D

 53 55  0  0  0  0  0  0  0  0999 V2000
   -8.2545    1.5524   -2.7676 C   0  0  0  0  0  0  0  0  0  0  0  0
   -7.3850    2.1549   -1.8194 O   0  0  0  0  0  0  0  0  0  0  0  0
   -6.1607    1.5684   -1.6157 C   0  0  0  0  0  0  0  0  0  0  0  0
   -5.7182    0.4137   -2.2687 C   0  0  0  0  0  0  0  0  0  0  0  0
   -4.4514   -0.1107   -1.9969 C   0  0  0  0  0  0  0  0  0  0  0  0
   -3.6052    0.5191   -1.0817 C   0  0  0  0  0  0  0  0  0  0  0  0
   -2.2855   -0.0617   -0.8174 C   0  0  0  0  0  0  0  0  0  0  0  0
   -1.1512    0.6527   -0.8842 C   0  0  0  0  0  0  0  0  0  0  0  0
    0.1570   -0.0104   -0.6202 C   0  0  0  0  0  0  0  0  0  0  0  0
    0.2138   -1.1837   -0.2764 O   0  0  0  0  0  0  0  0  0  0  0  0
    1.2174    0.8590   -0.7813 N   0  0  0  0  0  0  0  0  0  0  0  0
    2.5891    0.5563   -0.6433 C   0  0  0  0  0  0  0  0  0  0  0  0
    3.4889    1.6312   -0.6767 C   0  0  0  0  0  0  0  0  0  0  0  0
    4.8633    1.4211   -0.5342 C   0  0  0  0  0  0  0  0  0  0  0  0
    5.3538    0.1311   -0.3533 C   0  0  0  0  0  0  0  0  0  0  0  0
    4.4611   -0.9429   -0.3161 C   0  0  0  0  0  0  0  0  0  0  0  0
    5.0861   -2.6027   -0.1352 S   0  0  0  0  0  6  0  0  0  0  0  0
    6.5131   -2.5507   -0.3819 O   0  0  0  0  0  0  0  0  0  0  0  0
    4.2280   -3.4797   -0.9019 O   0  0  0  0  0  0  0  0  0  0  0  0
    4.8679   -2.9388    1.4978 N   0  0  0  0  0  0  0  0  0  0  0  0
    3.5125   -3.1947    2.0227 C   0  0  0  0  0  0  0  0  0  0  0  0
    3.6818   -3.0507    3.5292 C   0  0  0  0  0  0  0  0  0  0  0  0
    4.6885   -1.9198    3.6359 C   0  0  0  0  0  0  0  0  0  0  0  0
    5.6688   -2.2188    2.5078 C   0  0  0  0  0  0  0  0  0  0  0  0
    3.0868   -0.7377   -0.4884 C   0  0  0  0  0  0  0  0  0  0  0  0
   -4.0505    1.6678   -0.4140 C   0  0  0  0  0  0  0  0  0  0  0  0
   -5.3230    2.1949   -0.6708 C   0  0  0  0  0  0  0  0  0  0  0  0
   -5.8324    3.3172   -0.0624 O   0  0  0  0  0  0  0  0  0  0  0  0
   -5.1163    3.8489    1.0433 C   0  0  0  0  0  0  0  0  0  0  0  0
   -8.5323    0.5388   -2.4599 H   0  0  0  0  0  0  0  0  0  0  0  0
   -7.8119    1.5562   -3.7694 H   0  0  0  0  0  0  0  0  0  0  0  0
   -9.1707    2.1496   -2.8078 H   0  0  0  0  0  0  0  0  0  0  0  0
   -6.3346   -0.1055   -2.9948 H   0  0  0  0  0  0  0  0  0  0  0  0
   -4.1288   -1.0109   -2.5170 H   0  0  0  0  0  0  0  0  0  0  0  0
   -2.2665   -1.1258   -0.5876 H   0  0  0  0  0  0  0  0  0  0  0  0
   -1.1598    1.7037   -1.1433 H   0  0  0  0  0  0  0  0  0  0  0  0
    1.0006    1.8258   -0.9826 H   0  0  0  0  0  0  0  0  0  0  0  0
    3.1337    2.6500   -0.8108 H   0  0  0  0  0  0  0  0  0  0  0  0
    5.5497    2.2638   -0.5687 H   0  0  0  0  0  0  0  0  0  0  0  0
    6.4249   -0.0305   -0.2541 H   0  0  0  0  0  0  0  0  0  0  0  0
    2.7964   -2.4525    1.6636 H   0  0  0  0  0  0  0  0  0  0  0  0
    3.1675   -4.1968    1.7552 H   0  0  0  0  0  0  0  0  0  0  0  0
    4.0999   -3.9704    3.9562 H   0  0  0  0  0  0  0  0  0  0  0  0
    2.7394   -2.8301    4.0378 H   0  0  0  0  0  0  0  0  0  0  0  0
    4.1917   -0.9586    3.4562 H   0  0  0  0  0  0  0  0  0  0  0  0
    5.1767   -1.8743    4.6129 H   0  0  0  0  0  0  0  0  0  0  0  0
    6.1203   -1.2977    2.1317 H   0  0  0  0  0  0  0  0  0  0  0  0
    6.4684   -2.8828    2.8534 H   0  0  0  0  0  0  0  0  0  0  0  0
    2.4302   -1.6024   -0.5142 H   0  0  0  0  0  0  0  0  0  0  0  0
   -3.3926    2.1343    0.3108 H   0  0  0  0  0  0  0  0  0  0  0  0
   -5.7150    4.6589    1.4721 H   0  0  0  0  0  0  0  0  0  0  0  0
   -4.9701    3.0949    1.8252 H   0  0  0  0  0  0  0  0  0  0  0  0
   -4.1609    4.2766    0.7213 H   0  0  0  0  0  0  0  0  0  0  0  0
  1  2  1  0
  2  3  1  0
  3  4  2  0
  4  5  1  0
  5  6  2  0
  6  7  1  0
  7  8  2  3
  8  9  1  0
  9 10  2  0
  9 11  1  0
 11 12  1  0
 12 13  2  0
 13 14  1  0
 14 15  2  0
 15 16  1  0
 16 17  1  0
 17 18  2  0
 17 19  2  0
 17 20  1  0
 20 21  1  0
 21 22  1  0
 22 23  1  0
 23 24  1  0
 16 25  2  0
  6 26  1  0
 26 27  2  0
 27 28  1  0
 28 29  1  0
 27  3  1  0
 25 12  1  0
 24 20  1  0
  1 30  1  0
  1 31  1  0
  1 32  1  0
  4 33  1  0
  5 34  1  0
  7 35  1  0
  8 36  1  0
 11 37  1  0
 13 38  1  0
 14 39  1  0
 15 40  1  0
 21 41  1  0
 21 42  1  0
 22 43  1  0
 22 44  1  0
 23 45  1  0
 23 46  1  0
 24 47  1  0
 24 48  1  0
 25 49  1  0
 26 50  1  0
 29 51  1  0
 29 52  1  0
 29 53  1  0
M  END
$$$$
