
     RDKit          3D

 58 61  0  0  0  0  0  0  0  0999 V2000
    2.2760   -1.4036   -0.9412 O   0  0  0  0  0  0  0  0  0  0  0  0
    2.1405   -1.2718    0.2702 C   0  0  0  0  0  0  0  0  0  0  0  0
    3.2128   -1.2011    1.1356 N   0  0  0  0  0  0  0  0  0  0  0  0
    4.5812   -1.2604    0.6564 C   0  0  0  0  0  0  0  0  0  0  0  0
    5.0456    0.0749    0.0700 C   0  0  0  0  0  0  0  0  0  0  0  0
    6.4777    0.0108   -0.4001 C   0  0  0  0  0  0  0  0  0  0  0  0
    6.7780   -0.4885   -1.6758 C   0  0  0  0  0  0  0  0  0  0  0  0
    8.1025   -0.5674   -2.1106 C   0  0  0  0  0  0  0  0  0  0  0  0
    9.1321   -0.1503   -1.2704 C   0  0  0  0  0  0  0  0  0  0  0  0
   10.7649   -0.2484   -1.8042 Cl  0  0  0  0  0  0  0  0  0  0  0  0
    8.8486    0.3441    0.0011 C   0  0  0  0  0  0  0  0  0  0  0  0
    7.5239    0.4230    0.4367 C   0  0  0  0  0  0  0  0  0  0  0  0
    0.7816   -1.1666    0.9657 C   0  0  0  0  0  0  0  0  0  0  0  0
   -0.3638   -1.5730    0.0220 C   0  0  0  0  0  0  0  0  0  0  0  0
   -1.6968   -1.0043    0.4934 C   0  0  0  0  0  0  0  0  0  0  0  0
   -1.7013    0.5371    0.4530 C   0  0  0  0  0  0  0  0  0  0  0  0
   -2.7127    1.1192    1.4588 C   0  0  0  0  0  0  0  0  0  0  0  0
   -4.0703    0.6792    1.1730 N   0  0  0  0  0  0  0  0  0  0  0  0
   -4.8975    1.1040    0.1417 C   0  0  0  0  0  0  0  0  0  0  0  0
   -4.5907    2.2627   -0.5214 N   0  0  0  0  0  0  0  0  0  0  0  0
   -5.3003    2.8106   -1.5561 C   0  0  0  0  0  0  0  0  0  0  0  0
   -4.7397    4.2506   -2.2083 S   0  0  0  0  0  0  0  0  0  0  0  0
   -6.4157    2.1611   -2.0006 N   0  0  0  0  0  0  0  0  0  0  0  0
   -6.7472    1.0650   -1.3977 C   0  0  0  0  0  0  0  0  0  0  0  0
   -7.9609    0.3393   -1.8678 C   0  0  0  0  0  0  0  0  0  0  0  0
   -8.3565   -0.7946   -1.2753 C   0  0  0  0  0  0  0  0  0  0  0  0
   -7.6430   -1.3645   -0.1598 C   0  0  0  0  0  0  0  0  0  0  0  0
   -6.5357   -0.7877    0.3287 C   0  0  0  0  0  0  0  0  0  0  0  0
   -6.0091    0.4386   -0.2488 C   0  0  0  0  0  0  0  0  0  0  0  0
   -0.2942    1.1245    0.6830 C   0  0  0  0  0  0  0  0  0  0  0  0
    0.5735    0.2360    1.5716 C   0  0  0  0  0  0  0  0  0  0  0  0
    3.0508   -1.0726    2.1256 H   0  0  0  0  0  0  0  0  0  0  0  0
    5.2067   -1.5475    1.5091 H   0  0  0  0  0  0  0  0  0  0  0  0
    4.6533   -2.0580   -0.0925 H   0  0  0  0  0  0  0  0  0  0  0  0
    4.9365    0.8697    0.8194 H   0  0  0  0  0  0  0  0  0  0  0  0
    4.4031    0.3746   -0.7676 H   0  0  0  0  0  0  0  0  0  0  0  0
    5.9788   -0.8180   -2.3383 H   0  0  0  0  0  0  0  0  0  0  0  0
    8.3218   -0.9539   -3.1022 H   0  0  0  0  0  0  0  0  0  0  0  0
    9.6524    0.6692    0.6561 H   0  0  0  0  0  0  0  0  0  0  0  0
    7.3152    0.8105    1.4314 H   0  0  0  0  0  0  0  0  0  0  0  0
    0.8062   -1.8879    1.7949 H   0  0  0  0  0  0  0  0  0  0  0  0
   -0.4212   -2.6673   -0.0250 H   0  0  0  0  0  0  0  0  0  0  0  0
   -0.1790   -1.2333   -1.0047 H   0  0  0  0  0  0  0  0  0  0  0  0
   -1.8968   -1.3661    1.5102 H   0  0  0  0  0  0  0  0  0  0  0  0
   -2.5058   -1.3892   -0.1390 H   0  0  0  0  0  0  0  0  0  0  0  0
   -2.0094    0.8464   -0.5551 H   0  0  0  0  0  0  0  0  0  0  0  0
   -2.4540    0.7980    2.4750 H   0  0  0  0  0  0  0  0  0  0  0  0
   -2.6664    2.2141    1.4684 H   0  0  0  0  0  0  0  0  0  0  0  0
   -4.2612   -0.2635    1.4953 H   0  0  0  0  0  0  0  0  0  0  0  0
   -3.7835    2.7904   -0.2294 H   0  0  0  0  0  0  0  0  0  0  0  0
   -8.4974    0.7729   -2.7035 H   0  0  0  0  0  0  0  0  0  0  0  0
   -9.2428   -1.3146   -1.6271 H   0  0  0  0  0  0  0  0  0  0  0  0
   -8.0348   -2.2775    0.2796 H   0  0  0  0  0  0  0  0  0  0  0  0
   -6.0371   -1.2416    1.1760 H   0  0  0  0  0  0  0  0  0  0  0  0
    0.2061    1.2395   -0.2878 H   0  0  0  0  0  0  0  0  0  0  0  0
   -0.3573    2.1321    1.1103 H   0  0  0  0  0  0  0  0  0  0  0  0
    1.5272    0.7426    1.7574 H   0  0  0  0  0  0  0  0  0  0  0  0
    0.0852    0.1325    2.5491 H   0  0  0  0  0  0  0  0  0  0  0  0
  1  2  2  0
  2  3  1  0
  3  4  1  0
  4  5  1  0
  5  6  1  0
  6  7  2  0
  7  8  1  0
  8  9  2  0
  9 10  1  0
  9 11  1  0
 11 12  2  0
  2 13  1  0
 13 14  1  0
 14 15  1  0
 15 16  1  0
 16 17  1  0
 17 18  1  0
 18 19  1  0
 19 20  1  0
 20 21  1  0
 21 22  2  0
 21 23  1  0
 23 24  2  0
 24 25  1  0
 25 26  2  0
 26 27  1  0
 27 28  2  0
 28 29  1  0
 16 30  1  0
 30 31  1  0
 12  6  1  0
 31 13  1  0
 29 19  2  0
 29 24  1  0
  3 32  1  0
  4 33  1  0
  4 34  1  0
  5 35  1  0
  5 36  1  0
  7 37  1  0
  8 38  1  0
 11 39  1  0
 12 40  1  0
 13 41  1  0
 14 42  1  0
 14 43  1  0
 15 44  1  0
 15 45  1  0
 16 46  1  0
 17 47  1  0
 17 48  1  0
 18 49  1  0
 20 50  1  0
 25 51  1  0
 26 52  1  0
 27 53  1  0
 28 54  1  0
 30 55  1  0
 30 56  1  0
 31 57  1  0
 31 58  1  0
M  END
$$$$
