
     RDKit          3D

 48 50  0  0  0  0  0  0  0  0999 V2000
    2.6637    0.4767    1.9069 C   0  0  0  0  0  0  0  0  0  0  0  0
    1.4000    0.5717    1.4663 C   0  0  0  0  0  0  0  0  0  0  0  0
    0.2938    1.2456    2.1486 C   0  0  0  0  0  0  0  0  0  0  0  0
    0.2600    2.0609    3.3714 C   0  0  0  0  0  0  0  0  0  0  0  0
   -0.7940    2.3933    3.9060 O   0  0  0  0  0  0  0  0  0  0  0  0
    1.4920    2.4288    3.7920 O   0  0  0  0  0  0  0  0  0  0  0  0
    1.4934    3.2493    4.9612 C   0  0  0  0  0  0  0  0  0  0  0  0
   -0.8366    1.0166    1.4509 C   0  0  0  0  0  0  0  0  0  0  0  0
   -2.1046    1.4418    1.7343 O   0  0  0  0  0  0  0  0  0  0  0  0
   -0.5424    0.2266    0.2555 C   0  0  0  0  0  0  0  0  0  0  0  0
   -1.4066   -0.1482   -0.7078 C   0  0  0  0  0  0  0  0  0  0  0  0
   -2.8461    0.1151   -0.7578 C   0  0  0  0  0  0  0  0  0  0  0  0
   -3.7469   -0.7905   -0.1860 C   0  0  0  0  0  0  0  0  0  0  0  0
   -5.1200   -0.5470   -0.2497 C   0  0  0  0  0  0  0  0  0  0  0  0
   -5.5870    0.5992   -0.8825 C   0  0  0  0  0  0  0  0  0  0  0  0
   -6.9356    0.7992   -0.9206 O   0  0  0  0  0  0  0  0  0  0  0  0
   -4.7038    1.5096   -1.4559 C   0  0  0  0  0  0  0  0  0  0  0  0
   -3.3298    1.2648   -1.3936 C   0  0  0  0  0  0  0  0  0  0  0  0
    0.8456   -0.0106    0.3098 N   0  0  0  0  0  0  0  0  0  0  0  0
    1.5736   -0.7865   -0.6314 C   0  0  0  0  0  0  0  0  0  0  0  0
    1.2434   -2.1302   -0.8666 C   0  0  0  0  0  0  0  0  0  0  0  0
    1.9479   -2.8976   -1.8036 C   0  0  0  0  0  0  0  0  0  0  0  0
    1.5954   -4.3395   -2.0194 C   0  0  0  0  0  0  0  0  0  0  0  0
    3.0196   -2.3173   -2.4926 C   0  0  0  0  0  0  0  0  0  0  0  0
    3.3793   -0.9833   -2.2662 C   0  0  0  0  0  0  0  0  0  0  0  0
    4.5003   -0.3588   -3.0427 C   0  0  0  0  0  0  0  0  0  0  0  0
    2.6426   -0.2248   -1.3468 C   0  0  0  0  0  0  0  0  0  0  0  0
    3.0072    0.9218    2.8315 H   0  0  0  0  0  0  0  0  0  0  0  0
    3.4104   -0.0860    1.3565 H   0  0  0  0  0  0  0  0  0  0  0  0
    0.9769    4.1942    4.7654 H   0  0  0  0  0  0  0  0  0  0  0  0
    2.5330    3.4700    5.2186 H   0  0  0  0  0  0  0  0  0  0  0  0
    1.0323    2.7214    5.8021 H   0  0  0  0  0  0  0  0  0  0  0  0
   -2.0841    1.9039    2.5983 H   0  0  0  0  0  0  0  0  0  0  0  0
   -1.0475   -0.7003   -1.5717 H   0  0  0  0  0  0  0  0  0  0  0  0
   -3.3850   -1.6830    0.3173 H   0  0  0  0  0  0  0  0  0  0  0  0
   -5.8205   -1.2459    0.1972 H   0  0  0  0  0  0  0  0  0  0  0  0
   -7.1061    1.6505   -1.3550 H   0  0  0  0  0  0  0  0  0  0  0  0
   -5.0600    2.4079   -1.9491 H   0  0  0  0  0  0  0  0  0  0  0  0
   -2.6372    1.9771   -1.8349 H   0  0  0  0  0  0  0  0  0  0  0  0
    0.4305   -2.5834   -0.3027 H   0  0  0  0  0  0  0  0  0  0  0  0
    1.8380   -4.6531   -3.0402 H   0  0  0  0  0  0  0  0  0  0  0  0
    2.1479   -4.9691   -1.3153 H   0  0  0  0  0  0  0  0  0  0  0  0
    0.5223   -4.5041   -1.8764 H   0  0  0  0  0  0  0  0  0  0  0  0
    3.5796   -2.9098   -3.2140 H   0  0  0  0  0  0  0  0  0  0  0  0
    4.1308    0.0076   -4.0051 H   0  0  0  0  0  0  0  0  0  0  0  0
    4.9412    0.4790   -2.4923 H   0  0  0  0  0  0  0  0  0  0  0  0
    5.2997   -1.0854   -3.2218 H   0  0  0  0  0  0  0  0  0  0  0  0
    2.8934    0.8219   -1.1881 H   0  0  0  0  0  0  0  0  0  0  0  0
  1  2  2  0
  2  3  1  0
  3  4  1  0
  4  5  2  0
  4  6  1  0
  6  7  1  0
  3  8  2  0
  8  9  1  0
  8 10  1  0
 10 11  2  3
 11 12  1  0
 12 13  2  0
 13 14  1  0
 14 15  2  0
 15 16  1  0
 15 17  1  0
 17 18  2  0
 10 19  1  0
 19 20  1  0
 20 21  2  0
 21 22  1  0
 22 23  1  0
 22 24  2  0
 24 25  1  0
 25 26  1  0
 25 27  2  0
 19  2  1  0
 27 20  1  0
 18 12  1  0
  1 28  1  0
  1 29  1  0
  7 30  1  0
  7 31  1  0
  7 32  1  0
  9 33  1  0
 11 34  1  0
 13 35  1  0
 14 36  1  0
 16 37  1  0
 17 38  1  0
 18 39  1  0
 21 40  1  0
 23 41  1  0
 23 42  1  0
 23 43  1  0
 24 44  1  0
 26 45  1  0
 26 46  1  0
 26 47  1  0
 27 48  1  0
M  END
$$$$
