
     RDKit          3D

 47 49  0  0  0  0  0  0  0  0999 V2000
    7.6758   -0.7828    0.8412 C   0  0  0  0  0  0  0  0  0  0  0  0
    7.2803   -0.3056   -0.5454 C   0  0  0  0  0  0  0  0  0  0  0  0
    6.2378    0.6648   -0.4693 O   0  0  0  0  0  0  0  0  0  0  0  0
    4.9387    0.2438   -0.4861 C   0  0  0  0  0  0  0  0  0  0  0  0
    4.4938   -1.0757   -0.4568 C   0  0  0  0  0  0  0  0  0  0  0  0
    3.1215   -1.3605   -0.4766 C   0  0  0  0  0  0  0  0  0  0  0  0
    2.1755   -0.3258   -0.5286 C   0  0  0  0  0  0  0  0  0  0  0  0
    0.7767   -0.6295   -0.5493 N   0  0  0  0  0  0  0  0  0  0  0  0
    0.1851   -1.7714   -1.1092 C   0  0  0  0  0  0  0  0  0  0  0  0
    0.8238   -2.6523   -1.8818 O   0  0  0  0  0  0  0  0  0  0  0  0
   -1.1517   -1.7815   -0.7712 C   0  0  0  0  0  0  0  0  0  0  0  0
   -1.4245   -0.5876   -0.0827 C   0  0  0  0  0  0  0  0  0  0  0  0
   -2.6170   -0.1446    0.4215 N   0  0  0  0  0  0  0  0  0  0  0  0
   -2.7390   -0.2063    1.8893 C   0  0  0  0  0  0  0  0  0  0  0  0
   -3.8466   -0.5553   -0.2882 C   0  0  0  0  0  0  0  0  0  0  0  0
   -4.9505    0.4661   -0.1143 C   0  0  0  0  0  0  0  0  0  0  0  0
   -4.7646    1.7897   -0.5425 C   0  0  0  0  0  0  0  0  0  0  0  0
   -5.7819    2.7331   -0.3946 C   0  0  0  0  0  0  0  0  0  0  0  0
   -6.9968    2.3632    0.1790 C   0  0  0  0  0  0  0  0  0  0  0  0
   -7.1958    1.0506    0.6043 C   0  0  0  0  0  0  0  0  0  0  0  0
   -6.1790    0.1050    0.4574 C   0  0  0  0  0  0  0  0  0  0  0  0
   -0.2537    0.1380   -0.0082 C   0  0  0  0  0  0  0  0  0  0  0  0
   -0.0802    1.3476    0.5256 O   0  0  0  0  0  0  0  0  0  0  0  0
    2.6249    0.9974   -0.5331 C   0  0  0  0  0  0  0  0  0  0  0  0
    3.9964    1.2737   -0.5173 C   0  0  0  0  0  0  0  0  0  0  0  0
    8.5233   -1.4719    0.7854 H   0  0  0  0  0  0  0  0  0  0  0  0
    7.9544    0.0668    1.4734 H   0  0  0  0  0  0  0  0  0  0  0  0
    6.8465   -1.2910    1.3419 H   0  0  0  0  0  0  0  0  0  0  0  0
    8.1421    0.2016   -0.9941 H   0  0  0  0  0  0  0  0  0  0  0  0
    7.0365   -1.1338   -1.2198 H   0  0  0  0  0  0  0  0  0  0  0  0
    5.1822   -1.9114   -0.3940 H   0  0  0  0  0  0  0  0  0  0  0  0
    2.8173   -2.4021   -0.3918 H   0  0  0  0  0  0  0  0  0  0  0  0
    1.5969   -2.2106   -2.2775 H   0  0  0  0  0  0  0  0  0  0  0  0
   -1.8456   -2.5639   -1.0434 H   0  0  0  0  0  0  0  0  0  0  0  0
   -3.5759    0.4061    2.2395 H   0  0  0  0  0  0  0  0  0  0  0  0
   -2.9015   -1.2385    2.2205 H   0  0  0  0  0  0  0  0  0  0  0  0
   -1.8405    0.1752    2.3870 H   0  0  0  0  0  0  0  0  0  0  0  0
   -4.1700   -1.5439    0.0629 H   0  0  0  0  0  0  0  0  0  0  0  0
   -3.6652   -0.6444   -1.3681 H   0  0  0  0  0  0  0  0  0  0  0  0
   -3.8173    2.0854   -0.9895 H   0  0  0  0  0  0  0  0  0  0  0  0
   -5.6255    3.7558   -0.7274 H   0  0  0  0  0  0  0  0  0  0  0  0
   -7.7892    3.0981    0.2936 H   0  0  0  0  0  0  0  0  0  0  0  0
   -8.1447    0.7633    1.0498 H   0  0  0  0  0  0  0  0  0  0  0  0
   -6.3524   -0.9146    0.7936 H   0  0  0  0  0  0  0  0  0  0  0  0
   -0.9879    1.6353    0.7493 H   0  0  0  0  0  0  0  0  0  0  0  0
    1.9359    1.8360   -0.5803 H   0  0  0  0  0  0  0  0  0  0  0  0
    4.3318    2.3084   -0.5311 H   0  0  0  0  0  0  0  0  0  0  0  0
  1  2  1  0
  2  3  1  0
  3  4  1  0
  4  5  2  0
  5  6  1  0
  6  7  2  0
  7  8  1  0
  8  9  1  0
  9 10  1  0
  9 11  2  0
 11 12  1  0
 12 13  1  0
 13 14  1  0
 13 15  1  0
 15 16  1  0
 16 17  2  0
 17 18  1  0
 18 19  2  0
 19 20  1  0
 20 21  2  0
 12 22  2  0
 22 23  1  0
  7 24  1  0
 24 25  2  0
 25  4  1  0
 22  8  1  0
 21 16  1  0
  1 26  1  0
  1 27  1  0
  1 28  1  0
  2 29  1  0
  2 30  1  0
  5 31  1  0
  6 32  1  0
 10 33  1  0
 11 34  1  0
 14 35  1  0
 14 36  1  0
 14 37  1  0
 15 38  1  0
 15 39  1  0
 17 40  1  0
 18 41  1  0
 19 42  1  0
 20 43  1  0
 21 44  1  0
 23 45  1  0
 24 46  1  0
 25 47  1  0
M  END
$$$$
