
     RDKit          3D

 69 73  0  0  0  0  0  0  0  0999 V2000
   -1.7511    5.8295    2.9619 C   0  0  0  0  0  0  0  0  0  0  0  0
   -1.3867    4.7472    1.9902 C   0  0  0  0  0  0  0  0  0  0  0  0
   -2.0922    4.5886    0.7928 C   0  0  0  0  0  0  0  0  0  0  0  0
   -1.7532    3.5674   -0.0988 C   0  0  0  0  0  0  0  0  0  0  0  0
   -0.7039    2.6829    0.1905 C   0  0  0  0  0  0  0  0  0  0  0  0
   -0.3400    1.5731   -0.7757 C   0  0  0  0  0  0  0  0  0  0  0  0
   -1.1700    0.3796   -0.6119 N   0  0  0  0  0  0  0  0  0  0  0  0
   -2.3756    0.3329   -1.3312 C   0  0  0  0  0  0  0  0  0  0  0  0
   -2.6476    1.1262   -2.2353 O   0  0  0  0  0  0  0  0  0  0  0  0
   -3.3066   -0.8564   -0.9802 C   0  0  0  0  0  0  0  0  0  0  0  0
   -4.7265   -0.6105   -1.5220 C   0  0  0  0  0  0  0  0  0  0  0  0
   -5.7159   -1.7818   -1.3444 C   0  0  0  0  0  0  0  0  0  0  0  0
   -7.1022   -1.3638   -1.8459 C   0  0  0  0  0  0  0  0  0  0  0  0
   -5.2621   -3.0448   -2.0803 C   0  0  0  0  0  0  0  0  0  0  0  0
   -3.3514   -1.0365    0.4689 N   0  0  0  0  0  0  0  0  0  0  0  0
   -2.0756   -1.2026    1.0183 C   0  0  0  0  0  0  0  0  0  0  0  0
   -2.0274   -2.0076    2.0869 N   0  0  0  0  0  0  0  0  0  0  0  0
   -0.8300   -2.1354    2.6581 C   0  0  0  0  0  0  0  0  0  0  0  0
    0.3129   -1.5966    2.2218 N   0  0  0  0  0  0  0  0  0  0  0  0
    0.2570   -0.8172    1.1199 C   0  0  0  0  0  0  0  0  0  0  0  0
    1.4903   -0.4213    0.5675 N   0  0  0  0  0  0  0  0  0  0  0  0
    1.8289   -1.1830   -0.6673 C   0  0  0  0  0  0  0  0  0  0  0  0
    3.2038   -1.8945   -0.5989 C   0  0  0  0  0  0  0  0  0  0  0  0
    4.2749   -0.9620   -0.2050 N   0  0  0  0  0  0  0  0  0  0  0  0
    5.6125   -1.2303   -0.4609 C   0  0  0  0  0  0  0  0  0  0  0  0
    6.5915   -0.2287   -0.3328 C   0  0  0  0  0  0  0  0  0  0  0  0
    7.9451   -0.4728   -0.5945 C   0  0  0  0  0  0  0  0  0  0  0  0
    8.3585   -1.7367   -0.9965 C   0  0  0  0  0  0  0  0  0  0  0  0
    7.4158   -2.7476   -1.1416 C   0  0  0  0  0  0  0  0  0  0  0  0
    6.0631   -2.4921   -0.8806 C   0  0  0  0  0  0  0  0  0  0  0  0
    3.9215    0.0259    0.8390 C   0  0  0  0  0  0  0  0  0  0  0  0
    2.5984   -0.3432    1.5453 C   0  0  0  0  0  0  0  0  0  0  0  0
   -0.9667   -0.5238    0.4952 C   0  0  0  0  0  0  0  0  0  0  0  0
   -0.0091    2.8394    1.3959 C   0  0  0  0  0  0  0  0  0  0  0  0
   -0.3488    3.8585    2.2887 C   0  0  0  0  0  0  0  0  0  0  0  0
   -2.2421    5.3964    3.8393 H   0  0  0  0  0  0  0  0  0  0  0  0
   -2.4315    6.5602    2.5116 H   0  0  0  0  0  0  0  0  0  0  0  0
   -0.8542    6.3694    3.2832 H   0  0  0  0  0  0  0  0  0  0  0  0
   -2.9112    5.2592    0.5403 H   0  0  0  0  0  0  0  0  0  0  0  0
   -2.3166    3.4661   -1.0250 H   0  0  0  0  0  0  0  0  0  0  0  0
   -0.4648    1.9582   -1.7963 H   0  0  0  0  0  0  0  0  0  0  0  0
    0.7242    1.3573   -0.7159 H   0  0  0  0  0  0  0  0  0  0  0  0
   -2.8758   -1.7424   -1.4639 H   0  0  0  0  0  0  0  0  0  0  0  0
   -5.1417    0.2813   -1.0322 H   0  0  0  0  0  0  0  0  0  0  0  0
   -4.6671   -0.3684   -2.5917 H   0  0  0  0  0  0  0  0  0  0  0  0
   -5.8119   -2.0210   -0.2785 H   0  0  0  0  0  0  0  0  0  0  0  0
   -7.8302   -2.1670   -1.6882 H   0  0  0  0  0  0  0  0  0  0  0  0
   -7.0837   -1.1286   -2.9153 H   0  0  0  0  0  0  0  0  0  0  0  0
   -7.4621   -0.4795   -1.3084 H   0  0  0  0  0  0  0  0  0  0  0  0
   -6.0234   -3.8294   -2.0133 H   0  0  0  0  0  0  0  0  0  0  0  0
   -5.0807   -2.8418   -3.1415 H   0  0  0  0  0  0  0  0  0  0  0  0
   -4.3447   -3.4508   -1.6450 H   0  0  0  0  0  0  0  0  0  0  0  0
   -3.9491   -1.7686    0.8391 H   0  0  0  0  0  0  0  0  0  0  0  0
   -0.7751   -2.7437    3.5540 H   0  0  0  0  0  0  0  0  0  0  0  0
    1.0656   -1.9322   -0.9194 H   0  0  0  0  0  0  0  0  0  0  0  0
    1.8583   -0.4668   -1.4980 H   0  0  0  0  0  0  0  0  0  0  0  0
    3.4016   -2.3129   -1.5930 H   0  0  0  0  0  0  0  0  0  0  0  0
    3.1558   -2.7254    0.1162 H   0  0  0  0  0  0  0  0  0  0  0  0
    6.3069    0.7817   -0.0514 H   0  0  0  0  0  0  0  0  0  0  0  0
    8.6686    0.3315   -0.4923 H   0  0  0  0  0  0  0  0  0  0  0  0
    9.4064   -1.9290   -1.2044 H   0  0  0  0  0  0  0  0  0  0  0  0
    7.7270   -3.7401   -1.4571 H   0  0  0  0  0  0  0  0  0  0  0  0
    5.3686   -3.3189   -0.9977 H   0  0  0  0  0  0  0  0  0  0  0  0
    4.7006    0.0831    1.6098 H   0  0  0  0  0  0  0  0  0  0  0  0
    3.8269    1.0136    0.3707 H   0  0  0  0  0  0  0  0  0  0  0  0
    2.3733    0.4235    2.2961 H   0  0  0  0  0  0  0  0  0  0  0  0
    2.7411   -1.2980    2.0695 H   0  0  0  0  0  0  0  0  0  0  0  0
    0.8050    2.1663    1.6499 H   0  0  0  0  0  0  0  0  0  0  0  0
    0.2041    3.9550    3.2197 H   0  0  0  0  0  0  0  0  0  0  0  0
  1  2  1  0
  2  3  2  0
  3  4  1  0
  4  5  2  0
  5  6  1  0
  6  7  1  0
  7  8  1  0
  8  9  2  0
  8 10  1  0
 10 11  1  0
 11 12  1  0
 12 13  1  0
 12 14  1  0
 10 15  1  0
 15 16  1  0
 16 17  2  0
 17 18  1  0
 18 19  2  0
 19 20  1  0
 20 21  1  0
 21 22  1  0
 22 23  1  0
 23 24  1  0
 24 25  1  0
 25 26  2  0
 26 27  1  0
 27 28  2  0
 28 29  1  0
 29 30  2  0
 24 31  1  0
 31 32  1  0
 20 33  2  0
  5 34  1  0
 34 35  2  0
 35  2  1  0
 33  7  1  0
 33 16  1  0
 32 21  1  0
 30 25  1  0
  1 36  1  0
  1 37  1  0
  1 38  1  0
  3 39  1  0
  4 40  1  0
  6 41  1  0
  6 42  1  0
 10 43  1  0
 11 44  1  0
 11 45  1  0
 12 46  1  0
 13 47  1  0
 13 48  1  0
 13 49  1  0
 14 50  1  0
 14 51  1  0
 14 52  1  0
 15 53  1  0
 18 54  1  0
 22 55  1  0
 22 56  1  0
 23 57  1  0
 23 58  1  0
 26 59  1  0
 27 60  1  0
 28 61  1  0
 29 62  1  0
 30 63  1  0
 31 64  1  0
 31 65  1  0
 32 66  1  0
 32 67  1  0
 34 68  1  0
 35 69  1  0
M  END
$$$$
