
     RDKit          3D

 85 88  0  0  0  0  0  0  0  0999 V2000
    8.2704   -2.4399    1.4320 C   0  0  0  0  0  0  0  0  0  0  0  0
    6.8868   -1.8626    1.6891 C   0  0  0  0  0  0  0  0  0  0  0  0
    6.3368   -1.1665    0.4437 C   0  0  0  0  0  0  0  0  0  0  0  0
    4.9831   -0.4871    0.6725 C   0  0  0  0  0  0  0  0  0  0  0  0
    3.8561   -1.4801    0.9895 C   0  0  0  0  0  0  0  0  0  0  0  0
    2.4876   -0.8329    0.9627 C   0  0  0  0  0  0  0  0  0  0  0  0
    1.9309   -0.4918    2.1364 C   0  0  0  0  0  0  0  0  0  0  0  0
    0.6141    0.1295    2.2673 C   0  0  0  0  0  0  0  0  0  0  0  0
    0.1463    0.4046    3.3653 O   0  0  0  0  0  0  0  0  0  0  0  0
   -0.0548    0.3671    1.0894 O   0  0  0  0  0  0  0  0  0  0  0  0
    0.4615    0.0223   -0.1842 C   0  0  0  0  0  0  0  0  0  0  0  0
   -0.3720    0.3217   -1.2880 C   0  0  0  0  0  0  0  0  0  0  0  0
   -1.7428    0.9951   -1.1166 C   0  0  0  0  0  0  0  0  0  0  0  0
   -2.7581    0.1226   -0.3310 C   0  0  0  0  0  0  0  0  0  0  0  0
   -3.0540   -1.2118   -1.0366 C   0  0  0  0  0  0  0  0  0  0  0  0
   -4.1441   -1.9683   -0.3874 N   0  0  0  0  0  0  0  0  0  0  0  0
   -4.6062   -3.0433   -1.2798 C   0  0  0  0  0  0  0  0  0  0  0  0
   -5.7847   -3.8031   -0.6729 C   0  0  0  0  0  0  0  0  0  0  0  0
   -5.4272   -4.3759    0.6927 C   0  0  0  0  0  0  0  0  0  0  0  0
   -4.8799   -3.2751    1.6050 C   0  0  0  0  0  0  0  0  0  0  0  0
   -4.4199   -3.8603    2.9394 C   0  0  0  0  0  0  0  0  0  0  0  0
   -3.7309   -2.5163    0.9171 C   0  0  0  0  0  0  0  0  0  0  0  0
   -1.6144    2.4380   -0.6217 C   0  0  0  0  0  0  0  0  0  0  0  0
   -1.9302    2.8371    0.6775 C   0  0  0  0  0  0  0  0  0  0  0  0
   -1.7951    4.1775    1.0750 C   0  0  0  0  0  0  0  0  0  0  0  0
   -1.3318    5.1818    0.2085 C   0  0  0  0  0  0  0  0  0  0  0  0
   -1.2221    6.5204    0.6076 N   0  0  0  0  0  0  0  0  0  0  0  0
   -0.4415    7.4404   -0.2158 C   0  0  0  0  0  0  0  0  0  0  0  0
   -1.2757    6.8360    2.0341 C   0  0  0  0  0  0  0  0  0  0  0  0
   -1.0294    4.7620   -1.0971 C   0  0  0  0  0  0  0  0  0  0  0  0
   -1.1591    3.4247   -1.5043 C   0  0  0  0  0  0  0  0  0  0  0  0
    0.0990   -0.0120   -2.5681 C   0  0  0  0  0  0  0  0  0  0  0  0
   -0.7342    0.2640   -3.6212 O   0  0  0  0  0  0  0  0  0  0  0  0
   -0.1943    0.1996   -4.9349 C   0  0  0  0  0  0  0  0  0  0  0  0
    1.3468   -0.6262   -2.7092 C   0  0  0  0  0  0  0  0  0  0  0  0
    2.1654   -0.8999   -1.5991 C   0  0  0  0  0  0  0  0  0  0  0  0
    3.3799   -1.5202   -1.7455 O   0  0  0  0  0  0  0  0  0  0  0  0
    4.0401   -1.4082   -3.0028 C   0  0  0  0  0  0  0  0  0  0  0  0
    1.7286   -0.5855   -0.2951 C   0  0  0  0  0  0  0  0  0  0  0  0
    8.6569   -2.9171    2.3373 H   0  0  0  0  0  0  0  0  0  0  0  0
    8.2398   -3.1924    0.6376 H   0  0  0  0  0  0  0  0  0  0  0  0
    8.9739   -1.6561    1.1354 H   0  0  0  0  0  0  0  0  0  0  0  0
    6.9436   -1.1492    2.5193 H   0  0  0  0  0  0  0  0  0  0  0  0
    6.2210   -2.6745    2.0000 H   0  0  0  0  0  0  0  0  0  0  0  0
    6.2500   -1.8893   -0.3769 H   0  0  0  0  0  0  0  0  0  0  0  0
    7.0524   -0.4017    0.1162 H   0  0  0  0  0  0  0  0  0  0  0  0
    4.7406    0.0958   -0.2240 H   0  0  0  0  0  0  0  0  0  0  0  0
    5.0724    0.2378    1.4919 H   0  0  0  0  0  0  0  0  0  0  0  0
    3.8876   -2.3604    0.3397 H   0  0  0  0  0  0  0  0  0  0  0  0
    4.0401   -1.8916    1.9918 H   0  0  0  0  0  0  0  0  0  0  0  0
    2.4369   -0.6558    3.0818 H   0  0  0  0  0  0  0  0  0  0  0  0
   -2.2123    1.1058   -2.1035 H   0  0  0  0  0  0  0  0  0  0  0  0
   -2.4039   -0.0631    0.6861 H   0  0  0  0  0  0  0  0  0  0  0  0
   -3.7000    0.6798   -0.2334 H   0  0  0  0  0  0  0  0  0  0  0  0
   -3.3519   -0.9772   -2.0671 H   0  0  0  0  0  0  0  0  0  0  0  0
   -2.1492   -1.8288   -1.0994 H   0  0  0  0  0  0  0  0  0  0  0  0
   -3.7899   -3.7426   -1.5025 H   0  0  0  0  0  0  0  0  0  0  0  0
   -4.9385   -2.6162   -2.2342 H   0  0  0  0  0  0  0  0  0  0  0  0
   -6.6469   -3.1314   -0.5749 H   0  0  0  0  0  0  0  0  0  0  0  0
   -6.0879   -4.6129   -1.3459 H   0  0  0  0  0  0  0  0  0  0  0  0
   -6.3134   -4.8373    1.1433 H   0  0  0  0  0  0  0  0  0  0  0  0
   -4.6800   -5.1695    0.5702 H   0  0  0  0  0  0  0  0  0  0  0  0
   -5.6896   -2.5623    1.8123 H   0  0  0  0  0  0  0  0  0  0  0  0
   -4.0539   -3.0721    3.6044 H   0  0  0  0  0  0  0  0  0  0  0  0
   -3.6124   -4.5867    2.7998 H   0  0  0  0  0  0  0  0  0  0  0  0
   -5.2470   -4.3677    3.4461 H   0  0  0  0  0  0  0  0  0  0  0  0
   -2.8620   -3.1777    0.7973 H   0  0  0  0  0  0  0  0  0  0  0  0
   -3.4300   -1.7051    1.5890 H   0  0  0  0  0  0  0  0  0  0  0  0
   -2.2831    2.1212    1.4159 H   0  0  0  0  0  0  0  0  0  0  0  0
   -2.0701    4.4059    2.1001 H   0  0  0  0  0  0  0  0  0  0  0  0
    0.5978    7.1052   -0.3038 H   0  0  0  0  0  0  0  0  0  0  0  0
   -0.8795    7.5493   -1.2138 H   0  0  0  0  0  0  0  0  0  0  0  0
   -0.4287    8.4476    0.2163 H   0  0  0  0  0  0  0  0  0  0  0  0
   -1.1719    7.9135    2.2066 H   0  0  0  0  0  0  0  0  0  0  0  0
   -0.4688    6.3348    2.5802 H   0  0  0  0  0  0  0  0  0  0  0  0
   -2.2429    6.5560    2.4655 H   0  0  0  0  0  0  0  0  0  0  0  0
   -0.6848    5.4678   -1.8455 H   0  0  0  0  0  0  0  0  0  0  0  0
   -0.9071    3.1630   -2.5301 H   0  0  0  0  0  0  0  0  0  0  0  0
   -0.9498    0.5853   -5.6260 H   0  0  0  0  0  0  0  0  0  0  0  0
    0.6958    0.8288   -5.0308 H   0  0  0  0  0  0  0  0  0  0  0  0
    0.0176   -0.8350   -5.2190 H   0  0  0  0  0  0  0  0  0  0  0  0
    1.6795   -0.9240   -3.6951 H   0  0  0  0  0  0  0  0  0  0  0  0
    5.0785   -1.7213   -2.8607 H   0  0  0  0  0  0  0  0  0  0  0  0
    4.0521   -0.3735   -3.3648 H   0  0  0  0  0  0  0  0  0  0  0  0
    3.5882   -2.0824   -3.7384 H   0  0  0  0  0  0  0  0  0  0  0  0
  1  2  1  0
  2  3  1  0
  3  4  1  0
  4  5  1  0
  5  6  1  0
  6  7  2  0
  7  8  1  0
  8  9  2  0
  8 10  1  0
 10 11  1  0
 11 12  2  0
 12 13  1  0
 13 14  1  0
 14 15  1  0
 15 16  1  0
 16 17  1  0
 17 18  1  0
 18 19  1  0
 19 20  1  0
 20 21  1  0
 20 22  1  0
 13 23  1  0
 23 24  2  0
 24 25  1  0
 25 26  2  0
 26 27  1  0
 27 28  1  0
 27 29  1  0
 26 30  1  0
 30 31  2  0
 12 32  1  0
 32 33  1  0
 33 34  1  0
 32 35  2  0
 35 36  1  0
 36 37  1  0
 37 38  1  0
 36 39  2  0
 39  6  1  0
 39 11  1  0
 22 16  1  0
 31 23  1  0
  1 40  1  0
  1 41  1  0
  1 42  1  0
  2 43  1  0
  2 44  1  0
  3 45  1  0
  3 46  1  0
  4 47  1  0
  4 48  1  0
  5 49  1  0
  5 50  1  0
  7 51  1  0
 13 52  1  0
 14 53  1  0
 14 54  1  0
 15 55  1  0
 15 56  1  0
 17 57  1  0
 17 58  1  0
 18 59  1  0
 18 60  1  0
 19 61  1  0
 19 62  1  0
 20 63  1  0
 21 64  1  0
 21 65  1  0
 21 66  1  0
 22 67  1  0
 22 68  1  0
 24 69  1  0
 25 70  1  0
 28 71  1  0
 28 72  1  0
 28 73  1  0
 29 74  1  0
 29 75  1  0
 29 76  1  0
 30 77  1  0
 31 78  1  0
 34 79  1  0
 34 80  1  0
 34 81  1  0
 35 82  1  0
 38 83  1  0
 38 84  1  0
 38 85  1  0
M  END
$$$$
