
     RDKit          3D

 46 48  0  0  0  0  0  0  0  0999 V2000
    5.5736   -0.1749   -3.6091 C   0  0  0  0  0  0  0  0  0  0  0  0
    5.7686   -1.4876   -2.8735 C   0  0  0  0  0  0  0  0  0  0  0  0
    5.3516   -1.3562   -1.5059 O   0  0  0  0  0  0  0  0  0  0  0  0
    4.0331   -1.5630   -1.2635 C   0  0  0  0  0  0  0  0  0  0  0  0
    3.1904   -1.8406   -2.1065 O   0  0  0  0  0  0  0  0  0  0  0  0
    3.7136   -1.3907    0.1870 C   0  0  0  0  0  0  0  0  0  0  0  0
    4.7511   -1.1643    1.1118 C   0  0  0  0  0  0  0  0  0  0  0  0
    4.4709   -0.9978    2.4668 C   0  0  0  0  0  0  0  0  0  0  0  0
    3.1558   -1.0587    2.9104 C   0  0  0  0  0  0  0  0  0  0  0  0
    2.1157   -1.2850    2.0040 C   0  0  0  0  0  0  0  0  0  0  0  0
    2.3706   -1.4516    0.6362 C   0  0  0  0  0  0  0  0  0  0  0  0
    1.3286   -1.6838   -0.2980 N   0  0  0  0  0  0  0  0  0  0  0  0
   -0.0392   -1.6944   -0.0847 C   0  0  0  0  0  0  0  0  0  0  0  0
   -0.6060   -1.4674    0.9805 O   0  0  0  0  0  0  0  0  0  0  0  0
   -0.8299   -1.9863   -1.3530 C   0  0  0  0  0  0  0  0  0  0  0  0
   -1.0488   -0.4497   -2.3043 S   0  0  0  0  0  0  0  0  0  0  0  0
   -2.2209    0.3503   -1.2386 C   0  0  0  0  0  0  0  0  0  0  0  0
   -1.9314    1.5698   -0.6566 C   0  0  0  0  0  0  0  0  0  0  0  0
   -2.8791    2.1560    0.1823 C   0  0  0  0  0  0  0  0  0  0  0  0
   -4.0904    1.5098    0.4052 C   0  0  0  0  0  0  0  0  0  0  0  0
   -5.1546    2.0327    1.2751 C   0  0  0  0  0  0  0  0  0  0  0  0
   -6.5062    1.7239    1.0553 C   0  0  0  0  0  0  0  0  0  0  0  0
   -7.5004    2.2330    1.8904 C   0  0  0  0  0  0  0  0  0  0  0  0
   -7.1198    3.0483    2.9405 C   0  0  0  0  0  0  0  0  0  0  0  0
   -5.8385    3.3739    3.2038 N   0  0  0  0  0  0  0  0  0  0  0  0
   -4.8968    2.8540    2.3754 C   0  0  0  0  0  0  0  0  0  0  0  0
   -4.3449    0.3313   -0.2105 N   0  0  0  0  0  0  0  0  0  0  0  0
   -3.4073   -0.2527   -1.0342 N   0  0  0  0  0  0  0  0  0  0  0  0
    4.5161    0.1069   -3.6361 H   0  0  0  0  0  0  0  0  0  0  0  0
    6.1058    0.6349   -3.0992 H   0  0  0  0  0  0  0  0  0  0  0  0
    5.9421   -0.2483   -4.6363 H   0  0  0  0  0  0  0  0  0  0  0  0
    5.2405   -2.3088   -3.3723 H   0  0  0  0  0  0  0  0  0  0  0  0
    6.8317   -1.7483   -2.8598 H   0  0  0  0  0  0  0  0  0  0  0  0
    5.7891   -1.1152    0.7909 H   0  0  0  0  0  0  0  0  0  0  0  0
    5.2773   -0.8236    3.1749 H   0  0  0  0  0  0  0  0  0  0  0  0
    2.9298   -0.9336    3.9669 H   0  0  0  0  0  0  0  0  0  0  0  0
    1.1086   -1.3323    2.4081 H   0  0  0  0  0  0  0  0  0  0  0  0
    1.6384   -1.8039   -1.2668 H   0  0  0  0  0  0  0  0  0  0  0  0
   -0.2853   -2.7093   -1.9689 H   0  0  0  0  0  0  0  0  0  0  0  0
   -1.7890   -2.4444   -1.0917 H   0  0  0  0  0  0  0  0  0  0  0  0
   -0.9815    2.0626   -0.8351 H   0  0  0  0  0  0  0  0  0  0  0  0
   -2.6568    3.1151    0.6381 H   0  0  0  0  0  0  0  0  0  0  0  0
   -6.7937    1.0798    0.2251 H   0  0  0  0  0  0  0  0  0  0  0  0
   -8.5447    1.9941    1.7229 H   0  0  0  0  0  0  0  0  0  0  0  0
   -7.8556    3.4690    3.6192 H   0  0  0  0  0  0  0  0  0  0  0  0
   -3.8824    3.1270    2.6559 H   0  0  0  0  0  0  0  0  0  0  0  0
  1  2  1  0
  2  3  1  0
  3  4  1  0
  4  5  2  0
  4  6  1  0
  6  7  2  0
  7  8  1  0
  8  9  2  0
  9 10  1  0
 10 11  2  0
 11 12  1  0
 12 13  1  0
 13 14  2  0
 13 15  1  0
 15 16  1  0
 16 17  1  0
 17 18  2  0
 18 19  1  0
 19 20  2  0
 20 21  1  0
 21 22  2  0
 22 23  1  0
 23 24  2  0
 24 25  1  0
 25 26  2  0
 20 27  1  0
 27 28  2  0
 11  6  1  0
 28 17  1  0
 26 21  1  0
  1 29  1  0
  1 30  1  0
  1 31  1  0
  2 32  1  0
  2 33  1  0
  7 34  1  0
  8 35  1  0
  9 36  1  0
 10 37  1  0
 12 38  1  0
 15 39  1  0
 15 40  1  0
 18 41  1  0
 19 42  1  0
 22 43  1  0
 23 44  1  0
 24 45  1  0
 26 46  1  0
M  END
$$$$
