
     RDKit          3D

 36 38  0  0  0  0  0  0  0  0999 V2000
    6.3287    1.0903   -3.3675 Br  0  0  0  0  0  0  0  0  0  0  0  0
    5.0745    0.3937   -2.1375 C   0  0  0  0  0  0  0  0  0  0  0  0
    5.4377    0.2239   -0.8009 C   0  0  0  0  0  0  0  0  0  0  0  0
    4.5106   -0.2910    0.1104 C   0  0  0  0  0  0  0  0  0  0  0  0
    3.2149   -0.6369   -0.3099 C   0  0  0  0  0  0  0  0  0  0  0  0
    2.2204   -1.1566    0.6190 C   0  0  0  0  0  0  0  0  0  0  0  0
    2.5145   -1.9511    1.7088 C   0  0  0  0  0  0  0  0  0  0  0  0
    1.0740   -2.3618    2.5386 S   0  0  0  0  0  0  0  0  0  0  0  0
    0.1463   -1.4550    1.3898 C   0  0  0  0  0  0  0  0  0  0  0  0
   -1.1975   -1.3956    1.5707 N   0  0  0  0  0  0  0  0  0  0  0  0
   -1.9387   -0.7476    0.7236 C   0  0  0  0  0  0  0  0  0  0  0  0
   -3.4318   -0.7411    1.0457 C   0  0  0  0  0  0  0  0  0  0  0  0
   -3.9363    0.6664    1.3309 C   0  0  0  0  0  0  0  0  0  0  0  0
   -4.3540    1.4297    0.0739 C   0  0  0  0  0  0  0  0  0  0  0  0
   -3.4544    1.2468   -1.1496 C   0  0  0  0  0  0  0  0  0  0  0  0
   -1.9678    1.2153   -0.8270 C   0  0  0  0  0  0  0  0  0  0  0  0
   -1.5179   -0.1089   -0.4280 N   0  0  0  0  0  0  0  0  0  0  0  0
    0.8735   -0.8837    0.4467 N   0  0  0  0  0  0  0  0  0  0  0  0
    2.8651   -0.4515   -1.6559 C   0  0  0  0  0  0  0  0  0  0  0  0
    3.7925    0.0562   -2.5713 C   0  0  0  0  0  0  0  0  0  0  0  0
    6.4348    0.4951   -0.4564 H   0  0  0  0  0  0  0  0  0  0  0  0
    4.8089   -0.3918    1.1531 H   0  0  0  0  0  0  0  0  0  0  0  0
    3.4720   -2.3167    2.0513 H   0  0  0  0  0  0  0  0  0  0  0  0
   -3.5918   -1.3635    1.9343 H   0  0  0  0  0  0  0  0  0  0  0  0
   -3.9812   -1.2136    0.2209 H   0  0  0  0  0  0  0  0  0  0  0  0
   -4.8079    0.6134    1.9949 H   0  0  0  0  0  0  0  0  0  0  0  0
   -3.1674    1.2433    1.8621 H   0  0  0  0  0  0  0  0  0  0  0  0
   -4.4008    2.5004    0.3273 H   0  0  0  0  0  0  0  0  0  0  0  0
   -5.3754    1.1417   -0.2062 H   0  0  0  0  0  0  0  0  0  0  0  0
   -3.7493    0.3397   -1.6963 H   0  0  0  0  0  0  0  0  0  0  0  0
   -3.6519    2.0873   -1.8289 H   0  0  0  0  0  0  0  0  0  0  0  0
   -1.4155    1.4838   -1.7343 H   0  0  0  0  0  0  0  0  0  0  0  0
   -1.6997    1.9576   -0.0640 H   0  0  0  0  0  0  0  0  0  0  0  0
   -0.4987   -0.1841   -0.5122 H   0  0  0  0  0  0  0  0  0  0  0  0
    1.8657   -0.7135   -2.0039 H   0  0  0  0  0  0  0  0  0  0  0  0
    3.5040    0.1793   -3.6137 H   0  0  0  0  0  0  0  0  0  0  0  0
  1  2  1  0
  2  3  2  0
  3  4  1  0
  4  5  2  0
  5  6  1  0
  6  7  2  0
  7  8  1  0
  8  9  1  0
  9 10  1  0
 10 11  2  3
 11 12  1  0
 12 13  1  0
 13 14  1  0
 14 15  1  0
 15 16  1  0
 16 17  1  0
  9 18  2  0
  5 19  1  0
 19 20  2  0
 20  2  1  0
 18  6  1  0
 17 11  1  0
  3 21  1  0
  4 22  1  0
  7 23  1  0
 12 24  1  0
 12 25  1  0
 13 26  1  0
 13 27  1  0
 14 28  1  0
 14 29  1  0
 15 30  1  0
 15 31  1  0
 16 32  1  0
 16 33  1  0
 17 34  1  0
 19 35  1  0
 20 36  1  0
M  END
$$$$
