
     RDKit          3D

 50 53  0  0  0  0  0  0  0  0999 V2000
    0.8709    4.0914   -0.2818 C   0  0  0  0  0  0  0  0  0  0  0  0
    1.1909    3.3271    0.9943 C   0  0  0  0  0  0  0  0  0  0  0  0
    0.7326    1.8885    0.9191 C   0  0  0  0  0  0  0  0  0  0  0  0
    1.6356    0.9056    0.4810 C   0  0  0  0  0  0  0  0  0  0  0  0
    1.2502   -0.4343    0.3778 C   0  0  0  0  0  0  0  0  0  0  0  0
    2.1765   -1.4810   -0.0833 C   0  0  0  0  0  0  0  0  0  0  0  0
    3.5759   -1.2719   -0.5017 C   0  0  0  0  0  0  0  0  0  0  0  0
    4.6161   -1.3868    0.4290 C   0  0  0  0  0  0  0  0  0  0  0  0
    5.9390   -1.1873    0.0307 C   0  0  0  0  0  0  0  0  0  0  0  0
    6.2286   -0.8732   -1.2967 C   0  0  0  0  0  0  0  0  0  0  0  0
    5.1975   -0.7575   -2.2283 C   0  0  0  0  0  0  0  0  0  0  0  0
    3.8735   -0.9564   -1.8334 C   0  0  0  0  0  0  0  0  0  0  0  0
    1.7278   -2.7443   -0.1427 C   0  0  0  0  0  0  0  0  0  0  0  0
    0.3638   -3.1329    0.2349 C   0  0  0  0  0  0  0  0  0  0  0  0
    0.0071   -4.3042    0.1772 O   0  0  0  0  0  0  0  0  0  0  0  0
   -0.4770   -2.1220    0.6600 O   0  0  0  0  0  0  0  0  0  0  0  0
   -0.0588   -0.7717    0.7277 C   0  0  0  0  0  0  0  0  0  0  0  0
   -1.0045    0.1791    1.1640 C   0  0  0  0  0  0  0  0  0  0  0  0
   -2.4026   -0.2728    1.5305 C   0  0  0  0  0  0  0  0  0  0  0  0
   -3.2406   -0.5707    0.3593 N   0  0  0  0  0  0  0  0  0  0  0  0
   -4.4601   -1.2991    0.7693 C   0  0  0  0  0  0  0  0  0  0  0  0
   -5.3674   -1.6024   -0.4328 C   0  0  0  0  0  0  0  0  0  0  0  0
   -5.7351   -0.3965   -1.1159 O   0  0  0  0  0  0  0  0  0  0  0  0
   -4.5574    0.2786   -1.5758 C   0  0  0  0  0  0  0  0  0  0  0  0
   -3.6292    0.6321   -0.4021 C   0  0  0  0  0  0  0  0  0  0  0  0
   -0.5841    1.5163    1.2397 C   0  0  0  0  0  0  0  0  0  0  0  0
   -1.4246    2.5264    1.6249 O   0  0  0  0  0  0  0  0  0  0  0  0
   -0.2068    4.1147   -0.4748 H   0  0  0  0  0  0  0  0  0  0  0  0
    1.3572    3.6338   -1.1501 H   0  0  0  0  0  0  0  0  0  0  0  0
    1.2228    5.1248   -0.2017 H   0  0  0  0  0  0  0  0  0  0  0  0
    2.2723    3.3602    1.1770 H   0  0  0  0  0  0  0  0  0  0  0  0
    0.7327    3.8250    1.8570 H   0  0  0  0  0  0  0  0  0  0  0  0
    2.6488    1.2046    0.2176 H   0  0  0  0  0  0  0  0  0  0  0  0
    4.4024   -1.6287    1.4677 H   0  0  0  0  0  0  0  0  0  0  0  0
    6.7439   -1.2768    0.7560 H   0  0  0  0  0  0  0  0  0  0  0  0
    7.2595   -0.7185   -1.6057 H   0  0  0  0  0  0  0  0  0  0  0  0
    5.4246   -0.5126   -3.2628 H   0  0  0  0  0  0  0  0  0  0  0  0
    3.0773   -0.8616   -2.5685 H   0  0  0  0  0  0  0  0  0  0  0  0
    2.3527   -3.5667   -0.4752 H   0  0  0  0  0  0  0  0  0  0  0  0
   -2.8946    0.4468    2.1960 H   0  0  0  0  0  0  0  0  0  0  0  0
   -2.2944   -1.1762    2.1472 H   0  0  0  0  0  0  0  0  0  0  0  0
   -4.1882   -2.2467    1.2484 H   0  0  0  0  0  0  0  0  0  0  0  0
   -5.0226   -0.6992    1.4968 H   0  0  0  0  0  0  0  0  0  0  0  0
   -6.2896   -2.0818   -0.0893 H   0  0  0  0  0  0  0  0  0  0  0  0
   -4.8796   -2.2857   -1.1386 H   0  0  0  0  0  0  0  0  0  0  0  0
   -4.0440   -0.3478   -2.3155 H   0  0  0  0  0  0  0  0  0  0  0  0
   -4.8784    1.1947   -2.0818 H   0  0  0  0  0  0  0  0  0  0  0  0
   -2.7450    1.1340   -0.8085 H   0  0  0  0  0  0  0  0  0  0  0  0
   -4.1496    1.3374    0.2586 H   0  0  0  0  0  0  0  0  0  0  0  0
   -2.3463    2.2468    1.5251 H   0  0  0  0  0  0  0  0  0  0  0  0
  1  2  1  0
  2  3  1  0
  3  4  2  0
  4  5  1  0
  5  6  1  0
  6  7  1  0
  7  8  2  0
  8  9  1  0
  9 10  2  0
 10 11  1  0
 11 12  2  0
  6 13  2  0
 13 14  1  0
 14 15  2  0
 14 16  1  0
 16 17  1  0
 17 18  1  0
 18 19  1  0
 19 20  1  0
 20 21  1  0
 21 22  1  0
 22 23  1  0
 23 24  1  0
 24 25  1  0
 18 26  2  0
 26 27  1  0
 26  3  1  0
 17  5  2  0
 25 20  1  0
 12  7  1  0
  1 28  1  0
  1 29  1  0
  1 30  1  0
  2 31  1  0
  2 32  1  0
  4 33  1  0
  8 34  1  0
  9 35  1  0
 10 36  1  0
 11 37  1  0
 12 38  1  0
 13 39  1  0
 19 40  1  0
 19 41  1  0
 21 42  1  0
 21 43  1  0
 22 44  1  0
 22 45  1  0
 24 46  1  0
 24 47  1  0
 25 48  1  0
 25 49  1  0
 27 50  1  0
M  END
$$$$
