
     RDKit          3D

 46 50  0  0  0  0  0  0  0  0999 V2000
    4.5137   -0.0606   -1.7338 O   0  0  0  0  0  0  0  0  0  0  0  0
    5.1314    0.0797   -0.6898 C   0  0  0  0  0  0  0  0  0  0  0  0
    4.6880   -0.1951    0.5895 O   0  0  0  0  0  0  0  0  0  0  0  0
    3.3808   -0.6859    0.6268 C   0  0  0  0  0  0  0  0  0  0  0  0
    3.1908   -2.0504    0.8446 C   0  0  0  0  0  0  0  0  0  0  0  0
    1.8916   -2.5519    0.9266 C   0  0  0  0  0  0  0  0  0  0  0  0
    0.8019   -1.6802    0.8022 C   0  0  0  0  0  0  0  0  0  0  0  0
   -0.5784   -2.1909    0.8843 C   0  0  0  0  0  0  0  0  0  0  0  0
   -0.8006   -3.3807    1.0766 O   0  0  0  0  0  0  0  0  0  0  0  0
   -1.6679   -1.1923    0.7177 C   0  0  0  0  0  0  0  0  0  0  0  0
   -2.9696   -1.6634    0.8142 O   0  0  0  0  0  0  0  0  0  0  0  0
   -3.9672   -0.9624    0.1835 C   0  0  0  0  0  0  0  0  0  0  0  0
   -4.0026   -0.8522   -1.2049 C   0  0  0  0  0  0  0  0  0  0  0  0
   -5.0452   -0.1517   -1.8130 C   0  0  0  0  0  0  0  0  0  0  0  0
   -6.0657    0.4284   -1.0408 C   0  0  0  0  0  0  0  0  0  0  0  0
   -7.1202    1.1372   -1.6380 C   0  0  0  0  0  0  0  0  0  0  0  0
   -8.1316    1.7020   -0.8592 C   0  0  0  0  0  0  0  0  0  0  0  0
   -8.1031    1.5644    0.5256 C   0  0  0  0  0  0  0  0  0  0  0  0
   -7.0626    0.8625    1.1361 C   0  0  0  0  0  0  0  0  0  0  0  0
   -6.0361    0.2903    0.3678 C   0  0  0  0  0  0  0  0  0  0  0  0
   -4.9830   -0.4172    0.9675 C   0  0  0  0  0  0  0  0  0  0  0  0
   -1.3062    0.0911    0.5528 C   0  0  0  0  0  0  0  0  0  0  0  0
   -0.0241    0.5816    0.4858 O   0  0  0  0  0  0  0  0  0  0  0  0
    1.0075   -0.3146    0.6036 C   0  0  0  0  0  0  0  0  0  0  0  0
    2.3028    0.1935    0.5226 C   0  0  0  0  0  0  0  0  0  0  0  0
    6.5193    0.5907   -0.6370 C   0  0  0  0  0  0  0  0  0  0  0  0
    7.1431    0.9172   -1.8369 C   0  0  0  0  0  0  0  0  0  0  0  0
    8.4099    1.3952   -1.9253 N   0  0  0  0  0  0  0  0  0  0  0  0
    9.0831    1.5531   -0.7615 C   0  0  0  0  0  0  0  0  0  0  0  0
    8.5435    1.2546    0.4806 C   0  0  0  0  0  0  0  0  0  0  0  0
    9.5527    1.5056    2.0534 Br  0  0  0  0  0  0  0  0  0  0  0  0
    7.2413    0.7656    0.5483 C   0  0  0  0  0  0  0  0  0  0  0  0
    4.0408   -2.7194    0.9438 H   0  0  0  0  0  0  0  0  0  0  0  0
    1.7280   -3.6159    1.0864 H   0  0  0  0  0  0  0  0  0  0  0  0
   -3.2315   -1.3135   -1.8154 H   0  0  0  0  0  0  0  0  0  0  0  0
   -5.0609   -0.0682   -2.8975 H   0  0  0  0  0  0  0  0  0  0  0  0
   -7.1630    1.2531   -2.7188 H   0  0  0  0  0  0  0  0  0  0  0  0
   -8.9427    2.2470   -1.3352 H   0  0  0  0  0  0  0  0  0  0  0  0
   -8.8920    2.0016    1.1321 H   0  0  0  0  0  0  0  0  0  0  0  0
   -7.0596    0.7642    2.2195 H   0  0  0  0  0  0  0  0  0  0  0  0
   -4.9462   -0.5446    2.0464 H   0  0  0  0  0  0  0  0  0  0  0  0
   -2.0091    0.9091    0.4575 H   0  0  0  0  0  0  0  0  0  0  0  0
    2.4667    1.2557    0.3711 H   0  0  0  0  0  0  0  0  0  0  0  0
    6.6341    0.8034   -2.7922 H   0  0  0  0  0  0  0  0  0  0  0  0
   10.0943    1.9368   -0.8668 H   0  0  0  0  0  0  0  0  0  0  0  0
    6.8041    0.5275    1.5138 H   0  0  0  0  0  0  0  0  0  0  0  0
  1  2  2  0
  2  3  1  0
  3  4  1  0
  4  5  2  0
  5  6  1  0
  6  7  2  0
  7  8  1  0
  8  9  2  0
  8 10  1  0
 10 11  1  0
 11 12  1  0
 12 13  2  0
 13 14  1  0
 14 15  2  0
 15 16  1  0
 16 17  2  0
 17 18  1  0
 18 19  2  0
 19 20  1  0
 20 21  2  0
 10 22  2  0
 22 23  1  0
 23 24  1  0
 24 25  2  0
  2 26  1  0
 26 27  2  0
 27 28  1  0
 28 29  2  0
 29 30  1  0
 30 31  1  0
 30 32  2  0
 25  4  1  0
 32 26  1  0
 24  7  1  0
 21 12  1  0
 20 15  1  0
  5 33  1  0
  6 34  1  0
 13 35  1  0
 14 36  1  0
 16 37  1  0
 17 38  1  0
 18 39  1  0
 19 40  1  0
 21 41  1  0
 22 42  1  0
 25 43  1  0
 27 44  1  0
 29 45  1  0
 32 46  1  0
M  END
$$$$
