
     RDKit          3D

 42 42  0  0  0  0  0  0  0  0999 V2000
   -1.4650   -3.9886    1.8597 C   0  0  0  0  0  0  0  0  0  0  0  0
   -1.3576   -2.7392    0.9971 C   0  0  0  0  0  0  0  0  0  0  0  0
   -1.6308   -1.4772    1.8106 C   0  0  0  0  0  0  0  0  0  0  0  0
   -1.7069   -0.1684    1.0040 C   0  0  0  0  0  0  0  0  0  0  0  0
   -0.4526    0.3294    0.2394 C   0  0  0  0  0  0  0  0  0  0  0  0
   -0.5309    1.8284   -0.0081 C   0  0  0  0  0  0  0  0  0  0  0  0
    0.4332    2.5811   -0.0374 O   0  0  0  0  0  0  0  0  0  0  0  0
   -1.8030    2.2114   -0.3191 O   0  0  0  0  0  0  0  0  0  0  0  0
   -1.9530    3.6102   -0.5971 C   0  0  0  0  0  0  0  0  0  0  0  0
   -3.4180    3.8803   -0.8788 C   0  0  0  0  0  0  0  0  0  0  0  0
   -0.2505   -0.3527   -1.1111 C   0  0  0  0  0  0  0  0  0  0  0  0
    1.2435   -0.6336   -1.1905 C   0  0  0  0  0  0  0  0  0  0  0  0
    2.0275    0.4280   -1.9778 C   0  0  0  0  0  0  0  0  0  0  0  0
    3.6119   -0.2142   -2.6219 S   0  0  0  0  0  0  0  0  0  0  0  0
    4.5243   -0.2720   -1.1520 C   0  0  0  0  0  0  0  0  0  0  0  0
    4.9596    0.8114   -0.6235 N   0  0  0  0  0  0  0  0  0  0  0  0
    4.7870   -1.4922   -0.6467 N   0  0  0  0  0  0  0  0  0  0  0  0
    1.6819   -0.6748    0.1701 O   0  0  0  0  0  0  0  0  0  0  0  0
    0.8147   -0.0018    0.9786 C   0  0  0  0  0  0  0  0  0  0  0  0
    1.0404    0.2511    2.1517 O   0  0  0  0  0  0  0  0  0  0  0  0
   -2.4693   -4.0885    2.2835 H   0  0  0  0  0  0  0  0  0  0  0  0
   -1.2594   -4.8811    1.2605 H   0  0  0  0  0  0  0  0  0  0  0  0
   -0.7449   -3.9590    2.6838 H   0  0  0  0  0  0  0  0  0  0  0  0
   -2.0737   -2.8149    0.1713 H   0  0  0  0  0  0  0  0  0  0  0  0
   -0.3517   -2.7066    0.5682 H   0  0  0  0  0  0  0  0  0  0  0  0
   -0.8875   -1.3865    2.6104 H   0  0  0  0  0  0  0  0  0  0  0  0
   -2.5963   -1.5975    2.3202 H   0  0  0  0  0  0  0  0  0  0  0  0
   -2.0002    0.6084    1.7251 H   0  0  0  0  0  0  0  0  0  0  0  0
   -2.5483   -0.2453    0.3017 H   0  0  0  0  0  0  0  0  0  0  0  0
   -1.6276    4.1970    0.2691 H   0  0  0  0  0  0  0  0  0  0  0  0
   -1.3519    3.8775   -1.4733 H   0  0  0  0  0  0  0  0  0  0  0  0
   -3.5846    4.9386   -1.0984 H   0  0  0  0  0  0  0  0  0  0  0  0
   -3.7633    3.2837   -1.7296 H   0  0  0  0  0  0  0  0  0  0  0  0
   -4.0344    3.5958   -0.0196 H   0  0  0  0  0  0  0  0  0  0  0  0
   -0.7935   -1.3009   -1.1623 H   0  0  0  0  0  0  0  0  0  0  0  0
   -0.6096    0.2343   -1.9643 H   0  0  0  0  0  0  0  0  0  0  0  0
    1.3887   -1.6264   -1.6331 H   0  0  0  0  0  0  0  0  0  0  0  0
    1.4567    0.7385   -2.8586 H   0  0  0  0  0  0  0  0  0  0  0  0
    2.2326    1.3160   -1.3742 H   0  0  0  0  0  0  0  0  0  0  0  0
    4.6510    1.5949   -1.2070 H   0  0  0  0  0  0  0  0  0  0  0  0
    4.8759   -2.2282   -1.3333 H   0  0  0  0  0  0  0  0  0  0  0  0
    5.5357   -1.4663    0.0357 H   0  0  0  0  0  0  0  0  0  0  0  0
  1  2  1  0
  2  3  1  0
  3  4  1  0
  4  5  1  0
  5  6  1  0
  6  7  2  0
  6  8  1  0
  8  9  1  0
  9 10  1  0
  5 11  1  0
 11 12  1  0
 12 13  1  0
 13 14  1  0
 14 15  1  0
 15 16  2  3
 15 17  1  0
 12 18  1  0
 18 19  1  0
 19 20  2  0
 19  5  1  0
  1 21  1  0
  1 22  1  0
  1 23  1  0
  2 24  1  0
  2 25  1  0
  3 26  1  0
  3 27  1  0
  4 28  1  0
  4 29  1  0
  9 30  1  0
  9 31  1  0
 10 32  1  0
 10 33  1  0
 10 34  1  0
 11 35  1  0
 11 36  1  0
 12 37  1  0
 13 38  1  0
 13 39  1  0
 16 40  1  0
 17 41  1  0
 17 42  1  0
M  END
$$$$
