
     RDKit          3D

 61 64  0  0  0  0  0  0  0  0999 V2000
   -9.5307    1.6988   -3.1690 C   0  0  0  0  0  0  0  0  0  0  0  0
   -8.5742    0.9084   -2.4616 O   0  0  0  0  0  0  0  0  0  0  0  0
   -7.6992    1.6350   -1.7216 C   0  0  0  0  0  0  0  0  0  0  0  0
   -7.6817    2.8527   -1.6315 O   0  0  0  0  0  0  0  0  0  0  0  0
   -6.7430    0.7425   -1.0110 C   0  0  0  0  0  0  0  0  0  0  0  0
   -6.7639   -0.6507   -1.1563 C   0  0  0  0  0  0  0  0  0  0  0  0
   -5.8434   -1.4453   -0.4652 C   0  0  0  0  0  0  0  0  0  0  0  0
   -4.8869   -0.8609    0.3768 C   0  0  0  0  0  0  0  0  0  0  0  0
   -3.9014   -1.7233    1.1395 C   0  0  0  0  0  0  0  0  0  0  0  0
   -2.4972   -1.3497    0.9047 N   0  0  0  0  0  0  0  0  0  0  0  0
   -2.0454   -1.6776   -0.4499 C   0  0  0  0  0  0  0  0  0  0  0  0
   -0.6818   -1.0369   -0.7263 C   0  0  0  0  0  0  0  0  0  0  0  0
    0.1866   -0.9002    0.5350 C   0  0  0  0  0  0  0  0  0  0  0  0
    1.5550   -0.9789    0.1203 O   0  0  0  0  0  0  0  0  0  0  0  0
    2.5304   -0.4471    0.9154 C   0  0  0  0  0  0  0  0  0  0  0  0
    2.3404    0.2395    2.1179 C   0  0  0  0  0  0  0  0  0  0  0  0
    3.4370    0.7298    2.8386 C   0  0  0  0  0  0  0  0  0  0  0  0
    4.7308    0.5414    2.3592 C   0  0  0  0  0  0  0  0  0  0  0  0
    4.9161   -0.1329    1.1518 C   0  0  0  0  0  0  0  0  0  0  0  0
    6.2789   -0.3481    0.6360 C   0  0  0  0  0  0  0  0  0  0  0  0
    6.8047   -1.4425    0.8099 O   0  0  0  0  0  0  0  0  0  0  0  0
    6.8804    0.7041   -0.0218 N   0  0  0  0  0  0  0  0  0  0  0  0
    6.2886    1.9933   -0.3485 C   0  0  0  0  0  0  0  0  0  0  0  0
    7.4486    2.8065   -0.9053 C   0  0  0  0  0  0  0  0  0  0  0  0
    8.3302    1.7456   -1.5514 C   0  0  0  0  0  0  0  0  0  0  0  0
    8.2069    0.5687   -0.5944 C   0  0  0  0  0  0  0  0  0  0  0  0
    3.8281   -0.6354    0.4355 C   0  0  0  0  0  0  0  0  0  0  0  0
   -0.1531   -2.0266    1.5076 C   0  0  0  0  0  0  0  0  0  0  0  0
   -1.6272   -1.9705    1.9177 C   0  0  0  0  0  0  0  0  0  0  0  0
   -4.8738    0.5343    0.5221 C   0  0  0  0  0  0  0  0  0  0  0  0
   -5.7918    1.3301   -0.1678 C   0  0  0  0  0  0  0  0  0  0  0  0
  -10.1813    1.0217   -3.7293 H   0  0  0  0  0  0  0  0  0  0  0  0
  -10.1482    2.2711   -2.4696 H   0  0  0  0  0  0  0  0  0  0  0  0
   -9.0293    2.3639   -3.8785 H   0  0  0  0  0  0  0  0  0  0  0  0
   -7.4907   -1.1338   -1.8046 H   0  0  0  0  0  0  0  0  0  0  0  0
   -5.8778   -2.5254   -0.5925 H   0  0  0  0  0  0  0  0  0  0  0  0
   -4.1465   -1.6003    2.2034 H   0  0  0  0  0  0  0  0  0  0  0  0
   -4.0587   -2.7845    0.9058 H   0  0  0  0  0  0  0  0  0  0  0  0
   -1.9839   -2.7658   -0.5824 H   0  0  0  0  0  0  0  0  0  0  0  0
   -2.7423   -1.3107   -1.2121 H   0  0  0  0  0  0  0  0  0  0  0  0
   -0.8214   -0.0354   -1.1540 H   0  0  0  0  0  0  0  0  0  0  0  0
   -0.1619   -1.6183   -1.4984 H   0  0  0  0  0  0  0  0  0  0  0  0
   -0.0350    0.0808    0.9739 H   0  0  0  0  0  0  0  0  0  0  0  0
    1.3524    0.4059    2.5338 H   0  0  0  0  0  0  0  0  0  0  0  0
    3.2771    1.2535    3.7783 H   0  0  0  0  0  0  0  0  0  0  0  0
    5.5858    0.9090    2.9202 H   0  0  0  0  0  0  0  0  0  0  0  0
    5.8376    2.4605    0.5303 H   0  0  0  0  0  0  0  0  0  0  0  0
    5.5149    1.8287   -1.1065 H   0  0  0  0  0  0  0  0  0  0  0  0
    7.9937    3.2915   -0.0868 H   0  0  0  0  0  0  0  0  0  0  0  0
    7.1234    3.5794   -1.6067 H   0  0  0  0  0  0  0  0  0  0  0  0
    7.9236    1.4750   -2.5331 H   0  0  0  0  0  0  0  0  0  0  0  0
    9.3644    2.0724   -1.6871 H   0  0  0  0  0  0  0  0  0  0  0  0
    8.3279   -0.3975   -1.0927 H   0  0  0  0  0  0  0  0  0  0  0  0
    8.9314    0.6403    0.2238 H   0  0  0  0  0  0  0  0  0  0  0  0
    3.9923   -1.1776   -0.4924 H   0  0  0  0  0  0  0  0  0  0  0  0
    0.0660   -2.9913    1.0299 H   0  0  0  0  0  0  0  0  0  0  0  0
    0.4829   -1.9923    2.3989 H   0  0  0  0  0  0  0  0  0  0  0  0
   -1.9508   -2.9929    2.1520 H   0  0  0  0  0  0  0  0  0  0  0  0
   -1.7161   -1.3883    2.8428 H   0  0  0  0  0  0  0  0  0  0  0  0
   -4.1376    1.0057    1.1712 H   0  0  0  0  0  0  0  0  0  0  0  0
   -5.7600    2.4110   -0.0439 H   0  0  0  0  0  0  0  0  0  0  0  0
  1  2  1  0
  2  3  1  0
  3  4  2  0
  3  5  1  0
  5  6  2  0
  6  7  1  0
  7  8  2  0
  8  9  1  0
  9 10  1  0
 10 11  1  0
 11 12  1  0
 12 13  1  0
 13 14  1  0
 14 15  1  0
 15 16  2  0
 16 17  1  0
 17 18  2  0
 18 19  1  0
 19 20  1  0
 20 21  2  0
 20 22  1  0
 22 23  1  0
 23 24  1  0
 24 25  1  0
 25 26  1  0
 19 27  2  0
 13 28  1  0
 28 29  1  0
  8 30  1  0
 30 31  2  0
 31  5  1  0
 29 10  1  0
 27 15  1  0
 26 22  1  0
  1 32  1  0
  1 33  1  0
  1 34  1  0
  6 35  1  0
  7 36  1  0
  9 37  1  0
  9 38  1  0
 11 39  1  0
 11 40  1  0
 12 41  1  0
 12 42  1  0
 13 43  1  0
 16 44  1  0
 17 45  1  0
 18 46  1  0
 23 47  1  0
 23 48  1  0
 24 49  1  0
 24 50  1  0
 25 51  1  0
 25 52  1  0
 26 53  1  0
 26 54  1  0
 27 55  1  0
 28 56  1  0
 28 57  1  0
 29 58  1  0
 29 59  1  0
 30 60  1  0
 31 61  1  0
M  END
$$$$
