
     RDKit          3D

 39 42  0  0  0  0  0  0  0  0999 V2000
    5.5975   -3.0091    0.4675 C   0  0  0  0  0  0  0  0  0  0  0  0
    4.9411   -1.7765    0.1685 O   0  0  0  0  0  0  0  0  0  0  0  0
    3.7843   -1.9233   -0.5254 C   0  0  0  0  0  0  0  0  0  0  0  0
    3.3002   -2.9842   -0.8874 O   0  0  0  0  0  0  0  0  0  0  0  0
    3.1628   -0.5987   -0.7993 C   0  0  0  0  0  0  0  0  0  0  0  0
    3.7330    0.6045   -0.3655 C   0  0  0  0  0  0  0  0  0  0  0  0
    3.1060    1.8223   -0.6466 C   0  0  0  0  0  0  0  0  0  0  0  0
    1.9021    1.8577   -1.3659 C   0  0  0  0  0  0  0  0  0  0  0  0
    1.2167    3.1728   -1.6528 C   0  0  0  0  0  0  0  0  0  0  0  0
    0.3917    3.8801   -0.1960 S   0  0  0  0  0  0  0  0  0  0  0  0
   -0.9098    2.6842   -0.0038 C   0  0  0  0  0  0  0  0  0  0  0  0
   -1.6395    2.3651   -1.1099 N   0  0  0  0  0  0  0  0  0  0  0  0
   -2.6204    1.4625   -1.0499 N   0  0  0  0  0  0  0  0  0  0  0  0
   -2.8455    0.9041    0.1649 C   0  0  0  0  0  0  0  0  0  0  0  0
   -2.0766    1.2833    1.2499 C   0  0  0  0  0  0  0  0  0  0  0  0
   -1.0808    2.1843    1.2394 N   0  0  0  0  0  0  0  0  0  0  0  0
   -2.5080    0.5761    2.3349 N   0  0  0  0  0  0  0  0  0  0  0  0
   -3.5457   -0.2595    1.9759 C   0  0  0  0  0  0  0  0  0  0  0  0
   -4.2888   -1.1597    2.7479 C   0  0  0  0  0  0  0  0  0  0  0  0
   -5.2963   -1.8851    2.1042 C   0  0  0  0  0  0  0  0  0  0  0  0
   -5.5503   -1.7168    0.7443 C   0  0  0  0  0  0  0  0  0  0  0  0
   -4.7996   -0.8133   -0.0159 C   0  0  0  0  0  0  0  0  0  0  0  0
   -3.7780   -0.0697    0.6078 C   0  0  0  0  0  0  0  0  0  0  0  0
    1.3359    0.6501   -1.7985 C   0  0  0  0  0  0  0  0  0  0  0  0
    1.9607   -0.5678   -1.5171 C   0  0  0  0  0  0  0  0  0  0  0  0
    5.8746   -3.5297   -0.4546 H   0  0  0  0  0  0  0  0  0  0  0  0
    4.9601   -3.6410    1.0940 H   0  0  0  0  0  0  0  0  0  0  0  0
    6.5109   -2.7801    1.0233 H   0  0  0  0  0  0  0  0  0  0  0  0
    4.6635    0.6118    0.1967 H   0  0  0  0  0  0  0  0  0  0  0  0
    3.5611    2.7461   -0.2930 H   0  0  0  0  0  0  0  0  0  0  0  0
    0.5089    3.0749   -2.4837 H   0  0  0  0  0  0  0  0  0  0  0  0
    1.9714    3.8924   -1.9917 H   0  0  0  0  0  0  0  0  0  0  0  0
   -2.1130    0.6610    3.2595 H   0  0  0  0  0  0  0  0  0  0  0  0
   -4.0971   -1.2971    3.8077 H   0  0  0  0  0  0  0  0  0  0  0  0
   -5.8923   -2.5939    2.6759 H   0  0  0  0  0  0  0  0  0  0  0  0
   -6.3394   -2.2931    0.2666 H   0  0  0  0  0  0  0  0  0  0  0  0
   -5.0017   -0.6862   -1.0762 H   0  0  0  0  0  0  0  0  0  0  0  0
    0.3985    0.6451   -2.3534 H   0  0  0  0  0  0  0  0  0  0  0  0
    1.5017   -1.4939   -1.8592 H   0  0  0  0  0  0  0  0  0  0  0  0
  1  2  1  0
  2  3  1  0
  3  4  2  0
  3  5  1  0
  5  6  2  0
  6  7  1  0
  7  8  2  0
  8  9  1  0
  9 10  1  0
 10 11  1  0
 11 12  2  0
 12 13  1  0
 13 14  2  0
 14 15  1  0
 15 16  2  0
 15 17  1  0
 17 18  1  0
 18 19  2  0
 19 20  1  0
 20 21  2  0
 21 22  1  0
 22 23  2  0
  8 24  1  0
 24 25  2  0
 25  5  1  0
 16 11  1  0
 23 18  1  0
 23 14  1  0
  1 26  1  0
  1 27  1  0
  1 28  1  0
  6 29  1  0
  7 30  1  0
  9 31  1  0
  9 32  1  0
 17 33  1  0
 19 34  1  0
 20 35  1  0
 21 36  1  0
 22 37  1  0
 24 38  1  0
 25 39  1  0
M  END
$$$$
