
     RDKit          3D

 46 48  0  0  0  0  0  0  0  0999 V2000
   -3.1855   -2.7039    2.9248 C   0  0  0  0  0  0  0  0  0  0  0  0
   -2.3958   -1.9989    1.9736 O   0  0  0  0  0  0  0  0  0  0  0  0
   -3.0442   -1.5313    0.8518 C   0  0  0  0  0  0  0  0  0  0  0  0
   -4.4113   -1.6710    0.6010 C   0  0  0  0  0  0  0  0  0  0  0  0
   -4.9654   -1.1542   -0.5727 C   0  0  0  0  0  0  0  0  0  0  0  0
   -4.1646   -0.4838   -1.5019 C   0  0  0  0  0  0  0  0  0  0  0  0
   -4.7538    0.0422   -2.7783 C   0  0  0  0  0  0  0  0  0  0  0  0
   -2.7896   -0.3565   -1.2573 C   0  0  0  0  0  0  0  0  0  0  0  0
   -2.2241   -0.8696   -0.0874 C   0  0  0  0  0  0  0  0  0  0  0  0
   -0.8492   -0.7734    0.2297 N   0  0  0  0  0  0  0  0  0  0  0  0
    0.1644   -0.1894   -0.5081 C   0  0  0  0  0  0  0  0  0  0  0  0
    0.0400    0.3371   -1.6059 O   0  0  0  0  0  0  0  0  0  0  0  0
    1.5244   -0.3399    0.1766 C   0  0  0  0  0  0  0  0  0  0  0  0
    2.0695   -1.7116   -0.1865 C   0  0  0  0  0  0  0  0  0  0  0  0
    2.9862   -1.4031   -1.3322 C   0  0  0  0  0  0  0  0  0  0  0  0
    3.4820   -2.2358   -2.0737 O   0  0  0  0  0  0  0  0  0  0  0  0
    3.2380   -0.0658   -1.3999 O   0  0  0  0  0  0  0  0  0  0  0  0
    2.6461    0.6064   -0.2717 C   0  0  0  0  0  0  0  0  0  0  0  0
    3.7622    0.7014    0.8099 C   0  0  0  0  0  0  0  0  0  0  0  0
    3.5886    1.9188    1.7090 C   0  0  0  0  0  0  0  0  0  0  0  0
    3.6972    3.2187    0.9131 C   0  0  0  0  0  0  0  0  0  0  0  0
    3.2723    3.0644   -0.5469 C   0  0  0  0  0  0  0  0  0  0  0  0
    2.1769    2.0118   -0.7043 C   0  0  0  0  0  0  0  0  0  0  0  0
   -2.5255   -3.0149    3.7403 H   0  0  0  0  0  0  0  0  0  0  0  0
   -3.6201   -3.6083    2.4860 H   0  0  0  0  0  0  0  0  0  0  0  0
   -3.9590   -2.0575    3.3524 H   0  0  0  0  0  0  0  0  0  0  0  0
   -5.0760   -2.1774    1.2924 H   0  0  0  0  0  0  0  0  0  0  0  0
   -6.0306   -1.2778   -0.7573 H   0  0  0  0  0  0  0  0  0  0  0  0
   -5.8152    0.2796   -2.6519 H   0  0  0  0  0  0  0  0  0  0  0  0
   -4.2500    0.9637   -3.0885 H   0  0  0  0  0  0  0  0  0  0  0  0
   -4.6517   -0.7038   -3.5721 H   0  0  0  0  0  0  0  0  0  0  0  0
   -2.1801    0.1489   -2.0002 H   0  0  0  0  0  0  0  0  0  0  0  0
   -0.6233   -1.2039    1.1217 H   0  0  0  0  0  0  0  0  0  0  0  0
    1.3530   -0.2473    1.2567 H   0  0  0  0  0  0  0  0  0  0  0  0
    1.3017   -2.4222   -0.5044 H   0  0  0  0  0  0  0  0  0  0  0  0
    2.6605   -2.1395    0.6286 H   0  0  0  0  0  0  0  0  0  0  0  0
    4.7491    0.7477    0.3282 H   0  0  0  0  0  0  0  0  0  0  0  0
    3.7879   -0.2030    1.4293 H   0  0  0  0  0  0  0  0  0  0  0  0
    2.6103    1.8702    2.2030 H   0  0  0  0  0  0  0  0  0  0  0  0
    4.3409    1.9138    2.5061 H   0  0  0  0  0  0  0  0  0  0  0  0
    4.7291    3.5894    0.9420 H   0  0  0  0  0  0  0  0  0  0  0  0
    3.0832    3.9840    1.4030 H   0  0  0  0  0  0  0  0  0  0  0  0
    2.9262    4.0310   -0.9297 H   0  0  0  0  0  0  0  0  0  0  0  0
    4.1399    2.7804   -1.1554 H   0  0  0  0  0  0  0  0  0  0  0  0
    1.3159    2.3280   -0.1023 H   0  0  0  0  0  0  0  0  0  0  0  0
    1.8693    2.0062   -1.7564 H   0  0  0  0  0  0  0  0  0  0  0  0
  1  2  1  0
  2  3  1  0
  3  4  2  0
  4  5  1  0
  5  6  2  0
  6  7  1  0
  6  8  1  0
  8  9  2  0
  9 10  1  0
 10 11  1  0
 11 12  2  0
 11 13  1  0
 13 14  1  0
 14 15  1  0
 15 16  2  0
 15 17  1  0
 17 18  1  0
 18 19  1  0
 19 20  1  0
 20 21  1  0
 21 22  1  0
 22 23  1  0
  9  3  1  0
 18 13  1  0
 23 18  1  0
  1 24  1  0
  1 25  1  0
  1 26  1  0
  4 27  1  0
  5 28  1  0
  7 29  1  0
  7 30  1  0
  7 31  1  0
  8 32  1  0
 10 33  1  0
 13 34  1  0
 14 35  1  0
 14 36  1  0
 19 37  1  0
 19 38  1  0
 20 39  1  0
 20 40  1  0
 21 41  1  0
 21 42  1  0
 22 43  1  0
 22 44  1  0
 23 45  1  0
 23 46  1  0
M  END
$$$$
