
     RDKit          3D

 42 42  0  0  0  0  0  0  0  0999 V2000
   -2.5461   -3.6081    2.1509 C   0  0  0  0  0  0  0  0  0  0  0  0
   -1.5714   -3.6014    0.9834 C   0  0  0  0  0  0  0  0  0  0  0  0
   -0.6789   -2.3568    0.9361 C   0  0  0  0  0  0  0  0  0  0  0  0
   -1.4563   -1.0687    0.6299 C   0  0  0  0  0  0  0  0  0  0  0  0
   -0.6158    0.2289    0.5537 C   0  0  0  0  0  0  0  0  0  0  0  0
   -1.4631    1.4629    0.2757 C   0  0  0  0  0  0  0  0  0  0  0  0
   -1.0989    2.6071    0.5197 O   0  0  0  0  0  0  0  0  0  0  0  0
   -2.6172    1.1522   -0.3766 O   0  0  0  0  0  0  0  0  0  0  0  0
   -3.4702    2.2567   -0.7157 C   0  0  0  0  0  0  0  0  0  0  0  0
   -3.0742    2.8237   -2.0657 C   0  0  0  0  0  0  0  0  0  0  0  0
    0.5113    0.1896   -0.4736 C   0  0  0  0  0  0  0  0  0  0  0  0
    1.7627   -0.1013    0.3357 C   0  0  0  0  0  0  0  0  0  0  0  0
    3.0201    0.6232   -0.1492 C   0  0  0  0  0  0  0  0  0  0  0  0
    3.5095    0.0943   -1.8207 S   0  0  0  0  0  0  0  0  0  0  0  0
    4.9632    1.0243   -1.9543 C   0  0  0  0  0  0  0  0  0  0  0  0
    6.0954    0.4400   -1.8183 N   0  0  0  0  0  0  0  0  0  0  0  0
    4.8403    2.3379   -2.2256 N   0  0  0  0  0  0  0  0  0  0  0  0
    1.4674    0.3208    1.6711 O   0  0  0  0  0  0  0  0  0  0  0  0
    0.1211    0.4317    1.8509 C   0  0  0  0  0  0  0  0  0  0  0  0
   -0.3956    0.6267    2.9403 O   0  0  0  0  0  0  0  0  0  0  0  0
   -2.0224   -3.4673    3.1017 H   0  0  0  0  0  0  0  0  0  0  0  0
   -3.2998   -2.8219    2.0502 H   0  0  0  0  0  0  0  0  0  0  0  0
   -3.0733   -4.5666    2.1934 H   0  0  0  0  0  0  0  0  0  0  0  0
   -0.9273   -4.4851    1.0654 H   0  0  0  0  0  0  0  0  0  0  0  0
   -2.1259   -3.7004    0.0432 H   0  0  0  0  0  0  0  0  0  0  0  0
    0.0709   -2.5227    0.1551 H   0  0  0  0  0  0  0  0  0  0  0  0
   -0.1414   -2.2646    1.8865 H   0  0  0  0  0  0  0  0  0  0  0  0
   -2.2337   -0.9295    1.3917 H   0  0  0  0  0  0  0  0  0  0  0  0
   -1.9830   -1.2172   -0.3220 H   0  0  0  0  0  0  0  0  0  0  0  0
   -3.4563    3.0266    0.0642 H   0  0  0  0  0  0  0  0  0  0  0  0
   -4.4924    1.8675   -0.7648 H   0  0  0  0  0  0  0  0  0  0  0  0
   -3.0976    2.0423   -2.8324 H   0  0  0  0  0  0  0  0  0  0  0  0
   -2.0527    3.2162   -2.0428 H   0  0  0  0  0  0  0  0  0  0  0  0
   -3.7517    3.6293   -2.3622 H   0  0  0  0  0  0  0  0  0  0  0  0
    0.3518   -0.5582   -1.2585 H   0  0  0  0  0  0  0  0  0  0  0  0
    0.6085    1.1533   -0.9906 H   0  0  0  0  0  0  0  0  0  0  0  0
    1.9596   -1.1789    0.3803 H   0  0  0  0  0  0  0  0  0  0  0  0
    2.8579    1.7072   -0.1357 H   0  0  0  0  0  0  0  0  0  0  0  0
    3.8432    0.4248    0.5471 H   0  0  0  0  0  0  0  0  0  0  0  0
    5.9089   -0.5522   -1.6355 H   0  0  0  0  0  0  0  0  0  0  0  0
    4.0415    2.5793   -2.7972 H   0  0  0  0  0  0  0  0  0  0  0  0
    5.7116    2.7343   -2.5615 H   0  0  0  0  0  0  0  0  0  0  0  0
  1  2  1  0
  2  3  1  0
  3  4  1  0
  4  5  1  0
  5  6  1  0
  6  7  2  0
  6  8  1  0
  8  9  1  0
  9 10  1  0
  5 11  1  0
 11 12  1  0
 12 13  1  0
 13 14  1  0
 14 15  1  0
 15 16  2  3
 15 17  1  0
 12 18  1  0
 18 19  1  0
 19 20  2  0
 19  5  1  0
  1 21  1  0
  1 22  1  0
  1 23  1  0
  2 24  1  0
  2 25  1  0
  3 26  1  0
  3 27  1  0
  4 28  1  0
  4 29  1  0
  9 30  1  0
  9 31  1  0
 10 32  1  0
 10 33  1  0
 10 34  1  0
 11 35  1  0
 11 36  1  0
 12 37  1  0
 13 38  1  0
 13 39  1  0
 16 40  1  0
 17 41  1  0
 17 42  1  0
M  END
$$$$
