
     RDKit          3D

 48 51  0  0  0  0  0  0  0  0999 V2000
    7.0862    2.1097    1.6706 C   0  0  0  0  0  0  0  0  0  0  0  0
    5.7240    1.6975    1.1981 C   0  0  0  0  0  0  0  0  0  0  0  0
    4.5693    2.2350    1.7667 C   0  0  0  0  0  0  0  0  0  0  0  0
    3.3081    1.8316    1.3144 C   0  0  0  0  0  0  0  0  0  0  0  0
    3.1589    0.8953    0.3010 C   0  0  0  0  0  0  0  0  0  0  0  0
    1.9252    0.5419   -0.0954 N   0  0  0  0  0  0  0  0  0  0  0  0
    1.7897   -0.3676   -1.0908 C   0  0  0  0  0  0  0  0  0  0  0  0
    0.1114   -0.7964   -1.5365 S   0  0  0  0  0  0  0  0  0  0  0  0
   -0.7759    0.6497   -0.8682 C   0  0  0  0  0  0  0  0  0  0  0  0
   -2.2582    0.5178   -1.1876 C   0  0  0  0  0  0  0  0  0  0  0  0
   -2.6866    1.0089   -2.2364 O   0  0  0  0  0  0  0  0  0  0  0  0
   -3.0395   -0.1913   -0.2853 N   0  0  0  0  0  0  0  0  0  0  0  0
   -4.3897   -0.5544   -0.4915 C   0  0  0  0  0  0  0  0  0  0  0  0
   -5.2546   -0.1859   -1.5078 C   0  0  0  0  0  0  0  0  0  0  0  0
   -6.5616   -0.6851   -1.4889 C   0  0  0  0  0  0  0  0  0  0  0  0
   -6.9837   -1.5504   -0.4694 C   0  0  0  0  0  0  0  0  0  0  0  0
   -6.1030   -1.9328    0.5424 C   0  0  0  0  0  0  0  0  0  0  0  0
   -4.8135   -1.4228    0.5182 C   0  0  0  0  0  0  0  0  0  0  0  0
   -3.6869   -1.7611    1.4422 C   0  0  0  0  0  0  0  0  0  0  0  0
   -2.6414   -0.6923    1.0583 C   0  0  0  0  0  0  0  0  0  0  0  0
   -2.6450    0.4437    2.0906 C   0  0  0  0  0  0  0  0  0  0  0  0
    2.8812   -0.9715   -1.7196 C   0  0  0  0  0  0  0  0  0  0  0  0
    2.7356   -1.9868   -2.8156 C   0  0  0  0  0  0  0  0  0  0  0  0
    4.1600   -0.5945   -1.2935 C   0  0  0  0  0  0  0  0  0  0  0  0
    4.3198    0.3495   -0.2728 C   0  0  0  0  0  0  0  0  0  0  0  0
    5.5916    0.7502    0.1771 C   0  0  0  0  0  0  0  0  0  0  0  0
    7.6030    1.2554    2.1195 H   0  0  0  0  0  0  0  0  0  0  0  0
    7.6786    2.4891    0.8318 H   0  0  0  0  0  0  0  0  0  0  0  0
    7.0272    2.9032    2.4230 H   0  0  0  0  0  0  0  0  0  0  0  0
    4.6347    2.9718    2.5642 H   0  0  0  0  0  0  0  0  0  0  0  0
    2.4181    2.2620    1.7669 H   0  0  0  0  0  0  0  0  0  0  0  0
   -0.6069    0.7509    0.2032 H   0  0  0  0  0  0  0  0  0  0  0  0
   -0.4073    1.5641   -1.3466 H   0  0  0  0  0  0  0  0  0  0  0  0
   -4.9515    0.4812   -2.3070 H   0  0  0  0  0  0  0  0  0  0  0  0
   -7.2546   -0.4005   -2.2771 H   0  0  0  0  0  0  0  0  0  0  0  0
   -8.0012   -1.9335   -0.4765 H   0  0  0  0  0  0  0  0  0  0  0  0
   -6.4204   -2.6215    1.3187 H   0  0  0  0  0  0  0  0  0  0  0  0
   -3.3148   -2.7636    1.2032 H   0  0  0  0  0  0  0  0  0  0  0  0
   -3.9783   -1.7209    2.4958 H   0  0  0  0  0  0  0  0  0  0  0  0
   -1.6421   -1.1370    1.0165 H   0  0  0  0  0  0  0  0  0  0  0  0
   -1.9592    1.2495    1.8155 H   0  0  0  0  0  0  0  0  0  0  0  0
   -2.3443    0.0680    3.0742 H   0  0  0  0  0  0  0  0  0  0  0  0
   -3.6405    0.8914    2.1890 H   0  0  0  0  0  0  0  0  0  0  0  0
    2.1967   -2.8686   -2.4544 H   0  0  0  0  0  0  0  0  0  0  0  0
    3.7118   -2.3290   -3.1763 H   0  0  0  0  0  0  0  0  0  0  0  0
    2.2073   -1.5553   -3.6719 H   0  0  0  0  0  0  0  0  0  0  0  0
    5.0371   -1.0384   -1.7596 H   0  0  0  0  0  0  0  0  0  0  0  0
    6.4855    0.3214   -0.2722 H   0  0  0  0  0  0  0  0  0  0  0  0
  1  2  1  0
  2  3  2  0
  3  4  1  0
  4  5  2  0
  5  6  1  0
  6  7  2  0
  7  8  1  0
  8  9  1  0
  9 10  1  0
 10 11  2  0
 10 12  1  0
 12 13  1  0
 13 14  2  0
 14 15  1  0
 15 16  2  0
 16 17  1  0
 17 18  2  0
 18 19  1  0
 19 20  1  0
 20 21  1  0
  7 22  1  0
 22 23  1  0
 22 24  2  0
 24 25  1  0
 25 26  2  0
 26  2  1  0
 25  5  1  0
 20 12  1  0
 18 13  1  0
  1 27  1  0
  1 28  1  0
  1 29  1  0
  3 30  1  0
  4 31  1  0
  9 32  1  0
  9 33  1  0
 14 34  1  0
 15 35  1  0
 16 36  1  0
 17 37  1  0
 19 38  1  0
 19 39  1  0
 20 40  1  0
 21 41  1  0
 21 42  1  0
 21 43  1  0
 23 44  1  0
 23 45  1  0
 23 46  1  0
 24 47  1  0
 26 48  1  0
M  END
$$$$
