
     RDKit          3D

 46 49  0  0  0  0  0  0  0  0999 V2000
   -3.2350   -2.9795    0.2351 C   0  0  0  0  0  0  0  0  0  0  0  0
   -2.0275   -2.3797    0.7941 N   0  0  0  0  0  0  0  0  0  0  0  0
   -2.2343   -1.8226    2.1272 C   0  0  0  0  0  0  0  0  0  0  0  0
   -1.4220   -1.4434   -0.0969 N   0  0  0  0  0  0  0  0  0  0  0  0
   -2.1295   -0.2841   -0.4984 C   0  0  0  0  0  0  0  0  0  0  0  0
   -3.3005    0.0529   -0.0375 N   0  0  0  0  0  0  0  0  0  0  0  0
   -1.4352    0.5457   -1.5927 C   0  0  0  0  0  0  0  0  0  0  0  0
   -2.0284    1.8705   -1.8079 C   0  0  0  0  0  0  0  0  0  0  0  0
   -2.5390    2.8964   -1.9910 N   0  0  0  0  0  0  0  0  0  0  0  0
    0.0910    0.6290   -1.3704 C   0  0  0  0  0  0  0  0  0  0  0  0
    0.5508    1.6599   -0.3339 C   0  0  0  0  0  0  0  0  0  0  0  0
    0.0747    1.6639    1.0002 C   0  0  0  0  0  0  0  0  0  0  0  0
    0.5160    2.6169    1.9261 C   0  0  0  0  0  0  0  0  0  0  0  0
    1.4352    3.5493    1.5029 C   0  0  0  0  0  0  0  0  0  0  0  0
    1.9157    3.5536    0.2173 C   0  0  0  0  0  0  0  0  0  0  0  0
    1.5006    2.6277   -0.7171 C   0  0  0  0  0  0  0  0  0  0  0  0
    2.8181    4.5481    0.0038 O   0  0  0  0  0  0  0  0  0  0  0  0
    2.8400    5.1767    1.3016 C   0  0  0  0  0  0  0  0  0  0  0  0
    1.9725    4.5399    2.2630 O   0  0  0  0  0  0  0  0  0  0  0  0
    0.6568   -0.7407   -1.0619 C   0  0  0  0  0  0  0  0  0  0  0  0
   -0.0864   -1.6995   -0.4678 C   0  0  0  0  0  0  0  0  0  0  0  0
    0.4909   -3.0756   -0.1710 C   0  0  0  0  0  0  0  0  0  0  0  0
    1.7385   -3.4046   -0.9849 C   0  0  0  0  0  0  0  0  0  0  0  0
    2.7312   -2.2607   -0.9443 C   0  0  0  0  0  0  0  0  0  0  0  0
    2.0757   -0.9990   -1.4459 C   0  0  0  0  0  0  0  0  0  0  0  0
    2.6935   -0.1839   -2.1270 O   0  0  0  0  0  0  0  0  0  0  0  0
   -3.5327   -3.8423    0.8418 H   0  0  0  0  0  0  0  0  0  0  0  0
   -4.0898   -2.2983    0.1943 H   0  0  0  0  0  0  0  0  0  0  0  0
   -3.0478   -3.3597   -0.7756 H   0  0  0  0  0  0  0  0  0  0  0  0
   -3.0217   -1.0649    2.1727 H   0  0  0  0  0  0  0  0  0  0  0  0
   -2.5076   -2.6229    2.8241 H   0  0  0  0  0  0  0  0  0  0  0  0
   -1.3079   -1.3803    2.5109 H   0  0  0  0  0  0  0  0  0  0  0  0
   -3.6810    0.9123   -0.4485 H   0  0  0  0  0  0  0  0  0  0  0  0
   -1.6048   -0.0330   -2.5146 H   0  0  0  0  0  0  0  0  0  0  0  0
    0.4941    0.9475   -2.3439 H   0  0  0  0  0  0  0  0  0  0  0  0
   -0.6429    0.9254    1.3478 H   0  0  0  0  0  0  0  0  0  0  0  0
    0.1475    2.6222    2.9459 H   0  0  0  0  0  0  0  0  0  0  0  0
    1.9159    2.6547   -1.7207 H   0  0  0  0  0  0  0  0  0  0  0  0
    2.5320    6.2229    1.1903 H   0  0  0  0  0  0  0  0  0  0  0  0
    3.8662    5.1517    1.6858 H   0  0  0  0  0  0  0  0  0  0  0  0
   -0.2488   -3.8558   -0.3880 H   0  0  0  0  0  0  0  0  0  0  0  0
    0.7275   -3.1344    0.8990 H   0  0  0  0  0  0  0  0  0  0  0  0
    2.2020   -4.3204   -0.6013 H   0  0  0  0  0  0  0  0  0  0  0  0
    1.4493   -3.6034   -2.0253 H   0  0  0  0  0  0  0  0  0  0  0  0
    3.1018   -2.0835    0.0709 H   0  0  0  0  0  0  0  0  0  0  0  0
    3.5855   -2.4950   -1.5884 H   0  0  0  0  0  0  0  0  0  0  0  0
  1  2  1  0
  2  3  1  0
  2  4  1  0
  4  5  1  0
  5  6  2  3
  5  7  1  0
  7  8  1  0
  8  9  3  0
  7 10  1  0
 10 11  1  0
 11 12  2  0
 12 13  1  0
 13 14  2  0
 14 15  1  0
 15 16  2  0
 15 17  1  0
 17 18  1  0
 18 19  1  0
 10 20  1  0
 20 21  2  0
 21 22  1  0
 22 23  1  0
 23 24  1  0
 24 25  1  0
 25 26  2  0
 21  4  1  0
 16 11  1  0
 25 20  1  0
 19 14  1  0
  1 27  1  0
  1 28  1  0
  1 29  1  0
  3 30  1  0
  3 31  1  0
  3 32  1  0
  6 33  1  0
  7 34  1  0
 10 35  1  0
 12 36  1  0
 13 37  1  0
 16 38  1  0
 18 39  1  0
 18 40  1  0
 22 41  1  0
 22 42  1  0
 23 43  1  0
 23 44  1  0
 24 45  1  0
 24 46  1  0
M  END
$$$$
