
     RDKit          3D

 37 38  0  0  0  0  0  0  0  0999 V2000
   -4.1516   -0.3650   -2.1743 C   0  0  0  0  0  0  0  0  0  0  0  0
   -3.4970   -0.0952   -0.8948 N   0  0  0  0  0  0  0  0  0  0  0  0
   -2.1871    0.3788   -0.8855 C   0  0  0  0  0  0  0  0  0  0  0  0
   -1.5487    0.6081   -2.1017 N   0  0  0  0  0  0  0  0  0  0  0  0
   -1.5729    0.5966    0.2996 C   0  0  0  0  0  0  0  0  0  0  0  0
   -0.1565    1.0895    0.3381 C   0  0  0  0  0  0  0  0  0  0  0  0
    0.2713    1.8196   -0.5638 O   0  0  0  0  0  0  0  0  0  0  0  0
    0.7378    0.6361    1.4954 C   0  0  0  0  0  0  0  0  0  0  0  0
    2.1242    0.6296    1.1509 O   0  0  0  0  0  0  0  0  0  0  0  0
    2.4732   -0.3488    0.2755 C   0  0  0  0  0  0  0  0  0  0  0  0
    1.7117   -1.1954   -0.1728 O   0  0  0  0  0  0  0  0  0  0  0  0
    3.9225   -0.2619   -0.0764 C   0  0  0  0  0  0  0  0  0  0  0  0
    4.4251   -1.1247   -1.0462 C   0  0  0  0  0  0  0  0  0  0  0  0
    5.7768   -1.0435   -1.3696 C   0  0  0  0  0  0  0  0  0  0  0  0
    6.5776   -0.1112   -0.7186 C   0  0  0  0  0  0  0  0  0  0  0  0
    5.9944    0.7070    0.2360 C   0  0  0  0  0  0  0  0  0  0  0  0
    4.6891    0.6534    0.5750 N   0  0  0  0  0  0  0  0  0  0  0  0
   -2.3081    0.3564    1.5580 C   0  0  0  0  0  0  0  0  0  0  0  0
   -1.8032    0.6833    2.6317 O   0  0  0  0  0  0  0  0  0  0  0  0
   -3.5577   -0.2084    1.4569 N   0  0  0  0  0  0  0  0  0  0  0  0
   -4.2937   -0.4776    2.6789 C   0  0  0  0  0  0  0  0  0  0  0  0
   -4.2266   -0.3774    0.2575 C   0  0  0  0  0  0  0  0  0  0  0  0
   -5.4022   -0.7466    0.2242 O   0  0  0  0  0  0  0  0  0  0  0  0
   -4.3241    0.5835   -2.6931 H   0  0  0  0  0  0  0  0  0  0  0  0
   -5.1169   -0.8644   -2.0533 H   0  0  0  0  0  0  0  0  0  0  0  0
   -3.5173   -1.0180   -2.7829 H   0  0  0  0  0  0  0  0  0  0  0  0
   -2.1474    1.0874   -2.7669 H   0  0  0  0  0  0  0  0  0  0  0  0
   -0.6798    1.1484   -1.9870 H   0  0  0  0  0  0  0  0  0  0  0  0
    0.6208    1.3537    2.3133 H   0  0  0  0  0  0  0  0  0  0  0  0
    0.4480   -0.3569    1.8569 H   0  0  0  0  0  0  0  0  0  0  0  0
    3.7795   -1.8432   -1.5418 H   0  0  0  0  0  0  0  0  0  0  0  0
    6.2005   -1.7012   -2.1237 H   0  0  0  0  0  0  0  0  0  0  0  0
    7.6338   -0.0229   -0.9500 H   0  0  0  0  0  0  0  0  0  0  0  0
    6.5809    1.4502    0.7695 H   0  0  0  0  0  0  0  0  0  0  0  0
   -4.9303    0.3863    2.8954 H   0  0  0  0  0  0  0  0  0  0  0  0
   -3.6187   -0.6437    3.5234 H   0  0  0  0  0  0  0  0  0  0  0  0
   -4.9276   -1.3616    2.5582 H   0  0  0  0  0  0  0  0  0  0  0  0
  1  2  1  0
  2  3  1  0
  3  4  1  0
  3  5  2  0
  5  6  1  0
  6  7  2  0
  6  8  1  0
  8  9  1  0
  9 10  1  0
 10 11  2  0
 10 12  1  0
 12 13  2  0
 13 14  1  0
 14 15  2  0
 15 16  1  0
 16 17  2  0
  5 18  1  0
 18 19  2  0
 18 20  1  0
 20 21  1  0
 20 22  1  0
 22 23  2  0
 22  2  1  0
 17 12  1  0
  1 24  1  0
  1 25  1  0
  1 26  1  0
  4 27  1  0
  4 28  1  0
  8 29  1  0
  8 30  1  0
 13 31  1  0
 14 32  1  0
 15 33  1  0
 16 34  1  0
 21 35  1  0
 21 36  1  0
 21 37  1  0
M  END
$$$$
