
     RDKit          3D

 40 42  0  0  0  0  0  0  0  0999 V2000
    6.0137   -0.6963   -0.6147 C   0  0  0  0  0  0  0  0  0  0  0  0
    5.4662    0.4395    0.2360 C   0  0  0  0  0  0  0  0  0  0  0  0
    3.9587    0.4612    0.2389 C   0  0  0  0  0  0  0  0  0  0  0  0
    3.2406   -0.2480    1.2090 C   0  0  0  0  0  0  0  0  0  0  0  0
    1.8434   -0.2400    1.2023 C   0  0  0  0  0  0  0  0  0  0  0  0
    1.1455    0.4724    0.2207 C   0  0  0  0  0  0  0  0  0  0  0  0
   -0.3360    0.4598    0.2398 C   0  0  0  0  0  0  0  0  0  0  0  0
   -1.0263   -0.0369    1.2224 N   0  0  0  0  0  0  0  0  0  0  0  0
   -2.4767    0.1128    0.8377 N   0  0  0  0  0  0  0  0  0  0  0  0
   -3.4704    1.0069    1.9028 S   0  0  0  0  0  6  0  0  0  0  0  0
   -3.2323    0.1187    3.4259 C   0  0  0  0  0  0  0  0  0  0  0  0
   -4.8457    0.8345    1.4786 O   0  0  0  0  0  0  0  0  0  0  0  0
   -2.9051    2.3358    2.0322 O   0  0  0  0  0  0  0  0  0  0  0  0
   -2.5555    0.5683   -0.5739 C   0  0  0  0  0  0  0  0  0  0  0  0
   -3.0245   -0.5880   -1.4271 C   0  0  0  0  0  0  0  0  0  0  0  0
   -4.2847   -0.7490   -1.9781 C   0  0  0  0  0  0  0  0  0  0  0  0
   -4.4106   -1.9552   -2.7246 C   0  0  0  0  0  0  0  0  0  0  0  0
   -3.2470   -2.6888   -2.7147 C   0  0  0  0  0  0  0  0  0  0  0  0
   -2.0171   -1.9282   -1.8062 S   0  0  0  0  0  0  0  0  0  0  0  0
   -1.1463    1.0707   -0.8766 C   0  0  0  0  0  0  0  0  0  0  0  0
    1.8578    1.1788   -0.7534 C   0  0  0  0  0  0  0  0  0  0  0  0
    3.2562    1.1697   -0.7441 C   0  0  0  0  0  0  0  0  0  0  0  0
    7.1081   -0.6874   -0.5985 H   0  0  0  0  0  0  0  0  0  0  0  0
    5.6764   -1.6697   -0.2425 H   0  0  0  0  0  0  0  0  0  0  0  0
    5.6890   -0.6045   -1.6568 H   0  0  0  0  0  0  0  0  0  0  0  0
    5.8476    1.3984   -0.1356 H   0  0  0  0  0  0  0  0  0  0  0  0
    5.8365    0.3437    1.2639 H   0  0  0  0  0  0  0  0  0  0  0  0
    3.7642   -0.8125    1.9780 H   0  0  0  0  0  0  0  0  0  0  0  0
    1.3081   -0.7984    1.9674 H   0  0  0  0  0  0  0  0  0  0  0  0
   -2.1878    0.1973    3.7313 H   0  0  0  0  0  0  0  0  0  0  0  0
   -3.8717    0.5773    4.1834 H   0  0  0  0  0  0  0  0  0  0  0  0
   -3.5242   -0.9225    3.2778 H   0  0  0  0  0  0  0  0  0  0  0  0
   -3.2601    1.3986   -0.7051 H   0  0  0  0  0  0  0  0  0  0  0  0
   -5.0882   -0.0337   -1.8402 H   0  0  0  0  0  0  0  0  0  0  0  0
   -5.3125   -2.2727   -3.2337 H   0  0  0  0  0  0  0  0  0  0  0  0
   -3.0614   -3.6422   -3.1899 H   0  0  0  0  0  0  0  0  0  0  0  0
   -0.7786    0.7979   -1.8685 H   0  0  0  0  0  0  0  0  0  0  0  0
   -1.0985    2.1600   -0.7626 H   0  0  0  0  0  0  0  0  0  0  0  0
    1.3527    1.7494   -1.5268 H   0  0  0  0  0  0  0  0  0  0  0  0
    3.7966    1.7224   -1.5103 H   0  0  0  0  0  0  0  0  0  0  0  0
  1  2  1  0
  2  3  1  0
  3  4  2  0
  4  5  1  0
  5  6  2  0
  6  7  1  0
  7  8  2  0
  8  9  1  0
  9 10  1  0
 10 11  1  0
 10 12  2  0
 10 13  2  0
  9 14  1  0
 14 15  1  0
 15 16  2  0
 16 17  1  0
 17 18  2  0
 18 19  1  0
 14 20  1  0
  6 21  1  0
 21 22  2  0
 22  3  1  0
 20  7  1  0
 19 15  1  0
  1 23  1  0
  1 24  1  0
  1 25  1  0
  2 26  1  0
  2 27  1  0
  4 28  1  0
  5 29  1  0
 11 30  1  0
 11 31  1  0
 11 32  1  0
 14 33  1  0
 16 34  1  0
 17 35  1  0
 18 36  1  0
 20 37  1  0
 20 38  1  0
 21 39  1  0
 22 40  1  0
M  END
$$$$
