
     RDKit          3D

 53 58  0  0  0  0  0  0  0  0999 V2000
   -1.0084    1.6958    0.6404 O   0  0  0  0  0  0  0  0  0  0  0  0
   -1.5358    0.7550    0.0394 C   0  0  0  0  0  0  0  0  0  0  0  0
   -0.7348    0.0771   -1.0940 C   0  0  0  0  0  0  0  0  0  0  0  0
    0.7190    0.1294   -0.8326 N   0  0  0  0  0  4  0  0  0  0  0  0
    1.7108    0.5539   -1.7155 C   0  0  0  0  0  0  0  0  0  0  0  0
    2.9440    0.4872   -1.0779 C   0  0  0  0  0  0  0  0  0  0  0  0
    4.3319    0.8957   -1.6904 C   0  0  0  0  0  0  0  0  0  0  0  0
    4.4107    1.3009   -3.0294 C   0  0  0  0  0  0  0  0  0  0  0  0
    5.6412    1.6643   -3.5824 C   0  0  0  0  0  0  0  0  0  0  0  0
    6.7948    1.6276   -2.8037 C   0  0  0  0  0  0  0  0  0  0  0  0
    6.7200    1.2310   -1.4706 C   0  0  0  0  0  0  0  0  0  0  0  0
    5.4917    0.8663   -0.9130 C   0  0  0  0  0  0  0  0  0  0  0  0
    2.6274   -0.0084    0.1738 N   0  0  0  0  0  0  0  0  0  0  0  0
    1.3159   -0.1769    0.3165 C   0  0  0  0  0  0  0  0  0  0  0  0
    0.9372   -0.6810    1.6584 C   0  0  0  0  0  0  0  0  0  0  0  0
    2.2975   -1.1286    2.2283 C   0  0  0  0  0  0  0  0  0  0  0  0
    3.3541   -0.3668    1.3834 C   0  0  0  0  0  0  0  0  0  0  0  0
   -2.7364    0.1203    0.4056 N   0  0  0  0  0  0  0  0  0  0  0  0
   -3.5182   -0.6442   -0.5293 C   0  0  0  0  0  0  0  0  0  0  0  0
   -3.6498   -0.1888   -1.8560 C   0  0  0  0  0  0  0  0  0  0  0  0
   -4.3859   -0.9101   -2.7994 C   0  0  0  0  0  0  0  0  0  0  0  0
   -5.0170   -2.0913   -2.4305 C   0  0  0  0  0  0  0  0  0  0  0  0
   -4.9326   -2.5370   -1.1134 C   0  0  0  0  0  0  0  0  0  0  0  0
   -4.2044   -1.8112   -0.1599 C   0  0  0  0  0  0  0  0  0  0  0  0
   -4.1396   -2.4370    1.4959 S   0  0  0  0  0  0  0  0  0  0  0  0
   -3.9157   -0.8922    2.3493 C   0  0  0  0  0  0  0  0  0  0  0  0
   -4.3761   -0.8171    3.6730 C   0  0  0  0  0  0  0  0  0  0  0  0
   -4.1803    0.3367    4.4254 C   0  0  0  0  0  0  0  0  0  0  0  0
   -3.5205    1.4185    3.8589 C   0  0  0  0  0  0  0  0  0  0  0  0
   -3.0522    1.3447    2.5428 C   0  0  0  0  0  0  0  0  0  0  0  0
   -3.2370    0.1922    1.7588 C   0  0  0  0  0  0  0  0  0  0  0  0
   -0.9842   -0.9835   -1.1914 H   0  0  0  0  0  0  0  0  0  0  0  0
   -0.9331    0.6036   -2.0318 H   0  0  0  0  0  0  0  0  0  0  0  0
    1.4080    0.8700   -2.6988 H   0  0  0  0  0  0  0  0  0  0  0  0
    3.5374    1.3392   -3.6743 H   0  0  0  0  0  0  0  0  0  0  0  0
    5.7028    1.9753   -4.6235 H   0  0  0  0  0  0  0  0  0  0  0  0
    7.7529    1.9106   -3.2350 H   0  0  0  0  0  0  0  0  0  0  0  0
    7.6233    1.2082   -0.8641 H   0  0  0  0  0  0  0  0  0  0  0  0
    5.4791    0.5804    0.1303 H   0  0  0  0  0  0  0  0  0  0  0  0
    0.2221   -1.4966    1.5450 H   0  0  0  0  0  0  0  0  0  0  0  0
    0.5187    0.1619    2.2112 H   0  0  0  0  0  0  0  0  0  0  0  0
    2.4183   -2.2057    2.0628 H   0  0  0  0  0  0  0  0  0  0  0  0
    2.3950   -0.9387    3.3008 H   0  0  0  0  0  0  0  0  0  0  0  0
    3.6759    0.5502    1.8864 H   0  0  0  0  0  0  0  0  0  0  0  0
    4.2081   -1.0078    1.1538 H   0  0  0  0  0  0  0  0  0  0  0  0
   -3.2406    0.7694   -2.1681 H   0  0  0  0  0  0  0  0  0  0  0  0
   -4.4887   -0.5378   -3.8175 H   0  0  0  0  0  0  0  0  0  0  0  0
   -5.5974   -2.6541   -3.1591 H   0  0  0  0  0  0  0  0  0  0  0  0
   -5.4506   -3.4526   -0.8325 H   0  0  0  0  0  0  0  0  0  0  0  0
   -4.8932   -1.6601    4.1285 H   0  0  0  0  0  0  0  0  0  0  0  0
   -4.5471    0.3923    5.4473 H   0  0  0  0  0  0  0  0  0  0  0  0
   -3.3771    2.3303    4.4355 H   0  0  0  0  0  0  0  0  0  0  0  0
   -2.5812    2.2393    2.1426 H   0  0  0  0  0  0  0  0  0  0  0  0
  1  2  2  0
  2  3  1  0
  3  4  1  0
  4  5  1  0
  5  6  2  0
  6  7  1  0
  7  8  2  0
  8  9  1  0
  9 10  2  0
 10 11  1  0
 11 12  2  0
  6 13  1  0
 13 14  1  0
 14 15  1  0
 15 16  1  0
 16 17  1  0
  2 18  1  0
 18 19  1  0
 19 20  2  0
 20 21  1  0
 21 22  2  0
 22 23  1  0
 23 24  2  0
 24 25  1  0
 25 26  1  0
 26 27  2  0
 27 28  1  0
 28 29  2  0
 29 30  1  0
 30 31  2  0
 14  4  2  0
 31 18  1  0
 12  7  1  0
 17 13  1  0
 24 19  1  0
 31 26  1  0
  3 32  1  0
  3 33  1  0
  5 34  1  0
  8 35  1  0
  9 36  1  0
 10 37  1  0
 11 38  1  0
 12 39  1  0
 15 40  1  0
 15 41  1  0
 16 42  1  0
 16 43  1  0
 17 44  1  0
 17 45  1  0
 20 46  1  0
 21 47  1  0
 22 48  1  0
 23 49  1  0
 27 50  1  0
 28 51  1  0
 29 52  1  0
 30 53  1  0
M  CHG  1   4   1
M  END
$$$$
