
     RDKit          3D

 56 59  0  0  0  0  0  0  0  0999 V2000
   -0.0965   -1.3877   -4.7937 C   0  0  0  0  0  0  0  0  0  0  0  0
   -0.6093   -1.1924   -3.4827 O   0  0  0  0  0  0  0  0  0  0  0  0
   -1.8176   -0.5574   -3.3664 C   0  0  0  0  0  0  0  0  0  0  0  0
   -2.6191   -0.1723   -4.4447 C   0  0  0  0  0  0  0  0  0  0  0  0
   -3.8370    0.4789   -4.2250 C   0  0  0  0  0  0  0  0  0  0  0  0
   -4.2718    0.7597   -2.9247 C   0  0  0  0  0  0  0  0  0  0  0  0
   -5.5765    1.4642   -2.7461 C   0  0  0  0  0  0  0  0  0  0  0  0
   -6.0468    1.7899   -1.3535 C   0  0  0  0  0  0  0  0  0  0  0  0
   -6.2474    1.7686   -3.7303 O   0  0  0  0  0  0  0  0  0  0  0  0
   -3.4749    0.3734   -1.8425 C   0  0  0  0  0  0  0  0  0  0  0  0
   -2.2510   -0.2948   -2.0519 C   0  0  0  0  0  0  0  0  0  0  0  0
   -1.4119   -0.6849   -0.8553 C   0  0  0  0  0  0  0  0  0  0  0  0
   -0.2639    0.6472   -0.3961 S   0  0  0  0  0  0  0  0  0  0  0  0
    0.7819   -0.2586    0.6770 C   0  0  0  0  0  0  0  0  0  0  0  0
    0.1967   -1.0333    1.5330 N   0  0  0  0  0  0  0  0  0  0  0  0
    0.9830   -1.7808    2.4099 C   0  0  0  0  0  0  0  0  0  0  0  0
    0.3511   -2.5994    3.3502 C   0  0  0  0  0  0  0  0  0  0  0  0
    1.1074   -3.3732    4.2408 C   0  0  0  0  0  0  0  0  0  0  0  0
    0.4722   -4.2553    5.2477 C   0  0  0  0  0  0  0  0  0  0  0  0
    1.0600   -4.9564    6.0492 O   0  0  0  0  0  0  0  0  0  0  0  0
   -0.8693   -4.2180    5.2007 O   0  0  0  0  0  0  0  0  0  0  0  0
    2.5069   -3.3248    4.1884 C   0  0  0  0  0  0  0  0  0  0  0  0
    3.1422   -2.5093    3.2515 C   0  0  0  0  0  0  0  0  0  0  0  0
    2.3727   -1.7427    2.3687 C   0  0  0  0  0  0  0  0  0  0  0  0
    3.0042   -0.8730    1.3618 C   0  0  0  0  0  0  0  0  0  0  0  0
    4.2308   -0.8740    1.2743 O   0  0  0  0  0  0  0  0  0  0  0  0
    2.1550   -0.1140    0.5594 N   0  0  0  0  0  0  0  0  0  0  0  0
    2.8034    0.7819   -0.4066 C   0  0  0  0  0  0  0  0  0  0  0  0
    2.9598    2.1976    0.1125 C   0  0  0  0  0  0  0  0  0  0  0  0
    3.8568    2.4834    1.1536 C   0  0  0  0  0  0  0  0  0  0  0  0
    4.0060    3.7867    1.6283 C   0  0  0  0  0  0  0  0  0  0  0  0
    3.2621    4.8223    1.0690 C   0  0  0  0  0  0  0  0  0  0  0  0
    2.3736    4.5560    0.0301 C   0  0  0  0  0  0  0  0  0  0  0  0
    2.2263    3.2532   -0.4488 C   0  0  0  0  0  0  0  0  0  0  0  0
   -0.7396   -2.0585   -5.3719 H   0  0  0  0  0  0  0  0  0  0  0  0
    0.8831   -1.8659   -4.7011 H   0  0  0  0  0  0  0  0  0  0  0  0
    0.0476   -0.4321   -5.3089 H   0  0  0  0  0  0  0  0  0  0  0  0
   -2.3296   -0.3609   -5.4733 H   0  0  0  0  0  0  0  0  0  0  0  0
   -4.4446    0.7707   -5.0806 H   0  0  0  0  0  0  0  0  0  0  0  0
   -5.3411    2.4646   -0.8645 H   0  0  0  0  0  0  0  0  0  0  0  0
   -6.1779    0.8735   -0.7737 H   0  0  0  0  0  0  0  0  0  0  0  0
   -7.0164    2.2954   -1.4109 H   0  0  0  0  0  0  0  0  0  0  0  0
   -3.7810    0.5854   -0.8204 H   0  0  0  0  0  0  0  0  0  0  0  0
   -0.8612   -1.6093   -1.0640 H   0  0  0  0  0  0  0  0  0  0  0  0
   -2.0690   -0.9028   -0.0040 H   0  0  0  0  0  0  0  0  0  0  0  0
   -0.7361   -2.6261    3.3769 H   0  0  0  0  0  0  0  0  0  0  0  0
   -1.1494   -4.8386    5.9062 H   0  0  0  0  0  0  0  0  0  0  0  0
    3.1053   -3.9218    4.8748 H   0  0  0  0  0  0  0  0  0  0  0  0
    4.2291   -2.4740    3.2103 H   0  0  0  0  0  0  0  0  0  0  0  0
    2.2505    0.7779   -1.3516 H   0  0  0  0  0  0  0  0  0  0  0  0
    3.7998    0.4037   -0.6653 H   0  0  0  0  0  0  0  0  0  0  0  0
    4.4576    1.6921    1.5978 H   0  0  0  0  0  0  0  0  0  0  0  0
    4.7076    3.9927    2.4328 H   0  0  0  0  0  0  0  0  0  0  0  0
    3.3788    5.8372    1.4390 H   0  0  0  0  0  0  0  0  0  0  0  0
    1.7954    5.3640   -0.4106 H   0  0  0  0  0  0  0  0  0  0  0  0
    1.5319    3.0722   -1.2665 H   0  0  0  0  0  0  0  0  0  0  0  0
  1  2  1  0
  2  3  1  0
  3  4  2  0
  4  5  1  0
  5  6  2  0
  6  7  1  0
  7  8  1  0
  7  9  2  0
  6 10  1  0
 10 11  2  0
 11 12  1  0
 12 13  1  0
 13 14  1  0
 14 15  2  0
 15 16  1  0
 16 17  2  0
 17 18  1  0
 18 19  1  0
 19 20  2  0
 19 21  1  0
 18 22  2  0
 22 23  1  0
 23 24  2  0
 24 25  1  0
 25 26  2  0
 25 27  1  0
 27 28  1  0
 28 29  1  0
 29 30  2  0
 30 31  1  0
 31 32  2  0
 32 33  1  0
 33 34  2  0
 11  3  1  0
 27 14  1  0
 34 29  1  0
 24 16  1  0
  1 35  1  0
  1 36  1  0
  1 37  1  0
  4 38  1  0
  5 39  1  0
  8 40  1  0
  8 41  1  0
  8 42  1  0
 10 43  1  0
 12 44  1  0
 12 45  1  0
 17 46  1  0
 21 47  1  0
 22 48  1  0
 23 49  1  0
 28 50  1  0
 28 51  1  0
 30 52  1  0
 31 53  1  0
 32 54  1  0
 33 55  1  0
 34 56  1  0
M  END
$$$$
