
     RDKit          3D

 52 54  0  0  0  0  0  0  0  0999 V2000
    0.2995   -2.5608   -1.3260 C   0  0  0  0  0  0  0  0  0  0  0  0
    1.1647   -1.7456   -0.3689 C   0  0  0  0  0  0  0  0  0  0  0  0
    0.6186   -0.4106   -0.0546 N   0  0  0  0  0  0  0  0  0  0  0  0
    1.7127    0.5298    0.2865 C   0  0  0  0  0  0  0  0  0  0  0  0
    2.6338    0.8822   -0.8692 C   0  0  0  0  0  0  0  0  0  0  0  0
    2.1340    1.1497   -2.1539 C   0  0  0  0  0  0  0  0  0  0  0  0
    2.9965    1.4978   -3.1951 C   0  0  0  0  0  0  0  0  0  0  0  0
    4.3700    1.5946   -2.9617 C   0  0  0  0  0  0  0  0  0  0  0  0
    4.8805    1.3484   -1.6874 C   0  0  0  0  0  0  0  0  0  0  0  0
    4.0186    0.9978   -0.6462 C   0  0  0  0  0  0  0  0  0  0  0  0
   -0.4566   -0.3601    0.9826 C   0  0  0  0  0  0  0  0  0  0  0  0
   -0.0100   -0.6724    2.4195 C   0  0  0  0  0  0  0  0  0  0  0  0
    0.2313    0.3789    3.3209 C   0  0  0  0  0  0  0  0  0  0  0  0
    0.6399    0.0841    4.6144 C   0  0  0  0  0  0  0  0  0  0  0  0
    0.8180   -1.1690    5.0768 N   0  0  0  0  0  0  0  0  0  0  0  0
    0.5822   -2.1716    4.2060 C   0  0  0  0  0  0  0  0  0  0  0  0
    0.1822   -1.9769    2.8914 C   0  0  0  0  0  0  0  0  0  0  0  0
   -1.7377   -1.0568    0.5877 C   0  0  0  0  0  0  0  0  0  0  0  0
   -2.0985   -2.2773    0.9541 N   0  0  0  0  0  0  0  0  0  0  0  0
   -3.3270   -2.5145    0.4189 N   0  0  0  0  0  0  0  0  0  0  0  0
   -3.7515   -1.4643   -0.2557 N   0  0  0  0  0  0  0  0  0  0  0  0
   -2.7676   -0.5387   -0.1782 N   0  0  0  0  0  0  0  0  0  0  0  0
   -2.9969    0.7846   -0.7779 C   0  0  0  0  0  0  0  0  0  0  0  0
   -1.7786    1.2892   -1.5712 C   0  0  0  0  0  0  0  0  0  0  0  0
   -3.3665    1.7964    0.3237 C   0  0  0  0  0  0  0  0  0  0  0  0
   -4.1793    0.7444   -1.7862 C   0  0  0  0  0  0  0  0  0  0  0  0
   -0.0817   -1.9400   -2.1445 H   0  0  0  0  0  0  0  0  0  0  0  0
   -0.5416   -3.0414   -0.8238 H   0  0  0  0  0  0  0  0  0  0  0  0
    0.8966   -3.3623   -1.7737 H   0  0  0  0  0  0  0  0  0  0  0  0
    2.1222   -1.6336   -0.8941 H   0  0  0  0  0  0  0  0  0  0  0  0
    1.4095   -2.3234    0.5285 H   0  0  0  0  0  0  0  0  0  0  0  0
    1.2948    1.4879    0.6226 H   0  0  0  0  0  0  0  0  0  0  0  0
    2.3071    0.1267    1.1167 H   0  0  0  0  0  0  0  0  0  0  0  0
    1.0660    1.0750   -2.3541 H   0  0  0  0  0  0  0  0  0  0  0  0
    2.5968    1.6908   -4.1882 H   0  0  0  0  0  0  0  0  0  0  0  0
    5.0418    1.8657   -3.7710 H   0  0  0  0  0  0  0  0  0  0  0  0
    5.9534    1.4252   -1.5044 H   0  0  0  0  0  0  0  0  0  0  0  0
    4.4382    0.8122    0.3423 H   0  0  0  0  0  0  0  0  0  0  0  0
   -0.7491    0.6950    1.0284 H   0  0  0  0  0  0  0  0  0  0  0  0
    0.1128    1.4180    3.0292 H   0  0  0  0  0  0  0  0  0  0  0  0
    0.8374    0.8742    5.3340 H   0  0  0  0  0  0  0  0  0  0  0  0
    0.7215   -3.1735    4.6029 H   0  0  0  0  0  0  0  0  0  0  0  0
    0.0042   -2.8435    2.2616 H   0  0  0  0  0  0  0  0  0  0  0  0
   -2.0438    2.1395   -2.2108 H   0  0  0  0  0  0  0  0  0  0  0  0
   -0.9802    1.6501   -0.9187 H   0  0  0  0  0  0  0  0  0  0  0  0
   -1.3725    0.5036   -2.2174 H   0  0  0  0  0  0  0  0  0  0  0  0
   -4.2627    1.4789    0.8674 H   0  0  0  0  0  0  0  0  0  0  0  0
   -2.5664    1.9160    1.0609 H   0  0  0  0  0  0  0  0  0  0  0  0
   -3.5665    2.7873   -0.1021 H   0  0  0  0  0  0  0  0  0  0  0  0
   -4.3386    1.7235   -2.2523 H   0  0  0  0  0  0  0  0  0  0  0  0
   -3.9898    0.0202   -2.5903 H   0  0  0  0  0  0  0  0  0  0  0  0
   -5.1216    0.4684   -1.2992 H   0  0  0  0  0  0  0  0  0  0  0  0
  1  2  1  0
  2  3  1  0
  3  4  1  0
  4  5  1  0
  5  6  2  0
  6  7  1  0
  7  8  2  0
  8  9  1  0
  9 10  2  0
  3 11  1  0
 11 12  1  0
 12 13  2  0
 13 14  1  0
 14 15  2  0
 15 16  1  0
 16 17  2  0
 11 18  1  0
 18 19  2  0
 19 20  1  0
 20 21  2  0
 21 22  1  0
 22 23  1  0
 23 24  1  0
 23 25  1  0
 23 26  1  0
 10  5  1  0
 17 12  1  0
 22 18  1  0
  1 27  1  0
  1 28  1  0
  1 29  1  0
  2 30  1  0
  2 31  1  0
  4 32  1  0
  4 33  1  0
  6 34  1  0
  7 35  1  0
  8 36  1  0
  9 37  1  0
 10 38  1  0
 11 39  1  0
 13 40  1  0
 14 41  1  0
 16 42  1  0
 17 43  1  0
 24 44  1  0
 24 45  1  0
 24 46  1  0
 25 47  1  0
 25 48  1  0
 25 49  1  0
 26 50  1  0
 26 51  1  0
 26 52  1  0
M  END
$$$$
