
     RDKit          3D

 51 54  0  0  0  0  0  0  0  0999 V2000
    7.8012   -2.0343    1.8597 C   0  0  0  0  0  0  0  0  0  0  0  0
    6.5585   -1.6893    1.0937 C   0  0  0  0  0  0  0  0  0  0  0  0
    6.5734   -1.6609   -0.3050 C   0  0  0  0  0  0  0  0  0  0  0  0
    5.4093   -1.3695   -1.0193 C   0  0  0  0  0  0  0  0  0  0  0  0
    4.2054   -1.1164   -0.3478 C   0  0  0  0  0  0  0  0  0  0  0  0
    2.9579   -0.7865   -1.1291 C   0  0  0  0  0  0  0  0  0  0  0  0
    3.0472    0.5478   -1.7064 N   0  0  0  0  0  0  0  0  0  0  0  0
    1.9327    1.0216   -2.8544 S   0  0  0  0  0  6  0  0  0  0  0  0
    1.9318    0.0320   -3.9091 O   0  0  0  0  0  0  0  0  0  0  0  0
    2.1704    2.4223   -3.1193 O   0  0  0  0  0  0  0  0  0  0  0  0
    0.3922    0.8940   -1.9771 C   0  0  0  0  0  0  0  0  0  0  0  0
    0.0880    1.8510   -0.9940 C   0  0  0  0  0  0  0  0  0  0  0  0
   -1.1147    1.7693   -0.2840 C   0  0  0  0  0  0  0  0  0  0  0  0
   -1.9933    0.7377   -0.5778 C   0  0  0  0  0  0  0  0  0  0  0  0
   -1.6889   -0.1981   -1.5701 C   0  0  0  0  0  0  0  0  0  0  0  0
   -0.5009   -0.1367   -2.2846 C   0  0  0  0  0  0  0  0  0  0  0  0
   -2.7919   -1.1916   -1.7419 C   0  0  0  0  0  0  0  0  0  0  0  0
   -3.7838   -0.7623   -0.6542 C   0  0  0  0  0  0  0  0  0  0  0  0
   -3.2478    0.4477   -0.0093 N   0  0  0  0  0  0  0  0  0  0  0  0
   -3.8749    1.1669    1.0051 C   0  0  0  0  0  0  0  0  0  0  0  0
   -3.3663    2.1599    1.5382 O   0  0  0  0  0  0  0  0  0  0  0  0
   -5.2786    0.6343    1.4383 C   0  0  0  0  0  0  0  0  0  0  0  0
   -5.9714    1.3230    2.6490 C   0  0  0  0  0  0  0  0  0  0  0  0
   -6.7410    2.1976    1.6447 C   0  0  0  0  0  0  0  0  0  0  0  0
   -6.4994    1.0984    0.5958 C   0  0  0  0  0  0  0  0  0  0  0  0
    4.1907   -1.1516    1.0524 C   0  0  0  0  0  0  0  0  0  0  0  0
    5.3560   -1.4437    1.7659 C   0  0  0  0  0  0  0  0  0  0  0  0
    7.8086   -1.5380    2.8358 H   0  0  0  0  0  0  0  0  0  0  0  0
    8.6962   -1.7048    1.3217 H   0  0  0  0  0  0  0  0  0  0  0  0
    7.8583   -3.1164    2.0122 H   0  0  0  0  0  0  0  0  0  0  0  0
    7.4937   -1.8611   -0.8494 H   0  0  0  0  0  0  0  0  0  0  0  0
    5.4445   -1.3365   -2.1070 H   0  0  0  0  0  0  0  0  0  0  0  0
    2.8199   -1.5437   -1.9089 H   0  0  0  0  0  0  0  0  0  0  0  0
    2.0908   -0.8400   -0.4617 H   0  0  0  0  0  0  0  0  0  0  0  0
    3.4310    1.2972   -1.1349 H   0  0  0  0  0  0  0  0  0  0  0  0
    0.7788    2.6647   -0.7820 H   0  0  0  0  0  0  0  0  0  0  0  0
   -1.3376    2.5151    0.4720 H   0  0  0  0  0  0  0  0  0  0  0  0
   -0.2796   -0.8642   -3.0606 H   0  0  0  0  0  0  0  0  0  0  0  0
   -3.2407   -1.1098   -2.7368 H   0  0  0  0  0  0  0  0  0  0  0  0
   -2.4424   -2.2155   -1.5784 H   0  0  0  0  0  0  0  0  0  0  0  0
   -4.7721   -0.5490   -1.0745 H   0  0  0  0  0  0  0  0  0  0  0  0
   -3.8954   -1.5452    0.1044 H   0  0  0  0  0  0  0  0  0  0  0  0
   -5.2568   -0.4531    1.5879 H   0  0  0  0  0  0  0  0  0  0  0  0
   -5.3241    1.8644    3.3439 H   0  0  0  0  0  0  0  0  0  0  0  0
   -6.6130    0.6469    3.2268 H   0  0  0  0  0  0  0  0  0  0  0  0
   -7.7866    2.3973    1.8918 H   0  0  0  0  0  0  0  0  0  0  0  0
   -6.2425    3.1456    1.4125 H   0  0  0  0  0  0  0  0  0  0  0  0
   -6.2847    1.4606   -0.4133 H   0  0  0  0  0  0  0  0  0  0  0  0
   -7.3009    0.3526    0.5399 H   0  0  0  0  0  0  0  0  0  0  0  0
    3.2726   -0.9545    1.6016 H   0  0  0  0  0  0  0  0  0  0  0  0
    5.3202   -1.4755    2.8528 H   0  0  0  0  0  0  0  0  0  0  0  0
  1  2  1  0
  2  3  2  0
  3  4  1  0
  4  5  2  0
  5  6  1  0
  6  7  1  0
  7  8  1  0
  8  9  2  0
  8 10  2  0
  8 11  1  0
 11 12  2  0
 12 13  1  0
 13 14  2  0
 14 15  1  0
 15 16  2  0
 15 17  1  0
 17 18  1  0
 18 19  1  0
 19 20  1  0
 20 21  2  0
 20 22  1  0
 22 23  1  0
 23 24  1  0
 24 25  1  0
  5 26  1  0
 26 27  2  0
 27  2  1  0
 16 11  1  0
 25 22  1  0
 19 14  1  0
  1 28  1  0
  1 29  1  0
  1 30  1  0
  3 31  1  0
  4 32  1  0
  6 33  1  0
  6 34  1  0
  7 35  1  0
 12 36  1  0
 13 37  1  0
 16 38  1  0
 17 39  1  0
 17 40  1  0
 18 41  1  0
 18 42  1  0
 22 43  1  0
 23 44  1  0
 23 45  1  0
 24 46  1  0
 24 47  1  0
 25 48  1  0
 25 49  1  0
 26 50  1  0
 27 51  1  0
M  END
$$$$
