
     RDKit          3D

 45 47  0  0  0  0  0  0  0  0999 V2000
   -4.0101   -0.0386    3.6771 C   0  0  0  0  0  0  0  0  0  0  0  0
   -3.5288    0.3733    2.4020 O   0  0  0  0  0  0  0  0  0  0  0  0
   -4.2623   -0.0424    1.3132 C   0  0  0  0  0  0  0  0  0  0  0  0
   -5.5867   -0.4884    1.3750 C   0  0  0  0  0  0  0  0  0  0  0  0
   -6.2446   -0.8872    0.2117 C   0  0  0  0  0  0  0  0  0  0  0  0
   -5.5838   -0.8434   -1.0128 C   0  0  0  0  0  0  0  0  0  0  0  0
   -4.2634   -0.3924   -1.0847 C   0  0  0  0  0  0  0  0  0  0  0  0
   -3.5979    0.0211    0.0694 C   0  0  0  0  0  0  0  0  0  0  0  0
   -2.2692    0.5033    0.0815 N   0  0  0  0  0  0  0  0  0  0  0  0
   -1.4065    0.6671   -0.9842 C   0  0  0  0  0  0  0  0  0  0  0  0
   -1.6481    0.4055   -2.1576 O   0  0  0  0  0  0  0  0  0  0  0  0
   -0.0448    1.2163   -0.5475 C   0  0  0  0  0  0  0  0  0  0  0  0
    0.6797    0.1763    0.3236 C   0  0  0  0  0  0  0  0  0  0  0  0
    2.1899    0.2365    0.1349 C   0  0  0  0  0  0  0  0  0  0  0  0
    2.5456   -0.0800   -1.2701 N   0  0  0  0  0  0  0  0  0  0  0  0
    4.2003    0.0810   -1.6533 S   0  0  0  0  0  6  0  0  0  0  0  0
    4.4195   -0.3639   -3.0124 O   0  0  0  0  0  0  0  0  0  0  0  0
    4.6221    1.3952   -1.2138 O   0  0  0  0  0  0  0  0  0  0  0  0
    5.1239   -1.0506   -0.6372 C   0  0  0  0  0  0  0  0  0  0  0  0
    6.1919   -0.8652    0.2210 C   0  0  0  0  0  0  0  0  0  0  0  0
    6.6115   -2.0795    0.8386 C   0  0  0  0  0  0  0  0  0  0  0  0
    5.8491   -3.1512    0.4300 C   0  0  0  0  0  0  0  0  0  0  0  0
    4.6430   -2.6920   -0.6966 S   0  0  0  0  0  0  0  0  0  0  0  0
    1.6098    0.4570   -2.2994 C   0  0  0  0  0  0  0  0  0  0  0  0
    0.8058    1.6328   -1.7571 C   0  0  0  0  0  0  0  0  0  0  0  0
   -3.2418    0.2055    4.4171 H   0  0  0  0  0  0  0  0  0  0  0  0
   -4.1725   -1.1226    3.7137 H   0  0  0  0  0  0  0  0  0  0  0  0
   -4.9201    0.5068    3.9468 H   0  0  0  0  0  0  0  0  0  0  0  0
   -6.1382   -0.5242    2.3075 H   0  0  0  0  0  0  0  0  0  0  0  0
   -7.2751   -1.2326    0.2596 H   0  0  0  0  0  0  0  0  0  0  0  0
   -6.0966   -1.1568   -1.9209 H   0  0  0  0  0  0  0  0  0  0  0  0
   -3.7845   -0.3728   -2.0575 H   0  0  0  0  0  0  0  0  0  0  0  0
   -1.9531    0.7760    1.0075 H   0  0  0  0  0  0  0  0  0  0  0  0
   -0.2406    2.1213    0.0445 H   0  0  0  0  0  0  0  0  0  0  0  0
    0.3297   -0.8386    0.0864 H   0  0  0  0  0  0  0  0  0  0  0  0
    0.4339    0.3486    1.3793 H   0  0  0  0  0  0  0  0  0  0  0  0
    2.6544   -0.5001    0.7985 H   0  0  0  0  0  0  0  0  0  0  0  0
    2.5605    1.2288    0.4164 H   0  0  0  0  0  0  0  0  0  0  0  0
    6.6487    0.1050    0.3868 H   0  0  0  0  0  0  0  0  0  0  0  0
    7.4314   -2.1626    1.5434 H   0  0  0  0  0  0  0  0  0  0  0  0
    5.9383   -4.1851    0.7329 H   0  0  0  0  0  0  0  0  0  0  0  0
    2.1477    0.7771   -3.1992 H   0  0  0  0  0  0  0  0  0  0  0  0
    0.9497   -0.3629   -2.6084 H   0  0  0  0  0  0  0  0  0  0  0  0
    1.4980    2.4301   -1.4528 H   0  0  0  0  0  0  0  0  0  0  0  0
    0.1842    2.0590   -2.5526 H   0  0  0  0  0  0  0  0  0  0  0  0
  1  2  1  0
  2  3  1  0
  3  4  2  0
  4  5  1  0
  5  6  2  0
  6  7  1  0
  7  8  2  0
  8  9  1  0
  9 10  1  0
 10 11  2  0
 10 12  1  0
 12 13  1  0
 13 14  1  0
 14 15  1  0
 15 16  1  0
 16 17  2  0
 16 18  2  0
 16 19  1  0
 19 20  2  0
 20 21  1  0
 21 22  2  0
 22 23  1  0
 15 24  1  0
 24 25  1  0
  8  3  1  0
 25 12  1  0
 23 19  1  0
  1 26  1  0
  1 27  1  0
  1 28  1  0
  4 29  1  0
  5 30  1  0
  6 31  1  0
  7 32  1  0
  9 33  1  0
 12 34  1  0
 13 35  1  0
 13 36  1  0
 14 37  1  0
 14 38  1  0
 20 39  1  0
 21 40  1  0
 22 41  1  0
 24 42  1  0
 24 43  1  0
 25 44  1  0
 25 45  1  0
M  END
$$$$
