
     RDKit          3D

 45 46  0  0  0  0  0  0  0  0999 V2000
   -2.2243    2.7248    3.2894 C   0  0  0  0  0  0  0  0  0  0  0  0
   -1.7381    1.8003    2.3140 O   0  0  0  0  0  0  0  0  0  0  0  0
   -2.7195    1.2518    1.5278 C   0  0  0  0  0  0  0  0  0  0  0  0
   -3.9099    1.5134    1.6421 O   0  0  0  0  0  0  0  0  0  0  0  0
   -2.1238    0.2690    0.5006 C   0  0  0  0  0  0  0  0  0  0  0  0
   -2.7744   -1.1156    0.6722 C   0  0  0  0  0  0  0  0  0  0  0  0
   -4.0057   -1.2971   -0.1851 C   0  0  0  0  0  0  0  0  0  0  0  0
   -3.8729   -1.5841   -1.5509 C   0  0  0  0  0  0  0  0  0  0  0  0
   -5.0028   -1.7423   -2.3537 C   0  0  0  0  0  0  0  0  0  0  0  0
   -6.2753   -1.6137   -1.8003 C   0  0  0  0  0  0  0  0  0  0  0  0
   -6.4179   -1.3256   -0.4450 C   0  0  0  0  0  0  0  0  0  0  0  0
   -5.2888   -1.1666    0.3597 C   0  0  0  0  0  0  0  0  0  0  0  0
   -0.6609    0.1885    0.6488 N   0  0  0  0  0  0  0  0  0  0  0  0
    0.1450   -0.3160   -0.3452 C   0  0  0  0  0  0  0  0  0  0  0  0
   -0.2955   -0.8334   -1.3651 O   0  0  0  0  0  0  0  0  0  0  0  0
    1.6188   -0.1892   -0.0335 C   0  0  0  0  0  0  0  0  0  0  0  0
    2.4707   -0.7652   -1.1568 C   0  0  0  0  0  0  0  0  0  0  0  0
    3.8863   -0.7033   -0.8529 N   0  0  0  0  0  0  0  0  0  0  0  0
    4.6187    0.4624   -0.9354 C   0  0  0  0  0  0  0  0  0  0  0  0
    4.1081    1.5416   -1.2247 O   0  0  0  0  0  0  0  0  0  0  0  0
    6.0277    0.2930   -0.6475 C   0  0  0  0  0  0  0  0  0  0  0  0
    7.0702    1.2006   -0.6431 C   0  0  0  0  0  0  0  0  0  0  0  0
    8.2381    0.4806   -0.2971 C   0  0  0  0  0  0  0  0  0  0  0  0
    7.8420   -0.8218   -0.1087 C   0  0  0  0  0  0  0  0  0  0  0  0
    6.5062   -0.9501   -0.3175 O   0  0  0  0  0  0  0  0  0  0  0  0
   -1.3720    3.0700    3.8812 H   0  0  0  0  0  0  0  0  0  0  0  0
   -2.9371    2.2367    3.9620 H   0  0  0  0  0  0  0  0  0  0  0  0
   -2.6807    3.5903    2.7996 H   0  0  0  0  0  0  0  0  0  0  0  0
   -2.3087    0.6931   -0.4943 H   0  0  0  0  0  0  0  0  0  0  0  0
   -3.0274   -1.2963    1.7259 H   0  0  0  0  0  0  0  0  0  0  0  0
   -2.0726   -1.9179    0.4090 H   0  0  0  0  0  0  0  0  0  0  0  0
   -2.8843   -1.6831   -1.9972 H   0  0  0  0  0  0  0  0  0  0  0  0
   -4.8883   -1.9628   -3.4115 H   0  0  0  0  0  0  0  0  0  0  0  0
   -7.1550   -1.7344   -2.4257 H   0  0  0  0  0  0  0  0  0  0  0  0
   -7.4095   -1.2184   -0.0138 H   0  0  0  0  0  0  0  0  0  0  0  0
   -5.4201   -0.9287    1.4128 H   0  0  0  0  0  0  0  0  0  0  0  0
   -0.2463    0.7390    1.3948 H   0  0  0  0  0  0  0  0  0  0  0  0
    1.8250   -0.7200    0.9036 H   0  0  0  0  0  0  0  0  0  0  0  0
    1.8510    0.8703    0.1226 H   0  0  0  0  0  0  0  0  0  0  0  0
    2.2271   -1.8192   -1.3252 H   0  0  0  0  0  0  0  0  0  0  0  0
    2.2920   -0.2251   -2.0940 H   0  0  0  0  0  0  0  0  0  0  0  0
    4.3939   -1.5526   -0.6291 H   0  0  0  0  0  0  0  0  0  0  0  0
    6.9835    2.2547   -0.8734 H   0  0  0  0  0  0  0  0  0  0  0  0
    9.2446    0.8631   -0.1997 H   0  0  0  0  0  0  0  0  0  0  0  0
    8.3628   -1.7300    0.1605 H   0  0  0  0  0  0  0  0  0  0  0  0
  1  2  1  0
  2  3  1  0
  3  4  2  0
  3  5  1  0
  5  6  1  0
  6  7  1  0
  7  8  2  0
  8  9  1  0
  9 10  2  0
 10 11  1  0
 11 12  2  0
  5 13  1  0
 13 14  1  0
 14 15  2  0
 14 16  1  0
 16 17  1  0
 17 18  1  0
 18 19  1  0
 19 20  2  0
 19 21  1  0
 21 22  2  0
 22 23  1  0
 23 24  2  0
 24 25  1  0
 12  7  1  0
 25 21  1  0
  1 26  1  0
  1 27  1  0
  1 28  1  0
  5 29  1  0
  6 30  1  0
  6 31  1  0
  8 32  1  0
  9 33  1  0
 10 34  1  0
 11 35  1  0
 12 36  1  0
 13 37  1  0
 16 38  1  0
 16 39  1  0
 17 40  1  0
 17 41  1  0
 18 42  1  0
 22 43  1  0
 23 44  1  0
 24 45  1  0
M  END
$$$$
