
     RDKit          3D

 42 45  0  0  0  0  0  0  0  0999 V2000
   -2.8019    3.9847   -0.1082 C   0  0  0  0  0  0  0  0  0  0  0  0
   -1.8157    2.8914    0.1852 C   0  0  0  0  0  0  0  0  0  0  0  0
   -0.7976    3.0972    1.1383 C   0  0  0  0  0  0  0  0  0  0  0  0
    0.1616    2.1119    1.4066 C   0  0  0  0  0  0  0  0  0  0  0  0
    0.1071    0.9276    0.6954 C   0  0  0  0  0  0  0  0  0  0  0  0
   -0.9175    0.7163   -0.2473 C   0  0  0  0  0  0  0  0  0  0  0  0
   -1.8658    1.6870   -0.5268 C   0  0  0  0  0  0  0  0  0  0  0  0
   -0.7180   -0.6172   -0.8939 C   0  0  0  0  0  0  0  0  0  0  0  0
   -1.8667   -1.5215   -1.3084 C   0  0  0  0  0  0  0  0  0  0  0  0
   -1.2986   -2.7696   -1.8650 N   0  0  0  0  0  0  0  0  0  0  0  0
   -2.3645   -3.6744   -2.2942 C   0  0  0  0  0  0  0  0  0  0  0  0
   -0.3716   -3.4565   -0.9411 C   0  0  0  0  0  0  0  0  0  0  0  0
    0.7417   -2.5411   -0.3948 C   0  0  0  0  0  0  0  0  0  0  0  0
    0.0740   -1.3201    0.2177 C   0  0  0  0  0  0  0  0  0  0  0  0
    0.8958   -0.2549    0.8120 N   0  0  0  0  0  0  0  0  0  0  0  0
    1.8450   -0.5202    1.7920 C   0  0  0  0  0  0  0  0  0  0  0  0
    1.8656   -1.6108    2.3681 O   0  0  0  0  0  0  0  0  0  0  0  0
    2.8624    0.4824    2.0580 C   0  0  0  0  0  0  0  0  0  0  0  0
    3.7437    0.6033    3.1186 C   0  0  0  0  0  0  0  0  0  0  0  0
    4.5563    1.7319    2.8523 C   0  0  0  0  0  0  0  0  0  0  0  0
    4.1407    2.2226    1.6368 C   0  0  0  0  0  0  0  0  0  0  0  0
    4.8719    3.7401    0.7546 Br  0  0  0  0  0  0  0  0  0  0  0  0
    3.1254    1.4675    1.1427 O   0  0  0  0  0  0  0  0  0  0  0  0
   -2.4081    4.6438   -0.8880 H   0  0  0  0  0  0  0  0  0  0  0  0
   -3.7574    3.5691   -0.4451 H   0  0  0  0  0  0  0  0  0  0  0  0
   -3.0047    4.5780    0.7895 H   0  0  0  0  0  0  0  0  0  0  0  0
   -0.7504    4.0372    1.6854 H   0  0  0  0  0  0  0  0  0  0  0  0
    0.9047    2.3021    2.1703 H   0  0  0  0  0  0  0  0  0  0  0  0
   -2.6226    1.5212   -1.2875 H   0  0  0  0  0  0  0  0  0  0  0  0
   -0.0751   -0.4322   -1.7691 H   0  0  0  0  0  0  0  0  0  0  0  0
   -2.5297   -1.7311   -0.4588 H   0  0  0  0  0  0  0  0  0  0  0  0
   -2.4681   -1.0152   -2.0730 H   0  0  0  0  0  0  0  0  0  0  0  0
   -1.9442   -4.5660   -2.7724 H   0  0  0  0  0  0  0  0  0  0  0  0
   -2.9941   -3.9953   -1.4567 H   0  0  0  0  0  0  0  0  0  0  0  0
   -3.0035   -3.1897   -3.0406 H   0  0  0  0  0  0  0  0  0  0  0  0
    0.1038   -4.2963   -1.4621 H   0  0  0  0  0  0  0  0  0  0  0  0
   -0.9302   -3.8763   -0.0937 H   0  0  0  0  0  0  0  0  0  0  0  0
    1.3318   -3.0889    0.3467 H   0  0  0  0  0  0  0  0  0  0  0  0
    1.4293   -2.2495   -1.1982 H   0  0  0  0  0  0  0  0  0  0  0  0
   -0.5920   -1.6611    1.0279 H   0  0  0  0  0  0  0  0  0  0  0  0
    3.7850   -0.0568    3.9749 H   0  0  0  0  0  0  0  0  0  0  0  0
    5.3523    2.1292    3.4662 H   0  0  0  0  0  0  0  0  0  0  0  0
  1  2  1  0
  2  3  2  0
  3  4  1  0
  4  5  2  0
  5  6  1  0
  6  7  2  0
  6  8  1  0
  8  9  1  0
  9 10  1  0
 10 11  1  0
 10 12  1  0
 12 13  1  0
 13 14  1  0
 14 15  1  0
 15 16  1  0
 16 17  2  0
 16 18  1  0
 18 19  2  0
 19 20  1  0
 20 21  2  0
 21 22  1  0
 21 23  1  0
  7  2  1  0
 14  8  1  0
 23 18  1  0
 15  5  1  0
  1 24  1  0
  1 25  1  0
  1 26  1  0
  3 27  1  0
  4 28  1  0
  7 29  1  0
  8 30  1  0
  9 31  1  0
  9 32  1  0
 11 33  1  0
 11 34  1  0
 11 35  1  0
 12 36  1  0
 12 37  1  0
 13 38  1  0
 13 39  1  0
 14 40  1  0
 19 41  1  0
 20 42  1  0
M  END
$$$$
