
     RDKit          3D

 52 55  0  0  0  0  0  0  0  0999 V2000
   -1.8683   -2.0101   -3.8876 C   0  0  0  0  0  0  0  0  0  0  0  0
   -0.5273   -2.1681   -3.2129 C   0  0  0  0  0  0  0  0  0  0  0  0
    0.3174   -2.9187   -3.6866 O   0  0  0  0  0  0  0  0  0  0  0  0
   -0.4471   -1.4058   -2.0648 N   0  0  0  0  0  0  0  0  0  0  0  0
    0.6024   -1.3222   -1.1653 C   0  0  0  0  0  0  0  0  0  0  0  0
    2.0209   -2.2217   -1.3746 S   0  0  0  0  0  0  0  0  0  0  0  0
    2.6789   -1.6513    0.0765 C   0  0  0  0  0  0  0  0  0  0  0  0
    1.8501   -0.7525    0.7204 C   0  0  0  0  0  0  0  0  0  0  0  0
    0.6159   -0.5326   -0.0159 C   0  0  0  0  0  0  0  0  0  0  0  0
   -0.4944    0.4137    0.4512 C   0  0  0  0  0  0  0  0  0  0  0  0
   -0.0848    1.7889   -0.0900 C   0  0  0  0  0  0  0  0  0  0  0  0
    0.0082    2.0738   -1.4652 C   0  0  0  0  0  0  0  0  0  0  0  0
    0.3678    3.3479   -1.9148 C   0  0  0  0  0  0  0  0  0  0  0  0
    0.6301    4.3587   -0.9957 C   0  0  0  0  0  0  0  0  0  0  0  0
    1.0687    5.9273   -1.5485 Cl  0  0  0  0  0  0  0  0  0  0  0  0
    0.5333    4.1081    0.3696 C   0  0  0  0  0  0  0  0  0  0  0  0
    0.1753    2.8338    0.8186 C   0  0  0  0  0  0  0  0  0  0  0  0
   -1.8405   -0.0454    0.0080 N   0  0  0  0  0  0  0  0  0  0  0  0
   -2.8684    1.0060    0.2363 C   0  0  0  0  0  0  0  0  0  0  0  0
   -4.2813    0.4197    0.3695 C   0  0  0  0  0  0  0  0  0  0  0  0
   -4.4186   -0.4140    1.5264 O   0  0  0  0  0  0  0  0  0  0  0  0
   -3.1961   -1.0553    1.9073 C   0  0  0  0  0  0  0  0  0  0  0  0
   -2.2488   -1.2919    0.7209 C   0  0  0  0  0  0  0  0  0  0  0  0
    2.2420   -0.1431    2.0384 C   0  0  0  0  0  0  0  0  0  0  0  0
    3.7405   -0.3083    2.3344 C   0  0  0  0  0  0  0  0  0  0  0  0
    4.2257   -1.7304    2.0278 C   0  0  0  0  0  0  0  0  0  0  0  0
    4.0339   -2.0820    0.5461 C   0  0  0  0  0  0  0  0  0  0  0  0
   -2.5906   -2.6835   -3.4187 H   0  0  0  0  0  0  0  0  0  0  0  0
   -1.7735   -2.2600   -4.9483 H   0  0  0  0  0  0  0  0  0  0  0  0
   -2.2251   -0.9786   -3.8137 H   0  0  0  0  0  0  0  0  0  0  0  0
   -1.2651   -0.8688   -1.7823 H   0  0  0  0  0  0  0  0  0  0  0  0
   -0.4844    0.4475    1.5496 H   0  0  0  0  0  0  0  0  0  0  0  0
   -0.1948    1.3054   -2.2058 H   0  0  0  0  0  0  0  0  0  0  0  0
    0.4422    3.5401   -2.9819 H   0  0  0  0  0  0  0  0  0  0  0  0
    0.7341    4.8978    1.0887 H   0  0  0  0  0  0  0  0  0  0  0  0
    0.1007    2.6630    1.8908 H   0  0  0  0  0  0  0  0  0  0  0  0
   -2.6517    1.5624    1.1578 H   0  0  0  0  0  0  0  0  0  0  0  0
   -2.8568    1.7101   -0.6025 H   0  0  0  0  0  0  0  0  0  0  0  0
   -4.5480   -0.1688   -0.5162 H   0  0  0  0  0  0  0  0  0  0  0  0
   -5.0169    1.2256    0.4578 H   0  0  0  0  0  0  0  0  0  0  0  0
   -3.4599   -2.0102    2.3731 H   0  0  0  0  0  0  0  0  0  0  0  0
   -2.7112   -0.4422    2.6757 H   0  0  0  0  0  0  0  0  0  0  0  0
   -1.3894   -1.8831    1.0552 H   0  0  0  0  0  0  0  0  0  0  0  0
   -2.7755   -1.9118   -0.0162 H   0  0  0  0  0  0  0  0  0  0  0  0
    1.6605   -0.6321    2.8299 H   0  0  0  0  0  0  0  0  0  0  0  0
    1.9955    0.9221    2.0619 H   0  0  0  0  0  0  0  0  0  0  0  0
    3.9338   -0.0645    3.3851 H   0  0  0  0  0  0  0  0  0  0  0  0
    4.3147    0.4051    1.7292 H   0  0  0  0  0  0  0  0  0  0  0  0
    3.6687   -2.4420    2.6508 H   0  0  0  0  0  0  0  0  0  0  0  0
    5.2838   -1.8318    2.2939 H   0  0  0  0  0  0  0  0  0  0  0  0
    4.7966   -1.5667   -0.0507 H   0  0  0  0  0  0  0  0  0  0  0  0
    4.1767   -3.1598    0.4074 H   0  0  0  0  0  0  0  0  0  0  0  0
  1  2  1  0
  2  3  2  0
  2  4  1  0
  4  5  1  0
  5  6  1  0
  6  7  1  0
  7  8  2  0
  8  9  1  0
  9 10  1  0
 10 11  1  0
 11 12  2  0
 12 13  1  0
 13 14  2  0
 14 15  1  0
 14 16  1  0
 16 17  2  0
 10 18  1  0
 18 19  1  0
 19 20  1  0
 20 21  1  0
 21 22  1  0
 22 23  1  0
  8 24  1  0
 24 25  1  0
 25 26  1  0
 26 27  1  0
  9  5  2  0
 17 11  1  0
 23 18  1  0
 27  7  1  0
  1 28  1  0
  1 29  1  0
  1 30  1  0
  4 31  1  0
 10 32  1  0
 12 33  1  0
 13 34  1  0
 16 35  1  0
 17 36  1  0
 19 37  1  0
 19 38  1  0
 20 39  1  0
 20 40  1  0
 22 41  1  0
 22 42  1  0
 23 43  1  0
 23 44  1  0
 24 45  1  0
 24 46  1  0
 25 47  1  0
 25 48  1  0
 26 49  1  0
 26 50  1  0
 27 51  1  0
 27 52  1  0
M  END
$$$$
