
     RDKit          3D

 49 51  0  0  0  0  0  0  0  0999 V2000
   -1.9808    0.3325   -2.8119 C   0  0  0  0  0  0  0  0  0  0  0  0
   -2.8413    1.3227   -2.0458 C   0  0  0  0  0  0  0  0  0  0  0  0
   -2.4805    1.4260   -0.6475 N   0  0  0  0  0  0  0  0  0  0  0  0
   -1.4909    2.1929   -0.0973 C   0  0  0  0  0  0  0  0  0  0  0  0
   -0.3742    3.1501   -1.0010 S   0  0  0  0  0  0  0  0  0  0  0  0
    0.8453    3.5515    0.2864 C   0  0  0  0  0  0  0  0  0  0  0  0
    1.7998    2.3891    0.5033 C   0  0  0  0  0  0  0  0  0  0  0  0
    2.8947    2.3707   -0.0567 O   0  0  0  0  0  0  0  0  0  0  0  0
    1.3037    1.4243    1.3729 N   0  0  0  0  0  0  0  0  0  0  0  0
    1.9262    0.2916    1.8269 N   0  0  0  0  0  0  0  0  0  0  0  0
    2.9597   -0.1871    1.2106 C   0  0  0  0  0  0  0  0  0  0  0  0
    3.6761   -1.3993    1.7228 C   0  0  0  0  0  0  0  0  0  0  0  0
    3.2271   -1.8780    3.0757 C   0  0  0  0  0  0  0  0  0  0  0  0
    4.6824   -2.0086    1.0686 C   0  0  0  0  0  0  0  0  0  0  0  0
    5.1569   -1.6746   -0.2296 C   0  0  0  0  0  0  0  0  0  0  0  0
    6.4449   -1.8156   -0.7357 C   0  0  0  0  0  0  0  0  0  0  0  0
    6.4404   -1.3723   -2.0796 C   0  0  0  0  0  0  0  0  0  0  0  0
    5.1486   -0.9998   -2.3429 C   0  0  0  0  0  0  0  0  0  0  0  0
    4.3708   -1.1928   -1.2513 O   0  0  0  0  0  0  0  0  0  0  0  0
   -1.5155    2.0903    1.2107 N   0  0  0  0  0  0  0  0  0  0  0  0
   -2.5524    1.2565    1.5385 N   0  0  0  0  0  0  0  0  0  0  0  0
   -3.1335    0.8481    0.4235 C   0  0  0  0  0  0  0  0  0  0  0  0
   -4.3024   -0.0220    0.3516 C   0  0  0  0  0  0  0  0  0  0  0  0
   -5.5188    0.4121    0.8917 C   0  0  0  0  0  0  0  0  0  0  0  0
   -6.6509   -0.4018    0.8267 C   0  0  0  0  0  0  0  0  0  0  0  0
   -6.5712   -1.6607    0.2318 C   0  0  0  0  0  0  0  0  0  0  0  0
   -5.3599   -2.1102   -0.2901 C   0  0  0  0  0  0  0  0  0  0  0  0
   -4.2268   -1.2956   -0.2266 C   0  0  0  0  0  0  0  0  0  0  0  0
   -2.3191    0.2654   -3.8493 H   0  0  0  0  0  0  0  0  0  0  0  0
   -2.0328   -0.6687   -2.3723 H   0  0  0  0  0  0  0  0  0  0  0  0
   -0.9298    0.6335   -2.8191 H   0  0  0  0  0  0  0  0  0  0  0  0
   -3.8949    1.0327   -2.1134 H   0  0  0  0  0  0  0  0  0  0  0  0
   -2.7687    2.3213   -2.4907 H   0  0  0  0  0  0  0  0  0  0  0  0
    1.4339    4.4120   -0.0514 H   0  0  0  0  0  0  0  0  0  0  0  0
    0.3701    3.8484    1.2267 H   0  0  0  0  0  0  0  0  0  0  0  0
    0.3817    1.5716    1.7912 H   0  0  0  0  0  0  0  0  0  0  0  0
    3.3601    0.2499    0.2899 H   0  0  0  0  0  0  0  0  0  0  0  0
    3.8228   -2.7232    3.4313 H   0  0  0  0  0  0  0  0  0  0  0  0
    3.3197   -1.0795    3.8192 H   0  0  0  0  0  0  0  0  0  0  0  0
    2.1826   -2.2060    3.0399 H   0  0  0  0  0  0  0  0  0  0  0  0
    5.1884   -2.8383    1.5540 H   0  0  0  0  0  0  0  0  0  0  0  0
    7.2965   -2.1861   -0.1813 H   0  0  0  0  0  0  0  0  0  0  0  0
    7.2730   -1.3305   -2.7669 H   0  0  0  0  0  0  0  0  0  0  0  0
    4.6435   -0.6004   -3.2113 H   0  0  0  0  0  0  0  0  0  0  0  0
   -5.5853    1.3874    1.3714 H   0  0  0  0  0  0  0  0  0  0  0  0
   -7.5901   -0.0575    1.2487 H   0  0  0  0  0  0  0  0  0  0  0  0
   -7.4518   -2.2977    0.1883 H   0  0  0  0  0  0  0  0  0  0  0  0
   -5.2944   -3.1001   -0.7354 H   0  0  0  0  0  0  0  0  0  0  0  0
   -3.2829   -1.6742   -0.6102 H   0  0  0  0  0  0  0  0  0  0  0  0
  1  2  1  0
  2  3  1  0
  3  4  1  0
  4  5  1  0
  5  6  1  0
  6  7  1  0
  7  8  2  0
  7  9  1  0
  9 10  1  0
 10 11  2  3
 11 12  1  0
 12 13  1  0
 12 14  2  3
 14 15  1  0
 15 16  2  0
 16 17  1  0
 17 18  2  0
 18 19  1  0
  4 20  2  0
 20 21  1  0
 21 22  2  0
 22 23  1  0
 23 24  2  0
 24 25  1  0
 25 26  2  0
 26 27  1  0
 27 28  2  0
 22  3  1  0
 28 23  1  0
 19 15  1  0
  1 29  1  0
  1 30  1  0
  1 31  1  0
  2 32  1  0
  2 33  1  0
  6 34  1  0
  6 35  1  0
  9 36  1  0
 11 37  1  0
 13 38  1  0
 13 39  1  0
 13 40  1  0
 14 41  1  0
 16 42  1  0
 17 43  1  0
 18 44  1  0
 24 45  1  0
 25 46  1  0
 26 47  1  0
 27 48  1  0
 28 49  1  0
M  END
$$$$
