
     RDKit          3D

 56 61  0  0  0  0  0  0  0  0999 V2000
   -0.0192    0.6531   -3.5739 C   0  0  0  0  0  0  0  0  0  0  0  0
    0.7741    0.3673   -2.3534 C   0  0  0  0  0  0  0  0  0  0  0  0
    2.0637    0.7136   -2.3036 N   0  0  0  0  0  0  0  0  0  0  0  0
    2.5107    0.3067   -1.0732 N   0  0  0  0  0  0  0  0  0  0  0  0
    3.8759    0.5318   -0.7091 C   0  0  0  0  0  0  0  0  0  0  0  0
    4.3862    0.1480    0.5394 C   0  0  0  0  0  0  0  0  0  0  0  0
    5.7323    0.3727    0.8569 C   0  0  0  0  0  0  0  0  0  0  0  0
    6.5752    0.9844   -0.0777 C   0  0  0  0  0  0  0  0  0  0  0  0
    7.9886    1.2089    0.2499 N   0  0  0  0  0  4  0  0  0  0  0  0
    8.7029    1.7417   -0.6110 O   0  0  0  0  0  0  0  0  0  0  0  0
    8.3890    0.8446    1.3655 O   0  0  0  0  0  1  0  0  0  0  0  0
    6.0806    1.3795   -1.3251 C   0  0  0  0  0  0  0  0  0  0  0  0
    4.7355    1.1530   -1.6354 C   0  0  0  0  0  0  0  0  0  0  0  0
    1.4839   -0.3094   -0.3633 C   0  0  0  0  0  0  0  0  0  0  0  0
    0.3639   -0.2507   -1.1602 C   0  0  0  0  0  0  0  0  0  0  0  0
   -0.9106   -0.8456   -0.6750 C   0  0  0  0  0  0  0  0  0  0  0  0
   -1.8487    0.3503   -0.4969 C   0  0  0  0  0  0  0  0  0  0  0  0
   -1.7321    1.2312    0.5931 C   0  0  0  0  0  0  0  0  0  0  0  0
   -2.6149    2.3030    0.7439 C   0  0  0  0  0  0  0  0  0  0  0  0
   -3.6162    2.5335   -0.1976 C   0  0  0  0  0  0  0  0  0  0  0  0
   -4.4332    3.5978    0.0599 O   0  0  0  0  0  0  0  0  0  0  0  0
   -4.8901    4.2921   -1.0936 C   0  0  0  0  0  0  0  0  0  0  0  0
   -5.9399    3.6190   -1.6333 F   0  0  0  0  0  0  0  0  0  0  0  0
   -5.3723    5.4913   -0.6785 F   0  0  0  0  0  0  0  0  0  0  0  0
   -3.7496    1.6691   -1.2841 C   0  0  0  0  0  0  0  0  0  0  0  0
   -2.8720    0.5889   -1.4325 C   0  0  0  0  0  0  0  0  0  0  0  0
   -0.7458   -1.6083    0.5821 N   0  0  0  0  0  0  0  0  0  0  0  0
    0.4784   -1.4994    1.2699 C   0  0  0  0  0  0  0  0  0  0  0  0
    1.5602   -0.8812    0.8641 N   0  0  0  0  0  0  0  0  0  0  0  0
    0.6124   -2.1655    2.6607 C   0  0  0  0  0  0  0  0  0  0  0  0
    1.6212   -2.0488    3.3422 O   0  0  0  0  0  0  0  0  0  0  0  0
   -0.4675   -2.8951    3.0805 N   0  0  0  0  0  0  0  0  0  0  0  0
   -1.6415   -3.0479    2.3386 C   0  0  0  0  0  0  0  0  0  0  0  0
   -2.6531   -3.8460    2.8863 C   0  0  0  0  0  0  0  0  0  0  0  0
   -3.8408   -4.0376    2.1901 C   0  0  0  0  0  0  0  0  0  0  0  0
   -4.0116   -3.4361    0.9497 C   0  0  0  0  0  0  0  0  0  0  0  0
   -2.9978   -2.6367    0.4066 C   0  0  0  0  0  0  0  0  0  0  0  0
   -1.7885   -2.4121    1.0868 C   0  0  0  0  0  0  0  0  0  0  0  0
   -0.6899   -0.1805   -3.8030 H   0  0  0  0  0  0  0  0  0  0  0  0
   -0.6208    1.5560   -3.4317 H   0  0  0  0  0  0  0  0  0  0  0  0
    0.6272    0.8088   -4.4439 H   0  0  0  0  0  0  0  0  0  0  0  0
    3.7716   -0.3339    1.2959 H   0  0  0  0  0  0  0  0  0  0  0  0
    6.0998    0.0586    1.8325 H   0  0  0  0  0  0  0  0  0  0  0  0
    6.7209    1.8550   -2.0652 H   0  0  0  0  0  0  0  0  0  0  0  0
    4.3704    1.4645   -2.6141 H   0  0  0  0  0  0  0  0  0  0  0  0
   -1.2780   -1.5167   -1.4623 H   0  0  0  0  0  0  0  0  0  0  0  0
   -0.9519    1.0910    1.3387 H   0  0  0  0  0  0  0  0  0  0  0  0
   -2.5163    2.9625    1.6041 H   0  0  0  0  0  0  0  0  0  0  0  0
   -4.1084    4.4652   -1.8445 H   0  0  0  0  0  0  0  0  0  0  0  0
   -4.5504    1.7861   -2.0090 H   0  0  0  0  0  0  0  0  0  0  0  0
   -3.0065   -0.0748   -2.2851 H   0  0  0  0  0  0  0  0  0  0  0  0
   -0.3669   -3.3388    3.9829 H   0  0  0  0  0  0  0  0  0  0  0  0
   -2.5249   -4.3225    3.8551 H   0  0  0  0  0  0  0  0  0  0  0  0
   -4.6298   -4.6550    2.6119 H   0  0  0  0  0  0  0  0  0  0  0  0
   -4.9379   -3.5846    0.3989 H   0  0  0  0  0  0  0  0  0  0  0  0
   -3.1975   -2.2021   -0.5669 H   0  0  0  0  0  0  0  0  0  0  0  0
  1  2  1  0
  2  3  2  0
  3  4  1  0
  4  5  1  0
  5  6  2  0
  6  7  1  0
  7  8  2  0
  8  9  1  0
  9 10  2  0
  9 11  1  0
  8 12  1  0
 12 13  2  0
  4 14  1  0
 14 15  2  0
 15 16  1  0
 16 17  1  0
 17 18  2  0
 18 19  1  0
 19 20  2  0
 20 21  1  0
 21 22  1  0
 22 23  1  0
 22 24  1  0
 20 25  1  0
 25 26  2  0
 16 27  1  0
 27 28  1  0
 28 29  2  0
 28 30  1  0
 30 31  2  0
 30 32  1  0
 32 33  1  0
 33 34  2  0
 34 35  1  0
 35 36  2  0
 36 37  1  0
 37 38  2  0
 15  2  1  0
 26 17  1  0
 38 27  1  0
 13  5  1  0
 29 14  1  0
 38 33  1  0
  1 39  1  0
  1 40  1  0
  1 41  1  0
  6 42  1  0
  7 43  1  0
 12 44  1  0
 13 45  1  0
 16 46  1  0
 18 47  1  0
 19 48  1  0
 22 49  1  0
 25 50  1  0
 26 51  1  0
 32 52  1  0
 34 53  1  0
 35 54  1  0
 36 55  1  0
 37 56  1  0
M  CHG  2   9   1  11  -1
M  END
$$$$
