
     RDKit          3D

 57 60  0  0  0  0  0  0  0  0999 V2000
    6.4181    0.8997   -2.3382 C   0  0  0  0  0  0  0  0  0  0  0  0
    5.1135    0.6871   -1.8154 O   0  0  0  0  0  0  0  0  0  0  0  0
    4.9953    0.4983   -0.4623 C   0  0  0  0  0  0  0  0  0  0  0  0
    6.0566    0.5732    0.4448 C   0  0  0  0  0  0  0  0  0  0  0  0
    5.8410    0.3474    1.8058 C   0  0  0  0  0  0  0  0  0  0  0  0
    4.5656    0.0292    2.2701 C   0  0  0  0  0  0  0  0  0  0  0  0
    3.4870   -0.0622    1.3794 C   0  0  0  0  0  0  0  0  0  0  0  0
    2.1592   -0.4264    1.9575 C   0  0  0  0  0  0  0  0  0  0  0  0
    1.9347   -0.2367    3.1485 O   0  0  0  0  0  0  0  0  0  0  0  0
    1.2389   -0.9788    1.0984 N   0  0  0  0  0  0  0  0  0  0  0  0
   -0.1485   -1.1776    1.4642 C   0  0  0  0  0  0  0  0  0  0  0  0
   -0.6745   -2.4852    0.8280 C   0  0  0  0  0  0  0  0  0  0  0  0
   -2.2258   -2.5573    0.7162 C   0  0  0  0  0  0  0  0  0  0  0  0
   -2.8725   -2.5483    2.1164 C   0  0  0  0  0  0  0  0  0  0  0  0
   -2.6125   -3.8780    0.0236 C   0  0  0  0  0  0  0  0  0  0  0  0
   -2.7620   -1.3672   -0.1421 C   0  0  0  0  0  0  0  0  0  0  0  0
   -2.0952   -0.0851    0.2327 C   0  0  0  0  0  0  0  0  0  0  0  0
   -0.9303   -0.0039    0.9755 C   0  0  0  0  0  0  0  0  0  0  0  0
   -0.7604    1.3630    1.2188 C   0  0  0  0  0  0  0  0  0  0  0  0
   -1.6964    2.1023    0.6292 N   0  0  0  0  0  0  0  0  0  0  0  0
   -2.5040    1.2173   -0.0252 N   0  0  0  0  0  0  0  0  0  0  0  0
   -3.5715    1.7280   -0.8270 C   0  0  0  0  0  0  0  0  0  0  0  0
   -4.2912    0.9337   -1.7297 C   0  0  0  0  0  0  0  0  0  0  0  0
   -5.3279    1.4855   -2.4946 C   0  0  0  0  0  0  0  0  0  0  0  0
   -5.6492    2.8343   -2.3708 C   0  0  0  0  0  0  0  0  0  0  0  0
   -4.9272    3.6264   -1.4895 C   0  0  0  0  0  0  0  0  0  0  0  0
   -5.2305    4.9261   -1.3748 F   0  0  0  0  0  0  0  0  0  0  0  0
   -3.8954    3.0926   -0.7248 C   0  0  0  0  0  0  0  0  0  0  0  0
    3.7018    0.2090    0.0164 C   0  0  0  0  0  0  0  0  0  0  0  0
    2.6467    0.1420   -0.8689 O   0  0  0  0  0  0  0  0  0  0  0  0
    2.1914    1.4591   -1.1999 C   0  0  0  0  0  0  0  0  0  0  0  0
    6.8458    1.8339   -1.9602 H   0  0  0  0  0  0  0  0  0  0  0  0
    7.0736    0.0485   -2.1266 H   0  0  0  0  0  0  0  0  0  0  0  0
    6.3315    0.9901   -3.4253 H   0  0  0  0  0  0  0  0  0  0  0  0
    7.0675    0.8067    0.1262 H   0  0  0  0  0  0  0  0  0  0  0  0
    6.6706    0.4114    2.5064 H   0  0  0  0  0  0  0  0  0  0  0  0
    4.4146   -0.1560    3.3326 H   0  0  0  0  0  0  0  0  0  0  0  0
    1.4641   -0.9607    0.1081 H   0  0  0  0  0  0  0  0  0  0  0  0
   -0.2400   -1.2391    2.5550 H   0  0  0  0  0  0  0  0  0  0  0  0
   -0.2888   -3.3398    1.3996 H   0  0  0  0  0  0  0  0  0  0  0  0
   -0.2534   -2.5920   -0.1830 H   0  0  0  0  0  0  0  0  0  0  0  0
   -2.6861   -1.6156    2.6574 H   0  0  0  0  0  0  0  0  0  0  0  0
   -3.9594   -2.6706    2.0464 H   0  0  0  0  0  0  0  0  0  0  0  0
   -2.4862   -3.3696    2.7306 H   0  0  0  0  0  0  0  0  0  0  0  0
   -3.6992   -3.9603   -0.0913 H   0  0  0  0  0  0  0  0  0  0  0  0
   -2.2700   -4.7432    0.6022 H   0  0  0  0  0  0  0  0  0  0  0  0
   -2.1663   -3.9487   -0.9747 H   0  0  0  0  0  0  0  0  0  0  0  0
   -2.5487   -1.5656   -1.1999 H   0  0  0  0  0  0  0  0  0  0  0  0
   -3.8480   -1.2958   -0.0156 H   0  0  0  0  0  0  0  0  0  0  0  0
    0.0056    1.8518    1.8087 H   0  0  0  0  0  0  0  0  0  0  0  0
   -4.0616   -0.1096   -1.9011 H   0  0  0  0  0  0  0  0  0  0  0  0
   -5.8778    0.8608   -3.1948 H   0  0  0  0  0  0  0  0  0  0  0  0
   -6.4487    3.2741   -2.9582 H   0  0  0  0  0  0  0  0  0  0  0  0
   -3.3634    3.7566   -0.0477 H   0  0  0  0  0  0  0  0  0  0  0  0
    2.8747    1.9483   -1.9004 H   0  0  0  0  0  0  0  0  0  0  0  0
    2.0553    2.0778   -0.3057 H   0  0  0  0  0  0  0  0  0  0  0  0
    1.2194    1.3590   -1.6923 H   0  0  0  0  0  0  0  0  0  0  0  0
  1  2  1  0
  2  3  1  0
  3  4  2  0
  4  5  1  0
  5  6  2  0
  6  7  1  0
  7  8  1  0
  8  9  2  0
  8 10  1  0
 10 11  1  0
 11 12  1  0
 12 13  1  0
 13 14  1  0
 13 15  1  0
 13 16  1  0
 16 17  1  0
 17 18  2  0
 18 19  1  0
 19 20  2  0
 20 21  1  0
 21 22  1  0
 22 23  2  0
 23 24  1  0
 24 25  2  0
 25 26  1  0
 26 27  1  0
 26 28  2  0
  7 29  2  0
 29 30  1  0
 30 31  1  0
 29  3  1  0
 18 11  1  0
 28 22  1  0
 21 17  1  0
  1 32  1  0
  1 33  1  0
  1 34  1  0
  4 35  1  0
  5 36  1  0
  6 37  1  0
 10 38  1  0
 11 39  1  0
 12 40  1  0
 12 41  1  0
 14 42  1  0
 14 43  1  0
 14 44  1  0
 15 45  1  0
 15 46  1  0
 15 47  1  0
 16 48  1  0
 16 49  1  0
 19 50  1  0
 23 51  1  0
 24 52  1  0
 25 53  1  0
 28 54  1  0
 31 55  1  0
 31 56  1  0
 31 57  1  0
M  END
$$$$
