
     RDKit          3D

 60 63  0  0  0  0  0  0  0  0999 V2000
   -5.5028    1.8178   -0.8071 O   0  0  0  0  0  0  0  0  0  0  0  0
   -5.9732    0.9747   -1.5562 C   0  0  0  0  0  0  0  0  0  0  0  0
   -5.9895    1.1606   -2.8880 O   0  0  0  0  0  0  0  0  0  0  0  0
   -6.5982   -0.3340   -1.1408 C   0  0  0  0  0  0  0  0  0  0  0  0
   -8.1180   -0.1038   -1.0883 C   0  0  0  0  0  0  0  0  0  0  0  0
   -8.8715   -1.1316   -0.3008 C   0  0  0  0  0  0  0  0  0  0  0  0
   -8.2721   -2.0417    0.4770 C   0  0  0  0  0  0  0  0  0  0  0  0
   -6.7849   -2.1144    0.6531 C   0  0  0  0  0  0  0  0  0  0  0  0
   -6.0476   -0.8334    0.2128 C   0  0  0  0  0  0  0  0  0  0  0  0
   -4.5394   -1.1163    0.1412 C   0  0  0  0  0  0  0  0  0  0  0  0
   -4.1091   -2.2514   -0.0371 O   0  0  0  0  0  0  0  0  0  0  0  0
   -3.7694    0.0258    0.2683 N   0  0  0  0  0  0  0  0  0  0  0  0
   -2.3649    0.1329    0.2356 C   0  0  0  0  0  0  0  0  0  0  0  0
   -1.8237    1.4179    0.3043 C   0  0  0  0  0  0  0  0  0  0  0  0
   -0.4371    1.6107    0.2707 C   0  0  0  0  0  0  0  0  0  0  0  0
    0.4567    0.5338    0.1746 C   0  0  0  0  0  0  0  0  0  0  0  0
    1.8355    0.7862    0.1243 N   0  0  0  0  0  0  0  0  0  0  0  0
    2.7242   -0.2972   -0.3469 C   0  0  0  0  0  0  0  0  0  0  0  0
    4.1567    0.2412   -0.5756 C   0  0  0  0  0  0  0  0  0  0  0  0
    4.7311    0.8755    0.6356 N   0  0  0  0  0  0  0  0  0  0  0  0
    6.0616    1.4449    0.3641 C   0  0  0  0  0  0  0  0  0  0  0  0
    7.1210    0.3962    0.0993 C   0  0  0  0  0  0  0  0  0  0  0  0
    7.4490   -0.5476    1.0849 C   0  0  0  0  0  0  0  0  0  0  0  0
    8.4340   -1.5076    0.8482 C   0  0  0  0  0  0  0  0  0  0  0  0
    9.1018   -1.5343   -0.3748 C   0  0  0  0  0  0  0  0  0  0  0  0
    8.7832   -0.6042   -1.3633 C   0  0  0  0  0  0  0  0  0  0  0  0
    7.7987    0.3575   -1.1279 C   0  0  0  0  0  0  0  0  0  0  0  0
    3.8110    1.9411    1.0961 C   0  0  0  0  0  0  0  0  0  0  0  0
    2.3682    1.4397    1.3427 C   0  0  0  0  0  0  0  0  0  0  0  0
   -0.1051   -0.7466    0.0986 C   0  0  0  0  0  0  0  0  0  0  0  0
   -1.4950   -0.9482    0.1352 C   0  0  0  0  0  0  0  0  0  0  0  0
   -5.5406    2.0186   -3.0396 H   0  0  0  0  0  0  0  0  0  0  0  0
   -6.3553   -1.0825   -1.9075 H   0  0  0  0  0  0  0  0  0  0  0  0
   -8.5106   -0.0866   -2.1130 H   0  0  0  0  0  0  0  0  0  0  0  0
   -8.3452    0.8801   -0.6574 H   0  0  0  0  0  0  0  0  0  0  0  0
   -9.9567   -1.1261   -0.3817 H   0  0  0  0  0  0  0  0  0  0  0  0
   -8.8722   -2.7793    1.0055 H   0  0  0  0  0  0  0  0  0  0  0  0
   -6.5597   -2.3036    1.7104 H   0  0  0  0  0  0  0  0  0  0  0  0
   -6.4318   -2.9924    0.0981 H   0  0  0  0  0  0  0  0  0  0  0  0
   -6.2096   -0.0666    0.9844 H   0  0  0  0  0  0  0  0  0  0  0  0
   -4.2707    0.9115    0.3287 H   0  0  0  0  0  0  0  0  0  0  0  0
   -2.4672    2.2915    0.3710 H   0  0  0  0  0  0  0  0  0  0  0  0
   -0.0554    2.6284    0.2896 H   0  0  0  0  0  0  0  0  0  0  0  0
    2.7592   -1.1128    0.3872 H   0  0  0  0  0  0  0  0  0  0  0  0
    2.3587   -0.7018   -1.2987 H   0  0  0  0  0  0  0  0  0  0  0  0
    4.1352    0.9608   -1.4050 H   0  0  0  0  0  0  0  0  0  0  0  0
    4.7789   -0.6047   -0.8893 H   0  0  0  0  0  0  0  0  0  0  0  0
    6.0173    2.1602   -0.4678 H   0  0  0  0  0  0  0  0  0  0  0  0
    6.4033    2.0165    1.2381 H   0  0  0  0  0  0  0  0  0  0  0  0
    6.9269   -0.5378    2.0391 H   0  0  0  0  0  0  0  0  0  0  0  0
    8.6786   -2.2345    1.6187 H   0  0  0  0  0  0  0  0  0  0  0  0
    9.8687   -2.2819   -0.5589 H   0  0  0  0  0  0  0  0  0  0  0  0
    9.3025   -0.6273   -2.3176 H   0  0  0  0  0  0  0  0  0  0  0  0
    7.5614    1.0744   -1.9106 H   0  0  0  0  0  0  0  0  0  0  0  0
    4.1873    2.3652    2.0351 H   0  0  0  0  0  0  0  0  0  0  0  0
    3.7776    2.7548    0.3582 H   0  0  0  0  0  0  0  0  0  0  0  0
    1.7629    2.3042    1.6380 H   0  0  0  0  0  0  0  0  0  0  0  0
    2.3609    0.7283    2.1791 H   0  0  0  0  0  0  0  0  0  0  0  0
    0.5215   -1.6303    0.0246 H   0  0  0  0  0  0  0  0  0  0  0  0
   -1.8570   -1.9700    0.0837 H   0  0  0  0  0  0  0  0  0  0  0  0
  1  2  2  0
  2  3  1  0
  2  4  1  0
  4  5  1  0
  5  6  1  0
  6  7  2  0
  7  8  1  0
  8  9  1  0
  9 10  1  0
 10 11  2  0
 10 12  1  0
 12 13  1  0
 13 14  2  0
 14 15  1  0
 15 16  2  0
 16 17  1  0
 17 18  1  0
 18 19  1  0
 19 20  1  0
 20 21  1  0
 21 22  1  0
 22 23  2  0
 23 24  1  0
 24 25  2  0
 25 26  1  0
 26 27  2  0
 20 28  1  0
 28 29  1  0
 16 30  1  0
 30 31  2  0
  9  4  1  0
 31 13  1  0
 29 17  1  0
 27 22  1  0
  3 32  1  0
  4 33  1  0
  5 34  1  0
  5 35  1  0
  6 36  1  0
  7 37  1  0
  8 38  1  0
  8 39  1  0
  9 40  1  0
 12 41  1  0
 14 42  1  0
 15 43  1  0
 18 44  1  0
 18 45  1  0
 19 46  1  0
 19 47  1  0
 21 48  1  0
 21 49  1  0
 23 50  1  0
 24 51  1  0
 25 52  1  0
 26 53  1  0
 27 54  1  0
 28 55  1  0
 28 56  1  0
 29 57  1  0
 29 58  1  0
 30 59  1  0
 31 60  1  0
M  END
$$$$
