
     RDKit          3D

 49 51  0  0  0  0  0  0  0  0999 V2000
   -7.5528    0.3285    0.9160 C   0  0  0  0  0  0  0  0  0  0  0  0
   -6.3050    0.4794    1.5759 O   0  0  0  0  0  0  0  0  0  0  0  0
   -5.2652   -0.3171    1.1617 C   0  0  0  0  0  0  0  0  0  0  0  0
   -5.3929   -1.3658    0.2446 C   0  0  0  0  0  0  0  0  0  0  0  0
   -4.2784   -2.1283   -0.1184 C   0  0  0  0  0  0  0  0  0  0  0  0
   -3.0257   -1.8498    0.4307 C   0  0  0  0  0  0  0  0  0  0  0  0
   -1.8683   -2.6635    0.0506 C   0  0  0  0  0  0  0  0  0  0  0  0
   -0.8373   -2.2514   -0.7014 C   0  0  0  0  0  0  0  0  0  0  0  0
    0.5173   -3.2639   -1.0553 S   0  0  0  0  0  0  0  0  0  0  0  0
    1.3536   -1.9916   -1.9247 C   0  0  0  0  0  0  0  0  0  0  0  0
    2.4459   -2.1533   -2.4457 O   0  0  0  0  0  0  0  0  0  0  0  0
    0.5899   -0.8561   -1.9467 N   0  0  0  0  0  0  0  0  0  0  0  0
    1.0576    0.3649   -2.5836 C   0  0  0  0  0  0  0  0  0  0  0  0
    1.3842    1.4712   -1.5828 C   0  0  0  0  0  0  0  0  0  0  0  0
    2.5006    1.0440   -0.6519 C   0  0  0  0  0  0  0  0  0  0  0  0
    2.2338    0.4356    0.3802 O   0  0  0  0  0  0  0  0  0  0  0  0
    3.7571    1.3764   -1.1236 N   0  0  0  0  0  0  0  0  0  0  0  0
    5.0013    1.1036   -0.5154 C   0  0  0  0  0  0  0  0  0  0  0  0
    6.1506    1.5503   -1.1832 C   0  0  0  0  0  0  0  0  0  0  0  0
    7.4222    1.3229   -0.6489 C   0  0  0  0  0  0  0  0  0  0  0  0
    7.5571    0.6446    0.5583 C   0  0  0  0  0  0  0  0  0  0  0  0
    6.4213    0.1979    1.2305 C   0  0  0  0  0  0  0  0  0  0  0  0
    5.1485    0.4266    0.6965 C   0  0  0  0  0  0  0  0  0  0  0  0
   -0.6463   -0.9181   -1.3447 C   0  0  0  0  0  0  0  0  0  0  0  0
   -1.4708   -0.0155   -1.3589 O   0  0  0  0  0  0  0  0  0  0  0  0
   -2.8930   -0.8089    1.3582 C   0  0  0  0  0  0  0  0  0  0  0  0
   -4.0025   -0.0354    1.7241 C   0  0  0  0  0  0  0  0  0  0  0  0
   -3.9586    1.0062    2.6182 O   0  0  0  0  0  0  0  0  0  0  0  0
   -2.6799    1.3994    3.1010 C   0  0  0  0  0  0  0  0  0  0  0  0
   -7.9886   -0.6540    1.1213 H   0  0  0  0  0  0  0  0  0  0  0  0
   -8.2366    1.0845    1.3135 H   0  0  0  0  0  0  0  0  0  0  0  0
   -7.4571    0.5020   -0.1600 H   0  0  0  0  0  0  0  0  0  0  0  0
   -6.3480   -1.6164   -0.2070 H   0  0  0  0  0  0  0  0  0  0  0  0
   -4.4003   -2.9353   -0.8367 H   0  0  0  0  0  0  0  0  0  0  0  0
   -1.8883   -3.6779    0.4480 H   0  0  0  0  0  0  0  0  0  0  0  0
    1.9358    0.1450   -3.2012 H   0  0  0  0  0  0  0  0  0  0  0  0
    0.2630    0.7176   -3.2527 H   0  0  0  0  0  0  0  0  0  0  0  0
    1.6711    2.3860   -2.1160 H   0  0  0  0  0  0  0  0  0  0  0  0
    0.5142    1.7305   -0.9690 H   0  0  0  0  0  0  0  0  0  0  0  0
    3.8075    1.8759   -2.0021 H   0  0  0  0  0  0  0  0  0  0  0  0
    6.0766    2.0812   -2.1280 H   0  0  0  0  0  0  0  0  0  0  0  0
    8.3055    1.6735   -1.1769 H   0  0  0  0  0  0  0  0  0  0  0  0
    8.5436    0.4636    0.9770 H   0  0  0  0  0  0  0  0  0  0  0  0
    6.5209   -0.3322    2.1748 H   0  0  0  0  0  0  0  0  0  0  0  0
    4.2939    0.0586    1.2549 H   0  0  0  0  0  0  0  0  0  0  0  0
   -1.9107   -0.6120    1.7762 H   0  0  0  0  0  0  0  0  0  0  0  0
   -2.0143    1.6834    2.2777 H   0  0  0  0  0  0  0  0  0  0  0  0
   -2.2352    0.6123    3.7190 H   0  0  0  0  0  0  0  0  0  0  0  0
   -2.8172    2.2810    3.7340 H   0  0  0  0  0  0  0  0  0  0  0  0
  1  2  1  0
  2  3  1  0
  3  4  2  0
  4  5  1  0
  5  6  2  0
  6  7  1  0
  7  8  2  3
  8  9  1  0
  9 10  1  0
 10 11  2  0
 10 12  1  0
 12 13  1  0
 13 14  1  0
 14 15  1  0
 15 16  2  0
 15 17  1  0
 17 18  1  0
 18 19  2  0
 19 20  1  0
 20 21  2  0
 21 22  1  0
 22 23  2  0
 12 24  1  0
 24 25  2  0
  6 26  1  0
 26 27  2  0
 27 28  1  0
 28 29  1  0
 27  3  1  0
 24  8  1  0
 23 18  1  0
  1 30  1  0
  1 31  1  0
  1 32  1  0
  4 33  1  0
  5 34  1  0
  7 35  1  0
 13 36  1  0
 13 37  1  0
 14 38  1  0
 14 39  1  0
 17 40  1  0
 19 41  1  0
 20 42  1  0
 21 43  1  0
 22 44  1  0
 23 45  1  0
 26 46  1  0
 29 47  1  0
 29 48  1  0
 29 49  1  0
M  END
$$$$
