
     RDKit          3D

 53 56  0  0  0  0  0  0  0  0999 V2000
   -2.5898    5.9007   -1.3372 C   0  0  0  0  0  0  0  0  0  0  0  0
   -2.5010    5.4243   -0.0009 O   0  0  0  0  0  0  0  0  0  0  0  0
   -2.0529    4.1441    0.1720 C   0  0  0  0  0  0  0  0  0  0  0  0
   -2.0093    3.7154    1.4996 C   0  0  0  0  0  0  0  0  0  0  0  0
   -1.5727    2.4282    1.8223 C   0  0  0  0  0  0  0  0  0  0  0  0
   -1.1627    1.5433    0.8153 C   0  0  0  0  0  0  0  0  0  0  0  0
   -0.7230    0.1352    1.1851 C   0  0  0  0  0  0  0  0  0  0  0  0
   -1.8877   -0.8486    1.0378 C   0  0  0  0  0  0  0  0  0  0  0  0
   -1.3265   -1.7806    0.0036 C   0  0  0  0  0  0  0  0  0  0  0  0
   -2.1002   -2.9336   -0.5009 C   0  0  0  0  0  0  0  0  0  0  0  0
   -3.4629   -2.7479   -0.7812 C   0  0  0  0  0  0  0  0  0  0  0  0
   -4.2283   -3.7954   -1.2942 C   0  0  0  0  0  0  0  0  0  0  0  0
   -3.6389   -5.0313   -1.5353 C   0  0  0  0  0  0  0  0  0  0  0  0
   -2.2829   -5.2217   -1.2627 C   0  0  0  0  0  0  0  0  0  0  0  0
   -1.4925   -4.1814   -0.7332 C   0  0  0  0  0  0  0  0  0  0  0  0
   -0.0391   -4.4532   -0.4188 C   0  0  0  0  0  0  0  0  0  0  0  0
    0.2368   -5.7938   -0.3927 F   0  0  0  0  0  0  0  0  0  0  0  0
    0.8242   -3.9400   -1.3345 F   0  0  0  0  0  0  0  0  0  0  0  0
    0.3449   -4.0025    0.8070 F   0  0  0  0  0  0  0  0  0  0  0  0
   -0.1198   -1.5236   -0.3856 N   0  0  0  0  0  0  0  0  0  0  0  0
    0.2969   -0.4059    0.2790 N   0  0  0  0  0  0  0  0  0  0  0  0
    1.6642   -0.1253    0.3673 C   0  0  0  0  0  0  0  0  0  0  0  0
    2.1737    0.9193    1.1576 C   0  0  0  0  0  0  0  0  0  0  0  0
    3.5462    1.1910    1.2255 C   0  0  0  0  0  0  0  0  0  0  0  0
    4.4376    0.4154    0.4894 C   0  0  0  0  0  0  0  0  0  0  0  0
    6.1753    0.7471    0.5621 S   0  0  0  0  0  6  0  0  0  0  0  0
    6.4275    1.5422   -0.9030 N   0  0  0  0  0  0  0  0  0  0  0  0
    6.8851   -0.5081    0.4596 O   0  0  0  0  0  0  0  0  0  0  0  0
    6.4245    1.6967    1.6210 O   0  0  0  0  0  0  0  0  0  0  0  0
    3.9726   -0.6330   -0.2997 C   0  0  0  0  0  0  0  0  0  0  0  0
    2.5988   -0.8858   -0.3617 C   0  0  0  0  0  0  0  0  0  0  0  0
   -1.2160    1.9801   -0.5178 C   0  0  0  0  0  0  0  0  0  0  0  0
   -1.6540    3.2705   -0.8371 C   0  0  0  0  0  0  0  0  0  0  0  0
   -2.9582    6.9311   -1.3001 H   0  0  0  0  0  0  0  0  0  0  0  0
   -1.6063    5.9168   -1.8202 H   0  0  0  0  0  0  0  0  0  0  0  0
   -3.3064    5.3111   -1.9183 H   0  0  0  0  0  0  0  0  0  0  0  0
   -2.3213    4.3928    2.2915 H   0  0  0  0  0  0  0  0  0  0  0  0
   -1.5562    2.1274    2.8682 H   0  0  0  0  0  0  0  0  0  0  0  0
   -0.3622    0.1126    2.2223 H   0  0  0  0  0  0  0  0  0  0  0  0
   -2.8196   -0.3834    0.7085 H   0  0  0  0  0  0  0  0  0  0  0  0
   -2.0622   -1.4028    1.9660 H   0  0  0  0  0  0  0  0  0  0  0  0
   -3.9413   -1.7826   -0.6380 H   0  0  0  0  0  0  0  0  0  0  0  0
   -5.2805   -3.6423   -1.5194 H   0  0  0  0  0  0  0  0  0  0  0  0
   -4.2323   -5.8478   -1.9418 H   0  0  0  0  0  0  0  0  0  0  0  0
   -1.8414   -6.1975   -1.4624 H   0  0  0  0  0  0  0  0  0  0  0  0
    1.5111    1.5528    1.7392 H   0  0  0  0  0  0  0  0  0  0  0  0
    3.9015    2.0054    1.8529 H   0  0  0  0  0  0  0  0  0  0  0  0
    5.5587    1.7943   -1.3742 H   0  0  0  0  0  0  0  0  0  0  0  0
    7.0299    0.9646   -1.4915 H   0  0  0  0  0  0  0  0  0  0  0  0
    4.6580   -1.2598   -0.8654 H   0  0  0  0  0  0  0  0  0  0  0  0
    2.2505   -1.7062   -0.9875 H   0  0  0  0  0  0  0  0  0  0  0  0
   -0.9044    1.3146   -1.3229 H   0  0  0  0  0  0  0  0  0  0  0  0
   -1.6655    3.5574   -1.8837 H   0  0  0  0  0  0  0  0  0  0  0  0
  1  2  1  0
  2  3  1  0
  3  4  2  0
  4  5  1  0
  5  6  2  0
  6  7  1  0
  7  8  1  0
  8  9  1  0
  9 10  1  0
 10 11  2  0
 11 12  1  0
 12 13  2  0
 13 14  1  0
 14 15  2  0
 15 16  1  0
 16 17  1  0
 16 18  1  0
 16 19  1  0
  9 20  2  0
 20 21  1  0
 21 22  1  0
 22 23  2  0
 23 24  1  0
 24 25  2  0
 25 26  1  0
 26 27  1  0
 26 28  2  0
 26 29  2  0
 25 30  1  0
 30 31  2  0
  6 32  1  0
 32 33  2  0
 33  3  1  0
 21  7  1  0
 31 22  1  0
 15 10  1  0
  1 34  1  0
  1 35  1  0
  1 36  1  0
  4 37  1  0
  5 38  1  0
  7 39  1  0
  8 40  1  0
  8 41  1  0
 11 42  1  0
 12 43  1  0
 13 44  1  0
 14 45  1  0
 23 46  1  0
 24 47  1  0
 27 48  1  0
 27 49  1  0
 30 50  1  0
 31 51  1  0
 32 52  1  0
 33 53  1  0
M  END
$$$$
