
     RDKit          3D

 63 67  0  0  0  0  0  0  0  0999 V2000
    9.4721    1.1546    0.4848 C   0  0  0  0  0  0  0  0  0  0  0  0
    8.6406    0.8595   -0.6282 O   0  0  0  0  0  0  0  0  0  0  0  0
    7.3018    0.6715   -0.3935 C   0  0  0  0  0  0  0  0  0  0  0  0
    6.6944    0.7870    0.8576 C   0  0  0  0  0  0  0  0  0  0  0  0
    5.3169    0.5867    0.9970 C   0  0  0  0  0  0  0  0  0  0  0  0
    4.5164    0.2698   -0.1060 C   0  0  0  0  0  0  0  0  0  0  0  0
    3.0647    0.0760    0.0395 C   0  0  0  0  0  0  0  0  0  0  0  0
    2.1584    0.8156   -0.7426 C   0  0  0  0  0  0  0  0  0  0  0  0
    0.7755    0.6363   -0.6188 C   0  0  0  0  0  0  0  0  0  0  0  0
    0.2710   -0.2856    0.3005 C   0  0  0  0  0  0  0  0  0  0  0  0
    1.1590   -1.0300    1.0616 C   0  0  0  0  0  0  0  0  0  0  0  0
    2.5438   -0.8541    0.9517 C   0  0  0  0  0  0  0  0  0  0  0  0
    0.5115   -2.2202    2.1710 S   0  0  0  0  0  6  0  0  0  0  0  0
    0.3841   -3.4615    1.4385 O   0  0  0  0  0  0  0  0  0  0  0  0
    1.2920   -2.1174    3.3888 O   0  0  0  0  0  0  0  0  0  0  0  0
   -1.1200   -1.6993    2.5748 C   0  0  0  0  0  0  0  0  0  0  0  0
   -1.6675   -2.1120    3.7972 C   0  0  0  0  0  0  0  0  0  0  0  0
   -2.9308   -1.6657    4.1648 C   0  0  0  0  0  0  0  0  0  0  0  0
   -3.6255   -0.7993    3.3222 C   0  0  0  0  0  0  0  0  0  0  0  0
   -3.0775   -0.3925    2.0900 C   0  0  0  0  0  0  0  0  0  0  0  0
   -3.8829    0.6165    1.3606 C   0  0  0  0  0  0  0  0  0  0  0  0
   -4.1777    1.6555    1.9417 O   0  0  0  0  0  0  0  0  0  0  0  0
   -4.2939    0.2812    0.0925 N   0  0  0  0  0  0  0  0  0  0  0  0
   -5.0350    1.2243   -0.7422 C   0  0  0  0  0  0  0  0  0  0  0  0
   -5.0678    0.7387   -2.1997 C   0  0  0  0  0  0  0  0  0  0  0  0
   -5.9556   -0.4927   -2.3891 C   0  0  0  0  0  0  0  0  0  0  0  0
   -7.3664   -0.2571   -1.8580 C   0  0  0  0  0  0  0  0  0  0  0  0
   -7.3523    0.2148   -0.4078 C   0  0  0  0  0  0  0  0  0  0  0  0
   -6.4677    1.4492   -0.2273 C   0  0  0  0  0  0  0  0  0  0  0  0
   -1.8090   -0.8529    1.7000 C   0  0  0  0  0  0  0  0  0  0  0  0
   -1.1900   -0.4680    0.4105 C   0  0  0  0  0  0  0  0  0  0  0  0
   -1.8776   -0.3316   -0.5939 O   0  0  0  0  0  0  0  0  0  0  0  0
    5.1374    0.1470   -1.3600 C   0  0  0  0  0  0  0  0  0  0  0  0
    6.5157    0.3467   -1.5141 C   0  0  0  0  0  0  0  0  0  0  0  0
    7.1847    0.2414   -2.7076 O   0  0  0  0  0  0  0  0  0  0  0  0
    6.4168    0.0023   -3.8790 C   0  0  0  0  0  0  0  0  0  0  0  0
   10.4977    1.2573    0.1177 H   0  0  0  0  0  0  0  0  0  0  0  0
    9.4609    0.3374    1.2146 H   0  0  0  0  0  0  0  0  0  0  0  0
    9.1880    2.1048    0.9506 H   0  0  0  0  0  0  0  0  0  0  0  0
    7.2614    1.0378    1.7463 H   0  0  0  0  0  0  0  0  0  0  0  0
    4.8717    0.6955    1.9828 H   0  0  0  0  0  0  0  0  0  0  0  0
    2.5281    1.5511   -1.4570 H   0  0  0  0  0  0  0  0  0  0  0  0
    0.1007    1.2232   -1.2403 H   0  0  0  0  0  0  0  0  0  0  0  0
    3.2155   -1.4578    1.5616 H   0  0  0  0  0  0  0  0  0  0  0  0
   -1.1107   -2.7694    4.4637 H   0  0  0  0  0  0  0  0  0  0  0  0
   -3.3706   -1.9721    5.1129 H   0  0  0  0  0  0  0  0  0  0  0  0
   -4.6020   -0.4229    3.6306 H   0  0  0  0  0  0  0  0  0  0  0  0
   -3.6608   -0.3474   -0.4034 H   0  0  0  0  0  0  0  0  0  0  0  0
   -4.4914    2.1771   -0.6986 H   0  0  0  0  0  0  0  0  0  0  0  0
   -5.4472    1.5489   -2.8359 H   0  0  0  0  0  0  0  0  0  0  0  0
   -4.0527    0.5137   -2.5495 H   0  0  0  0  0  0  0  0  0  0  0  0
   -5.5119   -1.3552   -1.8758 H   0  0  0  0  0  0  0  0  0  0  0  0
   -6.0040   -0.7502   -3.4535 H   0  0  0  0  0  0  0  0  0  0  0  0
   -7.9505   -1.1805   -1.9413 H   0  0  0  0  0  0  0  0  0  0  0  0
   -7.8686    0.4951   -2.4787 H   0  0  0  0  0  0  0  0  0  0  0  0
   -8.3754    0.4465   -0.0881 H   0  0  0  0  0  0  0  0  0  0  0  0
   -6.9935   -0.5960    0.2392 H   0  0  0  0  0  0  0  0  0  0  0  0
   -6.9140    2.2872   -0.7785 H   0  0  0  0  0  0  0  0  0  0  0  0
   -6.4687    1.7395    0.8286 H   0  0  0  0  0  0  0  0  0  0  0  0
    4.5204   -0.1216   -2.2104 H   0  0  0  0  0  0  0  0  0  0  0  0
    5.6842    0.8000   -4.0407 H   0  0  0  0  0  0  0  0  0  0  0  0
    5.9348   -0.9797   -3.8380 H   0  0  0  0  0  0  0  0  0  0  0  0
    7.0987    0.0034   -4.7365 H   0  0  0  0  0  0  0  0  0  0  0  0
  1  2  1  0
  2  3  1  0
  3  4  2  0
  4  5  1  0
  5  6  2  0
  6  7  1  0
  7  8  2  0
  8  9  1  0
  9 10  2  0
 10 11  1  0
 11 12  2  0
 11 13  1  0
 13 14  2  0
 13 15  2  0
 13 16  1  0
 16 17  2  0
 17 18  1  0
 18 19  2  0
 19 20  1  0
 20 21  1  0
 21 22  2  0
 21 23  1  0
 23 24  1  0
 24 25  1  0
 25 26  1  0
 26 27  1  0
 27 28  1  0
 28 29  1  0
 20 30  2  0
 30 31  1  0
 31 32  2  0
  6 33  1  0
 33 34  2  0
 34 35  1  0
 35 36  1  0
 34  3  1  0
 12  7  1  0
 30 16  1  0
 31 10  1  0
 29 24  1  0
  1 37  1  0
  1 38  1  0
  1 39  1  0
  4 40  1  0
  5 41  1  0
  8 42  1  0
  9 43  1  0
 12 44  1  0
 17 45  1  0
 18 46  1  0
 19 47  1  0
 23 48  1  0
 24 49  1  0
 25 50  1  0
 25 51  1  0
 26 52  1  0
 26 53  1  0
 27 54  1  0
 27 55  1  0
 28 56  1  0
 28 57  1  0
 29 58  1  0
 29 59  1  0
 33 60  1  0
 36 61  1  0
 36 62  1  0
 36 63  1  0
M  END
$$$$
