
     RDKit          3D

 42 44  0  0  0  0  0  0  0  0999 V2000
    1.6428    4.4212   -0.0363 C   0  0  0  0  0  0  0  0  0  0  0  0
   -0.0350    3.9952    0.4986 S   0  0  0  0  0  0  0  0  0  0  0  0
   -0.0013    2.2136    0.3000 C   0  0  0  0  0  0  0  0  0  0  0  0
    1.2181    1.6414    0.3541 N   0  0  0  0  0  0  0  0  0  0  0  0
    1.2722    0.3023    0.2855 C   0  0  0  0  0  0  0  0  0  0  0  0
    2.6004   -0.3413    0.3396 C   0  0  0  0  0  0  0  0  0  0  0  0
    2.7494   -1.7355    0.2018 C   0  0  0  0  0  0  0  0  0  0  0  0
    4.0066   -2.3468    0.2517 C   0  0  0  0  0  0  0  0  0  0  0  0
    5.1489   -1.5757    0.4416 C   0  0  0  0  0  0  0  0  0  0  0  0
    5.0351   -0.1962    0.5811 C   0  0  0  0  0  0  0  0  0  0  0  0
    3.7761    0.4114    0.5302 C   0  0  0  0  0  0  0  0  0  0  0  0
    0.1913   -0.4919    0.1767 N   0  0  0  0  0  0  0  0  0  0  0  0
   -1.0256    0.0841    0.1163 C   0  0  0  0  0  0  0  0  0  0  0  0
   -2.1587   -0.7546   -0.0140 N   0  0  0  0  0  0  0  0  0  0  0  0
   -1.9479   -2.1366    0.4889 C   0  0  0  0  0  0  0  0  0  0  0  0
   -1.5884   -3.0980   -0.6527 C   0  0  0  0  0  0  0  0  0  0  0  0
   -2.6178   -3.1974   -1.6516 O   0  0  0  0  0  0  0  0  0  0  0  0
   -3.4304   -2.0171   -1.7473 C   0  0  0  0  0  0  0  0  0  0  0  0
   -2.6641   -0.7259   -1.4180 C   0  0  0  0  0  0  0  0  0  0  0  0
   -1.1582    1.4656    0.1795 C   0  0  0  0  0  0  0  0  0  0  0  0
   -2.4830    2.0926    0.1639 C   0  0  0  0  0  0  0  0  0  0  0  0
   -3.3176    1.9787    1.4100 C   0  0  0  0  0  0  0  0  0  0  0  0
   -2.8716    2.6590   -0.8537 O   0  0  0  0  0  0  0  0  0  0  0  0
    1.7415    5.5099   -0.0595 H   0  0  0  0  0  0  0  0  0  0  0  0
    2.3860    4.0265    0.6619 H   0  0  0  0  0  0  0  0  0  0  0  0
    1.8385    4.0366   -1.0412 H   0  0  0  0  0  0  0  0  0  0  0  0
    1.8742   -2.3650    0.0497 H   0  0  0  0  0  0  0  0  0  0  0  0
    4.0900   -3.4250    0.1408 H   0  0  0  0  0  0  0  0  0  0  0  0
    6.1265   -2.0490    0.4801 H   0  0  0  0  0  0  0  0  0  0  0  0
    5.9242    0.4113    0.7298 H   0  0  0  0  0  0  0  0  0  0  0  0
    3.7189    1.4930    0.6438 H   0  0  0  0  0  0  0  0  0  0  0  0
   -1.2049   -2.1821    1.2943 H   0  0  0  0  0  0  0  0  0  0  0  0
   -2.8963   -2.4598    0.9364 H   0  0  0  0  0  0  0  0  0  0  0  0
   -0.6662   -2.7880   -1.1563 H   0  0  0  0  0  0  0  0  0  0  0  0
   -1.4225   -4.1052   -0.2576 H   0  0  0  0  0  0  0  0  0  0  0  0
   -3.8226   -1.9724   -2.7683 H   0  0  0  0  0  0  0  0  0  0  0  0
   -4.2863   -2.1411   -1.0736 H   0  0  0  0  0  0  0  0  0  0  0  0
   -3.3372    0.1259   -1.5534 H   0  0  0  0  0  0  0  0  0  0  0  0
   -1.8300   -0.6293   -2.1265 H   0  0  0  0  0  0  0  0  0  0  0  0
   -3.6419    2.9774    1.7147 H   0  0  0  0  0  0  0  0  0  0  0  0
   -4.1871    1.3484    1.2062 H   0  0  0  0  0  0  0  0  0  0  0  0
   -2.7463    1.5396    2.2328 H   0  0  0  0  0  0  0  0  0  0  0  0
  1  2  1  0
  2  3  1  0
  3  4  2  0
  4  5  1  0
  5  6  1  0
  6  7  2  0
  7  8  1  0
  8  9  2  0
  9 10  1  0
 10 11  2  0
  5 12  2  0
 12 13  1  0
 13 14  1  0
 14 15  1  0
 15 16  1  0
 16 17  1  0
 17 18  1  0
 18 19  1  0
 13 20  2  0
 20 21  1  0
 21 22  1  0
 21 23  2  0
 20  3  1  0
 11  6  1  0
 19 14  1  0
  1 24  1  0
  1 25  1  0
  1 26  1  0
  7 27  1  0
  8 28  1  0
  9 29  1  0
 10 30  1  0
 11 31  1  0
 15 32  1  0
 15 33  1  0
 16 34  1  0
 16 35  1  0
 18 36  1  0
 18 37  1  0
 19 38  1  0
 19 39  1  0
 22 40  1  0
 22 41  1  0
 22 42  1  0
M  END
$$$$
