
     RDKit          3D

 68 70  0  0  0  0  0  0  0  0999 V2000
    6.2500    2.8010    0.0204 C   0  0  0  0  0  0  0  0  0  0  0  0
    5.3391    1.6211    0.3179 C   0  0  0  0  0  0  0  0  0  0  0  0
    4.1563    2.0570    1.0918 N   0  0  0  0  0  0  0  0  0  0  0  0
    3.1872    2.9720    0.4325 C   0  0  0  0  0  0  0  0  0  0  0  0
    2.8523    2.5972   -1.0010 C   0  0  0  0  0  0  0  0  0  0  0  0
    3.5735    1.0172    2.3067 S   0  0  0  0  0  6  0  0  0  0  0  0
    2.5398    1.7015    3.0558 O   0  0  0  0  0  0  0  0  0  0  0  0
    4.7143    0.4386    2.9937 O   0  0  0  0  0  0  0  0  0  0  0  0
    2.7911   -0.2860    1.3805 C   0  0  0  0  0  0  0  0  0  0  0  0
    3.4485   -1.5053    1.2005 C   0  0  0  0  0  0  0  0  0  0  0  0
    2.8134   -2.5342    0.5008 C   0  0  0  0  0  0  0  0  0  0  0  0
    1.5313   -2.3465   -0.0382 C   0  0  0  0  0  0  0  0  0  0  0  0
    0.8394   -3.3610   -0.7416 N   0  0  0  0  0  0  0  0  0  0  0  0
    1.5746   -3.9353   -1.8900 C   0  0  0  0  0  0  0  0  0  0  0  0
    0.8600   -5.2069   -2.3770 C   0  0  0  0  0  0  0  0  0  0  0  0
    0.7890   -6.2461   -1.3833 O   0  0  0  0  0  0  0  0  0  0  0  0
    0.9136   -5.7561   -0.0392 C   0  0  0  0  0  0  0  0  0  0  0  0
    0.2506   -4.3855    0.1641 C   0  0  0  0  0  0  0  0  0  0  0  0
    0.8833   -1.0992    0.1519 C   0  0  0  0  0  0  0  0  0  0  0  0
   -0.3828   -0.9643   -0.4554 N   0  0  0  0  0  0  0  0  0  0  0  0
   -1.1413    0.1795   -0.5965 C   0  0  0  0  0  0  0  0  0  0  0  0
   -0.8408    1.3007   -0.1941 O   0  0  0  0  0  0  0  0  0  0  0  0
   -2.4517   -0.0669   -1.3250 C   0  0  0  0  0  0  0  0  0  0  0  0
   -3.6410   -0.0744   -0.3643 C   0  0  0  0  0  0  0  0  0  0  0  0
   -4.1054    1.3198    0.1124 C   0  0  0  0  0  0  0  0  0  0  0  0
   -4.6559    2.1743   -1.0434 C   0  0  0  0  0  0  0  0  0  0  0  0
   -5.2064    3.5130   -0.5580 C   0  0  0  0  0  0  0  0  0  0  0  0
   -6.2521    3.3345    0.5375 C   0  0  0  0  0  0  0  0  0  0  0  0
   -5.7039    2.5083    1.6953 C   0  0  0  0  0  0  0  0  0  0  0  0
   -5.1714    1.1609    1.2145 C   0  0  0  0  0  0  0  0  0  0  0  0
    1.4987   -0.0892    0.8869 C   0  0  0  0  0  0  0  0  0  0  0  0
    7.1439    2.4648   -0.5138 H   0  0  0  0  0  0  0  0  0  0  0  0
    6.5697    3.2943    0.9441 H   0  0  0  0  0  0  0  0  0  0  0  0
    5.7555    3.5507   -0.6026 H   0  0  0  0  0  0  0  0  0  0  0  0
    5.9215    0.8884    0.8842 H   0  0  0  0  0  0  0  0  0  0  0  0
    5.0375    1.1262   -0.6101 H   0  0  0  0  0  0  0  0  0  0  0  0
    2.2558    3.0300    1.0071 H   0  0  0  0  0  0  0  0  0  0  0  0
    3.6037    3.9860    0.4582 H   0  0  0  0  0  0  0  0  0  0  0  0
    2.5898    1.5427   -1.1080 H   0  0  0  0  0  0  0  0  0  0  0  0
    3.6902    2.8013   -1.6745 H   0  0  0  0  0  0  0  0  0  0  0  0
    2.0016    3.1915   -1.3551 H   0  0  0  0  0  0  0  0  0  0  0  0
    4.4433   -1.6676    1.6116 H   0  0  0  0  0  0  0  0  0  0  0  0
    3.3287   -3.4848    0.3947 H   0  0  0  0  0  0  0  0  0  0  0  0
    1.6190   -3.1989   -2.7030 H   0  0  0  0  0  0  0  0  0  0  0  0
    2.6051   -4.1971   -1.6255 H   0  0  0  0  0  0  0  0  0  0  0  0
   -0.1656   -4.9740   -2.6926 H   0  0  0  0  0  0  0  0  0  0  0  0
    1.3841   -5.6254   -3.2436 H   0  0  0  0  0  0  0  0  0  0  0  0
    0.4694   -6.5004    0.6281 H   0  0  0  0  0  0  0  0  0  0  0  0
    1.9831   -5.7050    0.1958 H   0  0  0  0  0  0  0  0  0  0  0  0
   -0.8127   -4.4608   -0.0994 H   0  0  0  0  0  0  0  0  0  0  0  0
    0.3050   -4.0893    1.2190 H   0  0  0  0  0  0  0  0  0  0  0  0
   -0.6854   -1.8220   -0.9054 H   0  0  0  0  0  0  0  0  0  0  0  0
   -2.4080   -1.0397   -1.8320 H   0  0  0  0  0  0  0  0  0  0  0  0
   -2.5525    0.6782   -2.1211 H   0  0  0  0  0  0  0  0  0  0  0  0
   -3.3883   -0.6880    0.5121 H   0  0  0  0  0  0  0  0  0  0  0  0
   -4.4830   -0.5749   -0.8613 H   0  0  0  0  0  0  0  0  0  0  0  0
   -3.2503    1.8474    0.5537 H   0  0  0  0  0  0  0  0  0  0  0  0
   -3.8708    2.3761   -1.7800 H   0  0  0  0  0  0  0  0  0  0  0  0
   -5.4492    1.6258   -1.5669 H   0  0  0  0  0  0  0  0  0  0  0  0
   -5.6482    4.0545   -1.4027 H   0  0  0  0  0  0  0  0  0  0  0  0
   -4.3828    4.1287   -0.1776 H   0  0  0  0  0  0  0  0  0  0  0  0
   -7.1373    2.8417    0.1191 H   0  0  0  0  0  0  0  0  0  0  0  0
   -6.5755    4.3160    0.9046 H   0  0  0  0  0  0  0  0  0  0  0  0
   -6.4919    2.3493    2.4403 H   0  0  0  0  0  0  0  0  0  0  0  0
   -4.9004    3.0649    2.1922 H   0  0  0  0  0  0  0  0  0  0  0  0
   -6.0082    0.5575    0.8396 H   0  0  0  0  0  0  0  0  0  0  0  0
   -4.7456    0.6208    2.0689 H   0  0  0  0  0  0  0  0  0  0  0  0
    0.9959    0.8511    1.0834 H   0  0  0  0  0  0  0  0  0  0  0  0
  1  2  1  0
  2  3  1  0
  3  4  1  0
  4  5  1  0
  3  6  1  0
  6  7  2  0
  6  8  2  0
  6  9  1  0
  9 10  2  0
 10 11  1  0
 11 12  2  0
 12 13  1  0
 13 14  1  0
 14 15  1  0
 15 16  1  0
 16 17  1  0
 17 18  1  0
 12 19  1  0
 19 20  1  0
 20 21  1  0
 21 22  2  0
 21 23  1  0
 23 24  1  0
 24 25  1  0
 25 26  1  0
 26 27  1  0
 27 28  1  0
 28 29  1  0
 29 30  1  0
 19 31  2  0
 31  9  1  0
 18 13  1  0
 30 25  1  0
  1 32  1  0
  1 33  1  0
  1 34  1  0
  2 35  1  0
  2 36  1  0
  4 37  1  0
  4 38  1  0
  5 39  1  0
  5 40  1  0
  5 41  1  0
 10 42  1  0
 11 43  1  0
 14 44  1  0
 14 45  1  0
 15 46  1  0
 15 47  1  0
 17 48  1  0
 17 49  1  0
 18 50  1  0
 18 51  1  0
 20 52  1  0
 23 53  1  0
 23 54  1  0
 24 55  1  0
 24 56  1  0
 25 57  1  0
 26 58  1  0
 26 59  1  0
 27 60  1  0
 27 61  1  0
 28 62  1  0
 28 63  1  0
 29 64  1  0
 29 65  1  0
 30 66  1  0
 30 67  1  0
 31 68  1  0
M  END
$$$$
