
     RDKit          3D

 42 45  0  0  0  0  0  0  0  0999 V2000
    8.4840   -0.7436   -0.1536 C   0  0  0  0  0  0  0  0  0  0  0  0
    7.0336   -0.7001   -0.2520 N   0  0  0  0  0  0  0  0  0  0  0  0
    6.4336   -1.6246   -1.2025 C   0  0  0  0  0  0  0  0  0  0  0  0
    6.3255    0.0105    0.7157 C   0  0  0  0  0  0  0  0  0  0  0  0
    6.8980    0.6831    1.5788 O   0  0  0  0  0  0  0  0  0  0  0  0
    4.8066   -0.0538    0.7021 C   0  0  0  0  0  0  0  0  0  0  0  0
    4.1548    1.2093   -0.4273 S   0  0  0  0  0  0  0  0  0  0  0  0
    2.4382    0.9213   -0.2551 C   0  0  0  0  0  0  0  0  0  0  0  0
    1.9722   -0.1277    0.3812 N   0  0  0  0  0  0  0  0  0  0  0  0
    0.5889   -0.1053    0.3611 C   0  0  0  0  0  0  0  0  0  0  0  0
   -0.2641   -1.0553    0.9428 C   0  0  0  0  0  0  0  0  0  0  0  0
   -1.6575   -0.9014    0.8400 C   0  0  0  0  0  0  0  0  0  0  0  0
   -2.2469    0.1803    0.1684 C   0  0  0  0  0  0  0  0  0  0  0  0
   -3.6721    0.3160    0.0772 N   0  0  0  0  0  0  0  0  0  0  0  0
   -4.3331    1.3475   -0.5650 C   0  0  0  0  0  0  0  0  0  0  0  0
   -3.9307    2.3245   -1.1713 O   0  0  0  0  0  0  0  0  0  0  0  0
   -5.7641    1.1058   -0.4199 C   0  0  0  0  0  0  0  0  0  0  0  0
   -6.8462    1.8366   -0.8752 C   0  0  0  0  0  0  0  0  0  0  0  0
   -8.1220    1.3482   -0.5774 C   0  0  0  0  0  0  0  0  0  0  0  0
   -8.2834    0.1573    0.1583 C   0  0  0  0  0  0  0  0  0  0  0  0
   -7.1712   -0.5619    0.6064 C   0  0  0  0  0  0  0  0  0  0  0  0
   -5.9216   -0.0564    0.2980 C   0  0  0  0  0  0  0  0  0  0  0  0
   -4.5921   -0.5651    0.6166 C   0  0  0  0  0  0  0  0  0  0  0  0
   -4.4626   -1.5968    1.2515 O   0  0  0  0  0  0  0  0  0  0  0  0
   -1.3839    1.1296   -0.4130 C   0  0  0  0  0  0  0  0  0  0  0  0
    0.0142    0.9719   -0.3074 C   0  0  0  0  0  0  0  0  0  0  0  0
    1.2700    1.9783   -0.9223 S   0  0  0  0  0  0  0  0  0  0  0  0
    8.7767   -1.7187    0.2471 H   0  0  0  0  0  0  0  0  0  0  0  0
    8.9143   -0.6135   -1.1510 H   0  0  0  0  0  0  0  0  0  0  0  0
    8.8782    0.0396    0.4990 H   0  0  0  0  0  0  0  0  0  0  0  0
    5.4147   -1.3402   -1.4667 H   0  0  0  0  0  0  0  0  0  0  0  0
    7.0295   -1.6403   -2.1201 H   0  0  0  0  0  0  0  0  0  0  0  0
    6.4241   -2.6226   -0.7551 H   0  0  0  0  0  0  0  0  0  0  0  0
    4.4546    0.1508    1.7198 H   0  0  0  0  0  0  0  0  0  0  0  0
    4.4627   -1.0585    0.4426 H   0  0  0  0  0  0  0  0  0  0  0  0
    0.1560   -1.9058    1.4716 H   0  0  0  0  0  0  0  0  0  0  0  0
   -2.2524   -1.6759    1.3160 H   0  0  0  0  0  0  0  0  0  0  0  0
   -6.7068    2.7526   -1.4409 H   0  0  0  0  0  0  0  0  0  0  0  0
   -9.0016    1.8929   -0.9167 H   0  0  0  0  0  0  0  0  0  0  0  0
   -9.2860   -0.2052    0.3795 H   0  0  0  0  0  0  0  0  0  0  0  0
   -7.2806   -1.4806    1.1742 H   0  0  0  0  0  0  0  0  0  0  0  0
   -1.7512    1.9967   -0.9499 H   0  0  0  0  0  0  0  0  0  0  0  0
  1  2  1  0
  2  3  1  0
  2  4  1  0
  4  5  2  0
  4  6  1  0
  6  7  1  0
  7  8  1  0
  8  9  2  0
  9 10  1  0
 10 11  2  0
 11 12  1  0
 12 13  2  0
 13 14  1  0
 14 15  1  0
 15 16  2  0
 15 17  1  0
 17 18  2  0
 18 19  1  0
 19 20  2  0
 20 21  1  0
 21 22  2  0
 22 23  1  0
 23 24  2  0
 13 25  1  0
 25 26  2  0
 26 27  1  0
 27  8  1  0
 26 10  1  0
 23 14  1  0
 22 17  1  0
  1 28  1  0
  1 29  1  0
  1 30  1  0
  3 31  1  0
  3 32  1  0
  3 33  1  0
  6 34  1  0
  6 35  1  0
 11 36  1  0
 12 37  1  0
 18 38  1  0
 19 39  1  0
 20 40  1  0
 21 41  1  0
 25 42  1  0
M  END
$$$$
