
     RDKit          3D

 48 50  0  0  0  0  0  0  0  0999 V2000
    6.7660    2.0455    1.6008 C   0  0  0  0  0  0  0  0  0  0  0  0
    6.3621    0.5957    1.3829 C   0  0  0  0  0  0  0  0  0  0  0  0
    5.6324    0.4131    0.0498 C   0  0  0  0  0  0  0  0  0  0  0  0
    5.2563   -1.0467   -0.2089 C   0  0  0  0  0  0  0  0  0  0  0  0
    4.4185   -1.5694    0.8212 O   0  0  0  0  0  0  0  0  0  0  0  0
    3.0658   -1.4223    0.7100 C   0  0  0  0  0  0  0  0  0  0  0  0
    2.3854   -0.7039   -0.2679 C   0  0  0  0  0  0  0  0  0  0  0  0
    0.9838   -0.6362   -0.2521 C   0  0  0  0  0  0  0  0  0  0  0  0
    0.2310   -1.2946    0.7250 C   0  0  0  0  0  0  0  0  0  0  0  0
   -1.1735   -1.2164    0.8125 N   0  0  0  0  0  0  0  0  0  0  0  0
   -2.0660   -0.9037   -0.1792 C   0  0  0  0  0  0  0  0  0  0  0  0
   -1.8037   -0.7023   -1.4251 N   0  0  0  0  0  0  0  0  0  0  0  0
   -2.8429   -0.4856   -2.2711 C   0  0  0  0  0  0  0  0  0  0  0  0
   -2.5580   -0.5376   -3.5953 N   0  0  0  0  0  0  0  0  0  0  0  0
   -4.0473   -0.2054   -1.9153 N   0  0  0  0  0  0  0  0  0  0  0  0
   -4.2861   -0.1374   -0.4858 C   0  0  0  0  0  0  0  0  0  0  0  0
   -4.4056    1.3338   -0.0658 C   0  0  0  0  0  0  0  0  0  0  0  0
   -5.8013    1.7582   -0.5163 C   0  0  0  0  0  0  0  0  0  0  0  0
   -6.6346    0.4794   -0.5784 C   0  0  0  0  0  0  0  0  0  0  0  0
   -5.6951   -0.6627   -0.1952 C   0  0  0  0  0  0  0  0  0  0  0  0
   -3.3261   -0.8342    0.3260 N   0  0  0  0  0  0  0  0  0  0  0  0
    0.9321   -1.9882    1.7220 C   0  0  0  0  0  0  0  0  0  0  0  0
    2.3296   -2.0571    1.7093 C   0  0  0  0  0  0  0  0  0  0  0  0
    5.8882    2.6992    1.6153 H   0  0  0  0  0  0  0  0  0  0  0  0
    7.4379    2.3891    0.8077 H   0  0  0  0  0  0  0  0  0  0  0  0
    7.2865    2.1541    2.5575 H   0  0  0  0  0  0  0  0  0  0  0  0
    7.2589   -0.0342    1.4051 H   0  0  0  0  0  0  0  0  0  0  0  0
    5.7204    0.2771    2.2123 H   0  0  0  0  0  0  0  0  0  0  0  0
    6.2688    0.7650   -0.7705 H   0  0  0  0  0  0  0  0  0  0  0  0
    4.7322    1.0377    0.0551 H   0  0  0  0  0  0  0  0  0  0  0  0
    4.8217   -1.1864   -1.2053 H   0  0  0  0  0  0  0  0  0  0  0  0
    6.1702   -1.6527   -0.2011 H   0  0  0  0  0  0  0  0  0  0  0  0
    2.9037   -0.1690   -1.0557 H   0  0  0  0  0  0  0  0  0  0  0  0
    0.4943   -0.0440   -1.0201 H   0  0  0  0  0  0  0  0  0  0  0  0
   -1.5576   -1.8442    1.5049 H   0  0  0  0  0  0  0  0  0  0  0  0
   -1.5847   -0.3431   -3.7830 H   0  0  0  0  0  0  0  0  0  0  0  0
   -3.2154   -0.0061   -4.1480 H   0  0  0  0  0  0  0  0  0  0  0  0
   -3.6302    1.9703   -0.5061 H   0  0  0  0  0  0  0  0  0  0  0  0
   -4.3341    1.4392    1.0247 H   0  0  0  0  0  0  0  0  0  0  0  0
   -6.2346    2.4940    0.1687 H   0  0  0  0  0  0  0  0  0  0  0  0
   -5.7575    2.2219   -1.5087 H   0  0  0  0  0  0  0  0  0  0  0  0
   -7.0203    0.3347   -1.5941 H   0  0  0  0  0  0  0  0  0  0  0  0
   -7.4970    0.5242    0.0945 H   0  0  0  0  0  0  0  0  0  0  0  0
   -5.9311   -1.5797   -0.7463 H   0  0  0  0  0  0  0  0  0  0  0  0
   -5.8179   -0.8838    0.8734 H   0  0  0  0  0  0  0  0  0  0  0  0
   -3.3715   -0.5843    1.3046 H   0  0  0  0  0  0  0  0  0  0  0  0
    0.3990   -2.4924    2.5238 H   0  0  0  0  0  0  0  0  0  0  0  0
    2.8475   -2.6108    2.4887 H   0  0  0  0  0  0  0  0  0  0  0  0
  1  2  1  0
  2  3  1  0
  3  4  1  0
  4  5  1  0
  5  6  1  0
  6  7  2  0
  7  8  1  0
  8  9  2  0
  9 10  1  0
 10 11  1  0
 11 12  2  0
 12 13  1  0
 13 14  1  0
 13 15  2  0
 15 16  1  0
 16 17  1  0
 17 18  1  0
 18 19  1  0
 19 20  1  0
 16 21  1  0
  9 22  1  0
 22 23  2  0
 23  6  1  0
 21 11  1  0
 20 16  1  0
  1 24  1  0
  1 25  1  0
  1 26  1  0
  2 27  1  0
  2 28  1  0
  3 29  1  0
  3 30  1  0
  4 31  1  0
  4 32  1  0
  7 33  1  0
  8 34  1  0
 10 35  1  0
 14 36  1  0
 14 37  1  0
 17 38  1  0
 17 39  1  0
 18 40  1  0
 18 41  1  0
 19 42  1  0
 19 43  1  0
 20 44  1  0
 20 45  1  0
 21 46  1  0
 22 47  1  0
 23 48  1  0
M  END
$$$$
