
     RDKit          3D

 42 45  0  0  0  0  0  0  0  0999 V2000
    5.3839   -2.0334    2.7228 C   0  0  0  0  0  0  0  0  0  0  0  0
    5.4053   -0.5202    2.6013 C   0  0  0  0  0  0  0  0  0  0  0  0
    4.6509   -0.0806    1.3833 C   0  0  0  0  0  0  0  0  0  0  0  0
    3.3645    0.1036    1.3666 N   0  0  0  0  0  0  0  0  0  0  0  0
    2.9954    0.4840    0.0854 N   0  0  0  0  0  0  0  0  0  0  0  0
    1.6861    0.7525   -0.2614 C   0  0  0  0  0  0  0  0  0  0  0  0
    0.7295    0.7308    0.6209 N   0  0  0  0  0  0  0  0  0  0  0  0
    1.4628    1.0973   -1.7055 C   0  0  0  0  0  0  0  0  0  0  0  0
    0.2597    1.2392   -2.2985 C   0  0  0  0  0  0  0  0  0  0  0  0
   -1.0307    1.0383   -1.7297 C   0  0  0  0  0  0  0  0  0  0  0  0
   -2.0828    1.9709   -1.6107 C   0  0  0  0  0  0  0  0  0  0  0  0
   -2.0851    3.4063   -1.9897 C   0  0  0  0  0  0  0  0  0  0  0  0
   -3.1912    1.4088   -1.1164 N   0  0  0  0  0  0  0  0  0  0  0  0
   -2.8344    0.1221   -0.8000 N   0  0  0  0  0  0  0  0  0  0  0  0
   -3.7644   -0.6833   -0.0707 C   0  0  0  0  0  0  0  0  0  0  0  0
   -3.3800   -1.8369    0.6229 C   0  0  0  0  0  0  0  0  0  0  0  0
   -4.3284   -2.5884    1.3263 C   0  0  0  0  0  0  0  0  0  0  0  0
   -5.6628   -2.1902    1.3555 C   0  0  0  0  0  0  0  0  0  0  0  0
   -6.0529   -1.0307    0.6923 C   0  0  0  0  0  0  0  0  0  0  0  0
   -5.1097   -0.2766   -0.0102 C   0  0  0  0  0  0  0  0  0  0  0  0
   -1.5675   -0.1476   -1.2906 C   0  0  0  0  0  0  0  0  0  0  0  0
   -0.9129   -1.7224   -1.4293 Cl  0  0  0  0  0  0  0  0  0  0  0  0
    2.6821    1.2923   -2.5827 C   0  0  0  0  0  0  0  0  0  0  0  0
    2.5636    1.7311   -3.7219 O   0  0  0  0  0  0  0  0  0  0  0  0
    3.9194    0.9568   -2.0706 N   0  0  0  0  0  0  0  0  0  0  0  0
    4.0014    0.5956   -0.8404 C   0  0  0  0  0  0  0  0  0  0  0  0
    5.5327    0.1728   -0.1132 S   0  0  0  0  0  0  0  0  0  0  0  0
    5.9131   -2.3506    3.6266 H   0  0  0  0  0  0  0  0  0  0  0  0
    5.8658   -2.5060    1.8605 H   0  0  0  0  0  0  0  0  0  0  0  0
    4.3570   -2.4101    2.7770 H   0  0  0  0  0  0  0  0  0  0  0  0
    4.9325   -0.0732    3.4829 H   0  0  0  0  0  0  0  0  0  0  0  0
    6.4380   -0.1587    2.5602 H   0  0  0  0  0  0  0  0  0  0  0  0
    1.1695    0.4731    1.5176 H   0  0  0  0  0  0  0  0  0  0  0  0
    0.2339    1.5327   -3.3486 H   0  0  0  0  0  0  0  0  0  0  0  0
   -1.2427    3.9271   -1.5233 H   0  0  0  0  0  0  0  0  0  0  0  0
   -3.0060    3.9055   -1.6707 H   0  0  0  0  0  0  0  0  0  0  0  0
   -2.0000    3.5128   -3.0758 H   0  0  0  0  0  0  0  0  0  0  0  0
   -2.3475   -2.1604    0.6865 H   0  0  0  0  0  0  0  0  0  0  0  0
   -4.0186   -3.4809    1.8647 H   0  0  0  0  0  0  0  0  0  0  0  0
   -6.3949   -2.7758    1.9051 H   0  0  0  0  0  0  0  0  0  0  0  0
   -7.0904   -0.7080    0.7211 H   0  0  0  0  0  0  0  0  0  0  0  0
   -5.4440    0.6258   -0.5199 H   0  0  0  0  0  0  0  0  0  0  0  0
  1  2  1  0
  2  3  1  0
  3  4  2  0
  4  5  1  0
  5  6  1  0
  6  7  2  3
  6  8  1  0
  8  9  2  3
  9 10  1  0
 10 11  1  0
 11 12  1  0
 11 13  2  0
 13 14  1  0
 14 15  1  0
 15 16  2  0
 16 17  1  0
 17 18  2  0
 18 19  1  0
 19 20  2  0
 14 21  1  0
 21 22  1  0
  8 23  1  0
 23 24  2  0
 23 25  1  0
 25 26  2  0
 26 27  1  0
 27  3  1  0
 26  5  1  0
 21 10  2  0
 20 15  1  0
  1 28  1  0
  1 29  1  0
  1 30  1  0
  2 31  1  0
  2 32  1  0
  7 33  1  0
  9 34  1  0
 12 35  1  0
 12 36  1  0
 12 37  1  0
 16 38  1  0
 17 39  1  0
 18 40  1  0
 19 41  1  0
 20 42  1  0
M  END
$$$$
