
     RDKit          3D

 57 58  0  0  0  0  0  0  0  0999 V2000
    7.5473    0.6232   -1.9676 C   0  0  0  0  0  0  0  0  0  0  0  0
    7.3206    0.9871   -0.5260 C   0  0  0  0  0  0  0  0  0  0  0  0
    8.4149    1.3310    0.2825 C   0  0  0  0  0  0  0  0  0  0  0  0
    8.2267    1.6705    1.6204 C   0  0  0  0  0  0  0  0  0  0  0  0
    6.9447    1.6680    2.1608 C   0  0  0  0  0  0  0  0  0  0  0  0
    5.8467    1.3272    1.3656 C   0  0  0  0  0  0  0  0  0  0  0  0
    6.0230    0.9873    0.0210 C   0  0  0  0  0  0  0  0  0  0  0  0
    5.0220    0.6343   -0.8446 O   0  0  0  0  0  0  0  0  0  0  0  0
    3.6665    0.6602   -0.3968 C   0  0  0  0  0  0  0  0  0  0  0  0
    3.2878   -0.6711    0.2345 C   0  0  0  0  0  0  0  0  0  0  0  0
    1.8423   -0.6711    0.6423 C   0  0  0  0  0  0  0  0  0  0  0  0
    1.1444    0.3248    0.7822 O   0  0  0  0  0  0  0  0  0  0  0  0
    1.4215   -1.9473    0.8697 O   0  0  0  0  0  0  0  0  0  0  0  0
    0.0353   -2.0500    1.2171 C   0  0  0  0  0  0  0  0  0  0  0  0
   -0.8874   -1.6759    0.0517 C   0  0  0  0  0  0  0  0  0  0  0  0
   -0.4856   -1.7377   -1.1161 O   0  0  0  0  0  0  0  0  0  0  0  0
   -2.2638   -1.1593    0.3666 C   0  0  0  0  0  0  0  0  0  0  0  0
   -2.8986   -0.3193   -0.4838 C   0  0  0  0  0  0  0  0  0  0  0  0
   -2.3568    0.0387   -1.7141 N   0  0  0  0  0  0  0  0  0  0  0  0
   -4.1447    0.1962   -0.1279 N   0  0  0  0  0  0  0  0  0  0  0  0
   -4.9334    0.9862   -1.0908 C   0  0  0  0  0  0  0  0  0  0  0  0
   -6.0417    0.1736   -1.7950 C   0  0  0  0  0  0  0  0  0  0  0  0
   -6.9431    1.1164   -2.5960 C   0  0  0  0  0  0  0  0  0  0  0  0
   -5.4762   -0.9065   -2.7178 C   0  0  0  0  0  0  0  0  0  0  0  0
   -4.7529   -0.0397    1.1053 C   0  0  0  0  0  0  0  0  0  0  0  0
   -5.8618    0.4162    1.3926 O   0  0  0  0  0  0  0  0  0  0  0  0
   -4.0485   -0.8345    1.9896 N   0  0  0  0  0  0  0  0  0  0  0  0
   -4.6802   -1.1422    3.2602 C   0  0  0  0  0  0  0  0  0  0  0  0
   -2.9238   -1.5381    1.6338 C   0  0  0  0  0  0  0  0  0  0  0  0
   -2.4614   -2.4550    2.3123 O   0  0  0  0  0  0  0  0  0  0  0  0
    7.0090    1.3155   -2.6226 H   0  0  0  0  0  0  0  0  0  0  0  0
    8.6084    0.6736   -2.2332 H   0  0  0  0  0  0  0  0  0  0  0  0
    7.2060   -0.3993   -2.1582 H   0  0  0  0  0  0  0  0  0  0  0  0
    9.4220    1.3362   -0.1284 H   0  0  0  0  0  0  0  0  0  0  0  0
    9.0797    1.9362    2.2393 H   0  0  0  0  0  0  0  0  0  0  0  0
    6.7965    1.9320    3.2051 H   0  0  0  0  0  0  0  0  0  0  0  0
    4.8695    1.3363    1.8351 H   0  0  0  0  0  0  0  0  0  0  0  0
    3.4563    1.5244    0.2440 H   0  0  0  0  0  0  0  0  0  0  0  0
    3.0521    0.8131   -1.2929 H   0  0  0  0  0  0  0  0  0  0  0  0
    3.4610   -1.4740   -0.4915 H   0  0  0  0  0  0  0  0  0  0  0  0
    3.9014   -0.8824    1.1155 H   0  0  0  0  0  0  0  0  0  0  0  0
   -0.1487   -3.0975    1.4742 H   0  0  0  0  0  0  0  0  0  0  0  0
   -0.1560   -1.4266    2.0972 H   0  0  0  0  0  0  0  0  0  0  0  0
   -1.4535   -0.4196   -1.8952 H   0  0  0  0  0  0  0  0  0  0  0  0
   -2.2365    1.0457   -1.7908 H   0  0  0  0  0  0  0  0  0  0  0  0
   -5.3998    1.8090   -0.5321 H   0  0  0  0  0  0  0  0  0  0  0  0
   -4.2907    1.4780   -1.8283 H   0  0  0  0  0  0  0  0  0  0  0  0
   -6.6645   -0.3230   -1.0413 H   0  0  0  0  0  0  0  0  0  0  0  0
   -7.7564    0.5628   -3.0771 H   0  0  0  0  0  0  0  0  0  0  0  0
   -6.3790    1.6374   -3.3772 H   0  0  0  0  0  0  0  0  0  0  0  0
   -7.3952    1.8705   -1.9433 H   0  0  0  0  0  0  0  0  0  0  0  0
   -4.8095   -0.4764   -3.4728 H   0  0  0  0  0  0  0  0  0  0  0  0
   -6.2836   -1.4299   -3.2419 H   0  0  0  0  0  0  0  0  0  0  0  0
   -4.9173   -1.6582   -2.1522 H   0  0  0  0  0  0  0  0  0  0  0  0
   -3.9489   -1.5019    3.9898 H   0  0  0  0  0  0  0  0  0  0  0  0
   -5.4320   -1.9207    3.0940 H   0  0  0  0  0  0  0  0  0  0  0  0
   -5.1737   -0.2541    3.6666 H   0  0  0  0  0  0  0  0  0  0  0  0
  1  2  1  0
  2  3  2  0
  3  4  1  0
  4  5  2  0
  5  6  1  0
  6  7  2  0
  7  8  1  0
  8  9  1  0
  9 10  1  0
 10 11  1  0
 11 12  2  0
 11 13  1  0
 13 14  1  0
 14 15  1  0
 15 16  2  0
 15 17  1  0
 17 18  2  0
 18 19  1  0
 18 20  1  0
 20 21  1  0
 21 22  1  0
 22 23  1  0
 22 24  1  0
 20 25  1  0
 25 26  2  0
 25 27  1  0
 27 28  1  0
 27 29  1  0
 29 30  2  0
  7  2  1  0
 29 17  1  0
  1 31  1  0
  1 32  1  0
  1 33  1  0
  3 34  1  0
  4 35  1  0
  5 36  1  0
  6 37  1  0
  9 38  1  0
  9 39  1  0
 10 40  1  0
 10 41  1  0
 14 42  1  0
 14 43  1  0
 19 44  1  0
 19 45  1  0
 21 46  1  0
 21 47  1  0
 22 48  1  0
 23 49  1  0
 23 50  1  0
 23 51  1  0
 24 52  1  0
 24 53  1  0
 24 54  1  0
 28 55  1  0
 28 56  1  0
 28 57  1  0
M  END
$$$$
