
     RDKit          3D

 66 68  0  0  0  0  0  0  0  0999 V2000
   -6.4055   -3.0208    1.6038 C   0  0  0  0  0  0  0  0  0  0  0  0
   -5.8403   -1.7053    1.0980 C   0  0  0  0  0  0  0  0  0  0  0  0
   -6.1814   -0.6886    2.0471 O   0  0  0  0  0  0  0  0  0  0  0  0
   -6.1342    0.5559    1.4708 C   0  0  0  0  0  0  0  0  0  0  0  0
   -7.3393    1.0962    1.0161 C   0  0  0  0  0  0  0  0  0  0  0  0
   -7.3634    2.3720    0.4545 C   0  0  0  0  0  0  0  0  0  0  0  0
   -6.1867    3.1138    0.3640 C   0  0  0  0  0  0  0  0  0  0  0  0
   -4.9860    2.5854    0.8443 C   0  0  0  0  0  0  0  0  0  0  0  0
   -4.9475    1.3015    1.4063 C   0  0  0  0  0  0  0  0  0  0  0  0
   -3.6749    0.7916    1.9316 C   0  0  0  0  0  0  0  0  0  0  0  0
   -2.6579    0.2432    1.2460 C   0  0  0  0  0  0  0  0  0  0  0  0
   -2.6423    0.0143   -0.1642 C   0  0  0  0  0  0  0  0  0  0  0  0
   -3.6485    0.4035   -1.0226 O   0  0  0  0  0  0  0  0  0  0  0  0
   -3.3754    0.0328   -2.3179 N   0  0  0  0  0  0  0  0  0  0  0  0
   -2.2009   -0.6006   -2.2803 C   0  0  0  0  0  0  0  0  0  0  0  0
   -1.6290   -1.1475   -3.5337 C   0  0  0  0  0  0  0  0  0  0  0  0
   -1.6996   -0.6212   -0.9610 C   0  0  0  0  0  0  0  0  0  0  0  0
   -0.2257   -1.3004   -0.4298 S   0  0  0  0  0  6  0  0  0  0  0  0
   -0.6286   -2.2665    0.5694 O   0  0  0  0  0  0  0  0  0  0  0  0
    0.4778   -1.7028   -1.6247 O   0  0  0  0  0  0  0  0  0  0  0  0
    0.6833   -0.0876    0.3438 N   0  0  0  0  0  0  0  0  0  0  0  0
    1.0498    1.1115   -0.4502 C   0  0  0  0  0  0  0  0  0  0  0  0
    2.3392    0.9113   -1.2342 C   0  0  0  0  0  0  0  0  0  0  0  0
    3.4880    0.4444   -0.3266 C   0  0  0  0  0  0  0  0  0  0  0  0
    4.7495    0.1638   -1.1445 C   0  0  0  0  0  0  0  0  0  0  0  0
    4.6688   -0.0745   -2.3517 O   0  0  0  0  0  0  0  0  0  0  0  0
    5.9746    0.1401   -0.4811 N   0  0  0  0  0  0  0  0  0  0  0  0
    7.1620   -0.2123   -1.2639 C   0  0  0  0  0  0  0  0  0  0  0  0
    7.3528   -1.7180   -1.3361 C   0  0  0  0  0  0  0  0  0  0  0  0
    6.2063    0.5830    0.8955 C   0  0  0  0  0  0  0  0  0  0  0  0
    6.5341    2.0672    0.9622 C   0  0  0  0  0  0  0  0  0  0  0  0
    3.0555   -0.8198    0.4283 C   0  0  0  0  0  0  0  0  0  0  0  0
    1.7806   -0.5638    1.2203 C   0  0  0  0  0  0  0  0  0  0  0  0
   -7.4985   -2.9718    1.6617 H   0  0  0  0  0  0  0  0  0  0  0  0
   -6.1226   -3.8454    0.9453 H   0  0  0  0  0  0  0  0  0  0  0  0
   -6.0431   -3.2314    2.6142 H   0  0  0  0  0  0  0  0  0  0  0  0
   -4.7519   -1.7909    1.0279 H   0  0  0  0  0  0  0  0  0  0  0  0
   -6.2493   -1.4915    0.1015 H   0  0  0  0  0  0  0  0  0  0  0  0
   -8.2577    0.5215    1.0988 H   0  0  0  0  0  0  0  0  0  0  0  0
   -8.2993    2.7869    0.0902 H   0  0  0  0  0  0  0  0  0  0  0  0
   -6.2035    4.1077   -0.0757 H   0  0  0  0  0  0  0  0  0  0  0  0
   -4.0794    3.1807    0.7733 H   0  0  0  0  0  0  0  0  0  0  0  0
   -3.5944    0.8676    3.0149 H   0  0  0  0  0  0  0  0  0  0  0  0
   -1.7990   -0.0926    1.8227 H   0  0  0  0  0  0  0  0  0  0  0  0
   -1.4362   -2.2198   -3.4349 H   0  0  0  0  0  0  0  0  0  0  0  0
   -0.6941   -0.6379   -3.7839 H   0  0  0  0  0  0  0  0  0  0  0  0
   -2.3142   -1.0150   -4.3776 H   0  0  0  0  0  0  0  0  0  0  0  0
    0.2372    1.3922   -1.1279 H   0  0  0  0  0  0  0  0  0  0  0  0
    1.1616    1.9518    0.2467 H   0  0  0  0  0  0  0  0  0  0  0  0
    2.1708    0.1927   -2.0432 H   0  0  0  0  0  0  0  0  0  0  0  0
    2.6164    1.8542   -1.7199 H   0  0  0  0  0  0  0  0  0  0  0  0
    3.6920    1.2568    0.3796 H   0  0  0  0  0  0  0  0  0  0  0  0
    8.0449    0.2544   -0.8155 H   0  0  0  0  0  0  0  0  0  0  0  0
    7.0672    0.1924   -2.2769 H   0  0  0  0  0  0  0  0  0  0  0  0
    6.4990   -2.2019   -1.8225 H   0  0  0  0  0  0  0  0  0  0  0  0
    7.4494   -2.1530   -0.3373 H   0  0  0  0  0  0  0  0  0  0  0  0
    8.2543   -1.9624   -1.9060 H   0  0  0  0  0  0  0  0  0  0  0  0
    7.0267   -0.0087    1.3162 H   0  0  0  0  0  0  0  0  0  0  0  0
    5.3298    0.3876    1.5152 H   0  0  0  0  0  0  0  0  0  0  0  0
    7.4359    2.3014    0.3886 H   0  0  0  0  0  0  0  0  0  0  0  0
    6.7020    2.3717    1.9998 H   0  0  0  0  0  0  0  0  0  0  0  0
    5.7172    2.6714    0.5558 H   0  0  0  0  0  0  0  0  0  0  0  0
    3.8413   -1.1616    1.1109 H   0  0  0  0  0  0  0  0  0  0  0  0
    2.9018   -1.6428   -0.2820 H   0  0  0  0  0  0  0  0  0  0  0  0
    1.9593    0.2002    1.9879 H   0  0  0  0  0  0  0  0  0  0  0  0
    1.4812   -1.4664    1.7625 H   0  0  0  0  0  0  0  0  0  0  0  0
  1  2  1  0
  2  3  1  0
  3  4  1  0
  4  5  2  0
  5  6  1  0
  6  7  2  0
  7  8  1  0
  8  9  2  0
  9 10  1  0
 10 11  2  3
 11 12  1  0
 12 13  1  0
 13 14  1  0
 14 15  2  0
 15 16  1  0
 15 17  1  0
 17 18  1  0
 18 19  2  0
 18 20  2  0
 18 21  1  0
 21 22  1  0
 22 23  1  0
 23 24  1  0
 24 25  1  0
 25 26  2  0
 25 27  1  0
 27 28  1  0
 28 29  1  0
 27 30  1  0
 30 31  1  0
 24 32  1  0
 32 33  1  0
  9  4  1  0
 17 12  2  0
 33 21  1  0
  1 34  1  0
  1 35  1  0
  1 36  1  0
  2 37  1  0
  2 38  1  0
  5 39  1  0
  6 40  1  0
  7 41  1  0
  8 42  1  0
 10 43  1  0
 11 44  1  0
 16 45  1  0
 16 46  1  0
 16 47  1  0
 22 48  1  0
 22 49  1  0
 23 50  1  0
 23 51  1  0
 24 52  1  0
 28 53  1  0
 28 54  1  0
 29 55  1  0
 29 56  1  0
 29 57  1  0
 30 58  1  0
 30 59  1  0
 31 60  1  0
 31 61  1  0
 31 62  1  0
 32 63  1  0
 32 64  1  0
 33 65  1  0
 33 66  1  0
M  END
$$$$
