
     RDKit          3D

 44 47  0  0  0  0  0  0  0  0999 V2000
    1.3206    1.5351   -1.7524 C   0  0  0  0  0  0  0  0  0  0  0  0
    1.6402    0.8272   -0.4320 C   0  0  0  0  0  0  0  0  0  0  0  0
    1.2478   -0.5861   -0.4884 N   0  0  0  0  0  0  0  0  0  0  0  0
   -0.1170   -0.8785   -0.2724 C   0  0  0  0  0  0  0  0  0  0  0  0
   -0.9735    0.1316   -0.0548 N   0  0  0  0  0  0  0  0  0  0  0  0
   -2.2651   -0.1740    0.1552 C   0  0  0  0  0  0  0  0  0  0  0  0
   -3.2044    0.9417    0.3973 C   0  0  0  0  0  0  0  0  0  0  0  0
   -4.5663    0.7113    0.6746 C   0  0  0  0  0  0  0  0  0  0  0  0
   -5.4566    1.7657    0.9041 C   0  0  0  0  0  0  0  0  0  0  0  0
   -5.0046    3.0808    0.8612 C   0  0  0  0  0  0  0  0  0  0  0  0
   -3.6654    3.3418    0.5889 C   0  0  0  0  0  0  0  0  0  0  0  0
   -2.7785    2.2844    0.3602 C   0  0  0  0  0  0  0  0  0  0  0  0
   -2.7585   -1.4233    0.1663 N   0  0  0  0  0  0  0  0  0  0  0  0
   -1.9068   -2.4236   -0.0694 C   0  0  0  0  0  0  0  0  0  0  0  0
   -2.3966   -3.7245   -0.0794 C   0  0  0  0  0  0  0  0  0  0  0  0
   -1.5716   -4.8246   -0.3292 C   0  0  0  0  0  0  0  0  0  0  0  0
   -0.2213   -4.6285   -0.5811 C   0  0  0  0  0  0  0  0  0  0  0  0
    0.2927   -3.3339   -0.5740 C   0  0  0  0  0  0  0  0  0  0  0  0
   -0.5435   -2.2182   -0.3096 C   0  0  0  0  0  0  0  0  0  0  0  0
    3.1366    0.8921   -0.1396 C   0  0  0  0  0  0  0  0  0  0  0  0
    4.0760    0.2828   -0.9891 C   0  0  0  0  0  0  0  0  0  0  0  0
    5.4410    0.3445   -0.7040 C   0  0  0  0  0  0  0  0  0  0  0  0
    5.8858    1.0128    0.4344 C   0  0  0  0  0  0  0  0  0  0  0  0
    4.9670    1.6179    1.2894 C   0  0  0  0  0  0  0  0  0  0  0  0
    3.6009    1.5575    1.0061 C   0  0  0  0  0  0  0  0  0  0  0  0
    1.7717    1.0244   -2.6108 H   0  0  0  0  0  0  0  0  0  0  0  0
    1.6924    2.5659   -1.7428 H   0  0  0  0  0  0  0  0  0  0  0  0
    0.2420    1.5749   -1.9352 H   0  0  0  0  0  0  0  0  0  0  0  0
    1.1202    1.3420    0.3865 H   0  0  0  0  0  0  0  0  0  0  0  0
    1.7886   -1.1291    0.1813 H   0  0  0  0  0  0  0  0  0  0  0  0
   -4.9475   -0.3083    0.7137 H   0  0  0  0  0  0  0  0  0  0  0  0
   -6.5017    1.5547    1.1153 H   0  0  0  0  0  0  0  0  0  0  0  0
   -5.6953    3.9009    1.0385 H   0  0  0  0  0  0  0  0  0  0  0  0
   -3.3064    4.3670    0.5522 H   0  0  0  0  0  0  0  0  0  0  0  0
   -1.7366    2.5179    0.1470 H   0  0  0  0  0  0  0  0  0  0  0  0
   -3.4556   -3.8877    0.1093 H   0  0  0  0  0  0  0  0  0  0  0  0
   -1.9906   -5.8276   -0.3323 H   0  0  0  0  0  0  0  0  0  0  0  0
    0.4284   -5.4751   -0.7872 H   0  0  0  0  0  0  0  0  0  0  0  0
    1.3489   -3.1883   -0.7899 H   0  0  0  0  0  0  0  0  0  0  0  0
    3.7426   -0.2489   -1.8783 H   0  0  0  0  0  0  0  0  0  0  0  0
    6.1563   -0.1297   -1.3709 H   0  0  0  0  0  0  0  0  0  0  0  0
    6.9487    1.0614    0.6559 H   0  0  0  0  0  0  0  0  0  0  0  0
    5.3142    2.1382    2.1785 H   0  0  0  0  0  0  0  0  0  0  0  0
    2.9007    2.0354    1.6881 H   0  0  0  0  0  0  0  0  0  0  0  0
  1  2  1  0
  2  3  1  0
  3  4  1  0
  4  5  2  0
  5  6  1  0
  6  7  1  0
  7  8  2  0
  8  9  1  0
  9 10  2  0
 10 11  1  0
 11 12  2  0
  6 13  2  0
 13 14  1  0
 14 15  2  0
 15 16  1  0
 16 17  2  0
 17 18  1  0
 18 19  2  0
  2 20  1  0
 20 21  2  0
 21 22  1  0
 22 23  2  0
 23 24  1  0
 24 25  2  0
 19  4  1  0
 25 20  1  0
 12  7  1  0
 19 14  1  0
  1 26  1  0
  1 27  1  0
  1 28  1  0
  2 29  1  0
  3 30  1  0
  8 31  1  0
  9 32  1  0
 10 33  1  0
 11 34  1  0
 12 35  1  0
 15 36  1  0
 16 37  1  0
 17 38  1  0
 18 39  1  0
 21 40  1  0
 22 41  1  0
 23 42  1  0
 24 43  1  0
 25 44  1  0
M  END
$$$$
