
     RDKit          3D

 30 31  0  0  0  0  0  0  0  0999 V2000
    1.6179   -0.1977   -2.1826 C   0  0  0  0  0  0  0  0  0  0  0  0
    2.0447   -0.2309   -0.7278 C   0  0  0  0  0  0  0  0  0  0  0  0
    1.2148   -0.0653    0.2628 N   0  0  0  0  0  0  0  0  0  0  0  0
   -0.1136    0.1030    0.0164 N   0  0  0  0  0  0  0  0  0  0  0  0
   -0.9921    0.3235    1.0622 C   0  0  0  0  0  0  0  0  0  0  0  0
   -0.6581    0.4380    2.2393 O   0  0  0  0  0  0  0  0  0  0  0  0
   -2.4424    0.4289    0.6978 C   0  0  0  0  0  0  0  0  0  0  0  0
   -3.3438    0.6887    1.7448 C   0  0  0  0  0  0  0  0  0  0  0  0
   -4.7088    0.8009    1.4897 C   0  0  0  0  0  0  0  0  0  0  0  0
   -5.7997    1.1198    2.7808 Cl  0  0  0  0  0  0  0  0  0  0  0  0
   -5.1996    0.6570    0.1945 C   0  0  0  0  0  0  0  0  0  0  0  0
   -4.3195    0.3980   -0.8569 C   0  0  0  0  0  0  0  0  0  0  0  0
   -2.9477    0.2842   -0.6064 C   0  0  0  0  0  0  0  0  0  0  0  0
   -2.1105    0.0270   -1.6629 O   0  0  0  0  0  0  0  0  0  0  0  0
    3.4388   -0.4838   -0.3698 C   0  0  0  0  0  0  0  0  0  0  0  0
    4.0087   -0.3735    0.8912 C   0  0  0  0  0  0  0  0  0  0  0  0
    5.3954   -0.7073    0.9078 C   0  0  0  0  0  0  0  0  0  0  0  0
    5.8254   -1.0698   -0.3411 C   0  0  0  0  0  0  0  0  0  0  0  0
    7.6228   -1.5898   -0.7287 Br  0  0  0  0  0  0  0  0  0  0  0  0
    4.6045   -1.0179   -1.5105 S   0  0  0  0  0  0  0  0  0  0  0  0
    2.4498   -0.0031   -2.8615 H   0  0  0  0  0  0  0  0  0  0  0  0
    1.1597   -1.1564   -2.4423 H   0  0  0  0  0  0  0  0  0  0  0  0
    0.8919    0.6035   -2.3485 H   0  0  0  0  0  0  0  0  0  0  0  0
   -0.4938   -0.0156   -0.9190 H   0  0  0  0  0  0  0  0  0  0  0  0
   -2.9765    0.8037    2.7635 H   0  0  0  0  0  0  0  0  0  0  0  0
   -6.2657    0.7452   -0.0008 H   0  0  0  0  0  0  0  0  0  0  0  0
   -4.7237    0.2889   -1.8596 H   0  0  0  0  0  0  0  0  0  0  0  0
   -2.6460   -0.0533   -2.4740 H   0  0  0  0  0  0  0  0  0  0  0  0
    3.4442   -0.0638    1.7654 H   0  0  0  0  0  0  0  0  0  0  0  0
    6.0228   -0.6821    1.7900 H   0  0  0  0  0  0  0  0  0  0  0  0
  1  2  1  0
  2  3  2  3
  3  4  1  0
  4  5  1  0
  5  6  2  0
  5  7  1  0
  7  8  2  0
  8  9  1  0
  9 10  1  0
  9 11  2  0
 11 12  1  0
 12 13  2  0
 13 14  1  0
  2 15  1  0
 15 16  2  0
 16 17  1  0
 17 18  2  0
 18 19  1  0
 18 20  1  0
 13  7  1  0
 20 15  1  0
  1 21  1  0
  1 22  1  0
  1 23  1  0
  4 24  1  0
  8 25  1  0
 11 26  1  0
 12 27  1  0
 14 28  1  0
 16 29  1  0
 17 30  1  0
M  END
$$$$
