
     RDKit          3D

 39 40  0  0  0  0  0  0  0  0999 V2000
    2.3950   -2.6504    3.2564 C   0  0  0  0  0  0  0  0  0  0  0  0
    0.9929   -2.0985    3.0267 C   0  0  0  0  0  0  0  0  0  0  0  0
    0.8841   -1.1957    1.7854 C   0  0  0  0  0  0  0  0  0  0  0  0
    1.7593    0.3942    2.0770 S   0  0  0  0  0  0  0  0  0  0  0  0
    2.0940    0.8928    0.4603 C   0  0  0  0  0  0  0  0  0  0  0  0
    1.9594    0.1691   -0.6272 N   0  0  0  0  0  0  0  0  0  0  0  0
    2.3316    0.9501   -1.6976 N   0  0  0  0  0  0  0  0  0  0  0  0
    2.6799    2.1263   -1.2277 C   0  0  0  0  0  0  0  0  0  0  0  0
    2.5388    2.1383    0.1279 N   0  0  0  0  0  0  0  0  0  0  0  0
    2.8018    3.2540    0.9960 C   0  0  0  0  0  0  0  0  0  0  0  0
   -0.5911   -0.8879    1.4772 C   0  0  0  0  0  0  0  0  0  0  0  0
   -1.4438   -0.8863    2.3634 O   0  0  0  0  0  0  0  0  0  0  0  0
   -0.8221   -0.6213    0.1405 N   0  0  0  0  0  0  0  0  0  0  0  0
   -2.0511   -0.3473   -0.5030 C   0  0  0  0  0  0  0  0  0  0  0  0
   -3.2814   -0.3107    0.1552 C   0  0  0  0  0  0  0  0  0  0  0  0
   -4.4523   -0.0369   -0.5551 C   0  0  0  0  0  0  0  0  0  0  0  0
   -4.4007    0.2016   -1.9258 C   0  0  0  0  0  0  0  0  0  0  0  0
   -3.1776    0.1648   -2.5970 C   0  0  0  0  0  0  0  0  0  0  0  0
   -2.0017   -0.1096   -1.8937 C   0  0  0  0  0  0  0  0  0  0  0  0
   -0.7495   -0.1798   -2.4534 O   0  0  0  0  0  0  0  0  0  0  0  0
   -0.6344    0.0646   -3.8469 C   0  0  0  0  0  0  0  0  0  0  0  0
    3.1046   -1.8598    3.5164 H   0  0  0  0  0  0  0  0  0  0  0  0
    2.7641   -3.1663    2.3638 H   0  0  0  0  0  0  0  0  0  0  0  0
    2.3838   -3.3711    4.0808 H   0  0  0  0  0  0  0  0  0  0  0  0
    0.3142   -2.9526    2.9002 H   0  0  0  0  0  0  0  0  0  0  0  0
    0.6528   -1.5753    3.9300 H   0  0  0  0  0  0  0  0  0  0  0  0
    1.3261   -1.7304    0.9364 H   0  0  0  0  0  0  0  0  0  0  0  0
    3.0227    2.9694   -1.8108 H   0  0  0  0  0  0  0  0  0  0  0  0
    3.1097    4.1163    0.3990 H   0  0  0  0  0  0  0  0  0  0  0  0
    3.6053    2.9811    1.6843 H   0  0  0  0  0  0  0  0  0  0  0  0
    1.8875    3.4996    1.5420 H   0  0  0  0  0  0  0  0  0  0  0  0
   -0.0159   -0.5750   -0.4890 H   0  0  0  0  0  0  0  0  0  0  0  0
   -3.3631   -0.4929    1.2214 H   0  0  0  0  0  0  0  0  0  0  0  0
   -5.4053   -0.0121   -0.0319 H   0  0  0  0  0  0  0  0  0  0  0  0
   -5.3152    0.4120   -2.4744 H   0  0  0  0  0  0  0  0  0  0  0  0
   -3.1764    0.3508   -3.6653 H   0  0  0  0  0  0  0  0  0  0  0  0
    0.4234   -0.0137   -4.1156 H   0  0  0  0  0  0  0  0  0  0  0  0
   -0.9675    1.0757   -4.1013 H   0  0  0  0  0  0  0  0  0  0  0  0
   -1.1817   -0.6872   -4.4246 H   0  0  0  0  0  0  0  0  0  0  0  0
  1  2  1  0
  2  3  1  0
  3  4  1  0
  4  5  1  0
  5  6  2  0
  6  7  1  0
  7  8  2  0
  8  9  1  0
  9 10  1  0
  3 11  1  0
 11 12  2  0
 11 13  1  0
 13 14  1  0
 14 15  2  0
 15 16  1  0
 16 17  2  0
 17 18  1  0
 18 19  2  0
 19 20  1  0
 20 21  1  0
  9  5  1  0
 19 14  1  0
  1 22  1  0
  1 23  1  0
  1 24  1  0
  2 25  1  0
  2 26  1  0
  3 27  1  0
  8 28  1  0
 10 29  1  0
 10 30  1  0
 10 31  1  0
 13 32  1  0
 15 33  1  0
 16 34  1  0
 17 35  1  0
 18 36  1  0
 21 37  1  0
 21 38  1  0
 21 39  1  0
M  END
$$$$
