
     RDKit          3D

 44 46  0  0  0  0  0  0  0  0999 V2000
   -2.9587    0.8897   -1.3516 O   0  0  0  0  0  0  0  0  0  0  0  0
   -3.5074    0.2129   -0.4843 C   0  0  0  0  0  0  0  0  0  0  0  0
   -2.8812   -0.8022    0.2312 N   0  0  0  0  0  0  0  0  0  0  0  0
   -1.6334   -1.2949   -0.0546 N   0  0  0  0  0  0  0  0  0  0  0  0
   -0.7057   -0.4242   -0.3249 C   0  0  0  0  0  0  0  0  0  0  0  0
    0.6657   -0.8251   -0.7210 C   0  0  0  0  0  0  0  0  0  0  0  0
    0.9549   -2.0977   -1.0249 C   0  0  0  0  0  0  0  0  0  0  0  0
    0.0755   -3.1493   -0.9916 O   0  0  0  0  0  0  0  0  0  0  0  0
    2.1991   -2.4642   -1.4144 N   0  0  0  0  0  0  0  0  0  0  0  0
    3.2605   -1.6141   -1.5318 C   0  0  0  0  0  0  0  0  0  0  0  0
    4.3490   -2.0437   -1.9084 O   0  0  0  0  0  0  0  0  0  0  0  0
    3.0044   -0.2909   -1.2137 N   0  0  0  0  0  0  0  0  0  0  0  0
    4.1063    0.6566   -1.2846 C   0  0  0  0  0  0  0  0  0  0  0  0
    4.8346    0.7792    0.0372 C   0  0  0  0  0  0  0  0  0  0  0  0
    5.8941   -0.0849    0.3502 C   0  0  0  0  0  0  0  0  0  0  0  0
    6.5523    0.0156    1.5769 C   0  0  0  0  0  0  0  0  0  0  0  0
    6.1563    0.9765    2.5050 C   0  0  0  0  0  0  0  0  0  0  0  0
    5.1002    1.8359    2.2091 C   0  0  0  0  0  0  0  0  0  0  0  0
    4.4406    1.7370    0.9829 C   0  0  0  0  0  0  0  0  0  0  0  0
    1.7556    0.1770   -0.8296 C   0  0  0  0  0  0  0  0  0  0  0  0
    1.5172    1.3585   -0.5803 O   0  0  0  0  0  0  0  0  0  0  0  0
   -4.9490    0.4638   -0.1576 C   0  0  0  0  0  0  0  0  0  0  0  0
   -5.5479    1.5985   -0.7309 C   0  0  0  0  0  0  0  0  0  0  0  0
   -6.8858    1.9084   -0.4770 C   0  0  0  0  0  0  0  0  0  0  0  0
   -7.6442    1.0865    0.3522 C   0  0  0  0  0  0  0  0  0  0  0  0
   -7.0692   -0.0470    0.9270 C   0  0  0  0  0  0  0  0  0  0  0  0
   -5.7292   -0.3576    0.6720 C   0  0  0  0  0  0  0  0  0  0  0  0
   -5.1975   -1.4867    1.2411 O   0  0  0  0  0  0  0  0  0  0  0  0
   -3.4977   -1.4463    0.7298 H   0  0  0  0  0  0  0  0  0  0  0  0
   -0.8711    0.6649   -0.2493 H   0  0  0  0  0  0  0  0  0  0  0  0
   -0.7909   -2.8017   -0.6813 H   0  0  0  0  0  0  0  0  0  0  0  0
    2.3632   -3.4375   -1.6389 H   0  0  0  0  0  0  0  0  0  0  0  0
    4.8157    0.3522   -2.0642 H   0  0  0  0  0  0  0  0  0  0  0  0
    3.7322    1.6421   -1.5889 H   0  0  0  0  0  0  0  0  0  0  0  0
    6.2113   -0.8461   -0.3611 H   0  0  0  0  0  0  0  0  0  0  0  0
    7.3727   -0.6589    1.8080 H   0  0  0  0  0  0  0  0  0  0  0  0
    6.6688    1.0535    3.4602 H   0  0  0  0  0  0  0  0  0  0  0  0
    4.7869    2.5828    2.9339 H   0  0  0  0  0  0  0  0  0  0  0  0
    3.6123    2.4113    0.7704 H   0  0  0  0  0  0  0  0  0  0  0  0
   -4.9696    2.2528   -1.3821 H   0  0  0  0  0  0  0  0  0  0  0  0
   -7.3321    2.7916   -0.9284 H   0  0  0  0  0  0  0  0  0  0  0  0
   -8.6861    1.3290    0.5488 H   0  0  0  0  0  0  0  0  0  0  0  0
   -7.6827   -0.6745    1.5674 H   0  0  0  0  0  0  0  0  0  0  0  0
   -5.8901   -1.9289    1.7656 H   0  0  0  0  0  0  0  0  0  0  0  0
  1  2  2  0
  2  3  1  0
  3  4  1  0
  4  5  2  3
  5  6  1  0
  6  7  2  0
  7  8  1  0
  7  9  1  0
  9 10  1  0
 10 11  2  0
 10 12  1  0
 12 13  1  0
 13 14  1  0
 14 15  2  0
 15 16  1  0
 16 17  2  0
 17 18  1  0
 18 19  2  0
 12 20  1  0
 20 21  2  0
  2 22  1  0
 22 23  2  0
 23 24  1  0
 24 25  2  0
 25 26  1  0
 26 27  2  0
 27 28  1  0
 20  6  1  0
 27 22  1  0
 19 14  1  0
  3 29  1  0
  5 30  1  0
  8 31  1  0
  9 32  1  0
 13 33  1  0
 13 34  1  0
 15 35  1  0
 16 36  1  0
 17 37  1  0
 18 38  1  0
 19 39  1  0
 23 40  1  0
 24 41  1  0
 25 42  1  0
 26 43  1  0
 28 44  1  0
M  END
$$$$
