
     RDKit          3D

 44 46  0  0  0  0  0  0  0  0999 V2000
    8.0273    1.3790   -0.4562 C   0  0  0  0  0  0  0  0  0  0  0  0
    6.8473    0.9955   -1.1521 O   0  0  0  0  0  0  0  0  0  0  0  0
    5.8125    0.5133   -0.3982 C   0  0  0  0  0  0  0  0  0  0  0  0
    4.6776    0.1572   -1.1302 C   0  0  0  0  0  0  0  0  0  0  0  0
    3.5404   -0.3457   -0.4946 C   0  0  0  0  0  0  0  0  0  0  0  0
    3.5341   -0.5135    0.8908 C   0  0  0  0  0  0  0  0  0  0  0  0
    2.4276   -0.9461    1.5692 O   0  0  0  0  0  0  0  0  0  0  0  0
    1.7787   -2.1051    1.0468 C   0  0  0  0  0  0  0  0  0  0  0  0
    0.3603   -1.7506    0.8162 C   0  0  0  0  0  0  0  0  0  0  0  0
   -0.2847   -0.7100    0.1959 C   0  0  0  0  0  0  0  0  0  0  0  0
   -1.6719   -0.9959    0.3350 C   0  0  0  0  0  0  0  0  0  0  0  0
   -2.7718   -0.1354   -0.1404 C   0  0  0  0  0  0  0  0  0  0  0  0
   -2.5055    1.0006   -0.5377 O   0  0  0  0  0  0  0  0  0  0  0  0
   -4.0990   -0.5941   -0.1241 N   0  0  0  0  0  0  0  0  0  0  0  0
   -4.4604   -2.0065   -0.0553 C   0  0  0  0  0  0  0  0  0  0  0  0
   -5.2081    0.3441   -0.3483 C   0  0  0  0  0  0  0  0  0  0  0  0
   -5.1684    1.6332    0.4720 C   0  0  0  0  0  0  0  0  0  0  0  0
   -5.1495    2.7361   -0.5668 C   0  0  0  0  0  0  0  0  0  0  0  0
   -5.7852    2.1857   -1.7245 O   0  0  0  0  0  0  0  0  0  0  0  0
   -5.3579    0.8183   -1.7946 C   0  0  0  0  0  0  0  0  0  0  0  0
   -1.8350   -2.1427    1.0187 N   0  0  0  0  0  0  0  0  0  0  0  0
   -0.5683   -2.6147    1.2998 O   0  0  0  0  0  0  0  0  0  0  0  0
    4.6642   -0.1357    1.6274 C   0  0  0  0  0  0  0  0  0  0  0  0
    4.7019   -0.2934    3.3453 Cl  0  0  0  0  0  0  0  0  0  0  0  0
    5.8029    0.3673    0.9866 C   0  0  0  0  0  0  0  0  0  0  0  0
    8.4817    0.5191    0.0517 H   0  0  0  0  0  0  0  0  0  0  0  0
    8.7479    1.7460   -1.1962 H   0  0  0  0  0  0  0  0  0  0  0  0
    7.8254    2.1933    0.2490 H   0  0  0  0  0  0  0  0  0  0  0  0
    4.6751    0.2876   -2.2088 H   0  0  0  0  0  0  0  0  0  0  0  0
    2.6678   -0.5745   -1.0978 H   0  0  0  0  0  0  0  0  0  0  0  0
    2.2317   -2.4997    0.1307 H   0  0  0  0  0  0  0  0  0  0  0  0
    1.8545   -2.8900    1.8077 H   0  0  0  0  0  0  0  0  0  0  0  0
    0.1603    0.1516   -0.2803 H   0  0  0  0  0  0  0  0  0  0  0  0
   -5.3667   -2.1841   -0.6383 H   0  0  0  0  0  0  0  0  0  0  0  0
   -4.6515   -2.2731    0.9870 H   0  0  0  0  0  0  0  0  0  0  0  0
   -3.6813   -2.6381   -0.4850 H   0  0  0  0  0  0  0  0  0  0  0  0
   -6.1298   -0.1783   -0.0509 H   0  0  0  0  0  0  0  0  0  0  0  0
   -6.0983    1.7131    1.0528 H   0  0  0  0  0  0  0  0  0  0  0  0
   -4.3472    1.7129    1.1850 H   0  0  0  0  0  0  0  0  0  0  0  0
   -5.6874    3.6306   -0.2409 H   0  0  0  0  0  0  0  0  0  0  0  0
   -4.1310    3.0250   -0.8376 H   0  0  0  0  0  0  0  0  0  0  0  0
   -6.1027    0.2339   -2.3395 H   0  0  0  0  0  0  0  0  0  0  0  0
   -4.4177    0.7768   -2.3594 H   0  0  0  0  0  0  0  0  0  0  0  0
    6.6601    0.6418    1.5901 H   0  0  0  0  0  0  0  0  0  0  0  0
  1  2  1  0
  2  3  1  0
  3  4  2  0
  4  5  1  0
  5  6  2  0
  6  7  1  0
  7  8  1  0
  8  9  1  0
  9 10  2  0
 10 11  1  0
 11 12  1  0
 12 13  2  0
 12 14  1  0
 14 15  1  0
 14 16  1  0
 16 17  1  0
 17 18  1  0
 18 19  1  0
 19 20  1  0
 11 21  2  0
 21 22  1  0
  6 23  1  0
 23 24  1  0
 23 25  2  0
 25  3  1  0
 22  9  1  0
 20 16  1  0
  1 26  1  0
  1 27  1  0
  1 28  1  0
  4 29  1  0
  5 30  1  0
  8 31  1  0
  8 32  1  0
 10 33  1  0
 15 34  1  0
 15 35  1  0
 15 36  1  0
 16 37  1  0
 17 38  1  0
 17 39  1  0
 18 40  1  0
 18 41  1  0
 20 42  1  0
 20 43  1  0
 25 44  1  0
M  END
$$$$
