
     RDKit          3D

 75 77  0  0  0  0  0  0  0  0999 V2000
   -0.0125    5.4562   -4.8107 C   0  0  0  0  0  0  0  0  0  0  0  0
   -0.6571    5.1948   -3.4611 C   0  0  0  0  0  0  0  0  0  0  0  0
   -0.4637    3.8188   -3.1395 O   0  0  0  0  0  0  0  0  0  0  0  0
   -0.9298    3.3911   -1.9259 C   0  0  0  0  0  0  0  0  0  0  0  0
   -1.6489    4.1588   -1.0086 C   0  0  0  0  0  0  0  0  0  0  0  0
   -2.0785    3.5933    0.1968 C   0  0  0  0  0  0  0  0  0  0  0  0
   -1.7945    2.2593    0.4870 C   0  0  0  0  0  0  0  0  0  0  0  0
   -1.0654    1.4895   -0.4213 C   0  0  0  0  0  0  0  0  0  0  0  0
   -0.7964    0.1282   -0.1327 N   0  0  0  0  0  0  0  0  0  0  0  0
    0.4850   -0.3618    0.1081 C   0  0  0  0  0  0  0  0  0  0  0  0
    0.7108   -1.5613    0.2927 O   0  0  0  0  0  0  0  0  0  0  0  0
    1.6262    0.6453    0.1697 C   0  0  0  0  0  0  0  0  0  0  0  0
    2.9103   -0.0135    0.6707 C   0  0  0  0  0  0  0  0  0  0  0  0
    4.0854    0.9425    0.6655 C   0  0  0  0  0  0  0  0  0  0  0  0
    4.0190    2.0688    0.1856 O   0  0  0  0  0  0  0  0  0  0  0  0
    5.2021    0.3721    1.2360 N   0  0  0  0  0  0  0  0  0  0  0  0
    6.4377    0.9709    1.3361 C   0  0  0  0  0  0  0  0  0  0  0  0
    6.8708    2.2218    0.8426 C   0  0  0  0  0  0  0  0  0  0  0  0
    8.1864    2.3047    1.2239 C   0  0  0  0  0  0  0  0  0  0  0  0
    9.2445    3.3147    1.0590 C   0  0  0  0  0  0  0  0  0  0  0  0
    8.5247    1.1789    1.9084 O   0  0  0  0  0  0  0  0  0  0  0  0
    7.4322    0.3319    1.9629 N   0  0  0  0  0  0  0  0  0  0  0  0
   -1.9521   -0.7987   -0.1687 C   0  0  0  0  0  0  0  0  0  0  0  0
   -1.7428   -1.9366   -1.2176 C   0  0  0  0  0  0  0  0  0  0  0  0
   -1.0536   -1.7649   -2.2264 O   0  0  0  0  0  0  0  0  0  0  0  0
   -2.4649   -3.1011   -1.0075 N   0  0  0  0  0  0  0  0  0  0  0  0
   -2.3042   -4.3322   -1.7961 C   0  0  0  0  0  0  0  0  0  0  0  0
   -3.2435   -5.3979   -1.2014 C   0  0  0  0  0  0  0  0  0  0  0  0
   -0.8609   -4.8507   -1.7022 C   0  0  0  0  0  0  0  0  0  0  0  0
   -2.6985   -4.1143   -3.2644 C   0  0  0  0  0  0  0  0  0  0  0  0
   -2.4470   -1.2136    1.2195 C   0  0  0  0  0  0  0  0  0  0  0  0
   -3.6401   -0.6596    1.7213 C   0  0  0  0  0  0  0  0  0  0  0  0
   -4.1293   -1.0080    2.9858 C   0  0  0  0  0  0  0  0  0  0  0  0
   -3.4374   -1.9224    3.7748 C   0  0  0  0  0  0  0  0  0  0  0  0
   -3.7963   -2.3488    5.0236 O   0  0  0  0  0  0  0  0  0  0  0  0
   -5.0042   -1.8209    5.5598 C   0  0  0  0  0  0  0  0  0  0  0  0
   -2.2593   -2.4834    3.2845 C   0  0  0  0  0  0  0  0  0  0  0  0
   -1.7667   -2.1355    2.0231 C   0  0  0  0  0  0  0  0  0  0  0  0
   -0.6419    2.0549   -1.6279 C   0  0  0  0  0  0  0  0  0  0  0  0
   -0.1557    6.4970   -5.1149 H   0  0  0  0  0  0  0  0  0  0  0  0
   -0.4412    4.8017   -5.5765 H   0  0  0  0  0  0  0  0  0  0  0  0
    1.0619    5.2450   -4.7717 H   0  0  0  0  0  0  0  0  0  0  0  0
   -1.7295    5.4229   -3.5241 H   0  0  0  0  0  0  0  0  0  0  0  0
   -0.1793    5.8335   -2.7078 H   0  0  0  0  0  0  0  0  0  0  0  0
   -1.8911    5.1992   -1.1973 H   0  0  0  0  0  0  0  0  0  0  0  0
   -2.6331    4.1976    0.9107 H   0  0  0  0  0  0  0  0  0  0  0  0
   -2.1154    1.8420    1.4383 H   0  0  0  0  0  0  0  0  0  0  0  0
    1.7936    1.0477   -0.8354 H   0  0  0  0  0  0  0  0  0  0  0  0
    1.3567    1.4672    0.8427 H   0  0  0  0  0  0  0  0  0  0  0  0
    2.7619   -0.3917    1.6909 H   0  0  0  0  0  0  0  0  0  0  0  0
    3.1731   -0.8644    0.0274 H   0  0  0  0  0  0  0  0  0  0  0  0
    5.1591   -0.5542    1.6421 H   0  0  0  0  0  0  0  0  0  0  0  0
    6.3095    2.9585    0.2879 H   0  0  0  0  0  0  0  0  0  0  0  0
    9.5343    3.7255    2.0315 H   0  0  0  0  0  0  0  0  0  0  0  0
    8.9024    4.1419    0.4283 H   0  0  0  0  0  0  0  0  0  0  0  0
   10.1305    2.8724    0.5920 H   0  0  0  0  0  0  0  0  0  0  0  0
   -2.7830   -0.2408   -0.6330 H   0  0  0  0  0  0  0  0  0  0  0  0
   -2.9124   -3.2060   -0.1047 H   0  0  0  0  0  0  0  0  0  0  0  0
   -3.1682   -6.3459   -1.7448 H   0  0  0  0  0  0  0  0  0  0  0  0
   -4.2887   -5.0680   -1.2373 H   0  0  0  0  0  0  0  0  0  0  0  0
   -3.0010   -5.5955   -0.1499 H   0  0  0  0  0  0  0  0  0  0  0  0
   -0.5529   -4.9670   -0.6570 H   0  0  0  0  0  0  0  0  0  0  0  0
   -0.7552   -5.8209   -2.1989 H   0  0  0  0  0  0  0  0  0  0  0  0
   -0.1510   -4.1645   -2.1731 H   0  0  0  0  0  0  0  0  0  0  0  0
   -2.0212   -3.4250   -3.7786 H   0  0  0  0  0  0  0  0  0  0  0  0
   -2.6793   -5.0586   -3.8201 H   0  0  0  0  0  0  0  0  0  0  0  0
   -3.7089   -3.6967   -3.3411 H   0  0  0  0  0  0  0  0  0  0  0  0
   -4.2035    0.0598    1.1267 H   0  0  0  0  0  0  0  0  0  0  0  0
   -5.0451   -0.5392    3.3251 H   0  0  0  0  0  0  0  0  0  0  0  0
   -4.9345   -0.7361    5.6885 H   0  0  0  0  0  0  0  0  0  0  0  0
   -5.8644   -2.0923    4.9385 H   0  0  0  0  0  0  0  0  0  0  0  0
   -5.1534   -2.2640    6.5492 H   0  0  0  0  0  0  0  0  0  0  0  0
   -1.7110   -3.1970    3.8952 H   0  0  0  0  0  0  0  0  0  0  0  0
   -0.8479   -2.6085    1.6824 H   0  0  0  0  0  0  0  0  0  0  0  0
   -0.1017    1.4533   -2.3565 H   0  0  0  0  0  0  0  0  0  0  0  0
  1  2  1  0
  2  3  1  0
  3  4  1  0
  4  5  2  0
  5  6  1  0
  6  7  2  0
  7  8  1  0
  8  9  1  0
  9 10  1  0
 10 11  2  0
 10 12  1  0
 12 13  1  0
 13 14  1  0
 14 15  2  0
 14 16  1  0
 16 17  1  0
 17 18  1  0
 18 19  2  0
 19 20  1  0
 19 21  1  0
 21 22  1  0
  9 23  1  0
 23 24  1  0
 24 25  2  0
 24 26  1  0
 26 27  1  0
 27 28  1  0
 27 29  1  0
 27 30  1  0
 23 31  1  0
 31 32  2  0
 32 33  1  0
 33 34  2  0
 34 35  1  0
 35 36  1  0
 34 37  1  0
 37 38  2  0
  8 39  2  0
 39  4  1  0
 22 17  2  0
 38 31  1  0
  1 40  1  0
  1 41  1  0
  1 42  1  0
  2 43  1  0
  2 44  1  0
  5 45  1  0
  6 46  1  0
  7 47  1  0
 12 48  1  0
 12 49  1  0
 13 50  1  0
 13 51  1  0
 16 52  1  0
 18 53  1  0
 20 54  1  0
 20 55  1  0
 20 56  1  0
 23 57  1  0
 26 58  1  0
 28 59  1  0
 28 60  1  0
 28 61  1  0
 29 62  1  0
 29 63  1  0
 29 64  1  0
 30 65  1  0
 30 66  1  0
 30 67  1  0
 32 68  1  0
 33 69  1  0
 36 70  1  0
 36 71  1  0
 36 72  1  0
 37 73  1  0
 38 74  1  0
 39 75  1  0
M  END
$$$$
