
     RDKit          3D

 60 64  0  0  0  0  0  0  0  0999 V2000
   -5.6856   -1.9958   -0.7839 C   0  0  0  0  0  0  0  0  0  0  0  0
   -4.5566   -2.9355   -0.3704 C   0  0  0  0  0  0  0  0  0  0  0  0
   -3.1677   -2.2793   -0.3307 C   0  0  0  0  0  0  0  0  0  0  0  0
   -2.8425   -1.7316   -1.6426 N   0  0  0  0  0  0  0  0  0  0  0  0
   -1.6125   -1.0721   -1.6655 C   0  0  0  0  0  0  0  0  0  0  0  0
   -0.9660   -1.1383   -2.8362 N   0  0  0  0  0  0  0  0  0  0  0  0
    0.1747   -0.4544   -2.9026 C   0  0  0  0  0  0  0  0  0  0  0  0
    0.7496    0.2175   -1.8995 N   0  0  0  0  0  0  0  0  0  0  0  0
    0.1187    0.2285   -0.7058 C   0  0  0  0  0  0  0  0  0  0  0  0
    0.8310    0.7693    0.3807 N   0  0  0  0  0  0  0  0  0  0  0  0
    1.3128   -0.2687    1.3323 C   0  0  0  0  0  0  0  0  0  0  0  0
    2.6265   -0.9451    0.8763 C   0  0  0  0  0  0  0  0  0  0  0  0
    3.6747    0.0749    0.6225 N   0  0  0  0  0  0  0  0  0  0  0  0
    4.9613   -0.4740    0.4918 C   0  0  0  0  0  0  0  0  0  0  0  0
    5.7214   -0.4084   -0.6845 C   0  0  0  0  0  0  0  0  0  0  0  0
    7.0022   -0.9699   -0.7591 C   0  0  0  0  0  0  0  0  0  0  0  0
    7.5555   -1.6022    0.3492 C   0  0  0  0  0  0  0  0  0  0  0  0
    6.8301   -1.6683    1.5329 C   0  0  0  0  0  0  0  0  0  0  0  0
    5.5505   -1.1082    1.5995 C   0  0  0  0  0  0  0  0  0  0  0  0
    3.2415    1.0718   -0.3851 C   0  0  0  0  0  0  0  0  0  0  0  0
    1.9050    1.7350    0.0286 C   0  0  0  0  0  0  0  0  0  0  0  0
   -1.1474   -0.3623   -0.5498 C   0  0  0  0  0  0  0  0  0  0  0  0
   -1.9774   -0.3102    0.6312 N   0  0  0  0  0  0  0  0  0  0  0  0
   -1.9546    0.8519    1.5195 C   0  0  0  0  0  0  0  0  0  0  0  0
   -2.6771    2.0482    0.9327 C   0  0  0  0  0  0  0  0  0  0  0  0
   -1.9628    3.0840    0.3146 C   0  0  0  0  0  0  0  0  0  0  0  0
   -2.6319    4.1772   -0.2391 C   0  0  0  0  0  0  0  0  0  0  0  0
   -4.0222    4.2474   -0.1820 C   0  0  0  0  0  0  0  0  0  0  0  0
   -4.7454    3.2246    0.4287 C   0  0  0  0  0  0  0  0  0  0  0  0
   -4.0775    2.1309    0.9821 C   0  0  0  0  0  0  0  0  0  0  0  0
   -3.0561   -1.1977    0.7672 C   0  0  0  0  0  0  0  0  0  0  0  0
   -3.8175   -1.1804    1.7374 O   0  0  0  0  0  0  0  0  0  0  0  0
   -5.5348   -1.6102   -1.7970 H   0  0  0  0  0  0  0  0  0  0  0  0
   -5.7741   -1.1450   -0.1025 H   0  0  0  0  0  0  0  0  0  0  0  0
   -6.6400   -2.5327   -0.7726 H   0  0  0  0  0  0  0  0  0  0  0  0
   -4.7937   -3.3575    0.6137 H   0  0  0  0  0  0  0  0  0  0  0  0
   -4.5351   -3.7762   -1.0755 H   0  0  0  0  0  0  0  0  0  0  0  0
   -2.4396   -3.0616   -0.0713 H   0  0  0  0  0  0  0  0  0  0  0  0
   -2.8986   -2.3544   -2.4416 H   0  0  0  0  0  0  0  0  0  0  0  0
    0.6944   -0.4548   -3.8544 H   0  0  0  0  0  0  0  0  0  0  0  0
    0.5537   -1.0364    1.5216 H   0  0  0  0  0  0  0  0  0  0  0  0
    1.4909    0.2280    2.2950 H   0  0  0  0  0  0  0  0  0  0  0  0
    2.4525   -1.5309   -0.0356 H   0  0  0  0  0  0  0  0  0  0  0  0
    2.9271   -1.6446    1.6649 H   0  0  0  0  0  0  0  0  0  0  0  0
    5.3307    0.0657   -1.5789 H   0  0  0  0  0  0  0  0  0  0  0  0
    7.5647   -0.9107   -1.6871 H   0  0  0  0  0  0  0  0  0  0  0  0
    8.5503   -2.0350    0.2924 H   0  0  0  0  0  0  0  0  0  0  0  0
    7.2578   -2.1467    2.4096 H   0  0  0  0  0  0  0  0  0  0  0  0
    5.0161   -1.1465    2.5455 H   0  0  0  0  0  0  0  0  0  0  0  0
    3.9944    1.8651   -0.4720 H   0  0  0  0  0  0  0  0  0  0  0  0
    3.1416    0.5969   -1.3667 H   0  0  0  0  0  0  0  0  0  0  0  0
    2.0884    2.3466    0.9217 H   0  0  0  0  0  0  0  0  0  0  0  0
    1.5673    2.4333   -0.7477 H   0  0  0  0  0  0  0  0  0  0  0  0
   -0.9459    1.1234    1.8271 H   0  0  0  0  0  0  0  0  0  0  0  0
   -2.4478    0.5944    2.4661 H   0  0  0  0  0  0  0  0  0  0  0  0
   -0.8779    3.0450    0.2595 H   0  0  0  0  0  0  0  0  0  0  0  0
   -2.0664    4.9726   -0.7175 H   0  0  0  0  0  0  0  0  0  0  0  0
   -4.5425    5.0976   -0.6144 H   0  0  0  0  0  0  0  0  0  0  0  0
   -5.8302    3.2752    0.4730 H   0  0  0  0  0  0  0  0  0  0  0  0
   -4.6579    1.3399    1.4542 H   0  0  0  0  0  0  0  0  0  0  0  0
  1  2  1  0
  2  3  1  0
  3  4  1  0
  4  5  1  0
  5  6  2  0
  6  7  1  0
  7  8  2  0
  8  9  1  0
  9 10  1  0
 10 11  1  0
 11 12  1  0
 12 13  1  0
 13 14  1  0
 14 15  2  0
 15 16  1  0
 16 17  2  0
 17 18  1  0
 18 19  2  0
 13 20  1  0
 20 21  1  0
  9 22  2  0
 22 23  1  0
 23 24  1  0
 24 25  1  0
 25 26  2  0
 26 27  1  0
 27 28  2  0
 28 29  1  0
 29 30  2  0
 23 31  1  0
 31 32  2  0
 31  3  1  0
 22  5  1  0
 30 25  1  0
 21 10  1  0
 19 14  1  0
  1 33  1  0
  1 34  1  0
  1 35  1  0
  2 36  1  0
  2 37  1  0
  3 38  1  0
  4 39  1  0
  7 40  1  0
 11 41  1  0
 11 42  1  0
 12 43  1  0
 12 44  1  0
 15 45  1  0
 16 46  1  0
 17 47  1  0
 18 48  1  0
 19 49  1  0
 20 50  1  0
 20 51  1  0
 21 52  1  0
 21 53  1  0
 24 54  1  0
 24 55  1  0
 26 56  1  0
 27 57  1  0
 28 58  1  0
 29 59  1  0
 30 60  1  0
M  END
$$$$
