
     RDKit          3D

 38 39  0  0  0  0  0  0  0  0999 V2000
   -2.5417    1.1332   -1.0977 O   0  0  0  0  0  0  0  0  0  0  0  0
   -1.5158    1.6054   -0.6359 C   0  0  0  0  0  0  0  0  0  0  0  0
   -0.9340    2.7841   -1.0380 N   0  0  0  0  0  0  0  0  0  0  0  0
   -1.3543    3.5230   -2.2173 C   0  0  0  0  0  0  0  0  0  0  0  0
   -2.7814    4.0747   -2.1270 C   0  0  0  0  0  0  0  0  0  0  0  0
   -3.7508    3.0946   -2.4842 O   0  0  0  0  0  0  0  0  0  0  0  0
   -0.7440    0.8877    0.4753 C   0  0  0  0  0  0  0  0  0  0  0  0
   -1.4707   -0.2562    1.1599 C   0  0  0  0  0  0  0  0  0  0  0  0
   -0.9015   -1.6057    0.7882 C   0  0  0  0  0  0  0  0  0  0  0  0
   -0.2622   -2.3981    1.7529 C   0  0  0  0  0  0  0  0  0  0  0  0
    0.3005   -3.6265    1.4014 C   0  0  0  0  0  0  0  0  0  0  0  0
    0.2170   -4.0734    0.0851 C   0  0  0  0  0  0  0  0  0  0  0  0
    0.9887   -5.7311   -0.3933 Br  0  0  0  0  0  0  0  0  0  0  0  0
   -0.4324   -3.3081   -0.8805 C   0  0  0  0  0  0  0  0  0  0  0  0
   -0.9936   -2.0786   -0.5292 C   0  0  0  0  0  0  0  0  0  0  0  0
    0.4686    1.3131    0.7006 N   0  0  0  0  0  0  0  0  0  0  0  0
    1.1839    0.6864    1.6882 C   0  0  0  0  0  0  0  0  0  0  0  0
    0.8504    0.7142    2.8677 O   0  0  0  0  0  0  0  0  0  0  0  0
    2.3863    0.0148    1.2083 C   0  0  0  0  0  0  0  0  0  0  0  0
    3.3202   -0.6492    1.9866 C   0  0  0  0  0  0  0  0  0  0  0  0
    4.3701   -1.2280    1.2173 C   0  0  0  0  0  0  0  0  0  0  0  0
    4.2096   -0.9900   -0.1282 C   0  0  0  0  0  0  0  0  0  0  0  0
    2.8053   -0.0728   -0.4539 S   0  0  0  0  0  0  0  0  0  0  0  0
   -0.0048    2.9536   -0.6585 H   0  0  0  0  0  0  0  0  0  0  0  0
   -0.6487    4.3538   -2.3182 H   0  0  0  0  0  0  0  0  0  0  0  0
   -1.2497    2.8568   -3.0803 H   0  0  0  0  0  0  0  0  0  0  0  0
   -2.8982    4.9028   -2.8328 H   0  0  0  0  0  0  0  0  0  0  0  0
   -3.0092    4.4446   -1.1222 H   0  0  0  0  0  0  0  0  0  0  0  0
   -3.5346    2.2766   -1.9866 H   0  0  0  0  0  0  0  0  0  0  0  0
   -2.5370   -0.2438    0.9090 H   0  0  0  0  0  0  0  0  0  0  0  0
   -1.4319   -0.1003    2.2435 H   0  0  0  0  0  0  0  0  0  0  0  0
   -0.1859   -2.0595    2.7852 H   0  0  0  0  0  0  0  0  0  0  0  0
    0.8017   -4.2229    2.1590 H   0  0  0  0  0  0  0  0  0  0  0  0
   -0.5075   -3.6575   -1.9070 H   0  0  0  0  0  0  0  0  0  0  0  0
   -1.5036   -1.4956   -1.2946 H   0  0  0  0  0  0  0  0  0  0  0  0
    3.2435   -0.7181    3.0662 H   0  0  0  0  0  0  0  0  0  0  0  0
    5.1980   -1.7923    1.6296 H   0  0  0  0  0  0  0  0  0  0  0  0
    4.8497   -1.3116   -0.9388 H   0  0  0  0  0  0  0  0  0  0  0  0
  1  2  2  0
  2  3  1  0
  3  4  1  0
  4  5  1  0
  5  6  1  0
  2  7  1  0
  7  8  1  0
  8  9  1  0
  9 10  2  0
 10 11  1  0
 11 12  2  0
 12 13  1  0
 12 14  1  0
 14 15  2  0
  7 16  2  3
 16 17  1  0
 17 18  2  0
 17 19  1  0
 19 20  2  0
 20 21  1  0
 21 22  2  0
 22 23  1  0
 15  9  1  0
 23 19  1  0
  3 24  1  0
  4 25  1  0
  4 26  1  0
  5 27  1  0
  5 28  1  0
  6 29  1  0
  8 30  1  0
  8 31  1  0
 10 32  1  0
 11 33  1  0
 14 34  1  0
 15 35  1  0
 20 36  1  0
 21 37  1  0
 22 38  1  0
M  END
$$$$
