
     RDKit          3D

 47 49  0  0  0  0  0  0  0  0999 V2000
    4.6811    1.8566   -3.5194 C   0  0  0  0  0  0  0  0  0  0  0  0
    3.6324    1.7486   -2.4463 C   0  0  0  0  0  0  0  0  0  0  0  0
    3.9078    1.0052   -1.2902 C   0  0  0  0  0  0  0  0  0  0  0  0
    2.9609    0.8866   -0.2715 C   0  0  0  0  0  0  0  0  0  0  0  0
    1.7152    1.5149   -0.3794 C   0  0  0  0  0  0  0  0  0  0  0  0
    0.6868    1.3493    0.7259 C   0  0  0  0  0  0  0  0  0  0  0  0
    0.1686    2.6972    1.2373 C   0  0  0  0  0  0  0  0  0  0  0  0
   -0.3958    0.5045    0.2489 N   0  0  0  0  0  0  0  0  0  0  0  0
   -1.2571   -0.1328    1.1136 C   0  0  0  0  0  0  0  0  0  0  0  0
   -1.1946    0.0050    2.3294 O   0  0  0  0  0  0  0  0  0  0  0  0
   -2.2197   -1.0064    0.4750 C   0  0  0  0  0  0  0  0  0  0  0  0
   -2.7823   -2.2323    0.9565 C   0  0  0  0  0  0  0  0  0  0  0  0
   -2.5013   -2.9744    2.1867 C   0  0  0  0  0  0  0  0  0  0  0  0
   -3.5504   -3.5884    2.8886 C   0  0  0  0  0  0  0  0  0  0  0  0
   -3.2998   -4.3128    4.0564 C   0  0  0  0  0  0  0  0  0  0  0  0
   -1.9967   -4.4363    4.5329 C   0  0  0  0  0  0  0  0  0  0  0  0
   -0.9445   -3.8397    3.8410 C   0  0  0  0  0  0  0  0  0  0  0  0
   -1.1941   -3.1155    2.6716 C   0  0  0  0  0  0  0  0  0  0  0  0
   -3.6763   -2.7126    0.0743 N   0  0  0  0  0  0  0  0  0  0  0  0
   -3.7155   -1.8226   -0.9707 O   0  0  0  0  0  0  0  0  0  0  0  0
   -2.8609   -0.7981   -0.7318 C   0  0  0  0  0  0  0  0  0  0  0  0
   -2.8469    0.2678   -1.7536 C   0  0  0  0  0  0  0  0  0  0  0  0
    1.4368    2.2540   -1.5412 C   0  0  0  0  0  0  0  0  0  0  0  0
    2.3814    2.3818   -2.5739 C   0  0  0  0  0  0  0  0  0  0  0  0
    2.0351    3.1929   -3.7931 C   0  0  0  0  0  0  0  0  0  0  0  0
    5.5767    1.2795   -3.2660 H   0  0  0  0  0  0  0  0  0  0  0  0
    4.2980    1.4669   -4.4678 H   0  0  0  0  0  0  0  0  0  0  0  0
    4.9860    2.8999   -3.6484 H   0  0  0  0  0  0  0  0  0  0  0  0
    4.8691    0.5086   -1.1732 H   0  0  0  0  0  0  0  0  0  0  0  0
    3.2084    0.2973    0.6091 H   0  0  0  0  0  0  0  0  0  0  0  0
    1.1531    0.8338    1.5757 H   0  0  0  0  0  0  0  0  0  0  0  0
    0.9970    3.3466    1.5408 H   0  0  0  0  0  0  0  0  0  0  0  0
   -0.4853    2.5633    2.1056 H   0  0  0  0  0  0  0  0  0  0  0  0
   -0.4166    3.2266    0.4772 H   0  0  0  0  0  0  0  0  0  0  0  0
   -0.3423    0.1796   -0.7066 H   0  0  0  0  0  0  0  0  0  0  0  0
   -4.5739   -3.5034    2.5283 H   0  0  0  0  0  0  0  0  0  0  0  0
   -4.1226   -4.7795    4.5914 H   0  0  0  0  0  0  0  0  0  0  0  0
   -1.8012   -4.9982    5.4423 H   0  0  0  0  0  0  0  0  0  0  0  0
    0.0728   -3.9365    4.2111 H   0  0  0  0  0  0  0  0  0  0  0  0
   -0.3529   -2.6694    2.1484 H   0  0  0  0  0  0  0  0  0  0  0  0
   -2.7548    1.2543   -1.2890 H   0  0  0  0  0  0  0  0  0  0  0  0
   -3.7704    0.2633   -2.3414 H   0  0  0  0  0  0  0  0  0  0  0  0
   -2.0070    0.1269   -2.4406 H   0  0  0  0  0  0  0  0  0  0  0  0
    0.4683    2.7402   -1.6467 H   0  0  0  0  0  0  0  0  0  0  0  0
    1.0276    3.6164   -3.7220 H   0  0  0  0  0  0  0  0  0  0  0  0
    2.0654    2.5647   -4.6888 H   0  0  0  0  0  0  0  0  0  0  0  0
    2.7347    4.0267   -3.9066 H   0  0  0  0  0  0  0  0  0  0  0  0
  1  2  1  0
  2  3  2  0
  3  4  1  0
  4  5  2  0
  5  6  1  0
  6  7  1  0
  6  8  1  0
  8  9  1  0
  9 10  2  0
  9 11  1  0
 11 12  1  0
 12 13  1  0
 13 14  2  0
 14 15  1  0
 15 16  2  0
 16 17  1  0
 17 18  2  0
 12 19  2  0
 19 20  1  0
 20 21  1  0
 21 22  1  0
  5 23  1  0
 23 24  2  0
 24 25  1  0
 24  2  1  0
 21 11  2  0
 18 13  1  0
  1 26  1  0
  1 27  1  0
  1 28  1  0
  3 29  1  0
  4 30  1  0
  6 31  1  0
  7 32  1  0
  7 33  1  0
  7 34  1  0
  8 35  1  0
 14 36  1  0
 15 37  1  0
 16 38  1  0
 17 39  1  0
 18 40  1  0
 22 41  1  0
 22 42  1  0
 22 43  1  0
 23 44  1  0
 25 45  1  0
 25 46  1  0
 25 47  1  0
M  END
$$$$
