
     RDKit          3D

 45 47  0  0  0  0  0  0  0  0999 V2000
    6.9187    1.1036    0.0071 C   0  0  0  0  0  0  0  0  0  0  0  0
    6.1954   -0.0505    0.4181 O   0  0  0  0  0  0  0  0  0  0  0  0
    4.8398   -0.0414    0.2257 C   0  0  0  0  0  0  0  0  0  0  0  0
    4.1561    0.8994   -0.5460 C   0  0  0  0  0  0  0  0  0  0  0  0
    2.7589    0.8501   -0.6637 C   0  0  0  0  0  0  0  0  0  0  0  0
    2.0207   -0.1396   -0.0134 C   0  0  0  0  0  0  0  0  0  0  0  0
    0.6122   -0.2289   -0.0590 N   0  0  0  0  0  0  0  0  0  0  0  0
   -0.2373    0.4339   -0.9171 C   0  0  0  0  0  0  0  0  0  0  0  0
    0.1394    1.0618   -1.9053 O   0  0  0  0  0  0  0  0  0  0  0  0
   -1.5932    0.3394   -0.5879 N   0  0  0  0  0  0  0  0  0  0  0  0
   -2.1439   -0.3632    0.5747 C   0  0  0  0  0  0  0  0  0  0  0  0
   -3.3587    0.3480    1.1582 C   0  0  0  0  0  0  0  0  0  0  0  0
   -4.4013    0.6461    0.0887 C   0  0  0  0  0  0  0  0  0  0  0  0
   -3.7723    1.4319   -1.0577 C   0  0  0  0  0  0  0  0  0  0  0  0
   -2.5619    0.7034   -1.6235 C   0  0  0  0  0  0  0  0  0  0  0  0
   -4.9505   -0.5853   -0.4150 O   0  0  0  0  0  0  0  0  0  0  0  0
   -6.2791   -0.6382    0.1057 C   0  0  0  0  0  0  0  0  0  0  0  0
   -6.6621    0.8107    0.2260 C   0  0  0  0  0  0  0  0  0  0  0  0
   -5.4564    1.4247    0.6810 O   0  0  0  0  0  0  0  0  0  0  0  0
    2.7010   -1.0824    0.7615 C   0  0  0  0  0  0  0  0  0  0  0  0
    4.0976   -1.0530    0.8546 C   0  0  0  0  0  0  0  0  0  0  0  0
    4.6598   -2.0232    1.6495 O   0  0  0  0  0  0  0  0  0  0  0  0
    5.5164   -2.8863    0.8975 C   0  0  0  0  0  0  0  0  0  0  0  0
    6.5330    2.0084    0.4893 H   0  0  0  0  0  0  0  0  0  0  0  0
    7.9591    0.9755    0.3225 H   0  0  0  0  0  0  0  0  0  0  0  0
    6.9134    1.2037   -1.0846 H   0  0  0  0  0  0  0  0  0  0  0  0
    4.6745    1.6949   -1.0731 H   0  0  0  0  0  0  0  0  0  0  0  0
    2.2728    1.6190   -1.2589 H   0  0  0  0  0  0  0  0  0  0  0  0
    0.2136   -1.0099    0.4355 H   0  0  0  0  0  0  0  0  0  0  0  0
   -1.3978   -0.4496    1.3689 H   0  0  0  0  0  0  0  0  0  0  0  0
   -2.4023   -1.3774    0.2500 H   0  0  0  0  0  0  0  0  0  0  0  0
   -3.7931   -0.2713    1.9530 H   0  0  0  0  0  0  0  0  0  0  0  0
   -3.0438    1.2869    1.6342 H   0  0  0  0  0  0  0  0  0  0  0  0
   -3.4762    2.4282   -0.7036 H   0  0  0  0  0  0  0  0  0  0  0  0
   -4.5050    1.5905   -1.8579 H   0  0  0  0  0  0  0  0  0  0  0  0
   -2.1004    1.3289   -2.3950 H   0  0  0  0  0  0  0  0  0  0  0  0
   -2.8678   -0.2279   -2.1154 H   0  0  0  0  0  0  0  0  0  0  0  0
   -6.2409   -1.1267    1.0859 H   0  0  0  0  0  0  0  0  0  0  0  0
   -6.9334   -1.2080   -0.5588 H   0  0  0  0  0  0  0  0  0  0  0  0
   -7.4777    0.9895    0.9302 H   0  0  0  0  0  0  0  0  0  0  0  0
   -6.9191    1.2427   -0.7485 H   0  0  0  0  0  0  0  0  0  0  0  0
    2.1619   -1.8613    1.2950 H   0  0  0  0  0  0  0  0  0  0  0  0
    5.0890   -3.1343   -0.0868 H   0  0  0  0  0  0  0  0  0  0  0  0
    6.5225   -2.4570    0.7955 H   0  0  0  0  0  0  0  0  0  0  0  0
    5.6185   -3.8212    1.4630 H   0  0  0  0  0  0  0  0  0  0  0  0
  1  2  1  0
  2  3  1  0
  3  4  2  0
  4  5  1  0
  5  6  2  0
  6  7  1  0
  7  8  1  0
  8  9  2  0
  8 10  1  0
 10 11  1  0
 11 12  1  0
 12 13  1  0
 13 14  1  0
 14 15  1  0
 13 16  1  0
 16 17  1  0
 17 18  1  0
 18 19  1  0
  6 20  1  0
 20 21  2  0
 21 22  1  0
 22 23  1  0
 21  3  1  0
 15 10  1  0
 19 13  1  0
  1 24  1  0
  1 25  1  0
  1 26  1  0
  4 27  1  0
  5 28  1  0
  7 29  1  0
 11 30  1  0
 11 31  1  0
 12 32  1  0
 12 33  1  0
 14 34  1  0
 14 35  1  0
 15 36  1  0
 15 37  1  0
 17 38  1  0
 17 39  1  0
 18 40  1  0
 18 41  1  0
 20 42  1  0
 23 43  1  0
 23 44  1  0
 23 45  1  0
M  END
$$$$
