
     RDKit          3D

 49 52  0  0  0  0  0  0  0  0999 V2000
    6.4083    0.6593    0.9218 C   0  0  0  0  0  0  0  0  0  0  0  0
    5.6661   -0.5557    0.4441 C   0  0  0  0  0  0  0  0  0  0  0  0
    6.3593   -1.6187   -0.1543 C   0  0  0  0  0  0  0  0  0  0  0  0
    5.6691   -2.7491   -0.5978 C   0  0  0  0  0  0  0  0  0  0  0  0
    6.5364   -4.0471   -1.3235 Cl  0  0  0  0  0  0  0  0  0  0  0  0
    4.2865   -2.8395   -0.4505 C   0  0  0  0  0  0  0  0  0  0  0  0
    3.5849   -1.7873    0.1389 C   0  0  0  0  0  0  0  0  0  0  0  0
    4.2704   -0.6443    0.5682 C   0  0  0  0  0  0  0  0  0  0  0  0
    3.6020    0.3760    1.2038 O   0  0  0  0  0  0  0  0  0  0  0  0
    2.6117    1.0266    0.5860 C   0  0  0  0  0  0  0  0  0  0  0  0
    2.3267    0.9036   -0.6922 N   0  0  0  0  0  0  0  0  0  0  0  0
    1.2662    1.7270   -1.0116 C   0  0  0  0  0  0  0  0  0  0  0  0
    0.7271    2.4534    0.0322 C   0  0  0  0  0  0  0  0  0  0  0  0
   -0.4100    3.4299    0.0336 C   0  0  0  0  0  0  0  0  0  0  0  0
   -1.7539    2.8479    0.0496 N   0  0  0  0  0  0  0  0  0  0  0  0
   -2.0895    2.1162    1.2817 C   0  0  0  0  0  0  0  0  0  0  0  0
   -3.3986    1.2972    1.1722 C   0  0  0  0  0  0  0  0  0  0  0  0
   -3.3106    0.3073    0.0844 N   0  0  0  0  0  0  0  0  0  0  0  0
   -4.0042   -0.8910    0.1422 C   0  0  0  0  0  0  0  0  0  0  0  0
   -5.1588   -1.0394    0.9291 C   0  0  0  0  0  0  0  0  0  0  0  0
   -5.8670   -2.2465    0.9923 C   0  0  0  0  0  0  0  0  0  0  0  0
   -5.4345   -3.3466    0.2632 C   0  0  0  0  0  0  0  0  0  0  0  0
   -4.2998   -3.2337   -0.5301 C   0  0  0  0  0  0  0  0  0  0  0  0
   -3.6004   -2.0216   -0.5878 C   0  0  0  0  0  0  0  0  0  0  0  0
   -2.3548    0.5963   -0.9954 C   0  0  0  0  0  0  0  0  0  0  0  0
   -2.1482    2.1209   -1.1670 C   0  0  0  0  0  0  0  0  0  0  0  0
    1.6410    2.1400    1.4551 S   0  0  0  0  0  0  0  0  0  0  0  0
    7.4896    0.5486    0.7860 H   0  0  0  0  0  0  0  0  0  0  0  0
    6.2246    0.8233    1.9890 H   0  0  0  0  0  0  0  0  0  0  0  0
    6.0886    1.5422    0.3584 H   0  0  0  0  0  0  0  0  0  0  0  0
    7.4392   -1.5699   -0.2710 H   0  0  0  0  0  0  0  0  0  0  0  0
    3.7509   -3.7222   -0.7897 H   0  0  0  0  0  0  0  0  0  0  0  0
    2.5067   -1.8595    0.2586 H   0  0  0  0  0  0  0  0  0  0  0  0
    0.9185    1.7539   -2.0371 H   0  0  0  0  0  0  0  0  0  0  0  0
   -0.3152    4.0771   -0.8488 H   0  0  0  0  0  0  0  0  0  0  0  0
   -0.3165    4.1147    0.8869 H   0  0  0  0  0  0  0  0  0  0  0  0
   -1.2930    1.4110    1.5482 H   0  0  0  0  0  0  0  0  0  0  0  0
   -2.1854    2.8298    2.1087 H   0  0  0  0  0  0  0  0  0  0  0  0
   -4.2478    1.9673    0.9891 H   0  0  0  0  0  0  0  0  0  0  0  0
   -3.5549    0.8047    2.1400 H   0  0  0  0  0  0  0  0  0  0  0  0
   -5.5509   -0.1989    1.4942 H   0  0  0  0  0  0  0  0  0  0  0  0
   -6.7585   -2.3181    1.6092 H   0  0  0  0  0  0  0  0  0  0  0  0
   -5.9771   -4.2853    0.3116 H   0  0  0  0  0  0  0  0  0  0  0  0
   -3.9496   -4.0870   -1.1046 H   0  0  0  0  0  0  0  0  0  0  0  0
   -2.7083   -1.9902   -1.2064 H   0  0  0  0  0  0  0  0  0  0  0  0
   -1.3966    0.1103   -0.7773 H   0  0  0  0  0  0  0  0  0  0  0  0
   -2.7251    0.2091   -1.9526 H   0  0  0  0  0  0  0  0  0  0  0  0
   -1.4586    2.3074   -1.9979 H   0  0  0  0  0  0  0  0  0  0  0  0
   -3.1063    2.5506   -1.4889 H   0  0  0  0  0  0  0  0  0  0  0  0
  1  2  1  0
  2  3  2  0
  3  4  1  0
  4  5  1  0
  4  6  2  0
  6  7  1  0
  7  8  2  0
  8  9  1  0
  9 10  1  0
 10 11  2  0
 11 12  1  0
 12 13  2  0
 13 14  1  0
 14 15  1  0
 15 16  1  0
 16 17  1  0
 17 18  1  0
 18 19  1  0
 19 20  2  0
 20 21  1  0
 21 22  2  0
 22 23  1  0
 23 24  2  0
 18 25  1  0
 25 26  1  0
 13 27  1  0
  8  2  1  0
 27 10  1  0
 26 15  1  0
 24 19  1  0
  1 28  1  0
  1 29  1  0
  1 30  1  0
  3 31  1  0
  6 32  1  0
  7 33  1  0
 12 34  1  0
 14 35  1  0
 14 36  1  0
 16 37  1  0
 16 38  1  0
 17 39  1  0
 17 40  1  0
 20 41  1  0
 21 42  1  0
 22 43  1  0
 23 44  1  0
 24 45  1  0
 25 46  1  0
 25 47  1  0
 26 48  1  0
 26 49  1  0
M  END
$$$$
