
     RDKit          3D

 50 52  0  0  0  0  0  0  0  0999 V2000
    5.9997    0.0716   -4.6353 C   0  0  0  0  0  0  0  0  0  0  0  0
    5.3491   -0.3005   -3.3364 C   0  0  0  0  0  0  0  0  0  0  0  0
    4.9909   -1.6294   -3.0819 C   0  0  0  0  0  0  0  0  0  0  0  0
    4.3521   -1.9756   -1.8885 C   0  0  0  0  0  0  0  0  0  0  0  0
    4.0493   -0.9946   -0.9423 C   0  0  0  0  0  0  0  0  0  0  0  0
    3.2458   -1.4156    0.5922 S   0  0  0  0  0  0  0  0  0  0  0  0
    1.5896   -1.8741   -0.0277 C   0  0  0  0  0  0  0  0  0  0  0  0
    0.8808   -0.6765   -0.6488 C   0  0  0  0  0  0  0  0  0  0  0  0
    0.8319   -0.5898   -1.8790 O   0  0  0  0  0  0  0  0  0  0  0  0
    0.3060    0.2866    0.1820 N   0  0  0  0  0  0  0  0  0  0  0  0
    0.2149    0.1617    1.6450 C   0  0  0  0  0  0  0  0  0  0  0  0
   -1.1375   -0.3071    2.0466 C   0  0  0  0  0  0  0  0  0  0  0  0
   -2.2261    0.3818    2.3040 N   0  0  0  0  0  0  0  0  0  0  0  0
   -3.1455   -0.6062    2.5939 C   0  0  0  0  0  0  0  0  0  0  0  0
   -4.5332   -0.3038    2.9299 C   0  0  0  0  0  0  0  0  0  0  0  0
   -4.9721    1.0282    2.9884 C   0  0  0  0  0  0  0  0  0  0  0  0
   -6.3000    1.3281    3.3041 C   0  0  0  0  0  0  0  0  0  0  0  0
   -7.2038    0.3000    3.5651 C   0  0  0  0  0  0  0  0  0  0  0  0
   -6.7827   -1.0278    3.5096 C   0  0  0  0  0  0  0  0  0  0  0  0
   -5.4550   -1.3289    3.1937 C   0  0  0  0  0  0  0  0  0  0  0  0
   -2.6380   -1.8496    2.5338 N   0  0  0  0  0  0  0  0  0  0  0  0
   -1.3099   -1.6522    2.1691 O   0  0  0  0  0  0  0  0  0  0  0  0
   -0.3605    1.4678   -0.4119 C   0  0  0  0  0  0  0  0  0  0  0  0
   -1.5767    1.1054   -1.2676 C   0  0  0  0  0  0  0  0  0  0  0  0
    0.6218    2.3599   -1.1748 C   0  0  0  0  0  0  0  0  0  0  0  0
    4.4053    0.3326   -1.1926 C   0  0  0  0  0  0  0  0  0  0  0  0
    5.0421    0.6794   -2.3869 C   0  0  0  0  0  0  0  0  0  0  0  0
    5.2398    0.1964   -5.4123 H   0  0  0  0  0  0  0  0  0  0  0  0
    6.5627    1.0060   -4.5412 H   0  0  0  0  0  0  0  0  0  0  0  0
    6.7077   -0.7030   -4.9481 H   0  0  0  0  0  0  0  0  0  0  0  0
    5.2057   -2.4047   -3.8130 H   0  0  0  0  0  0  0  0  0  0  0  0
    4.0950   -3.0162   -1.7102 H   0  0  0  0  0  0  0  0  0  0  0  0
    1.6794   -2.6624   -0.7830 H   0  0  0  0  0  0  0  0  0  0  0  0
    0.9909   -2.2985    0.7818 H   0  0  0  0  0  0  0  0  0  0  0  0
    0.9667   -0.5198    2.0426 H   0  0  0  0  0  0  0  0  0  0  0  0
    0.4245    1.1423    2.0869 H   0  0  0  0  0  0  0  0  0  0  0  0
   -4.2810    1.8441    2.7848 H   0  0  0  0  0  0  0  0  0  0  0  0
   -6.6277    2.3632    3.3419 H   0  0  0  0  0  0  0  0  0  0  0  0
   -8.2374    0.5330    3.8087 H   0  0  0  0  0  0  0  0  0  0  0  0
   -7.4879   -1.8315    3.7090 H   0  0  0  0  0  0  0  0  0  0  0  0
   -5.1494   -2.3730    3.1505 H   0  0  0  0  0  0  0  0  0  0  0  0
   -0.7366    2.0770    0.4203 H   0  0  0  0  0  0  0  0  0  0  0  0
   -1.2983    0.5957   -2.1941 H   0  0  0  0  0  0  0  0  0  0  0  0
   -2.2613    0.4496   -0.7204 H   0  0  0  0  0  0  0  0  0  0  0  0
   -2.1288    2.0094   -1.5466 H   0  0  0  0  0  0  0  0  0  0  0  0
    0.1356    3.2945   -1.4782 H   0  0  0  0  0  0  0  0  0  0  0  0
    1.4808    2.6152   -0.5437 H   0  0  0  0  0  0  0  0  0  0  0  0
    1.0053    1.8797   -2.0802 H   0  0  0  0  0  0  0  0  0  0  0  0
    4.1814    1.1106   -0.4682 H   0  0  0  0  0  0  0  0  0  0  0  0
    5.2947    1.7212   -2.5708 H   0  0  0  0  0  0  0  0  0  0  0  0
  1  2  1  0
  2  3  2  0
  3  4  1  0
  4  5  2  0
  5  6  1  0
  6  7  1  0
  7  8  1  0
  8  9  2  0
  8 10  1  0
 10 11  1  0
 11 12  1  0
 12 13  2  0
 13 14  1  0
 14 15  1  0
 15 16  2  0
 16 17  1  0
 17 18  2  0
 18 19  1  0
 19 20  2  0
 14 21  2  0
 21 22  1  0
 10 23  1  0
 23 24  1  0
 23 25  1  0
  5 26  1  0
 26 27  2  0
 27  2  1  0
 22 12  1  0
 20 15  1  0
  1 28  1  0
  1 29  1  0
  1 30  1  0
  3 31  1  0
  4 32  1  0
  7 33  1  0
  7 34  1  0
 11 35  1  0
 11 36  1  0
 16 37  1  0
 17 38  1  0
 18 39  1  0
 19 40  1  0
 20 41  1  0
 23 42  1  0
 24 43  1  0
 24 44  1  0
 24 45  1  0
 25 46  1  0
 25 47  1  0
 25 48  1  0
 26 49  1  0
 27 50  1  0
M  END
$$$$
