
     RDKit          3D

 61 65  0  0  0  0  0  0  0  0999 V2000
    3.5333    3.7343    3.0956 C   0  0  0  0  0  0  0  0  0  0  0  0
    2.4211    3.9796    2.2430 O   0  0  0  0  0  0  0  0  0  0  0  0
    2.2460    3.1205    1.1943 C   0  0  0  0  0  0  0  0  0  0  0  0
    1.1569    3.4147    0.3735 C   0  0  0  0  0  0  0  0  0  0  0  0
    0.8621    2.6140   -0.7330 C   0  0  0  0  0  0  0  0  0  0  0  0
    1.6448    1.4883   -1.0345 C   0  0  0  0  0  0  0  0  0  0  0  0
    1.2906    0.6647   -2.2594 C   0  0  0  0  0  0  0  0  0  0  0  0
    1.8549   -0.6782   -2.3107 N   0  0  0  0  0  0  0  0  0  0  0  0
    3.0671   -0.8364   -3.0025 C   0  0  0  0  0  0  0  0  0  0  0  0
    3.6290    0.0893   -3.5927 O   0  0  0  0  0  0  0  0  0  0  0  0
    3.7334   -2.2206   -2.8707 C   0  0  0  0  0  0  0  0  0  0  0  0
    4.7478   -2.4518   -3.9856 C   0  0  0  0  0  0  0  0  0  0  0  0
    2.7441   -3.2875   -2.9050 N   0  0  0  0  0  0  0  0  0  0  0  0
    1.7255   -3.0977   -1.9664 C   0  0  0  0  0  0  0  0  0  0  0  0
    1.2661   -4.2335   -1.4212 N   0  0  0  0  0  0  0  0  0  0  0  0
    0.2388   -4.1001   -0.5854 C   0  0  0  0  0  0  0  0  0  0  0  0
   -0.3623   -2.9531   -0.2619 N   0  0  0  0  0  0  0  0  0  0  0  0
    0.1079   -1.8166   -0.8297 C   0  0  0  0  0  0  0  0  0  0  0  0
   -0.5723   -0.6299   -0.4815 N   0  0  0  0  0  0  0  0  0  0  0  0
   -0.5476   -0.4200    0.9949 C   0  0  0  0  0  0  0  0  0  0  0  0
   -1.8828   -0.7592    1.6972 C   0  0  0  0  0  0  0  0  0  0  0  0
   -2.9984    0.0139    1.1178 N   0  0  0  0  0  0  0  0  0  0  0  0
   -4.1487    0.2974    1.8337 C   0  0  0  0  0  0  0  0  0  0  0  0
   -4.4895   -0.4005    3.0037 C   0  0  0  0  0  0  0  0  0  0  0  0
   -5.6524   -0.1118    3.7303 C   0  0  0  0  0  0  0  0  0  0  0  0
   -6.5114    0.8933    3.3024 C   0  0  0  0  0  0  0  0  0  0  0  0
   -6.2020    1.6078    2.1523 C   0  0  0  0  0  0  0  0  0  0  0  0
   -5.0372    1.3103    1.4329 C   0  0  0  0  0  0  0  0  0  0  0  0
   -2.8841    0.3418   -0.3155 C   0  0  0  0  0  0  0  0  0  0  0  0
   -1.9510   -0.6533   -1.0420 C   0  0  0  0  0  0  0  0  0  0  0  0
    1.2120   -1.8195   -1.6974 C   0  0  0  0  0  0  0  0  0  0  0  0
    2.7481    1.2121   -0.2144 C   0  0  0  0  0  0  0  0  0  0  0  0
    3.0432    2.0171    0.8936 C   0  0  0  0  0  0  0  0  0  0  0  0
    3.4428    2.7625    3.5929 H   0  0  0  0  0  0  0  0  0  0  0  0
    4.4776    3.8118    2.5452 H   0  0  0  0  0  0  0  0  0  0  0  0
    3.5364    4.5052    3.8722 H   0  0  0  0  0  0  0  0  0  0  0  0
    0.5311    4.2759    0.5966 H   0  0  0  0  0  0  0  0  0  0  0  0
    0.0064    2.8699   -1.3545 H   0  0  0  0  0  0  0  0  0  0  0  0
    0.2097    0.6105   -2.4142 H   0  0  0  0  0  0  0  0  0  0  0  0
    1.6552    1.2343   -3.1245 H   0  0  0  0  0  0  0  0  0  0  0  0
    4.2644   -2.2356   -1.9091 H   0  0  0  0  0  0  0  0  0  0  0  0
    5.2186   -3.4363   -3.8901 H   0  0  0  0  0  0  0  0  0  0  0  0
    4.2704   -2.4037   -4.9710 H   0  0  0  0  0  0  0  0  0  0  0  0
    5.5398   -1.6958   -3.9621 H   0  0  0  0  0  0  0  0  0  0  0  0
    3.0920   -4.2367   -2.8048 H   0  0  0  0  0  0  0  0  0  0  0  0
   -0.1485   -5.0042   -0.1294 H   0  0  0  0  0  0  0  0  0  0  0  0
    0.2784   -0.9630    1.4744 H   0  0  0  0  0  0  0  0  0  0  0  0
   -0.3433    0.6443    1.1636 H   0  0  0  0  0  0  0  0  0  0  0  0
   -1.7583   -0.5192    2.7599 H   0  0  0  0  0  0  0  0  0  0  0  0
   -2.1000   -1.8300    1.6122 H   0  0  0  0  0  0  0  0  0  0  0  0
   -3.8631   -1.2101    3.3665 H   0  0  0  0  0  0  0  0  0  0  0  0
   -5.8836   -0.6802    4.6270 H   0  0  0  0  0  0  0  0  0  0  0  0
   -7.4133    1.1200    3.8633 H   0  0  0  0  0  0  0  0  0  0  0  0
   -6.8584    2.4045    1.8127 H   0  0  0  0  0  0  0  0  0  0  0  0
   -4.8226    1.9139    0.5557 H   0  0  0  0  0  0  0  0  0  0  0  0
   -3.8620    0.2918   -0.8094 H   0  0  0  0  0  0  0  0  0  0  0  0
   -2.4968    1.3622   -0.4209 H   0  0  0  0  0  0  0  0  0  0  0  0
   -2.4033   -1.6526   -0.9734 H   0  0  0  0  0  0  0  0  0  0  0  0
   -1.9074   -0.3899   -2.1056 H   0  0  0  0  0  0  0  0  0  0  0  0
    3.3977    0.3669   -0.4238 H   0  0  0  0  0  0  0  0  0  0  0  0
    3.9066    1.7543    1.4958 H   0  0  0  0  0  0  0  0  0  0  0  0
  1  2  1  0
  2  3  1  0
  3  4  2  0
  4  5  1  0
  5  6  2  0
  6  7  1  0
  7  8  1  0
  8  9  1  0
  9 10  2  0
  9 11  1  0
 11 12  1  0
 11 13  1  0
 13 14  1  0
 14 15  2  0
 15 16  1  0
 16 17  2  0
 17 18  1  0
 18 19  1  0
 19 20  1  0
 20 21  1  0
 21 22  1  0
 22 23  1  0
 23 24  2  0
 24 25  1  0
 25 26  2  0
 26 27  1  0
 27 28  2  0
 22 29  1  0
 29 30  1  0
 18 31  2  0
  6 32  1  0
 32 33  2  0
 33  3  1  0
 31  8  1  0
 31 14  1  0
 30 19  1  0
 28 23  1  0
  1 34  1  0
  1 35  1  0
  1 36  1  0
  4 37  1  0
  5 38  1  0
  7 39  1  0
  7 40  1  0
 11 41  1  0
 12 42  1  0
 12 43  1  0
 12 44  1  0
 13 45  1  0
 16 46  1  0
 20 47  1  0
 20 48  1  0
 21 49  1  0
 21 50  1  0
 24 51  1  0
 25 52  1  0
 26 53  1  0
 27 54  1  0
 28 55  1  0
 29 56  1  0
 29 57  1  0
 30 58  1  0
 30 59  1  0
 32 60  1  0
 33 61  1  0
M  END
$$$$
