
     RDKit          3D

 43 45  0  0  0  0  0  0  0  0999 V2000
   -7.1000    1.1499   -1.1110 C   0  0  0  0  0  0  0  0  0  0  0  0
   -6.7671    0.7277    0.1161 C   0  0  0  0  0  0  0  0  0  0  0  0
   -6.2604   -0.6529    0.4317 C   0  0  0  0  0  0  0  0  0  0  0  0
   -4.8341   -0.5811    0.7038 N   0  0  0  0  0  0  0  0  0  0  0  0
   -4.4350   -0.2832    1.9980 C   0  0  0  0  0  0  0  0  0  0  0  0
   -5.2099   -0.0895    2.9326 O   0  0  0  0  0  0  0  0  0  0  0  0
   -3.0942   -0.2055    2.2172 N   0  0  0  0  0  0  0  0  0  0  0  0
   -2.1396   -0.4001    1.2365 C   0  0  0  0  0  0  0  0  0  0  0  0
   -0.8465   -0.2815    1.5994 N   0  0  0  0  0  0  0  0  0  0  0  0
    0.0717   -0.4810    0.6281 C   0  0  0  0  0  0  0  0  0  0  0  0
    1.4211   -0.3734    0.9284 C   0  0  0  0  0  0  0  0  0  0  0  0
    2.4083   -0.5593   -0.0445 C   0  0  0  0  0  0  0  0  0  0  0  0
    3.7588   -0.4552    0.3184 N   0  0  0  0  0  0  0  0  0  0  0  0
    4.2682    0.7327    0.2841 C   0  0  0  0  0  0  0  0  0  0  0  0
    5.5651    1.0680    0.6003 N   0  0  0  0  0  0  0  0  0  0  0  0
    6.5454    0.0084    0.7976 C   0  0  0  0  0  0  0  0  0  0  0  0
    6.0960    2.3669    0.2202 C   0  0  0  0  0  0  0  0  0  0  0  0
    2.0327   -0.8941   -1.3514 C   0  0  0  0  0  0  0  0  0  0  0  0
    3.0661   -1.1299   -2.4160 C   0  0  0  0  0  0  0  0  0  0  0  0
    0.6685   -0.9973   -1.6606 C   0  0  0  0  0  0  0  0  0  0  0  0
   -0.3135   -0.7970   -0.7005 C   0  0  0  0  0  0  0  0  0  0  0  0
   -1.6080   -0.9087   -1.0485 N   0  0  0  0  0  0  0  0  0  0  0  0
   -2.5112   -0.7049   -0.0567 C   0  0  0  0  0  0  0  0  0  0  0  0
   -3.9548   -0.8160   -0.3599 C   0  0  0  0  0  0  0  0  0  0  0  0
   -4.3231   -1.1097   -1.4956 O   0  0  0  0  0  0  0  0  0  0  0  0
   -7.4700    2.1574   -1.2735 H   0  0  0  0  0  0  0  0  0  0  0  0
   -6.9968    0.5059   -1.9806 H   0  0  0  0  0  0  0  0  0  0  0  0
   -6.8834    1.4053    0.9598 H   0  0  0  0  0  0  0  0  0  0  0  0
   -6.4562   -1.3435   -0.3965 H   0  0  0  0  0  0  0  0  0  0  0  0
   -6.7948   -1.0420    1.3058 H   0  0  0  0  0  0  0  0  0  0  0  0
   -2.7750    0.0138    3.1504 H   0  0  0  0  0  0  0  0  0  0  0  0
    1.7210   -0.1419    1.9474 H   0  0  0  0  0  0  0  0  0  0  0  0
    3.6661    1.6111   -0.0192 H   0  0  0  0  0  0  0  0  0  0  0  0
    7.4587    0.3965    1.2609 H   0  0  0  0  0  0  0  0  0  0  0  0
    6.1550   -0.7703    1.4616 H   0  0  0  0  0  0  0  0  0  0  0  0
    6.8122   -0.4475   -0.1615 H   0  0  0  0  0  0  0  0  0  0  0  0
    6.9896    2.6139    0.8030 H   0  0  0  0  0  0  0  0  0  0  0  0
    6.3600    2.3739   -0.8423 H   0  0  0  0  0  0  0  0  0  0  0  0
    5.3614    3.1587    0.4017 H   0  0  0  0  0  0  0  0  0  0  0  0
    3.7848   -1.8892   -2.0910 H   0  0  0  0  0  0  0  0  0  0  0  0
    3.5966   -0.1992   -2.6410 H   0  0  0  0  0  0  0  0  0  0  0  0
    2.6096   -1.4889   -3.3445 H   0  0  0  0  0  0  0  0  0  0  0  0
    0.3566   -1.2470   -2.6733 H   0  0  0  0  0  0  0  0  0  0  0  0
  1  2  2  0
  2  3  1  0
  3  4  1  0
  4  5  1  0
  5  6  2  0
  5  7  1  0
  7  8  1  0
  8  9  2  0
  9 10  1  0
 10 11  2  0
 11 12  1  0
 12 13  1  0
 13 14  2  3
 14 15  1  0
 15 16  1  0
 15 17  1  0
 12 18  2  0
 18 19  1  0
 18 20  1  0
 20 21  2  0
 21 22  1  0
 22 23  2  0
 23 24  1  0
 24 25  2  0
 24  4  1  0
 23  8  1  0
 21 10  1  0
  1 26  1  0
  1 27  1  0
  2 28  1  0
  3 29  1  0
  3 30  1  0
  7 31  1  0
 11 32  1  0
 14 33  1  0
 16 34  1  0
 16 35  1  0
 16 36  1  0
 17 37  1  0
 17 38  1  0
 17 39  1  0
 19 40  1  0
 19 41  1  0
 19 42  1  0
 20 43  1  0
M  END
$$$$
