
     RDKit          3D

 33 35  0  0  0  0  0  0  0  0999 V2000
   -2.4894   -1.0397    3.4766 C   0  0  0  0  0  0  0  0  0  0  0  0
   -3.0327    0.1802    2.7503 C   0  0  0  0  0  0  0  0  0  0  0  0
   -3.5515   -0.1703    1.4029 C   0  0  0  0  0  0  0  0  0  0  0  0
   -4.8037   -0.4429    1.0840 N   0  0  0  0  0  0  0  0  0  0  0  0
   -4.8541   -0.6934   -0.2695 N   0  0  0  0  0  0  0  0  0  0  0  0
   -3.6322   -0.5797   -0.7265 C   0  0  0  0  0  0  0  0  0  0  0  0
   -2.7555   -0.2679    0.2804 N   0  0  0  0  0  0  0  0  0  0  0  0
   -1.4105   -0.0345    0.2278 N   0  0  0  0  0  0  0  0  0  0  0  0
   -0.7841   -0.4033   -0.8562 C   0  0  0  0  0  0  0  0  0  0  0  0
    0.6813   -0.1000   -0.9363 C   0  0  0  0  0  0  0  0  0  0  0  0
    1.5660   -0.9250   -1.6361 C   0  0  0  0  0  0  0  0  0  0  0  0
    2.9267   -0.6055   -1.6821 C   0  0  0  0  0  0  0  0  0  0  0  0
    3.4206    0.5281   -1.0310 C   0  0  0  0  0  0  0  0  0  0  0  0
    4.7678    0.7179   -1.1604 O   0  0  0  0  0  0  0  0  0  0  0  0
    5.3235    1.8563   -0.5134 C   0  0  0  0  0  0  0  0  0  0  0  0
    2.5397    1.3449   -0.3234 C   0  0  0  0  0  0  0  0  0  0  0  0
    1.1765    1.0302   -0.2734 C   0  0  0  0  0  0  0  0  0  0  0  0
   -1.3908   -1.1870   -2.0158 C   0  0  0  0  0  0  0  0  0  0  0  0
   -3.0979   -0.7160   -2.3538 S   0  0  0  0  0  0  0  0  0  0  0  0
   -1.6518   -1.4880    2.9316 H   0  0  0  0  0  0  0  0  0  0  0  0
   -2.1341   -0.7603    4.4735 H   0  0  0  0  0  0  0  0  0  0  0  0
   -3.2622   -1.8072    3.5936 H   0  0  0  0  0  0  0  0  0  0  0  0
   -2.2517    0.9453    2.6741 H   0  0  0  0  0  0  0  0  0  0  0  0
   -3.8442    0.6189    3.3427 H   0  0  0  0  0  0  0  0  0  0  0  0
    1.2341   -1.8292   -2.1376 H   0  0  0  0  0  0  0  0  0  0  0  0
    3.6137   -1.2503   -2.2267 H   0  0  0  0  0  0  0  0  0  0  0  0
    6.3993    1.8627   -0.7137 H   0  0  0  0  0  0  0  0  0  0  0  0
    4.9038    2.7836   -0.9172 H   0  0  0  0  0  0  0  0  0  0  0  0
    5.1869    1.7992    0.5716 H   0  0  0  0  0  0  0  0  0  0  0  0
    2.8773    2.2323    0.2021 H   0  0  0  0  0  0  0  0  0  0  0  0
    0.5053    1.6798    0.2853 H   0  0  0  0  0  0  0  0  0  0  0  0
   -1.3546   -2.2522   -1.7636 H   0  0  0  0  0  0  0  0  0  0  0  0
   -0.8216   -1.0271   -2.9353 H   0  0  0  0  0  0  0  0  0  0  0  0
  1  2  1  0
  2  3  1  0
  3  4  2  0
  4  5  1  0
  5  6  2  0
  6  7  1  0
  7  8  1  0
  8  9  2  0
  9 10  1  0
 10 11  2  0
 11 12  1  0
 12 13  2  0
 13 14  1  0
 14 15  1  0
 13 16  1  0
 16 17  2  0
  9 18  1  0
 18 19  1  0
  7  3  1  0
 17 10  1  0
 19  6  1  0
  1 20  1  0
  1 21  1  0
  1 22  1  0
  2 23  1  0
  2 24  1  0
 11 25  1  0
 12 26  1  0
 15 27  1  0
 15 28  1  0
 15 29  1  0
 16 30  1  0
 17 31  1  0
 18 32  1  0
 18 33  1  0
M  END
$$$$
