
     RDKit          3D

 57 61  0  0  0  0  0  0  0  0999 V2000
   -4.4570    3.6826    2.1802 C   0  0  0  0  0  0  0  0  0  0  0  0
   -5.1691    3.4408    1.0100 C   0  0  0  0  0  0  0  0  0  0  0  0
   -4.9062    2.2947    0.2560 C   0  0  0  0  0  0  0  0  0  0  0  0
   -3.9186    1.3694    0.6496 C   0  0  0  0  0  0  0  0  0  0  0  0
   -3.7145    0.1304   -0.2175 C   0  0  0  0  0  0  0  0  0  0  0  0
   -4.5206   -1.1126    0.1300 C   0  0  0  0  0  0  0  0  0  0  0  0
   -4.9235   -1.4201    1.4402 C   0  0  0  0  0  0  0  0  0  0  0  0
   -5.6627   -2.5746    1.7108 C   0  0  0  0  0  0  0  0  0  0  0  0
   -6.0093   -3.4430    0.6790 C   0  0  0  0  0  0  0  0  0  0  0  0
   -5.6155   -3.1605   -0.6257 C   0  0  0  0  0  0  0  0  0  0  0  0
   -4.8769   -2.0072   -0.8982 C   0  0  0  0  0  0  0  0  0  0  0  0
   -2.2600   -0.2458   -0.2525 C   0  0  0  0  0  0  0  0  0  0  0  0
   -1.6226   -0.9557    0.6968 N   0  0  0  0  0  0  0  0  0  0  0  0
   -0.3182   -1.0475    0.2193 O   0  0  0  0  0  0  0  0  0  0  0  0
   -0.2927   -0.3942   -0.9782 C   0  0  0  0  0  0  0  0  0  0  0  0
    1.0200   -0.3676   -1.6909 C   0  0  0  0  0  0  0  0  0  0  0  0
    1.7217    0.9315   -1.6105 N   0  0  0  0  0  0  0  0  0  0  0  0
    2.8590    0.9975   -2.5378 C   0  0  0  0  0  0  0  0  0  0  0  0
    4.0679    0.1675   -2.0983 C   0  0  0  0  0  0  0  0  0  0  0  0
    4.5038    0.5465   -0.6749 C   0  0  0  0  0  0  0  0  0  0  0  0
    5.6736   -0.2922   -0.1980 C   0  0  0  0  0  0  0  0  0  0  0  0
    6.9054    0.3134    0.0727 C   0  0  0  0  0  0  0  0  0  0  0  0
    7.9614   -0.4758    0.5046 C   0  0  0  0  0  0  0  0  0  0  0  0
    7.8788   -1.8103    0.6833 N   0  0  0  0  0  0  0  0  0  0  0  0
    6.6849   -2.3796    0.4187 C   0  0  0  0  0  0  0  0  0  0  0  0
    5.5717   -1.6758   -0.0176 C   0  0  0  0  0  0  0  0  0  0  0  0
    3.3093    0.4820    0.2892 C   0  0  0  0  0  0  0  0  0  0  0  0
    2.1328    1.3004   -0.2482 C   0  0  0  0  0  0  0  0  0  0  0  0
   -1.4608    0.0992   -1.3251 N   0  0  0  0  0  0  0  0  0  0  0  0
   -3.2241    1.6285    1.8449 C   0  0  0  0  0  0  0  0  0  0  0  0
   -3.4876    2.7761    2.5988 C   0  0  0  0  0  0  0  0  0  0  0  0
   -4.6605    4.5732    2.7684 H   0  0  0  0  0  0  0  0  0  0  0  0
   -5.9326    4.1420    0.6832 H   0  0  0  0  0  0  0  0  0  0  0  0
   -5.4853    2.1254   -0.6505 H   0  0  0  0  0  0  0  0  0  0  0  0
   -3.9866    0.4202   -1.2438 H   0  0  0  0  0  0  0  0  0  0  0  0
   -4.6647   -0.7684    2.2711 H   0  0  0  0  0  0  0  0  0  0  0  0
   -5.9646   -2.7955    2.7313 H   0  0  0  0  0  0  0  0  0  0  0  0
   -6.5824   -4.3409    0.8932 H   0  0  0  0  0  0  0  0  0  0  0  0
   -5.8803   -3.8393   -1.4321 H   0  0  0  0  0  0  0  0  0  0  0  0
   -4.5749   -1.8103   -1.9255 H   0  0  0  0  0  0  0  0  0  0  0  0
    1.6491   -1.1899   -1.3309 H   0  0  0  0  0  0  0  0  0  0  0  0
    0.8003   -0.5865   -2.7440 H   0  0  0  0  0  0  0  0  0  0  0  0
    2.5485    0.6945   -3.5453 H   0  0  0  0  0  0  0  0  0  0  0  0
    3.1651    2.0476   -2.6340 H   0  0  0  0  0  0  0  0  0  0  0  0
    4.8958    0.3369   -2.7984 H   0  0  0  0  0  0  0  0  0  0  0  0
    3.8254   -0.9001   -2.1639 H   0  0  0  0  0  0  0  0  0  0  0  0
    4.8314    1.5959   -0.7077 H   0  0  0  0  0  0  0  0  0  0  0  0
    7.0511    1.3820   -0.0473 H   0  0  0  0  0  0  0  0  0  0  0  0
    8.9314   -0.0391    0.7244 H   0  0  0  0  0  0  0  0  0  0  0  0
    6.6419   -3.4544    0.5706 H   0  0  0  0  0  0  0  0  0  0  0  0
    4.6468   -2.2087   -0.2097 H   0  0  0  0  0  0  0  0  0  0  0  0
    2.9911   -0.5539    0.4565 H   0  0  0  0  0  0  0  0  0  0  0  0
    3.6036    0.8741    1.2710 H   0  0  0  0  0  0  0  0  0  0  0  0
    2.4158    2.3616   -0.2539 H   0  0  0  0  0  0  0  0  0  0  0  0
    1.2901    1.2390    0.4498 H   0  0  0  0  0  0  0  0  0  0  0  0
   -2.4707    0.9390    2.2191 H   0  0  0  0  0  0  0  0  0  0  0  0
   -2.9352    2.9575    3.5173 H   0  0  0  0  0  0  0  0  0  0  0  0
  1  2  2  0
  2  3  1  0
  3  4  2  0
  4  5  1  0
  5  6  1  0
  6  7  2  0
  7  8  1  0
  8  9  2  0
  9 10  1  0
 10 11  2  0
  5 12  1  0
 12 13  2  0
 13 14  1  0
 14 15  1  0
 15 16  1  0
 16 17  1  0
 17 18  1  0
 18 19  1  0
 19 20  1  0
 20 21  1  0
 21 22  2  0
 22 23  1  0
 23 24  2  0
 24 25  1  0
 25 26  2  0
 20 27  1  0
 27 28  1  0
 15 29  2  0
  4 30  1  0
 30 31  2  0
 31  1  1  0
 11  6  1  0
 29 12  1  0
 28 17  1  0
 26 21  1  0
  1 32  1  0
  2 33  1  0
  3 34  1  0
  5 35  1  0
  7 36  1  0
  8 37  1  0
  9 38  1  0
 10 39  1  0
 11 40  1  0
 16 41  1  0
 16 42  1  0
 18 43  1  0
 18 44  1  0
 19 45  1  0
 19 46  1  0
 20 47  1  0
 22 48  1  0
 23 49  1  0
 25 50  1  0
 26 51  1  0
 27 52  1  0
 27 53  1  0
 28 54  1  0
 28 55  1  0
 30 56  1  0
 31 57  1  0
M  END
$$$$
