
     RDKit          3D

 35 37  0  0  0  0  0  0  0  0999 V2000
   -7.1869   -0.0046    0.6599 C   0  0  0  0  0  0  0  0  0  0  0  0
   -5.7397    0.2355    1.0124 C   0  0  0  0  0  0  0  0  0  0  0  0
   -5.4332    0.7427    2.0853 O   0  0  0  0  0  0  0  0  0  0  0  0
   -4.8813   -0.2027    0.0205 N   0  0  0  0  0  0  0  0  0  0  0  0
   -3.4729   -0.1416    0.0145 C   0  0  0  0  0  0  0  0  0  0  0  0
   -2.7090    0.4024    1.0462 C   0  0  0  0  0  0  0  0  0  0  0  0
   -1.3086    0.4262    0.9633 C   0  0  0  0  0  0  0  0  0  0  0  0
   -0.6446   -0.0936   -0.1539 C   0  0  0  0  0  0  0  0  0  0  0  0
    0.8067   -0.0857   -0.2738 C   0  0  0  0  0  0  0  0  0  0  0  0
    1.7086    0.4055    0.6481 C   0  0  0  0  0  0  0  0  0  0  0  0
    2.9502    0.1958    0.1025 N   0  0  0  0  0  0  0  0  0  0  0  0
    4.2072    0.5044    0.6172 C   0  0  0  0  0  0  0  0  0  0  0  0
    5.3083    0.2048   -0.0994 C   0  0  0  0  0  0  0  0  0  0  0  0
    6.7034    0.4919    0.3584 C   0  0  0  0  0  0  0  0  0  0  0  0
    5.1317   -0.4390   -1.4015 C   0  0  0  0  0  0  0  0  0  0  0  0
    3.9099   -0.7326   -1.8888 C   0  0  0  0  0  0  0  0  0  0  0  0
    2.7505   -0.4144   -1.1286 C   0  0  0  0  0  0  0  0  0  0  0  0
    1.4700   -0.5923   -1.3732 N   0  0  0  0  0  0  0  0  0  0  0  0
   -1.4174   -0.6379   -1.1869 C   0  0  0  0  0  0  0  0  0  0  0  0
   -2.8148   -0.6619   -1.1047 C   0  0  0  0  0  0  0  0  0  0  0  0
   -7.3639    0.1664   -0.4059 H   0  0  0  0  0  0  0  0  0  0  0  0
   -7.4567   -1.0320    0.9178 H   0  0  0  0  0  0  0  0  0  0  0  0
   -7.8177    0.6892    1.2231 H   0  0  0  0  0  0  0  0  0  0  0  0
   -5.3062   -0.6241   -0.7957 H   0  0  0  0  0  0  0  0  0  0  0  0
   -3.1684    0.8208    1.9364 H   0  0  0  0  0  0  0  0  0  0  0  0
   -0.7580    0.8606    1.7929 H   0  0  0  0  0  0  0  0  0  0  0  0
    1.5907    0.8717    1.6144 H   0  0  0  0  0  0  0  0  0  0  0  0
    4.2377    0.9804    1.5892 H   0  0  0  0  0  0  0  0  0  0  0  0
    6.7157    0.9729    1.3424 H   0  0  0  0  0  0  0  0  0  0  0  0
    7.2093    1.1614   -0.3453 H   0  0  0  0  0  0  0  0  0  0  0  0
    7.2821   -0.4347    0.4340 H   0  0  0  0  0  0  0  0  0  0  0  0
    6.0190   -0.6810   -1.9800 H   0  0  0  0  0  0  0  0  0  0  0  0
    3.7806   -1.2095   -2.8533 H   0  0  0  0  0  0  0  0  0  0  0  0
   -0.9313   -1.0501   -2.0698 H   0  0  0  0  0  0  0  0  0  0  0  0
   -3.3710   -1.0948   -1.9316 H   0  0  0  0  0  0  0  0  0  0  0  0
  1  2  1  0
  2  3  2  0
  2  4  1  0
  4  5  1  0
  5  6  2  0
  6  7  1  0
  7  8  2  0
  8  9  1  0
  9 10  2  0
 10 11  1  0
 11 12  1  0
 12 13  2  0
 13 14  1  0
 13 15  1  0
 15 16  2  0
 16 17  1  0
 17 18  2  0
  8 19  1  0
 19 20  2  0
 20  5  1  0
 18  9  1  0
 17 11  1  0
  1 21  1  0
  1 22  1  0
  1 23  1  0
  4 24  1  0
  6 25  1  0
  7 26  1  0
 10 27  1  0
 12 28  1  0
 14 29  1  0
 14 30  1  0
 14 31  1  0
 15 32  1  0
 16 33  1  0
 19 34  1  0
 20 35  1  0
M  END
$$$$
