
     RDKit          3D

 59 60  0  0  0  0  0  0  0  0999 V2000
    5.7661   -2.8209   -1.2457 C   0  0  0  0  0  0  0  0  0  0  0  0
    5.8965   -1.4843   -1.9774 C   0  0  0  0  0  0  0  0  0  0  0  0
    7.3752   -1.1122   -2.1123 C   0  0  0  0  0  0  0  0  0  0  0  0
    5.1353   -0.3506   -1.2678 C   0  0  0  0  0  0  0  0  0  0  0  0
    3.6243   -0.5661   -1.2250 C   0  0  0  0  0  0  0  0  0  0  0  0
    2.9491    0.5751   -0.6425 N   0  0  0  0  0  0  0  0  0  0  0  0
    1.6359    0.5031   -0.2180 C   0  0  0  0  0  0  0  0  0  0  0  0
    1.0219   -0.5620   -0.1990 O   0  0  0  0  0  0  0  0  0  0  0  0
    1.0544    1.7678    0.1703 C   0  0  0  0  0  0  0  0  0  0  0  0
    1.8077    2.8817   -0.0602 O   0  0  0  0  0  0  0  0  0  0  0  0
    1.1219    4.0084    0.3130 N   0  0  0  0  0  0  0  0  0  0  0  0
   -0.0687    3.5814    0.7545 C   0  0  0  0  0  0  0  0  0  0  0  0
   -1.0913    4.5838    1.1804 C   0  0  0  0  0  0  0  0  0  0  0  0
   -2.0247    5.2882   -0.2211 S   0  0  0  0  0  0  0  0  0  0  0  0
   -2.9922    3.8666   -0.6715 C   0  0  0  0  0  0  0  0  0  0  0  0
   -4.2846    3.7183   -0.1839 C   0  0  0  0  0  0  0  0  0  0  0  0
   -5.0224    2.6035   -0.5748 C   0  0  0  0  0  0  0  0  0  0  0  0
   -4.4532    1.6821   -1.4449 C   0  0  0  0  0  0  0  0  0  0  0  0
   -3.1624    1.9144   -1.8881 C   0  0  0  0  0  0  0  0  0  0  0  0
   -2.4203    2.9818   -1.5202 N   0  0  0  0  0  0  0  0  0  0  0  0
   -0.1482    2.1486    0.7462 C   0  0  0  0  0  0  0  0  0  0  0  0
   -1.2629    1.3516    1.2380 C   0  0  0  0  0  0  0  0  0  0  0  0
   -2.1759    1.8656    1.8809 O   0  0  0  0  0  0  0  0  0  0  0  0
   -1.2534    0.0018    0.9787 N   0  0  0  0  0  0  0  0  0  0  0  0
   -2.3811   -0.8395    1.3205 C   0  0  0  0  0  0  0  0  0  0  0  0
   -2.0291   -2.3196    1.1856 C   0  0  0  0  0  0  0  0  0  0  0  0
   -3.1777   -3.2972    1.4940 C   0  0  0  0  0  0  0  0  0  0  0  0
   -3.6562   -3.1936    2.9423 C   0  0  0  0  0  0  0  0  0  0  0  0
   -4.3528   -3.1349    0.5297 C   0  0  0  0  0  0  0  0  0  0  0  0
    6.0998   -2.7385   -0.2058 H   0  0  0  0  0  0  0  0  0  0  0  0
    4.7312   -3.1761   -1.2451 H   0  0  0  0  0  0  0  0  0  0  0  0
    6.3721   -3.5916   -1.7343 H   0  0  0  0  0  0  0  0  0  0  0  0
    5.4871   -1.6048   -2.9884 H   0  0  0  0  0  0  0  0  0  0  0  0
    7.8434   -0.9804   -1.1308 H   0  0  0  0  0  0  0  0  0  0  0  0
    7.4923   -0.1783   -2.6724 H   0  0  0  0  0  0  0  0  0  0  0  0
    7.9258   -1.8924   -2.6487 H   0  0  0  0  0  0  0  0  0  0  0  0
    5.3411    0.5954   -1.7862 H   0  0  0  0  0  0  0  0  0  0  0  0
    5.5148   -0.2259   -0.2452 H   0  0  0  0  0  0  0  0  0  0  0  0
    3.2226   -0.7012   -2.2353 H   0  0  0  0  0  0  0  0  0  0  0  0
    3.3672   -1.4537   -0.6383 H   0  0  0  0  0  0  0  0  0  0  0  0
    3.3262    1.5027   -0.8065 H   0  0  0  0  0  0  0  0  0  0  0  0
   -0.5818    5.4217    1.6720 H   0  0  0  0  0  0  0  0  0  0  0  0
   -1.7868    4.1890    1.9242 H   0  0  0  0  0  0  0  0  0  0  0  0
   -4.7155    4.4493    0.4914 H   0  0  0  0  0  0  0  0  0  0  0  0
   -6.0323    2.4587   -0.2025 H   0  0  0  0  0  0  0  0  0  0  0  0
   -5.0020    0.8054   -1.7702 H   0  0  0  0  0  0  0  0  0  0  0  0
   -2.6739    1.2261   -2.5721 H   0  0  0  0  0  0  0  0  0  0  0  0
   -0.5328   -0.3925    0.3775 H   0  0  0  0  0  0  0  0  0  0  0  0
   -2.6895   -0.5997    2.3431 H   0  0  0  0  0  0  0  0  0  0  0  0
   -3.1994   -0.5630    0.6481 H   0  0  0  0  0  0  0  0  0  0  0  0
   -1.1830   -2.5447    1.8490 H   0  0  0  0  0  0  0  0  0  0  0  0
   -1.6668   -2.5114    0.1664 H   0  0  0  0  0  0  0  0  0  0  0  0
   -2.7780   -4.3104    1.3540 H   0  0  0  0  0  0  0  0  0  0  0  0
   -4.3754   -3.9890    3.1658 H   0  0  0  0  0  0  0  0  0  0  0  0
   -2.8171   -3.2984    3.6382 H   0  0  0  0  0  0  0  0  0  0  0  0
   -4.1498   -2.2369    3.1415 H   0  0  0  0  0  0  0  0  0  0  0  0
   -5.0888   -3.9309    0.6859 H   0  0  0  0  0  0  0  0  0  0  0  0
   -4.0146   -3.1930   -0.5104 H   0  0  0  0  0  0  0  0  0  0  0  0
   -4.8668   -2.1784    0.6698 H   0  0  0  0  0  0  0  0  0  0  0  0
  1  2  1  0
  2  3  1  0
  2  4  1  0
  4  5  1  0
  5  6  1  0
  6  7  1  0
  7  8  2  0
  7  9  1  0
  9 10  1  0
 10 11  1  0
 11 12  2  0
 12 13  1  0
 13 14  1  0
 14 15  1  0
 15 16  2  0
 16 17  1  0
 17 18  2  0
 18 19  1  0
 19 20  2  0
 12 21  1  0
 21 22  1  0
 22 23  2  0
 22 24  1  0
 24 25  1  0
 25 26  1  0
 26 27  1  0
 27 28  1  0
 27 29  1  0
 21  9  2  0
 20 15  1  0
  1 30  1  0
  1 31  1  0
  1 32  1  0
  2 33  1  0
  3 34  1  0
  3 35  1  0
  3 36  1  0
  4 37  1  0
  4 38  1  0
  5 39  1  0
  5 40  1  0
  6 41  1  0
 13 42  1  0
 13 43  1  0
 16 44  1  0
 17 45  1  0
 18 46  1  0
 19 47  1  0
 24 48  1  0
 25 49  1  0
 25 50  1  0
 26 51  1  0
 26 52  1  0
 27 53  1  0
 28 54  1  0
 28 55  1  0
 28 56  1  0
 29 57  1  0
 29 58  1  0
 29 59  1  0
M  END
$$$$
