
     RDKit          3D

 52 54  0  0  0  0  0  0  0  0999 V2000
    2.5964    1.1794   -4.1126 C   0  0  0  0  0  0  0  0  0  0  0  0
    1.8260    0.5410   -2.9736 C   0  0  0  0  0  0  0  0  0  0  0  0
    2.7356    0.3179   -1.8888 O   0  0  0  0  0  0  0  0  0  0  0  0
    2.1858   -0.2925   -0.8101 C   0  0  0  0  0  0  0  0  0  0  0  0
    1.0197   -0.6468   -0.7123 O   0  0  0  0  0  0  0  0  0  0  0  0
    3.1879   -0.4679    0.2803 C   0  0  0  0  0  0  0  0  0  0  0  0
    4.5599   -0.3407   -0.0106 C   0  0  0  0  0  0  0  0  0  0  0  0
    5.5170   -0.5430    0.9814 C   0  0  0  0  0  0  0  0  0  0  0  0
    5.1134   -0.8754    2.2685 C   0  0  0  0  0  0  0  0  0  0  0  0
    3.7542   -1.0062    2.5695 C   0  0  0  0  0  0  0  0  0  0  0  0
    2.7715   -0.8101    1.5893 C   0  0  0  0  0  0  0  0  0  0  0  0
    1.3860   -0.9086    1.8933 N   0  0  0  0  0  0  0  0  0  0  0  0
    0.8095   -1.4889    3.0048 C   0  0  0  0  0  0  0  0  0  0  0  0
    1.4165   -2.0663    3.9050 O   0  0  0  0  0  0  0  0  0  0  0  0
   -0.7025   -1.3326    3.1184 C   0  0  0  0  0  0  0  0  0  0  0  0
   -1.0777    0.0781    3.5558 C   0  0  0  0  0  0  0  0  0  0  0  0
   -1.6038    0.7295    2.3028 C   0  0  0  0  0  0  0  0  0  0  0  0
   -1.9396    1.8999    2.2310 O   0  0  0  0  0  0  0  0  0  0  0  0
   -1.6660   -0.2289    1.2965 N   0  0  0  0  0  0  0  0  0  0  0  0
   -2.3568   -0.0371    0.0169 C   0  0  0  0  0  0  0  0  0  0  0  0
   -1.8733    1.2029   -0.7534 C   0  0  0  0  0  0  0  0  0  0  0  0
   -2.5692    1.3147   -2.1083 C   0  0  0  0  0  0  0  0  0  0  0  0
   -4.0873    1.3369   -1.9511 C   0  0  0  0  0  0  0  0  0  0  0  0
   -4.5923    0.1346   -1.1580 C   0  0  0  0  0  0  0  0  0  0  0  0
   -3.8827   -0.0003    0.1884 C   0  0  0  0  0  0  0  0  0  0  0  0
   -1.4671   -1.5582    1.8305 C   0  0  0  0  0  0  0  0  0  0  0  0
    3.0459    2.1249   -3.7917 H   0  0  0  0  0  0  0  0  0  0  0  0
    1.9417    1.3715   -4.9671 H   0  0  0  0  0  0  0  0  0  0  0  0
    3.4171    0.5298   -4.4344 H   0  0  0  0  0  0  0  0  0  0  0  0
    1.0238    1.2121   -2.6484 H   0  0  0  0  0  0  0  0  0  0  0  0
    1.3994   -0.4128   -3.3037 H   0  0  0  0  0  0  0  0  0  0  0  0
    4.8996   -0.0927   -1.0137 H   0  0  0  0  0  0  0  0  0  0  0  0
    6.5747   -0.4434    0.7499 H   0  0  0  0  0  0  0  0  0  0  0  0
    5.8542   -1.0314    3.0497 H   0  0  0  0  0  0  0  0  0  0  0  0
    3.4939   -1.2451    3.5968 H   0  0  0  0  0  0  0  0  0  0  0  0
    0.7593   -0.6514    1.1261 H   0  0  0  0  0  0  0  0  0  0  0  0
   -1.0240   -2.0686    3.8665 H   0  0  0  0  0  0  0  0  0  0  0  0
   -1.8875    0.0553    4.2924 H   0  0  0  0  0  0  0  0  0  0  0  0
   -0.2328    0.6495    3.9504 H   0  0  0  0  0  0  0  0  0  0  0  0
   -2.0991   -0.9139   -0.5932 H   0  0  0  0  0  0  0  0  0  0  0  0
   -2.0736    2.1190   -0.1871 H   0  0  0  0  0  0  0  0  0  0  0  0
   -0.7898    1.1625   -0.8989 H   0  0  0  0  0  0  0  0  0  0  0  0
   -2.2385    2.2264   -2.6185 H   0  0  0  0  0  0  0  0  0  0  0  0
   -2.2766    0.4689   -2.7425 H   0  0  0  0  0  0  0  0  0  0  0  0
   -4.5603    1.3517   -2.9395 H   0  0  0  0  0  0  0  0  0  0  0  0
   -4.3865    2.2604   -1.4400 H   0  0  0  0  0  0  0  0  0  0  0  0
   -4.4342   -0.7792   -1.7442 H   0  0  0  0  0  0  0  0  0  0  0  0
   -5.6723    0.2266   -0.9973 H   0  0  0  0  0  0  0  0  0  0  0  0
   -4.2299   -0.9122    0.6884 H   0  0  0  0  0  0  0  0  0  0  0  0
   -4.1702    0.8375    0.8360 H   0  0  0  0  0  0  0  0  0  0  0  0
   -0.9427   -2.1864    1.1043 H   0  0  0  0  0  0  0  0  0  0  0  0
   -2.4526   -1.9907    2.0366 H   0  0  0  0  0  0  0  0  0  0  0  0
  1  2  1  0
  2  3  1  0
  3  4  1  0
  4  5  2  0
  4  6  1  0
  6  7  2  0
  7  8  1  0
  8  9  2  0
  9 10  1  0
 10 11  2  0
 11 12  1  0
 12 13  1  0
 13 14  2  0
 13 15  1  0
 15 16  1  0
 16 17  1  0
 17 18  2  0
 17 19  1  0
 19 20  1  0
 20 21  1  0
 21 22  1  0
 22 23  1  0
 23 24  1  0
 24 25  1  0
 19 26  1  0
 11  6  1  0
 26 15  1  0
 25 20  1  0
  1 27  1  0
  1 28  1  0
  1 29  1  0
  2 30  1  0
  2 31  1  0
  7 32  1  0
  8 33  1  0
  9 34  1  0
 10 35  1  0
 12 36  1  0
 15 37  1  0
 16 38  1  0
 16 39  1  0
 20 40  1  0
 21 41  1  0
 21 42  1  0
 22 43  1  0
 22 44  1  0
 23 45  1  0
 23 46  1  0
 24 47  1  0
 24 48  1  0
 25 49  1  0
 25 50  1  0
 26 51  1  0
 26 52  1  0
M  END
$$$$
