
     RDKit          3D

 59 62  0  0  0  0  0  0  0  0999 V2000
    1.0160    0.5501   -3.1561 O   0  0  0  0  0  0  0  0  0  0  0  0
    0.4188    0.4036   -2.0912 C   0  0  0  0  0  0  0  0  0  0  0  0
   -0.9423    0.3784   -2.1044 N   0  0  0  0  0  0  0  0  0  0  0  0
   -1.7800    0.2195   -1.0440 C   0  0  0  0  0  0  0  0  0  0  0  0
   -2.9953    0.1542   -1.2225 O   0  0  0  0  0  0  0  0  0  0  0  0
   -1.1266    0.0179    0.3054 C   0  0  0  0  0  0  0  0  0  0  0  0
   -1.9556    0.7231    1.4186 C   0  0  0  0  0  0  0  0  0  0  0  0
   -1.8155    2.2543    1.5598 C   0  0  0  0  0  0  0  0  0  0  0  0
   -1.9650    3.0486    0.2911 C   0  0  0  0  0  0  0  0  0  0  0  0
   -0.8665    3.7054   -0.2710 C   0  0  0  0  0  0  0  0  0  0  0  0
   -1.0390    4.3951   -1.4609 C   0  0  0  0  0  0  0  0  0  0  0  0
   -2.2147    4.4724   -2.1178 N   0  0  0  0  0  0  0  0  0  0  0  0
   -3.2702    3.8540   -1.5465 C   0  0  0  0  0  0  0  0  0  0  0  0
   -3.1980    3.1458   -0.3571 C   0  0  0  0  0  0  0  0  0  0  0  0
   -1.0570   -1.5254    0.5472 C   0  0  0  0  0  0  0  0  0  0  0  0
   -2.3944   -2.2174    0.8502 C   0  0  0  0  0  0  0  0  0  0  0  0
   -2.2151   -3.7098    0.9784 C   0  0  0  0  0  0  0  0  0  0  0  0
   -1.7954   -4.2797    2.1831 C   0  0  0  0  0  0  0  0  0  0  0  0
   -1.6250   -5.6545    2.2439 C   0  0  0  0  0  0  0  0  0  0  0  0
   -1.8372   -6.4853    1.2016 N   0  0  0  0  0  0  0  0  0  0  0  0
   -2.2412   -5.9149    0.0468 C   0  0  0  0  0  0  0  0  0  0  0  0
   -2.4389   -4.5519   -0.1137 C   0  0  0  0  0  0  0  0  0  0  0  0
    0.3290    0.4746    0.3187 C   0  0  0  0  0  0  0  0  0  0  0  0
    0.8480    0.8975    1.3529 O   0  0  0  0  0  0  0  0  0  0  0  0
    1.0397    0.2926   -0.8603 N   0  0  0  0  0  0  0  0  0  0  0  0
    2.5109    0.4114   -0.8504 C   0  0  0  0  0  0  0  0  0  0  0  0
    3.1984   -0.5060    0.1735 C   0  0  0  0  0  0  0  0  0  0  0  0
    4.7189   -0.5109   -0.0135 C   0  0  0  0  0  0  0  0  0  0  0  0
    5.2787    0.8215   -0.5177 C   0  0  0  0  0  0  0  0  0  0  0  0
    4.3940    1.9992   -0.1305 C   0  0  0  0  0  0  0  0  0  0  0  0
    2.9851    1.8731   -0.7162 C   0  0  0  0  0  0  0  0  0  0  0  0
   -1.3770    0.5035   -3.0086 H   0  0  0  0  0  0  0  0  0  0  0  0
   -1.6862    0.2919    2.3927 H   0  0  0  0  0  0  0  0  0  0  0  0
   -3.0218    0.5002    1.2798 H   0  0  0  0  0  0  0  0  0  0  0  0
   -0.8606    2.4999    2.0386 H   0  0  0  0  0  0  0  0  0  0  0  0
   -2.5747    2.6057    2.2718 H   0  0  0  0  0  0  0  0  0  0  0  0
    0.1089    3.6871    0.2053 H   0  0  0  0  0  0  0  0  0  0  0  0
   -0.2104    4.9173   -1.9309 H   0  0  0  0  0  0  0  0  0  0  0  0
   -4.2075    3.9386   -2.0891 H   0  0  0  0  0  0  0  0  0  0  0  0
   -4.0854    2.6599    0.0364 H   0  0  0  0  0  0  0  0  0  0  0  0
   -0.5982   -2.0112   -0.3265 H   0  0  0  0  0  0  0  0  0  0  0  0
   -0.3690   -1.7241    1.3820 H   0  0  0  0  0  0  0  0  0  0  0  0
   -3.1300   -2.0152    0.0648 H   0  0  0  0  0  0  0  0  0  0  0  0
   -2.8280   -1.8375    1.7826 H   0  0  0  0  0  0  0  0  0  0  0  0
   -1.6037   -3.6718    3.0609 H   0  0  0  0  0  0  0  0  0  0  0  0
   -1.3022   -6.1377    3.1617 H   0  0  0  0  0  0  0  0  0  0  0  0
   -2.4074   -6.6044   -0.7760 H   0  0  0  0  0  0  0  0  0  0  0  0
   -2.7635   -4.1618   -1.0729 H   0  0  0  0  0  0  0  0  0  0  0  0
    2.8629    0.0571   -1.8297 H   0  0  0  0  0  0  0  0  0  0  0  0
    2.8164   -1.5307    0.0912 H   0  0  0  0  0  0  0  0  0  0  0  0
    2.9816   -0.1801    1.1968 H   0  0  0  0  0  0  0  0  0  0  0  0
    5.1890   -0.7729    0.9423 H   0  0  0  0  0  0  0  0  0  0  0  0
    5.0033   -1.3011   -0.7190 H   0  0  0  0  0  0  0  0  0  0  0  0
    5.3684    0.7857   -1.6107 H   0  0  0  0  0  0  0  0  0  0  0  0
    6.2929    0.9643   -0.1281 H   0  0  0  0  0  0  0  0  0  0  0  0
    4.8468    2.9395   -0.4651 H   0  0  0  0  0  0  0  0  0  0  0  0
    4.3286    2.0557    0.9635 H   0  0  0  0  0  0  0  0  0  0  0  0
    2.9606    2.3377   -1.7106 H   0  0  0  0  0  0  0  0  0  0  0  0
    2.3016    2.4678   -0.1005 H   0  0  0  0  0  0  0  0  0  0  0  0
  1  2  2  0
  2  3  1  0
  3  4  1  0
  4  5  2  0
  4  6  1  0
  6  7  1  0
  7  8  1  0
  8  9  1  0
  9 10  2  0
 10 11  1  0
 11 12  2  0
 12 13  1  0
 13 14  2  0
  6 15  1  0
 15 16  1  0
 16 17  1  0
 17 18  2  0
 18 19  1  0
 19 20  2  0
 20 21  1  0
 21 22  2  0
  6 23  1  0
 23 24  2  0
 23 25  1  0
 25 26  1  0
 26 27  1  0
 27 28  1  0
 28 29  1  0
 29 30  1  0
 30 31  1  0
 25  2  1  0
 31 26  1  0
 14  9  1  0
 22 17  1  0
  3 32  1  0
  7 33  1  0
  7 34  1  0
  8 35  1  0
  8 36  1  0
 10 37  1  0
 11 38  1  0
 13 39  1  0
 14 40  1  0
 15 41  1  0
 15 42  1  0
 16 43  1  0
 16 44  1  0
 18 45  1  0
 19 46  1  0
 21 47  1  0
 22 48  1  0
 26 49  1  0
 27 50  1  0
 27 51  1  0
 28 52  1  0
 28 53  1  0
 29 54  1  0
 29 55  1  0
 30 56  1  0
 30 57  1  0
 31 58  1  0
 31 59  1  0
M  END
$$$$
