
     RDKit          3D

 46 48  0  0  0  0  0  0  0  0999 V2000
    5.6210    2.9211    1.6551 C   0  0  0  0  0  0  0  0  0  0  0  0
    5.0753    1.9840    2.6886 C   0  0  0  0  0  0  0  0  0  0  0  0
    5.7116    1.5543    3.6399 O   0  0  0  0  0  0  0  0  0  0  0  0
    3.7766    1.6872    2.4085 O   0  0  0  0  0  0  0  0  0  0  0  0
    3.1222    0.8010    3.3292 C   0  0  0  0  0  0  0  0  0  0  0  0
    3.4200   -0.6623    3.0052 C   0  0  0  0  0  0  0  0  0  0  0  0
    2.9553   -1.0716    1.6043 C   0  0  0  0  0  0  0  0  0  0  0  0
    1.4932   -1.1049    1.5433 N   0  0  0  0  0  0  0  0  0  0  0  0
    0.7643   -1.4916    0.4085 C   0  0  0  0  0  0  0  0  0  0  0  0
   -0.6314   -1.7251    0.6510 C   0  0  0  0  0  0  0  0  0  0  0  0
   -1.5944   -2.0625   -0.3323 C   0  0  0  0  0  0  0  0  0  0  0  0
   -3.2902   -2.3544    0.0513 S   0  0  0  0  0  0  0  0  0  0  0  0
   -4.0385   -0.8912   -0.6410 C   0  0  0  0  0  0  0  0  0  0  0  0
   -4.7685   -0.9798   -1.8288 C   0  0  0  0  0  0  0  0  0  0  0  0
   -5.3626    0.1593   -2.3786 C   0  0  0  0  0  0  0  0  0  0  0  0
   -5.2302    1.4022   -1.7494 C   0  0  0  0  0  0  0  0  0  0  0  0
   -5.8977    2.6186   -2.3194 C   0  0  0  0  0  0  0  0  0  0  0  0
   -4.5160    1.4840   -0.5480 C   0  0  0  0  0  0  0  0  0  0  0  0
   -3.9218    0.3446    0.0017 C   0  0  0  0  0  0  0  0  0  0  0  0
   -1.0978   -2.1621   -1.6494 C   0  0  0  0  0  0  0  0  0  0  0  0
   -1.7159   -2.4780   -2.7968 N   0  0  0  0  0  0  0  0  0  0  0  0
   -0.7553   -2.4097   -3.7845 O   0  0  0  0  0  0  0  0  0  0  0  0
    0.4774   -2.0556   -3.2726 N   0  0  0  0  0  0  0  0  0  0  0  0
    0.3024   -1.8990   -1.9523 C   0  0  0  0  0  0  0  0  0  0  0  0
    1.2085   -1.5477   -0.9309 C   0  0  0  0  0  0  0  0  0  0  0  0
    2.5401   -1.2875   -1.3695 N   0  0  0  0  0  4  0  0  0  0  0  0
    3.3402   -2.2327   -1.3259 O   0  0  0  0  0  0  0  0  0  0  0  0
    2.7973   -0.1360   -1.7446 O   0  0  0  0  0  1  0  0  0  0  0  0
    5.5203    2.4768    0.6613 H   0  0  0  0  0  0  0  0  0  0  0  0
    6.6837    3.0945    1.8495 H   0  0  0  0  0  0  0  0  0  0  0  0
    5.0934    3.8770    1.7059 H   0  0  0  0  0  0  0  0  0  0  0  0
    3.4124    1.0357    4.3603 H   0  0  0  0  0  0  0  0  0  0  0  0
    2.0476    0.9993    3.2566 H   0  0  0  0  0  0  0  0  0  0  0  0
    2.9509   -1.3024    3.7616 H   0  0  0  0  0  0  0  0  0  0  0  0
    4.5016   -0.8310    3.0621 H   0  0  0  0  0  0  0  0  0  0  0  0
    3.3488   -2.0711    1.3896 H   0  0  0  0  0  0  0  0  0  0  0  0
    3.3635   -0.3643    0.8784 H   0  0  0  0  0  0  0  0  0  0  0  0
    1.0907   -1.4864    2.4001 H   0  0  0  0  0  0  0  0  0  0  0  0
   -0.9947   -1.6325    1.6780 H   0  0  0  0  0  0  0  0  0  0  0  0
   -4.8768   -1.9340   -2.3408 H   0  0  0  0  0  0  0  0  0  0  0  0
   -5.9288    0.0669   -3.3036 H   0  0  0  0  0  0  0  0  0  0  0  0
   -6.0164    2.5302   -3.4040 H   0  0  0  0  0  0  0  0  0  0  0  0
   -5.2988    3.5165   -2.1310 H   0  0  0  0  0  0  0  0  0  0  0  0
   -6.8859    2.7497   -1.8673 H   0  0  0  0  0  0  0  0  0  0  0  0
   -4.4207    2.4370   -0.0308 H   0  0  0  0  0  0  0  0  0  0  0  0
   -3.3757    0.4336    0.9373 H   0  0  0  0  0  0  0  0  0  0  0  0
  1  2  1  0
  2  3  2  0
  2  4  1  0
  4  5  1  0
  5  6  1  0
  6  7  1  0
  7  8  1  0
  8  9  1  0
  9 10  1  0
 10 11  2  0
 11 12  1  0
 12 13  1  0
 13 14  2  0
 14 15  1  0
 15 16  2  0
 16 17  1  0
 16 18  1  0
 18 19  2  0
 11 20  1  0
 20 21  2  0
 21 22  1  0
 22 23  1  0
 23 24  2  0
 24 25  1  0
 25 26  1  0
 26 27  2  0
 26 28  1  0
 25  9  2  0
 19 13  1  0
 24 20  1  0
  1 29  1  0
  1 30  1  0
  1 31  1  0
  5 32  1  0
  5 33  1  0
  6 34  1  0
  6 35  1  0
  7 36  1  0
  7 37  1  0
  8 38  1  0
 10 39  1  0
 14 40  1  0
 15 41  1  0
 17 42  1  0
 17 43  1  0
 17 44  1  0
 18 45  1  0
 19 46  1  0
M  CHG  2  26   1  28  -1
M  END
$$$$
