
     RDKit          3D

 42 42  0  0  0  0  0  0  0  0999 V2000
    0.1281   -4.0821    1.1222 C   0  0  0  0  0  0  0  0  0  0  0  0
   -0.5146   -2.8250    0.5551 C   0  0  0  0  0  0  0  0  0  0  0  0
   -0.9488   -1.8724    1.6674 C   0  0  0  0  0  0  0  0  0  0  0  0
   -1.7225   -0.6360    1.1864 C   0  0  0  0  0  0  0  0  0  0  0  0
   -1.0289    0.3723    0.2422 C   0  0  0  0  0  0  0  0  0  0  0  0
   -1.8530    1.6565    0.2221 C   0  0  0  0  0  0  0  0  0  0  0  0
   -1.4188    2.7566    0.5427 O   0  0  0  0  0  0  0  0  0  0  0  0
   -3.1245    1.4252   -0.2022 O   0  0  0  0  0  0  0  0  0  0  0  0
   -3.9876    2.5688   -0.2922 C   0  0  0  0  0  0  0  0  0  0  0  0
   -3.8149    3.2465   -1.6383 C   0  0  0  0  0  0  0  0  0  0  0  0
    0.4270    0.6797    0.5996 C   0  0  0  0  0  0  0  0  0  0  0  0
    1.0033    1.1057   -0.7395 C   0  0  0  0  0  0  0  0  0  0  0  0
    2.5216    0.9806   -0.9002 C   0  0  0  0  0  0  0  0  0  0  0  0
    3.1738   -0.7090   -0.6550 S   0  0  0  0  0  0  0  0  0  0  0  0
    4.8344   -0.3748   -1.0059 C   0  0  0  0  0  0  0  0  0  0  0  0
    5.2433   -0.3966   -2.2201 N   0  0  0  0  0  0  0  0  0  0  0  0
    5.6442   -0.1225    0.0408 N   0  0  0  0  0  0  0  0  0  0  0  0
    0.3130    0.3011   -1.7032 O   0  0  0  0  0  0  0  0  0  0  0  0
   -0.8788   -0.1192   -1.1774 C   0  0  0  0  0  0  0  0  0  0  0  0
   -1.6889   -0.7813   -1.8058 O   0  0  0  0  0  0  0  0  0  0  0  0
    0.4348   -4.7496    0.3108 H   0  0  0  0  0  0  0  0  0  0  0  0
    1.0160   -3.8355    1.7133 H   0  0  0  0  0  0  0  0  0  0  0  0
   -0.5722   -4.6268    1.7634 H   0  0  0  0  0  0  0  0  0  0  0  0
   -1.3812   -3.1092   -0.0524 H   0  0  0  0  0  0  0  0  0  0  0  0
    0.2080   -2.3397   -0.1069 H   0  0  0  0  0  0  0  0  0  0  0  0
   -1.6061   -2.4208    2.3555 H   0  0  0  0  0  0  0  0  0  0  0  0
   -0.0840   -1.5710    2.2689 H   0  0  0  0  0  0  0  0  0  0  0  0
   -2.6513   -0.9897    0.7177 H   0  0  0  0  0  0  0  0  0  0  0  0
   -2.0411   -0.0962    2.0895 H   0  0  0  0  0  0  0  0  0  0  0  0
   -3.8111    3.2659    0.5348 H   0  0  0  0  0  0  0  0  0  0  0  0
   -5.0147    2.2031   -0.1922 H   0  0  0  0  0  0  0  0  0  0  0  0
   -4.5089    4.0853   -1.7423 H   0  0  0  0  0  0  0  0  0  0  0  0
   -2.7935    3.6204   -1.7619 H   0  0  0  0  0  0  0  0  0  0  0  0
   -3.9941    2.5361   -2.4520 H   0  0  0  0  0  0  0  0  0  0  0  0
    0.9397   -0.2105    0.9670 H   0  0  0  0  0  0  0  0  0  0  0  0
    0.5520    1.4553    1.3621 H   0  0  0  0  0  0  0  0  0  0  0  0
    0.7385    2.1497   -0.9513 H   0  0  0  0  0  0  0  0  0  0  0  0
    2.7935    1.2892   -1.9156 H   0  0  0  0  0  0  0  0  0  0  0  0
    3.0205    1.6513   -0.1926 H   0  0  0  0  0  0  0  0  0  0  0  0
    4.4382   -0.6359   -2.8107 H   0  0  0  0  0  0  0  0  0  0  0  0
    6.6206   -0.2347   -0.2099 H   0  0  0  0  0  0  0  0  0  0  0  0
    5.3891   -0.6108    0.8896 H   0  0  0  0  0  0  0  0  0  0  0  0
  1  2  1  0
  2  3  1  0
  3  4  1  0
  4  5  1  0
  5  6  1  0
  6  7  2  0
  6  8  1  0
  8  9  1  0
  9 10  1  0
  5 11  1  0
 11 12  1  0
 12 13  1  0
 13 14  1  0
 14 15  1  0
 15 16  2  3
 15 17  1  0
 12 18  1  0
 18 19  1  0
 19 20  2  0
 19  5  1  0
  1 21  1  0
  1 22  1  0
  1 23  1  0
  2 24  1  0
  2 25  1  0
  3 26  1  0
  3 27  1  0
  4 28  1  0
  4 29  1  0
  9 30  1  0
  9 31  1  0
 10 32  1  0
 10 33  1  0
 10 34  1  0
 11 35  1  0
 11 36  1  0
 12 37  1  0
 13 38  1  0
 13 39  1  0
 16 40  1  0
 17 41  1  0
 17 42  1  0
M  END
$$$$
