
     RDKit          3D

 62 65  0  0  0  0  0  0  0  0999 V2000
   -5.8112   -2.5732   -3.2566 C   0  0  0  0  0  0  0  0  0  0  0  0
   -4.9929   -2.7752   -1.9960 C   0  0  0  0  0  0  0  0  0  0  0  0
   -3.7380   -2.1064   -2.1698 O   0  0  0  0  0  0  0  0  0  0  0  0
   -2.9241   -2.1631   -1.0846 C   0  0  0  0  0  0  0  0  0  0  0  0
   -3.1819   -2.6979   -0.0171 O   0  0  0  0  0  0  0  0  0  0  0  0
   -1.6655   -1.4229   -1.3496 C   0  0  0  0  0  0  0  0  0  0  0  0
   -0.8290   -1.8466   -2.3382 C   0  0  0  0  0  0  0  0  0  0  0  0
   -1.1464   -2.9825   -3.2848 C   0  0  0  0  0  0  0  0  0  0  0  0
    0.4691   -1.3621   -2.5118 N   0  0  0  0  0  0  0  0  0  0  0  0
    0.9754   -0.7413   -1.4968 C   0  0  0  0  0  0  0  0  0  0  0  0
    2.6567   -0.3211   -1.3571 S   0  0  0  0  0  0  0  0  0  0  0  0
    2.5192   -0.2270    0.3853 C   0  0  0  0  0  0  0  0  0  0  0  0
    3.5655   -0.2597    1.2392 C   0  0  0  0  0  0  0  0  0  0  0  0
    3.3984   -0.3430    2.6146 O   0  0  0  0  0  0  0  0  0  0  0  0
    4.9835   -0.2878    0.8432 C   0  0  0  0  0  0  0  0  0  0  0  0
    5.5815    0.8023    0.1984 C   0  0  0  0  0  0  0  0  0  0  0  0
    6.9344    0.7647   -0.1631 C   0  0  0  0  0  0  0  0  0  0  0  0
    7.7055   -0.3624    0.1209 C   0  0  0  0  0  0  0  0  0  0  0  0
    9.0297   -0.5298   -0.1776 O   0  0  0  0  0  0  0  0  0  0  0  0
    9.6805    0.5496   -0.8379 C   0  0  0  0  0  0  0  0  0  0  0  0
    7.1139   -1.4459    0.7730 C   0  0  0  0  0  0  0  0  0  0  0  0
    5.7651   -1.4098    1.1373 C   0  0  0  0  0  0  0  0  0  0  0  0
    1.0970   -0.1843    0.7727 C   0  0  0  0  0  0  0  0  0  0  0  0
    0.7569    0.0307    2.1060 N   0  0  0  0  0  0  0  0  0  0  0  0
    0.2506   -0.3668   -0.2600 C   0  0  0  0  0  0  0  0  0  0  0  0
   -1.2044   -0.3500   -0.4284 C   0  0  0  0  0  0  0  0  0  0  0  0
   -2.0077    0.6474    0.0565 C   0  0  0  0  0  0  0  0  0  0  0  0
   -3.4580    0.7197   -0.2172 C   0  0  0  0  0  0  0  0  0  0  0  0
   -4.2564    1.5345    0.4961 C   0  0  0  0  0  0  0  0  0  0  0  0
   -3.6938    2.4108    1.5306 C   0  0  0  0  0  0  0  0  0  0  0  0
   -4.5085    3.0604    2.3985 C   0  0  0  0  0  0  0  0  0  0  0  0
   -4.0236    3.8875    3.3957 O   0  0  0  0  0  0  0  0  0  0  0  0
   -5.8808    2.8759    2.3171 O   0  0  0  0  0  0  0  0  0  0  0  0
   -6.6319    3.8241    3.0663 C   0  0  0  0  0  0  0  0  0  0  0  0
   -2.2459    2.6473    1.4778 C   0  0  0  0  0  0  0  0  0  0  0  0
   -1.4534    1.8265    0.7637 C   0  0  0  0  0  0  0  0  0  0  0  0
   -5.9783   -1.5060   -3.4397 H   0  0  0  0  0  0  0  0  0  0  0  0
   -5.2796   -2.9674   -4.1286 H   0  0  0  0  0  0  0  0  0  0  0  0
   -6.7797   -3.0740   -3.1779 H   0  0  0  0  0  0  0  0  0  0  0  0
   -5.5260   -2.3512   -1.1362 H   0  0  0  0  0  0  0  0  0  0  0  0
   -4.8201   -3.8451   -1.8343 H   0  0  0  0  0  0  0  0  0  0  0  0
   -1.8386   -3.7147   -2.8595 H   0  0  0  0  0  0  0  0  0  0  0  0
   -1.5701   -2.5876   -4.2139 H   0  0  0  0  0  0  0  0  0  0  0  0
   -0.2349   -3.5372   -3.5375 H   0  0  0  0  0  0  0  0  0  0  0  0
    2.4508   -0.5407    2.7706 H   0  0  0  0  0  0  0  0  0  0  0  0
    4.9996    1.6932   -0.0269 H   0  0  0  0  0  0  0  0  0  0  0  0
    7.3510    1.6325   -0.6617 H   0  0  0  0  0  0  0  0  0  0  0  0
   10.7207    0.2568   -1.0127 H   0  0  0  0  0  0  0  0  0  0  0  0
    9.6888    1.4481   -0.2099 H   0  0  0  0  0  0  0  0  0  0  0  0
    9.2243    0.7508   -1.8142 H   0  0  0  0  0  0  0  0  0  0  0  0
    7.7085   -2.3255    1.0031 H   0  0  0  0  0  0  0  0  0  0  0  0
    5.3280   -2.2617    1.6527 H   0  0  0  0  0  0  0  0  0  0  0  0
   -0.2581    0.0243    2.2396 H   0  0  0  0  0  0  0  0  0  0  0  0
    1.1180    0.9357    2.4237 H   0  0  0  0  0  0  0  0  0  0  0  0
   -3.9064    0.1533   -1.0212 H   0  0  0  0  0  0  0  0  0  0  0  0
   -5.3214    1.5792    0.2877 H   0  0  0  0  0  0  0  0  0  0  0  0
   -3.1178    3.6056    3.6017 H   0  0  0  0  0  0  0  0  0  0  0  0
   -7.6933    3.6270    2.8890 H   0  0  0  0  0  0  0  0  0  0  0  0
   -6.4169    4.8459    2.7361 H   0  0  0  0  0  0  0  0  0  0  0  0
   -6.4448    3.7147    4.1391 H   0  0  0  0  0  0  0  0  0  0  0  0
   -1.8283    3.5394    1.9327 H   0  0  0  0  0  0  0  0  0  0  0  0
   -0.4053    2.0818    0.6516 H   0  0  0  0  0  0  0  0  0  0  0  0
  1  2  1  0
  2  3  1  0
  3  4  1  0
  4  5  2  0
  4  6  1  0
  6  7  2  0
  7  8  1  0
  7  9  1  0
  9 10  2  0
 10 11  1  0
 11 12  1  0
 12 13  2  3
 13 14  1  0
 13 15  1  0
 15 16  2  0
 16 17  1  0
 17 18  2  0
 18 19  1  0
 19 20  1  0
 18 21  1  0
 21 22  2  0
 12 23  1  0
 23 24  1  0
 23 25  2  0
 25 26  1  0
 26 27  2  3
 27 28  1  0
 28 29  2  0
 29 30  1  0
 30 31  2  3
 31 32  1  0
 31 33  1  0
 33 34  1  0
 30 35  1  0
 35 36  2  0
 26  6  1  0
 36 27  1  0
 25 10  1  0
 22 15  1  0
  1 37  1  0
  1 38  1  0
  1 39  1  0
  2 40  1  0
  2 41  1  0
  8 42  1  0
  8 43  1  0
  8 44  1  0
 14 45  1  0
 16 46  1  0
 17 47  1  0
 20 48  1  0
 20 49  1  0
 20 50  1  0
 21 51  1  0
 22 52  1  0
 24 53  1  0
 24 54  1  0
 28 55  1  0
 29 56  1  0
 32 57  1  0
 34 58  1  0
 34 59  1  0
 34 60  1  0
 35 61  1  0
 36 62  1  0
M  END
$$$$
