
     RDKit          3D

 63 68  0  0  0  0  0  0  0  0999 V2000
   -3.6097    3.9233    4.6200 C   0  0  0  0  0  0  0  0  0  0  0  0
   -3.5270    2.5069    4.5312 O   0  0  0  0  0  0  0  0  0  0  0  0
   -3.0662    1.9885    3.3522 C   0  0  0  0  0  0  0  0  0  0  0  0
   -3.0155    0.5944    3.3070 C   0  0  0  0  0  0  0  0  0  0  0  0
   -2.5631   -0.0679    2.1628 C   0  0  0  0  0  0  0  0  0  0  0  0
   -2.1551    0.6578    1.0329 C   0  0  0  0  0  0  0  0  0  0  0  0
   -1.6543   -0.0410   -0.2345 C   0  0  0  0  0  0  0  0  0  0  0  0
   -2.6909   -1.0058   -0.7843 C   0  0  0  0  0  0  0  0  0  0  0  0
   -3.8874   -0.5345   -1.3383 C   0  0  0  0  0  0  0  0  0  0  0  0
   -4.8474   -1.4308   -1.8084 C   0  0  0  0  0  0  0  0  0  0  0  0
   -4.6377   -2.8158   -1.7340 C   0  0  0  0  0  0  0  0  0  0  0  0
   -5.6097   -3.7151   -2.2035 C   0  0  0  0  0  0  0  0  0  0  0  0
   -5.4057   -5.0932   -2.1310 C   0  0  0  0  0  0  0  0  0  0  0  0
   -4.2272   -5.5910   -1.5883 C   0  0  0  0  0  0  0  0  0  0  0  0
   -3.2520   -4.7100   -1.1174 C   0  0  0  0  0  0  0  0  0  0  0  0
   -3.4345   -3.3115   -1.1785 C   0  0  0  0  0  0  0  0  0  0  0  0
   -2.4692   -2.3871   -0.7136 C   0  0  0  0  0  0  0  0  0  0  0  0
   -1.3058   -2.8996   -0.1767 O   0  0  0  0  0  0  0  0  0  0  0  0
   -0.2080   -2.0663    0.0217 C   0  0  0  0  0  0  0  0  0  0  0  0
    0.9752   -2.7372    0.2688 N   0  0  0  0  0  0  0  0  0  0  0  0
    2.0217   -2.0046    0.4620 C   0  0  0  0  0  0  0  0  0  0  0  0
    2.0732   -0.6296    0.4245 N   0  0  0  0  0  0  0  0  0  0  0  0
    3.3722    0.0268    0.5881 C   0  0  0  0  0  0  0  0  0  0  0  0
    4.0311    0.2661   -0.7869 C   0  0  0  0  0  0  0  0  0  0  0  0
    5.3475    0.9163   -0.6815 N   0  0  0  0  0  0  0  0  0  0  0  0
    5.2640    2.3639   -0.3778 C   0  0  0  0  0  0  0  0  0  0  0  0
    5.5220    3.2711   -1.5931 C   0  0  0  0  0  0  0  0  0  0  0  0
    6.8062    3.0587   -2.1907 O   0  0  0  0  0  0  0  0  0  0  0  0
    7.2781    1.7118   -2.0518 C   0  0  0  0  0  0  0  0  0  0  0  0
    6.1362    0.6942   -1.9161 C   0  0  0  0  0  0  0  0  0  0  0  0
    0.9169    0.0779    0.1282 C   0  0  0  0  0  0  0  0  0  0  0  0
    0.8430    1.3608   -0.0547 N   0  0  0  0  0  0  0  0  0  0  0  0
   -0.3367   -0.7242   -0.0167 C   0  0  0  0  0  0  0  0  0  0  0  0
   -2.2038    2.0592    1.0898 C   0  0  0  0  0  0  0  0  0  0  0  0
   -2.6560    2.7194    2.2385 C   0  0  0  0  0  0  0  0  0  0  0  0
   -2.6202    4.3830    4.5268 H   0  0  0  0  0  0  0  0  0  0  0  0
   -4.0005    4.1738    5.6110 H   0  0  0  0  0  0  0  0  0  0  0  0
   -4.3053    4.3263    3.8766 H   0  0  0  0  0  0  0  0  0  0  0  0
   -3.3316    0.0157    4.1713 H   0  0  0  0  0  0  0  0  0  0  0  0
   -2.5369   -1.1557    2.1633 H   0  0  0  0  0  0  0  0  0  0  0  0
   -1.5103    0.7090   -1.0260 H   0  0  0  0  0  0  0  0  0  0  0  0
   -4.0837    0.5342   -1.3942 H   0  0  0  0  0  0  0  0  0  0  0  0
   -5.7701   -1.0364   -2.2291 H   0  0  0  0  0  0  0  0  0  0  0  0
   -6.5392   -3.3458   -2.6314 H   0  0  0  0  0  0  0  0  0  0  0  0
   -6.1674   -5.7759   -2.4982 H   0  0  0  0  0  0  0  0  0  0  0  0
   -4.0623   -6.6635   -1.5292 H   0  0  0  0  0  0  0  0  0  0  0  0
   -2.3365   -5.1234   -0.6972 H   0  0  0  0  0  0  0  0  0  0  0  0
    2.9904   -2.4909    0.6672 H   0  0  0  0  0  0  0  0  0  0  0  0
    3.2539    0.9596    1.1499 H   0  0  0  0  0  0  0  0  0  0  0  0
    4.0354   -0.5949    1.2042 H   0  0  0  0  0  0  0  0  0  0  0  0
    4.1527   -0.7185   -1.2589 H   0  0  0  0  0  0  0  0  0  0  0  0
    3.3676    0.8411   -1.4456 H   0  0  0  0  0  0  0  0  0  0  0  0
    4.3066    2.6338    0.0805 H   0  0  0  0  0  0  0  0  0  0  0  0
    6.0364    2.5715    0.3734 H   0  0  0  0  0  0  0  0  0  0  0  0
    4.7554    3.1162   -2.3615 H   0  0  0  0  0  0  0  0  0  0  0  0
    5.4713    4.3227   -1.2929 H   0  0  0  0  0  0  0  0  0  0  0  0
    7.8828    1.4843   -2.9356 H   0  0  0  0  0  0  0  0  0  0  0  0
    7.9441    1.6702   -1.1820 H   0  0  0  0  0  0  0  0  0  0  0  0
    5.4907    0.7801   -2.8004 H   0  0  0  0  0  0  0  0  0  0  0  0
    6.5497   -0.3202   -1.8971 H   0  0  0  0  0  0  0  0  0  0  0  0
    1.7425    1.8178    0.0736 H   0  0  0  0  0  0  0  0  0  0  0  0
   -1.8716    2.6504    0.2384 H   0  0  0  0  0  0  0  0  0  0  0  0
   -2.6682    3.8037    2.2286 H   0  0  0  0  0  0  0  0  0  0  0  0
  1  2  1  0
  2  3  1  0
  3  4  2  0
  4  5  1  0
  5  6  2  0
  6  7  1  0
  7  8  1  0
  8  9  2  0
  9 10  1  0
 10 11  2  0
 11 12  1  0
 12 13  2  0
 13 14  1  0
 14 15  2  0
 15 16  1  0
 16 17  2  0
 17 18  1  0
 18 19  1  0
 19 20  1  0
 20 21  2  0
 21 22  1  0
 22 23  1  0
 23 24  1  0
 24 25  1  0
 25 26  1  0
 26 27  1  0
 27 28  1  0
 28 29  1  0
 29 30  1  0
 22 31  1  0
 31 32  2  3
 31 33  1  0
  6 34  1  0
 34 35  2  0
 35  3  1  0
 33  7  1  0
 17  8  1  0
 33 19  2  0
 16 11  1  0
 30 25  1  0
  1 36  1  0
  1 37  1  0
  1 38  1  0
  4 39  1  0
  5 40  1  0
  7 41  1  0
  9 42  1  0
 10 43  1  0
 12 44  1  0
 13 45  1  0
 14 46  1  0
 15 47  1  0
 21 48  1  0
 23 49  1  0
 23 50  1  0
 24 51  1  0
 24 52  1  0
 26 53  1  0
 26 54  1  0
 27 55  1  0
 27 56  1  0
 29 57  1  0
 29 58  1  0
 30 59  1  0
 30 60  1  0
 32 61  1  0
 34 62  1  0
 35 63  1  0
M  END
$$$$
