
     RDKit          3D

 55 57  0  0  0  0  0  0  0  0999 V2000
   -9.8213    1.7858   -0.1318 C   0  0  0  0  0  0  0  0  0  0  0  0
   -9.1065    0.5867   -0.3924 O   0  0  0  0  0  0  0  0  0  0  0  0
   -7.7399    0.6684   -0.4943 C   0  0  0  0  0  0  0  0  0  0  0  0
   -7.0061    1.8507   -0.3558 C   0  0  0  0  0  0  0  0  0  0  0  0
   -5.6136    1.8366   -0.4744 C   0  0  0  0  0  0  0  0  0  0  0  0
   -4.9371    0.6415   -0.7273 C   0  0  0  0  0  0  0  0  0  0  0  0
   -3.4769    0.6653   -0.8706 C   0  0  0  0  0  0  0  0  0  0  0  0
   -2.5919    0.0150   -0.1024 C   0  0  0  0  0  0  0  0  0  0  0  0
   -2.8993   -0.9979    1.2484 S   0  0  0  0  0  0  0  0  0  0  0  0
   -1.1895   -1.2942    1.5356 C   0  0  0  0  0  0  0  0  0  0  0  0
   -0.6569   -2.2399    2.8039 S   0  0  0  0  0  0  0  0  0  0  0  0
   -0.4337   -0.6397    0.5843 N   0  0  0  0  0  0  0  0  0  0  0  0
    1.0312   -0.6495    0.5363 C   0  0  0  0  0  0  0  0  0  0  0  0
    1.6262    0.5119    1.3432 C   0  0  0  0  0  0  0  0  0  0  0  0
    3.0940    0.2965    1.7129 C   0  0  0  0  0  0  0  0  0  0  0  0
    4.0448    0.3038    0.5258 C   0  0  0  0  0  0  0  0  0  0  0  0
    3.6461    0.4317   -0.6244 O   0  0  0  0  0  0  0  0  0  0  0  0
    5.3595    0.1387    0.9305 N   0  0  0  0  0  0  0  0  0  0  0  0
    6.5102    0.0890    0.1153 C   0  0  0  0  0  0  0  0  0  0  0  0
    6.4895    0.2040   -1.2761 C   0  0  0  0  0  0  0  0  0  0  0  0
    7.6766    0.1434   -2.0138 C   0  0  0  0  0  0  0  0  0  0  0  0
    8.8987   -0.0329   -1.3671 C   0  0  0  0  0  0  0  0  0  0  0  0
    8.9339   -0.1486    0.0249 C   0  0  0  0  0  0  0  0  0  0  0  0
   10.2023   -0.3355    0.7684 C   0  0  0  0  0  0  0  0  0  0  0  0
   10.3067   -0.4320    1.9774 O   0  0  0  0  0  0  0  0  0  0  0  0
   11.2781   -0.3932   -0.0350 O   0  0  0  0  0  0  0  0  0  0  0  0
    7.7408   -0.0872    0.7604 C   0  0  0  0  0  0  0  0  0  0  0  0
   -1.1272    0.1312   -0.3333 C   0  0  0  0  0  0  0  0  0  0  0  0
   -0.6380    0.8313   -1.2087 O   0  0  0  0  0  0  0  0  0  0  0  0
   -5.6691   -0.5429   -0.8808 C   0  0  0  0  0  0  0  0  0  0  0  0
   -7.0644   -0.5407   -0.7561 C   0  0  0  0  0  0  0  0  0  0  0  0
   -7.8546   -1.6569   -0.8870 O   0  0  0  0  0  0  0  0  0  0  0  0
   -7.2036   -2.9157   -0.9836 C   0  0  0  0  0  0  0  0  0  0  0  0
   -9.5378    2.2123    0.8360 H   0  0  0  0  0  0  0  0  0  0  0  0
   -9.6846    2.5113   -0.9405 H   0  0  0  0  0  0  0  0  0  0  0  0
  -10.8861    1.5374   -0.0857 H   0  0  0  0  0  0  0  0  0  0  0  0
   -7.4869    2.8019   -0.1550 H   0  0  0  0  0  0  0  0  0  0  0  0
   -5.0645    2.7694   -0.3632 H   0  0  0  0  0  0  0  0  0  0  0  0
   -3.1160    1.3020   -1.6781 H   0  0  0  0  0  0  0  0  0  0  0  0
    1.3983   -1.6086    0.9150 H   0  0  0  0  0  0  0  0  0  0  0  0
    1.3419   -0.5811   -0.5118 H   0  0  0  0  0  0  0  0  0  0  0  0
    1.5073    1.4461    0.7804 H   0  0  0  0  0  0  0  0  0  0  0  0
    1.0621    0.6410    2.2753 H   0  0  0  0  0  0  0  0  0  0  0  0
    3.2089   -0.6541    2.2471 H   0  0  0  0  0  0  0  0  0  0  0  0
    3.4035    1.1017    2.3906 H   0  0  0  0  0  0  0  0  0  0  0  0
    5.5201    0.0460    1.9266 H   0  0  0  0  0  0  0  0  0  0  0  0
    5.5627    0.3438   -1.8248 H   0  0  0  0  0  0  0  0  0  0  0  0
    7.6419    0.2351   -3.0972 H   0  0  0  0  0  0  0  0  0  0  0  0
    9.8119   -0.0772   -1.9555 H   0  0  0  0  0  0  0  0  0  0  0  0
   12.0303   -0.5162    0.5812 H   0  0  0  0  0  0  0  0  0  0  0  0
    7.7870   -0.1790    1.8437 H   0  0  0  0  0  0  0  0  0  0  0  0
   -5.1325   -1.4583   -1.1067 H   0  0  0  0  0  0  0  0  0  0  0  0
   -6.6434   -2.9965   -1.9209 H   0  0  0  0  0  0  0  0  0  0  0  0
   -6.5577   -3.0979   -0.1179 H   0  0  0  0  0  0  0  0  0  0  0  0
   -7.9753   -3.6915   -0.9910 H   0  0  0  0  0  0  0  0  0  0  0  0
  1  2  1  0
  2  3  1  0
  3  4  2  0
  4  5  1  0
  5  6  2  0
  6  7  1  0
  7  8  2  3
  8  9  1  0
  9 10  1  0
 10 11  2  0
 10 12  1  0
 12 13  1  0
 13 14  1  0
 14 15  1  0
 15 16  1  0
 16 17  2  0
 16 18  1  0
 18 19  1  0
 19 20  2  0
 20 21  1  0
 21 22  2  0
 22 23  1  0
 23 24  1  0
 24 25  2  0
 24 26  1  0
 23 27  2  0
 12 28  1  0
 28 29  2  0
  6 30  1  0
 30 31  2  0
 31 32  1  0
 32 33  1  0
 31  3  1  0
 28  8  1  0
 27 19  1  0
  1 34  1  0
  1 35  1  0
  1 36  1  0
  4 37  1  0
  5 38  1  0
  7 39  1  0
 13 40  1  0
 13 41  1  0
 14 42  1  0
 14 43  1  0
 15 44  1  0
 15 45  1  0
 18 46  1  0
 20 47  1  0
 21 48  1  0
 22 49  1  0
 26 50  1  0
 27 51  1  0
 30 52  1  0
 33 53  1  0
 33 54  1  0
 33 55  1  0
M  END
$$$$
