
     RDKit          3D

 39 41  0  0  0  0  0  0  0  0999 V2000
    5.0389   -0.4591    1.3550 C   0  0  0  0  0  0  0  0  0  0  0  0
    4.2819   -0.1511    0.0607 C   0  0  0  0  0  0  0  0  0  0  0  0
    4.8071    1.1504   -0.5467 C   0  0  0  0  0  0  0  0  0  0  0  0
    2.7693   -0.0995    0.3407 C   0  0  0  0  0  0  0  0  0  0  0  0
    1.9199    0.0581   -0.9265 C   0  0  0  0  0  0  0  0  0  0  0  0
    0.4916   -0.0257   -0.6269 N   0  0  0  0  0  0  0  0  0  0  0  0
   -0.0966   -1.2884   -0.6314 C   0  0  0  0  0  0  0  0  0  0  0  0
    0.5161   -2.3252   -0.8756 O   0  0  0  0  0  0  0  0  0  0  0  0
   -1.5417   -1.3594   -0.3121 C   0  0  0  0  0  0  0  0  0  0  0  0
   -2.1753   -2.6077   -0.3295 C   0  0  0  0  0  0  0  0  0  0  0  0
   -3.5248   -2.7023   -0.0211 C   0  0  0  0  0  0  0  0  0  0  0  0
   -4.2446   -1.5493    0.2937 C   0  0  0  0  0  0  0  0  0  0  0  0
   -3.6395   -0.2708    0.3060 C   0  0  0  0  0  0  0  0  0  0  0  0
   -4.3546    0.9241    0.6003 C   0  0  0  0  0  0  0  0  0  0  0  0
   -5.7090    0.9111    0.9893 N   0  0  0  0  0  0  0  0  0  0  0  0
   -3.6586    2.1342    0.7081 C   0  0  0  0  0  0  0  0  0  0  0  0
   -2.2998    2.2031    0.4189 C   0  0  0  0  0  0  0  0  0  0  0  0
   -1.6040    1.0466    0.0571 C   0  0  0  0  0  0  0  0  0  0  0  0
   -2.2508   -0.1929    0.0083 C   0  0  0  0  0  0  0  0  0  0  0  0
   -0.1590    1.1476   -0.2527 C   0  0  0  0  0  0  0  0  0  0  0  0
    0.3986    2.2391   -0.1647 O   0  0  0  0  0  0  0  0  0  0  0  0
    4.7062   -1.4104    1.7838 H   0  0  0  0  0  0  0  0  0  0  0  0
    4.8812    0.3245    2.1040 H   0  0  0  0  0  0  0  0  0  0  0  0
    6.1150   -0.5375    1.1676 H   0  0  0  0  0  0  0  0  0  0  0  0
    4.4815   -0.9659   -0.6467 H   0  0  0  0  0  0  0  0  0  0  0  0
    5.8948    1.1100   -0.6702 H   0  0  0  0  0  0  0  0  0  0  0  0
    4.5713    2.0094    0.0905 H   0  0  0  0  0  0  0  0  0  0  0  0
    4.3766    1.3308   -1.5362 H   0  0  0  0  0  0  0  0  0  0  0  0
    2.5465    0.7194    1.0368 H   0  0  0  0  0  0  0  0  0  0  0  0
    2.4720   -1.0234    0.8540 H   0  0  0  0  0  0  0  0  0  0  0  0
    2.1835   -0.7215   -1.6507 H   0  0  0  0  0  0  0  0  0  0  0  0
    2.1219    1.0227   -1.4044 H   0  0  0  0  0  0  0  0  0  0  0  0
   -1.6155   -3.5085   -0.5746 H   0  0  0  0  0  0  0  0  0  0  0  0
   -4.0182   -3.6713   -0.0207 H   0  0  0  0  0  0  0  0  0  0  0  0
   -5.2956   -1.6674    0.5459 H   0  0  0  0  0  0  0  0  0  0  0  0
   -6.2602    0.1877    0.5405 H   0  0  0  0  0  0  0  0  0  0  0  0
   -6.1636    1.8168    0.9169 H   0  0  0  0  0  0  0  0  0  0  0  0
   -4.1763    3.0415    1.0108 H   0  0  0  0  0  0  0  0  0  0  0  0
   -1.7859    3.1603    0.4856 H   0  0  0  0  0  0  0  0  0  0  0  0
  1  2  1  0
  2  3  1  0
  2  4  1  0
  4  5  1  0
  5  6  1  0
  6  7  1  0
  7  8  2  0
  7  9  1  0
  9 10  1  0
 10 11  2  0
 11 12  1  0
 12 13  2  0
 13 14  1  0
 14 15  1  0
 14 16  2  0
 16 17  1  0
 17 18  2  0
 18 19  1  0
 18 20  1  0
 20 21  2  0
 20  6  1  0
 19  9  2  0
 19 13  1  0
  1 22  1  0
  1 23  1  0
  1 24  1  0
  2 25  1  0
  3 26  1  0
  3 27  1  0
  3 28  1  0
  4 29  1  0
  4 30  1  0
  5 31  1  0
  5 32  1  0
 10 33  1  0
 11 34  1  0
 12 35  1  0
 15 36  1  0
 15 37  1  0
 16 38  1  0
 17 39  1  0
M  END
$$$$
