
     RDKit          3D

 43 45  0  0  0  0  0  0  0  0999 V2000
    0.2804   -0.2042   -1.5507 N   0  0  0  0  0  0  0  0  0  0  0  0
    0.9190    0.3335   -0.7434 C   0  0  0  0  0  0  0  0  0  0  0  0
    1.7883    1.0212    0.1456 C   0  0  0  0  0  0  0  0  0  0  0  0
    1.5668    1.1581    1.4682 C   0  0  0  0  0  0  0  0  0  0  0  0
    0.4395    0.6334    2.1630 C   0  0  0  0  0  0  0  0  0  0  0  0
    0.1367    0.7467    3.5142 C   0  0  0  0  0  0  0  0  0  0  0  0
   -1.0825    0.0652    3.7484 C   0  0  0  0  0  0  0  0  0  0  0  0
   -1.4829   -0.4446    2.5335 C   0  0  0  0  0  0  0  0  0  0  0  0
   -2.6259   -1.2307    2.0740 C   0  0  0  0  0  0  0  0  0  0  0  0
   -3.6951   -1.5094    2.9415 C   0  0  0  0  0  0  0  0  0  0  0  0
   -4.7950   -2.2586    2.5110 C   0  0  0  0  0  0  0  0  0  0  0  0
   -4.8331   -2.7340    1.1993 C   0  0  0  0  0  0  0  0  0  0  0  0
   -6.2232   -3.6895    0.6542 S   0  0  0  0  0  6  0  0  0  0  0  0
   -7.2229   -2.4925    0.0178 N   0  0  0  0  0  0  0  0  0  0  0  0
   -6.8804   -4.2463    1.8124 O   0  0  0  0  0  0  0  0  0  0  0  0
   -5.8130   -4.4965   -0.4714 O   0  0  0  0  0  0  0  0  0  0  0  0
   -3.7768   -2.4852    0.3231 C   0  0  0  0  0  0  0  0  0  0  0  0
   -2.6840   -1.7314    0.7616 C   0  0  0  0  0  0  0  0  0  0  0  0
   -0.5674   -0.0999    1.5843 O   0  0  0  0  0  0  0  0  0  0  0  0
    3.0486    1.6552   -0.3926 C   0  0  0  0  0  0  0  0  0  0  0  0
    3.7779    2.2919    0.3639 O   0  0  0  0  0  0  0  0  0  0  0  0
    3.2800    1.4556   -1.7439 N   0  0  0  0  0  0  0  0  0  0  0  0
    4.3737    1.9267   -2.5073 C   0  0  0  0  0  0  0  0  0  0  0  0
    5.4250    2.6882   -1.9942 C   0  0  0  0  0  0  0  0  0  0  0  0
    6.4678    3.1103   -2.8265 C   0  0  0  0  0  0  0  0  0  0  0  0
    6.4696    2.7745   -4.1779 C   0  0  0  0  0  0  0  0  0  0  0  0
    5.4269    2.0161   -4.7008 C   0  0  0  0  0  0  0  0  0  0  0  0
    4.3851    1.5950   -3.8700 C   0  0  0  0  0  0  0  0  0  0  0  0
    2.2842    1.7040    2.0788 H   0  0  0  0  0  0  0  0  0  0  0  0
    0.7351    1.2669    4.2506 H   0  0  0  0  0  0  0  0  0  0  0  0
   -1.5971   -0.0404    4.6928 H   0  0  0  0  0  0  0  0  0  0  0  0
   -3.6863   -1.1468    3.9672 H   0  0  0  0  0  0  0  0  0  0  0  0
   -5.6090   -2.4678    3.2029 H   0  0  0  0  0  0  0  0  0  0  0  0
   -7.3259   -2.6517   -0.9862 H   0  0  0  0  0  0  0  0  0  0  0  0
   -6.8997   -1.5476    0.2213 H   0  0  0  0  0  0  0  0  0  0  0  0
   -3.7874   -2.8711   -0.6944 H   0  0  0  0  0  0  0  0  0  0  0  0
   -1.8684   -1.5443    0.0639 H   0  0  0  0  0  0  0  0  0  0  0  0
    2.6111    0.9129   -2.2791 H   0  0  0  0  0  0  0  0  0  0  0  0
    5.4713    2.9748   -0.9490 H   0  0  0  0  0  0  0  0  0  0  0  0
    7.2798    3.7033   -2.4124 H   0  0  0  0  0  0  0  0  0  0  0  0
    7.2819    3.1041   -4.8203 H   0  0  0  0  0  0  0  0  0  0  0  0
    5.4231    1.7503   -5.7548 H   0  0  0  0  0  0  0  0  0  0  0  0
    3.5840    1.0045   -4.3080 H   0  0  0  0  0  0  0  0  0  0  0  0
  1  2  3  0
  2  3  1  0
  3  4  2  3
  4  5  1  0
  5  6  2  0
  6  7  1  0
  7  8  2  0
  8  9  1  0
  9 10  2  0
 10 11  1  0
 11 12  2  0
 12 13  1  0
 13 14  1  0
 13 15  2  0
 13 16  2  0
 12 17  1  0
 17 18  2  0
  8 19  1  0
  3 20  1  0
 20 21  2  0
 20 22  1  0
 22 23  1  0
 23 24  2  0
 24 25  1  0
 25 26  2  0
 26 27  1  0
 27 28  2  0
 19  5  1  0
 28 23  1  0
 18  9  1  0
  4 29  1  0
  6 30  1  0
  7 31  1  0
 10 32  1  0
 11 33  1  0
 14 34  1  0
 14 35  1  0
 17 36  1  0
 18 37  1  0
 22 38  1  0
 24 39  1  0
 25 40  1  0
 26 41  1  0
 27 42  1  0
 28 43  1  0
M  END
$$$$
