
     RDKit          3D

 69 72  0  0  0  0  0  0  0  0999 V2000
    9.8586    0.8966    3.0254 C   0  0  0  0  0  0  0  0  0  0  0  0
    9.1849    1.4094    1.8858 O   0  0  0  0  0  0  0  0  0  0  0  0
    7.9089    0.9627    1.6448 C   0  0  0  0  0  0  0  0  0  0  0  0
    7.2449    0.0103    2.4248 C   0  0  0  0  0  0  0  0  0  0  0  0
    5.9455   -0.3894    2.1020 C   0  0  0  0  0  0  0  0  0  0  0  0
    5.2893    0.1594    0.9971 C   0  0  0  0  0  0  0  0  0  0  0  0
    3.8971   -0.2906    0.6275 C   0  0  0  0  0  0  0  0  0  0  0  0
    3.9224   -1.3375   -0.4889 C   0  0  0  0  0  0  0  0  0  0  0  0
    2.5974   -1.8347   -0.8087 N   0  0  0  0  0  0  0  0  0  0  0  0
    1.7206   -1.1125   -1.5892 C   0  0  0  0  0  0  0  0  0  0  0  0
    1.9855   -0.0033   -2.0396 O   0  0  0  0  0  0  0  0  0  0  0  0
    0.3879   -1.8183   -1.8211 C   0  0  0  0  0  0  0  0  0  0  0  0
   -0.3847   -1.9094   -0.4971 C   0  0  0  0  0  0  0  0  0  0  0  0
   -1.8896   -1.8931   -0.7283 C   0  0  0  0  0  0  0  0  0  0  0  0
   -2.3080   -0.6095   -1.3504 N   0  0  0  0  0  0  0  0  0  0  0  0
   -3.9200   -0.5691   -1.8769 S   0  0  0  0  0  6  0  0  0  0  0  0
   -4.2358    0.7706   -2.3089 O   0  0  0  0  0  0  0  0  0  0  0  0
   -4.1179   -1.7043   -2.7482 O   0  0  0  0  0  0  0  0  0  0  0  0
   -4.7172   -0.8558   -0.4187 N   0  0  0  0  0  0  0  0  0  0  0  0
   -4.5830    0.1649    0.6511 C   0  0  0  0  0  0  0  0  0  0  0  0
   -5.6191    1.2731    0.5276 C   0  0  0  0  0  0  0  0  0  0  0  0
   -7.0319    0.7065    0.4245 C   0  0  0  0  0  0  0  0  0  0  0  0
   -7.1234   -0.3236   -0.6978 C   0  0  0  0  0  0  0  0  0  0  0  0
   -6.0859   -1.4166   -0.5073 C   0  0  0  0  0  0  0  0  0  0  0  0
   -7.3848    0.0935    1.6810 O   0  0  0  0  0  0  0  0  0  0  0  0
   -8.6698    0.6269    2.0027 C   0  0  0  0  0  0  0  0  0  0  0  0
   -8.6459    1.9930    1.3769 C   0  0  0  0  0  0  0  0  0  0  0  0
   -7.9570    1.7730    0.1481 O   0  0  0  0  0  0  0  0  0  0  0  0
   -1.3288   -0.0374   -2.3213 C   0  0  0  0  0  0  0  0  0  0  0  0
   -0.4363   -1.1207   -2.9123 C   0  0  0  0  0  0  0  0  0  0  0  0
    5.9538    1.1152    0.2134 C   0  0  0  0  0  0  0  0  0  0  0  0
    7.2571    1.5209    0.5271 C   0  0  0  0  0  0  0  0  0  0  0  0
    7.9764    2.4440   -0.1926 O   0  0  0  0  0  0  0  0  0  0  0  0
    7.3377    3.0556   -1.3032 C   0  0  0  0  0  0  0  0  0  0  0  0
   10.8426    1.3721    3.0744 H   0  0  0  0  0  0  0  0  0  0  0  0
   10.0160   -0.1833    2.9376 H   0  0  0  0  0  0  0  0  0  0  0  0
    9.3238    1.1460    3.9477 H   0  0  0  0  0  0  0  0  0  0  0  0
    7.7123   -0.4434    3.2918 H   0  0  0  0  0  0  0  0  0  0  0  0
    5.4516   -1.1335    2.7232 H   0  0  0  0  0  0  0  0  0  0  0  0
    3.3909   -0.6998    1.5120 H   0  0  0  0  0  0  0  0  0  0  0  0
    3.3026    0.5822    0.3281 H   0  0  0  0  0  0  0  0  0  0  0  0
    4.5265   -2.2027   -0.1950 H   0  0  0  0  0  0  0  0  0  0  0  0
    4.3640   -0.9186   -1.4006 H   0  0  0  0  0  0  0  0  0  0  0  0
    2.3297   -2.7494   -0.4674 H   0  0  0  0  0  0  0  0  0  0  0  0
    0.6216   -2.8291   -2.1818 H   0  0  0  0  0  0  0  0  0  0  0  0
   -0.1129   -1.0790    0.1688 H   0  0  0  0  0  0  0  0  0  0  0  0
   -0.1030   -2.8299    0.0283 H   0  0  0  0  0  0  0  0  0  0  0  0
   -2.3883   -2.0012    0.2407 H   0  0  0  0  0  0  0  0  0  0  0  0
   -2.1748   -2.7453   -1.3551 H   0  0  0  0  0  0  0  0  0  0  0  0
   -4.6861   -0.3447    1.6173 H   0  0  0  0  0  0  0  0  0  0  0  0
   -3.5760    0.5956    0.6508 H   0  0  0  0  0  0  0  0  0  0  0  0
   -5.5409    1.9304    1.4023 H   0  0  0  0  0  0  0  0  0  0  0  0
   -5.4098    1.9060   -0.3419 H   0  0  0  0  0  0  0  0  0  0  0  0
   -6.9935    0.1673   -1.6702 H   0  0  0  0  0  0  0  0  0  0  0  0
   -8.1225   -0.7760   -0.7123 H   0  0  0  0  0  0  0  0  0  0  0  0
   -6.1540   -2.1478   -1.3196 H   0  0  0  0  0  0  0  0  0  0  0  0
   -6.2837   -1.9824    0.4118 H   0  0  0  0  0  0  0  0  0  0  0  0
   -9.4294   -0.0145    1.5430 H   0  0  0  0  0  0  0  0  0  0  0  0
   -8.8196    0.6471    3.0845 H   0  0  0  0  0  0  0  0  0  0  0  0
   -8.0620    2.7013    1.9748 H   0  0  0  0  0  0  0  0  0  0  0  0
   -9.6413    2.4058    1.1958 H   0  0  0  0  0  0  0  0  0  0  0  0
   -0.7342    0.7167   -1.7923 H   0  0  0  0  0  0  0  0  0  0  0  0
   -1.8363    0.4895   -3.1365 H   0  0  0  0  0  0  0  0  0  0  0  0
    0.2101   -0.6918   -3.6866 H   0  0  0  0  0  0  0  0  0  0  0  0
   -1.0652   -1.8656   -3.4169 H   0  0  0  0  0  0  0  0  0  0  0  0
    5.4291    1.5277   -0.6435 H   0  0  0  0  0  0  0  0  0  0  0  0
    7.0845    2.3164   -2.0703 H   0  0  0  0  0  0  0  0  0  0  0  0
    6.4539    3.6207   -0.9888 H   0  0  0  0  0  0  0  0  0  0  0  0
    8.0452    3.7633   -1.7475 H   0  0  0  0  0  0  0  0  0  0  0  0
  1  2  1  0
  2  3  1  0
  3  4  2  0
  4  5  1  0
  5  6  2  0
  6  7  1  0
  7  8  1  0
  8  9  1  0
  9 10  1  0
 10 11  2  0
 10 12  1  0
 12 13  1  0
 13 14  1  0
 14 15  1  0
 15 16  1  0
 16 17  2  0
 16 18  2  0
 16 19  1  0
 19 20  1  0
 20 21  1  0
 21 22  1  0
 22 23  1  0
 23 24  1  0
 22 25  1  0
 25 26  1  0
 26 27  1  0
 27 28  1  0
 15 29  1  0
 29 30  1  0
  6 31  1  0
 31 32  2  0
 32 33  1  0
 33 34  1  0
 32  3  1  0
 30 12  1  0
 24 19  1  0
 28 22  1  0
  1 35  1  0
  1 36  1  0
  1 37  1  0
  4 38  1  0
  5 39  1  0
  7 40  1  0
  7 41  1  0
  8 42  1  0
  8 43  1  0
  9 44  1  0
 12 45  1  0
 13 46  1  0
 13 47  1  0
 14 48  1  0
 14 49  1  0
 20 50  1  0
 20 51  1  0
 21 52  1  0
 21 53  1  0
 23 54  1  0
 23 55  1  0
 24 56  1  0
 24 57  1  0
 26 58  1  0
 26 59  1  0
 27 60  1  0
 27 61  1  0
 29 62  1  0
 29 63  1  0
 30 64  1  0
 30 65  1  0
 31 66  1  0
 34 67  1  0
 34 68  1  0
 34 69  1  0
M  END
$$$$
