
     RDKit          3D

 45 47  0  0  0  0  0  0  0  0999 V2000
    6.8656    0.9757    0.8828 C   0  0  0  0  0  0  0  0  0  0  0  0
    6.1522   -0.2412    0.7076 O   0  0  0  0  0  0  0  0  0  0  0  0
    4.8124   -0.1478    0.4425 C   0  0  0  0  0  0  0  0  0  0  0  0
    4.1413    1.0381    0.1376 C   0  0  0  0  0  0  0  0  0  0  0  0
    2.7573    1.0383   -0.0907 C   0  0  0  0  0  0  0  0  0  0  0  0
    2.0213   -0.1444   -0.0170 C   0  0  0  0  0  0  0  0  0  0  0  0
    0.6255   -0.2088   -0.1988 N   0  0  0  0  0  0  0  0  0  0  0  0
   -0.1948    0.7637   -0.7276 C   0  0  0  0  0  0  0  0  0  0  0  0
    0.1989    1.7779   -1.2968 O   0  0  0  0  0  0  0  0  0  0  0  0
   -1.5626    0.4671   -0.5999 N   0  0  0  0  0  0  0  0  0  0  0  0
   -2.4779    1.4201   -1.2273 C   0  0  0  0  0  0  0  0  0  0  0  0
   -3.8413    0.8035   -1.5054 C   0  0  0  0  0  0  0  0  0  0  0  0
   -4.4275    0.1687   -0.2481 C   0  0  0  0  0  0  0  0  0  0  0  0
   -3.4420   -0.8274    0.3571 C   0  0  0  0  0  0  0  0  0  0  0  0
   -2.0890   -0.1775    0.6079 C   0  0  0  0  0  0  0  0  0  0  0  0
   -4.7343    1.1979    0.7090 O   0  0  0  0  0  0  0  0  0  0  0  0
   -6.0724    0.9275    1.1261 C   0  0  0  0  0  0  0  0  0  0  0  0
   -6.6897    0.2847   -0.0840 C   0  0  0  0  0  0  0  0  0  0  0  0
   -5.6361   -0.5343   -0.5889 O   0  0  0  0  0  0  0  0  0  0  0  0
    2.6878   -1.3331    0.2894 C   0  0  0  0  0  0  0  0  0  0  0  0
    4.0725   -1.3376    0.4881 C   0  0  0  0  0  0  0  0  0  0  0  0
    4.6369   -2.5486    0.8084 O   0  0  0  0  0  0  0  0  0  0  0  0
    5.4363   -3.0383   -0.2682 C   0  0  0  0  0  0  0  0  0  0  0  0
    6.9204    1.5373   -0.0555 H   0  0  0  0  0  0  0  0  0  0  0  0
    6.4285    1.5812    1.6839 H   0  0  0  0  0  0  0  0  0  0  0  0
    7.8882    0.7229    1.1780 H   0  0  0  0  0  0  0  0  0  0  0  0
    4.6592    1.9891    0.0717 H   0  0  0  0  0  0  0  0  0  0  0  0
    2.2778    1.9885   -0.3089 H   0  0  0  0  0  0  0  0  0  0  0  0
    0.2131   -1.1278   -0.1570 H   0  0  0  0  0  0  0  0  0  0  0  0
   -2.0498    1.7735   -2.1731 H   0  0  0  0  0  0  0  0  0  0  0  0
   -2.5644    2.2905   -0.5651 H   0  0  0  0  0  0  0  0  0  0  0  0
   -4.5148    1.5768   -1.8964 H   0  0  0  0  0  0  0  0  0  0  0  0
   -3.7517    0.0429   -2.2923 H   0  0  0  0  0  0  0  0  0  0  0  0
   -3.3239   -1.6853   -0.3174 H   0  0  0  0  0  0  0  0  0  0  0  0
   -3.8343   -1.2247    1.3012 H   0  0  0  0  0  0  0  0  0  0  0  0
   -1.3990   -0.9329    0.9920 H   0  0  0  0  0  0  0  0  0  0  0  0
   -2.1628    0.5959    1.3827 H   0  0  0  0  0  0  0  0  0  0  0  0
   -6.5753    1.8468    1.4347 H   0  0  0  0  0  0  0  0  0  0  0  0
   -6.0301    0.2349    1.9735 H   0  0  0  0  0  0  0  0  0  0  0  0
   -7.5725   -0.3171    0.1458 H   0  0  0  0  0  0  0  0  0  0  0  0
   -6.9439    1.0252   -0.8503 H   0  0  0  0  0  0  0  0  0  0  0  0
    2.1485   -2.2720    0.3720 H   0  0  0  0  0  0  0  0  0  0  0  0
    6.3791   -2.4900   -0.3540 H   0  0  0  0  0  0  0  0  0  0  0  0
    4.8897   -3.0119   -1.2186 H   0  0  0  0  0  0  0  0  0  0  0  0
    5.6776   -4.0831   -0.0507 H   0  0  0  0  0  0  0  0  0  0  0  0
  1  2  1  0
  2  3  1  0
  3  4  2  0
  4  5  1  0
  5  6  2  0
  6  7  1  0
  7  8  1  0
  8  9  2  0
  8 10  1  0
 10 11  1  0
 11 12  1  0
 12 13  1  0
 13 14  1  0
 14 15  1  0
 13 16  1  0
 16 17  1  0
 17 18  1  0
 18 19  1  0
  6 20  1  0
 20 21  2  0
 21 22  1  0
 22 23  1  0
 21  3  1  0
 15 10  1  0
 19 13  1  0
  1 24  1  0
  1 25  1  0
  1 26  1  0
  4 27  1  0
  5 28  1  0
  7 29  1  0
 11 30  1  0
 11 31  1  0
 12 32  1  0
 12 33  1  0
 14 34  1  0
 14 35  1  0
 15 36  1  0
 15 37  1  0
 17 38  1  0
 17 39  1  0
 18 40  1  0
 18 41  1  0
 20 42  1  0
 23 43  1  0
 23 44  1  0
 23 45  1  0
M  END
$$$$
