
     RDKit          3D

 51 54  0  0  0  0  0  0  0  0999 V2000
   -1.6166    0.3735   -2.5479 C   0  0  0  0  0  0  0  0  0  0  0  0
   -1.9192   -0.7187   -1.5198 C   0  0  0  0  0  0  0  0  0  0  0  0
   -0.8295   -1.7879   -1.5053 C   0  0  0  0  0  0  0  0  0  0  0  0
   -2.1466   -0.1802   -0.1766 N   0  0  0  0  0  0  0  0  0  0  0  0
   -1.2995    0.6843    0.4727 C   0  0  0  0  0  0  0  0  0  0  0  0
   -1.8172    0.9677    1.7205 C   0  0  0  0  0  0  0  0  0  0  0  0
   -1.2748    1.8699    2.7203 C   0  0  0  0  0  0  0  0  0  0  0  0
   -0.0296    2.0736    3.0295 N   0  0  0  0  0  0  0  0  0  0  0  0
    0.9493    1.3233    2.4573 N   0  0  0  0  0  0  0  0  0  0  0  0
    2.2802    1.5435    2.7677 C   0  0  0  0  0  0  0  0  0  0  0  0
    2.7038    2.4412    3.4959 O   0  0  0  0  0  0  0  0  0  0  0  0
    3.2302    0.5308    2.1248 C   0  0  0  0  0  0  0  0  0  0  0  0
    2.5620   -0.5798    1.5181 O   0  0  0  0  0  0  0  0  0  0  0  0
    2.9118   -0.7803    0.2011 C   0  0  0  0  0  0  0  0  0  0  0  0
    3.3631   -2.0688   -0.1029 C   0  0  0  0  0  0  0  0  0  0  0  0
    3.7123   -2.3922   -1.4081 C   0  0  0  0  0  0  0  0  0  0  0  0
    3.5910   -1.4315   -2.4089 C   0  0  0  0  0  0  0  0  0  0  0  0
    3.1079   -0.1445   -2.1110 C   0  0  0  0  0  0  0  0  0  0  0  0
    2.9636    0.8247   -3.1140 C   0  0  0  0  0  0  0  0  0  0  0  0
    2.4728    2.0849   -2.7984 C   0  0  0  0  0  0  0  0  0  0  0  0
    2.1327    2.3337   -1.4852 C   0  0  0  0  0  0  0  0  0  0  0  0
    2.2499    1.4218   -0.4959 N   0  0  0  0  0  0  0  0  0  0  0  0
    2.7478    0.1993   -0.7896 C   0  0  0  0  0  0  0  0  0  0  0  0
   -3.0580    0.2589    1.8158 C   0  0  0  0  0  0  0  0  0  0  0  0
   -4.0448    0.1599    2.8222 C   0  0  0  0  0  0  0  0  0  0  0  0
   -5.1650   -0.6517    2.6224 C   0  0  0  0  0  0  0  0  0  0  0  0
   -5.3134   -1.3669    1.4406 C   0  0  0  0  0  0  0  0  0  0  0  0
   -4.3516   -1.2906    0.4280 C   0  0  0  0  0  0  0  0  0  0  0  0
   -3.2313   -0.4657    0.6308 C   0  0  0  0  0  0  0  0  0  0  0  0
   -1.5751   -0.0492   -3.5572 H   0  0  0  0  0  0  0  0  0  0  0  0
   -2.3919    1.1468   -2.5375 H   0  0  0  0  0  0  0  0  0  0  0  0
   -0.6562    0.8608   -2.3555 H   0  0  0  0  0  0  0  0  0  0  0  0
   -2.8530   -1.1939   -1.8358 H   0  0  0  0  0  0  0  0  0  0  0  0
    0.1408   -1.3659   -1.2270 H   0  0  0  0  0  0  0  0  0  0  0  0
   -1.0652   -2.5788   -0.7844 H   0  0  0  0  0  0  0  0  0  0  0  0
   -0.7258   -2.2501   -2.4931 H   0  0  0  0  0  0  0  0  0  0  0  0
   -0.4053    1.0515   -0.0144 H   0  0  0  0  0  0  0  0  0  0  0  0
   -2.0231    2.4409    3.2955 H   0  0  0  0  0  0  0  0  0  0  0  0
    0.7197    0.5465    1.8436 H   0  0  0  0  0  0  0  0  0  0  0  0
    3.9133    1.0652    1.4531 H   0  0  0  0  0  0  0  0  0  0  0  0
    3.8371    0.1154    2.9381 H   0  0  0  0  0  0  0  0  0  0  0  0
    3.4480   -2.8137    0.6841 H   0  0  0  0  0  0  0  0  0  0  0  0
    4.0767   -3.3888   -1.6454 H   0  0  0  0  0  0  0  0  0  0  0  0
    3.8685   -1.6949   -3.4278 H   0  0  0  0  0  0  0  0  0  0  0  0
    3.2349    0.6036   -4.1433 H   0  0  0  0  0  0  0  0  0  0  0  0
    2.3608    2.8515   -3.5562 H   0  0  0  0  0  0  0  0  0  0  0  0
    1.7453    3.3010   -1.1770 H   0  0  0  0  0  0  0  0  0  0  0  0
   -3.9371    0.7041    3.7568 H   0  0  0  0  0  0  0  0  0  0  0  0
   -5.9204   -0.7270    3.4000 H   0  0  0  0  0  0  0  0  0  0  0  0
   -6.1873   -1.9987    1.3004 H   0  0  0  0  0  0  0  0  0  0  0  0
   -4.4861   -1.8585   -0.4863 H   0  0  0  0  0  0  0  0  0  0  0  0
  1  2  1  0
  2  3  1  0
  2  4  1  0
  4  5  1  0
  5  6  2  0
  6  7  1  0
  7  8  2  3
  8  9  1  0
  9 10  1  0
 10 11  2  0
 10 12  1  0
 12 13  1  0
 13 14  1  0
 14 15  2  0
 15 16  1  0
 16 17  2  0
 17 18  1  0
 18 19  2  0
 19 20  1  0
 20 21  2  0
 21 22  1  0
 22 23  2  0
  6 24  1  0
 24 25  2  0
 25 26  1  0
 26 27  2  0
 27 28  1  0
 28 29  2  0
 29  4  1  0
 23 14  1  0
 29 24  1  0
 23 18  1  0
  1 30  1  0
  1 31  1  0
  1 32  1  0
  2 33  1  0
  3 34  1  0
  3 35  1  0
  3 36  1  0
  5 37  1  0
  7 38  1  0
  9 39  1  0
 12 40  1  0
 12 41  1  0
 15 42  1  0
 16 43  1  0
 17 44  1  0
 19 45  1  0
 20 46  1  0
 21 47  1  0
 25 48  1  0
 26 49  1  0
 27 50  1  0
 28 51  1  0
M  END
$$$$
