
     RDKit          3D

 46 48  0  0  0  0  0  0  0  0999 V2000
   -2.1803   -3.0565   -3.7583 C   0  0  0  0  0  0  0  0  0  0  0  0
   -1.6587   -2.2515   -2.7069 O   0  0  0  0  0  0  0  0  0  0  0  0
   -2.5689   -1.7150   -1.8232 C   0  0  0  0  0  0  0  0  0  0  0  0
   -3.9521   -1.8956   -1.8898 C   0  0  0  0  0  0  0  0  0  0  0  0
   -4.7834   -1.3003   -0.9377 C   0  0  0  0  0  0  0  0  0  0  0  0
   -4.2433   -0.5276    0.0947 C   0  0  0  0  0  0  0  0  0  0  0  0
   -5.1402    0.1394    1.0964 C   0  0  0  0  0  0  0  0  0  0  0  0
   -2.8557   -0.3338    0.1527 C   0  0  0  0  0  0  0  0  0  0  0  0
   -2.0144   -0.9263   -0.7921 C   0  0  0  0  0  0  0  0  0  0  0  0
   -0.6077   -0.7799   -0.7955 N   0  0  0  0  0  0  0  0  0  0  0  0
    0.1872   -0.1001    0.1060 C   0  0  0  0  0  0  0  0  0  0  0  0
   -0.2016    0.4544    1.1264 O   0  0  0  0  0  0  0  0  0  0  0  0
    1.6624   -0.1671   -0.2574 C   0  0  0  0  0  0  0  0  0  0  0  0
    1.9672    0.3221   -1.6606 C   0  0  0  0  0  0  0  0  0  0  0  0
    3.4204    0.6601   -1.5563 C   0  0  0  0  0  0  0  0  0  0  0  0
    4.1718    0.8416   -2.4992 O   0  0  0  0  0  0  0  0  0  0  0  0
    3.7918    0.7349   -0.2463 O   0  0  0  0  0  0  0  0  0  0  0  0
    2.6126    0.6804    0.5986 C   0  0  0  0  0  0  0  0  0  0  0  0
    3.0047   -0.0413    1.8984 C   0  0  0  0  0  0  0  0  0  0  0  0
    3.8911    0.8349    2.7808 C   0  0  0  0  0  0  0  0  0  0  0  0
    3.2381    2.1674    3.1470 C   0  0  0  0  0  0  0  0  0  0  0  0
    2.0039    2.4975    2.3131 C   0  0  0  0  0  0  0  0  0  0  0  0
    2.1997    2.1577    0.8371 C   0  0  0  0  0  0  0  0  0  0  0  0
   -2.8374   -2.4740   -4.4123 H   0  0  0  0  0  0  0  0  0  0  0  0
   -2.6929   -3.9394   -3.3626 H   0  0  0  0  0  0  0  0  0  0  0  0
   -1.3360   -3.4048   -4.3610 H   0  0  0  0  0  0  0  0  0  0  0  0
   -4.4191   -2.4889   -2.6684 H   0  0  0  0  0  0  0  0  0  0  0  0
   -5.8598   -1.4446   -1.0073 H   0  0  0  0  0  0  0  0  0  0  0  0
   -6.0645   -0.4312    1.2357 H   0  0  0  0  0  0  0  0  0  0  0  0
   -4.6507    0.2069    2.0736 H   0  0  0  0  0  0  0  0  0  0  0  0
   -5.3957    1.1476    0.7564 H   0  0  0  0  0  0  0  0  0  0  0  0
   -2.4557    0.2876    0.9481 H   0  0  0  0  0  0  0  0  0  0  0  0
   -0.1670   -1.2870   -1.5575 H   0  0  0  0  0  0  0  0  0  0  0  0
    1.9625   -1.2235   -0.1888 H   0  0  0  0  0  0  0  0  0  0  0  0
    1.3974    1.2143   -1.9360 H   0  0  0  0  0  0  0  0  0  0  0  0
    1.8179   -0.4672   -2.4024 H   0  0  0  0  0  0  0  0  0  0  0  0
    3.5561   -0.9612    1.6666 H   0  0  0  0  0  0  0  0  0  0  0  0
    2.1105   -0.3334    2.4620 H   0  0  0  0  0  0  0  0  0  0  0  0
    4.1559    0.2922    3.6958 H   0  0  0  0  0  0  0  0  0  0  0  0
    4.8373    1.0314    2.2610 H   0  0  0  0  0  0  0  0  0  0  0  0
    3.9813    2.9667    3.0364 H   0  0  0  0  0  0  0  0  0  0  0  0
    2.9569    2.1617    4.2071 H   0  0  0  0  0  0  0  0  0  0  0  0
    1.1429    1.9488    2.7112 H   0  0  0  0  0  0  0  0  0  0  0  0
    1.7645    3.5619    2.4206 H   0  0  0  0  0  0  0  0  0  0  0  0
    1.2829    2.4084    0.2918 H   0  0  0  0  0  0  0  0  0  0  0  0
    2.9683    2.8327    0.4363 H   0  0  0  0  0  0  0  0  0  0  0  0
  1  2  1  0
  2  3  1  0
  3  4  2  0
  4  5  1  0
  5  6  2  0
  6  7  1  0
  6  8  1  0
  8  9  2  0
  9 10  1  0
 10 11  1  0
 11 12  2  0
 11 13  1  0
 13 14  1  0
 14 15  1  0
 15 16  2  0
 15 17  1  0
 17 18  1  0
 18 19  1  0
 19 20  1  0
 20 21  1  0
 21 22  1  0
 22 23  1  0
  9  3  1  0
 18 13  1  0
 23 18  1  0
  1 24  1  0
  1 25  1  0
  1 26  1  0
  4 27  1  0
  5 28  1  0
  7 29  1  0
  7 30  1  0
  7 31  1  0
  8 32  1  0
 10 33  1  0
 13 34  1  0
 14 35  1  0
 14 36  1  0
 19 37  1  0
 19 38  1  0
 20 39  1  0
 20 40  1  0
 21 41  1  0
 21 42  1  0
 22 43  1  0
 22 44  1  0
 23 45  1  0
 23 46  1  0
M  END
$$$$
