
     RDKit          3D

 66 69  0  0  0  0  0  0  0  0999 V2000
   -1.4366    6.3306   -3.9862 C   0  0  0  0  0  0  0  0  0  0  0  0
   -1.1421    5.1175   -3.2931 O   0  0  0  0  0  0  0  0  0  0  0  0
   -1.1440    5.2382   -1.9424 C   0  0  0  0  0  0  0  0  0  0  0  0
   -1.3724    6.2608   -1.3184 O   0  0  0  0  0  0  0  0  0  0  0  0
   -0.8305    3.9319   -1.3008 C   0  0  0  0  0  0  0  0  0  0  0  0
   -0.4773    2.7965   -2.0406 C   0  0  0  0  0  0  0  0  0  0  0  0
   -0.1848    1.5938   -1.3898 C   0  0  0  0  0  0  0  0  0  0  0  0
   -0.2366    1.5047    0.0098 C   0  0  0  0  0  0  0  0  0  0  0  0
    0.0556    0.1760    0.6837 C   0  0  0  0  0  0  0  0  0  0  0  0
   -1.2503   -0.5546    1.0643 C   0  0  0  0  0  0  0  0  0  0  0  0
   -1.7114   -1.4835   -0.0324 C   0  0  0  0  0  0  0  0  0  0  0  0
   -0.9356   -1.8793   -0.9028 O   0  0  0  0  0  0  0  0  0  0  0  0
   -3.1383   -1.9274   -0.0857 C   0  0  0  0  0  0  0  0  0  0  0  0
   -3.5683   -2.6272   -1.2211 C   0  0  0  0  0  0  0  0  0  0  0  0
   -4.8919   -3.0549   -1.3289 C   0  0  0  0  0  0  0  0  0  0  0  0
   -5.8005   -2.7883   -0.3037 C   0  0  0  0  0  0  0  0  0  0  0  0
   -5.3841   -2.0982    0.8347 C   0  0  0  0  0  0  0  0  0  0  0  0
   -6.1688   -1.7703    1.9063 O   0  0  0  0  0  0  0  0  0  0  0  0
   -7.4976   -2.2815    1.9142 C   0  0  0  0  0  0  0  0  0  0  0  0
   -4.0543   -1.6709    0.9399 C   0  0  0  0  0  0  0  0  0  0  0  0
   -0.8285   -1.2675    2.3066 C   0  0  0  0  0  0  0  0  0  0  0  0
   -1.4214   -2.1736    2.8601 O   0  0  0  0  0  0  0  0  0  0  0  0
    0.4566   -0.6464    2.8360 C   0  0  0  0  0  0  0  0  0  0  0  0
    1.0004   -0.9593    3.8722 O   0  0  0  0  0  0  0  0  0  0  0  0
    0.8466    0.2947    1.9048 N   0  0  0  0  0  0  0  0  0  0  0  0
    2.1752    0.8999    1.9370 C   0  0  0  0  0  0  0  0  0  0  0  0
    3.2227    0.1938    1.0680 C   0  0  0  0  0  0  0  0  0  0  0  0
    3.5944   -1.2017    1.5913 C   0  0  0  0  0  0  0  0  0  0  0  0
    4.5528   -1.9556    0.7797 N   0  0  0  0  0  0  0  0  0  0  0  0
    5.9123   -1.3971    0.7588 C   0  0  0  0  0  0  0  0  0  0  0  0
    6.7615   -2.0643   -0.3356 C   0  0  0  0  0  0  0  0  0  0  0  0
    6.2564   -1.8272   -1.6581 O   0  0  0  0  0  0  0  0  0  0  0  0
    4.8393   -1.6094   -1.6944 C   0  0  0  0  0  0  0  0  0  0  0  0
    4.0779   -2.3215   -0.5646 C   0  0  0  0  0  0  0  0  0  0  0  0
   -0.6050    2.6428    0.7449 C   0  0  0  0  0  0  0  0  0  0  0  0
   -0.8923    3.8471    0.0955 C   0  0  0  0  0  0  0  0  0  0  0  0
   -1.4336    6.1175   -5.0588 H   0  0  0  0  0  0  0  0  0  0  0  0
   -0.6690    7.0835   -3.7803 H   0  0  0  0  0  0  0  0  0  0  0  0
   -2.4297    6.7005   -3.7103 H   0  0  0  0  0  0  0  0  0  0  0  0
   -0.4235    2.8315   -3.1269 H   0  0  0  0  0  0  0  0  0  0  0  0
    0.0823    0.7234   -1.9903 H   0  0  0  0  0  0  0  0  0  0  0  0
    0.6669   -0.4357    0.0087 H   0  0  0  0  0  0  0  0  0  0  0  0
   -2.0313    0.1686    1.3225 H   0  0  0  0  0  0  0  0  0  0  0  0
   -2.8754   -2.8464   -2.0318 H   0  0  0  0  0  0  0  0  0  0  0  0
   -5.2146   -3.5979   -2.2146 H   0  0  0  0  0  0  0  0  0  0  0  0
   -6.8224   -3.1334   -0.4236 H   0  0  0  0  0  0  0  0  0  0  0  0
   -7.9703   -1.9681    2.8494 H   0  0  0  0  0  0  0  0  0  0  0  0
   -7.5019   -3.3765    1.8881 H   0  0  0  0  0  0  0  0  0  0  0  0
   -8.0856   -1.8641    1.0893 H   0  0  0  0  0  0  0  0  0  0  0  0
   -3.7657   -1.1588    1.8530 H   0  0  0  0  0  0  0  0  0  0  0  0
    2.0747    1.9377    1.6041 H   0  0  0  0  0  0  0  0  0  0  0  0
    2.5212    0.9321    2.9767 H   0  0  0  0  0  0  0  0  0  0  0  0
    2.8668    0.1377    0.0339 H   0  0  0  0  0  0  0  0  0  0  0  0
    4.1156    0.8286    1.0554 H   0  0  0  0  0  0  0  0  0  0  0  0
    3.9886   -1.1118    2.6119 H   0  0  0  0  0  0  0  0  0  0  0  0
    2.6894   -1.8137    1.6830 H   0  0  0  0  0  0  0  0  0  0  0  0
    6.3847   -1.5522    1.7357 H   0  0  0  0  0  0  0  0  0  0  0  0
    5.8944   -0.3197    0.5605 H   0  0  0  0  0  0  0  0  0  0  0  0
    7.7854   -1.6777   -0.3038 H   0  0  0  0  0  0  0  0  0  0  0  0
    6.8196   -3.1481   -0.1797 H   0  0  0  0  0  0  0  0  0  0  0  0
    4.4807   -1.9639   -2.6673 H   0  0  0  0  0  0  0  0  0  0  0  0
    4.6631   -0.5281   -1.6588 H   0  0  0  0  0  0  0  0  0  0  0  0
    2.9991   -2.1617   -0.6777 H   0  0  0  0  0  0  0  0  0  0  0  0
    4.2406   -3.4006   -0.6740 H   0  0  0  0  0  0  0  0  0  0  0  0
   -0.6623    2.6071    1.8321 H   0  0  0  0  0  0  0  0  0  0  0  0
   -1.1667    4.7215    0.6844 H   0  0  0  0  0  0  0  0  0  0  0  0
  1  2  1  0
  2  3  1  0
  3  4  2  0
  3  5  1  0
  5  6  2  0
  6  7  1  0
  7  8  2  0
  8  9  1  0
  9 10  1  0
 10 11  1  0
 11 12  2  0
 11 13  1  0
 13 14  2  0
 14 15  1  0
 15 16  2  0
 16 17  1  0
 17 18  1  0
 18 19  1  0
 17 20  2  0
 10 21  1  0
 21 22  2  0
 21 23  1  0
 23 24  2  0
 23 25  1  0
 25 26  1  0
 26 27  1  0
 27 28  1  0
 28 29  1  0
 29 30  1  0
 30 31  1  0
 31 32  1  0
 32 33  1  0
 33 34  1  0
  8 35  1  0
 35 36  2  0
 36  5  1  0
 25  9  1  0
 34 29  1  0
 20 13  1  0
  1 37  1  0
  1 38  1  0
  1 39  1  0
  6 40  1  0
  7 41  1  0
  9 42  1  0
 10 43  1  0
 14 44  1  0
 15 45  1  0
 16 46  1  0
 19 47  1  0
 19 48  1  0
 19 49  1  0
 20 50  1  0
 26 51  1  0
 26 52  1  0
 27 53  1  0
 27 54  1  0
 28 55  1  0
 28 56  1  0
 30 57  1  0
 30 58  1  0
 31 59  1  0
 31 60  1  0
 33 61  1  0
 33 62  1  0
 34 63  1  0
 34 64  1  0
 35 65  1  0
 36 66  1  0
M  END
$$$$
