
     RDKit          3D

 58 60  0  0  0  0  0  0  0  0999 V2000
    6.2665    0.7756    2.5455 C   0  0  0  0  0  0  0  0  0  0  0  0
    5.2094    0.4295    1.5312 C   0  0  0  0  0  0  0  0  0  0  0  0
    4.1837   -0.4617    1.8877 C   0  0  0  0  0  0  0  0  0  0  0  0
    3.1664   -0.8165    0.9867 C   0  0  0  0  0  0  0  0  0  0  0  0
    2.1045   -1.7801    1.4407 C   0  0  0  0  0  0  0  0  0  0  0  0
    3.1940   -0.2670   -0.3058 C   0  0  0  0  0  0  0  0  0  0  0  0
    2.1503   -0.6078   -1.3139 C   0  0  0  0  0  0  0  0  0  0  0  0
    1.7605   -1.7698   -1.4273 O   0  0  0  0  0  0  0  0  0  0  0  0
    1.6158    0.5270   -2.1722 C   0  0  0  0  0  0  0  0  0  0  0  0
   -0.1011    0.2029   -2.6821 S   0  0  0  0  0  0  0  0  0  0  0  0
   -0.8615    0.0779   -1.1053 C   0  0  0  0  0  0  0  0  0  0  0  0
   -0.4798    0.8674   -0.1561 N   0  0  0  0  0  0  0  0  0  0  0  0
   -1.1449    0.7684    1.0333 C   0  0  0  0  0  0  0  0  0  0  0  0
   -0.4347    1.0297    2.0745 N   0  0  0  0  0  0  0  0  0  0  0  0
   -2.6121    0.3667    1.1230 C   0  0  0  0  0  0  0  0  0  0  0  0
   -3.3596    1.4869    1.7138 C   0  0  0  0  0  0  0  0  0  0  0  0
   -3.9671    2.3583    2.1840 N   0  0  0  0  0  0  0  0  0  0  0  0
   -3.1688   -0.1725   -0.2461 C   0  0  0  0  0  0  0  0  0  0  0  0
   -3.6471    0.9590   -1.2284 C   0  0  0  0  0  0  0  0  0  0  0  0
   -5.0594    1.5120   -1.0301 C   0  0  0  0  0  0  0  0  0  0  0  0
   -6.0981    0.4201   -0.8455 C   0  0  0  0  0  0  0  0  0  0  0  0
   -5.6952   -0.5367    0.2626 C   0  0  0  0  0  0  0  0  0  0  0  0
   -4.3415   -1.1760   -0.0284 C   0  0  0  0  0  0  0  0  0  0  0  0
   -1.9797   -0.9277   -0.9668 C   0  0  0  0  0  0  0  0  0  0  0  0
   -1.4828   -2.1886   -0.2614 C   0  0  0  0  0  0  0  0  0  0  0  0
   -0.6761   -3.0087   -0.9933 N   0  0  0  0  0  0  0  0  0  0  0  0
   -1.7726   -2.4924    0.8896 O   0  0  0  0  0  0  0  0  0  0  0  0
    4.2183    0.6208   -0.6717 C   0  0  0  0  0  0  0  0  0  0  0  0
    5.2243    0.9818    0.2382 C   0  0  0  0  0  0  0  0  0  0  0  0
    6.3073    1.9328   -0.1954 C   0  0  0  0  0  0  0  0  0  0  0  0
    6.2213    1.8412    2.7909 H   0  0  0  0  0  0  0  0  0  0  0  0
    6.1313    0.2145    3.4765 H   0  0  0  0  0  0  0  0  0  0  0  0
    7.2610    0.5310    2.1585 H   0  0  0  0  0  0  0  0  0  0  0  0
    4.1759   -0.8873    2.8913 H   0  0  0  0  0  0  0  0  0  0  0  0
    2.1203   -1.9083    2.5286 H   0  0  0  0  0  0  0  0  0  0  0  0
    2.2636   -2.7623    0.9852 H   0  0  0  0  0  0  0  0  0  0  0  0
    1.1087   -1.4106    1.1830 H   0  0  0  0  0  0  0  0  0  0  0  0
    2.2332    0.6012   -3.0723 H   0  0  0  0  0  0  0  0  0  0  0  0
    1.6572    1.4798   -1.6363 H   0  0  0  0  0  0  0  0  0  0  0  0
    0.5014    1.2811    1.7353 H   0  0  0  0  0  0  0  0  0  0  0  0
   -2.6425   -0.4435    1.8631 H   0  0  0  0  0  0  0  0  0  0  0  0
   -2.9448    1.8014   -1.2200 H   0  0  0  0  0  0  0  0  0  0  0  0
   -3.6206    0.5606   -2.2525 H   0  0  0  0  0  0  0  0  0  0  0  0
   -5.3287    2.1195   -1.9030 H   0  0  0  0  0  0  0  0  0  0  0  0
   -5.0933    2.1960   -0.1793 H   0  0  0  0  0  0  0  0  0  0  0  0
   -7.0700    0.8699   -0.6134 H   0  0  0  0  0  0  0  0  0  0  0  0
   -6.2203   -0.1333   -1.7847 H   0  0  0  0  0  0  0  0  0  0  0  0
   -5.6753   -0.0166    1.2259 H   0  0  0  0  0  0  0  0  0  0  0  0
   -6.4528   -1.3242    0.3512 H   0  0  0  0  0  0  0  0  0  0  0  0
   -4.4517   -1.7962   -0.9286 H   0  0  0  0  0  0  0  0  0  0  0  0
   -4.1192   -1.8686    0.7901 H   0  0  0  0  0  0  0  0  0  0  0  0
   -2.3223   -1.2497   -1.9599 H   0  0  0  0  0  0  0  0  0  0  0  0
    0.0322   -2.5896   -1.5996 H   0  0  0  0  0  0  0  0  0  0  0  0
   -0.2912   -3.7824   -0.4615 H   0  0  0  0  0  0  0  0  0  0  0  0
    4.2556    1.0290   -1.6793 H   0  0  0  0  0  0  0  0  0  0  0  0
    6.1223    2.3203   -1.2029 H   0  0  0  0  0  0  0  0  0  0  0  0
    6.3540    2.7929    0.4798 H   0  0  0  0  0  0  0  0  0  0  0  0
    7.2759    1.4234   -0.2072 H   0  0  0  0  0  0  0  0  0  0  0  0
  1  2  1  0
  2  3  2  0
  3  4  1  0
  4  5  1  0
  4  6  2  0
  6  7  1  0
  7  8  2  0
  7  9  1  0
  9 10  1  0
 10 11  1  0
 11 12  2  0
 12 13  1  0
 13 14  2  3
 13 15  1  0
 15 16  1  0
 16 17  3  0
 15 18  1  0
 18 19  1  0
 19 20  1  0
 20 21  1  0
 21 22  1  0
 22 23  1  0
 18 24  1  0
 24 25  1  0
 25 26  1  0
 25 27  2  0
  6 28  1  0
 28 29  2  0
 29 30  1  0
 29  2  1  0
 24 11  1  0
 23 18  1  0
  1 31  1  0
  1 32  1  0
  1 33  1  0
  3 34  1  0
  5 35  1  0
  5 36  1  0
  5 37  1  0
  9 38  1  0
  9 39  1  0
 14 40  1  0
 15 41  1  0
 19 42  1  0
 19 43  1  0
 20 44  1  0
 20 45  1  0
 21 46  1  0
 21 47  1  0
 22 48  1  0
 22 49  1  0
 23 50  1  0
 23 51  1  0
 24 52  1  0
 26 53  1  0
 26 54  1  0
 28 55  1  0
 30 56  1  0
 30 57  1  0
 30 58  1  0
M  END
$$$$
