
     RDKit          3D

 51 54  0  0  0  0  0  0  0  0999 V2000
    2.6319   -1.7285   -1.5667 C   0  0  0  0  0  0  0  0  0  0  0  0
    2.5737   -0.1989   -1.5004 C   0  0  0  0  0  0  0  0  0  0  0  0
    1.2888    0.3212   -2.1812 C   0  0  0  0  0  0  0  0  0  0  0  0
    0.4563    0.7148   -1.0044 C   0  0  0  0  0  0  0  0  0  0  0  0
   -0.8736    1.1089   -1.0166 C   0  0  0  0  0  0  0  0  0  0  0  0
   -1.4459    1.5119    0.1936 C   0  0  0  0  0  0  0  0  0  0  0  0
   -3.1473    2.0243    0.2034 S   0  0  0  0  0  6  0  0  0  0  0  0
   -3.5112    2.4131    1.5497 O   0  0  0  0  0  0  0  0  0  0  0  0
   -3.3265    2.9264   -0.9147 O   0  0  0  0  0  0  0  0  0  0  0  0
   -3.9707    0.5675   -0.1474 N   0  0  0  0  0  0  0  0  0  0  0  0
   -3.8465   -0.5185    0.8677 C   0  0  0  0  0  0  0  0  0  0  0  0
   -5.1683   -0.7862    1.5745 C   0  0  0  0  0  0  0  0  0  0  0  0
   -6.2605   -1.2003    0.5911 C   0  0  0  0  0  0  0  0  0  0  0  0
   -6.0880   -0.5444   -0.7774 C   0  0  0  0  0  0  0  0  0  0  0  0
   -5.3490    0.7831   -0.6688 C   0  0  0  0  0  0  0  0  0  0  0  0
   -0.6936    1.5419    1.3783 C   0  0  0  0  0  0  0  0  0  0  0  0
    0.6485    1.1443    1.3667 C   0  0  0  0  0  0  0  0  0  0  0  0
    1.2133    0.7249    0.1708 C   0  0  0  0  0  0  0  0  0  0  0  0
    2.5293    0.2793   -0.0933 N   0  0  0  0  0  0  0  0  0  0  0  0
    3.5722    0.2647    0.8337 C   0  0  0  0  0  0  0  0  0  0  0  0
    3.4183    0.6079    2.0144 O   0  0  0  0  0  0  0  0  0  0  0  0
    4.9771   -0.1908    0.3318 C   0  0  0  0  0  0  0  0  0  0  0  0
    5.6001   -1.4356    1.0267 C   0  0  0  0  0  0  0  0  0  0  0  0
    6.9687   -0.7394    0.9120 C   0  0  0  0  0  0  0  0  0  0  0  0
    6.2077    0.5987    0.8690 C   0  0  0  0  0  0  0  0  0  0  0  0
    2.6411   -2.0683   -2.6077 H   0  0  0  0  0  0  0  0  0  0  0  0
    1.7681   -2.1823   -1.0678 H   0  0  0  0  0  0  0  0  0  0  0  0
    3.5289   -2.1210   -1.0813 H   0  0  0  0  0  0  0  0  0  0  0  0
    3.4500    0.2215   -2.0053 H   0  0  0  0  0  0  0  0  0  0  0  0
    1.5081    1.2102   -2.7830 H   0  0  0  0  0  0  0  0  0  0  0  0
    0.7983   -0.4300   -2.8072 H   0  0  0  0  0  0  0  0  0  0  0  0
   -1.4508    1.1174   -1.9370 H   0  0  0  0  0  0  0  0  0  0  0  0
   -3.0838   -0.2822    1.6159 H   0  0  0  0  0  0  0  0  0  0  0  0
   -3.5011   -1.4215    0.3501 H   0  0  0  0  0  0  0  0  0  0  0  0
   -5.0425   -1.5664    2.3337 H   0  0  0  0  0  0  0  0  0  0  0  0
   -5.4854    0.1199    2.1065 H   0  0  0  0  0  0  0  0  0  0  0  0
   -6.2616   -2.2897    0.4660 H   0  0  0  0  0  0  0  0  0  0  0  0
   -7.2375   -0.9374    1.0139 H   0  0  0  0  0  0  0  0  0  0  0  0
   -7.0687   -0.3993   -1.2439 H   0  0  0  0  0  0  0  0  0  0  0  0
   -5.5244   -1.2212   -1.4325 H   0  0  0  0  0  0  0  0  0  0  0  0
   -5.2814    1.2306   -1.6665 H   0  0  0  0  0  0  0  0  0  0  0  0
   -5.9017    1.4707   -0.0180 H   0  0  0  0  0  0  0  0  0  0  0  0
   -1.1417    1.8750    2.3125 H   0  0  0  0  0  0  0  0  0  0  0  0
    1.2140    1.1714    2.2921 H   0  0  0  0  0  0  0  0  0  0  0  0
    5.0535   -0.2754   -0.7578 H   0  0  0  0  0  0  0  0  0  0  0  0
    5.2690   -1.5906    2.0603 H   0  0  0  0  0  0  0  0  0  0  0  0
    5.5092   -2.3793    0.4825 H   0  0  0  0  0  0  0  0  0  0  0  0
    7.5045   -0.9715   -0.0157 H   0  0  0  0  0  0  0  0  0  0  0  0
    7.6453   -0.8752    1.7591 H   0  0  0  0  0  0  0  0  0  0  0  0
    6.0667    1.0553    1.8553 H   0  0  0  0  0  0  0  0  0  0  0  0
    6.6192    1.3493    0.1889 H   0  0  0  0  0  0  0  0  0  0  0  0
  1  2  1  0
  2  3  1  0
  3  4  1  0
  4  5  2  0
  5  6  1  0
  6  7  1  0
  7  8  2  0
  7  9  2  0
  7 10  1  0
 10 11  1  0
 11 12  1  0
 12 13  1  0
 13 14  1  0
 14 15  1  0
  6 16  2  0
 16 17  1  0
 17 18  2  0
 18 19  1  0
 19 20  1  0
 20 21  2  0
 20 22  1  0
 22 23  1  0
 23 24  1  0
 24 25  1  0
 19  2  1  0
 25 22  1  0
 18  4  1  0
 15 10  1  0
  1 26  1  0
  1 27  1  0
  1 28  1  0
  2 29  1  0
  3 30  1  0
  3 31  1  0
  5 32  1  0
 11 33  1  0
 11 34  1  0
 12 35  1  0
 12 36  1  0
 13 37  1  0
 13 38  1  0
 14 39  1  0
 14 40  1  0
 15 41  1  0
 15 42  1  0
 16 43  1  0
 17 44  1  0
 22 45  1  0
 23 46  1  0
 23 47  1  0
 24 48  1  0
 24 49  1  0
 25 50  1  0
 25 51  1  0
M  END
$$$$
