
     RDKit          3D

 34 34  0  0  0  0  0  0  0  0999 V2000
    5.0980    0.0291   -1.6026 C   0  0  0  0  0  0  0  0  0  0  0  0
    4.2008    0.4732   -0.5959 O   0  0  0  0  0  0  0  0  0  0  0  0
    3.0200   -0.2117   -0.4461 C   0  0  0  0  0  0  0  0  0  0  0  0
    2.6203   -1.2833   -1.2518 C   0  0  0  0  0  0  0  0  0  0  0  0
    1.3966   -1.9208   -1.0290 C   0  0  0  0  0  0  0  0  0  0  0  0
    0.5571   -1.5014    0.0074 C   0  0  0  0  0  0  0  0  0  0  0  0
   -0.7751   -2.1657    0.2422 C   0  0  0  0  0  0  0  0  0  0  0  0
   -1.8450   -1.3801   -0.3307 N   0  0  0  0  0  0  0  0  0  0  0  0
   -2.6116   -0.5424    0.4371 C   0  0  0  0  0  0  0  0  0  0  0  0
   -2.5324   -0.4485    1.6547 O   0  0  0  0  0  0  0  0  0  0  0  0
   -3.5585    0.2671   -0.3622 C   0  0  0  0  0  0  0  0  0  0  0  0
   -4.3545    1.1458    0.2628 C   0  0  0  0  0  0  0  0  0  0  0  0
   -5.3222    1.9901   -0.4418 C   0  0  0  0  0  0  0  0  0  0  0  0
   -6.0573    2.7971    0.0966 O   0  0  0  0  0  0  0  0  0  0  0  0
   -5.3396    1.8016   -1.7706 O   0  0  0  0  0  0  0  0  0  0  0  0
    0.9557   -0.4219    0.8123 C   0  0  0  0  0  0  0  0  0  0  0  0
    2.1774    0.2261    0.5948 C   0  0  0  0  0  0  0  0  0  0  0  0
    2.6344    1.2873    1.3373 O   0  0  0  0  0  0  0  0  0  0  0  0
    1.7994    1.7661    2.3824 C   0  0  0  0  0  0  0  0  0  0  0  0
    5.4196   -1.0016   -1.4203 H   0  0  0  0  0  0  0  0  0  0  0  0
    4.6572    0.1367   -2.5991 H   0  0  0  0  0  0  0  0  0  0  0  0
    5.9870    0.6659   -1.5630 H   0  0  0  0  0  0  0  0  0  0  0  0
    3.2389   -1.6458   -2.0658 H   0  0  0  0  0  0  0  0  0  0  0  0
    1.1081   -2.7494   -1.6720 H   0  0  0  0  0  0  0  0  0  0  0  0
   -0.9357   -2.3233    1.3147 H   0  0  0  0  0  0  0  0  0  0  0  0
   -0.8033   -3.1501   -0.2379 H   0  0  0  0  0  0  0  0  0  0  0  0
   -1.8839   -1.3189   -1.3378 H   0  0  0  0  0  0  0  0  0  0  0  0
   -3.5850    0.1272   -1.4349 H   0  0  0  0  0  0  0  0  0  0  0  0
   -4.3262    1.2831    1.3391 H   0  0  0  0  0  0  0  0  0  0  0  0
   -6.0243    2.4313   -2.0807 H   0  0  0  0  0  0  0  0  0  0  0  0
    0.2839   -0.1047    1.6056 H   0  0  0  0  0  0  0  0  0  0  0  0
    1.6450    0.9985    3.1478 H   0  0  0  0  0  0  0  0  0  0  0  0
    0.8456    2.1339    1.9899 H   0  0  0  0  0  0  0  0  0  0  0  0
    2.3095    2.6096    2.8574 H   0  0  0  0  0  0  0  0  0  0  0  0
  1  2  1  0
  2  3  1  0
  3  4  2  0
  4  5  1  0
  5  6  2  0
  6  7  1  0
  7  8  1  0
  8  9  1  0
  9 10  2  0
  9 11  1  0
 11 12  2  3
 12 13  1  0
 13 14  2  0
 13 15  1  0
  6 16  1  0
 16 17  2  0
 17 18  1  0
 18 19  1  0
 17  3  1  0
  1 20  1  0
  1 21  1  0
  1 22  1  0
  4 23  1  0
  5 24  1  0
  7 25  1  0
  7 26  1  0
  8 27  1  0
 11 28  1  0
 12 29  1  0
 15 30  1  0
 16 31  1  0
 19 32  1  0
 19 33  1  0
 19 34  1  0
M  END
$$$$
