
     RDKit          3D

 43 45  0  0  0  0  0  0  0  0999 V2000
   -6.1390   -0.5387   -0.1375 C   0  0  0  0  0  0  0  0  0  0  0  0
   -4.8607   -0.4722   -0.8423 N   0  0  0  0  0  0  0  0  0  0  0  0
   -4.0776   -1.7063   -0.6074 C   0  0  0  0  0  0  0  0  0  0  0  0
   -2.5528   -1.5028   -0.7507 C   0  0  0  0  0  0  0  0  0  0  0  0
   -2.0727   -0.5519    0.2707 N   0  0  0  0  0  0  0  0  0  0  0  0
   -0.7182   -0.4145    0.5448 C   0  0  0  0  0  0  0  0  0  0  0  0
    0.2418   -0.6913   -0.4476 C   0  0  0  0  0  0  0  0  0  0  0  0
    1.6205   -0.5358   -0.2285 C   0  0  0  0  0  0  0  0  0  0  0  0
    2.0911   -0.0892    1.0070 C   0  0  0  0  0  0  0  0  0  0  0  0
    3.5394    0.0697    1.2865 C   0  0  0  0  0  0  0  0  0  0  0  0
    3.9551   -0.1764    2.4152 O   0  0  0  0  0  0  0  0  0  0  0  0
    4.4951    0.5151    0.2418 C   0  0  0  0  0  0  0  0  0  0  0  0
    4.1417    1.4684   -0.7216 C   0  0  0  0  0  0  0  0  0  0  0  0
    5.0771    1.8710   -1.6791 C   0  0  0  0  0  0  0  0  0  0  0  0
    6.3633    1.3310   -1.6631 C   0  0  0  0  0  0  0  0  0  0  0  0
    7.6249    1.8789   -2.9596 Br  0  0  0  0  0  0  0  0  0  0  0  0
    6.7284    0.3976   -0.6941 C   0  0  0  0  0  0  0  0  0  0  0  0
    5.7952   -0.0056    0.2636 C   0  0  0  0  0  0  0  0  0  0  0  0
    1.1834    0.1553    2.0343 C   0  0  0  0  0  0  0  0  0  0  0  0
   -0.1899   -0.0109    1.7896 C   0  0  0  0  0  0  0  0  0  0  0  0
   -1.0566    0.1827    2.9316 N   0  0  0  0  0  4  0  0  0  0  0  0
   -1.2809    1.3552    3.2672 O   0  0  0  0  0  0  0  0  0  0  0  0
   -1.4807   -0.8279    3.5076 O   0  0  0  0  0  1  0  0  0  0  0  0
   -3.0134    0.5381    0.6201 C   0  0  0  0  0  0  0  0  0  0  0  0
   -4.0931    0.7357   -0.4715 C   0  0  0  0  0  0  0  0  0  0  0  0
   -6.6993   -1.4302   -0.4406 H   0  0  0  0  0  0  0  0  0  0  0  0
   -6.0118   -0.5621    0.9507 H   0  0  0  0  0  0  0  0  0  0  0  0
   -6.7628    0.3251   -0.3928 H   0  0  0  0  0  0  0  0  0  0  0  0
   -4.4086   -2.4701   -1.3202 H   0  0  0  0  0  0  0  0  0  0  0  0
   -4.2683   -2.0980    0.4015 H   0  0  0  0  0  0  0  0  0  0  0  0
   -2.0595   -2.4735   -0.6193 H   0  0  0  0  0  0  0  0  0  0  0  0
   -2.3248   -1.1347   -1.7587 H   0  0  0  0  0  0  0  0  0  0  0  0
   -0.0685   -1.0201   -1.4372 H   0  0  0  0  0  0  0  0  0  0  0  0
    2.3066   -0.7849   -1.0351 H   0  0  0  0  0  0  0  0  0  0  0  0
    3.1539    1.9219   -0.7296 H   0  0  0  0  0  0  0  0  0  0  0  0
    4.7981    2.6119   -2.4246 H   0  0  0  0  0  0  0  0  0  0  0  0
    7.7336   -0.0158   -0.6701 H   0  0  0  0  0  0  0  0  0  0  0  0
    6.0838   -0.7250    1.0283 H   0  0  0  0  0  0  0  0  0  0  0  0
    1.5390    0.4566    3.0187 H   0  0  0  0  0  0  0  0  0  0  0  0
   -2.4814    1.4897    0.7382 H   0  0  0  0  0  0  0  0  0  0  0  0
   -3.5041    0.2971    1.5701 H   0  0  0  0  0  0  0  0  0  0  0  0
   -3.5867    1.0795   -1.3835 H   0  0  0  0  0  0  0  0  0  0  0  0
   -4.7608    1.5574   -0.1838 H   0  0  0  0  0  0  0  0  0  0  0  0
  1  2  1  0
  2  3  1  0
  3  4  1  0
  4  5  1  0
  5  6  1  0
  6  7  2  0
  7  8  1  0
  8  9  2  0
  9 10  1  0
 10 11  2  0
 10 12  1  0
 12 13  2  0
 13 14  1  0
 14 15  2  0
 15 16  1  0
 15 17  1  0
 17 18  2  0
  9 19  1  0
 19 20  2  0
 20 21  1  0
 21 22  2  0
 21 23  1  0
  5 24  1  0
 24 25  1  0
 25  2  1  0
 20  6  1  0
 18 12  1  0
  1 26  1  0
  1 27  1  0
  1 28  1  0
  3 29  1  0
  3 30  1  0
  4 31  1  0
  4 32  1  0
  7 33  1  0
  8 34  1  0
 13 35  1  0
 14 36  1  0
 17 37  1  0
 18 38  1  0
 19 39  1  0
 24 40  1  0
 24 41  1  0
 25 42  1  0
 25 43  1  0
M  CHG  2  21   1  23  -1
M  END
$$$$
