
     RDKit          3D

 51 53  0  0  0  0  0  0  0  0999 V2000
   -7.1991    0.0471   -2.2214 C   0  0  0  0  0  0  0  0  0  0  0  0
   -6.2801    0.1944   -1.0399 C   0  0  0  0  0  0  0  0  0  0  0  0
   -6.2865    1.3901   -0.3095 C   0  0  0  0  0  0  0  0  0  0  0  0
   -5.4430    1.5570    0.7894 C   0  0  0  0  0  0  0  0  0  0  0  0
   -4.5841    0.5339    1.1868 C   0  0  0  0  0  0  0  0  0  0  0  0
   -3.8050    0.8324    2.2711 O   0  0  0  0  0  0  0  0  0  0  0  0
   -3.1399   -0.2416    2.9408 C   0  0  0  0  0  0  0  0  0  0  0  0
   -1.8002   -0.4371    2.3427 C   0  0  0  0  0  0  0  0  0  0  0  0
   -0.8987    0.3705    1.6959 C   0  0  0  0  0  0  0  0  0  0  0  0
    0.2013   -0.4761    1.3844 C   0  0  0  0  0  0  0  0  0  0  0  0
    1.4106   -0.0700    0.6461 C   0  0  0  0  0  0  0  0  0  0  0  0
    1.4084    0.9949    0.0231 O   0  0  0  0  0  0  0  0  0  0  0  0
    2.5523   -0.8857    0.6489 N   0  0  0  0  0  0  0  0  0  0  0  0
    2.7737   -2.0023    1.5560 C   0  0  0  0  0  0  0  0  0  0  0  0
    3.6461   -0.5433   -0.2603 C   0  0  0  0  0  0  0  0  0  0  0  0
    4.6315    0.4473    0.3684 C   0  0  0  0  0  0  0  0  0  0  0  0
    5.7647    0.7777   -0.5699 C   0  0  0  0  0  0  0  0  0  0  0  0
    5.6161    1.7906   -1.5270 C   0  0  0  0  0  0  0  0  0  0  0  0
    6.6551    2.0855   -2.4106 C   0  0  0  0  0  0  0  0  0  0  0  0
    7.8489    1.3692   -2.3483 C   0  0  0  0  0  0  0  0  0  0  0  0
    8.0046    0.3565   -1.4033 C   0  0  0  0  0  0  0  0  0  0  0  0
    6.9668    0.0596   -0.5185 C   0  0  0  0  0  0  0  0  0  0  0  0
   -0.0512   -1.7272    1.8082 N   0  0  0  0  0  0  0  0  0  0  0  0
   -1.2885   -1.6929    2.4174 O   0  0  0  0  0  0  0  0  0  0  0  0
   -4.5614   -0.6564    0.4588 C   0  0  0  0  0  0  0  0  0  0  0  0
   -5.4062   -0.8406   -0.6526 C   0  0  0  0  0  0  0  0  0  0  0  0
   -5.3466   -2.1383   -1.4129 C   0  0  0  0  0  0  0  0  0  0  0  0
   -6.6210   -0.1282   -3.1342 H   0  0  0  0  0  0  0  0  0  0  0  0
   -7.7983    0.9501   -2.3798 H   0  0  0  0  0  0  0  0  0  0  0  0
   -7.8928   -0.7844   -2.0621 H   0  0  0  0  0  0  0  0  0  0  0  0
   -6.9478    2.2062   -0.5925 H   0  0  0  0  0  0  0  0  0  0  0  0
   -5.4594    2.4938    1.3405 H   0  0  0  0  0  0  0  0  0  0  0  0
   -3.7427   -1.1568    2.9590 H   0  0  0  0  0  0  0  0  0  0  0  0
   -3.0135    0.0667    3.9847 H   0  0  0  0  0  0  0  0  0  0  0  0
   -1.0100    1.4196    1.4615 H   0  0  0  0  0  0  0  0  0  0  0  0
    3.8473   -2.1583    1.7004 H   0  0  0  0  0  0  0  0  0  0  0  0
    2.3344   -1.8014    2.5358 H   0  0  0  0  0  0  0  0  0  0  0  0
    2.3399   -2.9042    1.1159 H   0  0  0  0  0  0  0  0  0  0  0  0
    4.1513   -1.4707   -0.5576 H   0  0  0  0  0  0  0  0  0  0  0  0
    3.2232   -0.1153   -1.1779 H   0  0  0  0  0  0  0  0  0  0  0  0
    5.0360    0.0379    1.3028 H   0  0  0  0  0  0  0  0  0  0  0  0
    4.1154    1.3721    0.6559 H   0  0  0  0  0  0  0  0  0  0  0  0
    4.6875    2.3553   -1.5887 H   0  0  0  0  0  0  0  0  0  0  0  0
    6.5316    2.8742   -3.1482 H   0  0  0  0  0  0  0  0  0  0  0  0
    8.6575    1.5999   -3.0367 H   0  0  0  0  0  0  0  0  0  0  0  0
    8.9354   -0.2026   -1.3558 H   0  0  0  0  0  0  0  0  0  0  0  0
    7.1036   -0.7347    0.2116 H   0  0  0  0  0  0  0  0  0  0  0  0
   -3.8794   -1.4594    0.7215 H   0  0  0  0  0  0  0  0  0  0  0  0
   -4.6321   -2.8366   -0.9639 H   0  0  0  0  0  0  0  0  0  0  0  0
   -6.3266   -2.6260   -1.4107 H   0  0  0  0  0  0  0  0  0  0  0  0
   -5.0288   -1.9589   -2.4450 H   0  0  0  0  0  0  0  0  0  0  0  0
  1  2  1  0
  2  3  2  0
  3  4  1  0
  4  5  2  0
  5  6  1  0
  6  7  1  0
  7  8  1  0
  8  9  2  0
  9 10  1  0
 10 11  1  0
 11 12  2  0
 11 13  1  0
 13 14  1  0
 13 15  1  0
 15 16  1  0
 16 17  1  0
 17 18  2  0
 18 19  1  0
 19 20  2  0
 20 21  1  0
 21 22  2  0
 10 23  2  0
 23 24  1  0
  5 25  1  0
 25 26  2  0
 26 27  1  0
 26  2  1  0
 24  8  1  0
 22 17  1  0
  1 28  1  0
  1 29  1  0
  1 30  1  0
  3 31  1  0
  4 32  1  0
  7 33  1  0
  7 34  1  0
  9 35  1  0
 14 36  1  0
 14 37  1  0
 14 38  1  0
 15 39  1  0
 15 40  1  0
 16 41  1  0
 16 42  1  0
 18 43  1  0
 19 44  1  0
 20 45  1  0
 21 46  1  0
 22 47  1  0
 25 48  1  0
 27 49  1  0
 27 50  1  0
 27 51  1  0
M  END
$$$$
