
     RDKit          3D

 53 54  0  0  0  0  0  0  0  0999 V2000
   -1.5583    1.9334    3.6527 C   0  0  0  0  0  0  0  0  0  0  0  0
   -2.0013    2.3481    1.9448 S   0  0  0  0  0  0  0  0  0  0  0  0
   -0.3334    2.6003    1.2513 C   0  0  0  0  0  0  0  0  0  0  0  0
    0.5413    1.3473    1.1326 C   0  0  0  0  0  0  0  0  0  0  0  0
    0.0504    0.2531    0.1688 C   0  0  0  0  0  0  0  0  0  0  0  0
   -1.1297   -0.4541    0.6588 N   0  0  0  0  0  0  0  0  0  0  0  0
   -1.0657   -1.3663    1.6910 C   0  0  0  0  0  0  0  0  0  0  0  0
   -0.0014   -1.6983    2.2046 O   0  0  0  0  0  0  0  0  0  0  0  0
   -2.4357   -1.9037    2.1131 C   0  0  0  0  0  0  0  0  0  0  0  0
   -2.3414   -2.6442    3.3205 O   0  0  0  0  0  0  0  0  0  0  0  0
   -3.4974   -3.1836    3.8121 C   0  0  0  0  0  0  0  0  0  0  0  0
   -4.7664   -3.0714    3.2419 C   0  0  0  0  0  0  0  0  0  0  0  0
   -5.8676   -3.6769    3.8564 C   0  0  0  0  0  0  0  0  0  0  0  0
   -5.7055   -4.3953    5.0398 C   0  0  0  0  0  0  0  0  0  0  0  0
   -4.4414   -4.5102    5.6122 C   0  0  0  0  0  0  0  0  0  0  0  0
   -3.3432   -3.9056    4.9986 C   0  0  0  0  0  0  0  0  0  0  0  0
   -0.2468    0.8106   -1.2269 C   0  0  0  0  0  0  0  0  0  0  0  0
   -1.3587    0.8300   -1.7435 O   0  0  0  0  0  0  0  0  0  0  0  0
    0.8885    1.2914   -1.8047 O   0  0  0  0  0  0  0  0  0  0  0  0
    0.7054    1.7870   -3.1423 C   0  0  0  0  0  0  0  0  0  0  0  0
    2.0567    2.2334   -3.6953 C   0  0  0  0  0  0  0  0  0  0  0  0
    2.8607    1.0709   -3.9155 O   0  0  0  0  0  0  0  0  0  0  0  0
    4.1210    1.2664   -4.4073 C   0  0  0  0  0  0  0  0  0  0  0  0
    4.6938    2.4962   -4.7362 C   0  0  0  0  0  0  0  0  0  0  0  0
    6.0002    2.5517   -5.2350 C   0  0  0  0  0  0  0  0  0  0  0  0
    6.7313    1.3774   -5.4039 C   0  0  0  0  0  0  0  0  0  0  0  0
    8.4948    1.4576   -6.0782 Br  0  0  0  0  0  0  0  0  0  0  0  0
    6.1693    0.1464   -5.0787 C   0  0  0  0  0  0  0  0  0  0  0  0
    4.8652    0.0956   -4.5815 C   0  0  0  0  0  0  0  0  0  0  0  0
   -2.4736    1.8414    4.2436 H   0  0  0  0  0  0  0  0  0  0  0  0
   -1.0272    0.9802    3.6974 H   0  0  0  0  0  0  0  0  0  0  0  0
   -0.9419    2.7227    4.0903 H   0  0  0  0  0  0  0  0  0  0  0  0
   -0.4577    3.0641    0.2673 H   0  0  0  0  0  0  0  0  0  0  0  0
    0.1793    3.3422    1.8738 H   0  0  0  0  0  0  0  0  0  0  0  0
    1.5267    1.6833    0.7821 H   0  0  0  0  0  0  0  0  0  0  0  0
    0.7166    0.9217    2.1272 H   0  0  0  0  0  0  0  0  0  0  0  0
    0.8382   -0.5023    0.0550 H   0  0  0  0  0  0  0  0  0  0  0  0
   -2.0310   -0.0904    0.3609 H   0  0  0  0  0  0  0  0  0  0  0  0
   -2.7947   -2.5450    1.2992 H   0  0  0  0  0  0  0  0  0  0  0  0
   -3.1026   -1.0443    2.2524 H   0  0  0  0  0  0  0  0  0  0  0  0
   -4.9376   -2.5228    2.3223 H   0  0  0  0  0  0  0  0  0  0  0  0
   -6.8543   -3.5875    3.4090 H   0  0  0  0  0  0  0  0  0  0  0  0
   -6.5629   -4.8652    5.5143 H   0  0  0  0  0  0  0  0  0  0  0  0
   -4.3073   -5.0697    6.5340 H   0  0  0  0  0  0  0  0  0  0  0  0
   -2.3568   -3.9980    5.4468 H   0  0  0  0  0  0  0  0  0  0  0  0
    0.0212    2.6422   -3.1133 H   0  0  0  0  0  0  0  0  0  0  0  0
    0.2887    0.9887   -3.7676 H   0  0  0  0  0  0  0  0  0  0  0  0
    2.5493    2.8906   -2.9691 H   0  0  0  0  0  0  0  0  0  0  0  0
    1.8958    2.7564   -4.6449 H   0  0  0  0  0  0  0  0  0  0  0  0
    4.1551    3.4303   -4.6187 H   0  0  0  0  0  0  0  0  0  0  0  0
    6.4360    3.5148   -5.4882 H   0  0  0  0  0  0  0  0  0  0  0  0
    6.7310   -0.7748   -5.2062 H   0  0  0  0  0  0  0  0  0  0  0  0
    4.4246   -0.8656   -4.3265 H   0  0  0  0  0  0  0  0  0  0  0  0
  1  2  1  0
  2  3  1  0
  3  4  1  0
  4  5  1  0
  5  6  1  0
  6  7  1  0
  7  8  2  0
  7  9  1  0
  9 10  1  0
 10 11  1  0
 11 12  2  0
 12 13  1  0
 13 14  2  0
 14 15  1  0
 15 16  2  0
  5 17  1  0
 17 18  2  0
 17 19  1  0
 19 20  1  0
 20 21  1  0
 21 22  1  0
 22 23  1  0
 23 24  2  0
 24 25  1  0
 25 26  2  0
 26 27  1  0
 26 28  1  0
 28 29  2  0
 16 11  1  0
 29 23  1  0
  1 30  1  0
  1 31  1  0
  1 32  1  0
  3 33  1  0
  3 34  1  0
  4 35  1  0
  4 36  1  0
  5 37  1  0
  6 38  1  0
  9 39  1  0
  9 40  1  0
 12 41  1  0
 13 42  1  0
 14 43  1  0
 15 44  1  0
 16 45  1  0
 20 46  1  0
 20 47  1  0
 21 48  1  0
 21 49  1  0
 24 50  1  0
 25 51  1  0
 28 52  1  0
 29 53  1  0
M  END
$$$$
