
     RDKit          3D

 55 58  0  0  0  0  0  0  0  0999 V2000
   -3.6433    2.3325   -1.7073 C   0  0  0  0  0  0  0  0  0  0  0  0
   -4.1160    1.6655   -0.4148 C   0  0  0  0  0  0  0  0  0  0  0  0
   -4.0548    2.6224    0.7766 C   0  0  0  0  0  0  0  0  0  0  0  0
   -3.4490    0.3931   -0.1567 N   0  0  0  0  0  0  0  0  0  0  0  0
   -2.1063    0.1844    0.0887 C   0  0  0  0  0  0  0  0  0  0  0  0
   -1.2164    1.2139    0.1218 N   0  0  0  0  0  0  0  0  0  0  0  0
   -0.6085    1.4483    1.4537 C   0  0  0  0  0  0  0  0  0  0  0  0
    0.5948    0.5200    1.7439 C   0  0  0  0  0  0  0  0  0  0  0  0
    1.6591    0.5203    0.7112 N   0  0  0  0  0  0  0  0  0  0  0  0
    2.4065    1.8016    0.7191 C   0  0  0  0  0  0  0  0  0  0  0  0
    3.7032    1.6749   -0.0892 C   0  0  0  0  0  0  0  0  0  0  0  0
    4.1483    2.5886   -0.7771 O   0  0  0  0  0  0  0  0  0  0  0  0
    4.3292    0.4591    0.0689 N   0  0  0  0  0  0  0  0  0  0  0  0
    5.4756    0.1075   -0.7271 C   0  0  0  0  0  0  0  0  0  0  0  0
    5.9797   -1.2239   -0.2762 C   0  0  0  0  0  0  0  0  0  0  0  0
    5.5510   -2.4780   -0.6691 C   0  0  0  0  0  0  0  0  0  0  0  0
    6.2671   -3.5246   -0.0197 C   0  0  0  0  0  0  0  0  0  0  0  0
    7.2191   -3.0362    0.8467 C   0  0  0  0  0  0  0  0  0  0  0  0
    7.2461   -1.3271    0.8744 S   0  0  0  0  0  0  0  0  0  0  0  0
    1.0133    0.2596   -0.6026 C   0  0  0  0  0  0  0  0  0  0  0  0
   -0.1936    1.1658   -0.9506 C   0  0  0  0  0  0  0  0  0  0  0  0
   -1.8453   -1.0880    0.2708 N   0  0  0  0  0  0  0  0  0  0  0  0
   -3.0440   -1.7358    0.1475 C   0  0  0  0  0  0  0  0  0  0  0  0
   -3.3249   -3.1065    0.2544 C   0  0  0  0  0  0  0  0  0  0  0  0
   -4.6439   -3.5417    0.0878 C   0  0  0  0  0  0  0  0  0  0  0  0
   -5.6640   -2.6291   -0.1805 C   0  0  0  0  0  0  0  0  0  0  0  0
   -5.4025   -1.2579   -0.2909 C   0  0  0  0  0  0  0  0  0  0  0  0
   -4.0748   -0.8396   -0.1207 C   0  0  0  0  0  0  0  0  0  0  0  0
   -3.6641    1.6262   -2.5443 H   0  0  0  0  0  0  0  0  0  0  0  0
   -4.2953    3.1753   -1.9618 H   0  0  0  0  0  0  0  0  0  0  0  0
   -2.6252    2.7233   -1.6223 H   0  0  0  0  0  0  0  0  0  0  0  0
   -5.1760    1.4298   -0.5626 H   0  0  0  0  0  0  0  0  0  0  0  0
   -4.3647    2.1210    1.6999 H   0  0  0  0  0  0  0  0  0  0  0  0
   -3.0496    3.0242    0.9327 H   0  0  0  0  0  0  0  0  0  0  0  0
   -4.7242    3.4746    0.6154 H   0  0  0  0  0  0  0  0  0  0  0  0
   -1.3608    1.3320    2.2449 H   0  0  0  0  0  0  0  0  0  0  0  0
   -0.2836    2.4951    1.4974 H   0  0  0  0  0  0  0  0  0  0  0  0
    0.2375   -0.5111    1.8571 H   0  0  0  0  0  0  0  0  0  0  0  0
    1.0260    0.7818    2.7182 H   0  0  0  0  0  0  0  0  0  0  0  0
    1.8213    2.6378    0.3246 H   0  0  0  0  0  0  0  0  0  0  0  0
    2.7143    2.0546    1.7412 H   0  0  0  0  0  0  0  0  0  0  0  0
    3.7323   -0.2757    0.4423 H   0  0  0  0  0  0  0  0  0  0  0  0
    5.1623    0.0660   -1.7768 H   0  0  0  0  0  0  0  0  0  0  0  0
    6.2317    0.8956   -0.6388 H   0  0  0  0  0  0  0  0  0  0  0  0
    4.7564   -2.6375   -1.3887 H   0  0  0  0  0  0  0  0  0  0  0  0
    6.0920   -4.5817   -0.1788 H   0  0  0  0  0  0  0  0  0  0  0  0
    7.9019   -3.5999    1.4675 H   0  0  0  0  0  0  0  0  0  0  0  0
    0.6857   -0.7877   -0.6059 H   0  0  0  0  0  0  0  0  0  0  0  0
    1.7534    0.3271   -1.4088 H   0  0  0  0  0  0  0  0  0  0  0  0
    0.1531    2.1899   -1.1324 H   0  0  0  0  0  0  0  0  0  0  0  0
   -0.6427    0.8297   -1.8946 H   0  0  0  0  0  0  0  0  0  0  0  0
   -2.5248   -3.8077    0.4632 H   0  0  0  0  0  0  0  0  0  0  0  0
   -4.8727   -4.6015    0.1690 H   0  0  0  0  0  0  0  0  0  0  0  0
   -6.6833   -2.9890   -0.3066 H   0  0  0  0  0  0  0  0  0  0  0  0
   -6.2066   -0.5613   -0.5000 H   0  0  0  0  0  0  0  0  0  0  0  0
  1  2  1  0
  2  3  1  0
  2  4  1  0
  4  5  1  0
  5  6  1  0
  6  7  1  0
  7  8  1  0
  8  9  1  0
  9 10  1  0
 10 11  1  0
 11 12  2  0
 11 13  1  0
 13 14  1  0
 14 15  1  0
 15 16  2  0
 16 17  1  0
 17 18  2  0
 18 19  1  0
  9 20  1  0
 20 21  1  0
  5 22  2  0
 22 23  1  0
 23 24  2  0
 24 25  1  0
 25 26  2  0
 26 27  1  0
 27 28  2  0
 28  4  1  0
 21  6  1  0
 28 23  1  0
 19 15  1  0
  1 29  1  0
  1 30  1  0
  1 31  1  0
  2 32  1  0
  3 33  1  0
  3 34  1  0
  3 35  1  0
  7 36  1  0
  7 37  1  0
  8 38  1  0
  8 39  1  0
 10 40  1  0
 10 41  1  0
 13 42  1  0
 14 43  1  0
 14 44  1  0
 16 45  1  0
 17 46  1  0
 18 47  1  0
 20 48  1  0
 20 49  1  0
 21 50  1  0
 21 51  1  0
 24 52  1  0
 25 53  1  0
 26 54  1  0
 27 55  1  0
M  END
$$$$
