
     RDKit          3D

 50 52  0  0  0  0  0  0  0  0999 V2000
    3.3824   -0.1151   -0.9091 O   0  0  0  0  0  0  0  0  0  0  0  0
    3.6783    1.0079   -0.5241 C   0  0  0  0  0  0  0  0  0  0  0  0
    5.0599    1.4949   -0.1452 C   0  0  0  0  0  0  0  0  0  0  0  0
    6.1002    0.4008   -0.0754 C   0  0  0  0  0  0  0  0  0  0  0  0
    6.1616   -0.4437    1.0453 C   0  0  0  0  0  0  0  0  0  0  0  0
    7.1146   -1.4609    1.1102 C   0  0  0  0  0  0  0  0  0  0  0  0
    8.0020   -1.6366    0.0559 C   0  0  0  0  0  0  0  0  0  0  0  0
    8.9169   -2.6131    0.1187 F   0  0  0  0  0  0  0  0  0  0  0  0
    7.9536   -0.8158   -1.0645 C   0  0  0  0  0  0  0  0  0  0  0  0
    7.0014    0.2024   -1.1331 C   0  0  0  0  0  0  0  0  0  0  0  0
    2.7877    2.0377   -0.3947 O   0  0  0  0  0  0  0  0  0  0  0  0
    1.4231    1.6393   -0.5428 C   0  0  0  0  0  0  0  0  0  0  0  0
    0.8979    0.8935    0.6938 C   0  0  0  0  0  0  0  0  0  0  0  0
    1.5790    0.8176    1.7201 O   0  0  0  0  0  0  0  0  0  0  0  0
   -0.3669    0.3113    0.6043 N   0  0  0  0  0  0  0  0  0  0  0  0
   -1.3446    0.6659   -0.4324 C   0  0  0  0  0  0  0  0  0  0  0  0
   -2.4102   -0.4212   -0.6596 C   0  0  0  0  0  0  0  0  0  0  0  0
   -3.0142   -0.9171    0.6131 N   0  0  0  0  0  0  0  0  0  0  0  0
   -4.2553    0.0220    1.3019 S   0  0  0  0  0  6  0  0  0  0  0  0
   -3.8230    1.4027    1.2910 O   0  0  0  0  0  0  0  0  0  0  0  0
   -4.6940   -0.6209    2.5204 O   0  0  0  0  0  0  0  0  0  0  0  0
   -5.5691   -0.1585    0.1185 C   0  0  0  0  0  0  0  0  0  0  0  0
   -6.0976   -1.4329   -0.1152 C   0  0  0  0  0  0  0  0  0  0  0  0
   -7.1279   -1.5891   -1.0441 C   0  0  0  0  0  0  0  0  0  0  0  0
   -7.6223   -0.4754   -1.7250 C   0  0  0  0  0  0  0  0  0  0  0  0
   -8.8899   -0.6709   -2.8715 Cl  0  0  0  0  0  0  0  0  0  0  0  0
   -7.0984    0.7964   -1.4841 C   0  0  0  0  0  0  0  0  0  0  0  0
   -6.0673    0.9601   -0.5564 C   0  0  0  0  0  0  0  0  0  0  0  0
   -1.9487   -1.3587    1.5654 C   0  0  0  0  0  0  0  0  0  0  0  0
   -0.9333   -0.2458    1.8393 C   0  0  0  0  0  0  0  0  0  0  0  0
    5.3662    2.2531   -0.8755 H   0  0  0  0  0  0  0  0  0  0  0  0
    5.0028    1.9840    0.8350 H   0  0  0  0  0  0  0  0  0  0  0  0
    5.4612   -0.3183    1.8693 H   0  0  0  0  0  0  0  0  0  0  0  0
    7.1657   -2.1183    1.9719 H   0  0  0  0  0  0  0  0  0  0  0  0
    8.6540   -0.9765   -1.8775 H   0  0  0  0  0  0  0  0  0  0  0  0
    6.9661    0.8350   -2.0170 H   0  0  0  0  0  0  0  0  0  0  0  0
    1.3049    1.0329   -1.4469 H   0  0  0  0  0  0  0  0  0  0  0  0
    0.8340    2.5545   -0.6613 H   0  0  0  0  0  0  0  0  0  0  0  0
   -1.8010    1.6129   -0.1282 H   0  0  0  0  0  0  0  0  0  0  0  0
   -0.8397    0.8560   -1.3828 H   0  0  0  0  0  0  0  0  0  0  0  0
   -3.1831   -0.0580   -1.3436 H   0  0  0  0  0  0  0  0  0  0  0  0
   -1.9466   -1.2838   -1.1556 H   0  0  0  0  0  0  0  0  0  0  0  0
   -5.7137   -2.2972    0.4232 H   0  0  0  0  0  0  0  0  0  0  0  0
   -7.5430   -2.5768   -1.2293 H   0  0  0  0  0  0  0  0  0  0  0  0
   -7.4928    1.6616   -2.0115 H   0  0  0  0  0  0  0  0  0  0  0  0
   -5.6683    1.9537   -0.3643 H   0  0  0  0  0  0  0  0  0  0  0  0
   -1.4402   -2.2209    1.1151 H   0  0  0  0  0  0  0  0  0  0  0  0
   -2.3892   -1.7199    2.5000 H   0  0  0  0  0  0  0  0  0  0  0  0
   -1.3991    0.5836    2.3841 H   0  0  0  0  0  0  0  0  0  0  0  0
   -0.1342   -0.6435    2.4743 H   0  0  0  0  0  0  0  0  0  0  0  0
  1  2  2  0
  2  3  1  0
  3  4  1  0
  4  5  2  0
  5  6  1  0
  6  7  2  0
  7  8  1  0
  7  9  1  0
  9 10  2  0
  2 11  1  0
 11 12  1  0
 12 13  1  0
 13 14  2  0
 13 15  1  0
 15 16  1  0
 16 17  1  0
 17 18  1  0
 18 19  1  0
 19 20  2  0
 19 21  2  0
 19 22  1  0
 22 23  2  0
 23 24  1  0
 24 25  2  0
 25 26  1  0
 25 27  1  0
 27 28  2  0
 18 29  1  0
 29 30  1  0
 10  4  1  0
 30 15  1  0
 28 22  1  0
  3 31  1  0
  3 32  1  0
  5 33  1  0
  6 34  1  0
  9 35  1  0
 10 36  1  0
 12 37  1  0
 12 38  1  0
 16 39  1  0
 16 40  1  0
 17 41  1  0
 17 42  1  0
 23 43  1  0
 24 44  1  0
 27 45  1  0
 28 46  1  0
 29 47  1  0
 29 48  1  0
 30 49  1  0
 30 50  1  0
M  END
$$$$
