
     RDKit          3D

 63 67  0  0  0  0  0  0  0  0999 V2000
    8.8575    1.8492   -2.2185 C   0  0  0  0  0  0  0  0  0  0  0  0
    8.3794    0.7604   -1.4375 O   0  0  0  0  0  0  0  0  0  0  0  0
    7.0461    0.7572   -1.1234 C   0  0  0  0  0  0  0  0  0  0  0  0
    6.1770    1.8333   -1.3055 C   0  0  0  0  0  0  0  0  0  0  0  0
    4.8236    1.7171   -0.9594 C   0  0  0  0  0  0  0  0  0  0  0  0
    4.3054    0.5265   -0.4242 C   0  0  0  0  0  0  0  0  0  0  0  0
    2.8826    0.4135   -0.0755 C   0  0  0  0  0  0  0  0  0  0  0  0
    1.8841    0.6363   -1.0411 C   0  0  0  0  0  0  0  0  0  0  0  0
    0.5261    0.5406   -0.7160 C   0  0  0  0  0  0  0  0  0  0  0  0
    0.1434    0.2115    0.5861 C   0  0  0  0  0  0  0  0  0  0  0  0
    1.1231    0.0125    1.5464 C   0  0  0  0  0  0  0  0  0  0  0  0
    2.4832    0.0953    1.2312 C   0  0  0  0  0  0  0  0  0  0  0  0
    0.6181   -0.3315    3.1865 S   0  0  0  0  0  6  0  0  0  0  0  0
    1.5155   -1.3525    3.6909 O   0  0  0  0  0  0  0  0  0  0  0  0
    0.4433    0.9396    3.8555 O   0  0  0  0  0  0  0  0  0  0  0  0
   -0.9759   -1.0713    3.0743 C   0  0  0  0  0  0  0  0  0  0  0  0
   -1.3738   -1.9399    4.0978 C   0  0  0  0  0  0  0  0  0  0  0  0
   -2.5969   -2.5887    4.0013 C   0  0  0  0  0  0  0  0  0  0  0  0
   -3.3995   -2.3772    2.8812 C   0  0  0  0  0  0  0  0  0  0  0  0
   -3.0060   -1.4950    1.8531 C   0  0  0  0  0  0  0  0  0  0  0  0
   -3.9290   -1.4733    0.6864 C   0  0  0  0  0  0  0  0  0  0  0  0
   -4.3130   -2.5448    0.2288 O   0  0  0  0  0  0  0  0  0  0  0  0
   -4.3482   -0.2496    0.2275 N   0  0  0  0  0  0  0  0  0  0  0  0
   -5.2017   -0.1199   -0.9469 C   0  0  0  0  0  0  0  0  0  0  0  0
   -5.1377    1.3127   -1.4927 C   0  0  0  0  0  0  0  0  0  0  0  0
   -6.0578    1.5056   -2.6945 C   0  0  0  0  0  0  0  0  0  0  0  0
   -7.4943    1.1075   -2.3727 C   0  0  0  0  0  0  0  0  0  0  0  0
   -7.5735   -0.3129   -1.8226 C   0  0  0  0  0  0  0  0  0  0  0  0
   -6.6528   -0.5058   -0.6199 C   0  0  0  0  0  0  0  0  0  0  0  0
   -1.7758   -0.8217    1.9513 C   0  0  0  0  0  0  0  0  0  0  0  0
   -1.2928    0.1233    0.9162 C   0  0  0  0  0  0  0  0  0  0  0  0
   -2.0710    0.8752    0.3420 O   0  0  0  0  0  0  0  0  0  0  0  0
    5.1861   -0.5466   -0.2318 C   0  0  0  0  0  0  0  0  0  0  0  0
    6.5395   -0.4223   -0.5608 C   0  0  0  0  0  0  0  0  0  0  0  0
    7.3407   -1.5245   -0.3877 O   0  0  0  0  0  0  0  0  0  0  0  0
    8.0269   -1.4395    0.8606 C   0  0  0  0  0  0  0  0  0  0  0  0
    8.2818    1.9637   -3.1424 H   0  0  0  0  0  0  0  0  0  0  0  0
    8.8592    2.7752   -1.6359 H   0  0  0  0  0  0  0  0  0  0  0  0
    9.8903    1.6293   -2.4998 H   0  0  0  0  0  0  0  0  0  0  0  0
    6.5180    2.7803   -1.7085 H   0  0  0  0  0  0  0  0  0  0  0  0
    4.1722    2.5773   -1.1070 H   0  0  0  0  0  0  0  0  0  0  0  0
    2.1624    0.8810   -2.0662 H   0  0  0  0  0  0  0  0  0  0  0  0
   -0.2246    0.7212   -1.4845 H   0  0  0  0  0  0  0  0  0  0  0  0
    3.2311   -0.0642    2.0074 H   0  0  0  0  0  0  0  0  0  0  0  0
   -0.7324   -2.1185    4.9599 H   0  0  0  0  0  0  0  0  0  0  0  0
   -2.9219   -3.2721    4.7842 H   0  0  0  0  0  0  0  0  0  0  0  0
   -4.3441   -2.9168    2.7971 H   0  0  0  0  0  0  0  0  0  0  0  0
   -3.7570    0.5505    0.4551 H   0  0  0  0  0  0  0  0  0  0  0  0
   -4.8144   -0.8077   -1.7103 H   0  0  0  0  0  0  0  0  0  0  0  0
   -4.1082    1.5560   -1.7814 H   0  0  0  0  0  0  0  0  0  0  0  0
   -5.4147    2.0248   -0.7046 H   0  0  0  0  0  0  0  0  0  0  0  0
   -6.0295    2.5531   -3.0155 H   0  0  0  0  0  0  0  0  0  0  0  0
   -5.6908    0.9039   -3.5351 H   0  0  0  0  0  0  0  0  0  0  0  0
   -8.1099    1.1877   -3.2759 H   0  0  0  0  0  0  0  0  0  0  0  0
   -7.9123    1.8066   -1.6371 H   0  0  0  0  0  0  0  0  0  0  0  0
   -7.2971   -1.0253   -2.6105 H   0  0  0  0  0  0  0  0  0  0  0  0
   -8.6070   -0.5379   -1.5357 H   0  0  0  0  0  0  0  0  0  0  0  0
   -7.0176    0.1011    0.2201 H   0  0  0  0  0  0  0  0  0  0  0  0
   -6.7092   -1.5498   -0.2903 H   0  0  0  0  0  0  0  0  0  0  0  0
    4.8268   -1.4940    0.1624 H   0  0  0  0  0  0  0  0  0  0  0  0
    8.8108   -2.2036    0.8624 H   0  0  0  0  0  0  0  0  0  0  0  0
    8.5016   -0.4629    1.0228 H   0  0  0  0  0  0  0  0  0  0  0  0
    7.3346   -1.6592    1.6823 H   0  0  0  0  0  0  0  0  0  0  0  0
  1  2  1  0
  2  3  1  0
  3  4  2  0
  4  5  1  0
  5  6  2  0
  6  7  1  0
  7  8  2  0
  8  9  1  0
  9 10  2  0
 10 11  1  0
 11 12  2  0
 11 13  1  0
 13 14  2  0
 13 15  2  0
 13 16  1  0
 16 17  2  0
 17 18  1  0
 18 19  2  0
 19 20  1  0
 20 21  1  0
 21 22  2  0
 21 23  1  0
 23 24  1  0
 24 25  1  0
 25 26  1  0
 26 27  1  0
 27 28  1  0
 28 29  1  0
 20 30  2  0
 30 31  1  0
 31 32  2  0
  6 33  1  0
 33 34  2  0
 34 35  1  0
 35 36  1  0
 34  3  1  0
 12  7  1  0
 30 16  1  0
 31 10  1  0
 29 24  1  0
  1 37  1  0
  1 38  1  0
  1 39  1  0
  4 40  1  0
  5 41  1  0
  8 42  1  0
  9 43  1  0
 12 44  1  0
 17 45  1  0
 18 46  1  0
 19 47  1  0
 23 48  1  0
 24 49  1  0
 25 50  1  0
 25 51  1  0
 26 52  1  0
 26 53  1  0
 27 54  1  0
 27 55  1  0
 28 56  1  0
 28 57  1  0
 29 58  1  0
 29 59  1  0
 33 60  1  0
 36 61  1  0
 36 62  1  0
 36 63  1  0
M  END
$$$$
