
     RDKit          3D

 36 38  0  0  0  0  0  0  0  0999 V2000
   -4.4112    2.2901   -0.3303 C   0  0  0  0  0  0  0  0  0  0  0  0
   -3.4237    1.2478   -0.1505 N   0  0  0  0  0  0  0  0  0  0  0  0
   -2.0672    1.4350   -0.2272 C   0  0  0  0  0  0  0  0  0  0  0  0
   -1.4542    0.2212   -0.0013 C   0  0  0  0  0  0  0  0  0  0  0  0
   -0.0450   -0.0284    0.0133 C   0  0  0  0  0  0  0  0  0  0  0  0
    0.9202    0.8632   -0.2706 C   0  0  0  0  0  0  0  0  0  0  0  0
    2.3517    0.5434   -0.2432 C   0  0  0  0  0  0  0  0  0  0  0  0
    3.1773    1.0260   -1.2566 C   0  0  0  0  0  0  0  0  0  0  0  0
    4.5390    0.7456   -1.2294 C   0  0  0  0  0  0  0  0  0  0  0  0
    5.0715    0.0154   -0.2243 N   0  0  0  0  0  4  0  0  0  0  0  0
    6.5182   -0.2609   -0.2113 C   0  0  0  0  0  0  0  0  0  0  0  0
    4.2950   -0.4414    0.7833 C   0  0  0  0  0  0  0  0  0  0  0  0
    2.9281   -0.1871    0.7951 C   0  0  0  0  0  0  0  0  0  0  0  0
   -2.4873   -0.7436    0.2234 C   0  0  0  0  0  0  0  0  0  0  0  0
   -2.4998   -2.1284    0.5018 C   0  0  0  0  0  0  0  0  0  0  0  0
   -3.7224   -2.7844    0.6704 C   0  0  0  0  0  0  0  0  0  0  0  0
   -3.7303   -4.4731    1.0106 Cl  0  0  0  0  0  0  0  0  0  0  0  0
   -4.9266   -2.0980    0.5682 C   0  0  0  0  0  0  0  0  0  0  0  0
   -4.9427   -0.7278    0.2926 C   0  0  0  0  0  0  0  0  0  0  0  0
   -3.7115   -0.0727    0.1241 C   0  0  0  0  0  0  0  0  0  0  0  0
   -4.9963    2.3738    0.5891 H   0  0  0  0  0  0  0  0  0  0  0  0
   -3.9092    3.2388   -0.5369 H   0  0  0  0  0  0  0  0  0  0  0  0
   -5.0502    2.0184   -1.1744 H   0  0  0  0  0  0  0  0  0  0  0  0
   -1.6623    2.4169   -0.4325 H   0  0  0  0  0  0  0  0  0  0  0  0
    0.2438   -1.0460    0.2672 H   0  0  0  0  0  0  0  0  0  0  0  0
    0.6642    1.8791   -0.5625 H   0  0  0  0  0  0  0  0  0  0  0  0
    2.7661    1.6125   -2.0766 H   0  0  0  0  0  0  0  0  0  0  0  0
    5.2099    1.1027   -2.0057 H   0  0  0  0  0  0  0  0  0  0  0  0
    6.8824   -0.3130   -1.2406 H   0  0  0  0  0  0  0  0  0  0  0  0
    6.6952   -1.2194    0.2834 H   0  0  0  0  0  0  0  0  0  0  0  0
    7.0020    0.5540    0.3327 H   0  0  0  0  0  0  0  0  0  0  0  0
    4.7767   -1.0043    1.5780 H   0  0  0  0  0  0  0  0  0  0  0  0
    2.3242   -0.5525    1.6238 H   0  0  0  0  0  0  0  0  0  0  0  0
   -1.5710   -2.6828    0.5837 H   0  0  0  0  0  0  0  0  0  0  0  0
   -5.8689   -2.6243    0.7022 H   0  0  0  0  0  0  0  0  0  0  0  0
   -5.8860   -0.1956    0.2133 H   0  0  0  0  0  0  0  0  0  0  0  0
  1  2  1  0
  2  3  1  0
  3  4  2  0
  4  5  1  0
  5  6  2  3
  6  7  1  0
  7  8  2  0
  8  9  1  0
  9 10  2  0
 10 11  1  0
 10 12  1  0
 12 13  2  0
  4 14  1  0
 14 15  2  0
 15 16  1  0
 16 17  1  0
 16 18  2  0
 18 19  1  0
 19 20  2  0
 20  2  1  0
 13  7  1  0
 20 14  1  0
  1 21  1  0
  1 22  1  0
  1 23  1  0
  3 24  1  0
  5 25  1  0
  6 26  1  0
  8 27  1  0
  9 28  1  0
 11 29  1  0
 11 30  1  0
 11 31  1  0
 12 32  1  0
 13 33  1  0
 15 34  1  0
 18 35  1  0
 19 36  1  0
M  CHG  1  10   1
M  END
$$$$
