
     RDKit          3D

 53 56  0  0  0  0  0  0  0  0999 V2000
   -2.7117   -4.2901    1.6966 C   0  0  0  0  0  0  0  0  0  0  0  0
   -3.7130   -3.1423    1.6507 C   0  0  0  0  0  0  0  0  0  0  0  0
   -3.2516   -1.9136    2.4558 C   0  0  0  0  0  0  0  0  0  0  0  0
   -4.3532   -0.8385    2.6221 C   0  0  0  0  0  0  0  0  0  0  0  0
   -4.8123   -0.1078    1.3846 C   0  0  0  0  0  0  0  0  0  0  0  0
   -4.2341    1.1182    1.0261 C   0  0  0  0  0  0  0  0  0  0  0  0
   -4.6631    1.7998   -0.1139 C   0  0  0  0  0  0  0  0  0  0  0  0
   -5.6775    1.2660   -0.9054 C   0  0  0  0  0  0  0  0  0  0  0  0
   -6.2633    0.0508   -0.5574 C   0  0  0  0  0  0  0  0  0  0  0  0
   -5.8345   -0.6322    0.5821 C   0  0  0  0  0  0  0  0  0  0  0  0
   -1.9613   -1.3465    2.0567 N   0  0  0  0  0  0  0  0  0  0  0  0
   -1.5744   -1.0778    0.7607 C   0  0  0  0  0  0  0  0  0  0  0  0
   -2.1884   -1.4182   -0.2412 O   0  0  0  0  0  0  0  0  0  0  0  0
   -0.2786   -0.3596    0.6044 C   0  0  0  0  0  0  0  0  0  0  0  0
    0.1510    0.5900    1.5354 C   0  0  0  0  0  0  0  0  0  0  0  0
    1.3718    1.2527    1.3571 C   0  0  0  0  0  0  0  0  0  0  0  0
    2.1682    0.9688    0.2288 C   0  0  0  0  0  0  0  0  0  0  0  0
    3.3883    1.5453   -0.0653 N   0  0  0  0  0  0  0  0  0  0  0  0
    3.8867    1.0748   -1.1896 C   0  0  0  0  0  0  0  0  0  0  0  0
    5.0797    1.5020   -1.7154 N   0  0  0  0  0  0  0  0  0  0  0  0
    5.8903    0.5698   -2.5220 C   0  0  0  0  0  0  0  0  0  0  0  0
    7.0320    1.3182   -3.2277 C   0  0  0  0  0  0  0  0  0  0  0  0
    7.8412    2.0501   -2.2966 O   0  0  0  0  0  0  0  0  0  0  0  0
    7.0351    3.0209   -1.6125 C   0  0  0  0  0  0  0  0  0  0  0  0
    5.8986    2.3540   -0.8265 C   0  0  0  0  0  0  0  0  0  0  0  0
    2.8651   -0.0940   -1.9606 S   0  0  0  0  0  0  0  0  0  0  0  0
    1.7130    0.0346   -0.6965 C   0  0  0  0  0  0  0  0  0  0  0  0
    0.4911   -0.6390   -0.5354 C   0  0  0  0  0  0  0  0  0  0  0  0
   -1.7637   -4.0172    1.2239 H   0  0  0  0  0  0  0  0  0  0  0  0
   -3.1123   -5.1587    1.1641 H   0  0  0  0  0  0  0  0  0  0  0  0
   -2.5082   -4.5919    2.7289 H   0  0  0  0  0  0  0  0  0  0  0  0
   -4.6617   -3.5032    2.0677 H   0  0  0  0  0  0  0  0  0  0  0  0
   -3.9146   -2.8889    0.6059 H   0  0  0  0  0  0  0  0  0  0  0  0
   -3.0593   -2.2791    3.4749 H   0  0  0  0  0  0  0  0  0  0  0  0
   -4.0033   -0.0919    3.3489 H   0  0  0  0  0  0  0  0  0  0  0  0
   -5.2313   -1.2995    3.0949 H   0  0  0  0  0  0  0  0  0  0  0  0
   -3.4378    1.5469    1.6285 H   0  0  0  0  0  0  0  0  0  0  0  0
   -4.2002    2.7435   -0.3888 H   0  0  0  0  0  0  0  0  0  0  0  0
   -6.0060    1.7924   -1.7971 H   0  0  0  0  0  0  0  0  0  0  0  0
   -7.0494   -0.3703   -1.1781 H   0  0  0  0  0  0  0  0  0  0  0  0
   -6.3005   -1.5815    0.8341 H   0  0  0  0  0  0  0  0  0  0  0  0
   -1.3229   -1.1189    2.8054 H   0  0  0  0  0  0  0  0  0  0  0  0
   -0.4616    0.8539    2.3929 H   0  0  0  0  0  0  0  0  0  0  0  0
    1.7113    1.9943    2.0739 H   0  0  0  0  0  0  0  0  0  0  0  0
    5.2955    0.0732   -3.2957 H   0  0  0  0  0  0  0  0  0  0  0  0
    6.3120   -0.1978   -1.8610 H   0  0  0  0  0  0  0  0  0  0  0  0
    7.6820    0.6024   -3.7410 H   0  0  0  0  0  0  0  0  0  0  0  0
    6.6397    2.0112   -3.9819 H   0  0  0  0  0  0  0  0  0  0  0  0
    6.6411    3.7373   -2.3435 H   0  0  0  0  0  0  0  0  0  0  0  0
    7.6879    3.5704   -0.9269 H   0  0  0  0  0  0  0  0  0  0  0  0
    6.3239    1.7312   -0.0291 H   0  0  0  0  0  0  0  0  0  0  0  0
    5.2946    3.1448   -0.3656 H   0  0  0  0  0  0  0  0  0  0  0  0
    0.1498   -1.3592   -1.2749 H   0  0  0  0  0  0  0  0  0  0  0  0
  1  2  1  0
  2  3  1  0
  3  4  1  0
  4  5  1  0
  5  6  2  0
  6  7  1  0
  7  8  2  0
  8  9  1  0
  9 10  2  0
  3 11  1  0
 11 12  1  0
 12 13  2  0
 12 14  1  0
 14 15  2  0
 15 16  1  0
 16 17  2  0
 17 18  1  0
 18 19  2  0
 19 20  1  0
 20 21  1  0
 21 22  1  0
 22 23  1  0
 23 24  1  0
 24 25  1  0
 19 26  1  0
 26 27  1  0
 27 28  2  0
 10  5  1  0
 28 14  1  0
 27 17  1  0
 25 20  1  0
  1 29  1  0
  1 30  1  0
  1 31  1  0
  2 32  1  0
  2 33  1  0
  3 34  1  0
  4 35  1  0
  4 36  1  0
  6 37  1  0
  7 38  1  0
  8 39  1  0
  9 40  1  0
 10 41  1  0
 11 42  1  0
 15 43  1  0
 16 44  1  0
 21 45  1  0
 21 46  1  0
 22 47  1  0
 22 48  1  0
 24 49  1  0
 24 50  1  0
 25 51  1  0
 25 52  1  0
 28 53  1  0
M  END
$$$$
