
     RDKit          3D

 52 55  0  0  0  0  0  0  0  0999 V2000
   -4.9180   -1.8583    1.0730 C   0  0  0  0  0  0  0  0  0  0  0  0
   -4.1634   -1.3027   -0.1045 C   0  0  0  0  0  0  0  0  0  0  0  0
   -3.5868   -2.2108   -1.0112 C   0  0  0  0  0  0  0  0  0  0  0  0
   -2.8847   -1.7643   -2.1329 C   0  0  0  0  0  0  0  0  0  0  0  0
   -2.7639   -0.3917   -2.3689 C   0  0  0  0  0  0  0  0  0  0  0  0
   -2.0102    0.0758   -3.5365 N   0  0  0  0  0  4  0  0  0  0  0  0
   -2.1720    1.2497   -3.8937 O   0  0  0  0  0  0  0  0  0  0  0  0
   -1.2464   -0.7324   -4.0834 O   0  0  0  0  0  1  0  0  0  0  0  0
   -3.3377    0.5359   -1.4946 C   0  0  0  0  0  0  0  0  0  0  0  0
   -4.0309    0.0787   -0.3608 C   0  0  0  0  0  0  0  0  0  0  0  0
   -4.7227    1.3158    0.7308 S   0  0  0  0  0  6  0  0  0  0  0  0
   -6.0402    0.8697    1.1281 O   0  0  0  0  0  0  0  0  0  0  0  0
   -4.5375    2.6182    0.1288 O   0  0  0  0  0  0  0  0  0  0  0  0
   -3.7334    1.1979    2.1005 N   0  0  0  0  0  0  0  0  0  0  0  0
   -2.4433    1.7952    2.0360 C   0  0  0  0  0  0  0  0  0  0  0  0
   -2.2755    3.1288    2.3945 C   0  0  0  0  0  0  0  0  0  0  0  0
   -1.0176    3.7139    2.2850 C   0  0  0  0  0  0  0  0  0  0  0  0
    0.0616    2.9669    1.8027 C   0  0  0  0  0  0  0  0  0  0  0  0
   -0.0880    1.6220    1.4138 C   0  0  0  0  0  0  0  0  0  0  0  0
    1.0568    0.8595    0.8849 C   0  0  0  0  0  0  0  0  0  0  0  0
    0.9484   -0.1396   -0.0701 C   0  0  0  0  0  0  0  0  0  0  0  0
    2.1011   -0.7881   -0.5228 C   0  0  0  0  0  0  0  0  0  0  0  0
    3.3495   -0.4371   -0.0271 C   0  0  0  0  0  0  0  0  0  0  0  0
    4.5021   -1.0725   -0.4434 N   0  0  0  0  0  0  0  0  0  0  0  0
    4.6504   -1.6089   -1.7937 C   0  0  0  0  0  0  0  0  0  0  0  0
    6.1379   -1.4399   -2.1099 C   0  0  0  0  0  0  0  0  0  0  0  0
    6.7955   -1.3876   -0.7401 C   0  0  0  0  0  0  0  0  0  0  0  0
    5.7801   -0.6006    0.0814 C   0  0  0  0  0  0  0  0  0  0  0  0
    3.4096    0.5260    0.9160 N   0  0  0  0  0  0  0  0  0  0  0  0
    2.2726    1.1838    1.3651 N   0  0  0  0  0  0  0  0  0  0  0  0
   -1.3656    1.0496    1.5498 C   0  0  0  0  0  0  0  0  0  0  0  0
   -4.6101   -1.3783    2.0054 H   0  0  0  0  0  0  0  0  0  0  0  0
   -5.9951   -1.7364    0.9257 H   0  0  0  0  0  0  0  0  0  0  0  0
   -4.7227   -2.9292    1.1984 H   0  0  0  0  0  0  0  0  0  0  0  0
   -3.6830   -3.2844   -0.8481 H   0  0  0  0  0  0  0  0  0  0  0  0
   -2.4487   -2.4955   -2.8116 H   0  0  0  0  0  0  0  0  0  0  0  0
   -3.2390    1.6047   -1.6831 H   0  0  0  0  0  0  0  0  0  0  0  0
   -4.2791    1.3657    2.9462 H   0  0  0  0  0  0  0  0  0  0  0  0
   -3.1147    3.7234    2.7444 H   0  0  0  0  0  0  0  0  0  0  0  0
   -0.8736    4.7553    2.5626 H   0  0  0  0  0  0  0  0  0  0  0  0
    1.0351    3.4513    1.7197 H   0  0  0  0  0  0  0  0  0  0  0  0
   -0.0110   -0.4215   -0.4866 H   0  0  0  0  0  0  0  0  0  0  0  0
    2.0025   -1.5772   -1.2602 H   0  0  0  0  0  0  0  0  0  0  0  0
    4.3722   -2.6685   -1.7996 H   0  0  0  0  0  0  0  0  0  0  0  0
    4.0493   -1.0786   -2.5410 H   0  0  0  0  0  0  0  0  0  0  0  0
    6.5256   -2.2468   -2.7382 H   0  0  0  0  0  0  0  0  0  0  0  0
    6.3005   -0.4915   -2.6366 H   0  0  0  0  0  0  0  0  0  0  0  0
    7.7802   -0.9129   -0.7584 H   0  0  0  0  0  0  0  0  0  0  0  0
    6.9060   -2.4019   -0.3380 H   0  0  0  0  0  0  0  0  0  0  0  0
    5.8903   -0.8075    1.1511 H   0  0  0  0  0  0  0  0  0  0  0  0
    5.9090    0.4743   -0.0973 H   0  0  0  0  0  0  0  0  0  0  0  0
   -1.5217    0.0025    1.3043 H   0  0  0  0  0  0  0  0  0  0  0  0
  1  2  1  0
  2  3  2  0
  3  4  1  0
  4  5  2  0
  5  6  1  0
  6  7  2  0
  6  8  1  0
  5  9  1  0
  9 10  2  0
 10 11  1  0
 11 12  2  0
 11 13  2  0
 11 14  1  0
 14 15  1  0
 15 16  2  0
 16 17  1  0
 17 18  2  0
 18 19  1  0
 19 20  1  0
 20 21  2  0
 21 22  1  0
 22 23  2  0
 23 24  1  0
 24 25  1  0
 25 26  1  0
 26 27  1  0
 27 28  1  0
 23 29  1  0
 29 30  2  0
 19 31  2  0
 10  2  1  0
 31 15  1  0
 30 20  1  0
 28 24  1  0
  1 32  1  0
  1 33  1  0
  1 34  1  0
  3 35  1  0
  4 36  1  0
  9 37  1  0
 14 38  1  0
 16 39  1  0
 17 40  1  0
 18 41  1  0
 21 42  1  0
 22 43  1  0
 25 44  1  0
 25 45  1  0
 26 46  1  0
 26 47  1  0
 27 48  1  0
 27 49  1  0
 28 50  1  0
 28 51  1  0
 31 52  1  0
M  CHG  2   6   1   8  -1
M  END
$$$$
