
     RDKit          3D

 50 53  0  0  0  0  0  0  0  0999 V2000
   -6.2006   -3.4539    1.1839 C   0  0  0  0  0  0  0  0  0  0  0  0
   -6.3738   -2.0222    0.8857 C   0  0  0  0  0  0  0  0  0  0  0  0
   -6.1856   -1.2431   -0.2293 C   0  0  0  0  0  0  0  0  0  0  0  0
   -6.5505    0.0528    0.1846 C   0  0  0  0  0  0  0  0  0  0  0  0
   -6.5542    1.2349   -0.5305 N   0  0  0  0  0  0  0  0  0  0  0  0
   -5.8191    1.4898   -1.9979 S   0  0  0  0  0  6  0  0  0  0  0  0
   -6.0321    2.8814   -2.3359 O   0  0  0  0  0  0  0  0  0  0  0  0
   -6.1912    0.4273   -2.9073 O   0  0  0  0  0  0  0  0  0  0  0  0
   -4.0943    1.3133   -1.6044 C   0  0  0  0  0  0  0  0  0  0  0  0
   -3.4704    2.2855   -0.8200 C   0  0  0  0  0  0  0  0  0  0  0  0
   -2.1146    2.1511   -0.5079 C   0  0  0  0  0  0  0  0  0  0  0  0
   -1.3752    1.0541   -0.9756 C   0  0  0  0  0  0  0  0  0  0  0  0
   -0.0153    0.9931   -0.6072 N   0  0  0  0  0  0  0  0  0  0  0  0
    0.8928   -0.0135   -0.8961 C   0  0  0  0  0  0  0  0  0  0  0  0
    0.6639   -1.0454   -1.5160 O   0  0  0  0  0  0  0  0  0  0  0  0
    2.2674    0.3003   -0.3386 C   0  0  0  0  0  0  0  0  0  0  0  0
    3.2443   -0.8403   -0.6039 C   0  0  0  0  0  0  0  0  0  0  0  0
    4.5558   -0.5579   -0.0470 N   0  0  0  0  0  0  0  0  0  0  0  0
    5.5618    0.0677   -0.7321 C   0  0  0  0  0  0  0  0  0  0  0  0
    5.5689    0.4865   -1.8733 O   0  0  0  0  0  0  0  0  0  0  0  0
    6.6820    0.1930    0.1991 C   0  0  0  0  0  0  0  0  0  0  0  0
    7.9449    0.7205    0.0155 C   0  0  0  0  0  0  0  0  0  0  0  0
    8.8072    0.7099    1.1172 C   0  0  0  0  0  0  0  0  0  0  0  0
    8.3909    0.1823    2.3581 C   0  0  0  0  0  0  0  0  0  0  0  0
    7.1046   -0.3429    2.5197 C   0  0  0  0  0  0  0  0  0  0  0  0
    6.2734   -0.3229    1.4165 C   0  0  0  0  0  0  0  0  0  0  0  0
    4.8921   -0.7758    1.2618 C   0  0  0  0  0  0  0  0  0  0  0  0
    4.2087   -1.2171    2.1662 O   0  0  0  0  0  0  0  0  0  0  0  0
   -2.0118    0.1003   -1.7750 C   0  0  0  0  0  0  0  0  0  0  0  0
   -3.3675    0.2291   -2.0969 C   0  0  0  0  0  0  0  0  0  0  0  0
   -6.9459    0.0622    1.4601 N   0  0  0  0  0  0  0  0  0  0  0  0
   -6.8286   -1.2431    1.9021 O   0  0  0  0  0  0  0  0  0  0  0  0
   -7.1728   -3.9344    1.3277 H   0  0  0  0  0  0  0  0  0  0  0  0
   -5.6840   -3.9668    0.3664 H   0  0  0  0  0  0  0  0  0  0  0  0
   -5.6101   -3.5888    2.0957 H   0  0  0  0  0  0  0  0  0  0  0  0
   -5.8486   -1.5793   -1.1985 H   0  0  0  0  0  0  0  0  0  0  0  0
   -6.9052    2.0629   -0.0561 H   0  0  0  0  0  0  0  0  0  0  0  0
   -4.0267    3.1452   -0.4520 H   0  0  0  0  0  0  0  0  0  0  0  0
   -1.6468    2.9159    0.1082 H   0  0  0  0  0  0  0  0  0  0  0  0
    0.3266    1.7648   -0.0472 H   0  0  0  0  0  0  0  0  0  0  0  0
    2.1772    0.4788    0.7395 H   0  0  0  0  0  0  0  0  0  0  0  0
    2.6319    1.2236   -0.8052 H   0  0  0  0  0  0  0  0  0  0  0  0
    2.8738   -1.7700   -0.1555 H   0  0  0  0  0  0  0  0  0  0  0  0
    3.3528   -1.0021   -1.6830 H   0  0  0  0  0  0  0  0  0  0  0  0
    8.2517    1.1245   -0.9449 H   0  0  0  0  0  0  0  0  0  0  0  0
    9.8139    1.1139    1.0173 H   0  0  0  0  0  0  0  0  0  0  0  0
    9.0818    0.1844    3.2002 H   0  0  0  0  0  0  0  0  0  0  0  0
    6.7710   -0.7517    3.4682 H   0  0  0  0  0  0  0  0  0  0  0  0
   -1.4786   -0.7572   -2.1747 H   0  0  0  0  0  0  0  0  0  0  0  0
   -3.8361   -0.5202   -2.7314 H   0  0  0  0  0  0  0  0  0  0  0  0
  1  2  1  0
  2  3  2  0
  3  4  1  0
  4  5  1  0
  5  6  1  0
  6  7  2  0
  6  8  2  0
  6  9  1  0
  9 10  2  0
 10 11  1  0
 11 12  2  0
 12 13  1  0
 13 14  1  0
 14 15  2  0
 14 16  1  0
 16 17  1  0
 17 18  1  0
 18 19  1  0
 19 20  2  0
 19 21  1  0
 21 22  2  0
 22 23  1  0
 23 24  2  0
 24 25  1  0
 25 26  2  0
 26 27  1  0
 27 28  2  0
 12 29  1  0
 29 30  2  0
  4 31  2  0
 31 32  1  0
 32  2  1  0
 30  9  1  0
 27 18  1  0
 26 21  1  0
  1 33  1  0
  1 34  1  0
  1 35  1  0
  3 36  1  0
  5 37  1  0
 10 38  1  0
 11 39  1  0
 13 40  1  0
 16 41  1  0
 16 42  1  0
 17 43  1  0
 17 44  1  0
 22 45  1  0
 23 46  1  0
 24 47  1  0
 25 48  1  0
 29 49  1  0
 30 50  1  0
M  END
$$$$
