
     RDKit          3D

 50 53  0  0  0  0  0  0  0  0999 V2000
   -4.3748   -2.5382   -0.1826 C   0  0  0  0  0  0  0  0  0  0  0  0
   -4.0852   -1.0475   -0.0200 C   0  0  0  0  0  0  0  0  0  0  0  0
   -5.1936   -0.1996   -0.6653 C   0  0  0  0  0  0  0  0  0  0  0  0
   -4.7105    1.1923   -1.1049 C   0  0  0  0  0  0  0  0  0  0  0  0
   -5.8578    2.1999   -1.0867 C   0  0  0  0  0  0  0  0  0  0  0  0
   -3.5273    1.6782   -0.2564 C   0  0  0  0  0  0  0  0  0  0  0  0
   -2.4277    0.7289   -0.3537 N   0  0  0  0  0  0  0  0  0  0  0  0
   -1.1501    1.1463   -0.0627 C   0  0  0  0  0  0  0  0  0  0  0  0
   -0.9541    2.4153    0.3375 N   0  0  0  0  0  0  0  0  0  0  0  0
    0.3092    2.8086    0.6067 C   0  0  0  0  0  0  0  0  0  0  0  0
    1.3935    1.9765    0.4938 C   0  0  0  0  0  0  0  0  0  0  0  0
    1.1225    0.6901    0.0873 C   0  0  0  0  0  0  0  0  0  0  0  0
   -0.1323    0.2735   -0.1970 N   0  0  0  0  0  0  0  0  0  0  0  0
    2.2282   -0.3126   -0.1003 C   0  0  0  0  0  0  0  0  0  0  0  0
    3.4096   -0.0022    0.8310 C   0  0  0  0  0  0  0  0  0  0  0  0
    4.5385   -1.0051    0.6670 C   0  0  0  0  0  0  0  0  0  0  0  0
    4.9081   -1.8176    1.7510 C   0  0  0  0  0  0  0  0  0  0  0  0
    5.9423   -2.7488    1.6249 C   0  0  0  0  0  0  0  0  0  0  0  0
    6.6160   -2.8758    0.4137 C   0  0  0  0  0  0  0  0  0  0  0  0
    7.8889   -4.0223    0.2579 Cl  0  0  0  0  0  0  0  0  0  0  0  0
    6.2641   -2.0795   -0.6725 C   0  0  0  0  0  0  0  0  0  0  0  0
    5.2298   -1.1481   -0.5469 C   0  0  0  0  0  0  0  0  0  0  0  0
    3.8898    1.4387    0.6173 C   0  0  0  0  0  0  0  0  0  0  0  0
    2.7603    2.4302    0.7913 C   0  0  0  0  0  0  0  0  0  0  0  0
    2.9602    3.5951    1.1207 O   0  0  0  0  0  0  0  0  0  0  0  0
   -2.6973   -0.6860   -0.5679 C   0  0  0  0  0  0  0  0  0  0  0  0
   -5.3559   -2.7905    0.2334 H   0  0  0  0  0  0  0  0  0  0  0  0
   -3.6240   -3.1393    0.3410 H   0  0  0  0  0  0  0  0  0  0  0  0
   -4.3667   -2.8319   -1.2377 H   0  0  0  0  0  0  0  0  0  0  0  0
   -4.0863   -0.8285    1.0574 H   0  0  0  0  0  0  0  0  0  0  0  0
   -5.6100   -0.7107   -1.5432 H   0  0  0  0  0  0  0  0  0  0  0  0
   -6.0207   -0.1144    0.0514 H   0  0  0  0  0  0  0  0  0  0  0  0
   -4.3635    1.1082   -2.1448 H   0  0  0  0  0  0  0  0  0  0  0  0
   -6.6865    1.8556   -1.7144 H   0  0  0  0  0  0  0  0  0  0  0  0
   -5.5280    3.1712   -1.4699 H   0  0  0  0  0  0  0  0  0  0  0  0
   -6.2393    2.3495   -0.0710 H   0  0  0  0  0  0  0  0  0  0  0  0
   -3.8277    1.7942    0.7927 H   0  0  0  0  0  0  0  0  0  0  0  0
   -3.2287    2.6668   -0.6280 H   0  0  0  0  0  0  0  0  0  0  0  0
    0.4135    3.8433    0.9219 H   0  0  0  0  0  0  0  0  0  0  0  0
    2.5330   -0.2880   -1.1538 H   0  0  0  0  0  0  0  0  0  0  0  0
    1.8470   -1.3211    0.1040 H   0  0  0  0  0  0  0  0  0  0  0  0
    3.0383   -0.0706    1.8650 H   0  0  0  0  0  0  0  0  0  0  0  0
    4.3944   -1.7348    2.7071 H   0  0  0  0  0  0  0  0  0  0  0  0
    6.2155   -3.3695    2.4742 H   0  0  0  0  0  0  0  0  0  0  0  0
    6.7897   -2.1777   -1.6188 H   0  0  0  0  0  0  0  0  0  0  0  0
    4.9744   -0.5381   -1.4108 H   0  0  0  0  0  0  0  0  0  0  0  0
    4.6687    1.6779    1.3515 H   0  0  0  0  0  0  0  0  0  0  0  0
    4.3109    1.5885   -0.3836 H   0  0  0  0  0  0  0  0  0  0  0  0
   -1.9609   -1.3229   -0.0619 H   0  0  0  0  0  0  0  0  0  0  0  0
   -2.6377   -0.9077   -1.6406 H   0  0  0  0  0  0  0  0  0  0  0  0
  1  2  1  0
  2  3  1  0
  3  4  1  0
  4  5  1  0
  4  6  1  0
  6  7  1  0
  7  8  1  0
  8  9  2  0
  9 10  1  0
 10 11  2  0
 11 12  1  0
 12 13  2  0
 12 14  1  0
 14 15  1  0
 15 16  1  0
 16 17  2  0
 17 18  1  0
 18 19  2  0
 19 20  1  0
 19 21  1  0
 21 22  2  0
 15 23  1  0
 23 24  1  0
 24 25  2  0
  7 26  1  0
 26  2  1  0
 13  8  1  0
 22 16  1  0
 24 11  1  0
  1 27  1  0
  1 28  1  0
  1 29  1  0
  2 30  1  0
  3 31  1  0
  3 32  1  0
  4 33  1  0
  5 34  1  0
  5 35  1  0
  5 36  1  0
  6 37  1  0
  6 38  1  0
 10 39  1  0
 14 40  1  0
 14 41  1  0
 15 42  1  0
 17 43  1  0
 18 44  1  0
 21 45  1  0
 22 46  1  0
 23 47  1  0
 23 48  1  0
 26 49  1  0
 26 50  1  0
M  END
$$$$
