
     RDKit          3D

 44 46  0  0  0  0  0  0  0  0999 V2000
   -6.8469    1.2382    0.3680 C   0  0  0  0  0  0  0  0  0  0  0  0
   -5.9330    0.0739    0.1204 C   0  0  0  0  0  0  0  0  0  0  0  0
   -6.4590   -1.1902   -0.1568 C   0  0  0  0  0  0  0  0  0  0  0  0
   -5.6090   -2.2647   -0.4174 C   0  0  0  0  0  0  0  0  0  0  0  0
   -4.2181   -2.0907   -0.4154 C   0  0  0  0  0  0  0  0  0  0  0  0
   -3.3198   -3.2620   -0.7033 C   0  0  0  0  0  0  0  0  0  0  0  0
   -3.6811   -0.8176   -0.1540 C   0  0  0  0  0  0  0  0  0  0  0  0
   -2.3129   -0.7397   -0.1785 O   0  0  0  0  0  0  0  0  0  0  0  0
   -1.7213    0.5422    0.0179 C   0  0  0  0  0  0  0  0  0  0  0  0
   -0.2530    0.3687   -0.0805 C   0  0  0  0  0  0  0  0  0  0  0  0
    0.5912   -0.6857   -0.3259 C   0  0  0  0  0  0  0  0  0  0  0  0
    1.9006   -0.1340   -0.2694 C   0  0  0  0  0  0  0  0  0  0  0  0
    3.1524   -0.8702   -0.5103 C   0  0  0  0  0  0  0  0  0  0  0  0
    3.1016   -1.9534   -1.0983 O   0  0  0  0  0  0  0  0  0  0  0  0
    4.3834   -0.3448   -0.0867 N   0  0  0  0  0  0  0  0  0  0  0  0
    5.5815   -1.0764   -0.4772 C   0  0  0  0  0  0  0  0  0  0  0  0
    4.5301    0.5587    1.0630 C   0  0  0  0  0  0  0  0  0  0  0  0
    5.4001    1.7394    0.7313 C   0  0  0  0  0  0  0  0  0  0  0  0
    6.6776    1.8294    1.0533 N   0  0  0  0  0  0  0  0  0  0  0  0
    7.1896    3.0302    0.6034 C   0  0  0  0  0  0  0  0  0  0  0  0
    6.2981    3.8481   -0.0539 C   0  0  0  0  0  0  0  0  0  0  0  0
    4.7612    3.0960   -0.1146 S   0  0  0  0  0  0  0  0  0  0  0  0
    1.8305    1.1877   -0.0381 N   0  0  0  0  0  0  0  0  0  0  0  0
    0.4916    1.4916    0.0975 O   0  0  0  0  0  0  0  0  0  0  0  0
   -4.5416    0.2553    0.1081 C   0  0  0  0  0  0  0  0  0  0  0  0
   -7.8002    0.9060    0.7921 H   0  0  0  0  0  0  0  0  0  0  0  0
   -7.0432    1.7656   -0.5706 H   0  0  0  0  0  0  0  0  0  0  0  0
   -6.4010    1.9381    1.0823 H   0  0  0  0  0  0  0  0  0  0  0  0
   -7.5352   -1.3487   -0.1711 H   0  0  0  0  0  0  0  0  0  0  0  0
   -6.0405   -3.2412   -0.6256 H   0  0  0  0  0  0  0  0  0  0  0  0
   -2.7261   -3.0705   -1.6033 H   0  0  0  0  0  0  0  0  0  0  0  0
   -2.6494   -3.4443    0.1431 H   0  0  0  0  0  0  0  0  0  0  0  0
   -3.8952   -4.1783   -0.8734 H   0  0  0  0  0  0  0  0  0  0  0  0
   -1.9702    0.9287    1.0128 H   0  0  0  0  0  0  0  0  0  0  0  0
   -2.0536    1.2400   -0.7595 H   0  0  0  0  0  0  0  0  0  0  0  0
    0.3159   -1.7116   -0.5246 H   0  0  0  0  0  0  0  0  0  0  0  0
    5.4315   -1.6082   -1.4214 H   0  0  0  0  0  0  0  0  0  0  0  0
    6.4200   -0.3881   -0.6087 H   0  0  0  0  0  0  0  0  0  0  0  0
    5.8196   -1.8047    0.3043 H   0  0  0  0  0  0  0  0  0  0  0  0
    3.5782    0.8765    1.4888 H   0  0  0  0  0  0  0  0  0  0  0  0
    5.0114   -0.0237    1.8600 H   0  0  0  0  0  0  0  0  0  0  0  0
    8.2322    3.2620    0.7833 H   0  0  0  0  0  0  0  0  0  0  0  0
    6.4705    4.8216   -0.4886 H   0  0  0  0  0  0  0  0  0  0  0  0
   -4.1587    1.2508    0.3095 H   0  0  0  0  0  0  0  0  0  0  0  0
  1  2  1  0
  2  3  2  0
  3  4  1  0
  4  5  2  0
  5  6  1  0
  5  7  1  0
  7  8  1  0
  8  9  1  0
  9 10  1  0
 10 11  2  0
 11 12  1  0
 12 13  1  0
 13 14  2  0
 13 15  1  0
 15 16  1  0
 15 17  1  0
 17 18  1  0
 18 19  2  0
 19 20  1  0
 20 21  2  0
 21 22  1  0
 12 23  2  0
 23 24  1  0
  7 25  2  0
 25  2  1  0
 24 10  1  0
 22 18  1  0
  1 26  1  0
  1 27  1  0
  1 28  1  0
  3 29  1  0
  4 30  1  0
  6 31  1  0
  6 32  1  0
  6 33  1  0
  9 34  1  0
  9 35  1  0
 11 36  1  0
 16 37  1  0
 16 38  1  0
 16 39  1  0
 17 40  1  0
 17 41  1  0
 20 42  1  0
 21 43  1  0
 25 44  1  0
M  END
$$$$
