
     RDKit          3D

 53 56  0  0  0  0  0  0  0  0999 V2000
    5.8067   -2.6982   -2.2550 C   0  0  0  0  0  0  0  0  0  0  0  0
    5.1711   -1.8784   -1.1725 C   0  0  0  0  0  0  0  0  0  0  0  0
    3.8049   -1.6742   -1.1613 C   0  0  0  0  0  0  0  0  0  0  0  0
    3.2657   -0.9133   -0.1228 C   0  0  0  0  0  0  0  0  0  0  0  0
    1.8011   -0.6896   -0.1331 C   0  0  0  0  0  0  0  0  0  0  0  0
    1.1334   -1.0904    0.8093 O   0  0  0  0  0  0  0  0  0  0  0  0
    1.3579    0.0021   -1.2452 N   0  0  0  0  0  0  0  0  0  0  0  0
    0.0237    0.3198   -1.5700 C   0  0  0  0  0  0  0  0  0  0  0  0
   -0.1829    1.1993   -2.6358 C   0  0  0  0  0  0  0  0  0  0  0  0
   -1.4756    1.5772   -3.0104 C   0  0  0  0  0  0  0  0  0  0  0  0
   -2.5987    1.0843   -2.3301 C   0  0  0  0  0  0  0  0  0  0  0  0
   -3.9616    1.5226   -2.7888 C   0  0  0  0  0  0  0  0  0  0  0  0
   -2.3861    0.1749   -1.2768 C   0  0  0  0  0  0  0  0  0  0  0  0
   -3.7489   -0.5666   -0.3878 S   0  0  0  0  0  6  0  0  0  0  0  0
   -4.7775   -0.9010   -1.3496 O   0  0  0  0  0  0  0  0  0  0  0  0
   -3.2294   -1.5831    0.5009 O   0  0  0  0  0  0  0  0  0  0  0  0
   -4.3114    0.7223    0.5737 N   0  0  0  0  0  0  0  0  0  0  0  0
   -3.3839    1.2344    1.6335 C   0  0  0  0  0  0  0  0  0  0  0  0
   -3.4645    0.4077    2.9235 C   0  0  0  0  0  0  0  0  0  0  0  0
   -4.8138    0.3197    3.4046 O   0  0  0  0  0  0  0  0  0  0  0  0
   -5.6555   -0.2986    2.4201 C   0  0  0  0  0  0  0  0  0  0  0  0
   -5.6857    0.5348    1.1366 C   0  0  0  0  0  0  0  0  0  0  0  0
   -1.0833   -0.2041   -0.9042 C   0  0  0  0  0  0  0  0  0  0  0  0
    4.0834   -0.3798    0.8960 C   0  0  0  0  0  0  0  0  0  0  0  0
    3.6182    0.3949    1.9887 C   0  0  0  0  0  0  0  0  0  0  0  0
    4.5016    0.8931    2.9442 C   0  0  0  0  0  0  0  0  0  0  0  0
    5.8579    0.6288    2.8226 C   0  0  0  0  0  0  0  0  0  0  0  0
    6.3203   -0.1331    1.7470 C   0  0  0  0  0  0  0  0  0  0  0  0
    5.4613   -0.6426    0.7820 C   0  0  0  0  0  0  0  0  0  0  0  0
    5.9867   -1.3623   -0.2262 N   0  0  0  0  0  0  0  0  0  0  0  0
    6.8911   -2.7547   -2.1155 H   0  0  0  0  0  0  0  0  0  0  0  0
    5.6121   -2.2484   -3.2335 H   0  0  0  0  0  0  0  0  0  0  0  0
    5.4076   -3.7171   -2.2411 H   0  0  0  0  0  0  0  0  0  0  0  0
    3.1710   -2.1110   -1.9265 H   0  0  0  0  0  0  0  0  0  0  0  0
    2.0700    0.3908   -1.8523 H   0  0  0  0  0  0  0  0  0  0  0  0
    0.6570    1.6153   -3.1869 H   0  0  0  0  0  0  0  0  0  0  0  0
   -1.5984    2.2673   -3.8439 H   0  0  0  0  0  0  0  0  0  0  0  0
   -3.8951    2.4072   -3.4323 H   0  0  0  0  0  0  0  0  0  0  0  0
   -4.4416    0.7285   -3.3683 H   0  0  0  0  0  0  0  0  0  0  0  0
   -4.5953    1.8054   -1.9442 H   0  0  0  0  0  0  0  0  0  0  0  0
   -3.6893    2.2670    1.8458 H   0  0  0  0  0  0  0  0  0  0  0  0
   -2.3541    1.2840    1.2709 H   0  0  0  0  0  0  0  0  0  0  0  0
   -3.0630   -0.6022    2.7972 H   0  0  0  0  0  0  0  0  0  0  0  0
   -2.8711    0.8944    3.7044 H   0  0  0  0  0  0  0  0  0  0  0  0
   -5.3111   -1.3224    2.2385 H   0  0  0  0  0  0  0  0  0  0  0  0
   -6.6633   -0.3590    2.8430 H   0  0  0  0  0  0  0  0  0  0  0  0
   -6.0812    1.5346    1.3555 H   0  0  0  0  0  0  0  0  0  0  0  0
   -6.3557    0.0878    0.3962 H   0  0  0  0  0  0  0  0  0  0  0  0
   -0.9545   -0.9207   -0.0976 H   0  0  0  0  0  0  0  0  0  0  0  0
    2.5565    0.6048    2.1086 H   0  0  0  0  0  0  0  0  0  0  0  0
    4.1287    1.4786    3.7808 H   0  0  0  0  0  0  0  0  0  0  0  0
    6.5596    1.0073    3.5612 H   0  0  0  0  0  0  0  0  0  0  0  0
    7.3853   -0.3381    1.6598 H   0  0  0  0  0  0  0  0  0  0  0  0
  1  2  1  0
  2  3  2  0
  3  4  1  0
  4  5  1  0
  5  6  2  0
  5  7  1  0
  7  8  1  0
  8  9  2  0
  9 10  1  0
 10 11  2  0
 11 12  1  0
 11 13  1  0
 13 14  1  0
 14 15  2  0
 14 16  2  0
 14 17  1  0
 17 18  1  0
 18 19  1  0
 19 20  1  0
 20 21  1  0
 21 22  1  0
 13 23  2  0
  4 24  2  0
 24 25  1  0
 25 26  2  0
 26 27  1  0
 27 28  2  0
 28 29  1  0
 29 30  2  0
 30  2  1  0
 23  8  1  0
 29 24  1  0
 22 17  1  0
  1 31  1  0
  1 32  1  0
  1 33  1  0
  3 34  1  0
  7 35  1  0
  9 36  1  0
 10 37  1  0
 12 38  1  0
 12 39  1  0
 12 40  1  0
 18 41  1  0
 18 42  1  0
 19 43  1  0
 19 44  1  0
 21 45  1  0
 21 46  1  0
 22 47  1  0
 22 48  1  0
 23 49  1  0
 25 50  1  0
 26 51  1  0
 27 52  1  0
 28 53  1  0
M  END
$$$$
