
     RDKit          3D

 30 31  0  0  0  0  0  0  0  0999 V2000
    0.1860    1.1493   -2.7186 C   0  0  0  0  0  0  0  0  0  0  0  0
    0.4651    0.6490   -1.4140 O   0  0  0  0  0  0  0  0  0  0  0  0
   -0.5890    0.4362   -0.5604 C   0  0  0  0  0  0  0  0  0  0  0  0
   -1.9269    0.6716   -0.9212 C   0  0  0  0  0  0  0  0  0  0  0  0
   -2.9766    0.4333   -0.0244 C   0  0  0  0  0  0  0  0  0  0  0  0
   -4.6481    0.7719   -0.5510 S   0  0  0  0  0  0  0  0  0  0  0  0
   -5.4562   -0.7904   -0.1083 C   0  0  0  0  0  0  0  0  0  0  0  0
   -2.6859   -0.0218    1.2585 C   0  0  0  0  0  0  0  0  0  0  0  0
   -1.3619   -0.2619    1.6313 C   0  0  0  0  0  0  0  0  0  0  0  0
   -0.2980   -0.0427    0.7352 C   0  0  0  0  0  0  0  0  0  0  0  0
    1.0854   -0.3441    1.2601 C   0  0  0  0  0  0  0  0  0  0  0  0
    1.1820   -0.7972    2.3968 O   0  0  0  0  0  0  0  0  0  0  0  0
    2.1295   -0.0810    0.4090 N   0  0  0  0  0  0  0  0  0  0  0  0
    3.4687   -0.2589    0.6338 C   0  0  0  0  0  0  0  0  0  0  0  0
    4.3537    0.0380   -0.2917 N   0  0  0  0  0  0  0  0  0  0  0  0
    5.6238   -0.2296    0.1812 C   0  0  0  0  0  0  0  0  0  0  0  0
    5.6854   -0.7277    1.4638 C   0  0  0  0  0  0  0  0  0  0  0  0
    4.0997   -0.8645    2.0966 S   0  0  0  0  0  0  0  0  0  0  0  0
   -0.4252    0.4424   -3.2888 H   0  0  0  0  0  0  0  0  0  0  0  0
    1.1404    1.2609   -3.2420 H   0  0  0  0  0  0  0  0  0  0  0  0
   -0.2838    2.1370   -2.6698 H   0  0  0  0  0  0  0  0  0  0  0  0
   -2.1839    1.0427   -1.9091 H   0  0  0  0  0  0  0  0  0  0  0  0
   -6.4762   -0.7864   -0.5022 H   0  0  0  0  0  0  0  0  0  0  0  0
   -5.5095   -0.9093    0.9768 H   0  0  0  0  0  0  0  0  0  0  0  0
   -4.9200   -1.6379   -0.5441 H   0  0  0  0  0  0  0  0  0  0  0  0
   -3.4735   -0.1830    1.9899 H   0  0  0  0  0  0  0  0  0  0  0  0
   -1.1632   -0.6196    2.6414 H   0  0  0  0  0  0  0  0  0  0  0  0
    1.9256    0.2871   -0.5121 H   0  0  0  0  0  0  0  0  0  0  0  0
    6.4782   -0.0412   -0.4571 H   0  0  0  0  0  0  0  0  0  0  0  0
    6.5543   -1.0083    2.0407 H   0  0  0  0  0  0  0  0  0  0  0  0
  1  2  1  0
  2  3  1  0
  3  4  2  0
  4  5  1  0
  5  6  1  0
  6  7  1  0
  5  8  2  0
  8  9  1  0
  9 10  2  0
 10 11  1  0
 11 12  2  0
 11 13  1  0
 13 14  1  0
 14 15  2  0
 15 16  1  0
 16 17  2  0
 17 18  1  0
 10  3  1  0
 18 14  1  0
  1 19  1  0
  1 20  1  0
  1 21  1  0
  4 22  1  0
  7 23  1  0
  7 24  1  0
  7 25  1  0
  8 26  1  0
  9 27  1  0
 13 28  1  0
 16 29  1  0
 17 30  1  0
M  END
$$$$
