
     RDKit          3D

 48 52  0  0  0  0  0  0  0  0999 V2000
    5.2904   -0.8952   -2.0786 C   0  0  0  0  0  0  0  0  0  0  0  0
    4.0694   -0.5878   -1.2637 C   0  0  0  0  0  0  0  0  0  0  0  0
    2.8716   -0.2282   -1.8889 C   0  0  0  0  0  0  0  0  0  0  0  0
    1.7408    0.0851   -1.1296 C   0  0  0  0  0  0  0  0  0  0  0  0
    1.7859    0.0658    0.2750 C   0  0  0  0  0  0  0  0  0  0  0  0
    0.5883    0.4043    1.1370 C   0  0  0  0  0  0  0  0  0  0  0  0
    0.1736    1.7842    0.7982 C   0  0  0  0  0  0  0  0  0  0  0  0
   -1.1643    1.8146    0.3741 C   0  0  0  0  0  0  0  0  0  0  0  0
   -1.4670    3.0924   -0.0118 C   0  0  0  0  0  0  0  0  0  0  0  0
   -2.5368    3.5994   -0.6099 O   0  0  0  0  0  0  0  0  0  0  0  0
   -0.3629    3.8648    0.2948 N   0  0  0  0  0  0  0  0  0  0  0  0
   -0.2597    5.2912    0.0871 C   0  0  0  0  0  0  0  0  0  0  0  0
    0.6709    3.0611    0.7455 C   0  0  0  0  0  0  0  0  0  0  0  0
    1.8712    3.5629    1.0057 O   0  0  0  0  0  0  0  0  0  0  0  0
   -1.7899    0.4727    0.4198 C   0  0  0  0  0  0  0  0  0  0  0  0
   -2.4237    0.0671   -0.9015 C   0  0  0  0  0  0  0  0  0  0  0  0
   -2.8069    0.8888   -1.7434 O   0  0  0  0  0  0  0  0  0  0  0  0
   -2.7767   -1.2387   -1.0954 N   0  0  0  0  0  0  0  0  0  0  0  0
   -2.7789   -2.3052   -0.1777 C   0  0  0  0  0  0  0  0  0  0  0  0
   -3.7345   -3.3023   -0.4621 C   0  0  0  0  0  0  0  0  0  0  0  0
   -3.9230   -4.3984    0.3803 C   0  0  0  0  0  0  0  0  0  0  0  0
   -3.1462   -4.5285    1.5200 C   0  0  0  0  0  0  0  0  0  0  0  0
   -2.1674   -3.5746    1.7947 C   0  0  0  0  0  0  0  0  0  0  0  0
   -1.9598   -2.4595    0.9522 C   0  0  0  0  0  0  0  0  0  0  0  0
   -0.7604   -1.6397    1.2865 C   0  0  0  0  0  0  0  0  0  0  0  0
    0.1101   -2.1373    2.0012 O   0  0  0  0  0  0  0  0  0  0  0  0
   -0.6326   -0.3659    0.7902 N   0  0  0  0  0  0  0  0  0  0  0  0
    2.9950   -0.2924    0.8931 C   0  0  0  0  0  0  0  0  0  0  0  0
    4.1250   -0.6081    0.1333 C   0  0  0  0  0  0  0  0  0  0  0  0
    5.8617    0.0212   -2.2566 H   0  0  0  0  0  0  0  0  0  0  0  0
    5.0161   -1.3339   -3.0436 H   0  0  0  0  0  0  0  0  0  0  0  0
    5.9318   -1.6185   -1.5642 H   0  0  0  0  0  0  0  0  0  0  0  0
    2.8076   -0.1910   -2.9743 H   0  0  0  0  0  0  0  0  0  0  0  0
    0.8228    0.3570   -1.6469 H   0  0  0  0  0  0  0  0  0  0  0  0
    0.7935    0.3070    2.2095 H   0  0  0  0  0  0  0  0  0  0  0  0
   -2.9870    2.8510   -1.0562 H   0  0  0  0  0  0  0  0  0  0  0  0
   -1.2586    5.7325    0.0582 H   0  0  0  0  0  0  0  0  0  0  0  0
    0.2603    5.4618   -0.8587 H   0  0  0  0  0  0  0  0  0  0  0  0
    0.3004    5.7306    0.9168 H   0  0  0  0  0  0  0  0  0  0  0  0
    2.4762    2.8098    1.1351 H   0  0  0  0  0  0  0  0  0  0  0  0
   -2.5424    0.4197    1.2156 H   0  0  0  0  0  0  0  0  0  0  0  0
   -3.3252   -1.3465   -1.9415 H   0  0  0  0  0  0  0  0  0  0  0  0
   -4.3737   -3.2239   -1.3405 H   0  0  0  0  0  0  0  0  0  0  0  0
   -4.6780   -5.1449    0.1454 H   0  0  0  0  0  0  0  0  0  0  0  0
   -3.2798   -5.3787    2.1840 H   0  0  0  0  0  0  0  0  0  0  0  0
   -1.5364   -3.7218    2.6715 H   0  0  0  0  0  0  0  0  0  0  0  0
    3.0619   -0.3435    1.9784 H   0  0  0  0  0  0  0  0  0  0  0  0
    5.0473   -0.8805    0.6419 H   0  0  0  0  0  0  0  0  0  0  0  0
  1  2  1  0
  2  3  2  0
  3  4  1  0
  4  5  2  0
  5  6  1  0
  6  7  1  0
  7  8  1  0
  8  9  2  0
  9 10  1  0
  9 11  1  0
 11 12  1  0
 11 13  1  0
 13 14  1  0
  8 15  1  0
 15 16  1  0
 16 17  2  0
 16 18  1  0
 18 19  1  0
 19 20  2  0
 20 21  1  0
 21 22  2  0
 22 23  1  0
 23 24  2  0
 24 25  1  0
 25 26  2  0
 25 27  1  0
  5 28  1  0
 28 29  2  0
 29  2  1  0
 27  6  1  0
 13  7  2  0
 27 15  1  0
 24 19  1  0
  1 30  1  0
  1 31  1  0
  1 32  1  0
  3 33  1  0
  4 34  1  0
  6 35  1  0
 10 36  1  0
 12 37  1  0
 12 38  1  0
 12 39  1  0
 14 40  1  0
 15 41  1  0
 18 42  1  0
 20 43  1  0
 21 44  1  0
 22 45  1  0
 23 46  1  0
 28 47  1  0
 29 48  1  0
M  END
$$$$
