
     RDKit          3D

 43 45  0  0  0  0  0  0  0  0999 V2000
   -0.2173    1.7895   -3.1326 C   0  0  0  0  0  0  0  0  0  0  0  0
   -1.0309    1.7741   -1.8484 C   0  0  0  0  0  0  0  0  0  0  0  0
   -1.3779    0.3480   -1.4234 C   0  0  0  0  0  0  0  0  0  0  0  0
   -2.1885    0.3356   -0.1274 C   0  0  0  0  0  0  0  0  0  0  0  0
   -2.2322   -0.9812    0.5069 N   0  0  0  0  0  0  0  0  0  0  0  0
   -2.9887   -2.0823    0.1067 C   0  0  0  0  0  0  0  0  0  0  0  0
   -3.9722   -2.2712   -1.2094 S   0  0  0  0  0  0  0  0  0  0  0  0
   -2.8321   -3.0802    1.0571 N   0  0  0  0  0  0  0  0  0  0  0  0
   -2.2044   -2.5598    2.2404 C   0  0  0  0  0  0  0  0  0  0  0  0
   -1.5409   -1.2525    1.7736 C   0  0  0  0  0  0  0  0  0  0  0  0
   -0.0134   -1.4510    1.6307 C   0  0  0  0  0  0  0  0  0  0  0  0
    0.8198   -0.1841    1.4802 C   0  0  0  0  0  0  0  0  0  0  0  0
    0.6295    0.8450    2.4244 C   0  0  0  0  0  0  0  0  0  0  0  0
    1.3484    2.0326    2.3531 C   0  0  0  0  0  0  0  0  0  0  0  0
    2.2896    2.2100    1.3475 C   0  0  0  0  0  0  0  0  0  0  0  0
    2.5425    1.1975    0.4138 C   0  0  0  0  0  0  0  0  0  0  0  0
    3.5195    1.4038   -0.5746 C   0  0  0  0  0  0  0  0  0  0  0  0
    3.8143    0.4180   -1.5121 C   0  0  0  0  0  0  0  0  0  0  0  0
    3.1358   -0.7898   -1.4692 C   0  0  0  0  0  0  0  0  0  0  0  0
    2.1588   -1.0083   -0.4929 C   0  0  0  0  0  0  0  0  0  0  0  0
    1.8219   -0.0261    0.4717 C   0  0  0  0  0  0  0  0  0  0  0  0
    0.0308    2.8181   -3.4117 H   0  0  0  0  0  0  0  0  0  0  0  0
    0.7184    1.2354   -3.0110 H   0  0  0  0  0  0  0  0  0  0  0  0
   -0.7785    1.3396   -3.9575 H   0  0  0  0  0  0  0  0  0  0  0  0
   -1.9500    2.3531   -1.9951 H   0  0  0  0  0  0  0  0  0  0  0  0
   -0.4571    2.2697   -1.0569 H   0  0  0  0  0  0  0  0  0  0  0  0
   -1.9429   -0.1420   -2.2240 H   0  0  0  0  0  0  0  0  0  0  0  0
   -0.4607   -0.2336   -1.3027 H   0  0  0  0  0  0  0  0  0  0  0  0
   -1.7829    1.0494    0.5970 H   0  0  0  0  0  0  0  0  0  0  0  0
   -3.2183    0.6458   -0.3389 H   0  0  0  0  0  0  0  0  0  0  0  0
   -3.4499   -3.8830    1.0386 H   0  0  0  0  0  0  0  0  0  0  0  0
   -1.5201   -3.3021    2.6592 H   0  0  0  0  0  0  0  0  0  0  0  0
   -2.9986   -2.3552    2.9669 H   0  0  0  0  0  0  0  0  0  0  0  0
   -1.7885   -0.4598    2.4866 H   0  0  0  0  0  0  0  0  0  0  0  0
    0.3702   -1.9524    2.5298 H   0  0  0  0  0  0  0  0  0  0  0  0
    0.1540   -2.1460    0.8050 H   0  0  0  0  0  0  0  0  0  0  0  0
   -0.0833    0.7310    3.2373 H   0  0  0  0  0  0  0  0  0  0  0  0
    1.1786    2.8189    3.0838 H   0  0  0  0  0  0  0  0  0  0  0  0
    2.8403    3.1475    1.3074 H   0  0  0  0  0  0  0  0  0  0  0  0
    4.0662    2.3435   -0.6201 H   0  0  0  0  0  0  0  0  0  0  0  0
    4.5723    0.5940   -2.2702 H   0  0  0  0  0  0  0  0  0  0  0  0
    3.3587   -1.5671   -2.1955 H   0  0  0  0  0  0  0  0  0  0  0  0
    1.6597   -1.9722   -0.5135 H   0  0  0  0  0  0  0  0  0  0  0  0
  1  2  1  0
  2  3  1  0
  3  4  1  0
  4  5  1  0
  5  6  1  0
  6  7  2  0
  6  8  1  0
  8  9  1  0
  9 10  1  0
 10 11  1  0
 11 12  1  0
 12 13  2  0
 13 14  1  0
 14 15  2  0
 15 16  1  0
 16 17  2  0
 17 18  1  0
 18 19  2  0
 19 20  1  0
 20 21  2  0
 10  5  1  0
 21 12  1  0
 21 16  1  0
  1 22  1  0
  1 23  1  0
  1 24  1  0
  2 25  1  0
  2 26  1  0
  3 27  1  0
  3 28  1  0
  4 29  1  0
  4 30  1  0
  8 31  1  0
  9 32  1  0
  9 33  1  0
 10 34  1  0
 11 35  1  0
 11 36  1  0
 13 37  1  0
 14 38  1  0
 15 39  1  0
 17 40  1  0
 18 41  1  0
 19 42  1  0
 20 43  1  0
M  END
$$$$
