
     RDKit          3D

 48 50  0  0  0  0  0  0  0  0999 V2000
   -2.4958   -1.0004    0.1757 O   0  0  0  0  0  0  0  0  0  0  0  0
   -2.6723    0.0454    0.7947 C   0  0  0  0  0  0  0  0  0  0  0  0
   -1.6031    0.7460    1.6060 C   0  0  0  0  0  0  0  0  0  0  0  0
   -0.2594    0.0184    1.5989 C   0  0  0  0  0  0  0  0  0  0  0  0
    0.4476    0.0898    0.2394 C   0  0  0  0  0  0  0  0  0  0  0  0
    1.8263   -0.3965    0.3263 N   0  0  0  0  0  0  0  0  0  0  0  0
    2.8135    0.4908    0.7215 C   0  0  0  0  0  0  0  0  0  0  0  0
    2.6469    1.6657    1.0215 O   0  0  0  0  0  0  0  0  0  0  0  0
    4.1328   -0.1896    0.7614 C   0  0  0  0  0  0  0  0  0  0  0  0
    5.2573    0.4651    1.0784 C   0  0  0  0  0  0  0  0  0  0  0  0
    6.5957   -0.1385    1.1216 C   0  0  0  0  0  0  0  0  0  0  0  0
    7.0410   -0.6857    2.3338 C   0  0  0  0  0  0  0  0  0  0  0  0
    8.3022   -1.2793    2.4223 C   0  0  0  0  0  0  0  0  0  0  0  0
    9.1300   -1.3323    1.3025 C   0  0  0  0  0  0  0  0  0  0  0  0
    8.6987   -0.7911    0.0911 C   0  0  0  0  0  0  0  0  0  0  0  0
    7.4371   -0.1961   -0.0014 C   0  0  0  0  0  0  0  0  0  0  0  0
    6.9621    0.4621   -1.5289 Cl  0  0  0  0  0  0  0  0  0  0  0  0
    3.9582   -1.8472    0.3535 S   0  0  0  0  0  0  0  0  0  0  0  0
    2.2207   -1.7007    0.1068 C   0  0  0  0  0  0  0  0  0  0  0  0
    1.2804   -3.0092   -0.3224 S   0  0  0  0  0  0  0  0  0  0  0  0
   -3.8890    0.7004    0.8195 N   0  0  0  0  0  0  0  0  0  0  0  0
   -4.8586    0.2613   -0.1045 N   0  0  0  0  0  0  0  0  0  0  0  0
   -5.5061    1.2441   -0.8317 C   0  0  0  0  0  0  0  0  0  0  0  0
   -5.3874    2.4393   -0.5709 O   0  0  0  0  0  0  0  0  0  0  0  0
   -6.3346    0.7893   -1.9829 C   0  0  0  0  0  0  0  0  0  0  0  0
   -6.6266    1.7139   -2.9961 C   0  0  0  0  0  0  0  0  0  0  0  0
   -7.4022    1.3354   -4.0954 C   0  0  0  0  0  0  0  0  0  0  0  0
   -7.8938    0.0343   -4.1794 C   0  0  0  0  0  0  0  0  0  0  0  0
   -8.8500   -0.4331   -5.5304 Cl  0  0  0  0  0  0  0  0  0  0  0  0
   -7.6210   -0.8898   -3.1712 C   0  0  0  0  0  0  0  0  0  0  0  0
   -6.8445   -0.5140   -2.0697 C   0  0  0  0  0  0  0  0  0  0  0  0
   -1.4838    1.7677    1.2276 H   0  0  0  0  0  0  0  0  0  0  0  0
   -1.9636    0.8099    2.6398 H   0  0  0  0  0  0  0  0  0  0  0  0
    0.3792    0.4779    2.3637 H   0  0  0  0  0  0  0  0  0  0  0  0
   -0.3908   -1.0289    1.8962 H   0  0  0  0  0  0  0  0  0  0  0  0
   -0.0955   -0.4804   -0.5188 H   0  0  0  0  0  0  0  0  0  0  0  0
    0.4736    1.1309   -0.1050 H   0  0  0  0  0  0  0  0  0  0  0  0
    5.2270    1.5280    1.3111 H   0  0  0  0  0  0  0  0  0  0  0  0
    6.4074   -0.6572    3.2180 H   0  0  0  0  0  0  0  0  0  0  0  0
    8.6374   -1.7033    3.3662 H   0  0  0  0  0  0  0  0  0  0  0  0
   10.1110   -1.7962    1.3720 H   0  0  0  0  0  0  0  0  0  0  0  0
    9.3497   -0.8368   -0.7782 H   0  0  0  0  0  0  0  0  0  0  0  0
   -3.9340    1.6973    1.0371 H   0  0  0  0  0  0  0  0  0  0  0  0
   -4.6683   -0.6530   -0.5151 H   0  0  0  0  0  0  0  0  0  0  0  0
   -6.2486    2.7333   -2.9338 H   0  0  0  0  0  0  0  0  0  0  0  0
   -7.6193    2.0593   -4.8768 H   0  0  0  0  0  0  0  0  0  0  0  0
   -8.0159   -1.9012   -3.2332 H   0  0  0  0  0  0  0  0  0  0  0  0
   -6.6719   -1.2450   -1.2842 H   0  0  0  0  0  0  0  0  0  0  0  0
  1  2  2  0
  2  3  1  0
  3  4  1  0
  4  5  1  0
  5  6  1  0
  6  7  1  0
  7  8  2  0
  7  9  1  0
  9 10  2  3
 10 11  1  0
 11 12  2  0
 12 13  1  0
 13 14  2  0
 14 15  1  0
 15 16  2  0
 16 17  1  0
  9 18  1  0
 18 19  1  0
 19 20  2  0
  2 21  1  0
 21 22  1  0
 22 23  1  0
 23 24  2  0
 23 25  1  0
 25 26  2  0
 26 27  1  0
 27 28  2  0
 28 29  1  0
 28 30  1  0
 30 31  2  0
 19  6  1  0
 31 25  1  0
 16 11  1  0
  3 32  1  0
  3 33  1  0
  4 34  1  0
  4 35  1  0
  5 36  1  0
  5 37  1  0
 10 38  1  0
 12 39  1  0
 13 40  1  0
 14 41  1  0
 15 42  1  0
 21 43  1  0
 22 44  1  0
 26 45  1  0
 27 46  1  0
 30 47  1  0
 31 48  1  0
M  END
$$$$
