
     RDKit          3D

 66 70  0  0  0  0  0  0  0  0999 V2000
    0.2812   -2.8578   -5.3045 C   0  0  0  0  0  0  0  0  0  0  0  0
   -0.3269   -3.1386   -3.9418 C   0  0  0  0  0  0  0  0  0  0  0  0
   -0.7158   -1.9232   -3.3044 O   0  0  0  0  0  0  0  0  0  0  0  0
    0.1604   -1.2883   -2.4662 C   0  0  0  0  0  0  0  0  0  0  0  0
    1.5139   -1.6187   -2.3354 C   0  0  0  0  0  0  0  0  0  0  0  0
    2.3429   -0.9009   -1.4687 C   0  0  0  0  0  0  0  0  0  0  0  0
    1.8254    0.1631   -0.7330 C   0  0  0  0  0  0  0  0  0  0  0  0
    2.6846    0.9402    0.1818 C   0  0  0  0  0  0  0  0  0  0  0  0
    3.9327    0.6442    0.3539 N   0  0  0  0  0  0  0  0  0  0  0  0
    4.6189    1.4386    1.2236 N   0  0  0  0  0  0  0  0  0  0  0  0
    5.9802    1.2368    1.3963 C   0  0  0  0  0  0  0  0  0  0  0  0
    6.6557    0.3966    0.8026 O   0  0  0  0  0  0  0  0  0  0  0  0
    6.6738    2.1575    2.3398 C   0  0  0  0  0  0  0  0  0  0  0  0
    5.9940    2.7801    3.3986 C   0  0  0  0  0  0  0  0  0  0  0  0
    6.6736    3.6513    4.2557 C   0  0  0  0  0  0  0  0  0  0  0  0
    8.0322    3.9012    4.0677 C   0  0  0  0  0  0  0  0  0  0  0  0
    8.7210    3.2688    3.0339 C   0  0  0  0  0  0  0  0  0  0  0  0
    8.0487    2.3935    2.1836 C   0  0  0  0  0  0  0  0  0  0  0  0
    8.8065    1.7935    1.2114 O   0  0  0  0  0  0  0  0  0  0  0  0
    0.4800    0.5107   -0.8597 C   0  0  0  0  0  0  0  0  0  0  0  0
   -0.3694   -0.2139   -1.7200 C   0  0  0  0  0  0  0  0  0  0  0  0
   -1.8287    0.1955   -1.8275 C   0  0  0  0  0  0  0  0  0  0  0  0
   -2.7617   -0.3987   -0.8611 N   0  0  0  0  0  0  0  0  0  0  0  0
   -2.9882   -1.8297   -1.0593 C   0  0  0  0  0  0  0  0  0  0  0  0
   -4.0723   -2.3947   -0.1175 C   0  0  0  0  0  0  0  0  0  0  0  0
   -3.6972   -2.1197    1.3340 C   0  0  0  0  0  0  0  0  0  0  0  0
   -3.6066   -0.6031    1.4905 C   0  0  0  0  0  0  0  0  0  0  0  0
   -2.5143   -0.0504    0.5398 C   0  0  0  0  0  0  0  0  0  0  0  0
   -4.9565    0.0352    1.2117 C   0  0  0  0  0  0  0  0  0  0  0  0
   -5.3455    1.1452    1.8642 C   0  0  0  0  0  0  0  0  0  0  0  0
   -6.6154    1.7602    1.5850 C   0  0  0  0  0  0  0  0  0  0  0  0
   -7.4400    1.2296    0.6765 C   0  0  0  0  0  0  0  0  0  0  0  0
   -7.0574   -0.0120   -0.0440 C   0  0  0  0  0  0  0  0  0  0  0  0
   -7.8510   -0.5012   -0.8454 O   0  0  0  0  0  0  0  0  0  0  0  0
   -5.8033   -0.5484    0.2647 N   0  0  0  0  0  0  0  0  0  0  0  0
   -5.4619   -1.8060   -0.4035 C   0  0  0  0  0  0  0  0  0  0  0  0
    0.5147   -3.7919   -5.8232 H   0  0  0  0  0  0  0  0  0  0  0  0
    1.1980   -2.2670   -5.2204 H   0  0  0  0  0  0  0  0  0  0  0  0
   -0.4134   -2.2773   -5.9208 H   0  0  0  0  0  0  0  0  0  0  0  0
    0.3198   -3.7594   -3.3125 H   0  0  0  0  0  0  0  0  0  0  0  0
   -1.2460   -3.7177   -4.0873 H   0  0  0  0  0  0  0  0  0  0  0  0
    1.9679   -2.4233   -2.9042 H   0  0  0  0  0  0  0  0  0  0  0  0
    3.3933   -1.1733   -1.3816 H   0  0  0  0  0  0  0  0  0  0  0  0
    2.2084    1.7839    0.7131 H   0  0  0  0  0  0  0  0  0  0  0  0
    4.1561    2.2490    1.6160 H   0  0  0  0  0  0  0  0  0  0  0  0
    4.9459    2.5787    3.5966 H   0  0  0  0  0  0  0  0  0  0  0  0
    6.1470    4.1293    5.0783 H   0  0  0  0  0  0  0  0  0  0  0  0
    8.5612    4.5778    4.7343 H   0  0  0  0  0  0  0  0  0  0  0  0
    9.7840    3.4482    2.8946 H   0  0  0  0  0  0  0  0  0  0  0  0
    8.2575    1.0908    0.7933 H   0  0  0  0  0  0  0  0  0  0  0  0
    0.0767    1.3466   -0.2934 H   0  0  0  0  0  0  0  0  0  0  0  0
   -2.1925    0.0095   -2.8466 H   0  0  0  0  0  0  0  0  0  0  0  0
   -1.8862    1.2892   -1.7364 H   0  0  0  0  0  0  0  0  0  0  0  0
   -2.0625   -2.3927   -0.8861 H   0  0  0  0  0  0  0  0  0  0  0  0
   -3.2949   -2.0191   -2.0953 H   0  0  0  0  0  0  0  0  0  0  0  0
   -4.1165   -3.4782   -0.2850 H   0  0  0  0  0  0  0  0  0  0  0  0
   -4.4448   -2.5428    2.0165 H   0  0  0  0  0  0  0  0  0  0  0  0
   -2.7364   -2.5893    1.5780 H   0  0  0  0  0  0  0  0  0  0  0  0
   -3.3049   -0.3839    2.5233 H   0  0  0  0  0  0  0  0  0  0  0  0
   -2.4681    1.0407    0.6467 H   0  0  0  0  0  0  0  0  0  0  0  0
   -1.5475   -0.4497    0.8707 H   0  0  0  0  0  0  0  0  0  0  0  0
   -4.7102    1.6192    2.6061 H   0  0  0  0  0  0  0  0  0  0  0  0
   -6.8846    2.6634    2.1218 H   0  0  0  0  0  0  0  0  0  0  0  0
   -8.4029    1.6568    0.4328 H   0  0  0  0  0  0  0  0  0  0  0  0
   -6.2150   -2.5331   -0.0697 H   0  0  0  0  0  0  0  0  0  0  0  0
   -5.6178   -1.6840   -1.4827 H   0  0  0  0  0  0  0  0  0  0  0  0
  1  2  1  0
  2  3  1  0
  3  4  1  0
  4  5  2  0
  5  6  1  0
  6  7  2  0
  7  8  1  0
  8  9  2  3
  9 10  1  0
 10 11  1  0
 11 12  2  0
 11 13  1  0
 13 14  2  0
 14 15  1  0
 15 16  2  0
 16 17  1  0
 17 18  2  0
 18 19  1  0
  7 20  1  0
 20 21  2  0
 21 22  1  0
 22 23  1  0
 23 24  1  0
 24 25  1  0
 25 26  1  0
 26 27  1  0
 27 28  1  0
 27 29  1  0
 29 30  2  0
 30 31  1  0
 31 32  2  0
 32 33  1  0
 33 34  2  0
 33 35  1  0
 35 36  1  0
 21  4  1  0
 28 23  1  0
 35 29  1  0
 18 13  1  0
 36 25  1  0
  1 37  1  0
  1 38  1  0
  1 39  1  0
  2 40  1  0
  2 41  1  0
  5 42  1  0
  6 43  1  0
  8 44  1  0
 10 45  1  0
 14 46  1  0
 15 47  1  0
 16 48  1  0
 17 49  1  0
 19 50  1  0
 20 51  1  0
 22 52  1  0
 22 53  1  0
 24 54  1  0
 24 55  1  0
 25 56  1  0
 26 57  1  0
 26 58  1  0
 27 59  1  0
 28 60  1  0
 28 61  1  0
 30 62  1  0
 31 63  1  0
 32 64  1  0
 36 65  1  0
 36 66  1  0
M  END
$$$$
