
     RDKit          3D

 63 66  0  0  0  0  0  0  0  0999 V2000
    5.9833    1.2528   -1.7888 C   0  0  0  0  0  0  0  0  0  0  0  0
    6.2844    0.1533   -0.8070 C   0  0  0  0  0  0  0  0  0  0  0  0
    6.8468   -1.0350   -1.3114 C   0  0  0  0  0  0  0  0  0  0  0  0
    7.1624   -2.0997   -0.4695 C   0  0  0  0  0  0  0  0  0  0  0  0
    6.9199   -1.9957    0.8928 C   0  0  0  0  0  0  0  0  0  0  0  0
    6.3501   -0.8317    1.4077 C   0  0  0  0  0  0  0  0  0  0  0  0
    6.0033    0.2519    0.5746 C   0  0  0  0  0  0  0  0  0  0  0  0
    5.3735    1.4777    1.2188 C   0  0  0  0  0  0  0  0  0  0  0  0
    3.9190    1.4617    1.4662 N   0  0  0  0  0  0  0  0  0  0  0  0
    3.1253    1.3700    0.2421 C   0  0  0  0  0  0  0  0  0  0  0  0
    1.6576    1.6637    0.5499 C   0  0  0  0  0  0  0  0  0  0  0  0
    1.0913    0.7418    1.6354 C   0  0  0  0  0  0  0  0  0  0  0  0
    0.6795   -0.5488    1.0815 N   0  0  0  0  0  0  0  0  0  0  0  0
    1.4878   -1.6219    1.1988 N   0  0  0  0  0  0  0  0  0  0  0  0
    0.8147   -2.6038    0.6022 C   0  0  0  0  0  0  0  0  0  0  0  0
   -0.4245   -2.1748    0.1045 C   0  0  0  0  0  0  0  0  0  0  0  0
   -0.5029   -0.8344    0.4179 C   0  0  0  0  0  0  0  0  0  0  0  0
   -1.4898    0.1073    0.1679 N   0  0  0  0  0  0  0  0  0  0  0  0
   -2.6730   -0.1926   -0.4951 C   0  0  0  0  0  0  0  0  0  0  0  0
   -2.9974   -1.2848   -0.9464 O   0  0  0  0  0  0  0  0  0  0  0  0
   -3.5588    1.0393   -0.6233 C   0  0  0  0  0  0  0  0  0  0  0  0
   -4.9374    0.7429   -1.2118 C   0  0  0  0  0  0  0  0  0  0  0  0
   -5.8455    0.0057   -0.2218 C   0  0  0  0  0  0  0  0  0  0  0  0
   -7.2084   -0.2584   -0.8118 C   0  0  0  0  0  0  0  0  0  0  0  0
   -8.2706    0.6264   -0.5847 C   0  0  0  0  0  0  0  0  0  0  0  0
   -9.5255    0.3818   -1.1455 C   0  0  0  0  0  0  0  0  0  0  0  0
   -9.7279   -0.7449   -1.9408 C   0  0  0  0  0  0  0  0  0  0  0  0
   -8.6756   -1.6273   -2.1780 C   0  0  0  0  0  0  0  0  0  0  0  0
   -7.4206   -1.3848   -1.6180 C   0  0  0  0  0  0  0  0  0  0  0  0
    2.0411    0.6546    2.8411 C   0  0  0  0  0  0  0  0  0  0  0  0
    3.5040    0.4495    2.4415 C   0  0  0  0  0  0  0  0  0  0  0  0
    6.2668    2.2325   -1.3955 H   0  0  0  0  0  0  0  0  0  0  0  0
    6.5544    1.1205   -2.7148 H   0  0  0  0  0  0  0  0  0  0  0  0
    4.9224    1.2491   -2.0505 H   0  0  0  0  0  0  0  0  0  0  0  0
    7.0477   -1.1365   -2.3762 H   0  0  0  0  0  0  0  0  0  0  0  0
    7.5979   -3.0070   -0.8787 H   0  0  0  0  0  0  0  0  0  0  0  0
    7.1661   -2.8200    1.5562 H   0  0  0  0  0  0  0  0  0  0  0  0
    6.1677   -0.7746    2.4790 H   0  0  0  0  0  0  0  0  0  0  0  0
    5.6157    2.3742    0.6378 H   0  0  0  0  0  0  0  0  0  0  0  0
    5.8854    1.6594    2.1747 H   0  0  0  0  0  0  0  0  0  0  0  0
    3.2247    0.3892   -0.2380 H   0  0  0  0  0  0  0  0  0  0  0  0
    3.4603    2.1277   -0.4754 H   0  0  0  0  0  0  0  0  0  0  0  0
    1.0721    1.5978   -0.3749 H   0  0  0  0  0  0  0  0  0  0  0  0
    1.5732    2.7030    0.8956 H   0  0  0  0  0  0  0  0  0  0  0  0
    0.1602    1.1851    2.0122 H   0  0  0  0  0  0  0  0  0  0  0  0
    1.2544   -3.5916    0.5547 H   0  0  0  0  0  0  0  0  0  0  0  0
   -1.1575   -2.7717   -0.4192 H   0  0  0  0  0  0  0  0  0  0  0  0
   -1.3460    1.0603    0.4733 H   0  0  0  0  0  0  0  0  0  0  0  0
   -3.0384    1.7438   -1.2836 H   0  0  0  0  0  0  0  0  0  0  0  0
   -3.6625    1.5129    0.3600 H   0  0  0  0  0  0  0  0  0  0  0  0
   -5.4078    1.6950   -1.4896 H   0  0  0  0  0  0  0  0  0  0  0  0
   -4.8357    0.1643   -2.1388 H   0  0  0  0  0  0  0  0  0  0  0  0
   -5.9543    0.5957    0.6972 H   0  0  0  0  0  0  0  0  0  0  0  0
   -5.4006   -0.9478    0.0866 H   0  0  0  0  0  0  0  0  0  0  0  0
   -8.1278    1.5109    0.0311 H   0  0  0  0  0  0  0  0  0  0  0  0
  -10.3456    1.0709   -0.9621 H   0  0  0  0  0  0  0  0  0  0  0  0
  -10.7049   -0.9349   -2.3766 H   0  0  0  0  0  0  0  0  0  0  0  0
   -8.8305   -2.5050   -2.7998 H   0  0  0  0  0  0  0  0  0  0  0  0
   -6.6049   -2.0789   -1.8131 H   0  0  0  0  0  0  0  0  0  0  0  0
    1.9693    1.5965    3.4025 H   0  0  0  0  0  0  0  0  0  0  0  0
    1.7286   -0.1391    3.5305 H   0  0  0  0  0  0  0  0  0  0  0  0
    4.1098    0.5403    3.3516 H   0  0  0  0  0  0  0  0  0  0  0  0
    3.6534   -0.5643    2.0581 H   0  0  0  0  0  0  0  0  0  0  0  0
  1  2  1  0
  2  3  2  0
  3  4  1  0
  4  5  2  0
  5  6  1  0
  6  7  2  0
  7  8  1  0
  8  9  1  0
  9 10  1  0
 10 11  1  0
 11 12  1  0
 12 13  1  0
 13 14  1  0
 14 15  2  0
 15 16  1  0
 16 17  2  0
 17 18  1  0
 18 19  1  0
 19 20  2  0
 19 21  1  0
 21 22  1  0
 22 23  1  0
 23 24  1  0
 24 25  2  0
 25 26  1  0
 26 27  2  0
 27 28  1  0
 28 29  2  0
 12 30  1  0
 30 31  1  0
  7  2  1  0
 31  9  1  0
 17 13  1  0
 29 24  1  0
  1 32  1  0
  1 33  1  0
  1 34  1  0
  3 35  1  0
  4 36  1  0
  5 37  1  0
  6 38  1  0
  8 39  1  0
  8 40  1  0
 10 41  1  0
 10 42  1  0
 11 43  1  0
 11 44  1  0
 12 45  1  0
 15 46  1  0
 16 47  1  0
 18 48  1  0
 21 49  1  0
 21 50  1  0
 22 51  1  0
 22 52  1  0
 23 53  1  0
 23 54  1  0
 25 55  1  0
 26 56  1  0
 27 57  1  0
 28 58  1  0
 29 59  1  0
 30 60  1  0
 30 61  1  0
 31 62  1  0
 31 63  1  0
M  END
$$$$
