
     RDKit          3D

 36 37  0  0  0  0  0  0  0  0999 V2000
    1.4505    1.1435   -2.4360 C   0  0  0  0  0  0  0  0  0  0  0  0
    1.4454   -0.2032   -1.9783 O   0  0  0  0  0  0  0  0  0  0  0  0
    1.9749   -0.4541   -0.7426 C   0  0  0  0  0  0  0  0  0  0  0  0
    2.7373    0.4561   -0.0052 C   0  0  0  0  0  0  0  0  0  0  0  0
    3.2420    0.1014    1.2476 C   0  0  0  0  0  0  0  0  0  0  0  0
    2.9855   -1.1615    1.7741 C   0  0  0  0  0  0  0  0  0  0  0  0
    2.2317   -2.0785    1.0435 C   0  0  0  0  0  0  0  0  0  0  0  0
    1.7148   -1.7348   -0.2174 C   0  0  0  0  0  0  0  0  0  0  0  0
    0.9062   -2.7597   -0.9916 C   0  0  0  0  0  0  0  0  0  0  0  0
   -0.4841   -2.3255   -1.4443 C   0  0  0  0  0  0  0  0  0  0  0  0
   -0.9648   -2.7901   -2.4770 O   0  0  0  0  0  0  0  0  0  0  0  0
   -1.1740   -1.5492   -0.5309 N   0  0  0  0  0  0  0  0  0  0  0  0
   -2.1628   -0.6573   -0.8973 C   0  0  0  0  0  0  0  0  0  0  0  0
   -2.9085   -0.7926   -1.8624 O   0  0  0  0  0  0  0  0  0  0  0  0
   -2.3700    0.5224    0.0132 C   0  0  0  0  0  0  0  0  0  0  0  0
   -3.3875    1.4301   -0.3283 C   0  0  0  0  0  0  0  0  0  0  0  0
   -3.6365    2.5590    0.4552 C   0  0  0  0  0  0  0  0  0  0  0  0
   -2.8747    2.7964    1.5966 C   0  0  0  0  0  0  0  0  0  0  0  0
   -1.8581    1.9104    1.9520 C   0  0  0  0  0  0  0  0  0  0  0  0
   -1.6067    0.7829    1.1623 C   0  0  0  0  0  0  0  0  0  0  0  0
   -0.6013   -0.0698    1.5377 O   0  0  0  0  0  0  0  0  0  0  0  0
    0.9658    1.8123   -1.7151 H   0  0  0  0  0  0  0  0  0  0  0  0
    0.8727    1.1811   -3.3663 H   0  0  0  0  0  0  0  0  0  0  0  0
    2.4693    1.4776   -2.6605 H   0  0  0  0  0  0  0  0  0  0  0  0
    2.9741    1.4438   -0.3892 H   0  0  0  0  0  0  0  0  0  0  0  0
    3.8541    0.8090    1.8031 H   0  0  0  0  0  0  0  0  0  0  0  0
    3.3922   -1.4411    2.7426 H   0  0  0  0  0  0  0  0  0  0  0  0
    2.0591   -3.0699    1.4593 H   0  0  0  0  0  0  0  0  0  0  0  0
    0.7698   -3.6700   -0.3924 H   0  0  0  0  0  0  0  0  0  0  0  0
    1.4846   -3.0436   -1.8801 H   0  0  0  0  0  0  0  0  0  0  0  0
   -0.6468   -1.2639    0.2876 H   0  0  0  0  0  0  0  0  0  0  0  0
   -3.9955    1.2603   -1.2166 H   0  0  0  0  0  0  0  0  0  0  0  0
   -4.4315    3.2462    0.1751 H   0  0  0  0  0  0  0  0  0  0  0  0
   -3.0807    3.6680    2.2146 H   0  0  0  0  0  0  0  0  0  0  0  0
   -1.2821    2.1090    2.8520 H   0  0  0  0  0  0  0  0  0  0  0  0
   -0.0647    0.3553    2.2315 H   0  0  0  0  0  0  0  0  0  0  0  0
  1  2  1  0
  2  3  1  0
  3  4  2  0
  4  5  1  0
  5  6  2  0
  6  7  1  0
  7  8  2  0
  8  9  1  0
  9 10  1  0
 10 11  2  0
 10 12  1  0
 12 13  1  0
 13 14  2  0
 13 15  1  0
 15 16  2  0
 16 17  1  0
 17 18  2  0
 18 19  1  0
 19 20  2  0
 20 21  1  0
  8  3  1  0
 20 15  1  0
  1 22  1  0
  1 23  1  0
  1 24  1  0
  4 25  1  0
  5 26  1  0
  6 27  1  0
  7 28  1  0
  9 29  1  0
  9 30  1  0
 12 31  1  0
 16 32  1  0
 17 33  1  0
 18 34  1  0
 19 35  1  0
 21 36  1  0
M  END
$$$$
