
     RDKit          3D

 63 67  0  0  0  0  0  0  0  0999 V2000
   -5.6451   -5.3899   -0.9617 C   0  0  0  0  0  0  0  0  0  0  0  0
   -5.5607   -3.9719   -0.8996 O   0  0  0  0  0  0  0  0  0  0  0  0
   -4.6307   -3.4441   -0.0460 C   0  0  0  0  0  0  0  0  0  0  0  0
   -3.7561   -4.1692    0.7635 C   0  0  0  0  0  0  0  0  0  0  0  0
   -2.8483   -3.5013    1.5892 C   0  0  0  0  0  0  0  0  0  0  0  0
   -2.8115   -2.1068    1.6095 C   0  0  0  0  0  0  0  0  0  0  0  0
   -3.6836   -1.3650    0.8047 C   0  0  0  0  0  0  0  0  0  0  0  0
   -3.6315    0.1022    0.8120 C   0  0  0  0  0  0  0  0  0  0  0  0
   -4.9940    0.9596    1.3923 S   0  0  0  0  0  0  0  0  0  0  0  0
   -4.2517    2.4877    1.1489 C   0  0  0  0  0  0  0  0  0  0  0  0
   -4.8117    3.7512    1.4190 C   0  0  0  0  0  0  0  0  0  0  0  0
   -4.0631    4.9035    1.1538 C   0  0  0  0  0  0  0  0  0  0  0  0
   -2.7826    4.8087    0.6269 C   0  0  0  0  0  0  0  0  0  0  0  0
   -1.9567    5.8567    0.3241 O   0  0  0  0  0  0  0  0  0  0  0  0
   -2.4687    7.1652    0.5433 C   0  0  0  0  0  0  0  0  0  0  0  0
   -2.2379    3.5461    0.3637 C   0  0  0  0  0  0  0  0  0  0  0  0
   -2.9652    2.3549    0.6265 C   0  0  0  0  0  0  0  0  0  0  0  0
   -2.6103    0.9637    0.4386 C   0  0  0  0  0  0  0  0  0  0  0  0
   -1.3375    0.4721   -0.0822 C   0  0  0  0  0  0  0  0  0  0  0  0
   -1.2784   -0.1932   -1.3098 C   0  0  0  0  0  0  0  0  0  0  0  0
   -0.0530   -0.6561   -1.7953 C   0  0  0  0  0  0  0  0  0  0  0  0
    1.1240   -0.4567   -1.0693 C   0  0  0  0  0  0  0  0  0  0  0  0
    2.2501   -0.9590   -1.6606 O   0  0  0  0  0  0  0  0  0  0  0  0
    3.4923   -0.7473   -0.9831 C   0  0  0  0  0  0  0  0  0  0  0  0
    4.6118   -1.3687   -1.8382 C   0  0  0  0  0  0  0  0  0  0  0  0
    5.9916   -1.2305   -1.3583 N   0  0  0  0  0  0  0  0  0  0  0  0
    6.2775   -2.0129   -0.1448 C   0  0  0  0  0  0  0  0  0  0  0  0
    7.5936   -1.5597    0.5051 C   0  0  0  0  0  0  0  0  0  0  0  0
    7.5440   -0.2024    0.9679 O   0  0  0  0  0  0  0  0  0  0  0  0
    6.6511    0.6244    0.2095 C   0  0  0  0  0  0  0  0  0  0  0  0
    6.4670    0.1588   -1.2444 C   0  0  0  0  0  0  0  0  0  0  0  0
    1.0666    0.2108    0.1546 C   0  0  0  0  0  0  0  0  0  0  0  0
   -0.1595    0.6742    0.6457 C   0  0  0  0  0  0  0  0  0  0  0  0
   -4.5895   -2.0464   -0.0206 C   0  0  0  0  0  0  0  0  0  0  0  0
   -6.4291   -5.6468   -1.6806 H   0  0  0  0  0  0  0  0  0  0  0  0
   -4.7074   -5.8258   -1.3221 H   0  0  0  0  0  0  0  0  0  0  0  0
   -5.9312   -5.8114    0.0076 H   0  0  0  0  0  0  0  0  0  0  0  0
   -3.7525   -5.2539    0.7751 H   0  0  0  0  0  0  0  0  0  0  0  0
   -2.1662   -4.0690    2.2169 H   0  0  0  0  0  0  0  0  0  0  0  0
   -2.0979   -1.6022    2.2568 H   0  0  0  0  0  0  0  0  0  0  0  0
   -5.8154    3.8328    1.8277 H   0  0  0  0  0  0  0  0  0  0  0  0
   -4.5216    5.8624    1.3730 H   0  0  0  0  0  0  0  0  0  0  0  0
   -3.3551    7.3510   -0.0722 H   0  0  0  0  0  0  0  0  0  0  0  0
   -2.6810    7.3328    1.6043 H   0  0  0  0  0  0  0  0  0  0  0  0
   -1.6979    7.8806    0.2411 H   0  0  0  0  0  0  0  0  0  0  0  0
   -1.2365    3.4816   -0.0563 H   0  0  0  0  0  0  0  0  0  0  0  0
   -2.1798   -0.3574   -1.8955 H   0  0  0  0  0  0  0  0  0  0  0  0
   -0.0170   -1.1760   -2.7496 H   0  0  0  0  0  0  0  0  0  0  0  0
    3.6665    0.3283   -0.8666 H   0  0  0  0  0  0  0  0  0  0  0  0
    3.4586   -1.2312   -0.0013 H   0  0  0  0  0  0  0  0  0  0  0  0
    4.5513   -0.9441   -2.8495 H   0  0  0  0  0  0  0  0  0  0  0  0
    4.3898   -2.4341   -1.9870 H   0  0  0  0  0  0  0  0  0  0  0  0
    6.3437   -3.0746   -0.4061 H   0  0  0  0  0  0  0  0  0  0  0  0
    5.4788   -1.8962    0.5961 H   0  0  0  0  0  0  0  0  0  0  0  0
    8.4305   -1.6525   -0.1972 H   0  0  0  0  0  0  0  0  0  0  0  0
    7.8236   -2.1911    1.3694 H   0  0  0  0  0  0  0  0  0  0  0  0
    7.0532    1.6425    0.2287 H   0  0  0  0  0  0  0  0  0  0  0  0
    5.6882    0.6476    0.7326 H   0  0  0  0  0  0  0  0  0  0  0  0
    5.8225    0.8593   -1.7878 H   0  0  0  0  0  0  0  0  0  0  0  0
    7.4454    0.1987   -1.7396 H   0  0  0  0  0  0  0  0  0  0  0  0
    1.9526    0.3877    0.7547 H   0  0  0  0  0  0  0  0  0  0  0  0
   -0.1884    1.1909    1.6027 H   0  0  0  0  0  0  0  0  0  0  0  0
   -5.2700   -1.4887   -0.6606 H   0  0  0  0  0  0  0  0  0  0  0  0
  1  2  1  0
  2  3  1  0
  3  4  2  0
  4  5  1  0
  5  6  2  0
  6  7  1  0
  7  8  1  0
  8  9  1  0
  9 10  1  0
 10 11  2  0
 11 12  1  0
 12 13  2  0
 13 14  1  0
 14 15  1  0
 13 16  1  0
 16 17  2  0
 17 18  1  0
 18 19  1  0
 19 20  2  0
 20 21  1  0
 21 22  2  0
 22 23  1  0
 23 24  1  0
 24 25  1  0
 25 26  1  0
 26 27  1  0
 27 28  1  0
 28 29  1  0
 29 30  1  0
 30 31  1  0
 22 32  1  0
 32 33  2  0
  7 34  2  0
 34  3  1  0
 18  8  2  0
 33 19  1  0
 17 10  1  0
 31 26  1  0
  1 35  1  0
  1 36  1  0
  1 37  1  0
  4 38  1  0
  5 39  1  0
  6 40  1  0
 11 41  1  0
 12 42  1  0
 15 43  1  0
 15 44  1  0
 15 45  1  0
 16 46  1  0
 20 47  1  0
 21 48  1  0
 24 49  1  0
 24 50  1  0
 25 51  1  0
 25 52  1  0
 27 53  1  0
 27 54  1  0
 28 55  1  0
 28 56  1  0
 30 57  1  0
 30 58  1  0
 31 59  1  0
 31 60  1  0
 32 61  1  0
 33 62  1  0
 34 63  1  0
M  END
$$$$
