
     RDKit          3D

 32 33  0  0  0  0  0  0  0  0999 V2000
   -5.9473   -0.2521   -2.1472 C   0  0  0  0  0  0  0  0  0  0  0  0
   -5.6770   -0.7939   -0.7561 C   0  0  0  0  0  0  0  0  0  0  0  0
   -4.2660   -0.8016   -0.4939 O   0  0  0  0  0  0  0  0  0  0  0  0
   -3.7528    0.3507    0.0054 C   0  0  0  0  0  0  0  0  0  0  0  0
   -4.3793    1.3717    0.2408 O   0  0  0  0  0  0  0  0  0  0  0  0
   -2.2883    0.2152    0.2355 C   0  0  0  0  0  0  0  0  0  0  0  0
   -1.5950    1.3182    0.7499 C   0  0  0  0  0  0  0  0  0  0  0  0
   -0.2191    1.2432    0.9829 C   0  0  0  0  0  0  0  0  0  0  0  0
    0.4852    0.0619    0.7098 C   0  0  0  0  0  0  0  0  0  0  0  0
    1.9748   -0.0147    0.9463 C   0  0  0  0  0  0  0  0  0  0  0  0
    2.9022    0.4957   -0.5300 S   0  0  0  0  0  0  0  0  0  0  0  0
    4.5399    0.3144    0.0510 C   0  0  0  0  0  0  0  0  0  0  0  0
    4.8266   -0.1520    1.2460 N   0  0  0  0  0  0  0  0  0  0  0  0
    6.1893   -0.1964    1.4681 N   0  0  0  0  0  0  0  0  0  0  0  0
    6.8798    0.2349    0.4364 C   0  0  0  0  0  0  0  0  0  0  0  0
    8.2247    0.2905    0.3865 N   0  0  0  0  0  0  0  0  0  0  0  0
    5.9086    0.7204   -0.8948 S   0  0  0  0  0  0  0  0  0  0  0  0
   -0.2108   -1.0384    0.1881 C   0  0  0  0  0  0  0  0  0  0  0  0
   -1.5876   -0.9645   -0.0455 C   0  0  0  0  0  0  0  0  0  0  0  0
   -5.6141    0.7867   -2.2359 H   0  0  0  0  0  0  0  0  0  0  0  0
   -7.0149   -0.2974   -2.3803 H   0  0  0  0  0  0  0  0  0  0  0  0
   -5.3967   -0.8284   -2.8979 H   0  0  0  0  0  0  0  0  0  0  0  0
   -6.0194   -1.8319   -0.6925 H   0  0  0  0  0  0  0  0  0  0  0  0
   -6.2219   -0.2280    0.0083 H   0  0  0  0  0  0  0  0  0  0  0  0
   -2.1237    2.2443    0.9691 H   0  0  0  0  0  0  0  0  0  0  0  0
    0.2996    2.1156    1.3763 H   0  0  0  0  0  0  0  0  0  0  0  0
    2.2432    0.6271    1.7937 H   0  0  0  0  0  0  0  0  0  0  0  0
    2.2475   -1.0407    1.2202 H   0  0  0  0  0  0  0  0  0  0  0  0
    8.7107   -0.2681    1.0806 H   0  0  0  0  0  0  0  0  0  0  0  0
    8.6627    0.2761   -0.5269 H   0  0  0  0  0  0  0  0  0  0  0  0
    0.3168   -1.9620   -0.0438 H   0  0  0  0  0  0  0  0  0  0  0  0
   -2.0979   -1.8350   -0.4501 H   0  0  0  0  0  0  0  0  0  0  0  0
  1  2  1  0
  2  3  1  0
  3  4  1  0
  4  5  2  0
  4  6  1  0
  6  7  2  0
  7  8  1  0
  8  9  2  0
  9 10  1  0
 10 11  1  0
 11 12  1  0
 12 13  2  0
 13 14  1  0
 14 15  2  0
 15 16  1  0
 15 17  1  0
  9 18  1  0
 18 19  2  0
 19  6  1  0
 17 12  1  0
  1 20  1  0
  1 21  1  0
  1 22  1  0
  2 23  1  0
  2 24  1  0
  7 25  1  0
  8 26  1  0
 10 27  1  0
 10 28  1  0
 16 29  1  0
 16 30  1  0
 18 31  1  0
 19 32  1  0
M  END
$$$$
