
     RDKit          3D

 48 50  0  0  0  0  0  0  0  0999 V2000
   -3.5120   -2.4085    5.2520 C   0  0  0  0  0  0  0  0  0  0  0  0
   -4.4101   -2.8744    4.1207 C   0  0  0  0  0  0  0  0  0  0  0  0
   -4.4875   -1.8605    3.1048 O   0  0  0  0  0  0  0  0  0  0  0  0
   -3.5158   -1.8989    2.1565 C   0  0  0  0  0  0  0  0  0  0  0  0
   -2.6150   -2.7181    2.0972 O   0  0  0  0  0  0  0  0  0  0  0  0
   -3.7036   -0.7856    1.2089 C   0  0  0  0  0  0  0  0  0  0  0  0
   -4.8797   -0.0708    1.1307 C   0  0  0  0  0  0  0  0  0  0  0  0
   -5.0876    0.9493    0.2689 N   0  0  0  0  0  0  0  0  0  0  0  0
   -4.0680    1.2695   -0.5431 C   0  0  0  0  0  0  0  0  0  0  0  0
   -4.3379    2.5991   -1.6838 S   0  0  0  0  0  0  0  0  0  0  0  0
   -2.6249    3.0965   -1.9887 C   0  0  0  0  0  0  0  0  0  0  0  0
   -2.8889    0.6382   -0.5565 N   0  0  0  0  0  0  0  0  0  0  0  0
   -2.7307   -0.3889    0.3128 C   0  0  0  0  0  0  0  0  0  0  0  0
   -1.4950   -1.0204    0.3456 O   0  0  0  0  0  0  0  0  0  0  0  0
   -0.7282   -0.9590   -0.7955 C   0  0  0  0  0  0  0  0  0  0  0  0
   -1.1804   -1.4801   -2.0091 C   0  0  0  0  0  0  0  0  0  0  0  0
   -0.3492   -1.4399   -3.1244 C   0  0  0  0  0  0  0  0  0  0  0  0
    0.9328   -0.8935   -3.0184 C   0  0  0  0  0  0  0  0  0  0  0  0
    1.3988   -0.3837   -1.7973 C   0  0  0  0  0  0  0  0  0  0  0  0
    2.7099    0.1405   -1.7794 N   0  0  0  0  0  0  0  0  0  0  0  0
    3.3453    0.7695   -0.7245 C   0  0  0  0  0  0  0  0  0  0  0  0
    2.8598    1.0572    0.3625 O   0  0  0  0  0  0  0  0  0  0  0  0
    4.7586    1.1632   -0.9886 C   0  0  0  0  0  0  0  0  0  0  0  0
    5.2450    2.3390   -0.4012 C   0  0  0  0  0  0  0  0  0  0  0  0
    6.5638    2.7438   -0.6232 C   0  0  0  0  0  0  0  0  0  0  0  0
    7.3997    1.9664   -1.4226 C   0  0  0  0  0  0  0  0  0  0  0  0
    9.0215    2.4613   -1.6956 Cl  0  0  0  0  0  0  0  0  0  0  0  0
    6.9319    0.7838   -1.9953 C   0  0  0  0  0  0  0  0  0  0  0  0
    5.6120    0.3771   -1.7766 C   0  0  0  0  0  0  0  0  0  0  0  0
    0.5624   -0.4334   -0.6812 C   0  0  0  0  0  0  0  0  0  0  0  0
   -3.4702   -3.1579    6.0479 H   0  0  0  0  0  0  0  0  0  0  0  0
   -2.4953   -2.2172    4.8950 H   0  0  0  0  0  0  0  0  0  0  0  0
   -3.8829   -1.4685    5.6730 H   0  0  0  0  0  0  0  0  0  0  0  0
   -4.0727   -3.8311    3.7053 H   0  0  0  0  0  0  0  0  0  0  0  0
   -5.4267   -3.0300    4.4968 H   0  0  0  0  0  0  0  0  0  0  0  0
   -5.7348   -0.2887    1.7658 H   0  0  0  0  0  0  0  0  0  0  0  0
   -2.6255    3.9788   -2.6365 H   0  0  0  0  0  0  0  0  0  0  0  0
   -2.1262    3.3602   -1.0499 H   0  0  0  0  0  0  0  0  0  0  0  0
   -2.0652    2.3035   -2.4943 H   0  0  0  0  0  0  0  0  0  0  0  0
   -2.1722   -1.9154   -2.0892 H   0  0  0  0  0  0  0  0  0  0  0  0
   -0.6975   -1.8355   -4.0750 H   0  0  0  0  0  0  0  0  0  0  0  0
    1.5599   -0.8752   -3.9057 H   0  0  0  0  0  0  0  0  0  0  0  0
    3.2024    0.1052   -2.6605 H   0  0  0  0  0  0  0  0  0  0  0  0
    4.5942    2.9422    0.2312 H   0  0  0  0  0  0  0  0  0  0  0  0
    6.9315    3.6592   -0.1669 H   0  0  0  0  0  0  0  0  0  0  0  0
    7.5933    0.1705   -2.6029 H   0  0  0  0  0  0  0  0  0  0  0  0
    5.2776   -0.5670   -2.1982 H   0  0  0  0  0  0  0  0  0  0  0  0
    0.8831   -0.0719    0.2899 H   0  0  0  0  0  0  0  0  0  0  0  0
  1  2  1  0
  2  3  1  0
  3  4  1  0
  4  5  2  0
  4  6  1  0
  6  7  2  0
  7  8  1  0
  8  9  2  0
  9 10  1  0
 10 11  1  0
  9 12  1  0
 12 13  2  0
 13 14  1  0
 14 15  1  0
 15 16  2  0
 16 17  1  0
 17 18  2  0
 18 19  1  0
 19 20  1  0
 20 21  1  0
 21 22  2  0
 21 23  1  0
 23 24  2  0
 24 25  1  0
 25 26  2  0
 26 27  1  0
 26 28  1  0
 28 29  2  0
 19 30  2  0
 13  6  1  0
 30 15  1  0
 29 23  1  0
  1 31  1  0
  1 32  1  0
  1 33  1  0
  2 34  1  0
  2 35  1  0
  7 36  1  0
 11 37  1  0
 11 38  1  0
 11 39  1  0
 16 40  1  0
 17 41  1  0
 18 42  1  0
 20 43  1  0
 24 44  1  0
 25 45  1  0
 28 46  1  0
 29 47  1  0
 30 48  1  0
M  END
$$$$
