
     RDKit          3D

 90 91  0  0  0  0  0  0  0  0999 V2000
    4.4786   -3.2451    1.5376 C   0  0  0  0  0  0  0  0  0  0  0  0
    3.5915   -2.4365    0.6409 C   0  0  0  0  0  0  0  0  0  0  0  0
    3.3717   -2.7072   -0.5299 O   0  0  0  0  0  0  0  0  0  0  0  0
    3.0909   -1.3772    1.3227 O   0  0  0  0  0  0  0  0  0  0  0  0
    2.2216   -0.4315    0.6164 C   0  0  1  0  0  0  0  0  0  0  0  0
    0.9141   -0.3165    1.4414 C   0  0  2  0  0  0  0  0  0  0  0  0
    1.2321   -0.0309    2.8201 O   0  0  0  0  0  0  0  0  0  0  0  0
    0.2425    0.5445    3.5573 C   0  0  0  0  0  0  0  0  0  0  0  0
    0.7205    0.7688    4.9590 C   0  0  0  0  0  0  0  0  0  0  0  0
   -0.8722    0.8400    3.1531 O   0  0  0  0  0  0  0  0  0  0  0  0
    0.0722   -1.5982    1.3292 C   0  0  0  0  0  0  0  0  0  0  0  0
    0.2919   -2.6590    2.3807 C   0  0  0  0  0  0  0  0  0  0  0  0
   -0.8560   -1.8055    0.3660 C   0  0  0  0  0  0  0  0  0  0  0  0
   -1.2186   -0.8866   -0.7986 C   0  0  1  0  0  0  0  0  0  0  0  0
   -1.3539   -1.6124   -2.1645 C   0  0  1  0  0  0  0  0  0  0  0  0
   -0.5927   -2.8143   -2.2750 O   0  0  0  0  0  0  0  0  0  0  0  0
    0.7163   -2.6232   -2.6135 C   0  0  0  0  0  0  0  0  0  0  0  0
    1.4212   -3.9416   -2.6943 C   0  0  0  0  0  0  0  0  0  0  0  0
    1.2321   -1.5366   -2.8404 O   0  0  0  0  0  0  0  0  0  0  0  0
   -2.8502   -1.8340   -2.3762 C   0  0  1  0  0  0  0  0  0  0  0  0
   -3.4569   -3.0384   -1.6642 C   0  0  0  0  0  0  0  0  0  0  0  0
   -3.4201   -0.4968   -1.8987 C   0  0  0  0  0  0  0  0  0  0  0  0
   -2.5766   -0.0811   -0.6631 C   0  0  1  0  0  0  0  0  0  0  0  0
   -3.1943   -0.5762    0.5757 O   0  0  0  0  0  0  0  0  0  0  0  0
   -4.4482   -0.2785    0.9881 C   0  0  0  0  0  0  0  0  0  0  0  0
   -4.6680   -0.8478    2.3574 C   0  0  0  0  0  0  0  0  0  0  0  0
   -5.2977    0.3365    0.3634 O   0  0  0  0  0  0  0  0  0  0  0  0
   -2.3732    1.4790   -0.5506 C   0  0  2  0  0  0  0  0  0  0  0  0
   -3.6511    2.1243   -0.7727 O   0  0  0  0  0  0  0  0  0  0  0  0
   -3.9753    3.1585    0.0502 C   0  0  0  0  0  0  0  0  0  0  0  0
   -5.3475    3.6644   -0.2745 C   0  0  0  0  0  0  0  0  0  0  0  0
   -3.2553    3.6292    0.9193 O   0  0  0  0  0  0  0  0  0  0  0  0
   -1.3028    2.1000   -1.5234 C   0  0  1  0  0  0  0  0  0  0  0  0
   -1.7674    3.3333   -2.3056 C   0  0  0  0  0  0  0  0  0  0  0  0
   -0.0768    2.4845   -0.7147 C   0  0  0  0  0  0  0  0  0  0  0  0
    1.1634    1.9965   -0.8993 C   0  0  0  0  0  0  0  0  0  0  0  0
    2.3657    2.2202    0.0180 C   0  0  0  0  0  0  0  0  0  0  0  0
    3.3413    3.1448   -0.7542 C   0  0  0  0  0  0  0  0  0  0  0  0
    2.0158    2.9741    1.3240 C   0  0  0  0  0  0  0  0  0  0  0  0
    3.0760    0.8576    0.3946 C   0  0  2  0  0  0  0  0  0  0  0  0
    3.9764    0.5272   -0.7152 O   0  0  0  0  0  0  0  0  0  0  0  0
    5.2555    0.1745   -0.4290 C   0  0  0  0  0  0  0  0  0  0  0  0
    5.9841   -0.1675   -1.6922 C   0  0  0  0  0  0  0  0  0  0  0  0
    5.7475    0.1136    0.6889 O   0  0  0  0  0  0  0  0  0  0  0  0
    3.9179   -3.5773    2.4150 H   0  0  0  0  0  0  0  0  0  0  0  0
    4.8303   -4.1294    0.9975 H   0  0  0  0  0  0  0  0  0  0  0  0
    5.3445   -2.6497    1.8372 H   0  0  0  0  0  0  0  0  0  0  0  0
    1.9705   -0.8368   -0.3704 H   0  0  0  0  0  0  0  0  0  0  0  0
    0.3156    0.5088    1.0588 H   0  0  0  0  0  0  0  0  0  0  0  0
    1.5959    1.4231    4.9516 H   0  0  0  0  0  0  0  0  0  0  0  0
   -0.0704    1.2530    5.5392 H   0  0  0  0  0  0  0  0  0  0  0  0
    0.9596   -0.1899    5.4258 H   0  0  0  0  0  0  0  0  0  0  0  0
    1.3446   -2.9445    2.4406 H   0  0  0  0  0  0  0  0  0  0  0  0
   -0.0283   -2.3021    3.3639 H   0  0  0  0  0  0  0  0  0  0  0  0
   -0.2752   -3.5723    2.1690 H   0  0  0  0  0  0  0  0  0  0  0  0
   -1.4164   -2.7388    0.3983 H   0  0  0  0  0  0  0  0  0  0  0  0
   -0.3749   -0.2143   -0.9253 H   0  0  0  0  0  0  0  0  0  0  0  0
   -1.0433   -0.9173   -2.9594 H   0  0  0  0  0  0  0  0  0  0  0  0
    0.9445   -4.5705   -3.4503 H   0  0  0  0  0  0  0  0  0  0  0  0
    1.4015   -4.4329   -1.7183 H   0  0  0  0  0  0  0  0  0  0  0  0
    2.4625   -3.7790   -2.9860 H   0  0  0  0  0  0  0  0  0  0  0  0
   -3.0498   -1.9668   -3.4470 H   0  0  0  0  0  0  0  0  0  0  0  0
   -3.3943   -2.9686   -0.5768 H   0  0  0  0  0  0  0  0  0  0  0  0
   -4.5188   -3.1254   -1.9185 H   0  0  0  0  0  0  0  0  0  0  0  0
   -2.9672   -3.9660   -1.9764 H   0  0  0  0  0  0  0  0  0  0  0  0
   -3.2871    0.2372   -2.7038 H   0  0  0  0  0  0  0  0  0  0  0  0
   -4.4918   -0.5801   -1.7069 H   0  0  0  0  0  0  0  0  0  0  0  0
   -5.6609   -0.5600    2.7149 H   0  0  0  0  0  0  0  0  0  0  0  0
   -3.9226   -0.4470    3.0496 H   0  0  0  0  0  0  0  0  0  0  0  0
   -4.6100   -1.9385    2.3181 H   0  0  0  0  0  0  0  0  0  0  0  0
   -2.0704    1.6531    0.4912 H   0  0  0  0  0  0  0  0  0  0  0  0
   -6.0979    2.9249    0.0138 H   0  0  0  0  0  0  0  0  0  0  0  0
   -5.5314    4.5892    0.2807 H   0  0  0  0  0  0  0  0  0  0  0  0
   -5.4184    3.8877   -1.3425 H   0  0  0  0  0  0  0  0  0  0  0  0
   -1.0224    1.3592   -2.2796 H   0  0  0  0  0  0  0  0  0  0  0  0
   -2.6444    3.1013   -2.9197 H   0  0  0  0  0  0  0  0  0  0  0  0
   -2.0144    4.1726   -1.6469 H   0  0  0  0  0  0  0  0  0  0  0  0
   -0.9785    3.6765   -2.9861 H   0  0  0  0  0  0  0  0  0  0  0  0
   -0.2823    3.1632    0.1141 H   0  0  0  0  0  0  0  0  0  0  0  0
    1.3467    1.3378   -1.7517 H   0  0  0  0  0  0  0  0  0  0  0  0
    2.9004    4.1351   -0.9232 H   0  0  0  0  0  0  0  0  0  0  0  0
    3.6009    2.7431   -1.7408 H   0  0  0  0  0  0  0  0  0  0  0  0
    4.2718    3.2900   -0.1929 H   0  0  0  0  0  0  0  0  0  0  0  0
    1.2410    2.4707    1.9028 H   0  0  0  0  0  0  0  0  0  0  0  0
    2.8968    3.0762    1.9687 H   0  0  0  0  0  0  0  0  0  0  0  0
    1.6571    3.9903    1.1193 H   0  0  0  0  0  0  0  0  0  0  0  0
    3.6835    1.0323    1.2918 H   0  0  0  0  0  0  0  0  0  0  0  0
    5.8520    0.6308   -2.4280 H   0  0  0  0  0  0  0  0  0  0  0  0
    5.6125   -1.1170   -2.0863 H   0  0  0  0  0  0  0  0  0  0  0  0
    7.0530   -0.2611   -1.4792 H   0  0  0  0  0  0  0  0  0  0  0  0
  1  2  1  0
  2  3  2  0
  2  4  1  0
  4  5  1  0
  5  6  1  0
  6  7  1  0
  7  8  1  0
  8  9  1  0
  8 10  2  0
  6 11  1  0
 11 12  1  0
 11 13  2  0
 13 14  1  0
 14 15  1  0
 15 16  1  0
 16 17  1  0
 17 18  1  0
 17 19  2  0
 15 20  1  0
 20 21  1  0
 20 22  1  0
 22 23  1  0
 23 24  1  1
 24 25  1  0
 25 26  1  0
 25 27  2  0
 23 28  1  0
 28 29  1  0
 29 30  1  0
 30 31  1  0
 30 32  2  0
 28 33  1  0
 33 34  1  0
 33 35  1  0
 35 36  2  0
 36 37  1  0
 37 38  1  0
 37 39  1  0
 37 40  1  0
 40 41  1  0
 41 42  1  0
 42 43  1  0
 42 44  2  0
 40  5  1  0
 23 14  1  0
  1 45  1  0
  1 46  1  0
  1 47  1  0
  5 48  1  6
  6 49  1  6
  9 50  1  0
  9 51  1  0
  9 52  1  0
 12 53  1  0
 12 54  1  0
 12 55  1  0
 13 56  1  0
 14 57  1  6
 15 58  1  6
 18 59  1  0
 18 60  1  0
 18 61  1  0
 20 62  1  6
 21 63  1  0
 21 64  1  0
 21 65  1  0
 22 66  1  0
 22 67  1  0
 26 68  1  0
 26 69  1  0
 26 70  1  0
 28 71  1  1
 31 72  1  0
 31 73  1  0
 31 74  1  0
 33 75  1  6
 34 76  1  0
 34 77  1  0
 34 78  1  0
 35 79  1  0
 36 80  1  0
 38 81  1  0
 38 82  1  0
 38 83  1  0
 39 84  1  0
 39 85  1  0
 39 86  1  0
 40 87  1  1
 43 88  1  0
 43 89  1  0
 43 90  1  0
M  END
$$$$
