
     RDKit          3D

 80 86  0  0  0  0  0  0  0  0999 V2000
   -5.3646   -1.8302    1.7254 C   0  0  0  0  0  0  0  0  0  0  0  0
   -4.0208   -1.2178    1.9954 C   0  0  0  0  0  0  0  0  0  0  0  0
   -3.7442   -0.6139    3.2480 C   0  0  0  0  0  0  0  0  0  0  0  0
   -4.9126   -0.5608    4.5299 Cl  0  0  0  0  0  0  0  0  0  0  0  0
   -2.4975   -0.0315    3.5382 C   0  0  0  0  0  0  0  0  0  0  0  0
   -1.4824   -0.0304    2.5928 C   0  0  0  0  0  0  0  0  0  0  0  0
   -1.7341   -0.6279    1.3661 C   0  0  0  0  0  0  0  0  0  0  0  0
   -2.9718   -1.2374    1.0632 C   0  0  0  0  0  0  0  0  0  0  0  0
   -2.8757   -1.8070   -0.2350 N   0  0  0  0  0  0  0  0  0  0  0  0
   -3.8831   -2.5086   -0.9882 C   0  0  0  0  0  0  0  0  0  0  0  0
   -4.6189   -1.6525   -2.0013 C   0  0  0  0  0  0  0  0  0  0  0  0
   -5.0641   -2.2419   -3.1972 C   0  0  0  0  0  0  0  0  0  0  0  0
   -5.7635   -1.4949   -4.1478 C   0  0  0  0  0  0  0  0  0  0  0  0
   -6.0389   -0.1501   -3.9126 C   0  0  0  0  0  0  0  0  0  0  0  0
   -5.6157    0.4476   -2.7273 C   0  0  0  0  0  0  0  0  0  0  0  0
   -4.9122   -0.2976   -1.7778 C   0  0  0  0  0  0  0  0  0  0  0  0
   -1.6002   -1.5994   -0.8053 C   0  0  0  0  0  0  0  0  0  0  0  0
   -1.2062   -2.0316   -1.8817 O   0  0  0  0  0  0  0  0  0  0  0  0
   -0.8065   -0.7521    0.1989 C   0  0  1  0  0  0  0  0  0  0  0  0
   -0.4977    0.5994   -0.3377 C   0  0  0  0  0  0  0  0  0  0  0  0
    0.8679    0.7005   -0.6428 C   0  0  0  0  0  0  0  0  0  0  0  0
    1.1169    1.9347   -1.1725 C   0  0  0  0  0  0  0  0  0  0  0  0
    2.2564    2.3902   -1.6904 O   0  0  0  0  0  0  0  0  0  0  0  0
   -0.1094    2.6301   -1.1781 N   0  0  0  0  0  0  0  0  0  0  0  0
   -0.3201    3.9471   -1.6813 C   0  0  0  0  0  0  0  0  0  0  0  0
    0.6342    4.9478   -1.4599 C   0  0  0  0  0  0  0  0  0  0  0  0
    0.4201    6.2335   -1.9605 C   0  0  0  0  0  0  0  0  0  0  0  0
   -0.7376    6.5222   -2.6820 C   0  0  0  0  0  0  0  0  0  0  0  0
   -1.6879    5.5277   -2.9055 C   0  0  0  0  0  0  0  0  0  0  0  0
   -1.4838    4.2405   -2.4066 C   0  0  0  0  0  0  0  0  0  0  0  0
   -1.1018    1.7921   -0.6314 C   0  0  0  0  0  0  0  0  0  0  0  0
   -2.3652    2.1531   -0.4107 O   0  0  0  0  0  0  0  0  0  0  0  0
    1.5489   -0.5852   -0.3906 C   0  0  1  0  0  0  0  0  0  0  0  0
    2.8987   -0.5633    0.3276 C   0  0  0  0  0  0  0  0  0  0  0  0
    3.2330   -1.8787    0.9167 N   0  0  0  0  0  0  0  0  0  0  0  0
    4.4452   -2.1186    1.5311 C   0  0  0  0  0  0  0  0  0  0  0  0
    4.7907   -3.2187    1.9431 O   0  0  0  0  0  0  0  0  0  0  0  0
    5.2030   -0.9940    1.6125 O   0  0  0  0  0  0  0  0  0  0  0  0
    6.5293   -1.0286    2.1989 C   0  0  0  0  0  0  0  0  0  0  0  0
    7.0465    0.4140    2.0780 C   0  0  0  0  0  0  0  0  0  0  0  0
    6.4715   -1.4070    3.6834 C   0  0  0  0  0  0  0  0  0  0  0  0
    7.4686   -1.9469    1.4077 C   0  0  0  0  0  0  0  0  0  0  0  0
    2.3284   -3.0004    0.6350 C   0  0  0  0  0  0  0  0  0  0  0  0
    0.8189   -2.6465    0.7393 C   0  0  0  0  0  0  0  0  0  0  0  0
    0.5556   -1.2396    0.5049 N   0  0  0  0  0  0  0  0  0  0  0  0
   -5.7547   -1.4973    0.7614 H   0  0  0  0  0  0  0  0  0  0  0  0
   -6.1302   -1.5357    2.4476 H   0  0  0  0  0  0  0  0  0  0  0  0
   -5.2947   -2.9216    1.7549 H   0  0  0  0  0  0  0  0  0  0  0  0
   -2.3181    0.4240    4.5095 H   0  0  0  0  0  0  0  0  0  0  0  0
   -0.5172    0.4203    2.8043 H   0  0  0  0  0  0  0  0  0  0  0  0
   -4.5894   -3.0231   -0.3366 H   0  0  0  0  0  0  0  0  0  0  0  0
   -3.3642   -3.3078   -1.5357 H   0  0  0  0  0  0  0  0  0  0  0  0
   -4.8539   -3.2900   -3.4030 H   0  0  0  0  0  0  0  0  0  0  0  0
   -6.0864   -1.9625   -5.0761 H   0  0  0  0  0  0  0  0  0  0  0  0
   -6.5805    0.4318   -4.6539 H   0  0  0  0  0  0  0  0  0  0  0  0
   -5.8267    1.4973   -2.5418 H   0  0  0  0  0  0  0  0  0  0  0  0
   -4.5875    0.2004   -0.8663 H   0  0  0  0  0  0  0  0  0  0  0  0
    2.0503    3.0737   -2.3538 H   0  0  0  0  0  0  0  0  0  0  0  0
    1.5256    4.7613   -0.8634 H   0  0  0  0  0  0  0  0  0  0  0  0
    1.1532    7.0157   -1.7792 H   0  0  0  0  0  0  0  0  0  0  0  0
   -0.8997    7.5245   -3.0721 H   0  0  0  0  0  0  0  0  0  0  0  0
   -2.5853    5.7523   -3.4768 H   0  0  0  0  0  0  0  0  0  0  0  0
   -2.2197    3.4717   -2.6340 H   0  0  0  0  0  0  0  0  0  0  0  0
   -2.4075    3.1241   -0.3516 H   0  0  0  0  0  0  0  0  0  0  0  0
    1.6247   -1.1403   -1.3353 H   0  0  0  0  0  0  0  0  0  0  0  0
    2.9066    0.1698    1.1444 H   0  0  0  0  0  0  0  0  0  0  0  0
    3.6973   -0.2810   -0.3691 H   0  0  0  0  0  0  0  0  0  0  0  0
    6.3853    1.1095    2.6082 H   0  0  0  0  0  0  0  0  0  0  0  0
    7.0588    0.7369    1.0301 H   0  0  0  0  0  0  0  0  0  0  0  0
    8.0586    0.5197    2.4835 H   0  0  0  0  0  0  0  0  0  0  0  0
    7.4419   -1.2631    4.1702 H   0  0  0  0  0  0  0  0  0  0  0  0
    5.7245   -0.8016    4.2084 H   0  0  0  0  0  0  0  0  0  0  0  0
    6.1879   -2.4539    3.8272 H   0  0  0  0  0  0  0  0  0  0  0  0
    7.4322   -1.7111    0.3388 H   0  0  0  0  0  0  0  0  0  0  0  0
    7.1929   -3.0007    1.5057 H   0  0  0  0  0  0  0  0  0  0  0  0
    8.5037   -1.8482    1.7520 H   0  0  0  0  0  0  0  0  0  0  0  0
    2.5550   -3.3168   -0.3917 H   0  0  0  0  0  0  0  0  0  0  0  0
    2.5519   -3.8513    1.2880 H   0  0  0  0  0  0  0  0  0  0  0  0
    0.4714   -2.8965    1.7485 H   0  0  0  0  0  0  0  0  0  0  0  0
    0.2764   -3.2977    0.0458 H   0  0  0  0  0  0  0  0  0  0  0  0
  1  2  1  0
  2  3  2  0
  3  4  1  0
  3  5  1  0
  5  6  2  0
  6  7  1  0
  7  8  2  0
  8  9  1  0
  9 10  1  0
 10 11  1  0
 11 12  2  0
 12 13  1  0
 13 14  2  0
 14 15  1  0
 15 16  2  0
  9 17  1  0
 17 18  2  0
 17 19  1  0
 19 20  1  0
 20 21  1  0
 21 22  2  0
 22 23  1  0
 22 24  1  0
 24 25  1  0
 25 26  2  0
 26 27  1  0
 27 28  2  0
 28 29  1  0
 29 30  2  0
 24 31  1  0
 31 32  1  0
 21 33  1  0
 33 34  1  0
 34 35  1  0
 35 36  1  0
 36 37  2  0
 36 38  1  0
 38 39  1  0
 39 40  1  0
 39 41  1  0
 39 42  1  0
 35 43  1  0
 43 44  1  0
 44 45  1  0
  8  2  1  0
 16 11  1  0
 19 45  1  1
 19  7  1  0
 31 20  2  0
 45 33  1  0
 30 25  1  0
  1 46  1  0
  1 47  1  0
  1 48  1  0
  5 49  1  0
  6 50  1  0
 10 51  1  0
 10 52  1  0
 12 53  1  0
 13 54  1  0
 14 55  1  0
 15 56  1  0
 16 57  1  0
 23 58  1  0
 26 59  1  0
 27 60  1  0
 28 61  1  0
 29 62  1  0
 30 63  1  0
 32 64  1  0
 33 65  1  6
 34 66  1  0
 34 67  1  0
 40 68  1  0
 40 69  1  0
 40 70  1  0
 41 71  1  0
 41 72  1  0
 41 73  1  0
 42 74  1  0
 42 75  1  0
 42 76  1  0
 43 77  1  0
 43 78  1  0
 44 79  1  0
 44 80  1  0
M  END
$$$$
