
     RDKit          3D

 49 52  0  0  0  0  0  0  0  0999 V2000
    5.1402   -2.7079    0.6254 C   0  0  0  0  0  0  0  0  0  0  0  0
    5.8749   -1.3985    0.5410 C   0  0  0  0  0  0  0  0  0  0  0  0
    7.1511   -1.2656    1.1090 C   0  0  0  0  0  0  0  0  0  0  0  0
    7.8333   -0.0466    1.0315 C   0  0  0  0  0  0  0  0  0  0  0  0
    9.4015    0.0949    1.7263 Cl  0  0  0  0  0  0  0  0  0  0  0  0
    7.2604    1.0501    0.3879 C   0  0  0  0  0  0  0  0  0  0  0  0
    5.9895    0.9345   -0.1754 C   0  0  0  0  0  0  0  0  0  0  0  0
    5.2937   -0.2794   -0.0829 C   0  0  0  0  0  0  0  0  0  0  0  0
    4.0639   -0.4286   -0.6784 O   0  0  0  0  0  0  0  0  0  0  0  0
    3.0332    0.3399   -0.3153 C   0  0  0  0  0  0  0  0  0  0  0  0
    3.0613    1.2056    0.6755 N   0  0  0  0  0  0  0  0  0  0  0  0
    1.8213    1.8002    0.8056 C   0  0  0  0  0  0  0  0  0  0  0  0
    0.8590    1.3873   -0.0945 C   0  0  0  0  0  0  0  0  0  0  0  0
   -0.5653    1.8293   -0.2299 C   0  0  0  0  0  0  0  0  0  0  0  0
   -1.3252    1.6322    1.0174 N   0  0  0  0  0  0  0  0  0  0  0  0
   -2.6475    2.3017    0.9454 C   0  0  0  0  0  0  0  0  0  0  0  0
   -3.6661    1.6507   -0.0222 C   0  0  0  0  0  0  0  0  0  0  0  0
   -3.8352    0.2151    0.2770 N   0  0  0  0  0  0  0  0  0  0  0  0
   -4.8627   -0.4836   -0.3807 C   0  0  0  0  0  0  0  0  0  0  0  0
   -5.2682   -1.7436    0.0953 C   0  0  0  0  0  0  0  0  0  0  0  0
   -6.2961   -2.4715   -0.5163 C   0  0  0  0  0  0  0  0  0  0  0  0
   -6.9544   -1.9509   -1.6232 C   0  0  0  0  0  0  0  0  0  0  0  0
   -6.5874   -0.6999   -2.1086 C   0  0  0  0  0  0  0  0  0  0  0  0
   -5.5595    0.0259   -1.4887 C   0  0  0  0  0  0  0  0  0  0  0  0
   -2.5592   -0.5334    0.3856 C   0  0  0  0  0  0  0  0  0  0  0  0
   -1.5640    0.1980    1.3215 C   0  0  0  0  0  0  0  0  0  0  0  0
    1.5366    0.2119   -1.1446 S   0  0  0  0  0  0  0  0  0  0  0  0
    4.2442   -2.5988    1.2468 H   0  0  0  0  0  0  0  0  0  0  0  0
    4.8497   -3.0480   -0.3749 H   0  0  0  0  0  0  0  0  0  0  0  0
    5.7630   -3.4928    1.0691 H   0  0  0  0  0  0  0  0  0  0  0  0
    7.6156   -2.1127    1.6123 H   0  0  0  0  0  0  0  0  0  0  0  0
    7.7965    1.9938    0.3199 H   0  0  0  0  0  0  0  0  0  0  0  0
    5.5404    1.7908   -0.6744 H   0  0  0  0  0  0  0  0  0  0  0  0
    1.6632    2.5341    1.5887 H   0  0  0  0  0  0  0  0  0  0  0  0
   -0.5371    2.9041   -0.4651 H   0  0  0  0  0  0  0  0  0  0  0  0
   -1.0457    1.3428   -1.0882 H   0  0  0  0  0  0  0  0  0  0  0  0
   -3.0771    2.2986    1.9568 H   0  0  0  0  0  0  0  0  0  0  0  0
   -2.5193    3.3609    0.6859 H   0  0  0  0  0  0  0  0  0  0  0  0
   -4.6220    2.1755    0.0995 H   0  0  0  0  0  0  0  0  0  0  0  0
   -3.3296    1.7915   -1.0567 H   0  0  0  0  0  0  0  0  0  0  0  0
   -4.8041   -2.1640    0.9841 H   0  0  0  0  0  0  0  0  0  0  0  0
   -6.5891   -3.4368   -0.1105 H   0  0  0  0  0  0  0  0  0  0  0  0
   -7.7571   -2.5107   -2.0975 H   0  0  0  0  0  0  0  0  0  0  0  0
   -7.1026   -0.2793   -2.9685 H   0  0  0  0  0  0  0  0  0  0  0  0
   -5.3140    0.9975   -1.9077 H   0  0  0  0  0  0  0  0  0  0  0  0
   -2.1186   -0.6613   -0.6134 H   0  0  0  0  0  0  0  0  0  0  0  0
   -2.7108   -1.5367    0.8054 H   0  0  0  0  0  0  0  0  0  0  0  0
   -1.9556    0.1420    2.3478 H   0  0  0  0  0  0  0  0  0  0  0  0
   -0.6189   -0.3581    1.3510 H   0  0  0  0  0  0  0  0  0  0  0  0
  1  2  1  0
  2  3  2  0
  3  4  1  0
  4  5  1  0
  4  6  2  0
  6  7  1  0
  7  8  2  0
  8  9  1  0
  9 10  1  0
 10 11  2  0
 11 12  1  0
 12 13  2  0
 13 14  1  0
 14 15  1  0
 15 16  1  0
 16 17  1  0
 17 18  1  0
 18 19  1  0
 19 20  2  0
 20 21  1  0
 21 22  2  0
 22 23  1  0
 23 24  2  0
 18 25  1  0
 25 26  1  0
 13 27  1  0
  8  2  1  0
 27 10  1  0
 26 15  1  0
 24 19  1  0
  1 28  1  0
  1 29  1  0
  1 30  1  0
  3 31  1  0
  6 32  1  0
  7 33  1  0
 12 34  1  0
 14 35  1  0
 14 36  1  0
 16 37  1  0
 16 38  1  0
 17 39  1  0
 17 40  1  0
 20 41  1  0
 21 42  1  0
 22 43  1  0
 23 44  1  0
 24 45  1  0
 25 46  1  0
 25 47  1  0
 26 48  1  0
 26 49  1  0
M  END
$$$$
