
     RDKit          3D

 60 64  0  0  0  0  0  0  0  0999 V2000
   -0.8398    3.3867    3.6430 C   0  0  0  0  0  0  0  0  0  0  0  0
   -2.1699    3.0257    3.0027 C   0  0  0  0  0  0  0  0  0  0  0  0
   -2.0508    1.9442    2.0368 N   0  0  0  0  0  0  0  0  0  0  0  0
   -1.4606    2.0289    0.7750 C   0  0  0  0  0  0  0  0  0  0  0  0
   -0.9781    3.1444    0.2455 O   0  0  0  0  0  0  0  0  0  0  0  0
   -1.5006    0.7627    0.2515 C   0  0  0  0  0  0  0  0  0  0  0  0
   -2.2332   -0.0531    1.1190 C   0  0  0  0  0  0  0  0  0  0  0  0
   -2.5205    0.6537    2.2551 C   0  0  0  0  0  0  0  0  0  0  0  0
   -3.1047    0.2989    3.3907 O   0  0  0  0  0  0  0  0  0  0  0  0
   -2.4583   -1.4082    0.5316 C   0  0  0  0  0  0  0  0  0  0  0  0
   -2.2399   -2.4971    1.6064 C   0  0  0  0  0  0  0  0  0  0  0  0
   -2.7196   -2.4146    2.7426 O   0  0  0  0  0  0  0  0  0  0  0  0
   -1.5689   -3.5834    1.1373 O   0  0  0  0  0  0  0  0  0  0  0  0
   -1.3595   -4.6275    2.0926 C   0  0  0  0  0  0  0  0  0  0  0  0
   -3.9054   -1.4991   -0.0099 C   0  0  0  0  0  0  0  0  0  0  0  0
   -4.0660   -2.5459   -1.1055 C   0  0  0  0  0  0  0  0  0  0  0  0
   -3.0649   -2.2843   -2.2226 C   0  0  0  0  0  0  0  0  0  0  0  0
   -1.6374   -2.2955   -1.6846 C   0  0  0  0  0  0  0  0  0  0  0  0
   -1.4079   -1.4035   -0.5547 N   0  0  0  0  0  0  0  0  0  0  0  0
   -1.0907    0.0069   -0.9546 C   0  0  0  0  0  0  0  0  0  0  0  0
    0.3870    0.2562   -1.1514 C   0  0  0  0  0  0  0  0  0  0  0  0
    1.3705   -0.4336   -0.4242 C   0  0  0  0  0  0  0  0  0  0  0  0
    2.7297   -0.1605   -0.6116 C   0  0  0  0  0  0  0  0  0  0  0  0
    3.1481    0.8124   -1.5300 C   0  0  0  0  0  0  0  0  0  0  0  0
    4.5746    1.1169   -1.7094 C   0  0  0  0  0  0  0  0  0  0  0  0
    5.1759    1.0330   -2.9771 C   0  0  0  0  0  0  0  0  0  0  0  0
    6.5315    1.3244   -3.1515 C   0  0  0  0  0  0  0  0  0  0  0  0
    7.3064    1.7059   -2.0571 C   0  0  0  0  0  0  0  0  0  0  0  0
    6.7224    1.7951   -0.7963 C   0  0  0  0  0  0  0  0  0  0  0  0
    7.6804    2.2719    0.5488 Cl  0  0  0  0  0  0  0  0  0  0  0  0
    5.3708    1.5038   -0.6173 C   0  0  0  0  0  0  0  0  0  0  0  0
    2.1662    1.4976   -2.2614 C   0  0  0  0  0  0  0  0  0  0  0  0
    0.8078    1.2277   -2.0718 C   0  0  0  0  0  0  0  0  0  0  0  0
   -0.3912    2.5225    4.1390 H   0  0  0  0  0  0  0  0  0  0  0  0
   -0.1139    3.7369    2.9002 H   0  0  0  0  0  0  0  0  0  0  0  0
   -0.9745    4.1797    4.3801 H   0  0  0  0  0  0  0  0  0  0  0  0
   -2.8718    2.7179    3.7815 H   0  0  0  0  0  0  0  0  0  0  0  0
   -2.6194    3.8814    2.4929 H   0  0  0  0  0  0  0  0  0  0  0  0
   -1.1765    3.8995    0.8180 H   0  0  0  0  0  0  0  0  0  0  0  0
   -3.2040   -0.6781    3.3704 H   0  0  0  0  0  0  0  0  0  0  0  0
   -2.2339   -4.7956    2.7296 H   0  0  0  0  0  0  0  0  0  0  0  0
   -1.1643   -5.5524    1.5384 H   0  0  0  0  0  0  0  0  0  0  0  0
   -0.4726   -4.4015    2.6898 H   0  0  0  0  0  0  0  0  0  0  0  0
   -4.6014   -1.7290    0.8048 H   0  0  0  0  0  0  0  0  0  0  0  0
   -4.2247   -0.5305   -0.4163 H   0  0  0  0  0  0  0  0  0  0  0  0
   -3.9101   -3.5502   -0.6944 H   0  0  0  0  0  0  0  0  0  0  0  0
   -5.0858   -2.5105   -1.4961 H   0  0  0  0  0  0  0  0  0  0  0  0
   -3.1696   -3.0529   -2.9968 H   0  0  0  0  0  0  0  0  0  0  0  0
   -3.2794   -1.3194   -2.7027 H   0  0  0  0  0  0  0  0  0  0  0  0
   -0.9428   -2.0693   -2.5014 H   0  0  0  0  0  0  0  0  0  0  0  0
   -1.3927   -3.3192   -1.3762 H   0  0  0  0  0  0  0  0  0  0  0  0
   -1.6852    0.3162   -1.8224 H   0  0  0  0  0  0  0  0  0  0  0  0
    1.0802   -1.1870    0.3028 H   0  0  0  0  0  0  0  0  0  0  0  0
    3.4608   -0.7181   -0.0301 H   0  0  0  0  0  0  0  0  0  0  0  0
    4.5836    0.7255   -3.8389 H   0  0  0  0  0  0  0  0  0  0  0  0
    6.9817    1.2516   -4.1384 H   0  0  0  0  0  0  0  0  0  0  0  0
    8.3596    1.9308   -2.1913 H   0  0  0  0  0  0  0  0  0  0  0  0
    4.9260    1.5853    0.3717 H   0  0  0  0  0  0  0  0  0  0  0  0
    2.4543    2.2727   -2.9706 H   0  0  0  0  0  0  0  0  0  0  0  0
    0.0732    1.8033   -2.6314 H   0  0  0  0  0  0  0  0  0  0  0  0
  1  2  1  0
  2  3  1  0
  3  4  1  0
  4  5  1  0
  4  6  2  0
  6  7  1  0
  7  8  2  0
  8  9  1  0
  7 10  1  0
 10 11  1  0
 11 12  2  0
 11 13  1  0
 13 14  1  0
 10 15  1  0
 15 16  1  0
 16 17  1  0
 17 18  1  0
 18 19  1  0
 19 20  1  0
 20 21  1  0
 21 22  2  0
 22 23  1  0
 23 24  2  0
 24 25  1  0
 25 26  2  0
 26 27  1  0
 27 28  2  0
 28 29  1  0
 29 30  1  0
 29 31  2  0
 24 32  1  0
 32 33  2  0
  8  3  1  0
 19 10  1  0
 33 21  1  0
 20  6  1  0
 31 25  1  0
  1 34  1  0
  1 35  1  0
  1 36  1  0
  2 37  1  0
  2 38  1  0
  5 39  1  0
  9 40  1  0
 14 41  1  0
 14 42  1  0
 14 43  1  0
 15 44  1  0
 15 45  1  0
 16 46  1  0
 16 47  1  0
 17 48  1  0
 17 49  1  0
 18 50  1  0
 18 51  1  0
 20 52  1  0
 22 53  1  0
 23 54  1  0
 26 55  1  0
 27 56  1  0
 28 57  1  0
 31 58  1  0
 32 59  1  0
 33 60  1  0
M  END
$$$$
