
     RDKit          3D

 51 53  0  0  0  0  0  0  0  0999 V2000
   -5.3990   -2.4424    2.1731 C   0  0  0  0  0  0  0  0  0  0  0  0
   -4.7352   -1.6037    1.2356 O   0  0  0  0  0  0  0  0  0  0  0  0
   -4.1963   -2.3494    0.1488 C   0  0  0  0  0  0  0  0  0  0  0  0
   -3.5097   -1.3911   -0.8176 C   0  0  0  0  0  0  0  0  0  0  0  0
   -2.3907   -0.6076   -0.1282 C   0  0  0  0  0  0  0  0  0  0  0  0
   -1.6284    0.2186   -1.0443 N   0  0  0  0  0  0  0  0  0  0  0  0
   -0.5758   -0.1838   -1.8280 C   0  0  0  0  0  0  0  0  0  0  0  0
   -0.0540   -1.8257   -1.9912 S   0  0  0  0  0  0  0  0  0  0  0  0
    1.4347   -1.6151   -3.0150 C   0  0  0  0  0  0  0  0  0  0  0  0
    2.5549   -0.8317   -2.3629 C   0  0  0  0  0  0  0  0  0  0  0  0
    3.4349   -0.2764   -3.0135 O   0  0  0  0  0  0  0  0  0  0  0  0
    2.5292   -0.8926   -1.0034 O   0  0  0  0  0  0  0  0  0  0  0  0
    3.5343   -0.1316   -0.3100 C   0  0  0  0  0  0  0  0  0  0  0  0
    2.9537    0.2502    1.0539 C   0  0  0  0  0  0  0  0  0  0  0  0
    3.9840    0.9540    1.9307 C   0  0  0  0  0  0  0  0  0  0  0  0
    5.2548    0.1223    2.0804 C   0  0  0  0  0  0  0  0  0  0  0  0
    5.8347   -0.2746    0.7255 C   0  0  0  0  0  0  0  0  0  0  0  0
    4.7976   -0.9784   -0.1438 C   0  0  0  0  0  0  0  0  0  0  0  0
   -0.0305    0.8527   -2.4153 N   0  0  0  0  0  0  0  0  0  0  0  0
   -0.7106    1.9679   -1.9993 N   0  0  0  0  0  0  0  0  0  0  0  0
   -1.6949    1.5864   -1.2046 C   0  0  0  0  0  0  0  0  0  0  0  0
   -2.6022    2.5182   -0.5998 C   0  0  0  0  0  0  0  0  0  0  0  0
   -2.2582    3.7488   -0.0707 C   0  0  0  0  0  0  0  0  0  0  0  0
   -3.3837    4.4704    0.4242 C   0  0  0  0  0  0  0  0  0  0  0  0
   -4.5568    3.7763    0.2394 C   0  0  0  0  0  0  0  0  0  0  0  0
   -4.2954    2.2756   -0.5359 S   0  0  0  0  0  0  0  0  0  0  0  0
   -5.8048   -1.8133    2.9708 H   0  0  0  0  0  0  0  0  0  0  0  0
   -6.2242   -2.9763    1.6910 H   0  0  0  0  0  0  0  0  0  0  0  0
   -4.6953   -3.1540    2.6135 H   0  0  0  0  0  0  0  0  0  0  0  0
   -3.4771   -3.0850    0.5251 H   0  0  0  0  0  0  0  0  0  0  0  0
   -5.0037   -2.8783   -0.3708 H   0  0  0  0  0  0  0  0  0  0  0  0
   -3.1211   -1.9613   -1.6688 H   0  0  0  0  0  0  0  0  0  0  0  0
   -4.2498   -0.6910   -1.2206 H   0  0  0  0  0  0  0  0  0  0  0  0
   -2.7828    0.0330    0.6683 H   0  0  0  0  0  0  0  0  0  0  0  0
   -1.6865   -1.2897    0.3624 H   0  0  0  0  0  0  0  0  0  0  0  0
    1.8231   -2.6087   -3.2574 H   0  0  0  0  0  0  0  0  0  0  0  0
    1.1539   -1.1171   -3.9478 H   0  0  0  0  0  0  0  0  0  0  0  0
    3.7633    0.7914   -0.8590 H   0  0  0  0  0  0  0  0  0  0  0  0
    2.0760    0.8949    0.9161 H   0  0  0  0  0  0  0  0  0  0  0  0
    2.5828   -0.6488    1.5638 H   0  0  0  0  0  0  0  0  0  0  0  0
    3.5547    1.1519    2.9193 H   0  0  0  0  0  0  0  0  0  0  0  0
    4.2342    1.9271    1.4898 H   0  0  0  0  0  0  0  0  0  0  0  0
    6.0025    0.6875    2.6487 H   0  0  0  0  0  0  0  0  0  0  0  0
    5.0308   -0.7834    2.6589 H   0  0  0  0  0  0  0  0  0  0  0  0
    6.6992   -0.9304    0.8738 H   0  0  0  0  0  0  0  0  0  0  0  0
    6.1978    0.6213    0.2068 H   0  0  0  0  0  0  0  0  0  0  0  0
    5.2303   -1.2077   -1.1239 H   0  0  0  0  0  0  0  0  0  0  0  0
    4.5356   -1.9485    0.2977 H   0  0  0  0  0  0  0  0  0  0  0  0
   -1.2381    4.1153   -0.0457 H   0  0  0  0  0  0  0  0  0  0  0  0
   -3.3335    5.4514    0.8810 H   0  0  0  0  0  0  0  0  0  0  0  0
   -5.5588    4.0823    0.5085 H   0  0  0  0  0  0  0  0  0  0  0  0
  1  2  1  0
  2  3  1  0
  3  4  1  0
  4  5  1  0
  5  6  1  0
  6  7  1  0
  7  8  1  0
  8  9  1  0
  9 10  1  0
 10 11  2  0
 10 12  1  0
 12 13  1  0
 13 14  1  0
 14 15  1  0
 15 16  1  0
 16 17  1  0
 17 18  1  0
  7 19  2  0
 19 20  1  0
 20 21  2  0
 21 22  1  0
 22 23  2  0
 23 24  1  0
 24 25  2  0
 25 26  1  0
 21  6  1  0
 26 22  1  0
 18 13  1  0
  1 27  1  0
  1 28  1  0
  1 29  1  0
  3 30  1  0
  3 31  1  0
  4 32  1  0
  4 33  1  0
  5 34  1  0
  5 35  1  0
  9 36  1  0
  9 37  1  0
 13 38  1  0
 14 39  1  0
 14 40  1  0
 15 41  1  0
 15 42  1  0
 16 43  1  0
 16 44  1  0
 17 45  1  0
 17 46  1  0
 18 47  1  0
 18 48  1  0
 23 49  1  0
 24 50  1  0
 25 51  1  0
M  END
$$$$
