
     RDKit          3D

 51 53  0  0  0  0  0  0  0  0999 V2000
   -5.1502    0.8426    0.8087 O   0  0  0  0  0  0  0  0  0  0  0  0
   -5.4775   -0.3400    0.7607 C   0  0  0  0  0  0  0  0  0  0  0  0
   -4.5588   -1.4471    1.2962 C   0  0  0  0  0  0  0  0  0  0  0  0
   -3.1968   -1.0355    1.4019 O   0  0  0  0  0  0  0  0  0  0  0  0
   -2.5646   -0.9211    0.2006 C   0  0  0  0  0  0  0  0  0  0  0  0
   -3.0474   -1.2433   -0.8758 O   0  0  0  0  0  0  0  0  0  0  0  0
   -1.1884   -0.3481    0.4022 C   0  0  0  0  0  0  0  0  0  0  0  0
   -0.4351   -0.2933   -0.9233 C   0  0  0  0  0  0  0  0  0  0  0  0
    0.9246    0.2289   -0.7558 N   0  0  0  0  0  0  0  0  0  0  0  0
    1.9229   -0.6456   -0.3608 C   0  0  0  0  0  0  0  0  0  0  0  0
    1.7766   -1.8364   -0.1197 O   0  0  0  0  0  0  0  0  0  0  0  0
    3.2207    0.0700   -0.2395 C   0  0  0  0  0  0  0  0  0  0  0  0
    4.3471   -0.5669    0.1099 C   0  0  0  0  0  0  0  0  0  0  0  0
    5.6618    0.0259    0.2611 C   0  0  0  0  0  0  0  0  0  0  0  0
    6.7397   -0.6877    0.6238 C   0  0  0  0  0  0  0  0  0  0  0  0
    8.0802   -0.1084    0.7906 C   0  0  0  0  0  0  0  0  0  0  0  0
    8.8828   -0.5489    1.8505 C   0  0  0  0  0  0  0  0  0  0  0  0
   10.1717   -0.0390    2.0263 C   0  0  0  0  0  0  0  0  0  0  0  0
   10.6751    0.9074    1.1363 C   0  0  0  0  0  0  0  0  0  0  0  0
    9.8925    1.3410    0.0684 C   0  0  0  0  0  0  0  0  0  0  0  0
    8.6029    0.8323   -0.1068 C   0  0  0  0  0  0  0  0  0  0  0  0
    3.0100    1.7357   -0.5979 S   0  0  0  0  0  0  0  0  0  0  0  0
    1.2865    1.5520   -0.9020 C   0  0  0  0  0  0  0  0  0  0  0  0
    0.3155    2.8484   -1.2973 S   0  0  0  0  0  0  0  0  0  0  0  0
   -6.6704   -0.8337    0.2627 N   0  0  0  0  0  0  0  0  0  0  0  0
   -7.7442   -0.0966   -0.2856 C   0  0  0  0  0  0  0  0  0  0  0  0
   -7.7826    1.2936   -0.3835 C   0  0  0  0  0  0  0  0  0  0  0  0
   -8.9007    1.9140   -0.9419 C   0  0  0  0  0  0  0  0  0  0  0  0
   -8.9332    3.2500   -1.0342 F   0  0  0  0  0  0  0  0  0  0  0  0
   -9.9871    1.1771   -1.4060 C   0  0  0  0  0  0  0  0  0  0  0  0
   -9.9588   -0.2110   -1.3147 C   0  0  0  0  0  0  0  0  0  0  0  0
   -8.8430   -0.8319   -0.7577 C   0  0  0  0  0  0  0  0  0  0  0  0
   -8.8243   -2.1718   -0.6689 F   0  0  0  0  0  0  0  0  0  0  0  0
   -4.6384   -2.3555    0.6875 H   0  0  0  0  0  0  0  0  0  0  0  0
   -4.9031   -1.6974    2.3054 H   0  0  0  0  0  0  0  0  0  0  0  0
   -1.2867    0.6566    0.8271 H   0  0  0  0  0  0  0  0  0  0  0  0
   -0.6497   -0.9797    1.1171 H   0  0  0  0  0  0  0  0  0  0  0  0
   -0.3657   -1.3015   -1.3514 H   0  0  0  0  0  0  0  0  0  0  0  0
   -0.9810    0.3158   -1.6514 H   0  0  0  0  0  0  0  0  0  0  0  0
    4.2880   -1.6390    0.3032 H   0  0  0  0  0  0  0  0  0  0  0  0
    5.7596    1.0947    0.0821 H   0  0  0  0  0  0  0  0  0  0  0  0
    6.6602   -1.7514    0.8364 H   0  0  0  0  0  0  0  0  0  0  0  0
    8.5074   -1.2866    2.5561 H   0  0  0  0  0  0  0  0  0  0  0  0
   10.7818   -0.3813    2.8577 H   0  0  0  0  0  0  0  0  0  0  0  0
   11.6781    1.3034    1.2723 H   0  0  0  0  0  0  0  0  0  0  0  0
   10.2866    2.0715   -0.6330 H   0  0  0  0  0  0  0  0  0  0  0  0
    8.0176    1.1711   -0.9578 H   0  0  0  0  0  0  0  0  0  0  0  0
   -6.7969   -1.8415    0.2435 H   0  0  0  0  0  0  0  0  0  0  0  0
   -6.9722    1.9268   -0.0412 H   0  0  0  0  0  0  0  0  0  0  0  0
  -10.8412    1.6916   -1.8356 H   0  0  0  0  0  0  0  0  0  0  0  0
  -10.7918   -0.8101   -1.6682 H   0  0  0  0  0  0  0  0  0  0  0  0
  1  2  2  0
  2  3  1  0
  3  4  1  0
  4  5  1  0
  5  6  2  0
  5  7  1  0
  7  8  1  0
  8  9  1  0
  9 10  1  0
 10 11  2  0
 10 12  1  0
 12 13  2  3
 13 14  1  0
 14 15  2  3
 15 16  1  0
 16 17  2  0
 17 18  1  0
 18 19  2  0
 19 20  1  0
 20 21  2  0
 12 22  1  0
 22 23  1  0
 23 24  2  0
  2 25  1  0
 25 26  1  0
 26 27  2  0
 27 28  1  0
 28 29  1  0
 28 30  2  0
 30 31  1  0
 31 32  2  0
 32 33  1  0
 23  9  1  0
 32 26  1  0
 21 16  1  0
  3 34  1  0
  3 35  1  0
  7 36  1  0
  7 37  1  0
  8 38  1  0
  8 39  1  0
 13 40  1  0
 14 41  1  0
 15 42  1  0
 17 43  1  0
 18 44  1  0
 19 45  1  0
 20 46  1  0
 21 47  1  0
 25 48  1  0
 27 49  1  0
 30 50  1  0
 31 51  1  0
M  END
$$$$
