
     RDKit          3D

 55 57  0  0  0  0  0  0  0  0999 V2000
    1.3077   -0.5050   -4.4252 N   0  0  0  0  0  0  0  0  0  0  0  0
    1.9928   -0.6239   -3.2747 C   0  0  0  0  0  0  0  0  0  0  0  0
    3.2403   -0.9762   -3.2296 N   0  0  0  0  0  0  0  0  0  0  0  0
    3.5509   -1.0121   -1.7772 C   0  0  0  0  0  0  0  0  0  0  0  0
    2.3134   -0.4758   -1.0245 C   0  0  0  0  0  0  0  0  0  0  0  0
    2.5717    0.8800   -0.3522 C   0  0  0  0  0  0  0  0  0  0  0  0
    3.5686    0.8157    0.7829 C   0  0  0  0  0  0  0  0  0  0  0  0
    3.2678    0.1263    1.9654 C   0  0  0  0  0  0  0  0  0  0  0  0
    4.2048    0.0488    2.9969 C   0  0  0  0  0  0  0  0  0  0  0  0
    5.4387    0.6758    2.8588 C   0  0  0  0  0  0  0  0  0  0  0  0
    6.3215    0.5775    3.8927 O   0  0  0  0  0  0  0  0  0  0  0  0
    5.7532    1.3772    1.7007 C   0  0  0  0  0  0  0  0  0  0  0  0
    4.8176    1.4466    0.6647 C   0  0  0  0  0  0  0  0  0  0  0  0
    1.3519   -0.3222   -2.1164 N   0  0  0  0  0  0  0  0  0  0  0  0
   -0.0531   -0.6254   -1.8707 C   0  0  0  0  0  0  0  0  0  0  0  0
   -0.8299    0.6655   -1.6111 C   0  0  0  0  0  0  0  0  0  0  0  0
   -2.3442    0.5034   -1.7547 C   0  0  0  0  0  0  0  0  0  0  0  0
   -2.9853   -0.5681   -0.8688 C   0  0  0  0  0  0  0  0  0  0  0  0
   -2.8164   -0.3693    0.6541 C   0  0  0  0  0  0  0  0  0  0  0  0
   -3.4198    0.9454    1.1760 C   0  0  0  0  0  0  0  0  0  0  0  0
   -4.9449    0.9539    1.1422 C   0  0  0  0  0  0  0  0  0  0  0  0
   -5.5304   -0.2406    1.8941 C   0  0  0  0  0  0  0  0  0  0  0  0
   -4.9496   -1.5669    1.4109 C   0  0  0  0  0  0  0  0  0  0  0  0
   -3.4212   -1.5561    1.4284 C   0  0  0  0  0  0  0  0  0  0  0  0
    0.7296    0.3238   -4.4602 H   0  0  0  0  0  0  0  0  0  0  0  0
    1.9360   -0.5588   -5.2200 H   0  0  0  0  0  0  0  0  0  0  0  0
    4.4576   -0.4324   -1.5934 H   0  0  0  0  0  0  0  0  0  0  0  0
    3.7466   -2.0499   -1.4885 H   0  0  0  0  0  0  0  0  0  0  0  0
    1.9809   -1.2212   -0.2924 H   0  0  0  0  0  0  0  0  0  0  0  0
    2.9008    1.6143   -1.0999 H   0  0  0  0  0  0  0  0  0  0  0  0
    1.6350    1.2805    0.0525 H   0  0  0  0  0  0  0  0  0  0  0  0
    2.3036   -0.3548    2.0960 H   0  0  0  0  0  0  0  0  0  0  0  0
    3.9725   -0.4925    3.9097 H   0  0  0  0  0  0  0  0  0  0  0  0
    7.0839    1.1505    3.7086 H   0  0  0  0  0  0  0  0  0  0  0  0
    6.7114    1.8662    1.5836 H   0  0  0  0  0  0  0  0  0  0  0  0
    5.0731    1.9914   -0.2419 H   0  0  0  0  0  0  0  0  0  0  0  0
   -0.4886   -1.1515   -2.7265 H   0  0  0  0  0  0  0  0  0  0  0  0
   -0.1551   -1.3074   -1.0148 H   0  0  0  0  0  0  0  0  0  0  0  0
   -0.5902    1.0506   -0.6147 H   0  0  0  0  0  0  0  0  0  0  0  0
   -0.5054    1.4392   -2.3203 H   0  0  0  0  0  0  0  0  0  0  0  0
   -2.5711    0.2549   -2.8003 H   0  0  0  0  0  0  0  0  0  0  0  0
   -2.8201    1.4726   -1.5741 H   0  0  0  0  0  0  0  0  0  0  0  0
   -4.0506   -0.6134   -1.1291 H   0  0  0  0  0  0  0  0  0  0  0  0
   -2.5732   -1.5467   -1.1449 H   0  0  0  0  0  0  0  0  0  0  0  0
   -1.7422   -0.3554    0.8763 H   0  0  0  0  0  0  0  0  0  0  0  0
   -3.0330    1.8064    0.6239 H   0  0  0  0  0  0  0  0  0  0  0  0
   -3.0953    1.0867    2.2129 H   0  0  0  0  0  0  0  0  0  0  0  0
   -5.3103    1.8822    1.5935 H   0  0  0  0  0  0  0  0  0  0  0  0
   -5.2987    0.9494    0.1047 H   0  0  0  0  0  0  0  0  0  0  0  0
   -6.6216   -0.2532    1.7788 H   0  0  0  0  0  0  0  0  0  0  0  0
   -5.3293   -0.1280    2.9667 H   0  0  0  0  0  0  0  0  0  0  0  0
   -5.3167   -2.3791    2.0504 H   0  0  0  0  0  0  0  0  0  0  0  0
   -5.3116   -1.7810    0.3977 H   0  0  0  0  0  0  0  0  0  0  0  0
   -3.0408   -2.5020    1.0294 H   0  0  0  0  0  0  0  0  0  0  0  0
   -3.0832   -1.5037    2.4736 H   0  0  0  0  0  0  0  0  0  0  0  0
  1  2  1  0
  2  3  2  0
  3  4  1  0
  4  5  1  0
  5  6  1  0
  6  7  1  0
  7  8  2  0
  8  9  1  0
  9 10  2  0
 10 11  1  0
 10 12  1  0
 12 13  2  0
  5 14  1  0
 14 15  1  0
 15 16  1  0
 16 17  1  0
 17 18  1  0
 18 19  1  0
 19 20  1  0
 20 21  1  0
 21 22  1  0
 22 23  1  0
 23 24  1  0
 14  2  1  0
 24 19  1  0
 13  7  1  0
  1 25  1  0
  1 26  1  0
  4 27  1  0
  4 28  1  0
  5 29  1  0
  6 30  1  0
  6 31  1  0
  8 32  1  0
  9 33  1  0
 11 34  1  0
 12 35  1  0
 13 36  1  0
 15 37  1  0
 15 38  1  0
 16 39  1  0
 16 40  1  0
 17 41  1  0
 17 42  1  0
 18 43  1  0
 18 44  1  0
 19 45  1  0
 20 46  1  0
 20 47  1  0
 21 48  1  0
 21 49  1  0
 22 50  1  0
 22 51  1  0
 23 52  1  0
 23 53  1  0
 24 54  1  0
 24 55  1  0
M  END
$$$$
