
     RDKit          3D

 46 50  0  0  0  0  0  0  0  0999 V2000
    0.2594    2.0216   -1.3694 O   0  0  0  0  0  0  0  0  0  0  0  0
   -0.5996    1.4627   -0.6912 C   0  0  0  0  0  0  0  0  0  0  0  0
   -1.9606    2.0101   -0.6650 C   0  0  0  0  0  0  0  0  0  0  0  0
   -2.2119    3.3134   -1.1074 C   0  0  0  0  0  0  0  0  0  0  0  0
   -3.5096    3.8133   -1.0465 C   0  0  0  0  0  0  0  0  0  0  0  0
   -3.8366    5.4148   -1.5812 Cl  0  0  0  0  0  0  0  0  0  0  0  0
   -4.5474    3.0247   -0.5509 C   0  0  0  0  0  0  0  0  0  0  0  0
   -4.2850    1.7214   -0.1214 C   0  0  0  0  0  0  0  0  0  0  0  0
   -2.9895    1.2078   -0.1902 C   0  0  0  0  0  0  0  0  0  0  0  0
   -2.8325   -0.0785    0.2267 O   0  0  0  0  0  0  0  0  0  0  0  0
   -1.5705   -0.7569   -0.0715 C   0  0  0  0  0  0  0  0  0  0  0  0
   -1.6581   -1.2882   -1.5301 C   0  0  0  0  0  0  0  0  0  0  0  0
   -1.6626   -2.8118   -1.6189 C   0  0  0  0  0  0  0  0  0  0  0  0
   -0.5529   -3.3364   -0.8374 N   0  0  0  0  0  0  0  0  0  0  0  0
   -0.7497   -3.1429    0.5972 C   0  0  0  0  0  0  0  0  0  0  0  0
   -1.6108   -1.9323    0.9431 C   0  0  0  0  0  0  0  0  0  0  0  0
   -0.3623    0.2050    0.1449 C   0  0  0  0  0  0  0  0  0  0  0  0
    1.0235   -0.3551   -0.1325 C   0  0  0  0  0  0  0  0  0  0  0  0
    1.7696    0.3159    0.9707 C   0  0  0  0  0  0  0  0  0  0  0  0
    3.2506    0.3434    1.0147 C   0  0  0  0  0  0  0  0  0  0  0  0
    3.8855    1.0736    2.0273 C   0  0  0  0  0  0  0  0  0  0  0  0
    5.2793    1.1152    2.0976 C   0  0  0  0  0  0  0  0  0  0  0  0
    6.0450    0.4266    1.1586 C   0  0  0  0  0  0  0  0  0  0  0  0
    5.4192   -0.3044    0.1496 C   0  0  0  0  0  0  0  0  0  0  0  0
    4.0242   -0.3485    0.0758 C   0  0  0  0  0  0  0  0  0  0  0  0
    1.0235    0.8338    1.8946 N   0  0  0  0  0  0  0  0  0  0  0  0
   -0.3220    0.6265    1.5212 O   0  0  0  0  0  0  0  0  0  0  0  0
   -1.3998    3.9314   -1.4832 H   0  0  0  0  0  0  0  0  0  0  0  0
   -5.5601    3.4163   -0.4971 H   0  0  0  0  0  0  0  0  0  0  0  0
   -5.0944    1.1044    0.2619 H   0  0  0  0  0  0  0  0  0  0  0  0
   -0.8095   -0.9201   -2.1206 H   0  0  0  0  0  0  0  0  0  0  0  0
   -2.5582   -0.9144   -2.0333 H   0  0  0  0  0  0  0  0  0  0  0  0
   -2.6198   -3.2316   -1.2867 H   0  0  0  0  0  0  0  0  0  0  0  0
   -1.5362   -3.1056   -2.6670 H   0  0  0  0  0  0  0  0  0  0  0  0
   -0.4282   -4.3321   -1.0283 H   0  0  0  0  0  0  0  0  0  0  0  0
   -1.2262   -4.0368    1.0193 H   0  0  0  0  0  0  0  0  0  0  0  0
    0.2272   -3.0712    1.0859 H   0  0  0  0  0  0  0  0  0  0  0  0
   -1.3771   -1.5878    1.9578 H   0  0  0  0  0  0  0  0  0  0  0  0
   -2.6515   -2.2849    1.0160 H   0  0  0  0  0  0  0  0  0  0  0  0
    1.1164   -1.4264    0.0256 H   0  0  0  0  0  0  0  0  0  0  0  0
    1.4185   -0.1091   -1.1208 H   0  0  0  0  0  0  0  0  0  0  0  0
    3.2992    1.6172    2.7656 H   0  0  0  0  0  0  0  0  0  0  0  0
    5.7649    1.6865    2.8847 H   0  0  0  0  0  0  0  0  0  0  0  0
    7.1303    0.4606    1.2130 H   0  0  0  0  0  0  0  0  0  0  0  0
    6.0189   -0.8408   -0.5818 H   0  0  0  0  0  0  0  0  0  0  0  0
    3.5677   -0.9302   -0.7193 H   0  0  0  0  0  0  0  0  0  0  0  0
  1  2  2  0
  2  3  1  0
  3  4  2  0
  4  5  1  0
  5  6  1  0
  5  7  2  0
  7  8  1  0
  8  9  2  0
  9 10  1  0
 10 11  1  0
 11 12  1  0
 12 13  1  0
 13 14  1  0
 14 15  1  0
 15 16  1  0
 11 17  1  0
 17 18  1  0
 18 19  1  0
 19 20  1  0
 20 21  2  0
 21 22  1  0
 22 23  2  0
 23 24  1  0
 24 25  2  0
 19 26  2  0
 26 27  1  0
 17  2  1  0
 25 20  1  0
  9  3  1  0
 16 11  1  0
 27 17  1  0
  4 28  1  0
  7 29  1  0
  8 30  1  0
 12 31  1  0
 12 32  1  0
 13 33  1  0
 13 34  1  0
 14 35  1  0
 15 36  1  0
 15 37  1  0
 16 38  1  0
 16 39  1  0
 18 40  1  0
 18 41  1  0
 21 42  1  0
 22 43  1  0
 23 44  1  0
 24 45  1  0
 25 46  1  0
M  END
$$$$
