
     RDKit          3D

 46 48  0  0  0  0  0  0  0  0999 V2000
   -0.7768   -3.7274    1.1521 O   0  0  0  0  0  0  0  0  0  0  0  0
   -0.0180   -2.8164    0.8335 C   0  0  0  0  0  0  0  0  0  0  0  0
    1.4871   -3.0086    0.9241 C   0  0  0  0  0  0  0  0  0  0  0  0
    2.1969   -1.8496    1.6300 C   0  0  0  0  0  0  0  0  0  0  0  0
    2.3474   -0.6550    0.7603 N   0  0  0  0  0  0  0  0  0  0  0  0
    3.4950   -0.8054   -0.1539 C   0  0  0  0  0  0  0  0  0  0  0  0
    3.4876    0.1476   -1.3665 C   0  0  0  0  0  0  0  0  0  0  0  0
    2.2635    1.0555   -1.4802 C   0  0  0  0  0  0  0  0  0  0  0  0
    2.1795    2.1431   -0.4055 C   0  0  0  0  0  0  0  0  0  0  0  0
    2.9038    1.8379    0.9029 C   0  0  0  0  0  0  0  0  0  0  0  0
    2.4642    0.5506    1.6055 C   0  0  0  0  0  0  0  0  0  0  0  0
   -0.3787   -1.5815    0.3318 N   0  0  0  0  0  0  0  0  0  0  0  0
   -1.6748   -1.0769    0.1134 C   0  0  0  0  0  0  0  0  0  0  0  0
   -2.8441   -1.8156    0.3129 C   0  0  0  0  0  0  0  0  0  0  0  0
   -4.0987   -1.2380    0.0849 C   0  0  0  0  0  0  0  0  0  0  0  0
   -4.1908    0.0824   -0.3418 C   0  0  0  0  0  0  0  0  0  0  0  0
   -3.0272    0.8185   -0.5729 C   0  0  0  0  0  0  0  0  0  0  0  0
   -1.7774    0.2468   -0.3325 C   0  0  0  0  0  0  0  0  0  0  0  0
   -3.0340    2.1136   -1.0276 O   0  0  0  0  0  0  0  0  0  0  0  0
   -4.3170    2.4743   -1.5523 C   0  0  0  0  0  0  0  0  0  0  0  0
   -5.4278    2.0185   -0.6200 C   0  0  0  0  0  0  0  0  0  0  0  0
   -5.4515    0.5901   -0.5220 O   0  0  0  0  0  0  0  0  0  0  0  0
    1.6602   -3.9193    1.5110 H   0  0  0  0  0  0  0  0  0  0  0  0
    1.8748   -3.1997   -0.0812 H   0  0  0  0  0  0  0  0  0  0  0  0
    3.1796   -2.1775    1.9937 H   0  0  0  0  0  0  0  0  0  0  0  0
    1.6049   -1.5919    2.5192 H   0  0  0  0  0  0  0  0  0  0  0  0
    4.4431   -0.7050    0.3911 H   0  0  0  0  0  0  0  0  0  0  0  0
    3.5094   -1.8212   -0.5678 H   0  0  0  0  0  0  0  0  0  0  0  0
    4.3972    0.7604   -1.3555 H   0  0  0  0  0  0  0  0  0  0  0  0
    3.5478   -0.4598   -2.2785 H   0  0  0  0  0  0  0  0  0  0  0  0
    1.3529    0.4465   -1.4673 H   0  0  0  0  0  0  0  0  0  0  0  0
    2.2705    1.5435   -2.4633 H   0  0  0  0  0  0  0  0  0  0  0  0
    1.1255    2.3705   -0.2048 H   0  0  0  0  0  0  0  0  0  0  0  0
    2.6123    3.0651   -0.8152 H   0  0  0  0  0  0  0  0  0  0  0  0
    2.7450    2.6779    1.5904 H   0  0  0  0  0  0  0  0  0  0  0  0
    3.9862    1.8098    0.7255 H   0  0  0  0  0  0  0  0  0  0  0  0
    1.4834    0.7354    2.0630 H   0  0  0  0  0  0  0  0  0  0  0  0
    3.1685    0.3698    2.4289 H   0  0  0  0  0  0  0  0  0  0  0  0
    0.3981   -0.9401    0.1632 H   0  0  0  0  0  0  0  0  0  0  0  0
   -2.8159   -2.8473    0.6503 H   0  0  0  0  0  0  0  0  0  0  0  0
   -5.0008   -1.8208    0.2533 H   0  0  0  0  0  0  0  0  0  0  0  0
   -0.8888    0.8463   -0.5062 H   0  0  0  0  0  0  0  0  0  0  0  0
   -4.3362    3.5634   -1.6583 H   0  0  0  0  0  0  0  0  0  0  0  0
   -4.4223    2.0318   -2.5505 H   0  0  0  0  0  0  0  0  0  0  0  0
   -6.4003    2.3412   -1.0041 H   0  0  0  0  0  0  0  0  0  0  0  0
   -5.3032    2.4357    0.3870 H   0  0  0  0  0  0  0  0  0  0  0  0
  1  2  2  0
  2  3  1  0
  3  4  1  0
  4  5  1  0
  5  6  1  0
  6  7  1  0
  7  8  1  0
  8  9  1  0
  9 10  1  0
 10 11  1  0
  2 12  1  0
 12 13  1  0
 13 14  2  0
 14 15  1  0
 15 16  2  0
 16 17  1  0
 17 18  2  0
 17 19  1  0
 19 20  1  0
 20 21  1  0
 21 22  1  0
 11  5  1  0
 18 13  1  0
 22 16  1  0
  3 23  1  0
  3 24  1  0
  4 25  1  0
  4 26  1  0
  6 27  1  0
  6 28  1  0
  7 29  1  0
  7 30  1  0
  8 31  1  0
  8 32  1  0
  9 33  1  0
  9 34  1  0
 10 35  1  0
 10 36  1  0
 11 37  1  0
 11 38  1  0
 12 39  1  0
 14 40  1  0
 15 41  1  0
 18 42  1  0
 20 43  1  0
 20 44  1  0
 21 45  1  0
 21 46  1  0
M  END
$$$$
