
     RDKit          3D

 67 69  0  0  0  0  0  0  0  0999 V2000
   -0.4478    1.5823    2.2798 C   0  0  0  0  0  0  0  0  0  0  0  0
   -0.5972    1.1266    0.8331 C   0  0  0  0  0  0  0  0  0  0  0  0
   -1.9938    0.7968    0.5532 N   0  0  0  0  0  0  0  0  0  0  0  0
   -2.9170    1.7544    0.2084 C   0  0  0  0  0  0  0  0  0  0  0  0
   -2.6443    2.9484    0.1440 O   0  0  0  0  0  0  0  0  0  0  0  0
   -4.2866    1.2728   -0.1249 C   0  0  0  0  0  0  0  0  0  0  0  0
   -5.0916    2.0711   -0.9394 C   0  0  0  0  0  0  0  0  0  0  0  0
   -6.3842    1.6577   -1.2787 C   0  0  0  0  0  0  0  0  0  0  0  0
   -6.9157    0.4413   -0.8078 C   0  0  0  0  0  0  0  0  0  0  0  0
   -8.3426    0.0193   -1.2020 C   0  0  0  0  0  0  0  0  0  0  0  0
   -8.7859   -1.3301   -0.5928 C   0  0  0  0  0  0  0  0  0  0  0  0
   -9.3517    1.0867   -0.7262 C   0  0  0  0  0  0  0  0  0  0  0  0
   -8.4358   -0.1201   -2.7367 C   0  0  0  0  0  0  0  0  0  0  0  0
   -6.0953   -0.3403    0.0230 C   0  0  0  0  0  0  0  0  0  0  0  0
   -4.7987    0.0688    0.3648 C   0  0  0  0  0  0  0  0  0  0  0  0
    0.2351   -0.1477    0.5638 C   0  0  0  0  0  0  0  0  0  0  0  0
   -0.3296   -1.2495    0.5590 O   0  0  0  0  0  0  0  0  0  0  0  0
    1.6014   -0.0307    0.3382 N   0  0  0  0  0  0  0  0  0  0  0  0
    2.3847    1.1935    0.5428 C   0  0  0  0  0  0  0  0  0  0  0  0
    3.6319    1.2655   -0.3628 C   0  0  0  0  0  0  0  0  0  0  0  0
    4.4721    0.0514   -0.3736 N   0  0  0  0  0  0  0  0  0  0  0  0
    5.2211   -0.1581    0.8728 C   0  0  0  0  0  0  0  0  0  0  0  0
    6.3709    0.8027    1.0027 C   0  0  0  0  0  0  0  0  0  0  0  0
    7.6807    0.5366    0.8621 C   0  0  0  0  0  0  0  0  0  0  0  0
    8.2563   -0.7540    0.4743 C   0  0  0  0  0  0  0  0  0  0  0  0
    7.9268   -1.3564   -0.7460 C   0  0  0  0  0  0  0  0  0  0  0  0
    8.5006   -2.5756   -1.1101 C   0  0  0  0  0  0  0  0  0  0  0  0
    9.4150   -3.1961   -0.2608 C   0  0  0  0  0  0  0  0  0  0  0  0
    9.7573   -2.5973    0.9508 C   0  0  0  0  0  0  0  0  0  0  0  0
    9.1837   -1.3770    1.3154 C   0  0  0  0  0  0  0  0  0  0  0  0
    3.6130   -1.1114   -0.6824 C   0  0  0  0  0  0  0  0  0  0  0  0
    2.3858   -1.2653    0.2339 C   0  0  0  0  0  0  0  0  0  0  0  0
    0.5855    1.8400    2.5257 H   0  0  0  0  0  0  0  0  0  0  0  0
   -1.0686    2.4616    2.4816 H   0  0  0  0  0  0  0  0  0  0  0  0
   -0.7609    0.7923    2.9724 H   0  0  0  0  0  0  0  0  0  0  0  0
   -0.3028    1.9165    0.1361 H   0  0  0  0  0  0  0  0  0  0  0  0
   -2.1953   -0.1914    0.4371 H   0  0  0  0  0  0  0  0  0  0  0  0
   -4.7155    3.0195   -1.3181 H   0  0  0  0  0  0  0  0  0  0  0  0
   -6.9742    2.3085   -1.9210 H   0  0  0  0  0  0  0  0  0  0  0  0
   -8.7804   -1.2995    0.5032 H   0  0  0  0  0  0  0  0  0  0  0  0
   -9.8063   -1.5870   -0.9025 H   0  0  0  0  0  0  0  0  0  0  0  0
   -8.1356   -2.1519   -0.9151 H   0  0  0  0  0  0  0  0  0  0  0  0
  -10.3806    0.7901   -0.9608 H   0  0  0  0  0  0  0  0  0  0  0  0
   -9.2863    1.2354    0.3581 H   0  0  0  0  0  0  0  0  0  0  0  0
   -9.1831    2.0584   -1.2026 H   0  0  0  0  0  0  0  0  0  0  0  0
   -7.7156   -0.8583   -3.1098 H   0  0  0  0  0  0  0  0  0  0  0  0
   -9.4368   -0.4458   -3.0442 H   0  0  0  0  0  0  0  0  0  0  0  0
   -8.2344    0.8255   -3.2523 H   0  0  0  0  0  0  0  0  0  0  0  0
   -6.4423   -1.2850    0.4334 H   0  0  0  0  0  0  0  0  0  0  0  0
   -4.2186   -0.5599    1.0341 H   0  0  0  0  0  0  0  0  0  0  0  0
    2.6800    1.2123    1.5977 H   0  0  0  0  0  0  0  0  0  0  0  0
    1.7719    2.0789    0.3612 H   0  0  0  0  0  0  0  0  0  0  0  0
    3.2935    1.4386   -1.3935 H   0  0  0  0  0  0  0  0  0  0  0  0
    4.2225    2.1513   -0.1040 H   0  0  0  0  0  0  0  0  0  0  0  0
    4.5829   -0.0616    1.7591 H   0  0  0  0  0  0  0  0  0  0  0  0
    5.6041   -1.1848    0.9060 H   0  0  0  0  0  0  0  0  0  0  0  0
    6.1007    1.8181    1.2828 H   0  0  0  0  0  0  0  0  0  0  0  0
    8.4064    1.3289    1.0315 H   0  0  0  0  0  0  0  0  0  0  0  0
    7.2181   -0.8779   -1.4194 H   0  0  0  0  0  0  0  0  0  0  0  0
    8.2357   -3.0366   -2.0578 H   0  0  0  0  0  0  0  0  0  0  0  0
    9.8624   -4.1448   -0.5452 H   0  0  0  0  0  0  0  0  0  0  0  0
   10.4724   -3.0789    1.6119 H   0  0  0  0  0  0  0  0  0  0  0  0
    9.4610   -0.9209    2.2622 H   0  0  0  0  0  0  0  0  0  0  0  0
    4.2030   -2.0359   -0.6714 H   0  0  0  0  0  0  0  0  0  0  0  0
    3.2623   -1.0018   -1.7173 H   0  0  0  0  0  0  0  0  0  0  0  0
    2.6945   -1.5371    1.2502 H   0  0  0  0  0  0  0  0  0  0  0  0
    1.7624   -2.0829   -0.1438 H   0  0  0  0  0  0  0  0  0  0  0  0
  1  2  1  0
  2  3  1  0
  3  4  1  0
  4  5  2  0
  4  6  1  0
  6  7  2  0
  7  8  1  0
  8  9  2  0
  9 10  1  0
 10 11  1  0
 10 12  1  0
 10 13  1  0
  9 14  1  0
 14 15  2  0
  2 16  1  0
 16 17  2  0
 16 18  1  0
 18 19  1  0
 19 20  1  0
 20 21  1  0
 21 22  1  0
 22 23  1  0
 23 24  2  3
 24 25  1  0
 25 26  2  0
 26 27  1  0
 27 28  2  0
 28 29  1  0
 29 30  2  0
 21 31  1  0
 31 32  1  0
 15  6  1  0
 32 18  1  0
 30 25  1  0
  1 33  1  0
  1 34  1  0
  1 35  1  0
  2 36  1  0
  3 37  1  0
  7 38  1  0
  8 39  1  0
 11 40  1  0
 11 41  1  0
 11 42  1  0
 12 43  1  0
 12 44  1  0
 12 45  1  0
 13 46  1  0
 13 47  1  0
 13 48  1  0
 14 49  1  0
 15 50  1  0
 19 51  1  0
 19 52  1  0
 20 53  1  0
 20 54  1  0
 22 55  1  0
 22 56  1  0
 23 57  1  0
 24 58  1  0
 26 59  1  0
 27 60  1  0
 28 61  1  0
 29 62  1  0
 30 63  1  0
 31 64  1  0
 31 65  1  0
 32 66  1  0
 32 67  1  0
M  END
$$$$
