
     RDKit          3D

 58 62  0  0  0  0  0  0  0  0999 V2000
   -5.1082    2.9993   -3.4535 C   0  0  0  0  0  0  0  0  0  0  0  0
   -4.3009    1.8302   -3.3891 O   0  0  0  0  0  0  0  0  0  0  0  0
   -3.5302    1.6711   -2.2709 C   0  0  0  0  0  0  0  0  0  0  0  0
   -3.4916    2.5298   -1.1717 C   0  0  0  0  0  0  0  0  0  0  0  0
   -2.6544    2.2452   -0.0867 C   0  0  0  0  0  0  0  0  0  0  0  0
   -1.8595    1.0928   -0.0883 C   0  0  0  0  0  0  0  0  0  0  0  0
   -0.9643    0.8248    1.0745 C   0  0  0  0  0  0  0  0  0  0  0  0
   -0.4287    1.8311    1.6785 N   0  0  0  0  0  0  0  0  0  0  0  0
    0.5289    1.5668    2.7475 C   0  0  0  0  0  0  0  0  0  0  0  0
    1.8071    0.9852    2.1473 C   0  0  0  0  0  0  0  0  0  0  0  0
    2.8073    1.6916    1.9817 O   0  0  0  0  0  0  0  0  0  0  0  0
    1.8073   -0.3742    1.8230 N   0  0  0  0  0  0  0  0  0  0  0  0
    3.1120   -0.9705    1.4978 C   0  0  0  0  0  0  0  0  0  0  0  0
    3.3948   -0.9201   -0.0056 C   0  0  0  0  0  0  0  0  0  0  0  0
    3.7996   -1.9029   -0.6243 O   0  0  0  0  0  0  0  0  0  0  0  0
    3.2567    0.3253   -0.5798 N   0  0  0  0  0  0  0  0  0  0  0  0
    3.6473    0.5823   -1.9453 C   0  0  0  0  0  0  0  0  0  0  0  0
    5.0708    0.9971   -1.9686 C   0  0  0  0  0  0  0  0  0  0  0  0
    6.2598    0.2967   -1.9877 C   0  0  0  0  0  0  0  0  0  0  0  0
    7.2930    1.2636   -1.9954 C   0  0  0  0  0  0  0  0  0  0  0  0
    6.6704    2.4895   -1.9790 C   0  0  0  0  0  0  0  0  0  0  0  0
    5.3210    2.3388   -1.9632 O   0  0  0  0  0  0  0  0  0  0  0  0
    0.5835   -1.0501    1.7089 C   0  0  0  0  0  0  0  0  0  0  0  0
    0.5978   -2.7484    1.8781 S   0  0  0  0  0  0  0  0  0  0  0  0
   -1.0910   -2.8379    1.8573 C   0  0  0  0  0  0  0  0  0  0  0  0
   -1.6862   -1.6117    1.6313 C   0  0  0  0  0  0  0  0  0  0  0  0
   -0.6957   -0.5648    1.4590 C   0  0  0  0  0  0  0  0  0  0  0  0
   -3.1868   -1.4695    1.6355 C   0  0  0  0  0  0  0  0  0  0  0  0
   -3.8998   -2.8211    1.4752 C   0  0  0  0  0  0  0  0  0  0  0  0
   -3.2861   -3.8963    2.3791 C   0  0  0  0  0  0  0  0  0  0  0  0
   -1.8102   -4.1396    2.0382 C   0  0  0  0  0  0  0  0  0  0  0  0
   -1.8820    0.2422   -1.1991 C   0  0  0  0  0  0  0  0  0  0  0  0
   -2.7212    0.5311   -2.2786 C   0  0  0  0  0  0  0  0  0  0  0  0
   -5.8560    3.0060   -2.6537 H   0  0  0  0  0  0  0  0  0  0  0  0
   -4.4941    3.9056   -3.4295 H   0  0  0  0  0  0  0  0  0  0  0  0
   -5.6423    2.9843   -4.4084 H   0  0  0  0  0  0  0  0  0  0  0  0
   -4.0939    3.4310   -1.1265 H   0  0  0  0  0  0  0  0  0  0  0  0
   -2.6254    2.9284    0.7599 H   0  0  0  0  0  0  0  0  0  0  0  0
    0.1269    0.9265    3.5412 H   0  0  0  0  0  0  0  0  0  0  0  0
    0.7883    2.5167    3.2286 H   0  0  0  0  0  0  0  0  0  0  0  0
    3.1745   -2.0042    1.8475 H   0  0  0  0  0  0  0  0  0  0  0  0
    3.9163   -0.4256    2.0065 H   0  0  0  0  0  0  0  0  0  0  0  0
    3.2225    1.1278    0.0472 H   0  0  0  0  0  0  0  0  0  0  0  0
    3.4924   -0.3109   -2.5586 H   0  0  0  0  0  0  0  0  0  0  0  0
    3.0025    1.3799   -2.3265 H   0  0  0  0  0  0  0  0  0  0  0  0
    6.3571   -0.7809   -1.9868 H   0  0  0  0  0  0  0  0  0  0  0  0
    8.3595    1.0897   -2.0067 H   0  0  0  0  0  0  0  0  0  0  0  0
    7.0256    3.5105   -1.9743 H   0  0  0  0  0  0  0  0  0  0  0  0
   -3.5355   -0.8017    0.8455 H   0  0  0  0  0  0  0  0  0  0  0  0
   -3.4811   -1.0186    2.5917 H   0  0  0  0  0  0  0  0  0  0  0  0
   -4.9643   -2.7012    1.7066 H   0  0  0  0  0  0  0  0  0  0  0  0
   -3.8338   -3.1492    0.4300 H   0  0  0  0  0  0  0  0  0  0  0  0
   -3.8440   -4.8341    2.2793 H   0  0  0  0  0  0  0  0  0  0  0  0
   -3.3760   -3.5798    3.4264 H   0  0  0  0  0  0  0  0  0  0  0  0
   -1.7426   -4.7139    1.1059 H   0  0  0  0  0  0  0  0  0  0  0  0
   -1.3491   -4.7397    2.8311 H   0  0  0  0  0  0  0  0  0  0  0  0
   -1.2491   -0.6402   -1.2466 H   0  0  0  0  0  0  0  0  0  0  0  0
   -2.7389   -0.1338   -3.1394 H   0  0  0  0  0  0  0  0  0  0  0  0
  1  2  1  0
  2  3  1  0
  3  4  2  0
  4  5  1  0
  5  6  2  0
  6  7  1  0
  7  8  2  0
  8  9  1  0
  9 10  1  0
 10 11  2  0
 10 12  1  0
 12 13  1  0
 13 14  1  0
 14 15  2  0
 14 16  1  0
 16 17  1  0
 17 18  1  0
 18 19  2  0
 19 20  1  0
 20 21  2  0
 21 22  1  0
 12 23  1  0
 23 24  1  0
 24 25  1  0
 25 26  2  0
 26 27  1  0
 26 28  1  0
 28 29  1  0
 29 30  1  0
 30 31  1  0
  6 32  1  0
 32 33  2  0
 33  3  1  0
 27  7  1  0
 22 18  1  0
 27 23  2  0
 31 25  1  0
  1 34  1  0
  1 35  1  0
  1 36  1  0
  4 37  1  0
  5 38  1  0
  9 39  1  0
  9 40  1  0
 13 41  1  0
 13 42  1  0
 16 43  1  0
 17 44  1  0
 17 45  1  0
 19 46  1  0
 20 47  1  0
 21 48  1  0
 28 49  1  0
 28 50  1  0
 29 51  1  0
 29 52  1  0
 30 53  1  0
 30 54  1  0
 31 55  1  0
 31 56  1  0
 32 57  1  0
 33 58  1  0
M  END
$$$$
