
     RDKit          3D

 48 51  0  0  0  0  0  0  0  0999 V2000
   -0.6560    0.7076    2.1739 O   0  0  0  0  0  0  0  0  0  0  0  0
    0.3944    0.5609    1.5454 C   0  0  0  0  0  0  0  0  0  0  0  0
    1.7597    0.5499    2.2474 C   0  0  0  0  0  0  0  0  0  0  0  0
    2.6842   -0.4696    1.6935 N   0  0  0  0  0  0  0  0  0  0  0  0
    2.2993   -1.8679    1.9463 C   0  0  0  0  0  0  0  0  0  0  0  0
    3.5067   -2.7883    1.9088 C   0  0  0  0  0  0  0  0  0  0  0  0
    4.1648   -2.6916    0.5465 C   0  0  0  0  0  0  0  0  0  0  0  0
    4.4196   -1.2542    0.1707 C   0  0  0  0  0  0  0  0  0  0  0  0
    5.3978   -0.9999   -0.8100 C   0  0  0  0  0  0  0  0  0  0  0  0
    5.6675    0.3020   -1.2177 C   0  0  0  0  0  0  0  0  0  0  0  0
    4.9539    1.3536   -0.6523 C   0  0  0  0  0  0  0  0  0  0  0  0
    3.9712    1.0986    0.3175 C   0  0  0  0  0  0  0  0  0  0  0  0
    3.6664   -0.2021    0.7483 C   0  0  0  0  0  0  0  0  0  0  0  0
    0.4957    0.4183    0.1593 N   0  0  0  0  0  0  0  0  0  0  0  0
   -0.5728    0.1412   -0.6581 N   0  0  0  0  0  0  0  0  0  0  0  0
   -1.6570    0.8357   -0.4633 C   0  0  0  0  0  0  0  0  0  0  0  0
   -2.8845    0.5865   -1.2545 C   0  0  0  0  0  0  0  0  0  0  0  0
   -2.7740   -0.0427   -2.5064 C   0  0  0  0  0  0  0  0  0  0  0  0
   -1.5866   -0.4986   -3.0254 O   0  0  0  0  0  0  0  0  0  0  0  0
   -3.8928   -0.2275   -3.3044 C   0  0  0  0  0  0  0  0  0  0  0  0
   -5.1396    0.2030   -2.8559 C   0  0  0  0  0  0  0  0  0  0  0  0
   -5.2877    0.8080   -1.5988 C   0  0  0  0  0  0  0  0  0  0  0  0
   -6.5639    1.2091   -1.1645 C   0  0  0  0  0  0  0  0  0  0  0  0
   -6.7514    1.7895    0.0915 C   0  0  0  0  0  0  0  0  0  0  0  0
   -5.6628    1.9735    0.9299 C   0  0  0  0  0  0  0  0  0  0  0  0
   -4.3844    1.5874    0.5102 C   0  0  0  0  0  0  0  0  0  0  0  0
   -4.1557    1.0060   -0.7651 C   0  0  0  0  0  0  0  0  0  0  0  0
    2.1690    1.5650    2.2368 H   0  0  0  0  0  0  0  0  0  0  0  0
    1.5777    0.3132    3.3056 H   0  0  0  0  0  0  0  0  0  0  0  0
    1.5549   -2.1848    1.2051 H   0  0  0  0  0  0  0  0  0  0  0  0
    1.8263   -1.9509    2.9311 H   0  0  0  0  0  0  0  0  0  0  0  0
    4.2191   -2.5052    2.6942 H   0  0  0  0  0  0  0  0  0  0  0  0
    3.2039   -3.8249    2.0969 H   0  0  0  0  0  0  0  0  0  0  0  0
    3.5169   -3.1401   -0.2155 H   0  0  0  0  0  0  0  0  0  0  0  0
    5.1066   -3.2570    0.5632 H   0  0  0  0  0  0  0  0  0  0  0  0
    5.9511   -1.8232   -1.2568 H   0  0  0  0  0  0  0  0  0  0  0  0
    6.4270    0.4927   -1.9731 H   0  0  0  0  0  0  0  0  0  0  0  0
    5.1569    2.3768   -0.9654 H   0  0  0  0  0  0  0  0  0  0  0  0
    3.4567    1.9691    0.7127 H   0  0  0  0  0  0  0  0  0  0  0  0
    1.3739   -0.0043   -0.1485 H   0  0  0  0  0  0  0  0  0  0  0  0
   -1.6890    1.6702    0.2604 H   0  0  0  0  0  0  0  0  0  0  0  0
   -0.9118   -0.4186   -2.3141 H   0  0  0  0  0  0  0  0  0  0  0  0
   -3.7935   -0.7055   -4.2751 H   0  0  0  0  0  0  0  0  0  0  0  0
   -6.0039    0.0478   -3.4984 H   0  0  0  0  0  0  0  0  0  0  0  0
   -7.4324    1.0641   -1.8032 H   0  0  0  0  0  0  0  0  0  0  0  0
   -7.7472    2.0828    0.4154 H   0  0  0  0  0  0  0  0  0  0  0  0
   -5.8039    2.4113    1.9167 H   0  0  0  0  0  0  0  0  0  0  0  0
   -3.5707    1.7330    1.2189 H   0  0  0  0  0  0  0  0  0  0  0  0
  1  2  2  0
  2  3  1  0
  3  4  1  0
  4  5  1  0
  5  6  1  0
  6  7  1  0
  7  8  1  0
  8  9  2  0
  9 10  1  0
 10 11  2  0
 11 12  1  0
 12 13  2  0
  2 14  1  0
 14 15  1  0
 15 16  2  3
 16 17  1  0
 17 18  2  0
 18 19  1  0
 18 20  1  0
 20 21  2  0
 21 22  1  0
 22 23  2  0
 23 24  1  0
 24 25  2  0
 25 26  1  0
 26 27  2  0
 13  4  1  0
 27 17  1  0
 13  8  1  0
 27 22  1  0
  3 28  1  0
  3 29  1  0
  5 30  1  0
  5 31  1  0
  6 32  1  0
  6 33  1  0
  7 34  1  0
  7 35  1  0
  9 36  1  0
 10 37  1  0
 11 38  1  0
 12 39  1  0
 14 40  1  0
 16 41  1  0
 19 42  1  0
 20 43  1  0
 21 44  1  0
 23 45  1  0
 24 46  1  0
 25 47  1  0
 26 48  1  0
M  END
$$$$
