
     RDKit          3D

 54 57  0  0  0  0  0  0  0  0999 V2000
    6.5642   -3.2125    1.4092 C   0  0  0  0  0  0  0  0  0  0  0  0
    7.1899   -2.1058    0.7699 O   0  0  0  0  0  0  0  0  0  0  0  0
    6.3695   -1.1055    0.3219 C   0  0  0  0  0  0  0  0  0  0  0  0
    7.0364   -0.0334   -0.2735 C   0  0  0  0  0  0  0  0  0  0  0  0
    6.3219    1.0518   -0.7743 C   0  0  0  0  0  0  0  0  0  0  0  0
    4.9306    1.0682   -0.6797 C   0  0  0  0  0  0  0  0  0  0  0  0
    4.2450    0.0019   -0.0838 C   0  0  0  0  0  0  0  0  0  0  0  0
    2.8370    0.0974   -0.0353 N   0  0  0  0  0  0  0  0  0  0  0  0
    1.9497   -0.7972    0.5342 C   0  0  0  0  0  0  0  0  0  0  0  0
    2.2267   -1.8153    1.1570 O   0  0  0  0  0  0  0  0  0  0  0  0
    0.5297   -0.3854    0.3575 C   0  0  0  0  0  0  0  0  0  0  0  0
   -0.3087   -0.5461    1.3939 C   0  0  0  0  0  0  0  0  0  0  0  0
   -1.6857   -0.0772    1.3652 C   0  0  0  0  0  0  0  0  0  0  0  0
   -2.5562   -0.2888    2.5568 C   0  0  0  0  0  0  0  0  0  0  0  0
   -2.1081   -0.8648    3.5504 O   0  0  0  0  0  0  0  0  0  0  0  0
   -3.8472    0.1992    2.4605 N   0  0  0  0  0  0  0  0  0  0  0  0
   -4.7254    0.0301    3.5260 C   0  0  0  0  0  0  0  0  0  0  0  0
   -5.9809    0.4927    3.4848 C   0  0  0  0  0  0  0  0  0  0  0  0
   -6.4497    1.1869    2.3156 C   0  0  0  0  0  0  0  0  0  0  0  0
   -5.6377    1.3734    1.2683 C   0  0  0  0  0  0  0  0  0  0  0  0
   -4.2395    0.8582    1.3109 C   0  0  0  0  0  0  0  0  0  0  0  0
   -3.4778    1.0537    0.2836 N   0  0  0  0  0  0  0  0  0  0  0  0
   -2.1857    0.5780    0.2918 C   0  0  0  0  0  0  0  0  0  0  0  0
   -1.3497    0.7650   -0.8396 N   0  0  0  0  0  0  0  0  0  0  0  0
   -1.8964    1.4336   -2.0386 C   0  0  0  0  0  0  0  0  0  0  0  0
   -2.8047    0.5058   -2.8724 C   0  0  0  0  0  0  0  0  0  0  0  0
   -3.5058    1.3183   -3.9644 C   0  0  0  0  0  0  0  0  0  0  0  0
   -2.0370   -0.6540   -3.5081 C   0  0  0  0  0  0  0  0  0  0  0  0
   -0.0407    0.2644   -0.8721 C   0  0  0  0  0  0  0  0  0  0  0  0
    0.6784    0.3519   -1.9568 N   0  0  0  0  0  0  0  0  0  0  0  0
    4.9735   -1.0848    0.4125 C   0  0  0  0  0  0  0  0  0  0  0  0
    5.9020   -3.7444    0.7182 H   0  0  0  0  0  0  0  0  0  0  0  0
    7.3509   -3.9082    1.7167 H   0  0  0  0  0  0  0  0  0  0  0  0
    6.0283   -2.8974    2.3107 H   0  0  0  0  0  0  0  0  0  0  0  0
    8.1212   -0.0477   -0.3463 H   0  0  0  0  0  0  0  0  0  0  0  0
    6.8490    1.8816   -1.2374 H   0  0  0  0  0  0  0  0  0  0  0  0
    4.3942    1.9252   -1.0794 H   0  0  0  0  0  0  0  0  0  0  0  0
    2.4452    0.9520   -0.4217 H   0  0  0  0  0  0  0  0  0  0  0  0
    0.0413   -1.0043    2.3178 H   0  0  0  0  0  0  0  0  0  0  0  0
   -4.3486   -0.4967    4.3996 H   0  0  0  0  0  0  0  0  0  0  0  0
   -6.6589    0.3555    4.3211 H   0  0  0  0  0  0  0  0  0  0  0  0
   -7.4713    1.5532    2.3044 H   0  0  0  0  0  0  0  0  0  0  0  0
   -5.9514    1.8900    0.3699 H   0  0  0  0  0  0  0  0  0  0  0  0
   -1.0955    1.8392   -2.6696 H   0  0  0  0  0  0  0  0  0  0  0  0
   -2.4657    2.3177   -1.7212 H   0  0  0  0  0  0  0  0  0  0  0  0
   -3.5828    0.0762   -2.2303 H   0  0  0  0  0  0  0  0  0  0  0  0
   -2.7815    1.7682   -4.6522 H   0  0  0  0  0  0  0  0  0  0  0  0
   -4.1042    2.1240   -3.5261 H   0  0  0  0  0  0  0  0  0  0  0  0
   -4.1804    0.6843   -4.5496 H   0  0  0  0  0  0  0  0  0  0  0  0
   -2.7015   -1.2625   -4.1312 H   0  0  0  0  0  0  0  0  0  0  0  0
   -1.6144   -1.3152   -2.7456 H   0  0  0  0  0  0  0  0  0  0  0  0
   -1.2214   -0.2918   -4.1427 H   0  0  0  0  0  0  0  0  0  0  0  0
    1.5746   -0.1408   -1.8749 H   0  0  0  0  0  0  0  0  0  0  0  0
    4.4553   -1.9182    0.8682 H   0  0  0  0  0  0  0  0  0  0  0  0
  1  2  1  0
  2  3  1  0
  3  4  2  0
  4  5  1  0
  5  6  2  0
  6  7  1  0
  7  8  1  0
  8  9  1  0
  9 10  2  0
  9 11  1  0
 11 12  2  0
 12 13  1  0
 13 14  1  0
 14 15  2  0
 14 16  1  0
 16 17  1  0
 17 18  2  0
 18 19  1  0
 19 20  2  0
 20 21  1  0
 21 22  2  0
 22 23  1  0
 23 24  1  0
 24 25  1  0
 25 26  1  0
 26 27  1  0
 26 28  1  0
 24 29  1  0
 29 30  2  3
  7 31  2  0
 31  3  1  0
 29 11  1  0
 23 13  2  0
 21 16  1  0
  1 32  1  0
  1 33  1  0
  1 34  1  0
  4 35  1  0
  5 36  1  0
  6 37  1  0
  8 38  1  0
 12 39  1  0
 17 40  1  0
 18 41  1  0
 19 42  1  0
 20 43  1  0
 25 44  1  0
 25 45  1  0
 26 46  1  0
 27 47  1  0
 27 48  1  0
 27 49  1  0
 28 50  1  0
 28 51  1  0
 28 52  1  0
 30 53  1  0
 31 54  1  0
M  END
$$$$
