
     RDKit          3D

 47 50  0  0  0  0  0  0  0  0999 V2000
   -3.0188    0.6319    1.2594 O   0  0  0  0  0  0  0  0  0  0  0  0
   -2.5211   -0.1791    0.5024 C   0  0  0  0  0  0  0  0  0  0  0  0
   -3.2442   -1.2996   -0.0956 C   0  0  0  0  0  0  0  0  0  0  0  0
   -4.5763   -1.6536   -0.0127 C   0  0  0  0  0  0  0  0  0  0  0  0
   -4.9730   -2.8072   -0.6968 C   0  0  0  0  0  0  0  0  0  0  0  0
   -4.0411   -3.5696   -1.4324 C   0  0  0  0  0  0  0  0  0  0  0  0
   -2.6960   -3.1918   -1.4970 C   0  0  0  0  0  0  0  0  0  0  0  0
   -2.3307   -2.0469   -0.8171 C   0  0  0  0  0  0  0  0  0  0  0  0
   -1.0271   -1.4014   -0.6770 C   0  0  0  0  0  0  0  0  0  0  0  0
    0.0112   -1.8469   -1.1268 O   0  0  0  0  0  0  0  0  0  0  0  0
   -1.2309   -0.2729    0.0656 N   0  0  0  0  0  0  0  0  0  0  0  0
   -0.1667    0.6142    0.4777 C   0  0  0  0  0  0  0  0  0  0  0  0
    0.4565    1.3384   -0.6444 N   0  0  0  0  0  0  0  0  0  0  0  0
    1.8239    1.1958   -0.9519 C   0  0  0  0  0  0  0  0  0  0  0  0
    2.4118    1.8624   -1.8116 O   0  0  0  0  0  0  0  0  0  0  0  0
    2.6477    0.1737   -0.1631 C   0  0  0  0  0  0  0  0  0  0  0  0
    2.8002    0.6256    1.1780 O   0  0  0  0  0  0  0  0  0  0  0  0
    3.4825   -0.1938    2.0342 C   0  0  0  0  0  0  0  0  0  0  0  0
    4.0555   -1.4251    1.7129 C   0  0  0  0  0  0  0  0  0  0  0  0
    4.7211   -2.1662    2.6946 C   0  0  0  0  0  0  0  0  0  0  0  0
    4.8178   -1.6806    3.9975 C   0  0  0  0  0  0  0  0  0  0  0  0
    4.2501   -0.4513    4.3221 C   0  0  0  0  0  0  0  0  0  0  0  0
    3.5856    0.2879    3.3422 C   0  0  0  0  0  0  0  0  0  0  0  0
   -0.3900    2.2170   -1.4227 C   0  0  0  0  0  0  0  0  0  0  0  0
   -0.1323    2.4675   -2.7822 C   0  0  0  0  0  0  0  0  0  0  0  0
   -0.9666    3.2928   -3.5455 C   0  0  0  0  0  0  0  0  0  0  0  0
   -2.0758    3.8776   -2.9575 C   0  0  0  0  0  0  0  0  0  0  0  0
   -2.8777    4.6644   -3.6859 F   0  0  0  0  0  0  0  0  0  0  0  0
   -2.3649    3.6504   -1.6218 C   0  0  0  0  0  0  0  0  0  0  0  0
   -1.5280    2.8249   -0.8610 C   0  0  0  0  0  0  0  0  0  0  0  0
   -5.2824   -1.0603    0.5593 H   0  0  0  0  0  0  0  0  0  0  0  0
   -6.0143   -3.1239   -0.6614 H   0  0  0  0  0  0  0  0  0  0  0  0
   -4.3755   -4.4645   -1.9550 H   0  0  0  0  0  0  0  0  0  0  0  0
   -1.9685   -3.7711   -2.0564 H   0  0  0  0  0  0  0  0  0  0  0  0
    0.5462   -0.0188    1.0027 H   0  0  0  0  0  0  0  0  0  0  0  0
   -0.5204    1.3373    1.2204 H   0  0  0  0  0  0  0  0  0  0  0  0
    2.1585   -0.8033   -0.2187 H   0  0  0  0  0  0  0  0  0  0  0  0
    3.6311    0.1007   -0.6446 H   0  0  0  0  0  0  0  0  0  0  0  0
    4.0082   -1.8394    0.7111 H   0  0  0  0  0  0  0  0  0  0  0  0
    5.1677   -3.1242    2.4395 H   0  0  0  0  0  0  0  0  0  0  0  0
    5.3382   -2.2581    4.7572 H   0  0  0  0  0  0  0  0  0  0  0  0
    4.3261   -0.0654    5.3353 H   0  0  0  0  0  0  0  0  0  0  0  0
    3.1485    1.2494    3.6002 H   0  0  0  0  0  0  0  0  0  0  0  0
    0.7052    2.0017   -3.2953 H   0  0  0  0  0  0  0  0  0  0  0  0
   -0.7523    3.4731   -4.5941 H   0  0  0  0  0  0  0  0  0  0  0  0
   -3.2343    4.1195   -1.1717 H   0  0  0  0  0  0  0  0  0  0  0  0
   -1.7846    2.7089    0.1879 H   0  0  0  0  0  0  0  0  0  0  0  0
  1  2  2  0
  2  3  1  0
  3  4  2  0
  4  5  1  0
  5  6  2  0
  6  7  1  0
  7  8  2  0
  8  9  1  0
  9 10  2  0
  9 11  1  0
 11 12  1  0
 12 13  1  0
 13 14  1  0
 14 15  2  0
 14 16  1  0
 16 17  1  0
 17 18  1  0
 18 19  2  0
 19 20  1  0
 20 21  2  0
 21 22  1  0
 22 23  2  0
 13 24  1  0
 24 25  2  0
 25 26  1  0
 26 27  2  0
 27 28  1  0
 27 29  1  0
 29 30  2  0
 11  2  1  0
 23 18  1  0
 30 24  1  0
  8  3  1  0
  4 31  1  0
  5 32  1  0
  6 33  1  0
  7 34  1  0
 12 35  1  0
 12 36  1  0
 16 37  1  0
 16 38  1  0
 19 39  1  0
 20 40  1  0
 21 41  1  0
 22 42  1  0
 23 43  1  0
 25 44  1  0
 26 45  1  0
 29 46  1  0
 30 47  1  0
M  END
$$$$
