
     RDKit          3D

 35 36  0  0  0  0  0  0  0  0999 V2000
   -5.5750    0.6808    1.0189 C   0  0  0  0  0  0  0  0  0  0  0  0
   -4.4104    0.8683    1.9743 C   0  0  0  0  0  0  0  0  0  0  0  0
   -3.4906   -0.2176    1.8611 O   0  0  0  0  0  0  0  0  0  0  0  0
   -2.4201   -0.0854    1.0252 C   0  0  0  0  0  0  0  0  0  0  0  0
   -2.2317    0.9100    0.0709 C   0  0  0  0  0  0  0  0  0  0  0  0
   -1.0749    0.9316   -0.7280 C   0  0  0  0  0  0  0  0  0  0  0  0
   -0.0778   -0.0420   -0.6016 C   0  0  0  0  0  0  0  0  0  0  0  0
    1.1115   -0.0110   -1.3772 N   0  0  0  0  0  0  0  0  0  0  0  0
    1.5244    0.9646   -2.2711 C   0  0  0  0  0  0  0  0  0  0  0  0
    0.9100    1.9903   -2.5522 O   0  0  0  0  0  0  0  0  0  0  0  0
    2.8699    0.6657   -2.9164 C   0  0  0  0  0  0  0  0  0  0  0  0
    4.2047    1.4607   -1.9846 S   0  0  0  0  0  0  0  0  0  0  0  0
    4.3766    0.3599   -0.6492 C   0  0  0  0  0  0  0  0  0  0  0  0
    3.6778   -0.8147   -0.5355 N   0  0  0  0  0  0  0  0  0  0  0  0
    4.1463   -1.3284    0.5805 C   0  0  0  0  0  0  0  0  0  0  0  0
    5.0650   -0.4847    1.1178 N   0  0  0  0  0  0  0  0  0  0  0  0
    5.2288    0.6016    0.3489 N   0  0  0  0  0  0  0  0  0  0  0  0
   -0.3056   -1.0544    0.3499 C   0  0  0  0  0  0  0  0  0  0  0  0
    0.6442   -2.1400    0.5350 N   0  0  0  0  0  4  0  0  0  0  0  0
    0.9413   -2.4541    1.6971 O   0  0  0  0  0  0  0  0  0  0  0  0
    1.0979   -2.6819   -0.4830 O   0  0  0  0  0  1  0  0  0  0  0  0
   -1.4562   -1.0811    1.1559 C   0  0  0  0  0  0  0  0  0  0  0  0
   -5.2391    0.6475   -0.0214 H   0  0  0  0  0  0  0  0  0  0  0  0
   -6.2970    1.4942    1.1285 H   0  0  0  0  0  0  0  0  0  0  0  0
   -6.0855   -0.2673    1.2164 H   0  0  0  0  0  0  0  0  0  0  0  0
   -4.7944    0.8459    3.0004 H   0  0  0  0  0  0  0  0  0  0  0  0
   -3.9312    1.8453    1.8542 H   0  0  0  0  0  0  0  0  0  0  0  0
   -2.9655    1.6934   -0.0937 H   0  0  0  0  0  0  0  0  0  0  0  0
   -0.9966    1.7388   -1.4505 H   0  0  0  0  0  0  0  0  0  0  0  0
    1.7972   -0.7522   -1.2041 H   0  0  0  0  0  0  0  0  0  0  0  0
    3.0316   -0.4124   -3.0261 H   0  0  0  0  0  0  0  0  0  0  0  0
    2.8519    1.0806   -3.9297 H   0  0  0  0  0  0  0  0  0  0  0  0
    3.8688   -2.2714    1.0321 H   0  0  0  0  0  0  0  0  0  0  0  0
    5.6101   -0.5834    1.9685 H   0  0  0  0  0  0  0  0  0  0  0  0
   -1.6064   -1.8717    1.8885 H   0  0  0  0  0  0  0  0  0  0  0  0
  1  2  1  0
  2  3  1  0
  3  4  1  0
  4  5  2  0
  5  6  1  0
  6  7  2  0
  7  8  1  0
  8  9  1  0
  9 10  2  0
  9 11  1  0
 11 12  1  0
 12 13  1  0
 13 14  1  0
 14 15  2  0
 15 16  1  0
 16 17  1  0
  7 18  1  0
 18 19  1  0
 19 20  2  0
 19 21  1  0
 18 22  2  0
 22  4  1  0
 17 13  2  0
  1 23  1  0
  1 24  1  0
  1 25  1  0
  2 26  1  0
  2 27  1  0
  5 28  1  0
  6 29  1  0
  8 30  1  0
 11 31  1  0
 11 32  1  0
 15 33  1  0
 16 34  1  0
 22 35  1  0
M  CHG  2  19   1  21  -1
M  END
$$$$
