
     RDKit          3D

 33 35  0  0  0  0  0  0  0  0999 V2000
   -3.3212   -2.6315    3.3739 C   0  0  0  0  0  0  0  0  0  0  0  0
   -2.4191   -1.8710    2.4147 C   0  0  0  0  0  0  0  0  0  0  0  0
   -3.1760   -0.9614    1.5123 C   0  0  0  0  0  0  0  0  0  0  0  0
   -4.4817   -0.7658    1.4632 N   0  0  0  0  0  0  0  0  0  0  0  0
   -4.7374    0.1784    0.4938 N   0  0  0  0  0  0  0  0  0  0  0  0
   -3.5842    0.5166   -0.0255 C   0  0  0  0  0  0  0  0  0  0  0  0
   -2.5574   -0.1788    0.5587 N   0  0  0  0  0  0  0  0  0  0  0  0
   -1.2114   -0.1035    0.3357 N   0  0  0  0  0  0  0  0  0  0  0  0
   -0.8216    0.5041   -0.7516 C   0  0  0  0  0  0  0  0  0  0  0  0
    0.6551    0.6359   -0.9702 C   0  0  0  0  0  0  0  0  0  0  0  0
    1.2110    0.6433   -2.2524 C   0  0  0  0  0  0  0  0  0  0  0  0
    2.5952    0.7656   -2.4099 C   0  0  0  0  0  0  0  0  0  0  0  0
    3.4373    0.8748   -1.3001 C   0  0  0  0  0  0  0  0  0  0  0  0
    4.7655    0.9886   -1.6017 O   0  0  0  0  0  0  0  0  0  0  0  0
    5.6678    1.0996   -0.5076 C   0  0  0  0  0  0  0  0  0  0  0  0
    2.8838    0.8561   -0.0207 C   0  0  0  0  0  0  0  0  0  0  0  0
    1.4989    0.7336    0.1437 C   0  0  0  0  0  0  0  0  0  0  0  0
   -1.7316    1.0227   -1.8606 C   0  0  0  0  0  0  0  0  0  0  0  0
   -3.2767    1.7039   -1.2288 S   0  0  0  0  0  0  0  0  0  0  0  0
   -2.7242   -3.2860    4.0169 H   0  0  0  0  0  0  0  0  0  0  0  0
   -4.0414   -3.2540    2.8319 H   0  0  0  0  0  0  0  0  0  0  0  0
   -3.8839   -1.9461    4.0170 H   0  0  0  0  0  0  0  0  0  0  0  0
   -1.8525   -2.5911    1.8129 H   0  0  0  0  0  0  0  0  0  0  0  0
   -1.6951   -1.2871    2.9950 H   0  0  0  0  0  0  0  0  0  0  0  0
    0.6005    0.5371   -3.1441 H   0  0  0  0  0  0  0  0  0  0  0  0
    3.0257    0.7698   -3.4093 H   0  0  0  0  0  0  0  0  0  0  0  0
    5.6351    0.2049    0.1229 H   0  0  0  0  0  0  0  0  0  0  0  0
    5.4693    2.0038    0.0773 H   0  0  0  0  0  0  0  0  0  0  0  0
    6.6796    1.1825   -0.9159 H   0  0  0  0  0  0  0  0  0  0  0  0
    3.4977    0.9327    0.8708 H   0  0  0  0  0  0  0  0  0  0  0  0
    1.0862    0.7199    1.1507 H   0  0  0  0  0  0  0  0  0  0  0  0
   -1.2385    1.8126   -2.4332 H   0  0  0  0  0  0  0  0  0  0  0  0
   -1.9551    0.1898   -2.5358 H   0  0  0  0  0  0  0  0  0  0  0  0
  1  2  1  0
  2  3  1  0
  3  4  2  0
  4  5  1  0
  5  6  2  0
  6  7  1  0
  7  8  1  0
  8  9  2  0
  9 10  1  0
 10 11  2  0
 11 12  1  0
 12 13  2  0
 13 14  1  0
 14 15  1  0
 13 16  1  0
 16 17  2  0
  9 18  1  0
 18 19  1  0
  7  3  1  0
 17 10  1  0
 19  6  1  0
  1 20  1  0
  1 21  1  0
  1 22  1  0
  2 23  1  0
  2 24  1  0
 11 25  1  0
 12 26  1  0
 15 27  1  0
 15 28  1  0
 15 29  1  0
 16 30  1  0
 17 31  1  0
 18 32  1  0
 18 33  1  0
M  END
$$$$
