
     RDKit          3D

 45 48  0  0  0  0  0  0  0  0999 V2000
    4.5032   -1.0011   -0.5060 O   0  0  0  0  0  0  0  0  0  0  0  0
    3.4807   -0.3582   -0.2990 C   0  0  0  0  0  0  0  0  0  0  0  0
    2.3371   -0.3416   -1.0776 N   0  0  0  0  0  0  0  0  0  0  0  0
    2.0901   -1.0057   -2.3087 C   0  0  0  0  0  0  0  0  0  0  0  0
    3.0916   -1.7541   -2.9447 C   0  0  0  0  0  0  0  0  0  0  0  0
    2.8468   -2.4192   -4.1499 C   0  0  0  0  0  0  0  0  0  0  0  0
    1.5974   -2.3451   -4.7464 C   0  0  0  0  0  0  0  0  0  0  0  0
    0.5924   -1.5975   -4.1390 C   0  0  0  0  0  0  0  0  0  0  0  0
    0.8117   -0.9144   -2.9224 C   0  0  0  0  0  0  0  0  0  0  0  0
   -0.3208   -0.1476   -2.3906 C   0  0  0  0  0  0  0  0  0  0  0  0
   -1.5465   -0.0152   -2.8621 N   0  0  0  0  0  0  0  0  0  0  0  0
   -2.2106    0.8362   -2.0044 N   0  0  0  0  0  0  0  0  0  0  0  0
   -1.3609    1.1519   -1.0515 C   0  0  0  0  0  0  0  0  0  0  0  0
   -1.6865    2.2045    0.2868 S   0  0  0  0  0  0  0  0  0  0  0  0
   -3.5008    2.1320    0.3534 C   0  0  0  0  0  0  0  0  0  0  0  0
   -4.0134    0.8666    0.9998 C   0  0  0  0  0  0  0  0  0  0  0  0
   -3.9754    0.7117    2.3961 C   0  0  0  0  0  0  0  0  0  0  0  0
   -4.4359   -0.4655    2.9944 C   0  0  0  0  0  0  0  0  0  0  0  0
   -4.9373   -1.4945    2.2014 C   0  0  0  0  0  0  0  0  0  0  0  0
   -5.5074   -2.9430    2.9387 Cl  0  0  0  0  0  0  0  0  0  0  0  0
   -4.9825   -1.3586    0.8158 C   0  0  0  0  0  0  0  0  0  0  0  0
   -4.5202   -0.1819    0.2163 C   0  0  0  0  0  0  0  0  0  0  0  0
   -0.1349    0.5716   -1.2382 O   0  0  0  0  0  0  0  0  0  0  0  0
    3.4101    0.4785    0.9367 C   0  0  0  0  0  0  0  0  0  0  0  0
    4.1222    0.0569    2.0675 C   0  0  0  0  0  0  0  0  0  0  0  0
    4.0829    0.8088    3.2432 C   0  0  0  0  0  0  0  0  0  0  0  0
    3.3381    1.9874    3.2928 C   0  0  0  0  0  0  0  0  0  0  0  0
    2.6402    2.4225    2.1661 C   0  0  0  0  0  0  0  0  0  0  0  0
    2.6806    1.6756    0.9857 C   0  0  0  0  0  0  0  0  0  0  0  0
    1.5392    0.1435   -0.6850 H   0  0  0  0  0  0  0  0  0  0  0  0
    4.0925   -1.8424   -2.5258 H   0  0  0  0  0  0  0  0  0  0  0  0
    3.6425   -2.9967   -4.6149 H   0  0  0  0  0  0  0  0  0  0  0  0
    1.4045   -2.8627   -5.6834 H   0  0  0  0  0  0  0  0  0  0  0  0
   -0.3810   -1.5459   -4.6294 H   0  0  0  0  0  0  0  0  0  0  0  0
   -3.8443    2.9879    0.9454 H   0  0  0  0  0  0  0  0  0  0  0  0
   -3.9350    2.2717   -0.6445 H   0  0  0  0  0  0  0  0  0  0  0  0
   -3.5829    1.5068    3.0263 H   0  0  0  0  0  0  0  0  0  0  0  0
   -4.3988   -0.5709    4.0757 H   0  0  0  0  0  0  0  0  0  0  0  0
   -5.3708   -2.1624    0.1954 H   0  0  0  0  0  0  0  0  0  0  0  0
   -4.5564   -0.0941   -0.8697 H   0  0  0  0  0  0  0  0  0  0  0  0
    4.7100   -0.8584    2.0329 H   0  0  0  0  0  0  0  0  0  0  0  0
    4.6386    0.4776    4.1171 H   0  0  0  0  0  0  0  0  0  0  0  0
    3.3117    2.5739    4.2075 H   0  0  0  0  0  0  0  0  0  0  0  0
    2.0746    3.3510    2.2035 H   0  0  0  0  0  0  0  0  0  0  0  0
    2.1636    2.0600    0.1108 H   0  0  0  0  0  0  0  0  0  0  0  0
  1  2  2  0
  2  3  1  0
  3  4  1  0
  4  5  2  0
  5  6  1  0
  6  7  2  0
  7  8  1  0
  8  9  2  0
  9 10  1  0
 10 11  2  0
 11 12  1  0
 12 13  2  0
 13 14  1  0
 14 15  1  0
 15 16  1  0
 16 17  2  0
 17 18  1  0
 18 19  2  0
 19 20  1  0
 19 21  1  0
 21 22  2  0
 13 23  1  0
  2 24  1  0
 24 25  2  0
 25 26  1  0
 26 27  2  0
 27 28  1  0
 28 29  2  0
  9  4  1  0
 23 10  1  0
 29 24  1  0
 22 16  1  0
  3 30  1  0
  5 31  1  0
  6 32  1  0
  7 33  1  0
  8 34  1  0
 15 35  1  0
 15 36  1  0
 17 37  1  0
 18 38  1  0
 21 39  1  0
 22 40  1  0
 25 41  1  0
 26 42  1  0
 27 43  1  0
 28 44  1  0
 29 45  1  0
M  END
$$$$
