
     RDKit          3D

 68 73  0  0  0  0  0  0  0  0999 V2000
   -4.7059    4.9120   -1.4001 C   0  0  0  0  0  0  0  0  0  0  0  0
   -3.7022    3.9156   -1.2581 O   0  0  0  0  0  0  0  0  0  0  0  0
   -3.4805    3.4310    0.0033 C   0  0  0  0  0  0  0  0  0  0  0  0
   -4.1320    3.8643    1.1746 C   0  0  0  0  0  0  0  0  0  0  0  0
   -3.8233    3.3036    2.4205 C   0  0  0  0  0  0  0  0  0  0  0  0
   -2.8648    2.3142    2.4552 C   0  0  0  0  0  0  0  0  0  0  0  0
   -2.2136    1.8640    1.3051 C   0  0  0  0  0  0  0  0  0  0  0  0
   -2.5099    2.4238    0.0717 C   0  0  0  0  0  0  0  0  0  0  0  0
   -1.2387    0.7965    1.6949 C   0  0  1  0  0  0  0  0  0  0  0  0
   -1.4132    0.7080    3.2356 C   0  0  0  0  0  0  0  0  0  0  0  0
   -0.8139    0.0003    4.0324 O   0  0  0  0  0  0  0  0  0  0  0  0
   -2.3959    1.6421    3.5779 N   0  0  0  0  0  0  0  0  0  0  0  0
   -1.5628   -0.4701    0.9911 C   0  0  0  0  0  0  0  0  0  0  0  0
   -0.3840   -1.1124    0.5745 C   0  0  0  0  0  0  0  0  0  0  0  0
   -0.7152   -2.2891   -0.0425 C   0  0  0  0  0  0  0  0  0  0  0  0
    0.0618   -3.2193   -0.5907 O   0  0  0  0  0  0  0  0  0  0  0  0
   -2.1247   -2.3538   -0.0739 N   0  0  0  0  0  0  0  0  0  0  0  0
   -2.9171   -3.3319   -0.7563 C   0  0  0  0  0  0  0  0  0  0  0  0
   -2.4623   -4.6470   -0.9097 C   0  0  0  0  0  0  0  0  0  0  0  0
   -3.2499   -5.5915   -1.5741 C   0  0  0  0  0  0  0  0  0  0  0  0
   -4.4886   -5.2288   -2.0987 C   0  0  0  0  0  0  0  0  0  0  0  0
   -4.9418   -3.9185   -1.9661 C   0  0  0  0  0  0  0  0  0  0  0  0
   -4.1603   -2.9710   -1.3004 C   0  0  0  0  0  0  0  0  0  0  0  0
   -2.6272   -1.2702    0.6787 C   0  0  0  0  0  0  0  0  0  0  0  0
   -3.9002   -1.1236    1.0444 O   0  0  0  0  0  0  0  0  0  0  0  0
    0.7893   -0.3257    1.0123 C   0  0  1  0  0  0  0  0  0  0  0  0
    1.9673   -0.1506    0.0602 C   0  0  0  0  0  0  0  0  0  0  0  0
    2.9195    0.8461    0.5909 N   0  0  0  0  0  0  0  0  0  0  0  0
    4.2410    0.8778    0.1774 C   0  0  0  0  0  0  0  0  0  0  0  0
    4.9989    1.8112    0.4063 O   0  0  0  0  0  0  0  0  0  0  0  0
    4.5886   -0.2449   -0.5031 O   0  0  0  0  0  0  0  0  0  0  0  0
    5.9302   -0.4182   -1.0270 C   0  0  0  0  0  0  0  0  0  0  0  0
    6.9688   -0.4582    0.0992 C   0  0  0  0  0  0  0  0  0  0  0  0
    6.2615    0.6471   -2.0779 C   0  0  0  0  0  0  0  0  0  0  0  0
    5.9015   -1.7919   -1.7152 C   0  0  0  0  0  0  0  0  0  0  0  0
    2.3415    2.0912    1.1263 C   0  0  0  0  0  0  0  0  0  0  0  0
    1.0491    1.8889    1.9581 C   0  0  0  0  0  0  0  0  0  0  0  0
    0.1519    1.0089    1.2295 N   0  0  0  0  0  0  0  0  0  0  0  0
   -4.7692    5.1740   -2.4607 H   0  0  0  0  0  0  0  0  0  0  0  0
   -5.6859    4.5329   -1.0921 H   0  0  0  0  0  0  0  0  0  0  0  0
   -4.4410    5.8200   -0.8486 H   0  0  0  0  0  0  0  0  0  0  0  0
   -4.8868    4.6437    1.1449 H   0  0  0  0  0  0  0  0  0  0  0  0
   -4.3242    3.6434    3.3196 H   0  0  0  0  0  0  0  0  0  0  0  0
   -2.0019    2.0835   -0.8258 H   0  0  0  0  0  0  0  0  0  0  0  0
   -2.7086    1.7838    4.5258 H   0  0  0  0  0  0  0  0  0  0  0  0
    0.9892   -2.9632   -0.4522 H   0  0  0  0  0  0  0  0  0  0  0  0
   -1.5134   -4.9734   -0.4935 H   0  0  0  0  0  0  0  0  0  0  0  0
   -2.8928   -6.6129   -1.6804 H   0  0  0  0  0  0  0  0  0  0  0  0
   -5.0949   -5.9652   -2.6199 H   0  0  0  0  0  0  0  0  0  0  0  0
   -5.8976   -3.6286   -2.3957 H   0  0  0  0  0  0  0  0  0  0  0  0
   -4.5182   -1.9437   -1.2660 H   0  0  0  0  0  0  0  0  0  0  0  0
   -4.3418   -1.9902    0.9873 H   0  0  0  0  0  0  0  0  0  0  0  0
    1.1442   -0.7343    1.9697 H   0  0  0  0  0  0  0  0  0  0  0  0
    2.4690   -1.1127   -0.0877 H   0  0  0  0  0  0  0  0  0  0  0  0
    1.6430    0.2005   -0.9278 H   0  0  0  0  0  0  0  0  0  0  0  0
    7.0871    0.5163    0.5826 H   0  0  0  0  0  0  0  0  0  0  0  0
    7.9530   -0.7578   -0.2770 H   0  0  0  0  0  0  0  0  0  0  0  0
    6.6656   -1.1624    0.8822 H   0  0  0  0  0  0  0  0  0  0  0  0
    7.2004    0.4189   -2.5940 H   0  0  0  0  0  0  0  0  0  0  0  0
    5.4620    0.7188   -2.8239 H   0  0  0  0  0  0  0  0  0  0  0  0
    6.3666    1.6416   -1.6343 H   0  0  0  0  0  0  0  0  0  0  0  0
    5.1415   -1.8161   -2.5049 H   0  0  0  0  0  0  0  0  0  0  0  0
    6.8699   -2.0455   -2.1590 H   0  0  0  0  0  0  0  0  0  0  0  0
    5.6305   -2.5793   -1.0021 H   0  0  0  0  0  0  0  0  0  0  0  0
    2.1245    2.7306    0.2608 H   0  0  0  0  0  0  0  0  0  0  0  0
    3.0891    2.6116    1.7357 H   0  0  0  0  0  0  0  0  0  0  0  0
    0.5875    2.8678    2.1288 H   0  0  0  0  0  0  0  0  0  0  0  0
    1.3099    1.4680    2.9365 H   0  0  0  0  0  0  0  0  0  0  0  0
  1  2  1  0
  2  3  1  0
  3  4  2  0
  4  5  1  0
  5  6  2  0
  6  7  1  0
  7  8  2  0
  7  9  1  0
  9 10  1  0
 10 11  2  0
 10 12  1  0
  9 13  1  0
 13 14  1  0
 14 15  2  0
 15 16  1  0
 15 17  1  0
 17 18  1  0
 18 19  2  0
 19 20  1  0
 20 21  2  0
 21 22  1  0
 22 23  2  0
 17 24  1  0
 24 25  1  0
 14 26  1  0
 26 27  1  0
 27 28  1  0
 28 29  1  0
 29 30  2  0
 29 31  1  0
 31 32  1  0
 32 33  1  0
 32 34  1  0
 32 35  1  0
 28 36  1  0
 36 37  1  0
 37 38  1  0
  8  3  1  0
  9 38  1  1
 12  6  1  0
 24 13  2  0
 38 26  1  0
 23 18  1  0
  1 39  1  0
  1 40  1  0
  1 41  1  0
  4 42  1  0
  5 43  1  0
  8 44  1  0
 12 45  1  0
 16 46  1  0
 19 47  1  0
 20 48  1  0
 21 49  1  0
 22 50  1  0
 23 51  1  0
 25 52  1  0
 26 53  1  1
 27 54  1  0
 27 55  1  0
 33 56  1  0
 33 57  1  0
 33 58  1  0
 34 59  1  0
 34 60  1  0
 34 61  1  0
 35 62  1  0
 35 63  1  0
 35 64  1  0
 36 65  1  0
 36 66  1  0
 37 67  1  0
 37 68  1  0
M  END
$$$$
