
     RDKit          3D

 33 34  0  0  0  0  0  0  0  0999 V2000
   -5.6164    1.0254    1.0020 C   0  0  0  0  0  0  0  0  0  0  0  0
   -4.6251    0.0068    0.9435 O   0  0  0  0  0  0  0  0  0  0  0  0
   -3.3313    0.4100    0.7571 C   0  0  0  0  0  0  0  0  0  0  0  0
   -2.8923    1.7271    0.6565 C   0  0  0  0  0  0  0  0  0  0  0  0
   -1.5333    1.9938    0.4744 C   0  0  0  0  0  0  0  0  0  0  0  0
   -0.6009    0.9470    0.3985 C   0  0  0  0  0  0  0  0  0  0  0  0
    0.8256    1.3346    0.2064 C   0  0  0  0  0  0  0  0  0  0  0  0
    1.0690    2.3187   -0.4957 O   0  0  0  0  0  0  0  0  0  0  0  0
    1.9170    0.5998    0.9551 C   0  0  0  0  0  0  0  0  0  0  0  0
    2.8567   -0.0428   -0.0046 C   0  0  0  0  0  0  0  0  0  0  0  0
    2.8531   -1.3231   -0.3176 N   0  0  0  0  0  0  0  0  0  0  0  0
    3.8495   -1.6501   -1.2133 N   0  0  0  0  0  0  0  0  0  0  0  0
    4.5873   -0.6097   -1.5360 C   0  0  0  0  0  0  0  0  0  0  0  0
    5.7292   -0.6394   -2.4825 C   0  0  0  0  0  0  0  0  0  0  0  0
    4.1235    0.8480   -0.7580 S   0  0  0  0  0  0  0  0  0  0  0  0
   -1.0402   -0.3825    0.4677 C   0  0  0  0  0  0  0  0  0  0  0  0
   -0.0981   -1.3611    0.3350 O   0  0  0  0  0  0  0  0  0  0  0  0
   -0.5439   -2.6830    0.0556 C   0  0  0  0  0  0  0  0  0  0  0  0
   -2.4042   -0.6356    0.6618 C   0  0  0  0  0  0  0  0  0  0  0  0
   -6.5870    0.5394    1.1408 H   0  0  0  0  0  0  0  0  0  0  0  0
   -5.6575    1.5898    0.0646 H   0  0  0  0  0  0  0  0  0  0  0  0
   -5.4509    1.6889    1.8571 H   0  0  0  0  0  0  0  0  0  0  0  0
   -3.5748    2.5688    0.7160 H   0  0  0  0  0  0  0  0  0  0  0  0
   -1.2010    3.0276    0.3911 H   0  0  0  0  0  0  0  0  0  0  0  0
    1.5097   -0.1347    1.6551 H   0  0  0  0  0  0  0  0  0  0  0  0
    2.4380    1.3351    1.5808 H   0  0  0  0  0  0  0  0  0  0  0  0
    6.0522   -1.6708   -2.6588 H   0  0  0  0  0  0  0  0  0  0  0  0
    6.5876   -0.0848   -2.0905 H   0  0  0  0  0  0  0  0  0  0  0  0
    5.4410   -0.2046   -3.4447 H   0  0  0  0  0  0  0  0  0  0  0  0
    0.3360   -3.2898   -0.1788 H   0  0  0  0  0  0  0  0  0  0  0  0
   -1.2070   -2.7059   -0.8155 H   0  0  0  0  0  0  0  0  0  0  0  0
   -1.0281   -3.1227    0.9332 H   0  0  0  0  0  0  0  0  0  0  0  0
   -2.7836   -1.6500    0.7437 H   0  0  0  0  0  0  0  0  0  0  0  0
  1  2  1  0
  2  3  1  0
  3  4  2  0
  4  5  1  0
  5  6  2  0
  6  7  1  0
  7  8  2  0
  7  9  1  0
  9 10  1  0
 10 11  2  0
 11 12  1  0
 12 13  2  0
 13 14  1  0
 13 15  1  0
  6 16  1  0
 16 17  1  0
 17 18  1  0
 16 19  2  0
 19  3  1  0
 15 10  1  0
  1 20  1  0
  1 21  1  0
  1 22  1  0
  4 23  1  0
  5 24  1  0
  9 25  1  0
  9 26  1  0
 14 27  1  0
 14 28  1  0
 14 29  1  0
 18 30  1  0
 18 31  1  0
 18 32  1  0
 19 33  1  0
M  END
$$$$
