
     RDKit          3D

 46 48  0  0  0  0  0  0  0  0999 V2000
    8.2304   -0.1609   -1.3257 C   0  0  0  0  0  0  0  0  0  0  0  0
    7.6081   -0.0868   -0.0489 O   0  0  0  0  0  0  0  0  0  0  0  0
    6.1966    0.1166   -0.1266 C   0  0  0  0  0  0  0  0  0  0  0  0
    5.4464   -1.2092   -0.2961 C   0  0  0  0  0  0  0  0  0  0  0  0
    4.0052   -1.0125   -0.4548 N   0  0  0  0  0  0  0  0  0  0  0  0
    3.2201   -0.9167    0.6808 C   0  0  0  0  0  0  0  0  0  0  0  0
    3.6168   -0.9814    1.8358 O   0  0  0  0  0  0  0  0  0  0  0  0
    1.7996   -0.6943    0.3070 C   0  0  0  0  0  0  0  0  0  0  0  0
    0.8364   -0.5823    1.2307 C   0  0  0  0  0  0  0  0  0  0  0  0
   -0.5842   -0.3471    0.9480 C   0  0  0  0  0  0  0  0  0  0  0  0
   -1.3823   -1.4210    0.5491 C   0  0  0  0  0  0  0  0  0  0  0  0
   -2.7418   -1.2340    0.2696 C   0  0  0  0  0  0  0  0  0  0  0  0
   -3.3577    0.0199    0.3745 C   0  0  0  0  0  0  0  0  0  0  0  0
   -4.6924    0.1991    0.0978 N   0  0  0  0  0  0  0  0  0  0  0  0
   -5.3527    1.5010    0.0334 C   0  0  0  0  0  0  0  0  0  0  0  0
   -6.7008    1.1992   -0.6166 C   0  0  0  0  0  0  0  0  0  0  0  0
   -6.9938   -0.2180   -0.1575 C   0  0  0  0  0  0  0  0  0  0  0  0
   -5.6220   -0.8856   -0.2085 C   0  0  0  0  0  0  0  0  0  0  0  0
   -2.5339    1.0831    0.7820 C   0  0  0  0  0  0  0  0  0  0  0  0
   -1.1626    0.9238    1.0729 C   0  0  0  0  0  0  0  0  0  0  0  0
   -0.3572    2.1213    1.4980 C   0  0  0  0  0  0  0  0  0  0  0  0
    1.6453   -0.5918   -1.3998 S   0  0  0  0  0  0  0  0  0  0  0  0
    3.3676   -0.8284   -1.6641 C   0  0  0  0  0  0  0  0  0  0  0  0
    4.0441   -0.8097   -3.1892 S   0  0  0  0  0  0  0  0  0  0  0  0
    8.0793    0.7707   -1.8794 H   0  0  0  0  0  0  0  0  0  0  0  0
    7.8473   -1.0076   -1.9013 H   0  0  0  0  0  0  0  0  0  0  0  0
    9.3039   -0.3035   -1.1746 H   0  0  0  0  0  0  0  0  0  0  0  0
    5.9556    0.8287   -0.9247 H   0  0  0  0  0  0  0  0  0  0  0  0
    5.8885    0.5862    0.8143 H   0  0  0  0  0  0  0  0  0  0  0  0
    5.8387   -1.7722   -1.1481 H   0  0  0  0  0  0  0  0  0  0  0  0
    5.6315   -1.8378    0.5839 H   0  0  0  0  0  0  0  0  0  0  0  0
    1.0821   -0.6522    2.2890 H   0  0  0  0  0  0  0  0  0  0  0  0
   -0.9590   -2.4174    0.4470 H   0  0  0  0  0  0  0  0  0  0  0  0
   -3.3110   -2.1034   -0.0462 H   0  0  0  0  0  0  0  0  0  0  0  0
   -5.4943    1.9008    1.0439 H   0  0  0  0  0  0  0  0  0  0  0  0
   -4.7987    2.2274   -0.5709 H   0  0  0  0  0  0  0  0  0  0  0  0
   -7.4762    1.9122   -0.3229 H   0  0  0  0  0  0  0  0  0  0  0  0
   -6.6059    1.2255   -1.7090 H   0  0  0  0  0  0  0  0  0  0  0  0
   -7.7306   -0.7265   -0.7853 H   0  0  0  0  0  0  0  0  0  0  0  0
   -7.3690   -0.2067    0.8731 H   0  0  0  0  0  0  0  0  0  0  0  0
   -5.4242   -1.2796   -1.2119 H   0  0  0  0  0  0  0  0  0  0  0  0
   -5.5729   -1.7024    0.5195 H   0  0  0  0  0  0  0  0  0  0  0  0
   -2.9630    2.0760    0.8904 H   0  0  0  0  0  0  0  0  0  0  0  0
    0.1026    1.9453    2.4759 H   0  0  0  0  0  0  0  0  0  0  0  0
    0.4225    2.3361    0.7602 H   0  0  0  0  0  0  0  0  0  0  0  0
   -0.9822    3.0161    1.5883 H   0  0  0  0  0  0  0  0  0  0  0  0
  1  2  1  0
  2  3  1  0
  3  4  1  0
  4  5  1  0
  5  6  1  0
  6  7  2  0
  6  8  1  0
  8  9  2  3
  9 10  1  0
 10 11  2  0
 11 12  1  0
 12 13  2  0
 13 14  1  0
 14 15  1  0
 15 16  1  0
 16 17  1  0
 17 18  1  0
 13 19  1  0
 19 20  2  0
 20 21  1  0
  8 22  1  0
 22 23  1  0
 23 24  2  0
 23  5  1  0
 20 10  1  0
 18 14  1  0
  1 25  1  0
  1 26  1  0
  1 27  1  0
  3 28  1  0
  3 29  1  0
  4 30  1  0
  4 31  1  0
  9 32  1  0
 11 33  1  0
 12 34  1  0
 15 35  1  0
 15 36  1  0
 16 37  1  0
 16 38  1  0
 17 39  1  0
 17 40  1  0
 18 41  1  0
 18 42  1  0
 19 43  1  0
 21 44  1  0
 21 45  1  0
 21 46  1  0
M  END
$$$$
