
     RDKit          3D

 45 47  0  0  0  0  0  0  0  0999 V2000
    5.9598    3.1924   -0.2208 C   0  0  0  0  0  0  0  0  0  0  0  0
    4.9843    2.0647   -0.0580 C   0  0  0  0  0  0  0  0  0  0  0  0
    5.0113    0.9661   -0.9187 C   0  0  0  0  0  0  0  0  0  0  0  0
    4.1102   -0.0868   -0.7457 C   0  0  0  0  0  0  0  0  0  0  0  0
    3.1735   -0.0725    0.3023 C   0  0  0  0  0  0  0  0  0  0  0  0
    2.2374   -1.1841    0.4328 C   0  0  0  0  0  0  0  0  0  0  0  0
    2.6107   -2.5119    0.3643 C   0  0  0  0  0  0  0  0  0  0  0  0
    1.2382   -3.5192    0.5619 S   0  0  0  0  0  0  0  0  0  0  0  0
    0.2475   -2.1214    0.7429 C   0  0  0  0  0  0  0  0  0  0  0  0
   -1.2197   -2.2639    1.0011 C   0  0  0  0  0  0  0  0  0  0  0  0
   -1.4958   -2.0467    2.4250 C   0  0  0  0  0  0  0  0  0  0  0  0
   -1.7263   -1.8811    3.5519 N   0  0  0  0  0  0  0  0  0  0  0  0
   -1.9384   -1.2126    0.1970 C   0  0  0  0  0  0  0  0  0  0  0  0
   -2.8880   -1.5366   -0.6274 N   0  0  0  0  0  0  0  0  0  0  0  0
   -3.5167   -0.4648   -1.2855 C   0  0  0  0  0  0  0  0  0  0  0  0
   -3.1201   -0.1733   -2.5969 C   0  0  0  0  0  0  0  0  0  0  0  0
   -3.6887    0.8925   -3.2942 C   0  0  0  0  0  0  0  0  0  0  0  0
   -4.6602    1.6799   -2.6844 C   0  0  0  0  0  0  0  0  0  0  0  0
   -5.0777    1.3900   -1.3849 C   0  0  0  0  0  0  0  0  0  0  0  0
   -4.5316    0.3054   -0.6821 C   0  0  0  0  0  0  0  0  0  0  0  0
   -5.1478    0.0154    0.9751 S   0  0  0  0  0  0  0  0  0  0  0  0
   -5.6126   -1.7194    0.8639 C   0  0  0  0  0  0  0  0  0  0  0  0
   -4.5941   -2.5495    1.1966 F   0  0  0  0  0  0  0  0  0  0  0  0
   -6.6210   -1.9831    1.7359 F   0  0  0  0  0  0  0  0  0  0  0  0
   -6.0642   -2.0680   -0.3634 F   0  0  0  0  0  0  0  0  0  0  0  0
    0.8853   -0.9720    0.6450 N   0  0  0  0  0  0  0  0  0  0  0  0
    3.1532    1.0231    1.1904 C   0  0  0  0  0  0  0  0  0  0  0  0
    2.1831    1.1140    2.3387 C   0  0  0  0  0  0  0  0  0  0  0  0
    4.0585    2.0826    0.9933 C   0  0  0  0  0  0  0  0  0  0  0  0
    6.7783    3.0852    0.4978 H   0  0  0  0  0  0  0  0  0  0  0  0
    6.3837    3.2069   -1.2306 H   0  0  0  0  0  0  0  0  0  0  0  0
    5.4648    4.1556   -0.0588 H   0  0  0  0  0  0  0  0  0  0  0  0
    5.7268    0.9242   -1.7371 H   0  0  0  0  0  0  0  0  0  0  0  0
    4.1388   -0.9132   -1.4516 H   0  0  0  0  0  0  0  0  0  0  0  0
    3.5961   -2.9323    0.2210 H   0  0  0  0  0  0  0  0  0  0  0  0
   -1.5847   -3.2508    0.6930 H   0  0  0  0  0  0  0  0  0  0  0  0
   -1.6414   -0.1566    0.3571 H   0  0  0  0  0  0  0  0  0  0  0  0
   -2.3601   -0.7841   -3.0764 H   0  0  0  0  0  0  0  0  0  0  0  0
   -3.3689    1.1091   -4.3108 H   0  0  0  0  0  0  0  0  0  0  0  0
   -5.0989    2.5168   -3.2224 H   0  0  0  0  0  0  0  0  0  0  0  0
   -5.8422    2.0154   -0.9295 H   0  0  0  0  0  0  0  0  0  0  0  0
    2.1473    0.1725    2.8972 H   0  0  0  0  0  0  0  0  0  0  0  0
    2.4838    1.8900    3.0521 H   0  0  0  0  0  0  0  0  0  0  0  0
    1.1831    1.3663    1.9717 H   0  0  0  0  0  0  0  0  0  0  0  0
    4.0432    2.9351    1.6713 H   0  0  0  0  0  0  0  0  0  0  0  0
  1  2  1  0
  2  3  2  0
  3  4  1  0
  4  5  2  0
  5  6  1  0
  6  7  2  0
  7  8  1  0
  8  9  1  0
  9 10  1  0
 10 11  1  0
 11 12  3  0
 10 13  1  0
 13 14  2  3
 14 15  1  0
 15 16  2  0
 16 17  1  0
 17 18  2  0
 18 19  1  0
 19 20  2  0
 20 21  1  0
 21 22  1  0
 22 23  1  0
 22 24  1  0
 22 25  1  0
  9 26  2  0
  5 27  1  0
 27 28  1  0
 27 29  2  0
 29  2  1  0
 26  6  1  0
 20 15  1  0
  1 30  1  0
  1 31  1  0
  1 32  1  0
  3 33  1  0
  4 34  1  0
  7 35  1  0
 10 36  1  0
 13 37  1  0
 16 38  1  0
 17 39  1  0
 18 40  1  0
 19 41  1  0
 28 42  1  0
 28 43  1  0
 28 44  1  0
 29 45  1  0
M  END
$$$$
