
     RDKit          3D

 62 64  0  0  0  0  0  0  0  0999 V2000
    7.7986    4.1160    3.2201 C   0  0  0  0  0  0  0  0  0  0  0  0
    7.6550    3.5609    1.9192 O   0  0  0  0  0  0  0  0  0  0  0  0
    6.3820    3.2831    1.5032 C   0  0  0  0  0  0  0  0  0  0  0  0
    5.2165    3.4638    2.2475 C   0  0  0  0  0  0  0  0  0  0  0  0
    3.9719    3.1346    1.6983 C   0  0  0  0  0  0  0  0  0  0  0  0
    3.8771    2.6255    0.3974 C   0  0  0  0  0  0  0  0  0  0  0  0
    2.5365    2.2503   -0.1842 C   0  0  0  0  0  0  0  0  0  0  0  0
    2.2040    0.7853    0.0852 C   0  0  0  0  0  0  0  0  0  0  0  0
    0.8570    0.3963   -0.4948 C   0  0  0  0  0  0  0  0  0  0  0  0
    0.1236    1.2034   -1.0553 O   0  0  0  0  0  0  0  0  0  0  0  0
    0.5835   -0.9388   -0.2849 N   0  0  0  0  0  0  0  0  0  0  0  0
   -0.5500   -1.6724   -0.6888 C   0  0  0  0  0  0  0  0  0  0  0  0
   -1.5313   -1.1772   -1.5450 C   0  0  0  0  0  0  0  0  0  0  0  0
   -2.6437   -1.9679   -1.8448 C   0  0  0  0  0  0  0  0  0  0  0  0
   -3.8961   -1.3335   -2.9427 S   0  0  0  0  0  6  0  0  0  0  0  0
   -4.7281   -2.4527   -3.3370 O   0  0  0  0  0  0  0  0  0  0  0  0
   -3.2321   -0.5160   -3.9347 O   0  0  0  0  0  0  0  0  0  0  0  0
   -4.8221   -0.3306   -1.9359 N   0  0  0  0  0  0  0  0  0  0  0  0
   -4.2707    1.0022   -1.5980 C   0  0  0  0  0  0  0  0  0  0  0  0
   -5.2918    1.7913   -0.7864 C   0  0  0  0  0  0  0  0  0  0  0  0
   -5.6119    1.0992    0.5381 C   0  0  0  0  0  0  0  0  0  0  0  0
   -5.3877   -0.4108    0.4795 C   0  0  0  0  0  0  0  0  0  0  0  0
   -5.6727   -0.9734   -0.9072 C   0  0  0  0  0  0  0  0  0  0  0  0
   -2.7567   -3.2670   -1.3408 C   0  0  0  0  0  0  0  0  0  0  0  0
   -1.7593   -3.7744   -0.5063 C   0  0  0  0  0  0  0  0  0  0  0  0
   -0.6487   -2.9873   -0.1668 C   0  0  0  0  0  0  0  0  0  0  0  0
    0.4019   -3.4581    0.6754 N   0  0  0  0  0  0  0  0  0  0  0  0
   -0.0907   -3.8923    1.9879 C   0  0  0  0  0  0  0  0  0  0  0  0
    1.2054   -4.4739   -0.0192 C   0  0  0  0  0  0  0  0  0  0  0  0
    5.0491    2.4421   -0.3438 C   0  0  0  0  0  0  0  0  0  0  0  0
    6.2897    2.7704    0.2076 C   0  0  0  0  0  0  0  0  0  0  0  0
    7.2866    5.0809    3.2971 H   0  0  0  0  0  0  0  0  0  0  0  0
    7.4469    3.4186    3.9874 H   0  0  0  0  0  0  0  0  0  0  0  0
    8.8649    4.2905    3.3931 H   0  0  0  0  0  0  0  0  0  0  0  0
    5.2384    3.8583    3.2576 H   0  0  0  0  0  0  0  0  0  0  0  0
    3.0743    3.2826    2.2949 H   0  0  0  0  0  0  0  0  0  0  0  0
    1.7600    2.9028    0.2359 H   0  0  0  0  0  0  0  0  0  0  0  0
    2.5381    2.4506   -1.2636 H   0  0  0  0  0  0  0  0  0  0  0  0
    2.9700    0.1353   -0.3557 H   0  0  0  0  0  0  0  0  0  0  0  0
    2.1807    0.5942    1.1653 H   0  0  0  0  0  0  0  0  0  0  0  0
    1.2026   -1.4858    0.3109 H   0  0  0  0  0  0  0  0  0  0  0  0
   -1.4435   -0.1920   -1.9918 H   0  0  0  0  0  0  0  0  0  0  0  0
   -3.3435    0.9071   -1.0263 H   0  0  0  0  0  0  0  0  0  0  0  0
   -4.0568    1.5519   -2.5205 H   0  0  0  0  0  0  0  0  0  0  0  0
   -6.2160    1.8950   -1.3700 H   0  0  0  0  0  0  0  0  0  0  0  0
   -4.9258    2.8061   -0.5944 H   0  0  0  0  0  0  0  0  0  0  0  0
   -4.9917    1.5183    1.3395 H   0  0  0  0  0  0  0  0  0  0  0  0
   -6.6525    1.3147    0.8091 H   0  0  0  0  0  0  0  0  0  0  0  0
   -4.3471   -0.6305    0.7516 H   0  0  0  0  0  0  0  0  0  0  0  0
   -6.0171   -0.9059    1.2274 H   0  0  0  0  0  0  0  0  0  0  0  0
   -5.5257   -2.0576   -0.8858 H   0  0  0  0  0  0  0  0  0  0  0  0
   -6.7212   -0.8025   -1.1788 H   0  0  0  0  0  0  0  0  0  0  0  0
   -3.6074   -3.8931   -1.6021 H   0  0  0  0  0  0  0  0  0  0  0  0
   -1.8531   -4.7908   -0.1346 H   0  0  0  0  0  0  0  0  0  0  0  0
    0.7602   -4.0807    2.6517 H   0  0  0  0  0  0  0  0  0  0  0  0
   -0.6793   -4.8146    1.9284 H   0  0  0  0  0  0  0  0  0  0  0  0
   -0.6981   -3.1092    2.4563 H   0  0  0  0  0  0  0  0  0  0  0  0
    1.5898   -4.0865   -0.9700 H   0  0  0  0  0  0  0  0  0  0  0  0
    0.6355   -5.3901   -0.2119 H   0  0  0  0  0  0  0  0  0  0  0  0
    2.0726   -4.7386    0.5956 H   0  0  0  0  0  0  0  0  0  0  0  0
    5.0064    2.0460   -1.3559 H   0  0  0  0  0  0  0  0  0  0  0  0
    7.1936    2.6270   -0.3793 H   0  0  0  0  0  0  0  0  0  0  0  0
  1  2  1  0
  2  3  1  0
  3  4  2  0
  4  5  1  0
  5  6  2  0
  6  7  1  0
  7  8  1  0
  8  9  1  0
  9 10  2  0
  9 11  1  0
 11 12  1  0
 12 13  2  0
 13 14  1  0
 14 15  1  0
 15 16  2  0
 15 17  2  0
 15 18  1  0
 18 19  1  0
 19 20  1  0
 20 21  1  0
 21 22  1  0
 22 23  1  0
 14 24  2  0
 24 25  1  0
 25 26  2  0
 26 27  1  0
 27 28  1  0
 27 29  1  0
  6 30  1  0
 30 31  2  0
 31  3  1  0
 26 12  1  0
 23 18  1  0
  1 32  1  0
  1 33  1  0
  1 34  1  0
  4 35  1  0
  5 36  1  0
  7 37  1  0
  7 38  1  0
  8 39  1  0
  8 40  1  0
 11 41  1  0
 13 42  1  0
 19 43  1  0
 19 44  1  0
 20 45  1  0
 20 46  1  0
 21 47  1  0
 21 48  1  0
 22 49  1  0
 22 50  1  0
 23 51  1  0
 23 52  1  0
 24 53  1  0
 25 54  1  0
 28 55  1  0
 28 56  1  0
 28 57  1  0
 29 58  1  0
 29 59  1  0
 29 60  1  0
 30 61  1  0
 31 62  1  0
M  END
$$$$
