
     RDKit          3D

 43 46  0  0  0  0  0  0  0  0999 V2000
   -2.0335    0.7954   -1.8414 O   0  0  0  0  0  0  0  0  0  0  0  0
   -1.3842    0.8340   -0.4780 P   0  0  0  0  0  5  0  0  0  0  0  0
   -1.6797   -0.3916    0.6215 N   0  0  0  0  0  0  0  0  0  0  0  0
   -2.6599   -1.3800    0.3363 C   0  0  0  0  0  0  0  0  0  0  0  0
   -2.2889   -2.7354    0.2228 C   0  0  0  0  0  0  0  0  0  0  0  0
   -0.6531   -3.2311    0.4861 Cl  0  0  0  0  0  0  0  0  0  0  0  0
   -3.2217   -3.7242   -0.1064 C   0  0  0  0  0  0  0  0  0  0  0  0
   -4.5491   -3.3778   -0.3332 C   0  0  0  0  0  0  0  0  0  0  0  0
   -4.9436   -2.0470   -0.2212 C   0  0  0  0  0  0  0  0  0  0  0  0
   -4.0104   -1.0556    0.1110 C   0  0  0  0  0  0  0  0  0  0  0  0
   -4.6064    0.5589    0.3170 Cl  0  0  0  0  0  0  0  0  0  0  0  0
   -1.1669    2.4502    0.2341 C   0  0  0  0  0  0  0  0  0  0  0  0
   -0.9759    3.5662   -0.5935 C   0  0  0  0  0  0  0  0  0  0  0  0
   -0.8064    4.8377   -0.0437 C   0  0  0  0  0  0  0  0  0  0  0  0
   -0.8303    5.0076    1.3397 C   0  0  0  0  0  0  0  0  0  0  0  0
   -1.0264    3.9088    2.1737 C   0  0  0  0  0  0  0  0  0  0  0  0
   -1.1947    2.6370    1.6243 C   0  0  0  0  0  0  0  0  0  0  0  0
    0.3249    0.2908   -0.5978 C   0  0  0  0  0  0  0  0  0  0  0  0
    1.0031   -0.1578    0.4506 N   0  0  0  0  0  0  0  0  0  0  0  0
    2.2557   -0.5560    0.0378 C   0  0  0  0  0  0  0  0  0  0  0  0
    2.5032   -0.4212   -1.3157 C   0  0  0  0  0  0  0  0  0  0  0  0
    1.1576    0.2535   -2.1037 S   0  0  0  0  0  0  0  0  0  0  0  0
    3.7712   -0.8007   -2.0008 C   0  0  0  0  0  0  0  0  0  0  0  0
    4.5889   -1.7419   -1.0989 C   0  0  0  0  0  0  0  0  0  0  0  0
    4.6423   -1.2370    0.3535 C   0  0  0  0  0  0  0  0  0  0  0  0
    3.2435   -1.1379    0.9921 C   0  0  0  0  0  0  0  0  0  0  0  0
   -0.8188   -0.8379    0.9507 H   0  0  0  0  0  0  0  0  0  0  0  0
   -2.9139   -4.7647   -0.1890 H   0  0  0  0  0  0  0  0  0  0  0  0
   -5.2749   -4.1387   -0.5921 H   0  0  0  0  0  0  0  0  0  0  0  0
   -5.9850   -1.7834   -0.3869 H   0  0  0  0  0  0  0  0  0  0  0  0
   -0.9692    3.4419   -1.6761 H   0  0  0  0  0  0  0  0  0  0  0  0
   -0.6596    5.6957   -0.6978 H   0  0  0  0  0  0  0  0  0  0  0  0
   -0.6981    5.9984    1.7642 H   0  0  0  0  0  0  0  0  0  0  0  0
   -1.0486    4.0410    3.2534 H   0  0  0  0  0  0  0  0  0  0  0  0
   -1.3491    1.7847    2.2835 H   0  0  0  0  0  0  0  0  0  0  0  0
    3.5728   -1.2905   -2.9629 H   0  0  0  0  0  0  0  0  0  0  0  0
    4.3582    0.1059   -2.2095 H   0  0  0  0  0  0  0  0  0  0  0  0
    4.1393   -2.7446   -1.1132 H   0  0  0  0  0  0  0  0  0  0  0  0
    5.6034   -1.8394   -1.5002 H   0  0  0  0  0  0  0  0  0  0  0  0
    5.2722   -1.8994    0.9575 H   0  0  0  0  0  0  0  0  0  0  0  0
    5.1167   -0.2483    0.3620 H   0  0  0  0  0  0  0  0  0  0  0  0
    2.9021   -2.1401    1.2880 H   0  0  0  0  0  0  0  0  0  0  0  0
    3.2932   -0.5257    1.9020 H   0  0  0  0  0  0  0  0  0  0  0  0
  1  2  2  0
  2  3  1  0
  3  4  1  0
  4  5  2  0
  5  6  1  0
  5  7  1  0
  7  8  2  0
  8  9  1  0
  9 10  2  0
 10 11  1  0
  2 12  1  0
 12 13  2  0
 13 14  1  0
 14 15  2  0
 15 16  1  0
 16 17  2  0
  2 18  1  0
 18 19  2  0
 19 20  1  0
 20 21  2  0
 21 22  1  0
 21 23  1  0
 23 24  1  0
 24 25  1  0
 25 26  1  0
 10  4  1  0
 17 12  1  0
 22 18  1  0
 26 20  1  0
  3 27  1  0
  7 28  1  0
  8 29  1  0
  9 30  1  0
 13 31  1  0
 14 32  1  0
 15 33  1  0
 16 34  1  0
 17 35  1  0
 23 36  1  0
 23 37  1  0
 24 38  1  0
 24 39  1  0
 25 40  1  0
 25 41  1  0
 26 42  1  0
 26 43  1  0
M  END
$$$$
