
     RDKit          3D

 48 50  0  0  0  0  0  0  0  0999 V2000
    6.0225   -1.9757    1.0417 C   0  0  0  0  0  0  0  0  0  0  0  0
    6.9014   -0.7752    0.7299 C   0  0  0  0  0  0  0  0  0  0  0  0
    6.1297    0.4895    0.3368 C   0  0  0  0  0  0  0  0  0  0  0  0
    5.3166    1.1126    1.4739 C   0  0  0  0  0  0  0  0  0  0  0  0
    4.1779    0.3284    1.8209 O   0  0  0  0  0  0  0  0  0  0  0  0
    3.0089    0.5187    1.1420 C   0  0  0  0  0  0  0  0  0  0  0  0
    2.8147    1.3414    0.0372 C   0  0  0  0  0  0  0  0  0  0  0  0
    1.5497    1.4297   -0.5620 C   0  0  0  0  0  0  0  0  0  0  0  0
    0.4483    0.7149   -0.0647 C   0  0  0  0  0  0  0  0  0  0  0  0
   -0.7849    0.8102   -0.7404 N   0  0  0  0  0  0  0  0  0  0  0  0
   -2.0330    0.5100   -0.2604 C   0  0  0  0  0  0  0  0  0  0  0  0
   -2.3399    0.1724    0.9451 N   0  0  0  0  0  0  0  0  0  0  0  0
   -3.6515   -0.0039    1.2465 C   0  0  0  0  0  0  0  0  0  0  0  0
   -3.9547   -0.1008    2.5640 N   0  0  0  0  0  0  0  0  0  0  0  0
   -4.6039   -0.1181    0.3888 N   0  0  0  0  0  0  0  0  0  0  0  0
   -4.2137   -0.0333   -1.0061 C   0  0  0  0  0  0  0  0  0  0  0  0
   -5.3293    0.6653   -1.7892 C   0  0  0  0  0  0  0  0  0  0  0  0
   -6.4102   -0.3974   -1.9797 C   0  0  0  0  0  0  0  0  0  0  0  0
   -5.7097   -1.7486   -1.8489 C   0  0  0  0  0  0  0  0  0  0  0  0
   -4.2322   -1.4401   -1.6193 C   0  0  0  0  0  0  0  0  0  0  0  0
   -2.9586    0.6242   -1.2493 N   0  0  0  0  0  0  0  0  0  0  0  0
    0.6682   -0.1295    1.0258 C   0  0  0  0  0  0  0  0  0  0  0  0
    1.9301   -0.2205    1.6257 C   0  0  0  0  0  0  0  0  0  0  0  0
    5.3024   -2.1589    0.2382 H   0  0  0  0  0  0  0  0  0  0  0  0
    5.4758   -1.8409    1.9789 H   0  0  0  0  0  0  0  0  0  0  0  0
    6.6407   -2.8726    1.1526 H   0  0  0  0  0  0  0  0  0  0  0  0
    7.5614   -1.0426   -0.1045 H   0  0  0  0  0  0  0  0  0  0  0  0
    7.5509   -0.5657    1.5878 H   0  0  0  0  0  0  0  0  0  0  0  0
    6.8609    1.2332   -0.0026 H   0  0  0  0  0  0  0  0  0  0  0  0
    5.4845    0.2583   -0.5178 H   0  0  0  0  0  0  0  0  0  0  0  0
    5.9434    1.1720    2.3715 H   0  0  0  0  0  0  0  0  0  0  0  0
    5.0366    2.1479    1.2466 H   0  0  0  0  0  0  0  0  0  0  0  0
    3.6217    1.9213   -0.3959 H   0  0  0  0  0  0  0  0  0  0  0  0
    1.4368    2.0755   -1.4295 H   0  0  0  0  0  0  0  0  0  0  0  0
   -0.7973    1.5439   -1.4349 H   0  0  0  0  0  0  0  0  0  0  0  0
   -4.8135   -0.6083    2.7217 H   0  0  0  0  0  0  0  0  0  0  0  0
   -3.1661   -0.4134    3.1129 H   0  0  0  0  0  0  0  0  0  0  0  0
   -5.7215    1.5503   -1.2760 H   0  0  0  0  0  0  0  0  0  0  0  0
   -4.9710    0.9919   -2.7744 H   0  0  0  0  0  0  0  0  0  0  0  0
   -7.1828   -0.3017   -1.2081 H   0  0  0  0  0  0  0  0  0  0  0  0
   -6.9041   -0.2889   -2.9507 H   0  0  0  0  0  0  0  0  0  0  0  0
   -5.8535   -2.3700   -2.7386 H   0  0  0  0  0  0  0  0  0  0  0  0
   -6.1216   -2.2998   -0.9955 H   0  0  0  0  0  0  0  0  0  0  0  0
   -3.7589   -2.1934   -0.9799 H   0  0  0  0  0  0  0  0  0  0  0  0
   -3.7091   -1.4561   -2.5845 H   0  0  0  0  0  0  0  0  0  0  0  0
   -2.5966    0.4652   -2.1799 H   0  0  0  0  0  0  0  0  0  0  0  0
   -0.1339   -0.7421    1.4265 H   0  0  0  0  0  0  0  0  0  0  0  0
    2.0684   -0.8813    2.4780 H   0  0  0  0  0  0  0  0  0  0  0  0
  1  2  1  0
  2  3  1  0
  3  4  1  0
  4  5  1  0
  5  6  1  0
  6  7  2  0
  7  8  1  0
  8  9  2  0
  9 10  1  0
 10 11  1  0
 11 12  2  0
 12 13  1  0
 13 14  1  0
 13 15  2  0
 15 16  1  0
 16 17  1  0
 17 18  1  0
 18 19  1  0
 19 20  1  0
 16 21  1  0
  9 22  1  0
 22 23  2  0
 23  6  1  0
 21 11  1  0
 20 16  1  0
  1 24  1  0
  1 25  1  0
  1 26  1  0
  2 27  1  0
  2 28  1  0
  3 29  1  0
  3 30  1  0
  4 31  1  0
  4 32  1  0
  7 33  1  0
  8 34  1  0
 10 35  1  0
 14 36  1  0
 14 37  1  0
 17 38  1  0
 17 39  1  0
 18 40  1  0
 18 41  1  0
 19 42  1  0
 19 43  1  0
 20 44  1  0
 20 45  1  0
 21 46  1  0
 22 47  1  0
 23 48  1  0
M  END
$$$$
