
     RDKit          3D

 57 61  0  0  0  0  0  0  0  0999 V2000
   -6.9213    1.5767    3.9720 C   0  0  0  0  0  0  0  0  0  0  0  0
   -6.0661    1.2735    2.7778 C   0  0  0  0  0  0  0  0  0  0  0  0
   -4.8298    0.6413    2.9301 C   0  0  0  0  0  0  0  0  0  0  0  0
   -4.0473    0.3288    1.8112 C   0  0  0  0  0  0  0  0  0  0  0  0
   -4.4797    0.6299    0.5071 C   0  0  0  0  0  0  0  0  0  0  0  0
   -3.6683    0.3110   -0.6861 C   0  0  0  0  0  0  0  0  0  0  0  0
   -2.2843    0.3347   -0.6856 C   0  0  0  0  0  0  0  0  0  0  0  0
   -1.6133    0.0185   -1.8691 C   0  0  0  0  0  0  0  0  0  0  0  0
   -0.1327    0.0435   -1.8396 C   0  0  0  0  0  0  0  0  0  0  0  0
    0.4526    0.8392   -2.5595 O   0  0  0  0  0  0  0  0  0  0  0  0
    0.4155   -0.8775   -0.9673 N   0  0  0  0  0  0  0  0  0  0  0  0
    1.7827   -1.0855   -0.6922 C   0  0  0  0  0  0  0  0  0  0  0  0
    2.8152   -0.3352   -1.2617 C   0  0  0  0  0  0  0  0  0  0  0  0
    4.1502   -0.6007   -0.9374 C   0  0  0  0  0  0  0  0  0  0  0  0
    4.4533   -1.6123   -0.0255 C   0  0  0  0  0  0  0  0  0  0  0  0
    6.1456   -1.9856    0.3657 S   0  0  0  0  0  6  0  0  0  0  0  0
    6.2290   -3.4305    0.4678 O   0  0  0  0  0  0  0  0  0  0  0  0
    7.0194   -1.2735   -0.5426 O   0  0  0  0  0  0  0  0  0  0  0  0
    6.3325   -1.4133    1.9140 N   0  0  0  0  0  0  0  0  0  0  0  0
    6.6012   -0.0585    2.0605 C   0  0  0  0  0  0  0  0  0  0  0  0
    5.8512    0.8281    1.4048 N   0  0  0  0  0  0  0  0  0  0  0  0
    6.0817    2.1191    1.7061 C   0  0  0  0  0  0  0  0  0  0  0  0
    6.9879    2.5250    2.6585 C   0  0  0  0  0  0  0  0  0  0  0  0
    7.6567    1.5133    3.3087 C   0  0  0  0  0  0  0  0  0  0  0  0
    7.4669    0.2060    3.0445 N   0  0  0  0  0  0  0  0  0  0  0  0
    3.4341   -2.3780    0.5438 C   0  0  0  0  0  0  0  0  0  0  0  0
    2.1033   -2.1094    0.2115 C   0  0  0  0  0  0  0  0  0  0  0  0
   -2.3160   -0.3020   -3.0479 C   0  0  0  0  0  0  0  0  0  0  0  0
   -1.7143   -0.6300   -4.2890 C   0  0  0  0  0  0  0  0  0  0  0  0
   -2.4911   -0.9454   -5.4018 C   0  0  0  0  0  0  0  0  0  0  0  0
   -3.8739   -0.9394   -5.2919 C   0  0  0  0  0  0  0  0  0  0  0  0
   -4.4690   -0.6169   -4.0700 C   0  0  0  0  0  0  0  0  0  0  0  0
   -3.7175   -0.2982   -2.9464 C   0  0  0  0  0  0  0  0  0  0  0  0
   -4.3658   -0.0048   -1.8053 N   0  0  0  0  0  0  0  0  0  0  0  0
   -5.7374    1.2443    0.3740 C   0  0  0  0  0  0  0  0  0  0  0  0
   -6.5211    1.5602    1.4892 C   0  0  0  0  0  0  0  0  0  0  0  0
   -6.3043    1.7695    4.8560 H   0  0  0  0  0  0  0  0  0  0  0  0
   -7.5846    0.7319    4.1813 H   0  0  0  0  0  0  0  0  0  0  0  0
   -7.5295    2.4709    3.7995 H   0  0  0  0  0  0  0  0  0  0  0  0
   -4.4663    0.3819    3.9221 H   0  0  0  0  0  0  0  0  0  0  0  0
   -3.0994   -0.1760    1.9791 H   0  0  0  0  0  0  0  0  0  0  0  0
   -1.7278    0.6269    0.1988 H   0  0  0  0  0  0  0  0  0  0  0  0
   -0.2287   -1.5041   -0.4998 H   0  0  0  0  0  0  0  0  0  0  0  0
    2.6172    0.4672   -1.9661 H   0  0  0  0  0  0  0  0  0  0  0  0
    4.9406   -0.0064   -1.3915 H   0  0  0  0  0  0  0  0  0  0  0  0
    6.9269   -1.9981    2.4895 H   0  0  0  0  0  0  0  0  0  0  0  0
    5.4935    2.8397    1.1449 H   0  0  0  0  0  0  0  0  0  0  0  0
    7.1579    3.5681    2.8849 H   0  0  0  0  0  0  0  0  0  0  0  0
    8.3845    1.7301    4.0856 H   0  0  0  0  0  0  0  0  0  0  0  0
    3.6683   -3.1812    1.2385 H   0  0  0  0  0  0  0  0  0  0  0  0
    1.3242   -2.7159    0.6665 H   0  0  0  0  0  0  0  0  0  0  0  0
   -0.6306   -0.6317   -4.3982 H   0  0  0  0  0  0  0  0  0  0  0  0
   -2.0155   -1.1897   -6.3485 H   0  0  0  0  0  0  0  0  0  0  0  0
   -4.4939   -1.1811   -6.1512 H   0  0  0  0  0  0  0  0  0  0  0  0
   -5.5543   -0.6138   -3.9921 H   0  0  0  0  0  0  0  0  0  0  0  0
   -6.1189    1.4840   -0.6179 H   0  0  0  0  0  0  0  0  0  0  0  0
   -7.4895    2.0313    1.3384 H   0  0  0  0  0  0  0  0  0  0  0  0
  1  2  1  0
  2  3  2  0
  3  4  1  0
  4  5  2  0
  5  6  1  0
  6  7  2  0
  7  8  1  0
  8  9  1  0
  9 10  2  0
  9 11  1  0
 11 12  1  0
 12 13  2  0
 13 14  1  0
 14 15  2  0
 15 16  1  0
 16 17  2  0
 16 18  2  0
 16 19  1  0
 19 20  1  0
 20 21  2  0
 21 22  1  0
 22 23  2  0
 23 24  1  0
 24 25  2  0
 15 26  1  0
 26 27  2  0
  8 28  2  0
 28 29  1  0
 29 30  2  0
 30 31  1  0
 31 32  2  0
 32 33  1  0
 33 34  2  0
  5 35  1  0
 35 36  2  0
 36  2  1  0
 34  6  1  0
 27 12  1  0
 33 28  1  0
 25 20  1  0
  1 37  1  0
  1 38  1  0
  1 39  1  0
  3 40  1  0
  4 41  1  0
  7 42  1  0
 11 43  1  0
 13 44  1  0
 14 45  1  0
 19 46  1  0
 22 47  1  0
 23 48  1  0
 24 49  1  0
 26 50  1  0
 27 51  1  0
 29 52  1  0
 30 53  1  0
 31 54  1  0
 32 55  1  0
 35 56  1  0
 36 57  1  0
M  END
$$$$
