
     RDKit          3D

 29 31  0  0  0  0  0  0  0  0999 V2000
   -5.2577    1.1181   -1.1550 O   0  0  0  0  0  0  0  0  0  0  0  0
   -4.7810    0.0483   -1.4971 C   0  0  0  0  0  0  0  0  0  0  0  0
   -5.5000   -0.9808   -2.0358 N   0  0  0  0  0  0  0  0  0  0  0  0
   -4.8361   -2.1198   -2.3684 C   0  0  0  0  0  0  0  0  0  0  0  0
   -5.5657   -3.4515   -3.0261 S   0  0  0  0  0  0  0  0  0  0  0  0
   -3.1390   -1.9422   -1.9920 S   0  0  0  0  0  0  0  0  0  0  0  0
   -3.3451   -0.3385   -1.3914 C   0  0  0  0  0  0  0  0  0  0  0  0
   -2.4488    0.5337   -0.9150 C   0  0  0  0  0  0  0  0  0  0  0  0
   -1.0484    0.3326   -0.7628 C   0  0  0  0  0  0  0  0  0  0  0  0
   -0.2651   -0.8042   -0.6162 C   0  0  0  0  0  0  0  0  0  0  0  0
    1.0858   -0.3947   -0.4873 C   0  0  0  0  0  0  0  0  0  0  0  0
    1.0901    0.9806   -0.5356 C   0  0  0  0  0  0  0  0  0  0  0  0
    2.3948    2.1340   -0.4415 S   0  0  0  0  0  0  0  0  0  0  0  0
    3.7852    1.1599    0.1901 C   0  0  0  0  0  0  0  0  0  0  0  0
    3.5994    0.7343    1.6005 C   0  0  0  0  0  0  0  0  0  0  0  0
    3.4027    1.4132    2.7867 C   0  0  0  0  0  0  0  0  0  0  0  0
    3.3060    0.4301    3.8002 C   0  0  0  0  0  0  0  0  0  0  0  0
    3.4575   -0.7834    3.1727 C   0  0  0  0  0  0  0  0  0  0  0  0
    3.6408   -0.6099    1.8390 O   0  0  0  0  0  0  0  0  0  0  0  0
   -0.1935    1.4115   -0.6984 O   0  0  0  0  0  0  0  0  0  0  0  0
   -6.4941   -0.8838   -2.1768 H   0  0  0  0  0  0  0  0  0  0  0  0
   -2.7948    1.5282   -0.6350 H   0  0  0  0  0  0  0  0  0  0  0  0
   -0.6140   -1.8264   -0.5897 H   0  0  0  0  0  0  0  0  0  0  0  0
    1.9407   -1.0430   -0.3610 H   0  0  0  0  0  0  0  0  0  0  0  0
    4.6806    1.7885    0.1304 H   0  0  0  0  0  0  0  0  0  0  0  0
    3.9644    0.3016   -0.4659 H   0  0  0  0  0  0  0  0  0  0  0  0
    3.3296    2.4863    2.9009 H   0  0  0  0  0  0  0  0  0  0  0  0
    3.1453    0.5860    4.8576 H   0  0  0  0  0  0  0  0  0  0  0  0
    3.4603   -1.8086    3.5158 H   0  0  0  0  0  0  0  0  0  0  0  0
  1  2  2  0
  2  3  1  0
  3  4  1  0
  4  5  2  0
  4  6  1  0
  6  7  1  0
  7  8  2  3
  8  9  1  0
  9 10  2  0
 10 11  1  0
 11 12  2  0
 12 13  1  0
 13 14  1  0
 14 15  1  0
 15 16  2  0
 16 17  1  0
 17 18  2  0
 18 19  1  0
 12 20  1  0
  7  2  1  0
 20  9  1  0
 19 15  1  0
  3 21  1  0
  8 22  1  0
 10 23  1  0
 11 24  1  0
 14 25  1  0
 14 26  1  0
 16 27  1  0
 17 28  1  0
 18 29  1  0
M  END
$$$$
