
     RDKit          3D

 46 49  0  0  0  0  0  0  0  0999 V2000
    6.3974    0.9312   -1.7089 N   0  0  0  0  0  0  0  0  0  0  0  0
    5.6401   -0.5445   -1.9722 S   0  0  0  0  0  6  0  0  0  0  0  0
    6.3396   -1.4972   -1.1414 O   0  0  0  0  0  0  0  0  0  0  0  0
    5.5453   -0.6911   -3.4058 O   0  0  0  0  0  0  0  0  0  0  0  0
    4.0310   -0.2546   -1.3042 C   0  0  0  0  0  0  0  0  0  0  0  0
    3.7480   -0.6157    0.0116 C   0  0  0  0  0  0  0  0  0  0  0  0
    2.4623   -0.4051    0.5268 C   0  0  0  0  0  0  0  0  0  0  0  0
    1.4360    0.1567   -0.2518 C   0  0  0  0  0  0  0  0  0  0  0  0
    0.1514    0.3716    0.2446 N   0  0  0  0  0  0  0  0  0  0  0  0
   -0.8086    0.9590   -0.5296 N   0  0  0  0  0  0  0  0  0  0  0  0
   -1.8282    1.2004    0.2376 C   0  0  0  0  0  0  0  0  0  0  0  0
   -3.0834    1.8163   -0.2529 C   0  0  0  0  0  0  0  0  0  0  0  0
   -3.2246    2.0673   -1.6236 C   0  0  0  0  0  0  0  0  0  0  0  0
   -4.3959    2.6453   -2.1165 C   0  0  0  0  0  0  0  0  0  0  0  0
   -5.4304    2.9759   -1.2433 C   0  0  0  0  0  0  0  0  0  0  0  0
   -5.2954    2.7304    0.1226 C   0  0  0  0  0  0  0  0  0  0  0  0
   -4.1244    2.1519    0.6201 C   0  0  0  0  0  0  0  0  0  0  0  0
   -1.6350    0.8393    1.6846 C   0  0  0  0  0  0  0  0  0  0  0  0
   -0.3062    0.0851    1.6056 C   0  0  0  0  0  0  0  0  0  0  0  0
   -0.5070   -1.4007    1.8765 C   0  0  0  0  0  0  0  0  0  0  0  0
   -0.2864   -1.9016    3.1728 C   0  0  0  0  0  0  0  0  0  0  0  0
   -0.4858   -3.2545    3.4547 C   0  0  0  0  0  0  0  0  0  0  0  0
   -0.9111   -4.1106    2.4467 C   0  0  0  0  0  0  0  0  0  0  0  0
   -1.1030   -5.4075    2.7211 F   0  0  0  0  0  0  0  0  0  0  0  0
   -1.1429   -3.6404    1.1612 C   0  0  0  0  0  0  0  0  0  0  0  0
   -0.9454   -2.2882    0.8767 C   0  0  0  0  0  0  0  0  0  0  0  0
    1.7577    0.4952   -1.5801 C   0  0  0  0  0  0  0  0  0  0  0  0
    3.0363    0.2918   -2.1107 C   0  0  0  0  0  0  0  0  0  0  0  0
    7.1878    0.8050   -1.0768 H   0  0  0  0  0  0  0  0  0  0  0  0
    6.6449    1.3555   -2.6029 H   0  0  0  0  0  0  0  0  0  0  0  0
    4.5121   -1.0629    0.6432 H   0  0  0  0  0  0  0  0  0  0  0  0
    2.2808   -0.7027    1.5552 H   0  0  0  0  0  0  0  0  0  0  0  0
   -2.4242    1.8135   -2.3159 H   0  0  0  0  0  0  0  0  0  0  0  0
   -4.4988    2.8365   -3.1818 H   0  0  0  0  0  0  0  0  0  0  0  0
   -6.3424    3.4260   -1.6281 H   0  0  0  0  0  0  0  0  0  0  0  0
   -6.1041    2.9910    0.8013 H   0  0  0  0  0  0  0  0  0  0  0  0
   -4.0492    1.9776    1.6889 H   0  0  0  0  0  0  0  0  0  0  0  0
   -1.5282    1.7620    2.2651 H   0  0  0  0  0  0  0  0  0  0  0  0
   -2.4654    0.2454    2.0758 H   0  0  0  0  0  0  0  0  0  0  0  0
    0.3927    0.5060    2.3397 H   0  0  0  0  0  0  0  0  0  0  0  0
    0.0448   -1.2417    3.9721 H   0  0  0  0  0  0  0  0  0  0  0  0
   -0.3127   -3.6465    4.4519 H   0  0  0  0  0  0  0  0  0  0  0  0
   -1.4727   -4.3257    0.3870 H   0  0  0  0  0  0  0  0  0  0  0  0
   -1.1254   -1.9299   -0.1364 H   0  0  0  0  0  0  0  0  0  0  0  0
    0.9918    0.9249   -2.2232 H   0  0  0  0  0  0  0  0  0  0  0  0
    3.2369    0.5604   -3.1447 H   0  0  0  0  0  0  0  0  0  0  0  0
  1  2  1  0
  2  3  2  0
  2  4  2  0
  2  5  1  0
  5  6  2  0
  6  7  1  0
  7  8  2  0
  8  9  1  0
  9 10  1  0
 10 11  2  0
 11 12  1  0
 12 13  2  0
 13 14  1  0
 14 15  2  0
 15 16  1  0
 16 17  2  0
 11 18  1  0
 18 19  1  0
 19 20  1  0
 20 21  2  0
 21 22  1  0
 22 23  2  0
 23 24  1  0
 23 25  1  0
 25 26  2  0
  8 27  1  0
 27 28  2  0
 28  5  1  0
 19  9  1  0
 26 20  1  0
 17 12  1  0
  1 29  1  0
  1 30  1  0
  6 31  1  0
  7 32  1  0
 13 33  1  0
 14 34  1  0
 15 35  1  0
 16 36  1  0
 17 37  1  0
 18 38  1  0
 18 39  1  0
 19 40  1  0
 21 41  1  0
 22 42  1  0
 25 43  1  0
 26 44  1  0
 27 45  1  0
 28 46  1  0
M  END
$$$$
