
     RDKit          3D

 36 37  0  0  0  0  0  0  0  0999 V2000
    0.8520   -2.0410    0.0616 C   0  0  0  0  0  0  0  0  0  0  0  0
    1.1546   -0.5937   -0.3328 C   0  0  0  0  0  0  0  0  0  0  0  0
    0.2319    0.2956    0.3757 N   0  0  0  0  0  0  0  0  0  0  0  0
   -0.9259    0.5877   -0.0986 C   0  0  0  0  0  0  0  0  0  0  0  0
   -1.7524    1.5460    0.7513 C   0  0  0  0  0  0  0  0  0  0  0  0
   -2.8913    0.8064    1.4450 C   0  0  0  0  0  0  0  0  0  0  0  0
   -4.1024    0.5675    0.5431 C   0  0  0  0  0  0  0  0  0  0  0  0
   -3.8322   -0.3175   -0.6752 C   0  0  0  0  0  0  0  0  0  0  0  0
   -2.8566    0.3008   -1.6717 C   0  0  0  0  0  0  0  0  0  0  0  0
   -1.4835    0.1096   -1.2585 N   0  0  0  0  0  0  0  0  0  0  0  0
    2.6054   -0.2684   -0.0060 C   0  0  0  0  0  0  0  0  0  0  0  0
    3.5962   -0.3938   -0.9928 C   0  0  0  0  0  0  0  0  0  0  0  0
    4.9342   -0.1230   -0.6976 C   0  0  0  0  0  0  0  0  0  0  0  0
    5.2998    0.2722    0.5876 C   0  0  0  0  0  0  0  0  0  0  0  0
    4.3288    0.3963    1.5788 C   0  0  0  0  0  0  0  0  0  0  0  0
    2.9913    0.1254    1.2847 C   0  0  0  0  0  0  0  0  0  0  0  0
    0.9658   -2.1947    1.1411 H   0  0  0  0  0  0  0  0  0  0  0  0
    1.5251   -2.7393   -0.4481 H   0  0  0  0  0  0  0  0  0  0  0  0
   -0.1756   -2.3155   -0.1990 H   0  0  0  0  0  0  0  0  0  0  0  0
    1.0360   -0.4784   -1.4173 H   0  0  0  0  0  0  0  0  0  0  0  0
   -2.1207    2.3706    0.1318 H   0  0  0  0  0  0  0  0  0  0  0  0
   -1.0972    1.9867    1.5131 H   0  0  0  0  0  0  0  0  0  0  0  0
   -2.5382   -0.1511    1.8472 H   0  0  0  0  0  0  0  0  0  0  0  0
   -3.2238    1.4068    2.3007 H   0  0  0  0  0  0  0  0  0  0  0  0
   -4.5069    1.5320    0.2116 H   0  0  0  0  0  0  0  0  0  0  0  0
   -4.8889    0.0942    1.1438 H   0  0  0  0  0  0  0  0  0  0  0  0
   -4.7899   -0.4747   -1.1869 H   0  0  0  0  0  0  0  0  0  0  0  0
   -3.4809   -1.3046   -0.3504 H   0  0  0  0  0  0  0  0  0  0  0  0
   -2.9847   -0.1928   -2.6420 H   0  0  0  0  0  0  0  0  0  0  0  0
   -3.0684    1.3634   -1.8342 H   0  0  0  0  0  0  0  0  0  0  0  0
   -1.0128   -0.6673   -1.7034 H   0  0  0  0  0  0  0  0  0  0  0  0
    3.3303   -0.7031   -2.0006 H   0  0  0  0  0  0  0  0  0  0  0  0
    5.6910   -0.2201   -1.4713 H   0  0  0  0  0  0  0  0  0  0  0  0
    6.3403    0.4845    0.8169 H   0  0  0  0  0  0  0  0  0  0  0  0
    4.6092    0.7057    2.5818 H   0  0  0  0  0  0  0  0  0  0  0  0
    2.2405    0.2275    2.0659 H   0  0  0  0  0  0  0  0  0  0  0  0
  1  2  1  0
  2  3  1  0
  3  4  2  3
  4  5  1  0
  5  6  1  0
  6  7  1  0
  7  8  1  0
  8  9  1  0
  9 10  1  0
  2 11  1  0
 11 12  2  0
 12 13  1  0
 13 14  2  0
 14 15  1  0
 15 16  2  0
 10  4  1  0
 16 11  1  0
  1 17  1  0
  1 18  1  0
  1 19  1  0
  2 20  1  0
  5 21  1  0
  5 22  1  0
  6 23  1  0
  6 24  1  0
  7 25  1  0
  7 26  1  0
  8 27  1  0
  8 28  1  0
  9 29  1  0
  9 30  1  0
 10 31  1  0
 12 32  1  0
 13 33  1  0
 14 34  1  0
 15 35  1  0
 16 36  1  0
M  END
$$$$
