
     RDKit          3D

 31 33  0  0  0  0  0  0  0  0999 V2000
    3.7073    2.2508   -2.3932 O   0  0  0  0  0  0  0  0  0  0  0  0
    3.6098    1.3749   -1.5489 C   0  0  0  0  0  0  0  0  0  0  0  0
    4.2302    0.1851   -1.7273 O   0  0  0  0  0  0  0  0  0  0  0  0
    2.8834    1.4887   -0.2256 C   0  0  0  0  0  0  0  0  0  0  0  0
    2.5683    0.1583    0.3129 N   0  0  0  0  0  0  0  0  0  0  0  0
    1.7540    0.0539    1.7639 S   0  0  0  0  0  6  0  0  0  0  0  0
    2.1399    1.1979    2.5602 O   0  0  0  0  0  0  0  0  0  0  0  0
    1.9234   -1.2970    2.2472 O   0  0  0  0  0  0  0  0  0  0  0  0
    0.0605    0.2492    1.2678 C   0  0  0  0  0  0  0  0  0  0  0  0
   -0.6487    1.3931    1.7289 C   0  0  0  0  0  0  0  0  0  0  0  0
   -1.9873    1.6136    1.3667 C   0  0  0  0  0  0  0  0  0  0  0  0
   -2.5795    0.6781    0.5518 C   0  0  0  0  0  0  0  0  0  0  0  0
   -1.8879   -0.4230    0.1181 C   0  0  0  0  0  0  0  0  0  0  0  0
   -2.7042   -1.1916   -0.6730 C   0  0  0  0  0  0  0  0  0  0  0  0
   -2.2499   -2.3638   -1.2378 C   0  0  0  0  0  0  0  0  0  0  0  0
   -0.9252   -2.7341   -0.9680 C   0  0  0  0  0  0  0  0  0  0  0  0
   -0.0910   -1.9327   -0.1503 C   0  0  0  0  0  0  0  0  0  0  0  0
   -0.5639   -0.7201    0.4300 C   0  0  0  0  0  0  0  0  0  0  0  0
   -4.0151   -0.5093   -0.7376 C   0  0  0  0  0  0  0  0  0  0  0  0
   -4.9953   -0.8850   -1.3461 O   0  0  0  0  0  0  0  0  0  0  0  0
   -3.8708    0.6323    0.0362 N   0  0  0  0  0  0  0  0  0  0  0  0
    4.6607    0.2735   -2.6049 H   0  0  0  0  0  0  0  0  0  0  0  0
    1.9588    2.0495   -0.3883 H   0  0  0  0  0  0  0  0  0  0  0  0
    3.5469    2.0249    0.4591 H   0  0  0  0  0  0  0  0  0  0  0  0
    3.2642   -0.5738    0.1537 H   0  0  0  0  0  0  0  0  0  0  0  0
   -0.1567    2.1176    2.3774 H   0  0  0  0  0  0  0  0  0  0  0  0
   -2.5248    2.4863    1.7207 H   0  0  0  0  0  0  0  0  0  0  0  0
   -2.8967   -2.9722   -1.8608 H   0  0  0  0  0  0  0  0  0  0  0  0
   -0.5297   -3.6567   -1.3897 H   0  0  0  0  0  0  0  0  0  0  0  0
    0.9265   -2.2729    0.0336 H   0  0  0  0  0  0  0  0  0  0  0  0
   -4.6073    1.3048    0.1861 H   0  0  0  0  0  0  0  0  0  0  0  0
  1  2  2  0
  2  3  1  0
  2  4  1  0
  4  5  1  0
  5  6  1  0
  6  7  2  0
  6  8  2  0
  6  9  1  0
  9 10  2  0
 10 11  1  0
 11 12  2  0
 12 13  1  0
 13 14  2  0
 14 15  1  0
 15 16  2  0
 16 17  1  0
 17 18  2  0
 14 19  1  0
 19 20  2  0
 19 21  1  0
 18  9  1  0
 21 12  1  0
 18 13  1  0
  3 22  1  0
  4 23  1  0
  4 24  1  0
  5 25  1  0
 10 26  1  0
 11 27  1  0
 15 28  1  0
 16 29  1  0
 17 30  1  0
 21 31  1  0
M  END
$$$$
