
     RDKit          3D

 46 49  0  0  0  0  0  0  0  0999 V2000
   -3.5216   -1.2960   -1.8029 O   0  0  0  0  0  0  0  0  0  0  0  0
   -3.5304   -0.5502   -0.8293 C   0  0  0  0  0  0  0  0  0  0  0  0
   -2.4205   -0.1547   -0.1053 N   0  0  0  0  0  0  0  0  0  0  0  0
   -1.0732   -0.5095   -0.3302 C   0  0  0  0  0  0  0  0  0  0  0  0
   -0.6409   -1.3423   -1.3642 C   0  0  0  0  0  0  0  0  0  0  0  0
    0.7202   -1.6407   -1.5182 C   0  0  0  0  0  0  0  0  0  0  0  0
    1.6701   -1.1159   -0.6438 C   0  0  0  0  0  0  0  0  0  0  0  0
    3.0192   -1.4297   -0.8370 N   0  0  0  0  0  0  0  0  0  0  0  0
    3.8875   -0.9566   -0.0023 C   0  0  0  0  0  0  0  0  0  0  0  0
    3.5616   -0.1554    1.0783 N   0  0  0  0  0  0  0  0  0  0  0  0
    2.2518    0.2547    1.3023 C   0  0  0  0  0  0  0  0  0  0  0  0
    1.9092    1.0311    2.1909 O   0  0  0  0  0  0  0  0  0  0  0  0
    1.2355   -0.2896    0.3859 C   0  0  0  0  0  0  0  0  0  0  0  0
   -0.1221    0.0184    0.5490 C   0  0  0  0  0  0  0  0  0  0  0  0
    4.6034    0.3690    1.9544 C   0  0  0  0  0  0  0  0  0  0  0  0
    5.4071    1.4906    1.2971 C   0  0  0  0  0  0  0  0  0  0  0  0
    5.7041    1.2979   -0.1906 C   0  0  0  0  0  0  0  0  0  0  0  0
    6.2299   -0.0821   -0.5837 C   0  0  0  0  0  0  0  0  0  0  0  0
    5.3538   -1.2862   -0.2256 C   0  0  0  0  0  0  0  0  0  0  0  0
   -4.8541   -0.0154   -0.3812 C   0  0  0  0  0  0  0  0  0  0  0  0
   -6.0019   -0.3857   -1.1057 C   0  0  0  0  0  0  0  0  0  0  0  0
   -7.2616    0.0980   -0.7217 C   0  0  0  0  0  0  0  0  0  0  0  0
   -8.4573   -0.2897   -1.4833 N   0  0  0  0  0  4  0  0  0  0  0  0
   -8.3120   -1.0878   -2.4183 O   0  0  0  0  0  0  0  0  0  0  0  0
   -9.5394    0.2070   -1.1409 O   0  0  0  0  0  1  0  0  0  0  0  0
   -7.3915    0.9506    0.3831 C   0  0  0  0  0  0  0  0  0  0  0  0
   -6.2536    1.3168    1.1024 C   0  0  0  0  0  0  0  0  0  0  0  0
   -5.0009    0.8354    0.7194 C   0  0  0  0  0  0  0  0  0  0  0  0
   -3.9384    1.2168    1.4443 F   0  0  0  0  0  0  0  0  0  0  0  0
   -2.5781    0.4645    0.6838 H   0  0  0  0  0  0  0  0  0  0  0  0
   -1.3341   -1.7794   -2.0764 H   0  0  0  0  0  0  0  0  0  0  0  0
    1.0394   -2.2884   -2.3313 H   0  0  0  0  0  0  0  0  0  0  0  0
   -0.4204    0.6707    1.3666 H   0  0  0  0  0  0  0  0  0  0  0  0
    5.2717   -0.4495    2.2411 H   0  0  0  0  0  0  0  0  0  0  0  0
    4.1712    0.7383    2.8914 H   0  0  0  0  0  0  0  0  0  0  0  0
    6.3465    1.6174    1.8490 H   0  0  0  0  0  0  0  0  0  0  0  0
    4.8569    2.4337    1.4079 H   0  0  0  0  0  0  0  0  0  0  0  0
    6.4350    2.0553   -0.5001 H   0  0  0  0  0  0  0  0  0  0  0  0
    4.7978    1.5147   -0.7707 H   0  0  0  0  0  0  0  0  0  0  0  0
    7.2267   -0.2311   -0.1502 H   0  0  0  0  0  0  0  0  0  0  0  0
    6.3776   -0.0800   -1.6716 H   0  0  0  0  0  0  0  0  0  0  0  0
    5.7418   -1.7800    0.6724 H   0  0  0  0  0  0  0  0  0  0  0  0
    5.4341   -2.0353   -1.0235 H   0  0  0  0  0  0  0  0  0  0  0  0
   -5.9031   -1.0487   -1.9660 H   0  0  0  0  0  0  0  0  0  0  0  0
   -8.3628    1.3336    0.6928 H   0  0  0  0  0  0  0  0  0  0  0  0
   -6.3340    1.9780    1.9618 H   0  0  0  0  0  0  0  0  0  0  0  0
  1  2  2  0
  2  3  1  0
  3  4  1  0
  4  5  2  0
  5  6  1  0
  6  7  2  0
  7  8  1  0
  8  9  2  0
  9 10  1  0
 10 11  1  0
 11 12  2  0
 11 13  1  0
 13 14  2  0
 10 15  1  0
 15 16  1  0
 16 17  1  0
 17 18  1  0
 18 19  1  0
  2 20  1  0
 20 21  2  0
 21 22  1  0
 22 23  1  0
 23 24  2  0
 23 25  1  0
 22 26  2  0
 26 27  1  0
 27 28  2  0
 28 29  1  0
 14  4  1  0
 28 20  1  0
 13  7  1  0
 19  9  1  0
  3 30  1  0
  5 31  1  0
  6 32  1  0
 14 33  1  0
 15 34  1  0
 15 35  1  0
 16 36  1  0
 16 37  1  0
 17 38  1  0
 17 39  1  0
 18 40  1  0
 18 41  1  0
 19 42  1  0
 19 43  1  0
 21 44  1  0
 26 45  1  0
 27 46  1  0
M  CHG  2  23   1  25  -1
M  END
$$$$
