
     RDKit          3D

 48 49  0  0  0  0  0  0  0  0999 V2000
   -5.2931   -2.6690   -1.7776 C   0  0  0  0  0  0  0  0  0  0  0  0
   -4.2980   -1.8265   -1.0366 C   0  0  0  0  0  0  0  0  0  0  0  0
   -4.0186   -0.5226   -1.4594 C   0  0  0  0  0  0  0  0  0  0  0  0
   -3.0673    0.2516   -0.7908 C   0  0  0  0  0  0  0  0  0  0  0  0
   -2.3707   -0.2695    0.3066 C   0  0  0  0  0  0  0  0  0  0  0  0
   -1.3328    0.5625    1.0228 C   0  0  0  0  0  0  0  0  0  0  0  0
   -0.0171    0.6955    0.2426 C   0  0  0  0  0  0  0  0  0  0  0  0
    0.6838   -0.5795    0.1116 N   0  0  0  0  0  0  0  0  0  0  0  0
    1.5417   -0.7794   -0.9510 C   0  0  0  0  0  0  0  0  0  0  0  0
    1.6708    0.0220   -1.8701 O   0  0  0  0  0  0  0  0  0  0  0  0
    2.3610   -2.0218   -0.9075 C   0  0  0  0  0  0  0  0  0  0  0  0
    3.5864   -2.0396   -1.5846 C   0  0  0  0  0  0  0  0  0  0  0  0
    4.3808   -3.1873   -1.5666 C   0  0  0  0  0  0  0  0  0  0  0  0
    3.9499   -4.3226   -0.8808 C   0  0  0  0  0  0  0  0  0  0  0  0
    2.7222   -4.3163   -0.2182 C   0  0  0  0  0  0  0  0  0  0  0  0
    1.9246   -3.1697   -0.2327 C   0  0  0  0  0  0  0  0  0  0  0  0
    0.9016    1.6518    1.0226 C   0  0  0  0  0  0  0  0  0  0  0  0
    1.6255    1.2681    1.9407 O   0  0  0  0  0  0  0  0  0  0  0  0
    0.7879    2.9754    0.6617 N   0  0  0  0  0  0  0  0  0  0  0  0
    1.6647    3.9992    1.2318 C   0  0  0  0  0  0  0  0  0  0  0  0
    1.1560    4.4547    2.5929 C   0  0  0  0  0  0  0  0  0  0  0  0
    1.7643    5.2026    0.2894 C   0  0  0  0  0  0  0  0  0  0  0  0
    2.3929    6.2305    0.4843 O   0  0  0  0  0  0  0  0  0  0  0  0
    1.0643    5.0457   -0.8602 O   0  0  0  0  0  0  0  0  0  0  0  0
   -2.6404   -1.5801    0.7194 C   0  0  0  0  0  0  0  0  0  0  0  0
   -3.5924   -2.3530    0.0505 C   0  0  0  0  0  0  0  0  0  0  0  0
   -5.7727   -3.3888   -1.1059 H   0  0  0  0  0  0  0  0  0  0  0  0
   -4.7940   -3.2154   -2.5838 H   0  0  0  0  0  0  0  0  0  0  0  0
   -6.0864   -2.0488   -2.2080 H   0  0  0  0  0  0  0  0  0  0  0  0
   -4.5397   -0.1005   -2.3157 H   0  0  0  0  0  0  0  0  0  0  0  0
   -2.8724    1.2631   -1.1392 H   0  0  0  0  0  0  0  0  0  0  0  0
   -1.7611    1.5557    1.2144 H   0  0  0  0  0  0  0  0  0  0  0  0
   -1.1406    0.1339    2.0159 H   0  0  0  0  0  0  0  0  0  0  0  0
   -0.2026    1.1068   -0.7566 H   0  0  0  0  0  0  0  0  0  0  0  0
    0.9354   -1.0316    0.9827 H   0  0  0  0  0  0  0  0  0  0  0  0
    3.9249   -1.1578   -2.1247 H   0  0  0  0  0  0  0  0  0  0  0  0
    5.3336   -3.1953   -2.0902 H   0  0  0  0  0  0  0  0  0  0  0  0
    4.5684   -5.2169   -0.8702 H   0  0  0  0  0  0  0  0  0  0  0  0
    2.3827   -5.2084    0.3024 H   0  0  0  0  0  0  0  0  0  0  0  0
    0.9575   -3.1946    0.2617 H   0  0  0  0  0  0  0  0  0  0  0  0
    0.4219    3.1891   -0.2634 H   0  0  0  0  0  0  0  0  0  0  0  0
    2.6702    3.5716    1.3191 H   0  0  0  0  0  0  0  0  0  0  0  0
    0.1533    4.8900    2.5129 H   0  0  0  0  0  0  0  0  0  0  0  0
    1.8144    5.2167    3.0234 H   0  0  0  0  0  0  0  0  0  0  0  0
    1.0996    3.6190    3.2979 H   0  0  0  0  0  0  0  0  0  0  0  0
    1.2468    5.8735   -1.3557 H   0  0  0  0  0  0  0  0  0  0  0  0
   -2.1081   -2.0128    1.5631 H   0  0  0  0  0  0  0  0  0  0  0  0
   -3.7794   -3.3713    0.3838 H   0  0  0  0  0  0  0  0  0  0  0  0
  1  2  1  0
  2  3  2  0
  3  4  1  0
  4  5  2  0
  5  6  1  0
  6  7  1  0
  7  8  1  0
  8  9  1  0
  9 10  2  0
  9 11  1  0
 11 12  2  0
 12 13  1  0
 13 14  2  0
 14 15  1  0
 15 16  2  0
  7 17  1  0
 17 18  2  0
 17 19  1  0
 19 20  1  0
 20 21  1  0
 20 22  1  0
 22 23  2  0
 22 24  1  0
  5 25  1  0
 25 26  2  0
 26  2  1  0
 16 11  1  0
  1 27  1  0
  1 28  1  0
  1 29  1  0
  3 30  1  0
  4 31  1  0
  6 32  1  0
  6 33  1  0
  7 34  1  0
  8 35  1  0
 12 36  1  0
 13 37  1  0
 14 38  1  0
 15 39  1  0
 16 40  1  0
 19 41  1  0
 20 42  1  0
 21 43  1  0
 21 44  1  0
 21 45  1  0
 24 46  1  0
 25 47  1  0
 26 48  1  0
M  END
$$$$
