
     RDKit          3D

 66 68  0  0  0  0  0  0  0  0999 V2000
   -4.7485    0.7300    4.6321 C   0  0  0  0  0  0  0  0  0  0  0  0
   -5.6663    0.1965    3.5465 C   0  0  0  0  0  0  0  0  0  0  0  0
   -5.0224    0.3912    2.2889 O   0  0  0  0  0  0  0  0  0  0  0  0
   -5.7343    0.0780    1.1563 C   0  0  0  0  0  0  0  0  0  0  0  0
   -7.0071   -0.5061    1.1569 C   0  0  0  0  0  0  0  0  0  0  0  0
   -7.6696   -0.7635   -0.0457 C   0  0  0  0  0  0  0  0  0  0  0  0
   -7.0691   -0.4434   -1.2592 C   0  0  0  0  0  0  0  0  0  0  0  0
   -5.7986    0.1299   -1.2727 C   0  0  0  0  0  0  0  0  0  0  0  0
   -5.1126    0.3756   -0.0738 C   0  0  0  0  0  0  0  0  0  0  0  0
   -3.7842    1.0128   -0.1155 C   0  0  0  0  0  0  0  0  0  0  0  0
   -2.6590    0.5906   -0.7161 C   0  0  0  0  0  0  0  0  0  0  0  0
   -2.5058   -0.6423   -1.4175 C   0  0  0  0  0  0  0  0  0  0  0  0
   -3.3544   -1.7201   -1.2787 O   0  0  0  0  0  0  0  0  0  0  0  0
   -2.9664   -2.7688   -2.0807 N   0  0  0  0  0  0  0  0  0  0  0  0
   -1.8681   -2.3573   -2.7190 C   0  0  0  0  0  0  0  0  0  0  0  0
   -1.2035   -3.2659   -3.6825 C   0  0  0  0  0  0  0  0  0  0  0  0
   -1.5300   -1.0482   -2.3172 C   0  0  0  0  0  0  0  0  0  0  0  0
   -0.2009   -0.1197   -2.8503 S   0  0  0  0  0  6  0  0  0  0  0  0
   -0.8106    1.0235   -3.4951 O   0  0  0  0  0  0  0  0  0  0  0  0
    0.6599   -1.0268   -3.5760 O   0  0  0  0  0  0  0  0  0  0  0  0
    0.6684    0.4393   -1.4954 N   0  0  0  0  0  0  0  0  0  0  0  0
    1.2119   -0.6196   -0.6025 C   0  0  0  0  0  0  0  0  0  0  0  0
    1.9889    0.0399    0.5302 C   0  0  0  0  0  0  0  0  0  0  0  0
    3.2378    0.7663   -0.0024 C   0  0  0  0  0  0  0  0  0  0  0  0
    4.4637   -0.1494    0.0681 C   0  0  0  0  0  0  0  0  0  0  0  0
    4.3187   -1.3739    0.0150 O   0  0  0  0  0  0  0  0  0  0  0  0
    5.7288    0.4358    0.1108 N   0  0  0  0  0  0  0  0  0  0  0  0
    6.8865   -0.4639    0.0774 C   0  0  0  0  0  0  0  0  0  0  0  0
    7.2016   -1.1040    1.4213 C   0  0  0  0  0  0  0  0  0  0  0  0
    5.9847    1.8530    0.3890 C   0  0  0  0  0  0  0  0  0  0  0  0
    5.9622    2.1841    1.8739 C   0  0  0  0  0  0  0  0  0  0  0  0
    3.0474    1.2127   -1.4609 C   0  0  0  0  0  0  0  0  0  0  0  0
    1.6004    1.5653   -1.7740 C   0  0  0  0  0  0  0  0  0  0  0  0
   -4.5335    1.7914    4.4630 H   0  0  0  0  0  0  0  0  0  0  0  0
   -5.2029    0.6145    5.6212 H   0  0  0  0  0  0  0  0  0  0  0  0
   -3.7869    0.2030    4.6212 H   0  0  0  0  0  0  0  0  0  0  0  0
   -6.6127    0.7494    3.5821 H   0  0  0  0  0  0  0  0  0  0  0  0
   -5.8433   -0.8715    3.7171 H   0  0  0  0  0  0  0  0  0  0  0  0
   -7.5127   -0.7767    2.0770 H   0  0  0  0  0  0  0  0  0  0  0  0
   -8.6570   -1.2179   -0.0334 H   0  0  0  0  0  0  0  0  0  0  0  0
   -7.5842   -0.6438   -2.1949 H   0  0  0  0  0  0  0  0  0  0  0  0
   -5.3390    0.3708   -2.2298 H   0  0  0  0  0  0  0  0  0  0  0  0
   -3.7497    1.9576    0.4258 H   0  0  0  0  0  0  0  0  0  0  0  0
   -1.7924    1.2441   -0.6523 H   0  0  0  0  0  0  0  0  0  0  0  0
   -1.8091   -4.1583   -3.8749 H   0  0  0  0  0  0  0  0  0  0  0  0
   -1.0452   -2.7674   -4.6427 H   0  0  0  0  0  0  0  0  0  0  0  0
   -0.2379   -3.5988   -3.2908 H   0  0  0  0  0  0  0  0  0  0  0  0
    1.8451   -1.3157   -1.1638 H   0  0  0  0  0  0  0  0  0  0  0  0
    0.3784   -1.1846   -0.1712 H   0  0  0  0  0  0  0  0  0  0  0  0
    2.2488   -0.7009    1.2945 H   0  0  0  0  0  0  0  0  0  0  0  0
    1.3386    0.7742    1.0250 H   0  0  0  0  0  0  0  0  0  0  0  0
    3.3890    1.6344    0.6461 H   0  0  0  0  0  0  0  0  0  0  0  0
    7.7570    0.0869   -0.2966 H   0  0  0  0  0  0  0  0  0  0  0  0
    6.6835   -1.2584   -0.6513 H   0  0  0  0  0  0  0  0  0  0  0  0
    6.3327   -1.6258    1.8335 H   0  0  0  0  0  0  0  0  0  0  0  0
    7.5219   -0.3584    2.1531 H   0  0  0  0  0  0  0  0  0  0  0  0
    8.0153   -1.8284    1.3096 H   0  0  0  0  0  0  0  0  0  0  0  0
    6.9516    2.1321   -0.0466 H   0  0  0  0  0  0  0  0  0  0  0  0
    5.2366    2.4656   -0.1191 H   0  0  0  0  0  0  0  0  0  0  0  0
    6.0410    3.2665    2.0189 H   0  0  0  0  0  0  0  0  0  0  0  0
    5.0390    1.8400    2.3504 H   0  0  0  0  0  0  0  0  0  0  0  0
    6.8011    1.7202    2.3985 H   0  0  0  0  0  0  0  0  0  0  0  0
    3.6842    2.0780   -1.6763 H   0  0  0  0  0  0  0  0  0  0  0  0
    3.3776    0.4216   -2.1481 H   0  0  0  0  0  0  0  0  0  0  0  0
    1.5364    1.8853   -2.8191 H   0  0  0  0  0  0  0  0  0  0  0  0
    1.2791    2.4194   -1.1671 H   0  0  0  0  0  0  0  0  0  0  0  0
  1  2  1  0
  2  3  1  0
  3  4  1  0
  4  5  2  0
  5  6  1  0
  6  7  2  0
  7  8  1  0
  8  9  2  0
  9 10  1  0
 10 11  2  3
 11 12  1  0
 12 13  1  0
 13 14  1  0
 14 15  2  0
 15 16  1  0
 15 17  1  0
 17 18  1  0
 18 19  2  0
 18 20  2  0
 18 21  1  0
 21 22  1  0
 22 23  1  0
 23 24  1  0
 24 25  1  0
 25 26  2  0
 25 27  1  0
 27 28  1  0
 28 29  1  0
 27 30  1  0
 30 31  1  0
 24 32  1  0
 32 33  1  0
  9  4  1  0
 17 12  2  0
 33 21  1  0
  1 34  1  0
  1 35  1  0
  1 36  1  0
  2 37  1  0
  2 38  1  0
  5 39  1  0
  6 40  1  0
  7 41  1  0
  8 42  1  0
 10 43  1  0
 11 44  1  0
 16 45  1  0
 16 46  1  0
 16 47  1  0
 22 48  1  0
 22 49  1  0
 23 50  1  0
 23 51  1  0
 24 52  1  0
 28 53  1  0
 28 54  1  0
 29 55  1  0
 29 56  1  0
 29 57  1  0
 30 58  1  0
 30 59  1  0
 31 60  1  0
 31 61  1  0
 31 62  1  0
 32 63  1  0
 32 64  1  0
 33 65  1  0
 33 66  1  0
M  END
$$$$
