
     RDKit          3D

 49 52  0  0  0  0  0  0  0  0999 V2000
    0.9473   -2.2768    2.5731 N   0  0  0  0  0  0  0  0  0  0  0  0
   -0.2330   -2.0780    1.9572 C   0  0  0  0  0  0  0  0  0  0  0  0
   -1.2486   -2.8706    2.1271 N   0  0  0  0  0  0  0  0  0  0  0  0
   -2.3235   -2.2631    1.2947 C   0  0  0  0  0  0  0  0  0  0  0  0
   -1.6632   -1.1487    0.4560 C   0  0  0  0  0  0  0  0  0  0  0  0
   -2.4437    0.1700    0.4763 C   0  0  0  0  0  0  0  0  0  0  0  0
   -3.7390    0.0983   -0.2967 C   0  0  0  0  0  0  0  0  0  0  0  0
   -4.9660   -0.0056    0.3744 C   0  0  0  0  0  0  0  0  0  0  0  0
   -6.1624   -0.0862   -0.3421 C   0  0  0  0  0  0  0  0  0  0  0  0
   -6.1305   -0.0620   -1.7321 C   0  0  0  0  0  0  0  0  0  0  0  0
   -7.2737   -0.1387   -2.4709 O   0  0  0  0  0  0  0  0  0  0  0  0
   -4.9250    0.0421   -2.4142 C   0  0  0  0  0  0  0  0  0  0  0  0
   -3.7296    0.1223   -1.6989 C   0  0  0  0  0  0  0  0  0  0  0  0
   -0.3655   -1.0057    1.1280 N   0  0  0  0  0  0  0  0  0  0  0  0
    0.7385   -0.4605    0.3359 C   0  0  0  0  0  0  0  0  0  0  0  0
    1.4007    0.7096    1.0709 C   0  0  0  0  0  0  0  0  0  0  0  0
    2.4810    1.3692    0.2364 C   0  0  0  0  0  0  0  0  0  0  0  0
    2.1440    2.5475   -0.4539 C   0  0  0  0  0  0  0  0  0  0  0  0
    3.0793    3.1985   -1.2499 C   0  0  0  0  0  0  0  0  0  0  0  0
    4.3650    2.6807   -1.3714 C   0  0  0  0  0  0  0  0  0  0  0  0
    4.7349    1.5054   -0.7019 C   0  0  0  0  0  0  0  0  0  0  0  0
    6.0377    0.9990   -0.8432 C   0  0  0  0  0  0  0  0  0  0  0  0
    6.4293   -0.1688   -0.1918 C   0  0  0  0  0  0  0  0  0  0  0  0
    5.5215   -0.8456    0.6104 C   0  0  0  0  0  0  0  0  0  0  0  0
    4.2225   -0.3538    0.7624 C   0  0  0  0  0  0  0  0  0  0  0  0
    3.7929    0.8284    0.1149 C   0  0  0  0  0  0  0  0  0  0  0  0
    1.2728   -1.4464    3.0487 H   0  0  0  0  0  0  0  0  0  0  0  0
    0.8518   -3.0386    3.2383 H   0  0  0  0  0  0  0  0  0  0  0  0
   -2.7681   -3.0260    0.6470 H   0  0  0  0  0  0  0  0  0  0  0  0
   -3.1040   -1.8829    1.9624 H   0  0  0  0  0  0  0  0  0  0  0  0
   -1.5158   -1.5134   -0.5692 H   0  0  0  0  0  0  0  0  0  0  0  0
   -1.8340    0.9750    0.0446 H   0  0  0  0  0  0  0  0  0  0  0  0
   -2.6374    0.4841    1.5106 H   0  0  0  0  0  0  0  0  0  0  0  0
   -4.9991   -0.0255    1.4621 H   0  0  0  0  0  0  0  0  0  0  0  0
   -7.1001   -0.1669    0.1984 H   0  0  0  0  0  0  0  0  0  0  0  0
   -8.0293   -0.2086   -1.8649 H   0  0  0  0  0  0  0  0  0  0  0  0
   -4.9160    0.0611   -3.5004 H   0  0  0  0  0  0  0  0  0  0  0  0
   -2.7928    0.2060   -2.2454 H   0  0  0  0  0  0  0  0  0  0  0  0
    1.4620   -1.2489    0.0965 H   0  0  0  0  0  0  0  0  0  0  0  0
    0.3637   -0.1003   -0.6313 H   0  0  0  0  0  0  0  0  0  0  0  0
    0.6347    1.4529    1.3311 H   0  0  0  0  0  0  0  0  0  0  0  0
    1.8183    0.4005    2.0351 H   0  0  0  0  0  0  0  0  0  0  0  0
    1.1432    2.9673   -0.3725 H   0  0  0  0  0  0  0  0  0  0  0  0
    2.8080    4.1096   -1.7765 H   0  0  0  0  0  0  0  0  0  0  0  0
    5.0823    3.2053   -1.9992 H   0  0  0  0  0  0  0  0  0  0  0  0
    6.7632    1.5151   -1.4686 H   0  0  0  0  0  0  0  0  0  0  0  0
    7.4405   -0.5476   -0.3130 H   0  0  0  0  0  0  0  0  0  0  0  0
    5.8185   -1.7588    1.1199 H   0  0  0  0  0  0  0  0  0  0  0  0
    3.5469   -0.9200    1.3984 H   0  0  0  0  0  0  0  0  0  0  0  0
  1  2  1  0
  2  3  2  0
  3  4  1  0
  4  5  1  0
  5  6  1  0
  6  7  1  0
  7  8  2  0
  8  9  1  0
  9 10  2  0
 10 11  1  0
 10 12  1  0
 12 13  2  0
  5 14  1  0
 14 15  1  0
 15 16  1  0
 16 17  1  0
 17 18  2  0
 18 19  1  0
 19 20  2  0
 20 21  1  0
 21 22  2  0
 22 23  1  0
 23 24  2  0
 24 25  1  0
 25 26  2  0
 14  2  1  0
 26 17  1  0
 13  7  1  0
 26 21  1  0
  1 27  1  0
  1 28  1  0
  4 29  1  0
  4 30  1  0
  5 31  1  0
  6 32  1  0
  6 33  1  0
  8 34  1  0
  9 35  1  0
 11 36  1  0
 12 37  1  0
 13 38  1  0
 15 39  1  0
 15 40  1  0
 16 41  1  0
 16 42  1  0
 18 43  1  0
 19 44  1  0
 20 45  1  0
 22 46  1  0
 23 47  1  0
 24 48  1  0
 25 49  1  0
M  END
$$$$
