
     RDKit          3D

 42 42  0  0  0  0  0  0  0  0999 V2000
   -3.9959   -3.0531    0.0285 C   0  0  0  0  0  0  0  0  0  0  0  0
   -2.6808   -2.6138   -0.5954 C   0  0  0  0  0  0  0  0  0  0  0  0
   -1.9237   -1.6463    0.3166 C   0  0  0  0  0  0  0  0  0  0  0  0
   -0.5962   -1.2105   -0.3219 C   0  0  0  0  0  0  0  0  0  0  0  0
    0.2009   -0.1703    0.4994 C   0  0  0  0  0  0  0  0  0  0  0  0
   -0.5680    1.1006    0.7958 C   0  0  0  0  0  0  0  0  0  0  0  0
   -0.4808    1.7471    1.8303 O   0  0  0  0  0  0  0  0  0  0  0  0
   -1.2978    1.4862   -0.2915 O   0  0  0  0  0  0  0  0  0  0  0  0
   -2.0451    2.7043   -0.1512 C   0  0  0  0  0  0  0  0  0  0  0  0
   -3.3930    2.4186    0.4836 C   0  0  0  0  0  0  0  0  0  0  0  0
    1.4995    0.2260   -0.2057 C   0  0  0  0  0  0  0  0  0  0  0  0
    2.4959   -0.8107    0.2654 C   0  0  0  0  0  0  0  0  0  0  0  0
    3.9534   -0.3469    0.3233 C   0  0  0  0  0  0  0  0  0  0  0  0
    4.7349   -0.1628   -1.3100 S   0  0  0  0  0  0  0  0  0  0  0  0
    4.1150    1.3799   -1.7842 C   0  0  0  0  0  0  0  0  0  0  0  0
    3.4365    1.4666   -2.8684 N   0  0  0  0  0  0  0  0  0  0  0  0
    4.3858    2.4467   -1.0073 N   0  0  0  0  0  0  0  0  0  0  0  0
    2.0633   -1.1320    1.5942 O   0  0  0  0  0  0  0  0  0  0  0  0
    0.7413   -0.8167    1.7490 C   0  0  0  0  0  0  0  0  0  0  0  0
    0.1108   -1.0952    2.7561 O   0  0  0  0  0  0  0  0  0  0  0  0
   -4.6496   -2.1942    0.2111 H   0  0  0  0  0  0  0  0  0  0  0  0
   -4.5206   -3.7433   -0.6395 H   0  0  0  0  0  0  0  0  0  0  0  0
   -3.8266   -3.5651    0.9812 H   0  0  0  0  0  0  0  0  0  0  0  0
   -2.8839   -2.1346   -1.5602 H   0  0  0  0  0  0  0  0  0  0  0  0
   -2.0641   -3.4979   -0.7947 H   0  0  0  0  0  0  0  0  0  0  0  0
   -1.7349   -2.1372    1.2774 H   0  0  0  0  0  0  0  0  0  0  0  0
   -2.5558   -0.7746    0.5174 H   0  0  0  0  0  0  0  0  0  0  0  0
   -0.8037   -0.8056   -1.3212 H   0  0  0  0  0  0  0  0  0  0  0  0
    0.0158   -2.1086   -0.4791 H   0  0  0  0  0  0  0  0  0  0  0  0
   -1.4827    3.4540    0.4167 H   0  0  0  0  0  0  0  0  0  0  0  0
   -2.1907    3.1070   -1.1589 H   0  0  0  0  0  0  0  0  0  0  0  0
   -3.9404    1.6693   -0.0977 H   0  0  0  0  0  0  0  0  0  0  0  0
   -3.2738    2.0128    1.4932 H   0  0  0  0  0  0  0  0  0  0  0  0
   -3.9952    3.3295    0.5420 H   0  0  0  0  0  0  0  0  0  0  0  0
    1.4027    0.2445   -1.2958 H   0  0  0  0  0  0  0  0  0  0  0  0
    1.8156    1.2289    0.1104 H   0  0  0  0  0  0  0  0  0  0  0  0
    2.4209   -1.7321   -0.3256 H   0  0  0  0  0  0  0  0  0  0  0  0
    4.0503    0.5716    0.9130 H   0  0  0  0  0  0  0  0  0  0  0  0
    4.5355   -1.0990    0.8693 H   0  0  0  0  0  0  0  0  0  0  0  0
    3.4031    0.5280   -3.2831 H   0  0  0  0  0  0  0  0  0  0  0  0
    5.2897    2.4122   -0.5517 H   0  0  0  0  0  0  0  0  0  0  0  0
    4.2323    3.3165   -1.5075 H   0  0  0  0  0  0  0  0  0  0  0  0
  1  2  1  0
  2  3  1  0
  3  4  1  0
  4  5  1  0
  5  6  1  0
  6  7  2  0
  6  8  1  0
  8  9  1  0
  9 10  1  0
  5 11  1  0
 11 12  1  0
 12 13  1  0
 13 14  1  0
 14 15  1  0
 15 16  2  3
 15 17  1  0
 12 18  1  0
 18 19  1  0
 19 20  2  0
 19  5  1  0
  1 21  1  0
  1 22  1  0
  1 23  1  0
  2 24  1  0
  2 25  1  0
  3 26  1  0
  3 27  1  0
  4 28  1  0
  4 29  1  0
  9 30  1  0
  9 31  1  0
 10 32  1  0
 10 33  1  0
 10 34  1  0
 11 35  1  0
 11 36  1  0
 12 37  1  0
 13 38  1  0
 13 39  1  0
 16 40  1  0
 17 41  1  0
 17 42  1  0
M  END
$$$$
