
     RDKit          3D

 58 61  0  0  0  0  0  0  0  0999 V2000
    2.5333    2.4684   -0.2893 O   0  0  0  0  0  0  0  0  0  0  0  0
    2.3290    2.1284    0.8721 C   0  0  0  0  0  0  0  0  0  0  0  0
    3.3982    1.6677    1.8457 C   0  0  0  0  0  0  0  0  0  0  0  0
    4.8052    1.5855    1.2476 C   0  0  0  0  0  0  0  0  0  0  0  0
    5.2032    0.2348    0.6179 C   0  0  0  0  0  0  0  0  0  0  0  0
    4.2646   -0.2347   -0.4969 C   0  0  0  0  0  0  0  0  0  0  0  0
    4.8211   -1.4641   -1.2248 C   0  0  0  0  0  0  0  0  0  0  0  0
    5.6998   -2.3554   -0.3447 C   0  0  0  0  0  0  0  0  0  0  0  0
    5.2785   -2.2890    1.1157 C   0  0  0  0  0  0  0  0  0  0  0  0
    5.4020   -0.8693    1.6786 C   0  0  0  0  0  0  0  0  0  0  0  0
    1.0654    2.1484    1.4378 N   0  0  0  0  0  0  0  0  0  0  0  0
   -0.0199    2.2856    0.5338 N   0  0  0  0  0  0  0  0  0  0  0  0
   -0.9966    1.3122    0.6323 C   0  0  0  0  0  0  0  0  0  0  0  0
   -1.0272    0.5039    1.5527 O   0  0  0  0  0  0  0  0  0  0  0  0
   -1.8963    1.3971   -0.4018 N   0  0  0  0  0  0  0  0  0  0  0  0
   -3.1201    0.5919   -0.4878 C   0  0  0  0  0  0  0  0  0  0  0  0
   -4.0952    0.9310    0.6666 C   0  0  0  0  0  0  0  0  0  0  0  0
   -5.4009    0.1317    0.5240 C   0  0  0  0  0  0  0  0  0  0  0  0
   -5.0773   -1.3714    0.5490 C   0  0  0  0  0  0  0  0  0  0  0  0
   -4.1386   -1.7316   -0.6151 C   0  0  0  0  0  0  0  0  0  0  0  0
   -4.8191   -1.3711   -1.9445 C   0  0  0  0  0  0  0  0  0  0  0  0
   -5.1327    0.1316   -1.9804 C   0  0  0  0  0  0  0  0  0  0  0  0
   -6.0695    0.4851   -0.8144 C   0  0  0  0  0  0  0  0  0  0  0  0
   -3.8240    0.9242   -1.8312 C   0  0  0  0  0  0  0  0  0  0  0  0
   -2.8303   -0.9314   -0.4766 C   0  0  0  0  0  0  0  0  0  0  0  0
    3.4121    2.4103    2.6549 H   0  0  0  0  0  0  0  0  0  0  0  0
    3.0903    0.7122    2.2841 H   0  0  0  0  0  0  0  0  0  0  0  0
    5.5251    1.8000    2.0482 H   0  0  0  0  0  0  0  0  0  0  0  0
    4.9435    2.3770    0.5010 H   0  0  0  0  0  0  0  0  0  0  0  0
    6.1860    0.4042    0.1539 H   0  0  0  0  0  0  0  0  0  0  0  0
    4.1002    0.5638   -1.2290 H   0  0  0  0  0  0  0  0  0  0  0  0
    3.2832   -0.4877   -0.0764 H   0  0  0  0  0  0  0  0  0  0  0  0
    3.9801   -2.0458   -1.6205 H   0  0  0  0  0  0  0  0  0  0  0  0
    5.4075   -1.1451   -2.0940 H   0  0  0  0  0  0  0  0  0  0  0  0
    6.7460   -2.0360   -0.4300 H   0  0  0  0  0  0  0  0  0  0  0  0
    5.6600   -3.3878   -0.7091 H   0  0  0  0  0  0  0  0  0  0  0  0
    4.2365   -2.6251    1.2037 H   0  0  0  0  0  0  0  0  0  0  0  0
    5.8810   -2.9778    1.7190 H   0  0  0  0  0  0  0  0  0  0  0  0
    6.3987   -0.7428    2.1217 H   0  0  0  0  0  0  0  0  0  0  0  0
    4.6951   -0.7697    2.5087 H   0  0  0  0  0  0  0  0  0  0  0  0
    0.8659    1.5306    2.2249 H   0  0  0  0  0  0  0  0  0  0  0  0
    0.2832    2.5096   -0.4137 H   0  0  0  0  0  0  0  0  0  0  0  0
   -1.9664    2.3297   -0.7790 H   0  0  0  0  0  0  0  0  0  0  0  0
   -4.3152    2.0069    0.6709 H   0  0  0  0  0  0  0  0  0  0  0  0
   -3.6386    0.7077    1.6390 H   0  0  0  0  0  0  0  0  0  0  0  0
   -6.0762    0.3798    1.3511 H   0  0  0  0  0  0  0  0  0  0  0  0
   -6.0035   -1.9534    0.4749 H   0  0  0  0  0  0  0  0  0  0  0  0
   -4.6084   -1.6373    1.5043 H   0  0  0  0  0  0  0  0  0  0  0  0
   -3.9203   -2.8044   -0.5941 H   0  0  0  0  0  0  0  0  0  0  0  0
   -4.1655   -1.6391   -2.7823 H   0  0  0  0  0  0  0  0  0  0  0  0
   -5.7432   -1.9493   -2.0634 H   0  0  0  0  0  0  0  0  0  0  0  0
   -5.6141    0.3880   -2.9311 H   0  0  0  0  0  0  0  0  0  0  0  0
   -6.3128    1.5545   -0.8416 H   0  0  0  0  0  0  0  0  0  0  0  0
   -7.0171   -0.0581   -0.9147 H   0  0  0  0  0  0  0  0  0  0  0  0
   -3.1520    0.6984   -2.6710 H   0  0  0  0  0  0  0  0  0  0  0  0
   -4.0394    2.0006   -1.8909 H   0  0  0  0  0  0  0  0  0  0  0  0
   -2.3303   -1.2318    0.4515 H   0  0  0  0  0  0  0  0  0  0  0  0
   -2.1437   -1.1916   -1.2926 H   0  0  0  0  0  0  0  0  0  0  0  0
  1  2  2  0
  2  3  1  0
  3  4  1  0
  4  5  1  0
  5  6  1  0
  6  7  1  0
  7  8  1  0
  8  9  1  0
  9 10  1  0
  2 11  1  0
 11 12  1  0
 12 13  1  0
 13 14  2  0
 13 15  1  0
 15 16  1  0
 16 17  1  0
 17 18  1  0
 18 19  1  0
 19 20  1  0
 20 21  1  0
 21 22  1  0
 22 23  1  0
 22 24  1  0
 20 25  1  0
 10  5  1  0
 24 16  1  0
 25 16  1  0
 23 18  1  0
  3 26  1  0
  3 27  1  0
  4 28  1  0
  4 29  1  0
  5 30  1  0
  6 31  1  0
  6 32  1  0
  7 33  1  0
  7 34  1  0
  8 35  1  0
  8 36  1  0
  9 37  1  0
  9 38  1  0
 10 39  1  0
 10 40  1  0
 11 41  1  0
 12 42  1  0
 15 43  1  0
 17 44  1  0
 17 45  1  0
 18 46  1  0
 19 47  1  0
 19 48  1  0
 20 49  1  0
 21 50  1  0
 21 51  1  0
 22 52  1  0
 23 53  1  0
 23 54  1  0
 24 55  1  0
 24 56  1  0
 25 57  1  0
 25 58  1  0
M  END
$$$$
