
     RDKit          3D

 71 75  0  0  0  0  0  0  0  0999 V2000
   -0.4831    0.6267    4.9903 C   0  0  0  0  0  0  0  0  0  0  0  0
    0.1707   -0.6724    4.5415 C   0  0  0  0  0  0  0  0  0  0  0  0
    0.1830   -0.7774    3.0709 N   0  0  0  0  0  0  0  0  0  0  0  0
    1.2880   -0.3500    2.3451 C   0  0  0  0  0  0  0  0  0  0  0  0
    1.4307   -0.3573    1.0116 C   0  0  0  0  0  0  0  0  0  0  0  0
    2.7084    0.1457    0.4297 C   0  0  0  0  0  0  0  0  0  0  0  0
    3.6405    0.5099    1.1420 O   0  0  0  0  0  0  0  0  0  0  0  0
    2.7592    0.1634   -0.9406 N   0  0  0  0  0  0  0  0  0  0  0  0
    3.9396    0.5678   -1.6790 C   0  0  0  0  0  0  0  0  0  0  0  0
    4.9510   -0.5716   -1.7798 C   0  0  0  0  0  0  0  0  0  0  0  0
    6.1286   -0.2416   -2.7042 C   0  0  0  0  0  0  0  0  0  0  0  0
    6.8672    0.9620   -2.3201 N   0  0  0  0  0  0  0  0  0  0  0  0
    7.9350    1.2795   -3.2702 C   0  0  0  0  0  0  0  0  0  0  0  0
    8.7579    2.3134   -2.5203 C   0  0  0  0  0  0  0  0  0  0  0  0
    8.5511    1.9873   -1.0458 C   0  0  0  0  0  0  0  0  0  0  0  0
    7.5397    0.8490   -1.0231 C   0  0  0  0  0  0  0  0  0  0  0  0
    0.2843   -0.8684    0.2258 C   0  0  0  0  0  0  0  0  0  0  0  0
    0.3057   -0.8989   -1.0030 O   0  0  0  0  0  0  0  0  0  0  0  0
   -0.9162   -1.3365    0.9644 C   0  0  0  0  0  0  0  0  0  0  0  0
   -2.0021   -1.8285    0.2239 C   0  0  0  0  0  0  0  0  0  0  0  0
   -3.1546   -2.2375    0.8894 C   0  0  0  0  0  0  0  0  0  0  0  0
   -4.5270   -2.8895   -0.0410 S   0  0  0  0  0  6  0  0  0  0  0  0
   -5.3567   -3.6292    0.8868 O   0  0  0  0  0  0  0  0  0  0  0  0
   -3.9774   -3.5233   -1.2196 O   0  0  0  0  0  0  0  0  0  0  0  0
   -5.3762   -1.5064   -0.5189 N   0  0  0  0  0  0  0  0  0  0  0  0
   -4.7310   -0.6065   -1.5000 C   0  0  0  0  0  0  0  0  0  0  0  0
   -5.8064    0.2098   -2.2169 C   0  0  0  0  0  0  0  0  0  0  0  0
   -6.6993    0.9329   -1.2402 C   0  0  0  0  0  0  0  0  0  0  0  0
   -7.4183    2.0637   -1.6505 C   0  0  0  0  0  0  0  0  0  0  0  0
   -8.2711    2.7173   -0.7616 C   0  0  0  0  0  0  0  0  0  0  0  0
   -8.4198    2.2420    0.5389 C   0  0  0  0  0  0  0  0  0  0  0  0
   -7.7182    1.1094    0.9526 C   0  0  0  0  0  0  0  0  0  0  0  0
   -6.8594    0.4393    0.0675 C   0  0  0  0  0  0  0  0  0  0  0  0
   -6.0993   -0.7803    0.5493 C   0  0  0  0  0  0  0  0  0  0  0  0
   -3.2103   -2.1992    2.2817 C   0  0  0  0  0  0  0  0  0  0  0  0
   -2.1167   -1.7148    3.0115 C   0  0  0  0  0  0  0  0  0  0  0  0
   -0.9441   -1.2693    2.3765 C   0  0  0  0  0  0  0  0  0  0  0  0
    0.0398    1.4938    4.5727 H   0  0  0  0  0  0  0  0  0  0  0  0
   -1.5286    0.6846    4.6729 H   0  0  0  0  0  0  0  0  0  0  0  0
   -0.4555    0.7068    6.0814 H   0  0  0  0  0  0  0  0  0  0  0  0
    1.2005   -0.6901    4.9219 H   0  0  0  0  0  0  0  0  0  0  0  0
   -0.3109   -1.5383    5.0087 H   0  0  0  0  0  0  0  0  0  0  0  0
    2.0970    0.0212    2.9738 H   0  0  0  0  0  0  0  0  0  0  0  0
    1.9612   -0.2035   -1.4604 H   0  0  0  0  0  0  0  0  0  0  0  0
    4.3783    1.4397   -1.1820 H   0  0  0  0  0  0  0  0  0  0  0  0
    3.6013    0.8729   -2.6748 H   0  0  0  0  0  0  0  0  0  0  0  0
    4.4483   -1.4669   -2.1688 H   0  0  0  0  0  0  0  0  0  0  0  0
    5.3139   -0.8429   -0.7810 H   0  0  0  0  0  0  0  0  0  0  0  0
    6.7968   -1.1117   -2.7472 H   0  0  0  0  0  0  0  0  0  0  0  0
    5.7307   -0.1026   -3.7179 H   0  0  0  0  0  0  0  0  0  0  0  0
    8.5538    0.4012   -3.4937 H   0  0  0  0  0  0  0  0  0  0  0  0
    7.5452    1.6816   -4.2105 H   0  0  0  0  0  0  0  0  0  0  0  0
    8.3914    3.3253   -2.7300 H   0  0  0  0  0  0  0  0  0  0  0  0
    9.8143    2.2741   -2.8031 H   0  0  0  0  0  0  0  0  0  0  0  0
    8.1642    2.8676   -0.5194 H   0  0  0  0  0  0  0  0  0  0  0  0
    9.4892    1.6934   -0.5637 H   0  0  0  0  0  0  0  0  0  0  0  0
    8.0658   -0.1090   -0.9233 H   0  0  0  0  0  0  0  0  0  0  0  0
    6.8472    0.9552   -0.1824 H   0  0  0  0  0  0  0  0  0  0  0  0
   -1.9409   -1.8916   -0.8612 H   0  0  0  0  0  0  0  0  0  0  0  0
   -4.0262    0.0584   -0.9869 H   0  0  0  0  0  0  0  0  0  0  0  0
   -4.1762   -1.1788   -2.2500 H   0  0  0  0  0  0  0  0  0  0  0  0
   -5.3188    0.9289   -2.8854 H   0  0  0  0  0  0  0  0  0  0  0  0
   -6.4321   -0.4515   -2.8287 H   0  0  0  0  0  0  0  0  0  0  0  0
   -7.3194    2.4397   -2.6666 H   0  0  0  0  0  0  0  0  0  0  0  0
   -8.8236    3.5955   -1.0859 H   0  0  0  0  0  0  0  0  0  0  0  0
   -9.0874    2.7511    1.2294 H   0  0  0  0  0  0  0  0  0  0  0  0
   -7.8506    0.7473    1.9699 H   0  0  0  0  0  0  0  0  0  0  0  0
   -6.8223   -1.4643    1.0089 H   0  0  0  0  0  0  0  0  0  0  0  0
   -5.3886   -0.4441    1.3125 H   0  0  0  0  0  0  0  0  0  0  0  0
   -4.0939   -2.5493    2.8129 H   0  0  0  0  0  0  0  0  0  0  0  0
   -2.2169   -1.7024    4.0928 H   0  0  0  0  0  0  0  0  0  0  0  0
  1  2  1  0
  2  3  1  0
  3  4  1  0
  4  5  2  0
  5  6  1  0
  6  7  2  0
  6  8  1  0
  8  9  1  0
  9 10  1  0
 10 11  1  0
 11 12  1  0
 12 13  1  0
 13 14  1  0
 14 15  1  0
 15 16  1  0
  5 17  1  0
 17 18  2  0
 17 19  1  0
 19 20  2  0
 20 21  1  0
 21 22  1  0
 22 23  2  0
 22 24  2  0
 22 25  1  0
 25 26  1  0
 26 27  1  0
 27 28  1  0
 28 29  2  0
 29 30  1  0
 30 31  2  0
 31 32  1  0
 32 33  2  0
 33 34  1  0
 21 35  2  0
 35 36  1  0
 36 37  2  0
 37  3  1  0
 16 12  1  0
 37 19  1  0
 34 25  1  0
 33 28  1  0
  1 38  1  0
  1 39  1  0
  1 40  1  0
  2 41  1  0
  2 42  1  0
  4 43  1  0
  8 44  1  0
  9 45  1  0
  9 46  1  0
 10 47  1  0
 10 48  1  0
 11 49  1  0
 11 50  1  0
 13 51  1  0
 13 52  1  0
 14 53  1  0
 14 54  1  0
 15 55  1  0
 15 56  1  0
 16 57  1  0
 16 58  1  0
 20 59  1  0
 26 60  1  0
 26 61  1  0
 27 62  1  0
 27 63  1  0
 29 64  1  0
 30 65  1  0
 31 66  1  0
 32 67  1  0
 34 68  1  0
 34 69  1  0
 35 70  1  0
 36 71  1  0
M  END
$$$$
