
     RDKit          3D

 47 49  0  0  0  0  0  0  0  0999 V2000
    8.3554   -1.2742   -1.6606 C   0  0  0  0  0  0  0  0  0  0  0  0
    7.2251   -1.6756   -2.4240 O   0  0  0  0  0  0  0  0  0  0  0  0
    5.9941   -1.4011   -1.8976 C   0  0  0  0  0  0  0  0  0  0  0  0
    5.7411   -0.7150   -0.7123 C   0  0  0  0  0  0  0  0  0  0  0  0
    4.4216   -0.5011   -0.2919 C   0  0  0  0  0  0  0  0  0  0  0  0
    3.3395   -0.9845   -1.0376 C   0  0  0  0  0  0  0  0  0  0  0  0
    2.0443   -0.6943   -0.5591 N   0  0  0  0  0  0  0  0  0  0  0  0
    0.8196   -1.3061   -0.7992 C   0  0  0  0  0  0  0  0  0  0  0  0
    0.6206   -2.8933   -1.3193 S   0  0  0  0  0  0  0  0  0  0  0  0
   -0.2583   -0.4542   -0.4584 N   0  0  0  0  0  0  0  0  0  0  0  0
   -0.1855    0.9914   -0.7125 C   0  0  0  0  0  0  0  0  0  0  0  0
   -0.8513    1.7771    0.4133 C   0  0  0  0  0  0  0  0  0  0  0  0
   -2.2409    1.2680    0.6972 C   0  0  0  0  0  0  0  0  0  0  0  0
   -3.1653    2.0891    1.3613 C   0  0  0  0  0  0  0  0  0  0  0  0
   -4.4526    1.6262    1.6553 C   0  0  0  0  0  0  0  0  0  0  0  0
   -5.4168    2.3664    2.2944 O   0  0  0  0  0  0  0  0  0  0  0  0
   -5.0853    3.6917    2.6806 C   0  0  0  0  0  0  0  0  0  0  0  0
   -4.8203    0.3177    1.2881 C   0  0  0  0  0  0  0  0  0  0  0  0
   -6.1012   -0.0608    1.6077 O   0  0  0  0  0  0  0  0  0  0  0  0
   -6.5026   -1.3820    1.2766 C   0  0  0  0  0  0  0  0  0  0  0  0
   -3.8919   -0.5035    0.6377 C   0  0  0  0  0  0  0  0  0  0  0  0
   -2.5966   -0.0430    0.3463 C   0  0  0  0  0  0  0  0  0  0  0  0
   -1.6331   -0.9696   -0.3666 C   0  0  0  0  0  0  0  0  0  0  0  0
    3.5983   -1.6459   -2.2363 C   0  0  0  0  0  0  0  0  0  0  0  0
    4.9166   -1.8579   -2.6571 C   0  0  0  0  0  0  0  0  0  0  0  0
    9.2531   -1.5888   -2.2015 H   0  0  0  0  0  0  0  0  0  0  0  0
    8.3668   -1.7655   -0.6820 H   0  0  0  0  0  0  0  0  0  0  0  0
    8.3938   -0.1848   -1.5569 H   0  0  0  0  0  0  0  0  0  0  0  0
    6.5431   -0.3311   -0.0912 H   0  0  0  0  0  0  0  0  0  0  0  0
    4.2569    0.0366    0.6384 H   0  0  0  0  0  0  0  0  0  0  0  0
    2.0117   -0.0764    0.2413 H   0  0  0  0  0  0  0  0  0  0  0  0
   -0.6967    1.1731   -1.6673 H   0  0  0  0  0  0  0  0  0  0  0  0
    0.8420    1.3403   -0.8467 H   0  0  0  0  0  0  0  0  0  0  0  0
   -0.2582    1.6835    1.3313 H   0  0  0  0  0  0  0  0  0  0  0  0
   -0.8852    2.8371    0.1364 H   0  0  0  0  0  0  0  0  0  0  0  0
   -2.8544    3.0910    1.6388 H   0  0  0  0  0  0  0  0  0  0  0  0
   -5.9627    4.1273    3.1685 H   0  0  0  0  0  0  0  0  0  0  0  0
   -4.8493    4.3105    1.8087 H   0  0  0  0  0  0  0  0  0  0  0  0
   -4.2651    3.6986    3.4059 H   0  0  0  0  0  0  0  0  0  0  0  0
   -7.5365   -1.5111    1.6110 H   0  0  0  0  0  0  0  0  0  0  0  0
   -5.8900   -2.1243    1.7987 H   0  0  0  0  0  0  0  0  0  0  0  0
   -6.4821   -1.5412    0.1935 H   0  0  0  0  0  0  0  0  0  0  0  0
   -4.1510   -1.5167    0.3456 H   0  0  0  0  0  0  0  0  0  0  0  0
   -1.6158   -1.9260    0.1676 H   0  0  0  0  0  0  0  0  0  0  0  0
   -1.9946   -1.1352   -1.3890 H   0  0  0  0  0  0  0  0  0  0  0  0
    2.7990   -1.9825   -2.8875 H   0  0  0  0  0  0  0  0  0  0  0  0
    5.1005   -2.3800   -3.5932 H   0  0  0  0  0  0  0  0  0  0  0  0
  1  2  1  0
  2  3  1  0
  3  4  2  0
  4  5  1  0
  5  6  2  0
  6  7  1  0
  7  8  1  0
  8  9  2  0
  8 10  1  0
 10 11  1  0
 11 12  1  0
 12 13  1  0
 13 14  2  0
 14 15  1  0
 15 16  1  0
 16 17  1  0
 15 18  2  0
 18 19  1  0
 19 20  1  0
 18 21  1  0
 21 22  2  0
 22 23  1  0
  6 24  1  0
 24 25  2  0
 25  3  1  0
 23 10  1  0
 22 13  1  0
  1 26  1  0
  1 27  1  0
  1 28  1  0
  4 29  1  0
  5 30  1  0
  7 31  1  0
 11 32  1  0
 11 33  1  0
 12 34  1  0
 12 35  1  0
 14 36  1  0
 17 37  1  0
 17 38  1  0
 17 39  1  0
 20 40  1  0
 20 41  1  0
 20 42  1  0
 21 43  1  0
 23 44  1  0
 23 45  1  0
 24 46  1  0
 25 47  1  0
M  END
$$$$
