
     RDKit          3D

 49 52  0  0  0  0  0  0  0  0999 V2000
   -1.6563    1.2970    4.8827 N   0  0  0  0  0  0  0  0  0  0  0  0
   -1.1054    1.0137    3.8984 C   0  0  0  0  0  0  0  0  0  0  0  0
   -0.3444    0.7547    2.6643 C   0  0  0  0  0  0  0  0  0  0  0  0
    0.4135   -0.5631    2.7695 C   0  0  0  0  0  0  0  0  0  0  0  0
    0.0040   -1.5423    3.3884 O   0  0  0  0  0  0  0  0  0  0  0  0
    1.6270   -0.5714    2.0991 N   0  0  0  0  0  0  0  0  0  0  0  0
    2.3947   -1.7884    1.9385 C   0  0  0  0  0  0  0  0  0  0  0  0
    2.2413   -2.3349    0.5413 C   0  0  0  0  0  0  0  0  0  0  0  0
    3.3161   -2.3133   -0.3591 C   0  0  0  0  0  0  0  0  0  0  0  0
    3.1597   -2.7961   -1.6597 C   0  0  0  0  0  0  0  0  0  0  0  0
    1.9295   -3.3046   -2.0730 C   0  0  0  0  0  0  0  0  0  0  0  0
    0.8554   -3.3353   -1.1861 C   0  0  0  0  0  0  0  0  0  0  0  0
    1.0103   -2.8560    0.1150 C   0  0  0  0  0  0  0  0  0  0  0  0
   -1.1962    0.7680    1.4128 C   0  0  0  0  0  0  0  0  0  0  0  0
   -2.5115    0.4326    1.5273 N   0  0  0  0  0  0  0  0  0  0  0  0
   -3.2440    0.3919    0.4024 C   0  0  0  0  0  0  0  0  0  0  0  0
   -4.5898    0.0531    0.4680 C   0  0  0  0  0  0  0  0  0  0  0  0
   -5.3811    0.0008   -0.6801 C   0  0  0  0  0  0  0  0  0  0  0  0
   -4.8155    0.2923   -1.9143 C   0  0  0  0  0  0  0  0  0  0  0  0
   -3.4639    0.6333   -1.9882 C   0  0  0  0  0  0  0  0  0  0  0  0
   -2.6676    0.6878   -0.8503 C   0  0  0  0  0  0  0  0  0  0  0  0
   -1.3680    1.0217   -0.9621 N   0  0  0  0  0  0  0  0  0  0  0  0
   -0.6188    1.0538    0.1630 C   0  0  0  0  0  0  0  0  0  0  0  0
    0.7523    1.4212    0.0708 N   0  0  0  0  0  0  0  0  0  0  0  0
    0.8386    2.9077    0.0439 C   0  0  0  0  0  0  0  0  0  0  0  0
    1.8215    3.2337   -1.0749 C   0  0  0  0  0  0  0  0  0  0  0  0
    1.5385    2.1406   -2.0843 C   0  0  0  0  0  0  0  0  0  0  0  0
    1.3693    0.9202   -1.1894 C   0  0  0  0  0  0  0  0  0  0  0  0
    0.3927    1.5661    2.6088 H   0  0  0  0  0  0  0  0  0  0  0  0
    1.7623    0.1466    1.3885 H   0  0  0  0  0  0  0  0  0  0  0  0
    2.1010   -2.5467    2.6721 H   0  0  0  0  0  0  0  0  0  0  0  0
    3.4401   -1.5272    2.1352 H   0  0  0  0  0  0  0  0  0  0  0  0
    4.2831   -1.9192   -0.0545 H   0  0  0  0  0  0  0  0  0  0  0  0
    3.9987   -2.7790   -2.3506 H   0  0  0  0  0  0  0  0  0  0  0  0
    1.8082   -3.6818   -3.0850 H   0  0  0  0  0  0  0  0  0  0  0  0
   -0.1043   -3.7340   -1.5050 H   0  0  0  0  0  0  0  0  0  0  0  0
    0.1631   -2.8887    0.7990 H   0  0  0  0  0  0  0  0  0  0  0  0
   -5.0287   -0.1757    1.4368 H   0  0  0  0  0  0  0  0  0  0  0  0
   -6.4320   -0.2675   -0.6050 H   0  0  0  0  0  0  0  0  0  0  0  0
   -5.4192    0.2550   -2.8176 H   0  0  0  0  0  0  0  0  0  0  0  0
   -3.0194    0.8610   -2.9539 H   0  0  0  0  0  0  0  0  0  0  0  0
   -0.1260    3.3888   -0.1681 H   0  0  0  0  0  0  0  0  0  0  0  0
    1.2017    3.2840    1.0059 H   0  0  0  0  0  0  0  0  0  0  0  0
    2.8526    3.1567   -0.7095 H   0  0  0  0  0  0  0  0  0  0  0  0
    1.6745    4.2379   -1.4816 H   0  0  0  0  0  0  0  0  0  0  0  0
    2.3448    2.0162   -2.8123 H   0  0  0  0  0  0  0  0  0  0  0  0
    0.6104    2.3531   -2.6276 H   0  0  0  0  0  0  0  0  0  0  0  0
    0.8266    0.1055   -1.6821 H   0  0  0  0  0  0  0  0  0  0  0  0
    2.3610    0.5301   -0.9319 H   0  0  0  0  0  0  0  0  0  0  0  0
  1  2  3  0
  2  3  1  0
  3  4  1  0
  4  5  2  0
  4  6  1  0
  6  7  1  0
  7  8  1  0
  8  9  2  0
  9 10  1  0
 10 11  2  0
 11 12  1  0
 12 13  2  0
  3 14  1  0
 14 15  2  0
 15 16  1  0
 16 17  2  0
 17 18  1  0
 18 19  2  0
 19 20  1  0
 20 21  2  0
 21 22  1  0
 22 23  2  0
 23 24  1  0
 24 25  1  0
 25 26  1  0
 26 27  1  0
 27 28  1  0
 13  8  1  0
 23 14  1  0
 28 24  1  0
 21 16  1  0
  3 29  1  0
  6 30  1  0
  7 31  1  0
  7 32  1  0
  9 33  1  0
 10 34  1  0
 11 35  1  0
 12 36  1  0
 13 37  1  0
 17 38  1  0
 18 39  1  0
 19 40  1  0
 20 41  1  0
 25 42  1  0
 25 43  1  0
 26 44  1  0
 26 45  1  0
 27 46  1  0
 27 47  1  0
 28 48  1  0
 28 49  1  0
M  END
$$$$
