
     RDKit          3D

 60 64  0  0  0  0  0  0  0  0999 V2000
    3.4107   -0.0207   -2.6492 O   0  0  0  0  0  0  0  0  0  0  0  0
    2.9585   -0.4119   -1.5803 C   0  0  0  0  0  0  0  0  0  0  0  0
    3.6462   -0.5937   -0.3945 N   0  0  0  0  0  0  0  0  0  0  0  0
    5.0270   -0.4003   -0.1730 C   0  0  0  0  0  0  0  0  0  0  0  0
    5.4760   -0.4697    1.1534 C   0  0  0  0  0  0  0  0  0  0  0  0
    6.8229   -0.2557    1.4660 C   0  0  0  0  0  0  0  0  0  0  0  0
    7.7392    0.0132    0.4483 C   0  0  0  0  0  0  0  0  0  0  0  0
    9.1652    0.2644    0.7677 C   0  0  0  0  0  0  0  0  0  0  0  0
   10.1053    0.1322   -0.1338 N   0  0  0  0  0  0  0  0  0  0  0  0
   11.3645    0.4589    0.5873 C   0  0  0  0  0  0  0  0  0  0  0  0
   10.9418    1.1393    1.8919 C   0  0  0  0  0  0  0  0  0  0  0  0
    9.5733    0.6872    2.0146 N   0  0  0  0  0  0  0  0  0  0  0  0
    7.3049    0.0491   -0.8777 C   0  0  0  0  0  0  0  0  0  0  0  0
    5.9531   -0.1500   -1.1862 C   0  0  0  0  0  0  0  0  0  0  0  0
    1.4896   -0.6475   -1.4945 C   0  0  0  0  0  0  0  0  0  0  0  0
    0.9481   -1.6617   -0.6908 C   0  0  0  0  0  0  0  0  0  0  0  0
   -0.4405   -1.8210   -0.5993 C   0  0  0  0  0  0  0  0  0  0  0  0
   -1.3033   -0.9672   -1.3028 C   0  0  0  0  0  0  0  0  0  0  0  0
   -2.7596   -1.1821   -1.1297 C   0  0  0  0  0  0  0  0  0  0  0  0
   -3.1636   -2.3340   -1.2321 O   0  0  0  0  0  0  0  0  0  0  0  0
   -3.4899   -0.0606   -0.7898 N   0  0  0  0  0  0  0  0  0  0  0  0
   -4.8708   -0.0023   -0.5004 C   0  0  0  0  0  0  0  0  0  0  0  0
   -5.3804    1.2297   -0.0704 C   0  0  0  0  0  0  0  0  0  0  0  0
   -6.7293    1.3628    0.2770 C   0  0  0  0  0  0  0  0  0  0  0  0
   -7.5926    0.2672    0.1830 C   0  0  0  0  0  0  0  0  0  0  0  0
   -9.0139    0.4164    0.5950 C   0  0  0  0  0  0  0  0  0  0  0  0
   -9.4791    1.5616    1.0373 N   0  0  0  0  0  0  0  0  0  0  0  0
  -10.9087    1.2974    1.3525 C   0  0  0  0  0  0  0  0  0  0  0  0
  -11.0858   -0.2209    1.3125 C   0  0  0  0  0  0  0  0  0  0  0  0
   -9.9115   -0.6276    0.5756 N   0  0  0  0  0  0  0  0  0  0  0  0
   -7.0964   -0.9535   -0.2826 C   0  0  0  0  0  0  0  0  0  0  0  0
   -5.7412   -1.0872   -0.6147 C   0  0  0  0  0  0  0  0  0  0  0  0
   -0.7433   -0.0005   -2.1379 C   0  0  0  0  0  0  0  0  0  0  0  0
   -1.5912    0.8695   -2.9100 N   0  0  0  0  0  4  0  0  0  0  0  0
   -1.9937    1.8888   -2.3311 O   0  0  0  0  0  0  0  0  0  0  0  0
   -1.8378    0.5361   -4.0704 O   0  0  0  0  0  1  0  0  0  0  0  0
    0.6411    0.1734   -2.2470 C   0  0  0  0  0  0  0  0  0  0  0  0
    3.1001   -0.7827    0.4361 H   0  0  0  0  0  0  0  0  0  0  0  0
    4.7855   -0.6807    1.9666 H   0  0  0  0  0  0  0  0  0  0  0  0
    7.1476   -0.3148    2.5003 H   0  0  0  0  0  0  0  0  0  0  0  0
   11.9155   -0.4703    0.7835 H   0  0  0  0  0  0  0  0  0  0  0  0
   11.9963    1.1188   -0.0176 H   0  0  0  0  0  0  0  0  0  0  0  0
   11.5576    0.8385    2.7436 H   0  0  0  0  0  0  0  0  0  0  0  0
   10.9723    2.2301    1.7846 H   0  0  0  0  0  0  0  0  0  0  0  0
    8.9425    1.3212    2.4938 H   0  0  0  0  0  0  0  0  0  0  0  0
    8.0117    0.2454   -1.6792 H   0  0  0  0  0  0  0  0  0  0  0  0
    5.6616   -0.1047   -2.2308 H   0  0  0  0  0  0  0  0  0  0  0  0
    1.5913   -2.3527   -0.1497 H   0  0  0  0  0  0  0  0  0  0  0  0
   -0.8521   -2.6169    0.0223 H   0  0  0  0  0  0  0  0  0  0  0  0
   -3.0040    0.8274   -0.7002 H   0  0  0  0  0  0  0  0  0  0  0  0
   -4.7386    2.1040    0.0135 H   0  0  0  0  0  0  0  0  0  0  0  0
   -7.1016    2.3256    0.6218 H   0  0  0  0  0  0  0  0  0  0  0  0
  -11.1654    1.6993    2.3390 H   0  0  0  0  0  0  0  0  0  0  0  0
  -11.5356    1.7895    0.5998 H   0  0  0  0  0  0  0  0  0  0  0  0
  -12.0108   -0.5200    0.8117 H   0  0  0  0  0  0  0  0  0  0  0  0
  -11.0655   -0.6498    2.3204 H   0  0  0  0  0  0  0  0  0  0  0  0
   -9.5547   -1.5541    0.7741 H   0  0  0  0  0  0  0  0  0  0  0  0
   -7.7434   -1.8164   -0.4028 H   0  0  0  0  0  0  0  0  0  0  0  0
   -5.4037   -2.0557   -0.9663 H   0  0  0  0  0  0  0  0  0  0  0  0
    1.0587    0.9400   -2.8994 H   0  0  0  0  0  0  0  0  0  0  0  0
  1  2  2  0
  2  3  1  0
  3  4  1  0
  4  5  2  0
  5  6  1  0
  6  7  2  0
  7  8  1  0
  8  9  2  0
  9 10  1  0
 10 11  1  0
 11 12  1  0
  7 13  1  0
 13 14  2  0
  2 15  1  0
 15 16  2  0
 16 17  1  0
 17 18  2  0
 18 19  1  0
 19 20  2  0
 19 21  1  0
 21 22  1  0
 22 23  2  0
 23 24  1  0
 24 25  2  0
 25 26  1  0
 26 27  2  0
 27 28  1  0
 28 29  1  0
 29 30  1  0
 25 31  1  0
 31 32  2  0
 18 33  1  0
 33 34  1  0
 34 35  2  0
 34 36  1  0
 33 37  2  0
 14  4  1  0
 37 15  1  0
 12  8  1  0
 32 22  1  0
 30 26  1  0
  3 38  1  0
  5 39  1  0
  6 40  1  0
 10 41  1  0
 10 42  1  0
 11 43  1  0
 11 44  1  0
 12 45  1  0
 13 46  1  0
 14 47  1  0
 16 48  1  0
 17 49  1  0
 21 50  1  0
 23 51  1  0
 24 52  1  0
 28 53  1  0
 28 54  1  0
 29 55  1  0
 29 56  1  0
 30 57  1  0
 31 58  1  0
 32 59  1  0
 37 60  1  0
M  CHG  2  34   1  36  -1
M  END
$$$$
