
     RDKit          3D

 47 48  0  0  0  0  0  0  0  0999 V2000
   -2.4039    1.2139   -3.3972 C   0  0  0  0  0  0  0  0  0  0  0  0
   -3.0310    1.8849   -1.8381 S   0  0  0  0  0  0  0  0  0  0  0  0
   -3.2396    0.3387   -0.8908 C   0  0  0  0  0  0  0  0  0  0  0  0
   -1.9645   -0.4630   -0.6008 C   0  0  0  0  0  0  0  0  0  0  0  0
   -0.9250    0.1763    0.3329 C   0  0  0  0  0  0  0  0  0  0  0  0
   -0.3081    1.3527   -0.3127 N   0  0  0  0  0  0  0  0  0  0  0  0
    1.2028    1.8330    0.2443 S   0  0  0  0  0  6  0  0  0  0  0  0
    1.4335    1.2351    1.5412 O   0  0  0  0  0  0  0  0  0  0  0  0
    1.3164    3.2544    0.0128 O   0  0  0  0  0  0  0  0  0  0  0  0
    2.2572    1.0258   -0.9366 C   0  0  0  0  0  0  0  0  0  0  0  0
    2.2827    1.4922   -2.2535 C   0  0  0  0  0  0  0  0  0  0  0  0
    3.1075    0.8658   -3.1886 C   0  0  0  0  0  0  0  0  0  0  0  0
    3.9180   -0.2134   -2.8097 C   0  0  0  0  0  0  0  0  0  0  0  0
    4.7834   -0.9025   -3.8242 C   0  0  0  0  0  0  0  0  0  0  0  0
    3.8768   -0.6735   -1.4857 C   0  0  0  0  0  0  0  0  0  0  0  0
    3.0539   -0.0518   -0.5448 C   0  0  0  0  0  0  0  0  0  0  0  0
   -1.5503    0.5886    1.6763 C   0  0  0  0  0  0  0  0  0  0  0  0
   -2.0369    1.7137    1.8208 O   0  0  0  0  0  0  0  0  0  0  0  0
   -1.5962   -0.3531    2.6811 N   0  0  0  0  0  0  0  0  0  0  0  0
   -2.1324   -0.0154    3.9900 C   0  0  0  0  0  0  0  0  0  0  0  0
   -1.5867   -1.0903    4.9201 C   0  0  0  0  0  0  0  0  0  0  0  0
   -1.4182   -2.2900    3.9973 C   0  0  0  0  0  0  0  0  0  0  0  0
   -0.9416   -1.6509    2.7019 C   0  0  0  0  0  0  0  0  0  0  0  0
   -3.0634    0.4263   -3.7704 H   0  0  0  0  0  0  0  0  0  0  0  0
   -2.3683    2.0155   -4.1400 H   0  0  0  0  0  0  0  0  0  0  0  0
   -1.3914    0.8232   -3.2711 H   0  0  0  0  0  0  0  0  0  0  0  0
   -3.9369   -0.2936   -1.4522 H   0  0  0  0  0  0  0  0  0  0  0  0
   -3.7491    0.5910    0.0445 H   0  0  0  0  0  0  0  0  0  0  0  0
   -1.4802   -0.7445   -1.5437 H   0  0  0  0  0  0  0  0  0  0  0  0
   -2.2887   -1.4075   -0.1444 H   0  0  0  0  0  0  0  0  0  0  0  0
   -0.1384   -0.5685    0.4937 H   0  0  0  0  0  0  0  0  0  0  0  0
   -0.9421    2.1579   -0.3985 H   0  0  0  0  0  0  0  0  0  0  0  0
    1.6659    2.3374   -2.5514 H   0  0  0  0  0  0  0  0  0  0  0  0
    3.1204    1.2293   -4.2142 H   0  0  0  0  0  0  0  0  0  0  0  0
    4.2245   -1.7117   -4.3040 H   0  0  0  0  0  0  0  0  0  0  0  0
    5.6793   -1.3209   -3.3537 H   0  0  0  0  0  0  0  0  0  0  0  0
    5.1194   -0.1991   -4.5933 H   0  0  0  0  0  0  0  0  0  0  0  0
    4.4940   -1.5156   -1.1788 H   0  0  0  0  0  0  0  0  0  0  0  0
    3.0441   -0.4092    0.4819 H   0  0  0  0  0  0  0  0  0  0  0  0
   -1.8367    0.9928    4.2958 H   0  0  0  0  0  0  0  0  0  0  0  0
   -3.2249   -0.0619    3.9227 H   0  0  0  0  0  0  0  0  0  0  0  0
   -0.6086   -0.7852    5.3115 H   0  0  0  0  0  0  0  0  0  0  0  0
   -2.2478   -1.2899    5.7677 H   0  0  0  0  0  0  0  0  0  0  0  0
   -0.7164   -3.0336    4.3844 H   0  0  0  0  0  0  0  0  0  0  0  0
   -2.3883   -2.7775    3.8427 H   0  0  0  0  0  0  0  0  0  0  0  0
    0.1413   -1.4848    2.7139 H   0  0  0  0  0  0  0  0  0  0  0  0
   -1.2054   -2.2409    1.8208 H   0  0  0  0  0  0  0  0  0  0  0  0
  1  2  1  0
  2  3  1  0
  3  4  1  0
  4  5  1  0
  5  6  1  0
  6  7  1  0
  7  8  2  0
  7  9  2  0
  7 10  1  0
 10 11  2  0
 11 12  1  0
 12 13  2  0
 13 14  1  0
 13 15  1  0
 15 16  2  0
  5 17  1  0
 17 18  2  0
 17 19  1  0
 19 20  1  0
 20 21  1  0
 21 22  1  0
 22 23  1  0
 16 10  1  0
 23 19  1  0
  1 24  1  0
  1 25  1  0
  1 26  1  0
  3 27  1  0
  3 28  1  0
  4 29  1  0
  4 30  1  0
  5 31  1  0
  6 32  1  0
 11 33  1  0
 12 34  1  0
 14 35  1  0
 14 36  1  0
 14 37  1  0
 15 38  1  0
 16 39  1  0
 20 40  1  0
 20 41  1  0
 21 42  1  0
 21 43  1  0
 22 44  1  0
 22 45  1  0
 23 46  1  0
 23 47  1  0
M  END
$$$$
