
     RDKit          3D

 45 47  0  0  0  0  0  0  0  0999 V2000
    3.2218   -0.4407   -2.4629 C   0  0  0  0  0  0  0  0  0  0  0  0
    3.6940    0.8158   -1.7955 C   0  0  0  0  0  0  0  0  0  0  0  0
    4.6422    1.6234   -2.4151 C   0  0  0  0  0  0  0  0  0  0  0  0
    5.0481    2.7880   -1.7728 C   0  0  0  0  0  0  0  0  0  0  0  0
    4.5037    3.1046   -0.5327 C   0  0  0  0  0  0  0  0  0  0  0  0
    3.5894    2.2264    0.0268 C   0  0  0  0  0  0  0  0  0  0  0  0
    2.9541    2.5658    1.2336 N   0  0  0  0  0  0  0  0  0  0  0  0
    2.6150    1.3700    2.3495 S   0  0  0  0  0  6  0  0  0  0  0  0
    3.7136    0.4287    2.4102 O   0  0  0  0  0  0  0  0  0  0  0  0
    2.2054    2.0786    3.5482 O   0  0  0  0  0  0  0  0  0  0  0  0
    1.1662    0.5653    1.7180 C   0  0  0  0  0  0  0  0  0  0  0  0
    1.2446   -0.7447    1.2441 C   0  0  0  0  0  0  0  0  0  0  0  0
    0.0909   -1.3804    0.7806 C   0  0  0  0  0  0  0  0  0  0  0  0
   -1.1491   -0.7207    0.7963 C   0  0  0  0  0  0  0  0  0  0  0  0
   -2.3875   -1.4368    0.2840 C   0  0  0  0  0  0  0  0  0  0  0  0
   -2.9926   -0.7273   -0.9400 C   0  0  0  0  0  0  0  0  0  0  0  0
   -4.2311   -1.4595   -1.4539 C   0  0  0  0  0  0  0  0  0  0  0  0
   -5.2701   -1.6500   -0.3526 C   0  0  0  0  0  0  0  0  0  0  0  0
   -4.6775   -2.3511    0.8663 C   0  0  0  0  0  0  0  0  0  0  0  0
   -3.4409   -1.6226    1.3900 C   0  0  0  0  0  0  0  0  0  0  0  0
   -1.2092    0.5928    1.2910 C   0  0  0  0  0  0  0  0  0  0  0  0
   -0.0590    1.2345    1.7551 C   0  0  0  0  0  0  0  0  0  0  0  0
    3.1561    1.1169   -0.5905 N   0  0  0  0  0  0  0  0  0  0  0  0
    2.4784   -0.9552   -1.8458 H   0  0  0  0  0  0  0  0  0  0  0  0
    4.0626   -1.1228   -2.6225 H   0  0  0  0  0  0  0  0  0  0  0  0
    2.7601   -0.2061   -3.4270 H   0  0  0  0  0  0  0  0  0  0  0  0
    5.0545    1.3560   -3.3829 H   0  0  0  0  0  0  0  0  0  0  0  0
    5.7793    3.4442   -2.2362 H   0  0  0  0  0  0  0  0  0  0  0  0
    4.8005    4.0126   -0.0220 H   0  0  0  0  0  0  0  0  0  0  0  0
    3.1490    3.4616    1.6656 H   0  0  0  0  0  0  0  0  0  0  0  0
    2.1979   -1.2676    1.2199 H   0  0  0  0  0  0  0  0  0  0  0  0
    0.1696   -2.3986    0.4054 H   0  0  0  0  0  0  0  0  0  0  0  0
   -2.0861   -2.4420   -0.0443 H   0  0  0  0  0  0  0  0  0  0  0  0
   -3.2706    0.3046   -0.6907 H   0  0  0  0  0  0  0  0  0  0  0  0
   -2.2488   -0.6644   -1.7441 H   0  0  0  0  0  0  0  0  0  0  0  0
   -3.9373   -2.4384   -1.8523 H   0  0  0  0  0  0  0  0  0  0  0  0
   -4.6731   -0.8970   -2.2840 H   0  0  0  0  0  0  0  0  0  0  0  0
   -5.6675   -0.6723   -0.0533 H   0  0  0  0  0  0  0  0  0  0  0  0
   -6.1136   -2.2330   -0.7389 H   0  0  0  0  0  0  0  0  0  0  0  0
   -4.4091   -3.3811    0.6009 H   0  0  0  0  0  0  0  0  0  0  0  0
   -5.4317   -2.4122    1.6590 H   0  0  0  0  0  0  0  0  0  0  0  0
   -3.7495   -0.6516    1.7974 H   0  0  0  0  0  0  0  0  0  0  0  0
   -3.0126   -2.1897    2.2258 H   0  0  0  0  0  0  0  0  0  0  0  0
   -2.1557    1.1280    1.3221 H   0  0  0  0  0  0  0  0  0  0  0  0
   -0.1244    2.2474    2.1440 H   0  0  0  0  0  0  0  0  0  0  0  0
  1  2  1  0
  2  3  2  0
  3  4  1  0
  4  5  2  0
  5  6  1  0
  6  7  1  0
  7  8  1  0
  8  9  2  0
  8 10  2  0
  8 11  1  0
 11 12  2  0
 12 13  1  0
 13 14  2  0
 14 15  1  0
 15 16  1  0
 16 17  1  0
 17 18  1  0
 18 19  1  0
 19 20  1  0
 14 21  1  0
 21 22  2  0
  6 23  2  0
 23  2  1  0
 22 11  1  0
 20 15  1  0
  1 24  1  0
  1 25  1  0
  1 26  1  0
  3 27  1  0
  4 28  1  0
  5 29  1  0
  7 30  1  0
 12 31  1  0
 13 32  1  0
 15 33  1  0
 16 34  1  0
 16 35  1  0
 17 36  1  0
 17 37  1  0
 18 38  1  0
 18 39  1  0
 19 40  1  0
 19 41  1  0
 20 42  1  0
 20 43  1  0
 21 44  1  0
 22 45  1  0
M  END
$$$$
