
     RDKit          3D

 49 51  0  0  0  0  0  0  0  0999 V2000
   -5.2259    1.8204    3.5093 C   0  0  0  0  0  0  0  0  0  0  0  0
   -5.6395    0.7566    2.6645 O   0  0  0  0  0  0  0  0  0  0  0  0
   -4.9864    0.6065    1.4661 C   0  0  0  0  0  0  0  0  0  0  0  0
   -4.0303    1.4987    0.9706 C   0  0  0  0  0  0  0  0  0  0  0  0
   -3.4204    1.2678   -0.2654 C   0  0  0  0  0  0  0  0  0  0  0  0
   -3.7549    0.1399   -1.0166 C   0  0  0  0  0  0  0  0  0  0  0  0
   -3.1488   -0.1009   -2.3287 C   0  0  0  0  0  0  0  0  0  0  0  0
   -1.8794   -0.4619   -2.5648 C   0  0  0  0  0  0  0  0  0  0  0  0
   -1.2827   -0.7350   -4.1648 S   0  0  0  0  0  0  0  0  0  0  0  0
    0.3198   -1.1511   -3.5935 C   0  0  0  0  0  0  0  0  0  0  0  0
    1.2551   -1.3652   -4.3475 O   0  0  0  0  0  0  0  0  0  0  0  0
    0.3440   -1.1505   -2.2261 N   0  0  0  0  0  0  0  0  0  0  0  0
    1.5677   -1.4454   -1.4953 C   0  0  0  0  0  0  0  0  0  0  0  0
    2.4136   -0.1940   -1.2785 C   0  0  0  0  0  0  0  0  0  0  0  0
    3.6874   -0.5187   -0.5221 C   0  0  0  0  0  0  0  0  0  0  0  0
    3.9561   -1.6621   -0.1737 O   0  0  0  0  0  0  0  0  0  0  0  0
    4.4525    0.6158   -0.3060 N   0  0  0  0  0  0  0  0  0  0  0  0
    5.6942    0.7022    0.3581 C   0  0  0  0  0  0  0  0  0  0  0  0
    6.2815    1.9714    0.4516 C   0  0  0  0  0  0  0  0  0  0  0  0
    7.5109    2.1445    1.0933 C   0  0  0  0  0  0  0  0  0  0  0  0
    8.1657    1.0492    1.6485 C   0  0  0  0  0  0  0  0  0  0  0  0
    7.5904   -0.2159    1.5610 C   0  0  0  0  0  0  0  0  0  0  0  0
    6.3597   -0.3892    0.9186 C   0  0  0  0  0  0  0  0  0  0  0  0
   -0.7862   -0.7043   -1.5776 C   0  0  0  0  0  0  0  0  0  0  0  0
   -0.8669   -0.4985   -0.3762 O   0  0  0  0  0  0  0  0  0  0  0  0
   -4.7183   -0.7524   -0.5301 C   0  0  0  0  0  0  0  0  0  0  0  0
   -5.3343   -0.5299    0.7082 C   0  0  0  0  0  0  0  0  0  0  0  0
   -6.2886   -1.3512    1.2577 O   0  0  0  0  0  0  0  0  0  0  0  0
   -6.5703   -2.5732    0.5916 C   0  0  0  0  0  0  0  0  0  0  0  0
   -5.8036    1.7553    4.4364 H   0  0  0  0  0  0  0  0  0  0  0  0
   -5.4409    2.7919    3.0524 H   0  0  0  0  0  0  0  0  0  0  0  0
   -4.1664    1.7311    3.7715 H   0  0  0  0  0  0  0  0  0  0  0  0
   -3.7364    2.3856    1.5213 H   0  0  0  0  0  0  0  0  0  0  0  0
   -2.6782    1.9748   -0.6280 H   0  0  0  0  0  0  0  0  0  0  0  0
   -3.8433    0.0181   -3.1588 H   0  0  0  0  0  0  0  0  0  0  0  0
    1.2992   -1.8910   -0.5298 H   0  0  0  0  0  0  0  0  0  0  0  0
    2.1388   -2.1947   -2.0568 H   0  0  0  0  0  0  0  0  0  0  0  0
    2.6836    0.2517   -2.2432 H   0  0  0  0  0  0  0  0  0  0  0  0
    1.8472    0.5518   -0.7085 H   0  0  0  0  0  0  0  0  0  0  0  0
    4.0856    1.4894   -0.6621 H   0  0  0  0  0  0  0  0  0  0  0  0
    5.7933    2.8447    0.0273 H   0  0  0  0  0  0  0  0  0  0  0  0
    7.9561    3.1338    1.1591 H   0  0  0  0  0  0  0  0  0  0  0  0
    9.1219    1.1790    2.1485 H   0  0  0  0  0  0  0  0  0  0  0  0
    8.0968   -1.0757    1.9928 H   0  0  0  0  0  0  0  0  0  0  0  0
    5.9503   -1.3934    0.8752 H   0  0  0  0  0  0  0  0  0  0  0  0
   -4.9760   -1.6161   -1.1340 H   0  0  0  0  0  0  0  0  0  0  0  0
   -5.6723   -3.1934    0.5018 H   0  0  0  0  0  0  0  0  0  0  0  0
   -7.2954   -3.1251    1.1976 H   0  0  0  0  0  0  0  0  0  0  0  0
   -7.0262   -2.3913   -0.3869 H   0  0  0  0  0  0  0  0  0  0  0  0
  1  2  1  0
  2  3  1  0
  3  4  2  0
  4  5  1  0
  5  6  2  0
  6  7  1  0
  7  8  2  3
  8  9  1  0
  9 10  1  0
 10 11  2  0
 10 12  1  0
 12 13  1  0
 13 14  1  0
 14 15  1  0
 15 16  2  0
 15 17  1  0
 17 18  1  0
 18 19  2  0
 19 20  1  0
 20 21  2  0
 21 22  1  0
 22 23  2  0
 12 24  1  0
 24 25  2  0
  6 26  1  0
 26 27  2  0
 27 28  1  0
 28 29  1  0
 27  3  1  0
 24  8  1  0
 23 18  1  0
  1 30  1  0
  1 31  1  0
  1 32  1  0
  4 33  1  0
  5 34  1  0
  7 35  1  0
 13 36  1  0
 13 37  1  0
 14 38  1  0
 14 39  1  0
 17 40  1  0
 19 41  1  0
 20 42  1  0
 21 43  1  0
 22 44  1  0
 23 45  1  0
 26 46  1  0
 29 47  1  0
 29 48  1  0
 29 49  1  0
M  END
$$$$
