
     RDKit          3D

 69 71  0  0  0  0  0  0  0  0999 V2000
   -3.1371    4.5513    0.0685 C   0  0  0  0  0  0  0  0  0  0  0  0
   -4.5326    4.3274   -0.4942 C   0  0  0  0  0  0  0  0  0  0  0  0
   -4.7505    2.9139   -1.0433 C   0  0  0  0  0  0  0  0  0  0  0  0
   -4.7166    1.8744   -0.0085 N   0  0  0  0  0  0  0  0  0  0  0  0
   -5.8951    1.7498    0.8556 C   0  0  0  0  0  0  0  0  0  0  0  0
   -6.8764    0.7024    0.3249 C   0  0  0  0  0  0  0  0  0  0  0  0
   -8.0994    0.5793    1.2188 C   0  0  0  0  0  0  0  0  0  0  0  0
   -3.6967    0.9321    0.1551 C   0  0  0  0  0  0  0  0  0  0  0  0
   -3.7738    0.0510    1.0148 O   0  0  0  0  0  0  0  0  0  0  0  0
   -2.5110    0.9917   -0.8203 C   0  0  0  0  0  0  0  0  0  0  0  0
   -1.4548    0.0525   -0.4379 N   0  0  0  0  0  0  0  0  0  0  0  0
   -0.4638    0.5251    0.4304 C   0  0  0  0  0  0  0  0  0  0  0  0
   -0.4361    1.7106    0.7742 O   0  0  0  0  0  0  0  0  0  0  0  0
    0.5038   -0.3891    0.8679 N   0  0  0  0  0  0  0  0  0  0  0  0
    1.5394    0.0943    1.7815 C   0  0  0  0  0  0  0  0  0  0  0  0
    2.8989    0.3149    1.1035 C   0  0  0  0  0  0  0  0  0  0  0  0
    2.8663    1.3813    0.0073 C   0  0  0  0  0  0  0  0  0  0  0  0
    4.2448    1.6988   -0.5883 C   0  0  0  0  0  0  0  0  0  0  0  0
    4.8769    0.5311   -1.3490 C   0  0  0  0  0  0  0  0  0  0  0  0
    5.7090   -0.3771   -0.4534 C   0  0  0  0  0  0  0  0  0  0  0  0
    6.5507    0.0894    0.3077 O   0  0  0  0  0  0  0  0  0  0  0  0
    5.4055   -1.7158   -0.6250 N   0  0  0  0  0  0  0  0  0  0  0  0
    6.0100   -2.8219    0.0094 C   0  0  0  0  0  0  0  0  0  0  0  0
    7.1359   -2.7332    0.8292 C   0  0  0  0  0  0  0  0  0  0  0  0
    7.6845   -3.8840    1.4066 C   0  0  0  0  0  0  0  0  0  0  0  0
    7.1131   -5.1310    1.1692 C   0  0  0  0  0  0  0  0  0  0  0  0
    5.9847   -5.2295    0.3590 C   0  0  0  0  0  0  0  0  0  0  0  0
    5.4380   -4.0811   -0.2200 C   0  0  0  0  0  0  0  0  0  0  0  0
    0.5679   -1.7359    0.4877 C   0  0  0  0  0  0  0  0  0  0  0  0
    1.4829   -2.4817    0.8333 O   0  0  0  0  0  0  0  0  0  0  0  0
   -0.5158   -2.1442   -0.3588 C   0  0  0  0  0  0  0  0  0  0  0  0
   -0.7177   -3.7383   -0.9056 S   0  0  0  0  0  0  0  0  0  0  0  0
   -2.1566   -3.3184   -1.7343 C   0  0  0  0  0  0  0  0  0  0  0  0
   -2.4568   -1.9783   -1.5986 C   0  0  0  0  0  0  0  0  0  0  0  0
   -1.4932   -1.2941   -0.7995 C   0  0  0  0  0  0  0  0  0  0  0  0
   -3.0395    5.5767    0.4374 H   0  0  0  0  0  0  0  0  0  0  0  0
   -2.3752    4.3993   -0.7032 H   0  0  0  0  0  0  0  0  0  0  0  0
   -2.9306    3.8747    0.9032 H   0  0  0  0  0  0  0  0  0  0  0  0
   -4.6991    5.0441   -1.3076 H   0  0  0  0  0  0  0  0  0  0  0  0
   -5.2702    4.5568    0.2825 H   0  0  0  0  0  0  0  0  0  0  0  0
   -4.0156    2.7095   -1.8255 H   0  0  0  0  0  0  0  0  0  0  0  0
   -5.7345    2.8596   -1.5255 H   0  0  0  0  0  0  0  0  0  0  0  0
   -5.5656    1.4725    1.8649 H   0  0  0  0  0  0  0  0  0  0  0  0
   -6.3892    2.7243    0.9381 H   0  0  0  0  0  0  0  0  0  0  0  0
   -7.1947    0.9681   -0.6907 H   0  0  0  0  0  0  0  0  0  0  0  0
   -6.3843   -0.2744    0.2551 H   0  0  0  0  0  0  0  0  0  0  0  0
   -8.7636   -0.2097    0.8490 H   0  0  0  0  0  0  0  0  0  0  0  0
   -7.8108    0.3285    2.2450 H   0  0  0  0  0  0  0  0  0  0  0  0
   -8.6641    1.5167    1.2393 H   0  0  0  0  0  0  0  0  0  0  0  0
   -2.1049    2.0066   -0.8344 H   0  0  0  0  0  0  0  0  0  0  0  0
   -2.8568    0.7509   -1.8309 H   0  0  0  0  0  0  0  0  0  0  0  0
    1.6627   -0.6534    2.5753 H   0  0  0  0  0  0  0  0  0  0  0  0
    1.2206    1.0197    2.2737 H   0  0  0  0  0  0  0  0  0  0  0  0
    3.6265    0.6060    1.8711 H   0  0  0  0  0  0  0  0  0  0  0  0
    3.2433   -0.6327    0.6827 H   0  0  0  0  0  0  0  0  0  0  0  0
    2.4528    2.3090    0.4220 H   0  0  0  0  0  0  0  0  0  0  0  0
    2.1944    1.0689   -0.8013 H   0  0  0  0  0  0  0  0  0  0  0  0
    4.9105    2.0655    0.2016 H   0  0  0  0  0  0  0  0  0  0  0  0
    4.1118    2.5301   -1.2936 H   0  0  0  0  0  0  0  0  0  0  0  0
    5.5756    0.9283   -2.0977 H   0  0  0  0  0  0  0  0  0  0  0  0
    4.1124   -0.0278   -1.9005 H   0  0  0  0  0  0  0  0  0  0  0  0
    4.6074   -1.9357   -1.2071 H   0  0  0  0  0  0  0  0  0  0  0  0
    7.6189   -1.7832    1.0346 H   0  0  0  0  0  0  0  0  0  0  0  0
    8.5664   -3.8013    2.0385 H   0  0  0  0  0  0  0  0  0  0  0  0
    7.5411   -6.0228    1.6209 H   0  0  0  0  0  0  0  0  0  0  0  0
    5.5259   -6.1983    0.1810 H   0  0  0  0  0  0  0  0  0  0  0  0
    4.5500   -4.1860   -0.8390 H   0  0  0  0  0  0  0  0  0  0  0  0
   -2.7127   -4.0736   -2.2729 H   0  0  0  0  0  0  0  0  0  0  0  0
   -3.3373   -1.5348   -2.0454 H   0  0  0  0  0  0  0  0  0  0  0  0
  1  2  1  0
  2  3  1  0
  3  4  1  0
  4  5  1  0
  5  6  1  0
  6  7  1  0
  4  8  1  0
  8  9  2  0
  8 10  1  0
 10 11  1  0
 11 12  1  0
 12 13  2  0
 12 14  1  0
 14 15  1  0
 15 16  1  0
 16 17  1  0
 17 18  1  0
 18 19  1  0
 19 20  1  0
 20 21  2  0
 20 22  1  0
 22 23  1  0
 23 24  2  0
 24 25  1  0
 25 26  2  0
 26 27  1  0
 27 28  2  0
 14 29  1  0
 29 30  2  0
 29 31  1  0
 31 32  1  0
 32 33  1  0
 33 34  2  0
 34 35  1  0
 35 11  1  0
 28 23  1  0
 35 31  2  0
  1 36  1  0
  1 37  1  0
  1 38  1  0
  2 39  1  0
  2 40  1  0
  3 41  1  0
  3 42  1  0
  5 43  1  0
  5 44  1  0
  6 45  1  0
  6 46  1  0
  7 47  1  0
  7 48  1  0
  7 49  1  0
 10 50  1  0
 10 51  1  0
 15 52  1  0
 15 53  1  0
 16 54  1  0
 16 55  1  0
 17 56  1  0
 17 57  1  0
 18 58  1  0
 18 59  1  0
 19 60  1  0
 19 61  1  0
 22 62  1  0
 24 63  1  0
 25 64  1  0
 26 65  1  0
 27 66  1  0
 28 67  1  0
 33 68  1  0
 34 69  1  0
M  END
$$$$
