
     RDKit          3D

 57 59  0  0  0  0  0  0  0  0999 V2000
    4.5748    2.2062    2.9787 C   0  0  0  0  0  0  0  0  0  0  0  0
    5.6652    1.7509    2.0484 C   0  0  0  0  0  0  0  0  0  0  0  0
    6.9830    2.1861    2.2569 C   0  0  0  0  0  0  0  0  0  0  0  0
    8.0076    1.7733    1.4077 C   0  0  0  0  0  0  0  0  0  0  0  0
    7.7245    0.9218    0.3443 C   0  0  0  0  0  0  0  0  0  0  0  0
    6.4168    0.4798    0.1269 C   0  0  0  0  0  0  0  0  0  0  0  0
    5.3812    0.8886    0.9732 C   0  0  0  0  0  0  0  0  0  0  0  0
    4.0693    0.5121    0.8466 O   0  0  0  0  0  0  0  0  0  0  0  0
    3.7333   -0.3496   -0.2416 C   0  0  0  0  0  0  0  0  0  0  0  0
    2.2246   -0.6218   -0.1918 C   0  0  0  0  0  0  0  0  0  0  0  0
    1.8204   -1.5081   -1.2869 N   0  0  0  0  0  0  0  0  0  0  0  0
    0.4958   -1.9820   -1.3554 C   0  0  0  0  0  0  0  0  0  0  0  0
   -0.5727   -1.2677   -0.7767 C   0  0  0  0  0  0  0  0  0  0  0  0
   -1.9282   -1.6516   -0.8941 C   0  0  0  0  0  0  0  0  0  0  0  0
   -2.9130   -0.8807   -0.2543 N   0  0  0  0  0  0  0  0  0  0  0  0
   -4.2405   -1.4910   -0.0340 C   0  0  0  0  0  0  0  0  0  0  0  0
   -5.0990   -0.5914    0.8847 C   0  0  0  0  0  0  0  0  0  0  0  0
   -5.2721    0.7803    0.3435 N   0  0  0  0  0  0  0  0  0  0  0  0
   -6.0708    1.5918    1.2911 C   0  0  0  0  0  0  0  0  0  0  0  0
   -6.5311    2.9181    0.6682 C   0  0  0  0  0  0  0  0  0  0  0  0
   -7.1335    2.6727   -0.6014 O   0  0  0  0  0  0  0  0  0  0  0  0
   -3.9256    1.3669    0.1224 C   0  0  0  0  0  0  0  0  0  0  0  0
   -3.0229    0.4988   -0.7895 C   0  0  0  0  0  0  0  0  0  0  0  0
   -2.2117   -2.8031   -1.6343 C   0  0  0  0  0  0  0  0  0  0  0  0
   -1.1933   -3.5226   -2.2608 C   0  0  0  0  0  0  0  0  0  0  0  0
    0.1402   -3.1050   -2.1318 C   0  0  0  0  0  0  0  0  0  0  0  0
    1.1597   -3.9019   -2.8179 N   0  0  0  0  0  4  0  0  0  0  0  0
    2.2814   -3.9891   -2.2914 O   0  0  0  0  0  0  0  0  0  0  0  0
    0.8347   -4.4634   -3.8751 O   0  0  0  0  0  1  0  0  0  0  0  0
    3.7918    2.7290    2.4195 H   0  0  0  0  0  0  0  0  0  0  0  0
    4.1388    1.3475    3.4998 H   0  0  0  0  0  0  0  0  0  0  0  0
    4.9565    2.8978    3.7375 H   0  0  0  0  0  0  0  0  0  0  0  0
    7.2178    2.8523    3.0839 H   0  0  0  0  0  0  0  0  0  0  0  0
    9.0253    2.1165    1.5757 H   0  0  0  0  0  0  0  0  0  0  0  0
    8.5224    0.5997   -0.3196 H   0  0  0  0  0  0  0  0  0  0  0  0
    6.2432   -0.1838   -0.7140 H   0  0  0  0  0  0  0  0  0  0  0  0
    4.2754   -1.2994   -0.1524 H   0  0  0  0  0  0  0  0  0  0  0  0
    3.9818    0.1285   -1.1974 H   0  0  0  0  0  0  0  0  0  0  0  0
    1.9716   -1.0673    0.7785 H   0  0  0  0  0  0  0  0  0  0  0  0
    1.7028    0.3402   -0.2583 H   0  0  0  0  0  0  0  0  0  0  0  0
    2.4862   -2.2788   -1.4217 H   0  0  0  0  0  0  0  0  0  0  0  0
   -0.3639   -0.3810   -0.1845 H   0  0  0  0  0  0  0  0  0  0  0  0
   -4.7640   -1.6304   -0.9885 H   0  0  0  0  0  0  0  0  0  0  0  0
   -4.1324   -2.4689    0.4503 H   0  0  0  0  0  0  0  0  0  0  0  0
   -6.0815   -1.0648    0.9985 H   0  0  0  0  0  0  0  0  0  0  0  0
   -4.6352   -0.5497    1.8794 H   0  0  0  0  0  0  0  0  0  0  0  0
   -5.5329    1.7761    2.2286 H   0  0  0  0  0  0  0  0  0  0  0  0
   -6.9794    1.0278    1.5382 H   0  0  0  0  0  0  0  0  0  0  0  0
   -7.2703    3.4064    1.3105 H   0  0  0  0  0  0  0  0  0  0  0  0
   -5.6959    3.6101    0.5251 H   0  0  0  0  0  0  0  0  0  0  0  0
   -6.6457    1.9058   -0.9645 H   0  0  0  0  0  0  0  0  0  0  0  0
   -3.4166    1.5122    1.0850 H   0  0  0  0  0  0  0  0  0  0  0  0
   -4.0202    2.3500   -0.3514 H   0  0  0  0  0  0  0  0  0  0  0  0
   -3.4442    0.4692   -1.8034 H   0  0  0  0  0  0  0  0  0  0  0  0
   -2.0448    0.9892   -0.8515 H   0  0  0  0  0  0  0  0  0  0  0  0
   -3.2316   -3.1513   -1.7662 H   0  0  0  0  0  0  0  0  0  0  0  0
   -1.4526   -4.4013   -2.8482 H   0  0  0  0  0  0  0  0  0  0  0  0
  1  2  1  0
  2  3  2  0
  3  4  1  0
  4  5  2  0
  5  6  1  0
  6  7  2  0
  7  8  1  0
  8  9  1  0
  9 10  1  0
 10 11  1  0
 11 12  1  0
 12 13  2  0
 13 14  1  0
 14 15  1  0
 15 16  1  0
 16 17  1  0
 17 18  1  0
 18 19  1  0
 19 20  1  0
 20 21  1  0
 18 22  1  0
 22 23  1  0
 14 24  2  0
 24 25  1  0
 25 26  2  0
 26 27  1  0
 27 28  2  0
 27 29  1  0
  7  2  1  0
 26 12  1  0
 23 15  1  0
  1 30  1  0
  1 31  1  0
  1 32  1  0
  3 33  1  0
  4 34  1  0
  5 35  1  0
  6 36  1  0
  9 37  1  0
  9 38  1  0
 10 39  1  0
 10 40  1  0
 11 41  1  0
 13 42  1  0
 16 43  1  0
 16 44  1  0
 17 45  1  0
 17 46  1  0
 19 47  1  0
 19 48  1  0
 20 49  1  0
 20 50  1  0
 21 51  1  0
 22 52  1  0
 22 53  1  0
 23 54  1  0
 23 55  1  0
 24 56  1  0
 25 57  1  0
M  CHG  2  27   1  29  -1
M  END
$$$$
