
     RDKit          3D

 49 52  0  0  0  0  0  0  0  0999 V2000
   -6.9067    2.5684   -0.9889 C   0  0  0  0  0  0  0  0  0  0  0  0
   -5.8843    1.7607   -0.2097 C   0  0  0  0  0  0  0  0  0  0  0  0
   -4.9206    1.2609   -1.1352 O   0  0  0  0  0  0  0  0  0  0  0  0
   -3.8839    0.5327   -0.6220 C   0  0  0  0  0  0  0  0  0  0  0  0
   -2.9302    0.1349   -1.5608 C   0  0  0  0  0  0  0  0  0  0  0  0
   -1.8212   -0.6231   -1.1757 C   0  0  0  0  0  0  0  0  0  0  0  0
   -1.6579   -1.0057    0.1601 C   0  0  0  0  0  0  0  0  0  0  0  0
   -0.5072   -1.8037    0.5690 C   0  0  0  0  0  0  0  0  0  0  0  0
    0.8442   -1.4649    0.5616 C   0  0  0  0  0  0  0  0  0  0  0  0
    1.5032   -0.2682    0.0389 C   0  0  0  0  0  0  0  0  0  0  0  0
    0.9080    0.6101   -0.5767 O   0  0  0  0  0  0  0  0  0  0  0  0
    2.8645   -0.2636    0.3146 N   0  0  0  0  0  0  0  0  0  0  0  0
    3.6599    0.7628   -0.0996 N   0  0  0  0  0  0  0  0  0  0  0  0
    4.9097    0.6595    0.2228 C   0  0  0  0  0  0  0  0  0  0  0  0
    5.8977    1.6899   -0.1529 C   0  0  0  0  0  0  0  0  0  0  0  0
    5.5120    2.8228   -0.8755 C   0  0  0  0  0  0  0  0  0  0  0  0
    6.4645    3.7830   -1.2190 C   0  0  0  0  0  0  0  0  0  0  0  0
    7.7967    3.6113   -0.8415 C   0  0  0  0  0  0  0  0  0  0  0  0
    8.1807    2.4800   -0.1199 C   0  0  0  0  0  0  0  0  0  0  0  0
    7.2321    1.5159    0.2264 C   0  0  0  0  0  0  0  0  0  0  0  0
    1.5613   -2.4389    1.2002 N   0  0  0  0  0  0  0  0  0  0  0  0
    0.7208   -3.3613    1.6218 N   0  0  0  0  0  0  0  0  0  0  0  0
   -0.5431   -3.0634    1.1868 N   0  0  0  0  0  0  0  0  0  0  0  0
   -1.6122   -3.9819    1.3990 C   0  0  0  0  0  0  0  0  0  0  0  0
   -1.4034   -4.9592    2.2912 N   0  0  0  0  0  0  0  0  0  0  0  0
   -2.5959   -5.6622    2.3380 O   0  0  0  0  0  0  0  0  0  0  0  0
   -3.5163   -5.1367    1.4484 N   0  0  0  0  0  0  0  0  0  0  0  0
   -2.9010   -4.1194    0.8442 C   0  0  0  0  0  0  0  0  0  0  0  0
   -3.4888   -3.4388   -0.1555 N   0  0  0  0  0  0  0  0  0  0  0  0
   -2.6037   -0.5862    1.1045 C   0  0  0  0  0  0  0  0  0  0  0  0
   -3.7141    0.1729    0.7142 C   0  0  0  0  0  0  0  0  0  0  0  0
   -7.6723    2.9752   -0.3223 H   0  0  0  0  0  0  0  0  0  0  0  0
   -6.4222    3.3959   -1.5178 H   0  0  0  0  0  0  0  0  0  0  0  0
   -7.3925    1.9460   -1.7477 H   0  0  0  0  0  0  0  0  0  0  0  0
   -5.4023    2.4113    0.5292 H   0  0  0  0  0  0  0  0  0  0  0  0
   -6.3929    0.9304    0.2937 H   0  0  0  0  0  0  0  0  0  0  0  0
   -3.0426    0.4327   -2.6008 H   0  0  0  0  0  0  0  0  0  0  0  0
   -1.0829   -0.8918   -1.9286 H   0  0  0  0  0  0  0  0  0  0  0  0
    3.2599   -1.0424    0.8343 H   0  0  0  0  0  0  0  0  0  0  0  0
    5.2912   -0.2060    0.7944 H   0  0  0  0  0  0  0  0  0  0  0  0
    4.4744    2.9625   -1.1723 H   0  0  0  0  0  0  0  0  0  0  0  0
    6.1659    4.6646   -1.7808 H   0  0  0  0  0  0  0  0  0  0  0  0
    8.5366    4.3614   -1.1105 H   0  0  0  0  0  0  0  0  0  0  0  0
    9.2201    2.3512    0.1720 H   0  0  0  0  0  0  0  0  0  0  0  0
    7.5448    0.6403    0.7885 H   0  0  0  0  0  0  0  0  0  0  0  0
   -4.3677   -3.8044   -0.5118 H   0  0  0  0  0  0  0  0  0  0  0  0
   -2.9657   -2.9400   -0.8653 H   0  0  0  0  0  0  0  0  0  0  0  0
   -2.4924   -0.8417    2.1563 H   0  0  0  0  0  0  0  0  0  0  0  0
   -4.4242    0.4664    1.4802 H   0  0  0  0  0  0  0  0  0  0  0  0
  1  2  1  0
  2  3  1  0
  3  4  1  0
  4  5  2  0
  5  6  1  0
  6  7  2  0
  7  8  1  0
  8  9  2  0
  9 10  1  0
 10 11  2  0
 10 12  1  0
 12 13  1  0
 13 14  2  3
 14 15  1  0
 15 16  2  0
 16 17  1  0
 17 18  2  0
 18 19  1  0
 19 20  2  0
  9 21  1  0
 21 22  2  0
 22 23  1  0
 23 24  1  0
 24 25  2  0
 25 26  1  0
 26 27  1  0
 27 28  2  0
 28 29  1  0
  7 30  1  0
 30 31  2  0
 31  4  1  0
 23  8  1  0
 28 24  1  0
 20 15  1  0
  1 32  1  0
  1 33  1  0
  1 34  1  0
  2 35  1  0
  2 36  1  0
  5 37  1  0
  6 38  1  0
 12 39  1  0
 14 40  1  0
 16 41  1  0
 17 42  1  0
 18 43  1  0
 19 44  1  0
 20 45  1  0
 29 46  1  0
 29 47  1  0
 30 48  1  0
 31 49  1  0
M  END
$$$$
