
     RDKit          3D

 55 58  0  0  0  0  0  0  0  0999 V2000
   -6.7102   -2.9043    2.1245 C   0  0  0  0  0  0  0  0  0  0  0  0
   -7.3314   -1.8744    1.1876 C   0  0  0  0  0  0  0  0  0  0  0  0
   -8.4306   -1.0952    1.8991 C   0  0  0  0  0  0  0  0  0  0  0  0
   -6.3313   -0.9204    0.7848 O   0  0  0  0  0  0  0  0  0  0  0  0
   -5.5383   -1.2877   -0.2535 C   0  0  0  0  0  0  0  0  0  0  0  0
   -5.6023   -2.3411   -0.8678 O   0  0  0  0  0  0  0  0  0  0  0  0
   -4.5465   -0.2198   -0.5564 C   0  0  0  0  0  0  0  0  0  0  0  0
   -4.5296    1.0063    0.1212 C   0  0  0  0  0  0  0  0  0  0  0  0
   -3.5761    1.9762   -0.2037 C   0  0  0  0  0  0  0  0  0  0  0  0
   -2.6311    1.7380   -1.2116 C   0  0  0  0  0  0  0  0  0  0  0  0
   -1.5893    2.7754   -1.5450 C   0  0  0  0  0  0  0  0  0  0  0  0
   -0.5631    2.7589   -0.5454 O   0  0  0  0  0  0  0  0  0  0  0  0
    0.5213    2.0006   -0.8323 C   0  0  0  0  0  0  0  0  0  0  0  0
    0.7121    1.3735   -1.8619 O   0  0  0  0  0  0  0  0  0  0  0  0
    1.4864    2.0200    0.3013 C   0  0  0  0  0  0  0  0  0  0  0  0
    1.2670    2.7737    1.4613 C   0  0  0  0  0  0  0  0  0  0  0  0
    2.2045    2.7556    2.4936 C   0  0  0  0  0  0  0  0  0  0  0  0
    3.3625    1.9844    2.3727 C   0  0  0  0  0  0  0  0  0  0  0  0
    3.6033    1.2198    1.2207 C   0  0  0  0  0  0  0  0  0  0  0  0
    4.8208    0.4237    1.1273 C   0  0  0  0  0  0  0  0  0  0  0  0
    5.8155    0.2949    1.9830 N   0  0  0  0  0  0  0  0  0  0  0  0
    6.7148   -0.5812    1.4084 N   0  0  0  0  0  0  0  0  0  0  0  0
    6.2091   -0.9272    0.2405 C   0  0  0  0  0  0  0  0  0  0  0  0
    6.7381   -1.8201   -0.7822 C   0  0  0  0  0  0  0  0  0  0  0  0
    6.0656   -2.0424   -1.9938 C   0  0  0  0  0  0  0  0  0  0  0  0
    6.5997   -2.9004   -2.9592 C   0  0  0  0  0  0  0  0  0  0  0  0
    7.8113   -3.5475   -2.7252 C   0  0  0  0  0  0  0  0  0  0  0  0
    8.4903   -3.3393   -1.5270 C   0  0  0  0  0  0  0  0  0  0  0  0
    7.9566   -2.4817   -0.5624 C   0  0  0  0  0  0  0  0  0  0  0  0
    5.0019   -0.3248   -0.0071 O   0  0  0  0  0  0  0  0  0  0  0  0
    2.6538    1.2476    0.1876 C   0  0  0  0  0  0  0  0  0  0  0  0
   -2.6429    0.5058   -1.8777 C   0  0  0  0  0  0  0  0  0  0  0  0
   -3.5965   -0.4638   -1.5565 C   0  0  0  0  0  0  0  0  0  0  0  0
   -6.2441   -2.4177    2.9883 H   0  0  0  0  0  0  0  0  0  0  0  0
   -5.9196   -3.4671    1.6185 H   0  0  0  0  0  0  0  0  0  0  0  0
   -7.4607   -3.6150    2.4845 H   0  0  0  0  0  0  0  0  0  0  0  0
   -7.7671   -2.3663    0.3102 H   0  0  0  0  0  0  0  0  0  0  0  0
   -8.8597   -0.3440    1.2276 H   0  0  0  0  0  0  0  0  0  0  0  0
   -8.0325   -0.5526    2.7634 H   0  0  0  0  0  0  0  0  0  0  0  0
   -9.2324   -1.7569    2.2394 H   0  0  0  0  0  0  0  0  0  0  0  0
   -5.2511    1.2210    0.9058 H   0  0  0  0  0  0  0  0  0  0  0  0
   -3.5712    2.9198    0.3386 H   0  0  0  0  0  0  0  0  0  0  0  0
   -2.0477    3.7715   -1.5293 H   0  0  0  0  0  0  0  0  0  0  0  0
   -1.1903    2.6436   -2.5584 H   0  0  0  0  0  0  0  0  0  0  0  0
    0.3712    3.3796    1.5766 H   0  0  0  0  0  0  0  0  0  0  0  0
    2.0351    3.3414    3.3948 H   0  0  0  0  0  0  0  0  0  0  0  0
    4.0830    1.9819    3.1909 H   0  0  0  0  0  0  0  0  0  0  0  0
    5.1181   -1.5491   -2.2017 H   0  0  0  0  0  0  0  0  0  0  0  0
    6.0686   -3.0626   -3.8939 H   0  0  0  0  0  0  0  0  0  0  0  0
    8.2259   -4.2154   -3.4764 H   0  0  0  0  0  0  0  0  0  0  0  0
    9.4352   -3.8439   -1.3408 H   0  0  0  0  0  0  0  0  0  0  0  0
    8.5007   -2.3316    0.3691 H   0  0  0  0  0  0  0  0  0  0  0  0
    2.8161    0.6641   -0.7180 H   0  0  0  0  0  0  0  0  0  0  0  0
   -1.9028    0.2897   -2.6474 H   0  0  0  0  0  0  0  0  0  0  0  0
   -3.5900   -1.4145   -2.0866 H   0  0  0  0  0  0  0  0  0  0  0  0
  1  2  1  0
  2  3  1  0
  2  4  1  0
  4  5  1  0
  5  6  2  0
  5  7  1  0
  7  8  2  0
  8  9  1  0
  9 10  2  0
 10 11  1  0
 11 12  1  0
 12 13  1  0
 13 14  2  0
 13 15  1  0
 15 16  2  0
 16 17  1  0
 17 18  2  0
 18 19  1  0
 19 20  1  0
 20 21  2  0
 21 22  1  0
 22 23  2  0
 23 24  1  0
 24 25  2  0
 25 26  1  0
 26 27  2  0
 27 28  1  0
 28 29  2  0
 23 30  1  0
 19 31  2  0
 10 32  1  0
 32 33  2  0
 33  7  1  0
 31 15  1  0
 30 20  1  0
 29 24  1  0
  1 34  1  0
  1 35  1  0
  1 36  1  0
  2 37  1  0
  3 38  1  0
  3 39  1  0
  3 40  1  0
  8 41  1  0
  9 42  1  0
 11 43  1  0
 11 44  1  0
 16 45  1  0
 17 46  1  0
 18 47  1  0
 25 48  1  0
 26 49  1  0
 27 50  1  0
 28 51  1  0
 29 52  1  0
 31 53  1  0
 32 54  1  0
 33 55  1  0
M  END
$$$$
