
     RDKit          3D

 53 56  0  0  0  0  0  0  0  0999 V2000
    1.1455   -2.8646   -0.3384 O   0  0  0  0  0  0  0  0  0  0  0  0
    0.9507   -1.7075   -0.7103 C   0  0  0  0  0  0  0  0  0  0  0  0
   -0.2863   -1.3351   -1.5078 C   0  0  0  0  0  0  0  0  0  0  0  0
   -1.1592   -2.5562   -1.7812 C   0  0  0  0  0  0  0  0  0  0  0  0
   -2.6198   -2.1068   -2.7750 S   0  0  0  0  0  0  0  0  0  0  0  0
   -3.6004   -1.3975   -1.4846 C   0  0  0  0  0  0  0  0  0  0  0  0
   -4.2719   -2.2279   -0.6843 N   0  0  0  0  0  0  0  0  0  0  0  0
   -5.0117   -1.6736    0.2944 C   0  0  0  0  0  0  0  0  0  0  0  0
   -5.7415   -2.6058    1.1501 C   0  0  0  0  0  0  0  0  0  0  0  0
   -6.5972   -2.4673    2.2289 C   0  0  0  0  0  0  0  0  0  0  0  0
   -6.9749   -3.7750    2.6247 C   0  0  0  0  0  0  0  0  0  0  0  0
   -6.3299   -4.6331    1.7680 C   0  0  0  0  0  0  0  0  0  0  0  0
   -5.5830   -3.9375    0.8750 O   0  0  0  0  0  0  0  0  0  0  0  0
   -5.0787   -0.3096    0.4876 C   0  0  0  0  0  0  0  0  0  0  0  0
   -4.3349    0.4785   -0.3738 C   0  0  0  0  0  0  0  0  0  0  0  0
   -4.3761    1.9891   -0.2164 C   0  0  0  0  0  0  0  0  0  0  0  0
   -5.4669    2.5474   -0.8130 F   0  0  0  0  0  0  0  0  0  0  0  0
   -3.2891    2.6285   -0.7322 F   0  0  0  0  0  0  0  0  0  0  0  0
   -4.4386    2.3736    1.0934 F   0  0  0  0  0  0  0  0  0  0  0  0
   -3.5923   -0.0621   -1.3712 N   0  0  0  0  0  0  0  0  0  0  0  0
    1.8509   -0.6824   -0.4371 N   0  0  0  0  0  0  0  0  0  0  0  0
    1.5280    0.7465   -0.5724 C   0  0  0  0  0  0  0  0  0  0  0  0
    2.7720    1.6336   -0.7767 C   0  0  0  0  0  0  0  0  0  0  0  0
    3.7997    1.3418    0.2509 N   0  0  0  0  0  0  0  0  0  0  0  0
    4.8338    2.2943    0.2834 C   0  0  0  0  0  0  0  0  0  0  0  0
    4.5326    3.6240    0.6272 C   0  0  0  0  0  0  0  0  0  0  0  0
    5.5196    4.6129    0.6818 C   0  0  0  0  0  0  0  0  0  0  0  0
    6.8418    4.2899    0.3997 C   0  0  0  0  0  0  0  0  0  0  0  0
    7.1712    2.9798    0.0694 C   0  0  0  0  0  0  0  0  0  0  0  0
    6.1778    1.9941    0.0171 C   0  0  0  0  0  0  0  0  0  0  0  0
    4.1826   -0.0869    0.2644 C   0  0  0  0  0  0  0  0  0  0  0  0
    2.9482   -0.9746    0.4942 C   0  0  0  0  0  0  0  0  0  0  0  0
    0.0385   -0.8925   -2.4565 H   0  0  0  0  0  0  0  0  0  0  0  0
   -0.8459   -0.5923   -0.9296 H   0  0  0  0  0  0  0  0  0  0  0  0
   -1.4721   -3.0424   -0.8504 H   0  0  0  0  0  0  0  0  0  0  0  0
   -0.5913   -3.2989   -2.3528 H   0  0  0  0  0  0  0  0  0  0  0  0
   -6.9160   -1.5398    2.6823 H   0  0  0  0  0  0  0  0  0  0  0  0
   -7.6344   -4.0578    3.4330 H   0  0  0  0  0  0  0  0  0  0  0  0
   -6.2973   -5.7090    1.6642 H   0  0  0  0  0  0  0  0  0  0  0  0
   -5.6768    0.1313    1.2762 H   0  0  0  0  0  0  0  0  0  0  0  0
    0.8396    0.9117   -1.4049 H   0  0  0  0  0  0  0  0  0  0  0  0
    1.0073    1.0383    0.3481 H   0  0  0  0  0  0  0  0  0  0  0  0
    3.1928    1.4451   -1.7734 H   0  0  0  0  0  0  0  0  0  0  0  0
    2.4446    2.6790   -0.7479 H   0  0  0  0  0  0  0  0  0  0  0  0
    3.5121    3.8969    0.8849 H   0  0  0  0  0  0  0  0  0  0  0  0
    5.2525    5.6299    0.9550 H   0  0  0  0  0  0  0  0  0  0  0  0
    7.6132    5.0535    0.4430 H   0  0  0  0  0  0  0  0  0  0  0  0
    8.2034    2.7179   -0.1485 H   0  0  0  0  0  0  0  0  0  0  0  0
    6.4859    0.9895   -0.2539 H   0  0  0  0  0  0  0  0  0  0  0  0
    4.6445   -0.3614   -0.6929 H   0  0  0  0  0  0  0  0  0  0  0  0
    4.9004   -0.2865    1.0692 H   0  0  0  0  0  0  0  0  0  0  0  0
    3.2429   -2.0268    0.4183 H   0  0  0  0  0  0  0  0  0  0  0  0
    2.5544   -0.8157    1.5060 H   0  0  0  0  0  0  0  0  0  0  0  0
  1  2  2  0
  2  3  1  0
  3  4  1  0
  4  5  1  0
  5  6  1  0
  6  7  2  0
  7  8  1  0
  8  9  1  0
  9 10  2  0
 10 11  1  0
 11 12  2  0
 12 13  1  0
  8 14  2  0
 14 15  1  0
 15 16  1  0
 16 17  1  0
 16 18  1  0
 16 19  1  0
 15 20  2  0
  2 21  1  0
 21 22  1  0
 22 23  1  0
 23 24  1  0
 24 25  1  0
 25 26  2  0
 26 27  1  0
 27 28  2  0
 28 29  1  0
 29 30  2  0
 24 31  1  0
 31 32  1  0
 20  6  1  0
 32 21  1  0
 13  9  1  0
 30 25  1  0
  3 33  1  0
  3 34  1  0
  4 35  1  0
  4 36  1  0
 10 37  1  0
 11 38  1  0
 12 39  1  0
 14 40  1  0
 22 41  1  0
 22 42  1  0
 23 43  1  0
 23 44  1  0
 26 45  1  0
 27 46  1  0
 28 47  1  0
 29 48  1  0
 30 49  1  0
 31 50  1  0
 31 51  1  0
 32 52  1  0
 32 53  1  0
M  END
$$$$
