
     RDKit          3D

 42 44  0  0  0  0  0  0  0  0999 V2000
   -1.1375    4.8391    0.5576 C   0  0  0  0  0  0  0  0  0  0  0  0
   -1.7676    4.7132   -0.7127 O   0  0  0  0  0  0  0  0  0  0  0  0
   -1.7199    3.4745   -1.3023 C   0  0  0  0  0  0  0  0  0  0  0  0
   -1.3150    2.2916   -0.6847 C   0  0  0  0  0  0  0  0  0  0  0  0
   -1.2981    1.0896   -1.4080 C   0  0  0  0  0  0  0  0  0  0  0  0
   -0.8962   -0.1846   -0.7898 C   0  0  0  0  0  0  0  0  0  0  0  0
    0.2523   -0.4337   -0.1279 C   0  0  0  0  0  0  0  0  0  0  0  0
    1.2856    0.5271    0.0428 C   0  0  0  0  0  0  0  0  0  0  0  0
    2.1038    1.3340    0.2072 N   0  0  0  0  0  0  0  0  0  0  0  0
    0.4474   -1.8351    0.3496 C   0  0  0  0  0  0  0  0  0  0  0  0
    0.0240   -2.7836   -0.3082 O   0  0  0  0  0  0  0  0  0  0  0  0
    1.1522   -2.0110    1.6193 C   0  0  0  0  0  0  0  0  0  0  0  0
    1.2489   -1.1100    2.6687 C   0  0  0  0  0  0  0  0  0  0  0  0
    1.9969   -1.6785    3.6669 N   0  0  0  0  0  0  0  0  0  0  0  0
    2.3654   -2.9539    3.3170 C   0  0  0  0  0  0  0  0  0  0  0  0
    3.1127   -3.9011    4.0277 C   0  0  0  0  0  0  0  0  0  0  0  0
    3.3342   -5.1406    3.4217 C   0  0  0  0  0  0  0  0  0  0  0  0
    2.8273   -5.4191    2.1558 C   0  0  0  0  0  0  0  0  0  0  0  0
    2.0839   -4.4595    1.4593 C   0  0  0  0  0  0  0  0  0  0  0  0
    1.8441   -3.1977    2.0459 C   0  0  0  0  0  0  0  0  0  0  0  0
   -1.7258    1.0743   -2.7466 C   0  0  0  0  0  0  0  0  0  0  0  0
   -2.1484    2.2481   -3.3756 C   0  0  0  0  0  0  0  0  0  0  0  0
   -2.5811    2.3372   -4.6713 O   0  0  0  0  0  0  0  0  0  0  0  0
   -2.5603    1.1541   -5.4563 C   0  0  0  0  0  0  0  0  0  0  0  0
   -2.1398    3.4378   -2.6394 C   0  0  0  0  0  0  0  0  0  0  0  0
   -2.5503    4.6075   -3.2338 O   0  0  0  0  0  0  0  0  0  0  0  0
   -1.1591    5.8967    0.8373 H   0  0  0  0  0  0  0  0  0  0  0  0
   -1.6870    4.2811    1.3225 H   0  0  0  0  0  0  0  0  0  0  0  0
   -0.0887    4.5264    0.5153 H   0  0  0  0  0  0  0  0  0  0  0  0
   -1.0219    2.2878    0.3597 H   0  0  0  0  0  0  0  0  0  0  0  0
   -1.6186   -0.9898   -0.9339 H   0  0  0  0  0  0  0  0  0  0  0  0
    0.8555   -0.1114    2.8069 H   0  0  0  0  0  0  0  0  0  0  0  0
    2.2358   -1.2353    4.5440 H   0  0  0  0  0  0  0  0  0  0  0  0
    3.5089   -3.6886    5.0155 H   0  0  0  0  0  0  0  0  0  0  0  0
    3.9103   -5.8985    3.9478 H   0  0  0  0  0  0  0  0  0  0  0  0
    3.0083   -6.3899    1.7010 H   0  0  0  0  0  0  0  0  0  0  0  0
    1.6923   -4.6915    0.4718 H   0  0  0  0  0  0  0  0  0  0  0  0
   -1.7190    0.1302   -3.2834 H   0  0  0  0  0  0  0  0  0  0  0  0
   -3.2386    0.3979   -5.0476 H   0  0  0  0  0  0  0  0  0  0  0  0
   -2.9150    1.4112   -6.4591 H   0  0  0  0  0  0  0  0  0  0  0  0
   -1.5427    0.7618   -5.5539 H   0  0  0  0  0  0  0  0  0  0  0  0
   -2.4591    5.2922   -2.5452 H   0  0  0  0  0  0  0  0  0  0  0  0
  1  2  1  0
  2  3  1  0
  3  4  2  0
  4  5  1  0
  5  6  1  0
  6  7  2  3
  7  8  1  0
  8  9  3  0
  7 10  1  0
 10 11  2  0
 10 12  1  0
 12 13  2  0
 13 14  1  0
 14 15  1  0
 15 16  2  0
 16 17  1  0
 17 18  2  0
 18 19  1  0
 19 20  2  0
  5 21  2  0
 21 22  1  0
 22 23  1  0
 23 24  1  0
 22 25  2  0
 25 26  1  0
 25  3  1  0
 20 12  1  0
 20 15  1  0
  1 27  1  0
  1 28  1  0
  1 29  1  0
  4 30  1  0
  6 31  1  0
 13 32  1  0
 14 33  1  0
 16 34  1  0
 17 35  1  0
 18 36  1  0
 19 37  1  0
 21 38  1  0
 24 39  1  0
 24 40  1  0
 24 41  1  0
 26 42  1  0
M  END
$$$$
