
     RDKit          3D

 52 55  0  0  0  0  0  0  0  0999 V2000
    3.3991    2.2122    1.2045 O   0  0  0  0  0  0  0  0  0  0  0  0
    3.3173    1.3990    0.2867 C   0  0  0  0  0  0  0  0  0  0  0  0
    2.3363    1.4648   -0.6905 N   0  0  0  0  0  0  0  0  0  0  0  0
    1.2587    2.3522   -0.4076 N   0  0  0  0  0  0  0  0  0  0  0  0
    0.0437    1.6290   -0.2354 C   0  0  0  0  0  0  0  0  0  0  0  0
   -1.0599    2.3028    0.2409 C   0  0  0  0  0  0  0  0  0  0  0  0
   -2.2288    1.5907    0.3814 C   0  0  0  0  0  0  0  0  0  0  0  0
   -3.3788    2.1653    0.8558 N   0  0  0  0  0  0  0  0  0  0  0  0
   -3.5347    3.5378    1.3059 C   0  0  0  0  0  0  0  0  0  0  0  0
   -5.0351    3.6600    1.5623 C   0  0  0  0  0  0  0  0  0  0  0  0
   -5.4225    2.2588    2.0072 C   0  0  0  0  0  0  0  0  0  0  0  0
   -4.5645    1.3586    1.1186 C   0  0  0  0  0  0  0  0  0  0  0  0
   -2.2689    0.2913    0.0407 N   0  0  0  0  0  0  0  0  0  0  0  0
   -1.1703   -0.3035   -0.4461 C   0  0  0  0  0  0  0  0  0  0  0  0
   -1.2381   -1.6338   -0.7794 N   0  0  0  0  0  0  0  0  0  0  0  0
   -2.5353   -2.2766   -0.8884 C   0  0  0  0  0  0  0  0  0  0  0  0
   -2.1829   -3.6436   -1.4679 C   0  0  0  0  0  0  0  0  0  0  0  0
   -1.0334   -3.3175   -2.4102 C   0  0  0  0  0  0  0  0  0  0  0  0
   -0.2563   -2.2231   -1.6738 C   0  0  0  0  0  0  0  0  0  0  0  0
   -0.0041    0.3340   -0.5981 N   0  0  0  0  0  0  0  0  0  0  0  0
    4.2588    0.2476    0.2010 C   0  0  0  0  0  0  0  0  0  0  0  0
    4.4883   -0.4395   -1.0006 C   0  0  0  0  0  0  0  0  0  0  0  0
    5.3825   -1.5156   -1.0361 C   0  0  0  0  0  0  0  0  0  0  0  0
    6.0533   -1.8999    0.1338 C   0  0  0  0  0  0  0  0  0  0  0  0
    6.9910   -3.0301    0.0975 N   0  0  0  0  0  4  0  0  0  0  0  0
    7.5779   -3.3262    1.1476 O   0  0  0  0  0  0  0  0  0  0  0  0
    7.1374   -3.6215   -0.9818 O   0  0  0  0  0  1  0  0  0  0  0  0
    5.8401   -1.2117    1.3348 C   0  0  0  0  0  0  0  0  0  0  0  0
    4.9456   -0.1372    1.3623 C   0  0  0  0  0  0  0  0  0  0  0  0
    2.0121    0.5962   -1.1200 H   0  0  0  0  0  0  0  0  0  0  0  0
    1.4663    2.8821    0.4481 H   0  0  0  0  0  0  0  0  0  0  0  0
   -0.9941    3.3510    0.4923 H   0  0  0  0  0  0  0  0  0  0  0  0
   -3.2137    4.2671    0.5549 H   0  0  0  0  0  0  0  0  0  0  0  0
   -2.9722    3.6998    2.2326 H   0  0  0  0  0  0  0  0  0  0  0  0
   -5.5574    3.9141    0.6317 H   0  0  0  0  0  0  0  0  0  0  0  0
   -5.2717    4.4242    2.3078 H   0  0  0  0  0  0  0  0  0  0  0  0
   -5.1508    2.1151    3.0601 H   0  0  0  0  0  0  0  0  0  0  0  0
   -6.4922    2.0572    1.8995 H   0  0  0  0  0  0  0  0  0  0  0  0
   -5.0826    1.1361    0.1788 H   0  0  0  0  0  0  0  0  0  0  0  0
   -4.3413    0.4202    1.6383 H   0  0  0  0  0  0  0  0  0  0  0  0
   -3.0366   -2.3751    0.0800 H   0  0  0  0  0  0  0  0  0  0  0  0
   -3.1889   -1.7334   -1.5821 H   0  0  0  0  0  0  0  0  0  0  0  0
   -3.0283   -4.1155   -1.9758 H   0  0  0  0  0  0  0  0  0  0  0  0
   -1.8365   -4.3147   -0.6728 H   0  0  0  0  0  0  0  0  0  0  0  0
   -0.4124   -4.1875   -2.6421 H   0  0  0  0  0  0  0  0  0  0  0  0
   -1.4290   -2.9211   -3.3536 H   0  0  0  0  0  0  0  0  0  0  0  0
    0.1638   -1.5162   -2.3987 H   0  0  0  0  0  0  0  0  0  0  0  0
    0.5624   -2.6564   -1.0887 H   0  0  0  0  0  0  0  0  0  0  0  0
    3.9985   -0.1381   -1.9235 H   0  0  0  0  0  0  0  0  0  0  0  0
    5.5497   -2.0350   -1.9785 H   0  0  0  0  0  0  0  0  0  0  0  0
    6.3571   -1.4937    2.2502 H   0  0  0  0  0  0  0  0  0  0  0  0
    4.7817    0.3995    2.2964 H   0  0  0  0  0  0  0  0  0  0  0  0
  1  2  2  0
  2  3  1  0
  3  4  1  0
  4  5  1  0
  5  6  2  0
  6  7  1  0
  7  8  1  0
  8  9  1  0
  9 10  1  0
 10 11  1  0
 11 12  1  0
  7 13  2  0
 13 14  1  0
 14 15  1  0
 15 16  1  0
 16 17  1  0
 17 18  1  0
 18 19  1  0
 14 20  2  0
  2 21  1  0
 21 22  2  0
 22 23  1  0
 23 24  2  0
 24 25  1  0
 25 26  2  0
 25 27  1  0
 24 28  1  0
 28 29  2  0
 20  5  1  0
 29 21  1  0
 12  8  1  0
 19 15  1  0
  3 30  1  0
  4 31  1  0
  6 32  1  0
  9 33  1  0
  9 34  1  0
 10 35  1  0
 10 36  1  0
 11 37  1  0
 11 38  1  0
 12 39  1  0
 12 40  1  0
 16 41  1  0
 16 42  1  0
 17 43  1  0
 17 44  1  0
 18 45  1  0
 18 46  1  0
 19 47  1  0
 19 48  1  0
 22 49  1  0
 23 50  1  0
 28 51  1  0
 29 52  1  0
M  CHG  2  25   1  27  -1
M  END
$$$$
