
     RDKit          3D

 48 48  0  0  0  0  0  0  0  0999 V2000
   -7.5634   -0.7196   -0.0391 C   0  0  0  0  0  0  0  0  0  0  0  0
   -6.3973    0.0847   -0.5932 C   0  0  0  0  0  0  0  0  0  0  0  0
   -5.0947   -0.7143   -0.5409 C   0  0  0  0  0  0  0  0  0  0  0  0
   -3.9102    0.0101   -1.1876 C   0  0  0  0  0  0  0  0  0  0  0  0
   -3.5270    1.3517   -0.5549 C   0  0  0  0  0  0  0  0  0  0  0  0
   -3.1950    1.3086    0.9400 C   0  0  0  0  0  0  0  0  0  0  0  0
   -2.0755    0.3445    1.3441 C   0  0  0  0  0  0  0  0  0  0  0  0
   -0.7305    0.6670    0.6909 C   0  0  0  0  0  0  0  0  0  0  0  0
    0.3722   -0.2545    1.2106 C   0  0  0  0  0  0  0  0  0  0  0  0
    1.7183    0.0370    0.5689 C   0  0  0  0  0  0  0  0  0  0  0  0
    1.8943    0.9400   -0.2430 O   0  0  0  0  0  0  0  0  0  0  0  0
    2.6996   -0.8558    1.0142 N   0  0  0  0  0  0  0  0  0  0  0  0
    4.0250   -0.6061    0.7729 N   0  0  0  0  0  0  0  0  0  0  0  0
    4.4589   -0.6309   -0.4576 C   0  0  0  0  0  0  0  0  0  0  0  0
    3.6368   -1.0814   -1.6516 C   0  0  0  0  0  0  0  0  0  0  0  0
    5.8736   -0.2259   -0.7112 C   0  0  0  0  0  0  0  0  0  0  0  0
    6.8051   -0.2182    0.3306 C   0  0  0  0  0  0  0  0  0  0  0  0
    8.1214    0.1630    0.0775 C   0  0  0  0  0  0  0  0  0  0  0  0
    8.4630    0.5286   -1.2142 C   0  0  0  0  0  0  0  0  0  0  0  0
    7.5901    0.5420   -2.2446 N   0  0  0  0  0  0  0  0  0  0  0  0
    6.3137    0.1735   -1.9675 C   0  0  0  0  0  0  0  0  0  0  0  0
   -7.3867   -0.9978    1.0048 H   0  0  0  0  0  0  0  0  0  0  0  0
   -7.7190   -1.6357   -0.6178 H   0  0  0  0  0  0  0  0  0  0  0  0
   -8.4847   -0.1303   -0.0825 H   0  0  0  0  0  0  0  0  0  0  0  0
   -6.6177    0.3710   -1.6280 H   0  0  0  0  0  0  0  0  0  0  0  0
   -6.3019    1.0079   -0.0119 H   0  0  0  0  0  0  0  0  0  0  0  0
   -4.8583   -0.9725    0.4976 H   0  0  0  0  0  0  0  0  0  0  0  0
   -5.2380   -1.6658   -1.0685 H   0  0  0  0  0  0  0  0  0  0  0  0
   -4.1381    0.1830   -2.2471 H   0  0  0  0  0  0  0  0  0  0  0  0
   -3.0420   -0.6594   -1.1739 H   0  0  0  0  0  0  0  0  0  0  0  0
   -2.6712    1.7617   -1.1047 H   0  0  0  0  0  0  0  0  0  0  0  0
   -4.3410    2.0705   -0.7081 H   0  0  0  0  0  0  0  0  0  0  0  0
   -4.0983    1.0510    1.5056 H   0  0  0  0  0  0  0  0  0  0  0  0
   -2.9205    2.3219    1.2598 H   0  0  0  0  0  0  0  0  0  0  0  0
   -1.9639    0.3943    2.4347 H   0  0  0  0  0  0  0  0  0  0  0  0
   -2.3636   -0.6870    1.1119 H   0  0  0  0  0  0  0  0  0  0  0  0
   -0.8036    0.5606   -0.3975 H   0  0  0  0  0  0  0  0  0  0  0  0
   -0.4631    1.7118    0.8914 H   0  0  0  0  0  0  0  0  0  0  0  0
    0.4769   -0.1335    2.2952 H   0  0  0  0  0  0  0  0  0  0  0  0
    0.1121   -1.2994    1.0037 H   0  0  0  0  0  0  0  0  0  0  0  0
    2.5411   -1.2223    1.9488 H   0  0  0  0  0  0  0  0  0  0  0  0
    2.8316   -1.7559   -1.3496 H   0  0  0  0  0  0  0  0  0  0  0  0
    3.2127   -0.2120   -2.1604 H   0  0  0  0  0  0  0  0  0  0  0  0
    4.2610   -1.6378   -2.3574 H   0  0  0  0  0  0  0  0  0  0  0  0
    6.5135   -0.5072    1.3371 H   0  0  0  0  0  0  0  0  0  0  0  0
    8.8608    0.1759    0.8705 H   0  0  0  0  0  0  0  0  0  0  0  0
    9.4764    0.8330   -1.4609 H   0  0  0  0  0  0  0  0  0  0  0  0
    5.6469    0.2301   -2.8223 H   0  0  0  0  0  0  0  0  0  0  0  0
  1  2  1  0
  2  3  1  0
  3  4  1  0
  4  5  1  0
  5  6  1  0
  6  7  1  0
  7  8  1  0
  8  9  1  0
  9 10  1  0
 10 11  2  0
 10 12  1  0
 12 13  1  0
 13 14  2  3
 14 15  1  0
 14 16  1  0
 16 17  2  0
 17 18  1  0
 18 19  2  0
 19 20  1  0
 20 21  2  0
 21 16  1  0
  1 22  1  0
  1 23  1  0
  1 24  1  0
  2 25  1  0
  2 26  1  0
  3 27  1  0
  3 28  1  0
  4 29  1  0
  4 30  1  0
  5 31  1  0
  5 32  1  0
  6 33  1  0
  6 34  1  0
  7 35  1  0
  7 36  1  0
  8 37  1  0
  8 38  1  0
  9 39  1  0
  9 40  1  0
 12 41  1  0
 15 42  1  0
 15 43  1  0
 15 44  1  0
 17 45  1  0
 18 46  1  0
 19 47  1  0
 21 48  1  0
M  END
$$$$
