
     RDKit          3D

 45 46  0  0  0  0  0  0  0  0999 V2000
    7.7829   -0.1772   -0.6722 C   0  0  0  0  0  0  0  0  0  0  0  0
    7.1093    0.6271    0.4254 C   0  0  0  0  0  0  0  0  0  0  0  0
    5.7908    0.1122    0.7514 N   0  0  0  0  0  0  0  0  0  0  0  0
    5.6942   -0.8735    1.6609 N   0  0  0  0  0  0  0  0  0  0  0  0
    4.3842   -1.1085    1.7406 C   0  0  0  0  0  0  0  0  0  0  0  0
    3.6296   -0.2781    0.8844 C   0  0  0  0  0  0  0  0  0  0  0  0
    2.1988   -0.2471    0.7083 C   0  0  0  0  0  0  0  0  0  0  0  0
    1.4675   -1.0653    1.3917 N   0  0  0  0  0  0  0  0  0  0  0  0
    0.1253   -0.9779    1.1730 N   0  0  0  0  0  0  0  0  0  0  0  0
   -0.7570   -1.8053    1.8497 C   0  0  0  0  0  0  0  0  0  0  0  0
   -0.4456   -2.6610    2.6756 O   0  0  0  0  0  0  0  0  0  0  0  0
   -2.2168   -1.5594    1.4720 C   0  0  0  0  0  0  0  0  0  0  0  0
   -2.3332   -0.5240    0.4964 O   0  0  0  0  0  0  0  0  0  0  0  0
   -3.5973   -0.2145    0.0727 C   0  0  0  0  0  0  0  0  0  0  0  0
   -4.7796   -0.8128    0.5116 C   0  0  0  0  0  0  0  0  0  0  0  0
   -6.0174   -0.4134   -0.0150 C   0  0  0  0  0  0  0  0  0  0  0  0
   -7.2883   -1.0421    0.4780 C   0  0  0  0  0  0  0  0  0  0  0  0
   -6.0612    0.6148   -0.9648 C   0  0  0  0  0  0  0  0  0  0  0  0
   -4.8852    1.2339   -1.4018 C   0  0  0  0  0  0  0  0  0  0  0  0
   -4.9342    2.3058   -2.4497 C   0  0  0  0  0  0  0  0  0  0  0  0
   -3.6575    0.8003   -0.8867 C   0  0  0  0  0  0  0  0  0  0  0  0
    4.5752    0.5102    0.2434 C   0  0  0  0  0  0  0  0  0  0  0  0
    4.4390    1.5804   -0.7772 C   0  0  0  0  0  0  0  0  0  0  0  0
    8.7719    0.2358   -0.8931 H   0  0  0  0  0  0  0  0  0  0  0  0
    7.1923   -0.1620   -1.5940 H   0  0  0  0  0  0  0  0  0  0  0  0
    7.9087   -1.2236   -0.3746 H   0  0  0  0  0  0  0  0  0  0  0  0
    7.7089    0.6046    1.3425 H   0  0  0  0  0  0  0  0  0  0  0  0
    7.0044    1.6755    0.1292 H   0  0  0  0  0  0  0  0  0  0  0  0
    4.0226   -1.8733    2.4180 H   0  0  0  0  0  0  0  0  0  0  0  0
    1.7734    0.4774   -0.0061 H   0  0  0  0  0  0  0  0  0  0  0  0
   -0.2564   -0.3066    0.5109 H   0  0  0  0  0  0  0  0  0  0  0  0
   -2.7406   -1.2720    2.3910 H   0  0  0  0  0  0  0  0  0  0  0  0
   -2.6063   -2.5019    1.0702 H   0  0  0  0  0  0  0  0  0  0  0  0
   -4.7723   -1.5981    1.2612 H   0  0  0  0  0  0  0  0  0  0  0  0
   -8.0607   -1.0243   -0.2981 H   0  0  0  0  0  0  0  0  0  0  0  0
   -7.6563   -0.5020    1.3557 H   0  0  0  0  0  0  0  0  0  0  0  0
   -7.1254   -2.0906    0.7488 H   0  0  0  0  0  0  0  0  0  0  0  0
   -7.0205    0.9359   -1.3672 H   0  0  0  0  0  0  0  0  0  0  0  0
   -4.8696    1.8580   -3.4461 H   0  0  0  0  0  0  0  0  0  0  0  0
   -4.1072    3.0127   -2.3247 H   0  0  0  0  0  0  0  0  0  0  0  0
   -5.8643    2.8795   -2.3787 H   0  0  0  0  0  0  0  0  0  0  0  0
   -2.7349    1.2608   -1.2322 H   0  0  0  0  0  0  0  0  0  0  0  0
    3.4202    1.6334   -1.1717 H   0  0  0  0  0  0  0  0  0  0  0  0
    5.1077    1.4007   -1.6249 H   0  0  0  0  0  0  0  0  0  0  0  0
    4.6809    2.5555   -0.3424 H   0  0  0  0  0  0  0  0  0  0  0  0
  1  2  1  0
  2  3  1  0
  3  4  1  0
  4  5  2  0
  5  6  1  0
  6  7  1  0
  7  8  2  3
  8  9  1  0
  9 10  1  0
 10 11  2  0
 10 12  1  0
 12 13  1  0
 13 14  1  0
 14 15  2  0
 15 16  1  0
 16 17  1  0
 16 18  2  0
 18 19  1  0
 19 20  1  0
 19 21  2  0
  6 22  2  0
 22 23  1  0
 22  3  1  0
 21 14  1  0
  1 24  1  0
  1 25  1  0
  1 26  1  0
  2 27  1  0
  2 28  1  0
  5 29  1  0
  7 30  1  0
  9 31  1  0
 12 32  1  0
 12 33  1  0
 15 34  1  0
 17 35  1  0
 17 36  1  0
 17 37  1  0
 18 38  1  0
 20 39  1  0
 20 40  1  0
 20 41  1  0
 21 42  1  0
 23 43  1  0
 23 44  1  0
 23 45  1  0
M  END
$$$$
