
     RDKit          3D

 92 91  0  0  0  0  0  0  0  0999 V2000
   -8.7557   -3.5091   -3.8010 C   0  0  0  0  0  0  0  0  0  0  0  0
   -8.1549   -2.7884   -2.6041 C   0  0  0  0  0  0  0  0  0  0  0  0
   -9.2235   -2.0295   -1.8179 C   0  0  0  0  0  0  0  0  0  0  0  0
   -8.6514   -1.1793   -0.6775 C   0  0  0  0  0  0  0  0  0  0  0  0
   -7.8833   -1.9491    0.4222 C   0  0  0  0  0  0  0  0  0  0  0  0
   -8.6940   -3.0982    1.0580 C   0  0  0  0  0  0  0  0  0  0  0  0
   -9.9977   -2.6823    1.7264 C   0  0  0  0  0  0  0  0  0  0  0  0
   -7.3780   -0.9756    1.5083 C   0  0  0  0  0  0  0  0  0  0  0  0
   -6.3843   -0.0656    0.9444 N   0  0  0  0  0  0  0  0  0  0  0  0
   -5.1271   -0.3120    1.0422 C   0  0  0  0  0  0  0  0  0  0  0  0
   -4.5559   -1.3735    1.6724 N   0  0  0  0  0  0  0  0  0  0  0  0
   -4.2179    0.5424    0.4869 N   0  0  0  0  0  0  0  0  0  0  0  0
   -4.5464    1.5814   -0.2025 C   0  0  0  0  0  0  0  0  0  0  0  0
   -5.7920    2.0456   -0.4877 N   0  0  0  0  0  0  0  0  0  0  0  0
   -3.6414    2.4256   -0.7783 N   0  0  0  0  0  0  0  0  0  0  0  0
   -2.2362    2.4327   -0.4023 C   0  0  0  0  0  0  0  0  0  0  0  0
   -2.0501    3.0733    0.9717 C   0  0  0  0  0  0  0  0  0  0  0  0
   -0.6033    3.4411    1.3077 C   0  0  0  0  0  0  0  0  0  0  0  0
    0.3677    2.2578    1.3870 C   0  0  0  0  0  0  0  0  0  0  0  0
    1.1591    2.0452    0.0903 C   0  0  0  0  0  0  0  0  0  0  0  0
    2.2307    0.9609    0.2261 C   0  0  0  0  0  0  0  0  0  0  0  0
    3.2281    1.3572    1.2113 N   0  0  0  0  0  0  0  0  0  0  0  0
    4.2917    1.9756    0.8526 C   0  0  0  0  0  0  0  0  0  0  0  0
    4.6159    2.3990   -0.3983 N   0  0  0  0  0  0  0  0  0  0  0  0
    5.1393    2.3416    1.8450 N   0  0  0  0  0  0  0  0  0  0  0  0
    5.9361    1.4879    2.3850 C   0  0  0  0  0  0  0  0  0  0  0  0
    6.6525    1.9223    3.4596 N   0  0  0  0  0  0  0  0  0  0  0  0
    6.2654    0.1854    2.1641 N   0  0  0  0  0  0  0  0  0  0  0  0
    6.1014   -0.5361    0.9137 C   0  0  0  0  0  0  0  0  0  0  0  0
    7.1050   -0.0601   -0.1622 C   0  0  0  0  0  0  0  0  0  0  0  0
    6.6709   -0.5531   -1.5603 C   0  0  0  0  0  0  0  0  0  0  0  0
    6.7127   -2.0620   -1.7579 C   0  0  0  0  0  0  0  0  0  0  0  0
    8.5506   -0.4565    0.2184 C   0  0  0  0  0  0  0  0  0  0  0  0
    9.6067    0.0260   -0.7811 C   0  0  0  0  0  0  0  0  0  0  0  0
   11.0212   -0.2415   -0.2614 C   0  0  0  0  0  0  0  0  0  0  0  0
   12.0757    0.2024   -1.2618 C   0  0  0  0  0  0  0  0  0  0  0  0
   -9.5140   -4.2313   -3.4831 H   0  0  0  0  0  0  0  0  0  0  0  0
   -9.2252   -2.8000   -4.4908 H   0  0  0  0  0  0  0  0  0  0  0  0
   -7.9780   -4.0518   -4.3477 H   0  0  0  0  0  0  0  0  0  0  0  0
   -7.3847   -2.0925   -2.9549 H   0  0  0  0  0  0  0  0  0  0  0  0
   -7.6609   -3.5261   -1.9635 H   0  0  0  0  0  0  0  0  0  0  0  0
   -9.9726   -2.7310   -1.4329 H   0  0  0  0  0  0  0  0  0  0  0  0
   -9.7588   -1.3580   -2.5018 H   0  0  0  0  0  0  0  0  0  0  0  0
   -9.4768   -0.6160   -0.2237 H   0  0  0  0  0  0  0  0  0  0  0  0
   -7.9858   -0.4269   -1.1199 H   0  0  0  0  0  0  0  0  0  0  0  0
   -6.9989   -2.4063   -0.0414 H   0  0  0  0  0  0  0  0  0  0  0  0
   -8.0666   -3.6018    1.8055 H   0  0  0  0  0  0  0  0  0  0  0  0
   -8.9158   -3.8567    0.2982 H   0  0  0  0  0  0  0  0  0  0  0  0
   -9.8263   -1.9724    2.5401 H   0  0  0  0  0  0  0  0  0  0  0  0
  -10.4883   -3.5630    2.1555 H   0  0  0  0  0  0  0  0  0  0  0  0
  -10.6932   -2.2331    1.0127 H   0  0  0  0  0  0  0  0  0  0  0  0
   -7.0024   -1.5243    2.3780 H   0  0  0  0  0  0  0  0  0  0  0  0
   -8.2091   -0.3667    1.8832 H   0  0  0  0  0  0  0  0  0  0  0  0
   -3.5681   -1.1920    1.8053 H   0  0  0  0  0  0  0  0  0  0  0  0
   -5.0059   -1.6215    2.5391 H   0  0  0  0  0  0  0  0  0  0  0  0
   -5.9350    2.1254   -1.4865 H   0  0  0  0  0  0  0  0  0  0  0  0
   -6.4776    1.3835   -0.1077 H   0  0  0  0  0  0  0  0  0  0  0  0
   -4.0267    3.3561   -0.8948 H   0  0  0  0  0  0  0  0  0  0  0  0
   -1.6913    3.0117   -1.1562 H   0  0  0  0  0  0  0  0  0  0  0  0
   -1.8318    1.4146   -0.4224 H   0  0  0  0  0  0  0  0  0  0  0  0
   -2.4436    2.4069    1.7489 H   0  0  0  0  0  0  0  0  0  0  0  0
   -2.6505    3.9913    1.0290 H   0  0  0  0  0  0  0  0  0  0  0  0
   -0.2378    4.1984    0.6043 H   0  0  0  0  0  0  0  0  0  0  0  0
   -0.6195    3.9270    2.2927 H   0  0  0  0  0  0  0  0  0  0  0  0
   -0.1601    1.3387    1.6686 H   0  0  0  0  0  0  0  0  0  0  0  0
    1.0768    2.4696    2.1962 H   0  0  0  0  0  0  0  0  0  0  0  0
    0.4795    1.7609   -0.7187 H   0  0  0  0  0  0  0  0  0  0  0  0
    1.6299    2.9897   -0.2063 H   0  0  0  0  0  0  0  0  0  0  0  0
    2.6774    0.7432   -0.7513 H   0  0  0  0  0  0  0  0  0  0  0  0
    1.7688    0.0246    0.5591 H   0  0  0  0  0  0  0  0  0  0  0  0
    3.8108    2.6717   -0.9425 H   0  0  0  0  0  0  0  0  0  0  0  0
    5.2993    3.1455   -0.3369 H   0  0  0  0  0  0  0  0  0  0  0  0
    6.3063    2.8417    3.7191 H   0  0  0  0  0  0  0  0  0  0  0  0
    6.5395    1.2954    4.2480 H   0  0  0  0  0  0  0  0  0  0  0  0
    7.1244   -0.0668    2.6377 H   0  0  0  0  0  0  0  0  0  0  0  0
    6.2658   -1.6005    1.1210 H   0  0  0  0  0  0  0  0  0  0  0  0
    5.0708   -0.4620    0.5581 H   0  0  0  0  0  0  0  0  0  0  0  0
    7.0770    1.0371   -0.1996 H   0  0  0  0  0  0  0  0  0  0  0  0
    7.2941   -0.0791   -2.3272 H   0  0  0  0  0  0  0  0  0  0  0  0
    5.6480   -0.2073   -1.7566 H   0  0  0  0  0  0  0  0  0  0  0  0
    6.0556   -2.5780   -1.0509 H   0  0  0  0  0  0  0  0  0  0  0  0
    6.3743   -2.3130   -2.7694 H   0  0  0  0  0  0  0  0  0  0  0  0
    7.7262   -2.4556   -1.6413 H   0  0  0  0  0  0  0  0  0  0  0  0
    8.6260   -1.5447    0.3348 H   0  0  0  0  0  0  0  0  0  0  0  0
    8.7907   -0.0266    1.1985 H   0  0  0  0  0  0  0  0  0  0  0  0
    9.4800    1.1008   -0.9614 H   0  0  0  0  0  0  0  0  0  0  0  0
    9.4773   -0.4848   -1.7418 H   0  0  0  0  0  0  0  0  0  0  0  0
   11.1467   -1.3103   -0.0546 H   0  0  0  0  0  0  0  0  0  0  0  0
   11.1771    0.2915    0.6831 H   0  0  0  0  0  0  0  0  0  0  0  0
   11.9742   -0.3411   -2.2065 H   0  0  0  0  0  0  0  0  0  0  0  0
   11.9935    1.2736   -1.4724 H   0  0  0  0  0  0  0  0  0  0  0  0
   13.0776    0.0111   -0.8659 H   0  0  0  0  0  0  0  0  0  0  0  0
  1  2  1  0
  2  3  1  0
  3  4  1  0
  4  5  1  0
  5  6  1  0
  6  7  1  0
  5  8  1  0
  8  9  1  0
  9 10  2  3
 10 11  1  0
 10 12  1  0
 12 13  2  3
 13 14  1  0
 13 15  1  0
 15 16  1  0
 16 17  1  0
 17 18  1  0
 18 19  1  0
 19 20  1  0
 20 21  1  0
 21 22  1  0
 22 23  2  3
 23 24  1  0
 23 25  1  0
 25 26  2  3
 26 27  1  0
 26 28  1  0
 28 29  1  0
 29 30  1  0
 30 31  1  0
 31 32  1  0
 30 33  1  0
 33 34  1  0
 34 35  1  0
 35 36  1  0
  1 37  1  0
  1 38  1  0
  1 39  1  0
  2 40  1  0
  2 41  1  0
  3 42  1  0
  3 43  1  0
  4 44  1  0
  4 45  1  0
  5 46  1  0
  6 47  1  0
  6 48  1  0
  7 49  1  0
  7 50  1  0
  7 51  1  0
  8 52  1  0
  8 53  1  0
 11 54  1  0
 11 55  1  0
 14 56  1  0
 14 57  1  0
 15 58  1  0
 16 59  1  0
 16 60  1  0
 17 61  1  0
 17 62  1  0
 18 63  1  0
 18 64  1  0
 19 65  1  0
 19 66  1  0
 20 67  1  0
 20 68  1  0
 21 69  1  0
 21 70  1  0
 24 71  1  0
 24 72  1  0
 27 73  1  0
 27 74  1  0
 28 75  1  0
 29 76  1  0
 29 77  1  0
 30 78  1  0
 31 79  1  0
 31 80  1  0
 32 81  1  0
 32 82  1  0
 32 83  1  0
 33 84  1  0
 33 85  1  0
 34 86  1  0
 34 87  1  0
 35 88  1  0
 35 89  1  0
 36 90  1  0
 36 91  1  0
 36 92  1  0
M  END
$$$$
