
     RDKit          3D

 60 65  0  0  0  0  0  0  0  0999 V2000
    3.5471   -1.5567   -1.0408 O   0  0  0  0  0  0  0  0  0  0  0  0
    2.6773   -0.7677   -1.4030 C   0  0  0  0  0  0  0  0  0  0  0  0
    1.2965   -0.7190   -0.7588 C   0  0  0  0  0  0  0  0  0  0  0  0
    0.7140   -2.3573   -0.2404 S   0  0  0  0  0  0  0  0  0  0  0  0
   -0.6768   -1.8317    0.7034 C   0  0  0  0  0  0  0  0  0  0  0  0
   -1.4448   -0.9840    0.1017 N   0  0  0  0  0  0  0  0  0  0  0  0
   -2.4944   -0.4251    0.8149 C   0  0  0  0  0  0  0  0  0  0  0  0
   -3.2427    0.4444    0.1043 N   0  0  0  0  0  0  0  0  0  0  0  0
   -4.2721    1.0622    0.7359 C   0  0  0  0  0  0  0  0  0  0  0  0
   -4.5605    0.8607    2.0907 C   0  0  0  0  0  0  0  0  0  0  0  0
   -3.7670   -0.0480    2.8006 C   0  0  0  0  0  0  0  0  0  0  0  0
   -2.7182   -0.6939    2.1463 C   0  0  0  0  0  0  0  0  0  0  0  0
   -1.8459   -1.6685    2.8109 C   0  0  0  0  0  0  0  0  0  0  0  0
   -2.0853   -1.9152    3.9926 O   0  0  0  0  0  0  0  0  0  0  0  0
   -0.8412   -2.2535    2.0272 N   0  0  0  0  0  0  0  0  0  0  0  0
   -0.0289   -3.2666    2.6417 C   0  0  0  0  0  0  0  0  0  0  0  0
    0.1773   -4.5086    2.0218 C   0  0  0  0  0  0  0  0  0  0  0  0
    0.9718   -5.4874    2.6288 C   0  0  0  0  0  0  0  0  0  0  0  0
    1.5587   -5.2430    3.8679 C   0  0  0  0  0  0  0  0  0  0  0  0
    1.3421   -4.0251    4.5071 C   0  0  0  0  0  0  0  0  0  0  0  0
    0.5470   -3.0478    3.9029 C   0  0  0  0  0  0  0  0  0  0  0  0
   -5.7225    1.5348    2.7690 C   0  0  0  0  0  0  0  0  0  0  0  0
   -6.2773    2.7238    1.9820 C   0  0  0  0  0  0  0  0  0  0  0  0
   -6.4250    2.3753    0.5043 C   0  0  0  0  0  0  0  0  0  0  0  0
   -5.0631    2.0389   -0.0978 C   0  0  0  0  0  0  0  0  0  0  0  0
    2.8237    0.2315   -2.3629 N   0  0  0  0  0  0  0  0  0  0  0  0
    3.9707    0.5545   -3.1378 C   0  0  0  0  0  0  0  0  0  0  0  0
    5.1141   -0.2552   -3.1130 C   0  0  0  0  0  0  0  0  0  0  0  0
    6.2394    0.0731   -3.8626 C   0  0  0  0  0  0  0  0  0  0  0  0
    6.2402    1.2154   -4.6556 C   0  0  0  0  0  0  0  0  0  0  0  0
    5.1115    2.0406   -4.7245 C   0  0  0  0  0  0  0  0  0  0  0  0
    5.1410    3.1792   -5.5489 C   0  0  0  0  0  0  0  0  0  0  0  0
    4.0407    4.0262   -5.6497 C   0  0  0  0  0  0  0  0  0  0  0  0
    2.8962    3.7463   -4.9213 C   0  0  0  0  0  0  0  0  0  0  0  0
    2.8545    2.6235   -4.0890 C   0  0  0  0  0  0  0  0  0  0  0  0
    3.9514    1.7275   -3.9660 C   0  0  0  0  0  0  0  0  0  0  0  0
    0.5732   -0.2999   -1.4668 H   0  0  0  0  0  0  0  0  0  0  0  0
    1.3644   -0.0551    0.1105 H   0  0  0  0  0  0  0  0  0  0  0  0
   -3.9646   -0.2552    3.8513 H   0  0  0  0  0  0  0  0  0  0  0  0
   -0.2937   -4.7470    1.0701 H   0  0  0  0  0  0  0  0  0  0  0  0
    1.1283   -6.4416    2.1318 H   0  0  0  0  0  0  0  0  0  0  0  0
    2.1814   -6.0011    4.3384 H   0  0  0  0  0  0  0  0  0  0  0  0
    1.7908   -3.8343    5.4768 H   0  0  0  0  0  0  0  0  0  0  0  0
    0.4007   -2.1048    4.4256 H   0  0  0  0  0  0  0  0  0  0  0  0
   -6.5163    0.7872    2.9060 H   0  0  0  0  0  0  0  0  0  0  0  0
   -5.4201    1.8834    3.7656 H   0  0  0  0  0  0  0  0  0  0  0  0
   -7.2451    3.0227    2.4009 H   0  0  0  0  0  0  0  0  0  0  0  0
   -5.6025    3.5849    2.0864 H   0  0  0  0  0  0  0  0  0  0  0  0
   -7.1093    1.5222    0.3921 H   0  0  0  0  0  0  0  0  0  0  0  0
   -6.8679    3.2187   -0.0403 H   0  0  0  0  0  0  0  0  0  0  0  0
   -5.2041    1.6321   -1.1069 H   0  0  0  0  0  0  0  0  0  0  0  0
   -4.4689    2.9574   -0.1944 H   0  0  0  0  0  0  0  0  0  0  0  0
    2.0203    0.8277   -2.5003 H   0  0  0  0  0  0  0  0  0  0  0  0
    5.1616   -1.1643   -2.5211 H   0  0  0  0  0  0  0  0  0  0  0  0
    7.1172   -0.5668   -3.8251 H   0  0  0  0  0  0  0  0  0  0  0  0
    7.1346    1.4533   -5.2259 H   0  0  0  0  0  0  0  0  0  0  0  0
    6.0307    3.4173   -6.1268 H   0  0  0  0  0  0  0  0  0  0  0  0
    4.0783    4.8967   -6.2989 H   0  0  0  0  0  0  0  0  0  0  0  0
    2.0301    4.3961   -4.9993 H   0  0  0  0  0  0  0  0  0  0  0  0
    1.9314    2.4669   -3.5418 H   0  0  0  0  0  0  0  0  0  0  0  0
  1  2  2  0
  2  3  1  0
  3  4  1  0
  4  5  1  0
  5  6  2  0
  6  7  1  0
  7  8  2  0
  8  9  1  0
  9 10  2  0
 10 11  1  0
 11 12  2  0
 12 13  1  0
 13 14  2  0
 13 15  1  0
 15 16  1  0
 16 17  2  0
 17 18  1  0
 18 19  2  0
 19 20  1  0
 20 21  2  0
 10 22  1  0
 22 23  1  0
 23 24  1  0
 24 25  1  0
  2 26  1  0
 26 27  1  0
 27 28  2  0
 28 29  1  0
 29 30  2  0
 30 31  1  0
 31 32  2  0
 32 33  1  0
 33 34  2  0
 34 35  1  0
 35 36  2  0
 15  5  1  0
 21 16  1  0
 36 27  1  0
 12  7  1  0
 36 31  1  0
 25  9  1  0
  3 37  1  0
  3 38  1  0
 11 39  1  0
 17 40  1  0
 18 41  1  0
 19 42  1  0
 20 43  1  0
 21 44  1  0
 22 45  1  0
 22 46  1  0
 23 47  1  0
 23 48  1  0
 24 49  1  0
 24 50  1  0
 25 51  1  0
 25 52  1  0
 26 53  1  0
 28 54  1  0
 29 55  1  0
 30 56  1  0
 32 57  1  0
 33 58  1  0
 34 59  1  0
 35 60  1  0
M  END
$$$$
