
     RDKit          3D

 39 41  0  0  0  0  0  0  0  0999 V2000
   -4.4556   -2.2598   -0.3213 C   0  0  0  0  0  0  0  0  0  0  0  0
   -3.2499   -2.8523    0.3883 C   0  0  0  0  0  0  0  0  0  0  0  0
   -1.8976   -3.1796   -0.7920 S   0  0  0  0  0  0  0  0  0  0  0  0
   -0.8889   -1.7285   -0.5349 C   0  0  0  0  0  0  0  0  0  0  0  0
    0.4830   -1.8605   -0.5615 C   0  0  0  0  0  0  0  0  0  0  0  0
    1.2360   -0.7252   -0.3577 C   0  0  0  0  0  0  0  0  0  0  0  0
    2.6066   -0.7571   -0.3320 N   0  0  0  0  0  0  0  0  0  0  0  0
    3.4469   -1.9024   -0.6356 C   0  0  0  0  0  0  0  0  0  0  0  0
    4.8469   -1.3057   -0.7814 C   0  0  0  0  0  0  0  0  0  0  0  0
    4.7991   -0.0712    0.1048 C   0  0  0  0  0  0  0  0  0  0  0  0
    3.3825    0.4557   -0.1108 C   0  0  0  0  0  0  0  0  0  0  0  0
    0.6281    0.4581   -0.1580 N   0  0  0  0  0  0  0  0  0  0  0  0
   -0.7173    0.5046   -0.1599 C   0  0  0  0  0  0  0  0  0  0  0  0
   -1.3597    1.8211    0.0398 C   0  0  0  0  0  0  0  0  0  0  0  0
   -0.5979    3.0068    0.1078 C   0  0  0  0  0  0  0  0  0  0  0  0
   -1.2034    4.2566    0.2727 C   0  0  0  0  0  0  0  0  0  0  0  0
   -2.5837    4.3384    0.3752 C   0  0  0  0  0  0  0  0  0  0  0  0
   -3.1668    5.5361    0.5254 F   0  0  0  0  0  0  0  0  0  0  0  0
   -3.3686    3.1961    0.3241 C   0  0  0  0  0  0  0  0  0  0  0  0
   -2.7595    1.9479    0.1602 C   0  0  0  0  0  0  0  0  0  0  0  0
   -1.5121   -0.5600   -0.3383 N   0  0  0  0  0  0  0  0  0  0  0  0
   -4.8186   -2.9288   -1.1092 H   0  0  0  0  0  0  0  0  0  0  0  0
   -5.2736   -2.1119    0.3942 H   0  0  0  0  0  0  0  0  0  0  0  0
   -4.2299   -1.2892   -0.7736 H   0  0  0  0  0  0  0  0  0  0  0  0
   -2.9161   -2.2039    1.2057 H   0  0  0  0  0  0  0  0  0  0  0  0
   -3.5310   -3.8098    0.8399 H   0  0  0  0  0  0  0  0  0  0  0  0
    0.9399   -2.8273   -0.7162 H   0  0  0  0  0  0  0  0  0  0  0  0
    3.4183   -2.6205    0.1901 H   0  0  0  0  0  0  0  0  0  0  0  0
    3.1548   -2.4053   -1.5608 H   0  0  0  0  0  0  0  0  0  0  0  0
    5.6330   -2.0085   -0.4888 H   0  0  0  0  0  0  0  0  0  0  0  0
    5.0231   -1.0118   -1.8242 H   0  0  0  0  0  0  0  0  0  0  0  0
    4.9342   -0.3590    1.1529 H   0  0  0  0  0  0  0  0  0  0  0  0
    5.5644    0.6678   -0.1511 H   0  0  0  0  0  0  0  0  0  0  0  0
    3.3412    1.1017   -0.9993 H   0  0  0  0  0  0  0  0  0  0  0  0
    3.0478    1.0246    0.7641 H   0  0  0  0  0  0  0  0  0  0  0  0
    0.4878    2.9615    0.0224 H   0  0  0  0  0  0  0  0  0  0  0  0
   -0.6050    5.1620    0.3178 H   0  0  0  0  0  0  0  0  0  0  0  0
   -4.4471    3.2782    0.4103 H   0  0  0  0  0  0  0  0  0  0  0  0
   -3.3910    1.0610    0.1177 H   0  0  0  0  0  0  0  0  0  0  0  0
  1  2  1  0
  2  3  1  0
  3  4  1  0
  4  5  2  0
  5  6  1  0
  6  7  1  0
  7  8  1  0
  8  9  1  0
  9 10  1  0
 10 11  1  0
  6 12  2  0
 12 13  1  0
 13 14  1  0
 14 15  2  0
 15 16  1  0
 16 17  2  0
 17 18  1  0
 17 19  1  0
 19 20  2  0
 13 21  2  0
 21  4  1  0
 11  7  1  0
 20 14  1  0
  1 22  1  0
  1 23  1  0
  1 24  1  0
  2 25  1  0
  2 26  1  0
  5 27  1  0
  8 28  1  0
  8 29  1  0
  9 30  1  0
  9 31  1  0
 10 32  1  0
 10 33  1  0
 11 34  1  0
 11 35  1  0
 15 36  1  0
 16 37  1  0
 19 38  1  0
 20 39  1  0
M  END
$$$$
