
     RDKit          3D

 54 57  0  0  0  0  0  0  0  0999 V2000
    8.5350    3.0248    0.0696 C   0  0  0  0  0  0  0  0  0  0  0  0
    7.2364    3.6026    0.0905 O   0  0  0  0  0  0  0  0  0  0  0  0
    6.1798    2.7405    0.1808 C   0  0  0  0  0  0  0  0  0  0  0  0
    4.9285    3.3514    0.2533 C   0  0  0  0  0  0  0  0  0  0  0  0
    3.7596    2.5856    0.3490 C   0  0  0  0  0  0  0  0  0  0  0  0
    3.8085    1.1817    0.3748 C   0  0  0  0  0  0  0  0  0  0  0  0
    2.5914    0.3479    0.4752 C   0  0  0  0  0  0  0  0  0  0  0  0
    1.4434    0.7579    1.1295 C   0  0  0  0  0  0  0  0  0  0  0  0
    0.3451   -0.1028    1.1546 C   0  0  0  0  0  0  0  0  0  0  0  0
   -0.8666    0.4162    1.8250 C   0  0  0  0  0  0  0  0  0  0  0  0
   -0.8056    0.8216    2.9781 O   0  0  0  0  0  0  0  0  0  0  0  0
   -1.9992    0.4491    1.0508 N   0  0  0  0  0  0  0  0  0  0  0  0
   -3.2936    0.7970    1.6024 C   0  0  0  0  0  0  0  0  0  0  0  0
   -4.3517    0.9372    0.4936 C   0  0  0  0  0  0  0  0  0  0  0  0
   -4.3081   -0.1659   -0.4897 N   0  0  0  0  0  0  0  0  0  0  0  0
   -4.7944   -1.4541    0.0537 C   0  0  0  0  0  0  0  0  0  0  0  0
   -6.2105   -1.8305   -0.4127 C   0  0  0  0  0  0  0  0  0  0  0  0
   -6.3289   -1.9200   -1.8378 O   0  0  0  0  0  0  0  0  0  0  0  0
   -5.4444   -1.0338   -2.5359 C   0  0  0  0  0  0  0  0  0  0  0  0
   -5.0643    0.2023   -1.7080 C   0  0  0  0  0  0  0  0  0  0  0  0
    0.4067   -1.3868    0.5719 C   0  0  0  0  0  0  0  0  0  0  0  0
   -0.6289   -2.3576    0.6109 C   0  0  0  0  0  0  0  0  0  0  0  0
   -0.4774   -3.5986   -0.0047 C   0  0  0  0  0  0  0  0  0  0  0  0
    0.7104   -3.8942   -0.6567 C   0  0  0  0  0  0  0  0  0  0  0  0
    1.7405   -2.9511   -0.6779 C   0  0  0  0  0  0  0  0  0  0  0  0
    1.6153   -1.7083   -0.0704 C   0  0  0  0  0  0  0  0  0  0  0  0
    2.6638   -0.8692   -0.1207 N   0  0  0  0  0  0  0  0  0  0  0  0
    5.0807    0.5865    0.2907 C   0  0  0  0  0  0  0  0  0  0  0  0
    6.2524    1.3511    0.1980 C   0  0  0  0  0  0  0  0  0  0  0  0
    8.6745    2.4014   -0.8189 H   0  0  0  0  0  0  0  0  0  0  0  0
    9.2639    3.8399    0.0232 H   0  0  0  0  0  0  0  0  0  0  0  0
    8.7293    2.4564    0.9856 H   0  0  0  0  0  0  0  0  0  0  0  0
    4.8589    4.4363    0.2306 H   0  0  0  0  0  0  0  0  0  0  0  0
    2.8088    3.1121    0.3840 H   0  0  0  0  0  0  0  0  0  0  0  0
    1.3844    1.7220    1.6243 H   0  0  0  0  0  0  0  0  0  0  0  0
   -2.0069    0.0347    0.1234 H   0  0  0  0  0  0  0  0  0  0  0  0
   -3.1991    1.7348    2.1610 H   0  0  0  0  0  0  0  0  0  0  0  0
   -3.5672    0.0150    2.3186 H   0  0  0  0  0  0  0  0  0  0  0  0
   -4.1329    1.8758   -0.0335 H   0  0  0  0  0  0  0  0  0  0  0  0
   -5.3499    1.0423    0.9363 H   0  0  0  0  0  0  0  0  0  0  0  0
   -4.7530   -1.4859    1.1472 H   0  0  0  0  0  0  0  0  0  0  0  0
   -4.1000   -2.2245   -0.3028 H   0  0  0  0  0  0  0  0  0  0  0  0
   -6.9437   -1.0996   -0.0504 H   0  0  0  0  0  0  0  0  0  0  0  0
   -6.4943   -2.8037    0.0004 H   0  0  0  0  0  0  0  0  0  0  0  0
   -4.5514   -1.6005   -2.8255 H   0  0  0  0  0  0  0  0  0  0  0  0
   -5.9499   -0.7288   -3.4586 H   0  0  0  0  0  0  0  0  0  0  0  0
   -4.4533    0.8781   -2.3168 H   0  0  0  0  0  0  0  0  0  0  0  0
   -5.9877    0.7330   -1.4378 H   0  0  0  0  0  0  0  0  0  0  0  0
   -1.5600   -2.1588    1.1379 H   0  0  0  0  0  0  0  0  0  0  0  0
   -1.2804   -4.3306    0.0315 H   0  0  0  0  0  0  0  0  0  0  0  0
    0.8467   -4.8579   -1.1410 H   0  0  0  0  0  0  0  0  0  0  0  0
    2.6742   -3.1960   -1.1807 H   0  0  0  0  0  0  0  0  0  0  0  0
    5.1677   -0.5000    0.2996 H   0  0  0  0  0  0  0  0  0  0  0  0
    7.1977    0.8237    0.1364 H   0  0  0  0  0  0  0  0  0  0  0  0
  1  2  1  0
  2  3  1  0
  3  4  2  0
  4  5  1  0
  5  6  2  0
  6  7  1  0
  7  8  2  0
  8  9  1  0
  9 10  1  0
 10 11  2  0
 10 12  1  0
 12 13  1  0
 13 14  1  0
 14 15  1  0
 15 16  1  0
 16 17  1  0
 17 18  1  0
 18 19  1  0
 19 20  1  0
  9 21  2  0
 21 22  1  0
 22 23  2  0
 23 24  1  0
 24 25  2  0
 25 26  1  0
 26 27  2  0
  6 28  1  0
 28 29  2  0
 29  3  1  0
 27  7  1  0
 20 15  1  0
 26 21  1  0
  1 30  1  0
  1 31  1  0
  1 32  1  0
  4 33  1  0
  5 34  1  0
  8 35  1  0
 12 36  1  0
 13 37  1  0
 13 38  1  0
 14 39  1  0
 14 40  1  0
 16 41  1  0
 16 42  1  0
 17 43  1  0
 17 44  1  0
 19 45  1  0
 19 46  1  0
 20 47  1  0
 20 48  1  0
 22 49  1  0
 23 50  1  0
 24 51  1  0
 25 52  1  0
 28 53  1  0
 29 54  1  0
M  END
$$$$
