
     RDKit          3D

 40 41  0  0  0  0  0  0  0  0999 V2000
   -3.5938    1.1091    4.0120 C   0  0  0  0  0  0  0  0  0  0  0  0
   -3.9989    1.0814    2.5843 C   0  0  0  0  0  0  0  0  0  0  0  0
   -5.2633    1.3516    2.2481 N   0  0  0  0  0  0  0  0  0  0  0  0
   -5.2824    1.2393    0.9086 N   0  0  0  0  0  0  0  0  0  0  0  0
   -6.5236    1.4710    0.2062 C   0  0  0  0  0  0  0  0  0  0  0  0
   -4.0666    0.9048    0.3701 C   0  0  0  0  0  0  0  0  0  0  0  0
   -3.8296    0.7208   -1.0878 C   0  0  0  0  0  0  0  0  0  0  0  0
   -3.1967    0.7930    1.4466 C   0  0  0  0  0  0  0  0  0  0  0  0
   -1.7893    0.4588    1.4303 C   0  0  0  0  0  0  0  0  0  0  0  0
   -1.1899    0.2235    0.3090 N   0  0  0  0  0  0  0  0  0  0  0  0
    0.1364   -0.0834    0.3867 N   0  0  0  0  0  0  0  0  0  0  0  0
    0.8400   -0.3715   -0.7749 C   0  0  0  0  0  0  0  0  0  0  0  0
    0.3751   -0.3694   -1.9105 O   0  0  0  0  0  0  0  0  0  0  0  0
    2.2920   -0.6740   -0.4949 C   0  0  0  0  0  0  0  0  0  0  0  0
    2.9973   -1.1360   -1.7619 C   0  0  0  0  0  0  0  0  0  0  0  0
    4.4170   -1.3535   -1.5463 N   0  0  0  0  0  0  0  0  0  0  0  0
    5.4477   -0.7350   -2.1937 C   0  0  0  0  0  0  0  0  0  0  0  0
    6.6010   -1.2740   -1.6608 C   0  0  0  0  0  0  0  0  0  0  0  0
    7.9480   -0.9552   -2.0123 N   0  0  0  0  0  4  0  0  0  0  0  0
    8.1154   -0.0972   -2.8880 O   0  0  0  0  0  0  0  0  0  0  0  0
    8.8401   -1.5619   -1.4067 O   0  0  0  0  0  1  0  0  0  0  0  0
    6.1602   -2.2007   -0.7007 C   0  0  0  0  0  0  0  0  0  0  0  0
    4.8253   -2.2478   -0.6215 N   0  0  0  0  0  0  0  0  0  0  0  0
   -2.8000    1.8464    4.1685 H   0  0  0  0  0  0  0  0  0  0  0  0
   -3.2207    0.1274    4.3207 H   0  0  0  0  0  0  0  0  0  0  0  0
   -4.4322    1.3722    4.6653 H   0  0  0  0  0  0  0  0  0  0  0  0
   -6.3772    2.3010   -0.4893 H   0  0  0  0  0  0  0  0  0  0  0  0
   -6.7937    0.5567   -0.3278 H   0  0  0  0  0  0  0  0  0  0  0  0
   -7.3088    1.7249    0.9233 H   0  0  0  0  0  0  0  0  0  0  0  0
   -4.7313    0.8789   -1.6856 H   0  0  0  0  0  0  0  0  0  0  0  0
   -3.4767   -0.2957   -1.2898 H   0  0  0  0  0  0  0  0  0  0  0  0
   -3.0733    1.4287   -1.4418 H   0  0  0  0  0  0  0  0  0  0  0  0
   -1.2657    0.4163    2.4010 H   0  0  0  0  0  0  0  0  0  0  0  0
    0.5906   -0.1279    1.2926 H   0  0  0  0  0  0  0  0  0  0  0  0
    2.7657    0.2341   -0.1030 H   0  0  0  0  0  0  0  0  0  0  0  0
    2.3474   -1.4475    0.2803 H   0  0  0  0  0  0  0  0  0  0  0  0
    2.5824   -2.0829   -2.1269 H   0  0  0  0  0  0  0  0  0  0  0  0
    2.8953   -0.3956   -2.5639 H   0  0  0  0  0  0  0  0  0  0  0  0
    5.2861    0.0098   -2.9619 H   0  0  0  0  0  0  0  0  0  0  0  0
    6.7505   -2.8407   -0.0560 H   0  0  0  0  0  0  0  0  0  0  0  0
  1  2  1  0
  2  3  2  0
  3  4  1  0
  4  5  1  0
  4  6  1  0
  6  7  1  0
  6  8  2  0
  8  9  1  0
  9 10  2  3
 10 11  1  0
 11 12  1  0
 12 13  2  0
 12 14  1  0
 14 15  1  0
 15 16  1  0
 16 17  1  0
 17 18  2  0
 18 19  1  0
 19 20  2  0
 19 21  1  0
 18 22  1  0
 22 23  2  0
  8  2  1  0
 23 16  1  0
  1 24  1  0
  1 25  1  0
  1 26  1  0
  5 27  1  0
  5 28  1  0
  5 29  1  0
  7 30  1  0
  7 31  1  0
  7 32  1  0
  9 33  1  0
 11 34  1  0
 14 35  1  0
 14 36  1  0
 15 37  1  0
 15 38  1  0
 17 39  1  0
 22 40  1  0
M  CHG  2  19   1  21  -1
M  END
$$$$
