
     RDKit          3D

 48 50  0  0  0  0  0  0  0  0999 V2000
   -4.8065    1.7489   -0.1307 C   0  0  0  0  0  0  0  0  0  0  0  0
   -5.3010    0.4081   -0.6594 C   0  0  0  0  0  0  0  0  0  0  0  0
   -4.4037   -0.8083   -0.3419 C   0  0  0  0  0  0  0  0  0  0  0  0
   -3.0278   -0.6497   -0.7893 N   0  0  0  0  0  0  0  0  0  0  0  0
   -2.7010   -0.6611   -2.1363 C   0  0  0  0  0  0  0  0  0  0  0  0
   -3.5585   -0.7140   -3.0135 O   0  0  0  0  0  0  0  0  0  0  0  0
   -1.2592   -0.6271   -2.4226 C   0  0  0  0  0  0  0  0  0  0  0  0
   -0.1775   -0.3466   -1.5436 C   0  0  0  0  0  0  0  0  0  0  0  0
    0.9499   -0.4511   -2.3219 C   0  0  0  0  0  0  0  0  0  0  0  0
    2.4031   -0.2872   -2.0878 C   0  0  0  0  0  0  0  0  0  0  0  0
    2.5810   -0.1568   -0.6784 O   0  0  0  0  0  0  0  0  0  0  0  0
    3.7931    0.3142   -0.2495 C   0  0  0  0  0  0  0  0  0  0  0  0
    4.9832    0.1763   -0.9681 C   0  0  0  0  0  0  0  0  0  0  0  0
    6.1881    0.6686   -0.4480 C   0  0  0  0  0  0  0  0  0  0  0  0
    6.2157    1.2977    0.7965 C   0  0  0  0  0  0  0  0  0  0  0  0
    7.3203    1.8213    1.4077 O   0  0  0  0  0  0  0  0  0  0  0  0
    8.5714    1.6330    0.7570 C   0  0  0  0  0  0  0  0  0  0  0  0
    5.0308    1.4267    1.5223 C   0  0  0  0  0  0  0  0  0  0  0  0
    3.8303    0.9318    1.0089 C   0  0  0  0  0  0  0  0  0  0  0  0
    2.3958    1.1170    1.9583 Cl  0  0  0  0  0  0  0  0  0  0  0  0
    0.5810   -0.7662   -3.5897 O   0  0  0  0  0  0  0  0  0  0  0  0
   -0.7922   -0.8727   -3.6594 N   0  0  0  0  0  0  0  0  0  0  0  0
   -4.4558   -1.2018    1.1253 C   0  0  0  0  0  0  0  0  0  0  0  0
   -3.7160   -0.5355    2.1103 C   0  0  0  0  0  0  0  0  0  0  0  0
   -3.8183   -0.9581    3.4278 C   0  0  0  0  0  0  0  0  0  0  0  0
   -4.5954   -1.9847    3.8290 N   0  0  0  0  0  0  0  0  0  0  0  0
   -5.3078   -2.6134    2.8717 C   0  0  0  0  0  0  0  0  0  0  0  0
   -5.2734   -2.2643    1.5299 C   0  0  0  0  0  0  0  0  0  0  0  0
   -3.7870    1.9631   -0.4643 H   0  0  0  0  0  0  0  0  0  0  0  0
   -4.8349    1.7898    0.9609 H   0  0  0  0  0  0  0  0  0  0  0  0
   -5.4523    2.5520   -0.5009 H   0  0  0  0  0  0  0  0  0  0  0  0
   -5.4048    0.5035   -1.7469 H   0  0  0  0  0  0  0  0  0  0  0  0
   -6.3125    0.2295   -0.2731 H   0  0  0  0  0  0  0  0  0  0  0  0
   -4.8021   -1.6533   -0.9217 H   0  0  0  0  0  0  0  0  0  0  0  0
   -2.2979   -0.8797   -0.1311 H   0  0  0  0  0  0  0  0  0  0  0  0
   -0.2026   -0.0916   -0.4946 H   0  0  0  0  0  0  0  0  0  0  0  0
    2.7540    0.6087   -2.6140 H   0  0  0  0  0  0  0  0  0  0  0  0
    2.9347   -1.1736   -2.4513 H   0  0  0  0  0  0  0  0  0  0  0  0
    5.0140   -0.3256   -1.9311 H   0  0  0  0  0  0  0  0  0  0  0  0
    7.0884    0.5406   -1.0417 H   0  0  0  0  0  0  0  0  0  0  0  0
    9.3463    2.0814    1.3862 H   0  0  0  0  0  0  0  0  0  0  0  0
    8.8031    0.5674    0.6511 H   0  0  0  0  0  0  0  0  0  0  0  0
    8.5925    2.1420   -0.2122 H   0  0  0  0  0  0  0  0  0  0  0  0
    5.0510    1.9128    2.4947 H   0  0  0  0  0  0  0  0  0  0  0  0
   -3.0726    0.3046    1.8699 H   0  0  0  0  0  0  0  0  0  0  0  0
   -3.2603   -0.4650    4.2193 H   0  0  0  0  0  0  0  0  0  0  0  0
   -5.9297   -3.4334    3.2207 H   0  0  0  0  0  0  0  0  0  0  0  0
   -5.8768   -2.8183    0.8174 H   0  0  0  0  0  0  0  0  0  0  0  0
  1  2  1  0
  2  3  1  0
  3  4  1  0
  4  5  1  0
  5  6  2  0
  5  7  1  0
  7  8  1  0
  8  9  2  0
  9 10  1  0
 10 11  1  0
 11 12  1  0
 12 13  2  0
 13 14  1  0
 14 15  2  0
 15 16  1  0
 16 17  1  0
 15 18  1  0
 18 19  2  0
 19 20  1  0
  9 21  1  0
 21 22  1  0
  3 23  1  0
 23 24  2  0
 24 25  1  0
 25 26  2  0
 26 27  1  0
 27 28  2  0
 22  7  2  0
 28 23  1  0
 19 12  1  0
  1 29  1  0
  1 30  1  0
  1 31  1  0
  2 32  1  0
  2 33  1  0
  3 34  1  0
  4 35  1  0
  8 36  1  0
 10 37  1  0
 10 38  1  0
 13 39  1  0
 14 40  1  0
 17 41  1  0
 17 42  1  0
 17 43  1  0
 18 44  1  0
 24 45  1  0
 25 46  1  0
 27 47  1  0
 28 48  1  0
M  END
$$$$
