
     RDKit          3D

 41 44  0  0  0  0  0  0  0  0999 V2000
   -1.3186    1.0021    1.1528 O   0  0  0  0  0  0  0  0  0  0  0  0
   -0.5476    0.3405    0.4692 C   0  0  0  0  0  0  0  0  0  0  0  0
   -0.3400   -0.9603    0.7369 O   0  0  0  0  0  0  0  0  0  0  0  0
    0.2290    0.8639   -0.7311 C   0  0  0  0  0  0  0  0  0  0  0  0
    1.5888    1.4135   -0.2794 C   0  0  0  0  0  0  0  0  0  0  0  0
    2.5379    0.3595    0.1996 C   0  0  0  0  0  0  0  0  0  0  0  0
    3.3060   -0.4681   -0.5958 C   0  0  0  0  0  0  0  0  0  0  0  0
    4.0279   -1.2986    0.2178 N   0  0  0  0  0  0  0  0  0  0  0  0
    3.7501   -1.0312    1.5378 C   0  0  0  0  0  0  0  0  0  0  0  0
    4.2483   -1.6282    2.7021 C   0  0  0  0  0  0  0  0  0  0  0  0
    3.7835   -1.1448    3.9284 C   0  0  0  0  0  0  0  0  0  0  0  0
    2.8585   -0.1056    3.9852 C   0  0  0  0  0  0  0  0  0  0  0  0
    2.3704    0.4800    2.8112 C   0  0  0  0  0  0  0  0  0  0  0  0
    2.8224    0.0105    1.5599 C   0  0  0  0  0  0  0  0  0  0  0  0
   -0.5494    1.9926   -1.3137 N   0  0  0  0  0  0  0  0  0  0  0  0
   -1.5948    1.7175   -2.5915 S   0  0  0  0  0  6  0  0  0  0  0  0
   -2.2039    3.0036   -2.8625 O   0  0  0  0  0  0  0  0  0  0  0  0
   -0.8828    1.0098   -3.6285 O   0  0  0  0  0  0  0  0  0  0  0  0
   -2.8548    0.6861   -1.9322 C   0  0  0  0  0  0  0  0  0  0  0  0
   -4.0607    1.2603   -1.4641 C   0  0  0  0  0  0  0  0  0  0  0  0
   -5.1322    0.4979   -0.9447 C   0  0  0  0  0  0  0  0  0  0  0  0
   -5.0973   -0.9021   -0.8536 C   0  0  0  0  0  0  0  0  0  0  0  0
   -3.9173   -1.5309   -1.3179 C   0  0  0  0  0  0  0  0  0  0  0  0
   -3.6883   -2.8523   -1.3094 N   0  0  0  0  0  0  0  0  0  0  0  0
   -2.1777   -3.0734   -1.9575 S   0  0  0  0  0  0  0  0  0  0  0  0
   -1.7398   -1.5034   -2.2510 N   0  0  0  0  0  0  0  0  0  0  0  0
   -2.7662   -0.7233   -1.8781 C   0  0  0  0  0  0  0  0  0  0  0  0
   -0.8448   -1.1499    1.5543 H   0  0  0  0  0  0  0  0  0  0  0  0
    0.3619    0.0703   -1.4718 H   0  0  0  0  0  0  0  0  0  0  0  0
    2.0594    1.9471   -1.1167 H   0  0  0  0  0  0  0  0  0  0  0  0
    1.4488    2.1659    0.5082 H   0  0  0  0  0  0  0  0  0  0  0  0
    3.3967   -0.5389   -1.6723 H   0  0  0  0  0  0  0  0  0  0  0  0
    4.6729   -2.0088   -0.0995 H   0  0  0  0  0  0  0  0  0  0  0  0
    4.9708   -2.4366    2.6612 H   0  0  0  0  0  0  0  0  0  0  0  0
    4.1532   -1.5861    4.8513 H   0  0  0  0  0  0  0  0  0  0  0  0
    2.5133    0.2580    4.9499 H   0  0  0  0  0  0  0  0  0  0  0  0
    1.6516    1.2917    2.8725 H   0  0  0  0  0  0  0  0  0  0  0  0
   -0.9000    2.6812   -0.6444 H   0  0  0  0  0  0  0  0  0  0  0  0
   -4.1842    2.3450   -1.5011 H   0  0  0  0  0  0  0  0  0  0  0  0
   -6.0263    1.0212   -0.6023 H   0  0  0  0  0  0  0  0  0  0  0  0
   -5.9248   -1.4760   -0.4531 H   0  0  0  0  0  0  0  0  0  0  0  0
  1  2  2  0
  2  3  1  0
  2  4  1  0
  4  5  1  0
  5  6  1  0
  6  7  2  0
  7  8  1  0
  8  9  1  0
  9 10  2  0
 10 11  1  0
 11 12  2  0
 12 13  1  0
 13 14  2  0
  4 15  1  0
 15 16  1  0
 16 17  2  0
 16 18  2  0
 16 19  1  0
 19 20  2  0
 20 21  1  0
 21 22  2  0
 22 23  1  0
 23 24  2  0
 24 25  1  0
 25 26  1  0
 26 27  2  0
 14  6  1  0
 27 19  1  0
 14  9  1  0
 27 23  1  0
  3 28  1  0
  4 29  1  0
  5 30  1  0
  5 31  1  0
  7 32  1  0
  8 33  1  0
 10 34  1  0
 11 35  1  0
 12 36  1  0
 13 37  1  0
 15 38  1  0
 20 39  1  0
 21 40  1  0
 22 41  1  0
M  END
$$$$
