
     RDKit          3D

 36 37  0  0  0  0  0  0  0  0999 V2000
   -3.7476    2.5331   -1.9268 C   0  0  0  0  0  0  0  0  0  0  0  0
   -3.3427    1.2420   -1.4033 N   0  0  0  0  0  0  0  0  0  0  0  0
   -3.3425    0.1585   -2.2713 C   0  0  0  0  0  0  0  0  0  0  0  0
   -3.6748    0.2350   -3.4528 O   0  0  0  0  0  0  0  0  0  0  0  0
   -2.9046   -1.1362   -1.7068 C   0  0  0  0  0  0  0  0  0  0  0  0
   -2.9040   -2.3022   -2.5144 C   0  0  0  0  0  0  0  0  0  0  0  0
   -2.8892   -3.2928   -3.1196 N   0  0  0  0  0  0  0  0  0  0  0  0
   -2.5040   -1.1709   -0.4327 C   0  0  0  0  0  0  0  0  0  0  0  0
   -2.4843   -0.0506    0.3690 N   0  0  0  0  0  0  0  0  0  0  0  0
   -1.9268   -0.1470    1.7269 C   0  0  0  0  0  0  0  0  0  0  0  0
   -0.4217    0.1780    1.7765 C   0  0  0  0  0  0  0  0  0  0  0  0
    0.3486   -0.8876    1.1236 N   0  0  0  0  0  0  0  0  0  0  0  0
    1.7280   -0.6339    0.9876 C   0  0  0  0  0  0  0  0  0  0  0  0
    2.2080    0.5941    1.2869 N   0  0  0  0  0  0  0  0  0  0  0  0
    3.5278    0.8368    1.0988 C   0  0  0  0  0  0  0  0  0  0  0  0
    4.4300   -0.0996    0.6202 C   0  0  0  0  0  0  0  0  0  0  0  0
    5.8667    0.2701    0.4244 C   0  0  0  0  0  0  0  0  0  0  0  0
    6.3272    1.1289    1.3748 F   0  0  0  0  0  0  0  0  0  0  0  0
    6.7023   -0.8041    0.4580 F   0  0  0  0  0  0  0  0  0  0  0  0
    6.0858    0.8796   -0.7712 F   0  0  0  0  0  0  0  0  0  0  0  0
    3.9315   -1.3641    0.3009 C   0  0  0  0  0  0  0  0  0  0  0  0
    2.5753   -1.6347    0.4832 C   0  0  0  0  0  0  0  0  0  0  0  0
    1.9860   -3.2120    0.0951 Cl  0  0  0  0  0  0  0  0  0  0  0  0
   -2.8588    1.2081   -0.0976 C   0  0  0  0  0  0  0  0  0  0  0  0
   -2.7628    2.2166    0.6025 O   0  0  0  0  0  0  0  0  0  0  0  0
   -2.8498    3.0684   -2.2519 H   0  0  0  0  0  0  0  0  0  0  0  0
   -4.4262    2.4264   -2.7778 H   0  0  0  0  0  0  0  0  0  0  0  0
   -4.2474    3.1225   -1.1518 H   0  0  0  0  0  0  0  0  0  0  0  0
   -2.1548   -2.0971    0.0188 H   0  0  0  0  0  0  0  0  0  0  0  0
   -2.4616    0.5605    2.3720 H   0  0  0  0  0  0  0  0  0  0  0  0
   -2.1228   -1.1501    2.1260 H   0  0  0  0  0  0  0  0  0  0  0  0
   -0.2492    1.1428    1.2844 H   0  0  0  0  0  0  0  0  0  0  0  0
   -0.1130    0.2607    2.8256 H   0  0  0  0  0  0  0  0  0  0  0  0
    0.2362   -1.7933    1.5743 H   0  0  0  0  0  0  0  0  0  0  0  0
    3.8409    1.8477    1.3553 H   0  0  0  0  0  0  0  0  0  0  0  0
    4.5945   -2.1334   -0.0901 H   0  0  0  0  0  0  0  0  0  0  0  0
  1  2  1  0
  2  3  1  0
  3  4  2  0
  3  5  1  0
  5  6  1  0
  6  7  3  0
  5  8  2  0
  8  9  1  0
  9 10  1  0
 10 11  1  0
 11 12  1  0
 12 13  1  0
 13 14  2  0
 14 15  1  0
 15 16  2  0
 16 17  1  0
 17 18  1  0
 17 19  1  0
 17 20  1  0
 16 21  1  0
 21 22  2  0
 22 23  1  0
  9 24  1  0
 24 25  2  0
 24  2  1  0
 22 13  1  0
  1 26  1  0
  1 27  1  0
  1 28  1  0
  8 29  1  0
 10 30  1  0
 10 31  1  0
 11 32  1  0
 11 33  1  0
 12 34  1  0
 15 35  1  0
 21 36  1  0
M  END
$$$$
