
     RDKit          3D

 30 31  0  0  0  0  0  0  0  0999 V2000
    2.6814   -2.6299   -2.1119 C   0  0  0  0  0  0  0  0  0  0  0  0
    1.7886   -1.8453   -1.1699 C   0  0  0  0  0  0  0  0  0  0  0  0
    0.5064   -2.0674   -1.2826 N   0  0  0  0  0  0  0  0  0  0  0  0
   -0.3808   -1.2696   -0.6064 N   0  0  0  0  0  0  0  0  0  0  0  0
   -0.5016    0.0825   -0.9205 C   0  0  0  0  0  0  0  0  0  0  0  0
    0.3015    0.7137   -1.6043 O   0  0  0  0  0  0  0  0  0  0  0  0
   -1.6996    0.7883   -0.3663 C   0  0  0  0  0  0  0  0  0  0  0  0
   -1.6982    2.1918   -0.4298 C   0  0  0  0  0  0  0  0  0  0  0  0
   -2.7764    2.9198    0.0687 C   0  0  0  0  0  0  0  0  0  0  0  0
   -2.7600    4.6381   -0.0088 Cl  0  0  0  0  0  0  0  0  0  0  0  0
   -3.8698    2.2668    0.6330 C   0  0  0  0  0  0  0  0  0  0  0  0
   -3.8890    0.8730    0.6981 C   0  0  0  0  0  0  0  0  0  0  0  0
   -2.8093    0.1381    0.1990 C   0  0  0  0  0  0  0  0  0  0  0  0
   -2.8607   -1.2300    0.2611 O   0  0  0  0  0  0  0  0  0  0  0  0
    2.4311   -0.9709   -0.1925 C   0  0  0  0  0  0  0  0  0  0  0  0
    2.0739   -0.7341    1.1259 C   0  0  0  0  0  0  0  0  0  0  0  0
    2.9417    0.1936    1.7756 C   0  0  0  0  0  0  0  0  0  0  0  0
    3.9317    0.6163    0.9277 C   0  0  0  0  0  0  0  0  0  0  0  0
    5.2904    1.8618    1.4326 Br  0  0  0  0  0  0  0  0  0  0  0  0
    3.8409   -0.0809   -0.6107 S   0  0  0  0  0  0  0  0  0  0  0  0
    3.0485   -1.9717   -2.9046 H   0  0  0  0  0  0  0  0  0  0  0  0
    3.5287   -3.0573   -1.5679 H   0  0  0  0  0  0  0  0  0  0  0  0
    2.1201   -3.4472   -2.5754 H   0  0  0  0  0  0  0  0  0  0  0  0
   -1.2626   -1.7295   -0.3765 H   0  0  0  0  0  0  0  0  0  0  0  0
   -0.8506    2.7164   -0.8680 H   0  0  0  0  0  0  0  0  0  0  0  0
   -4.7097    2.8384    1.0207 H   0  0  0  0  0  0  0  0  0  0  0  0
   -4.7526    0.3820    1.1385 H   0  0  0  0  0  0  0  0  0  0  0  0
   -3.7236   -1.5018    0.6240 H   0  0  0  0  0  0  0  0  0  0  0  0
    1.2240   -1.2069    1.6029 H   0  0  0  0  0  0  0  0  0  0  0  0
    2.8354    0.5219    2.8018 H   0  0  0  0  0  0  0  0  0  0  0  0
  1  2  1  0
  2  3  2  3
  3  4  1  0
  4  5  1  0
  5  6  2  0
  5  7  1  0
  7  8  2  0
  8  9  1  0
  9 10  1  0
  9 11  2  0
 11 12  1  0
 12 13  2  0
 13 14  1  0
  2 15  1  0
 15 16  2  0
 16 17  1  0
 17 18  2  0
 18 19  1  0
 18 20  1  0
 13  7  1  0
 20 15  1  0
  1 21  1  0
  1 22  1  0
  1 23  1  0
  4 24  1  0
  8 25  1  0
 11 26  1  0
 12 27  1  0
 14 28  1  0
 16 29  1  0
 17 30  1  0
M  END
$$$$
