
     RDKit          3D

 66 70  0  0  0  0  0  0  0  0999 V2000
    4.0124   -1.2017    0.1451 C   0  0  0  0  0  0  0  0  0  0  0  0
    3.5339   -0.0266    0.9186 C   0  0  0  0  0  0  0  0  0  0  0  0
    2.3036    0.6039    0.8344 C   0  0  0  0  0  0  0  0  0  0  0  0
    1.1246    0.3005   -0.0446 C   0  0  0  0  0  0  0  0  0  0  0  0
    0.1904   -0.7265    0.5921 C   0  0  0  0  0  0  0  0  0  0  0  0
   -0.8649   -1.0216   -0.3293 O   0  0  0  0  0  0  0  0  0  0  0  0
   -1.7416   -1.9591    0.1323 C   0  0  0  0  0  0  0  0  0  0  0  0
   -1.6417   -2.5255    1.2115 O   0  0  0  0  0  0  0  0  0  0  0  0
   -2.8495   -2.2015   -0.8644 C   0  0  0  0  0  0  0  0  0  0  0  0
   -4.0979   -1.3197   -0.6677 C   0  0  0  0  0  0  0  0  0  0  0  0
   -5.1566   -1.7295   -1.7263 C   0  0  0  0  0  0  0  0  0  0  0  0
   -6.4326   -0.8870   -1.5831 C   0  0  0  0  0  0  0  0  0  0  0  0
   -7.0201   -1.0929   -0.1796 C   0  0  0  0  0  0  0  0  0  0  0  0
   -5.9986   -0.6641    0.8836 C   0  0  0  0  0  0  0  0  0  0  0  0
   -5.6506    0.8202    0.6845 C   0  0  0  0  0  0  0  0  0  0  0  0
   -5.0524    1.0497   -0.7223 C   0  0  0  0  0  0  0  0  0  0  0  0
   -4.7122    2.5303   -0.9182 C   0  0  0  0  0  0  0  0  0  0  0  0
   -6.0834    0.5959   -1.7796 C   0  0  0  0  0  0  0  0  0  0  0  0
   -3.7769    0.1840   -0.8641 C   0  0  0  0  0  0  0  0  0  0  0  0
   -4.7220   -1.5096    0.7372 C   0  0  0  0  0  0  0  0  0  0  0  0
    2.2288    1.9037    1.9547 S   0  0  0  0  0  0  0  0  0  0  0  0
    3.8123    1.5923    2.5113 C   0  0  0  0  0  0  0  0  0  0  0  0
    4.3634    0.5799    1.8621 N   0  0  0  0  0  4  0  0  0  0  0  0
    5.7333    0.1523    2.1844 C   0  0  0  0  0  0  0  0  0  0  0  0
    6.6956    0.5449    1.0830 C   0  0  0  0  0  0  0  0  0  0  0  0
    6.8146    1.8808    0.6584 C   0  0  0  0  0  0  0  0  0  0  0  0
    7.7196    2.2332   -0.3494 C   0  0  0  0  0  0  0  0  0  0  0  0
    8.5211    1.2480   -0.9381 C   0  0  0  0  0  0  0  0  0  0  0  0
    9.4689    1.6150   -1.9991 N   0  0  0  0  0  4  0  0  0  0  0  0
   10.0486    0.6940   -2.5897 O   0  0  0  0  0  0  0  0  0  0  0  0
    9.6201    2.8209   -2.2375 O   0  0  0  0  0  1  0  0  0  0  0  0
    8.4254   -0.0843   -0.5185 C   0  0  0  0  0  0  0  0  0  0  0  0
    7.5218   -0.4289    0.4927 C   0  0  0  0  0  0  0  0  0  0  0  0
    3.1863   -1.6957   -0.3773 H   0  0  0  0  0  0  0  0  0  0  0  0
    4.4655   -1.9541    0.7985 H   0  0  0  0  0  0  0  0  0  0  0  0
    4.7414   -0.8961   -0.6116 H   0  0  0  0  0  0  0  0  0  0  0  0
    1.4723   -0.0733   -1.0167 H   0  0  0  0  0  0  0  0  0  0  0  0
    0.5615    1.2143   -0.2773 H   0  0  0  0  0  0  0  0  0  0  0  0
    0.7442   -1.6459    0.8188 H   0  0  0  0  0  0  0  0  0  0  0  0
   -0.2359   -0.3267    1.5205 H   0  0  0  0  0  0  0  0  0  0  0  0
   -2.4385   -2.0744   -1.8744 H   0  0  0  0  0  0  0  0  0  0  0  0
   -3.1148   -3.2644   -0.7909 H   0  0  0  0  0  0  0  0  0  0  0  0
   -5.4069   -2.7929   -1.6181 H   0  0  0  0  0  0  0  0  0  0  0  0
   -4.7475   -1.6057   -2.7375 H   0  0  0  0  0  0  0  0  0  0  0  0
   -7.1645   -1.1964   -2.3374 H   0  0  0  0  0  0  0  0  0  0  0  0
   -7.2905   -2.1466   -0.0370 H   0  0  0  0  0  0  0  0  0  0  0  0
   -7.9429   -0.5103   -0.0702 H   0  0  0  0  0  0  0  0  0  0  0  0
   -6.4238   -0.8102    1.8828 H   0  0  0  0  0  0  0  0  0  0  0  0
   -4.9387    1.1390    1.4566 H   0  0  0  0  0  0  0  0  0  0  0  0
   -6.5531    1.4301    0.8183 H   0  0  0  0  0  0  0  0  0  0  0  0
   -5.6049    3.1578   -0.8172 H   0  0  0  0  0  0  0  0  0  0  0  0
   -3.9797    2.8696   -0.1770 H   0  0  0  0  0  0  0  0  0  0  0  0
   -4.2887    2.7098   -1.9130 H   0  0  0  0  0  0  0  0  0  0  0  0
   -6.9953    1.2024   -1.7058 H   0  0  0  0  0  0  0  0  0  0  0  0
   -5.6846    0.7499   -2.7903 H   0  0  0  0  0  0  0  0  0  0  0  0
   -3.0365    0.5132   -0.1242 H   0  0  0  0  0  0  0  0  0  0  0  0
   -3.3252    0.3421   -1.8524 H   0  0  0  0  0  0  0  0  0  0  0  0
   -4.0110   -1.2159    1.5190 H   0  0  0  0  0  0  0  0  0  0  0  0
   -4.9589   -2.5681    0.9058 H   0  0  0  0  0  0  0  0  0  0  0  0
    4.2915    2.1712    3.2921 H   0  0  0  0  0  0  0  0  0  0  0  0
    5.7321   -0.9299    2.3555 H   0  0  0  0  0  0  0  0  0  0  0  0
    6.0636    0.6136    3.1237 H   0  0  0  0  0  0  0  0  0  0  0  0
    6.2177    2.6752    1.1040 H   0  0  0  0  0  0  0  0  0  0  0  0
    7.7947    3.2763   -0.6603 H   0  0  0  0  0  0  0  0  0  0  0  0
    9.0529   -0.8579   -0.9612 H   0  0  0  0  0  0  0  0  0  0  0  0
    7.4810   -1.4711    0.8111 H   0  0  0  0  0  0  0  0  0  0  0  0
  1  2  1  0
  2  3  2  0
  3  4  1  0
  4  5  1  0
  5  6  1  0
  6  7  1  0
  7  8  2  0
  7  9  1  0
  9 10  1  0
 10 11  1  0
 11 12  1  0
 12 13  1  0
 13 14  1  0
 14 15  1  0
 15 16  1  0
 16 17  1  0
 16 18  1  0
 16 19  1  0
 14 20  1  0
  3 21  1  0
 21 22  1  0
 22 23  2  0
 23 24  1  0
 24 25  1  0
 25 26  2  0
 26 27  1  0
 27 28  2  0
 28 29  1  0
 29 30  2  0
 29 31  1  0
 28 32  1  0
 32 33  2  0
 23  2  1  0
 33 25  1  0
 19 10  1  0
 20 10  1  0
 18 12  1  0
  1 34  1  0
  1 35  1  0
  1 36  1  0
  4 37  1  0
  4 38  1  0
  5 39  1  0
  5 40  1  0
  9 41  1  0
  9 42  1  0
 11 43  1  0
 11 44  1  0
 12 45  1  0
 13 46  1  0
 13 47  1  0
 14 48  1  0
 15 49  1  0
 15 50  1  0
 17 51  1  0
 17 52  1  0
 17 53  1  0
 18 54  1  0
 18 55  1  0
 19 56  1  0
 19 57  1  0
 20 58  1  0
 20 59  1  0
 22 60  1  0
 24 61  1  0
 24 62  1  0
 26 63  1  0
 27 64  1  0
 32 65  1  0
 33 66  1  0
M  CHG  3  23   1  29   1  31  -1
M  END
$$$$
