
     RDKit          3D

 59 62  0  0  0  0  0  0  0  0999 V2000
    8.3851    2.2766   -4.2318 C   0  0  0  0  0  0  0  0  0  0  0  0
    7.4489    1.1338   -3.9688 C   0  0  0  0  0  0  0  0  0  0  0  0
    7.0697    0.2679   -5.0013 C   0  0  0  0  0  0  0  0  0  0  0  0
    6.1764   -0.7792   -4.7575 C   0  0  0  0  0  0  0  0  0  0  0  0
    5.6442   -0.9757   -3.4759 C   0  0  0  0  0  0  0  0  0  0  0  0
    4.6647   -2.0889   -3.2071 C   0  0  0  0  0  0  0  0  0  0  0  0
    3.3042   -1.6083   -3.2937 N   0  0  0  0  0  0  0  0  0  0  0  0
    2.5876   -1.2576   -2.1702 C   0  0  0  0  0  0  0  0  0  0  0  0
    2.9919   -1.4258   -1.0257 O   0  0  0  0  0  0  0  0  0  0  0  0
    1.2386   -0.6509   -2.5065 C   0  0  0  0  0  0  0  0  0  0  0  0
    0.4122   -0.2683   -1.2810 C   0  0  0  0  0  0  0  0  0  0  0  0
   -0.1148   -1.4862   -0.5177 C   0  0  0  0  0  0  0  0  0  0  0  0
   -1.0782   -1.0927    0.5067 N   0  0  0  0  0  0  0  0  0  0  0  0
   -0.5391   -0.7983    1.7630 N   0  0  0  0  0  0  0  0  0  0  0  0
   -1.2964   -0.3943    2.7435 C   0  0  0  0  0  0  0  0  0  0  0  0
   -0.6515   -0.0944    4.0664 C   0  0  0  0  0  0  0  0  0  0  0  0
   -2.7150   -0.2484    2.5283 C   0  0  0  0  0  0  0  0  0  0  0  0
   -3.7863    0.0762    3.3437 C   0  0  0  0  0  0  0  0  0  0  0  0
   -3.8408    0.2520    4.8180 C   0  0  0  0  0  0  0  0  0  0  0  0
   -4.8925    0.1538    2.4879 N   0  0  0  0  0  0  0  0  0  0  0  0
   -6.2128    0.6531    2.7163 C   0  0  0  0  0  0  0  0  0  0  0  0
   -7.2330    0.3092    1.8126 C   0  0  0  0  0  0  0  0  0  0  0  0
   -8.5351    0.7812    1.9939 C   0  0  0  0  0  0  0  0  0  0  0  0
   -8.8309    1.6129    3.0698 C   0  0  0  0  0  0  0  0  0  0  0  0
   -7.8227    1.9829    3.9564 C   0  0  0  0  0  0  0  0  0  0  0  0
   -6.5165    1.5125    3.7795 C   0  0  0  0  0  0  0  0  0  0  0  0
   -4.5871   -0.3345    1.2544 N   0  0  0  0  0  0  0  0  0  0  0  0
   -3.2637   -0.5095    1.2685 C   0  0  0  0  0  0  0  0  0  0  0  0
   -2.4360   -0.9468    0.1517 C   0  0  0  0  0  0  0  0  0  0  0  0
   -2.8708   -1.1617   -0.9779 O   0  0  0  0  0  0  0  0  0  0  0  0
    6.0068   -0.0927   -2.4495 C   0  0  0  0  0  0  0  0  0  0  0  0
    6.8999    0.9530   -2.6941 C   0  0  0  0  0  0  0  0  0  0  0  0
    7.8161    3.1973   -4.3990 H   0  0  0  0  0  0  0  0  0  0  0  0
    9.0060    2.0836   -5.1132 H   0  0  0  0  0  0  0  0  0  0  0  0
    9.0617    2.4241   -3.3824 H   0  0  0  0  0  0  0  0  0  0  0  0
    7.4691    0.4031   -6.0040 H   0  0  0  0  0  0  0  0  0  0  0  0
    5.9008   -1.4402   -5.5762 H   0  0  0  0  0  0  0  0  0  0  0  0
    4.7767   -2.8834   -3.9536 H   0  0  0  0  0  0  0  0  0  0  0  0
    4.8581   -2.5375   -2.2258 H   0  0  0  0  0  0  0  0  0  0  0  0
    2.9916   -1.2683   -4.1929 H   0  0  0  0  0  0  0  0  0  0  0  0
    0.6809   -1.3547   -3.1354 H   0  0  0  0  0  0  0  0  0  0  0  0
    1.4250    0.2533   -3.0988 H   0  0  0  0  0  0  0  0  0  0  0  0
    0.9989    0.3656   -0.6048 H   0  0  0  0  0  0  0  0  0  0  0  0
   -0.4349    0.3417   -1.6186 H   0  0  0  0  0  0  0  0  0  0  0  0
   -0.6061   -2.1800   -1.2100 H   0  0  0  0  0  0  0  0  0  0  0  0
    0.6972   -2.0356   -0.0294 H   0  0  0  0  0  0  0  0  0  0  0  0
    0.4353   -0.0349    3.9545 H   0  0  0  0  0  0  0  0  0  0  0  0
   -1.0127    0.8603    4.4567 H   0  0  0  0  0  0  0  0  0  0  0  0
   -0.8837   -0.8944    4.7744 H   0  0  0  0  0  0  0  0  0  0  0  0
   -3.6399    1.2924    5.0922 H   0  0  0  0  0  0  0  0  0  0  0  0
   -4.8048   -0.0581    5.2330 H   0  0  0  0  0  0  0  0  0  0  0  0
   -3.0938   -0.3756    5.3140 H   0  0  0  0  0  0  0  0  0  0  0  0
   -7.0302   -0.3401    0.9615 H   0  0  0  0  0  0  0  0  0  0  0  0
   -9.3148    0.4981    1.2921 H   0  0  0  0  0  0  0  0  0  0  0  0
   -9.8430    1.9835    3.2089 H   0  0  0  0  0  0  0  0  0  0  0  0
   -8.0497    2.6553    4.7809 H   0  0  0  0  0  0  0  0  0  0  0  0
   -5.7606    1.8822    4.4624 H   0  0  0  0  0  0  0  0  0  0  0  0
    5.5868   -0.2149   -1.4508 H   0  0  0  0  0  0  0  0  0  0  0  0
    7.1627    1.6265   -1.8811 H   0  0  0  0  0  0  0  0  0  0  0  0
  1  2  1  0
  2  3  2  0
  3  4  1  0
  4  5  2  0
  5  6  1  0
  6  7  1  0
  7  8  1  0
  8  9  2  0
  8 10  1  0
 10 11  1  0
 11 12  1  0
 12 13  1  0
 13 14  1  0
 14 15  2  0
 15 16  1  0
 15 17  1  0
 17 18  2  0
 18 19  1  0
 18 20  1  0
 20 21  1  0
 21 22  2  0
 22 23  1  0
 23 24  2  0
 24 25  1  0
 25 26  2  0
 20 27  1  0
 27 28  2  0
 28 29  1  0
 29 30  2  0
  5 31  1  0
 31 32  2  0
 32  2  1  0
 29 13  1  0
 28 17  1  0
 26 21  1  0
  1 33  1  0
  1 34  1  0
  1 35  1  0
  3 36  1  0
  4 37  1  0
  6 38  1  0
  6 39  1  0
  7 40  1  0
 10 41  1  0
 10 42  1  0
 11 43  1  0
 11 44  1  0
 12 45  1  0
 12 46  1  0
 16 47  1  0
 16 48  1  0
 16 49  1  0
 19 50  1  0
 19 51  1  0
 19 52  1  0
 22 53  1  0
 23 54  1  0
 24 55  1  0
 25 56  1  0
 26 57  1  0
 31 58  1  0
 32 59  1  0
M  END
$$$$
