
     RDKit          3D

 45 47  0  0  0  0  0  0  0  0999 V2000
   -5.8507    1.1993    1.2271 C   0  0  0  0  0  0  0  0  0  0  0  0
   -5.3196    0.5539   -0.0192 C   0  0  0  0  0  0  0  0  0  0  0  0
   -6.1730   -0.1656   -0.8631 C   0  0  0  0  0  0  0  0  0  0  0  0
   -5.6745   -0.7838   -2.0090 C   0  0  0  0  0  0  0  0  0  0  0  0
   -4.3163   -0.7035   -2.3134 C   0  0  0  0  0  0  0  0  0  0  0  0
   -3.4397   -0.0067   -1.4710 C   0  0  0  0  0  0  0  0  0  0  0  0
   -1.9692    0.0668   -1.7927 C   0  0  0  0  0  0  0  0  0  0  0  0
   -1.6385    1.5385   -2.7671 S   0  0  0  0  0  6  0  0  0  0  0  0
   -2.4466    1.4925   -3.9767 O   0  0  0  0  0  0  0  0  0  0  0  0
   -1.6923    2.7075   -1.9040 O   0  0  0  0  0  0  0  0  0  0  0  0
    0.0484    1.3251   -3.3085 C   0  0  0  0  0  0  0  0  0  0  0  0
    0.9527    1.2305   -2.1448 C   0  0  0  0  0  0  0  0  0  0  0  0
    1.7105    2.1462   -1.4504 C   0  0  0  0  0  0  0  0  0  0  0  0
    2.3803    1.4191   -0.4352 C   0  0  0  0  0  0  0  0  0  0  0  0
    1.9945    0.0959   -0.5635 C   0  0  0  0  0  0  0  0  0  0  0  0
    2.3166   -1.1102    0.1760 C   0  0  0  0  0  0  0  0  0  0  0  0
    1.7024   -2.1666    0.0536 O   0  0  0  0  0  0  0  0  0  0  0  0
    3.3877   -0.9941    1.0364 N   0  0  0  0  0  0  0  0  0  0  0  0
    3.9119   -2.1602    1.7058 C   0  0  0  0  0  0  0  0  0  0  0  0
    4.9524   -1.7180    2.6636 C   0  0  0  0  0  0  0  0  0  0  0  0
    5.0359   -1.7079    4.0407 C   0  0  0  0  0  0  0  0  0  0  0  0
    6.2929   -1.1403    4.3605 C   0  0  0  0  0  0  0  0  0  0  0  0
    6.8951   -0.8423    3.1600 C   0  0  0  0  0  0  0  0  0  0  0  0
    6.0884   -1.1842    2.1235 O   0  0  0  0  0  0  0  0  0  0  0  0
    1.1258   -0.0119   -1.6180 O   0  0  0  0  0  0  0  0  0  0  0  0
   -3.9531    0.6198   -0.3246 C   0  0  0  0  0  0  0  0  0  0  0  0
   -6.8976    1.4937    1.1001 H   0  0  0  0  0  0  0  0  0  0  0  0
   -5.2858    2.1066    1.4693 H   0  0  0  0  0  0  0  0  0  0  0  0
   -5.7798    0.5022    2.0678 H   0  0  0  0  0  0  0  0  0  0  0  0
   -7.2342   -0.2412   -0.6372 H   0  0  0  0  0  0  0  0  0  0  0  0
   -6.3461   -1.3268   -2.6686 H   0  0  0  0  0  0  0  0  0  0  0  0
   -3.9491   -1.1843   -3.2187 H   0  0  0  0  0  0  0  0  0  0  0  0
   -1.3806    0.1135   -0.8724 H   0  0  0  0  0  0  0  0  0  0  0  0
   -1.6532   -0.8042   -2.3757 H   0  0  0  0  0  0  0  0  0  0  0  0
    0.0891    0.4242   -3.9283 H   0  0  0  0  0  0  0  0  0  0  0  0
    0.2984    2.1879   -3.9334 H   0  0  0  0  0  0  0  0  0  0  0  0
    1.7657    3.2096   -1.6450 H   0  0  0  0  0  0  0  0  0  0  0  0
    3.0484    1.8223    0.3131 H   0  0  0  0  0  0  0  0  0  0  0  0
    4.0188   -0.2136    0.9237 H   0  0  0  0  0  0  0  0  0  0  0  0
    3.0957   -2.6823    2.2150 H   0  0  0  0  0  0  0  0  0  0  0  0
    4.3370   -2.8319    0.9520 H   0  0  0  0  0  0  0  0  0  0  0  0
    4.2806   -2.0679    4.7262 H   0  0  0  0  0  0  0  0  0  0  0  0
    6.7092   -0.9722    5.3434 H   0  0  0  0  0  0  0  0  0  0  0  0
    7.8466   -0.4083    2.8863 H   0  0  0  0  0  0  0  0  0  0  0  0
   -3.2850    1.1725    0.3344 H   0  0  0  0  0  0  0  0  0  0  0  0
  1  2  1  0
  2  3  2  0
  3  4  1  0
  4  5  2  0
  5  6  1  0
  6  7  1  0
  7  8  1  0
  8  9  2  0
  8 10  2  0
  8 11  1  0
 11 12  1  0
 12 13  2  0
 13 14  1  0
 14 15  2  0
 15 16  1  0
 16 17  2  0
 16 18  1  0
 18 19  1  0
 19 20  1  0
 20 21  2  0
 21 22  1  0
 22 23  2  0
 23 24  1  0
 15 25  1  0
  6 26  2  0
 26  2  1  0
 25 12  1  0
 24 20  1  0
  1 27  1  0
  1 28  1  0
  1 29  1  0
  3 30  1  0
  4 31  1  0
  5 32  1  0
  7 33  1  0
  7 34  1  0
 11 35  1  0
 11 36  1  0
 13 37  1  0
 14 38  1  0
 18 39  1  0
 19 40  1  0
 19 41  1  0
 21 42  1  0
 22 43  1  0
 23 44  1  0
 26 45  1  0
M  END
$$$$
