
     RDKit          3D

 57 61  0  0  0  0  0  0  0  0999 V2000
    7.1369    1.7031    1.8404 C   0  0  0  0  0  0  0  0  0  0  0  0
    6.2457    0.5898    1.3731 C   0  0  0  0  0  0  0  0  0  0  0  0
    5.5149    0.7152    0.1864 C   0  0  0  0  0  0  0  0  0  0  0  0
    4.7101   -0.3332   -0.2648 C   0  0  0  0  0  0  0  0  0  0  0  0
    4.6376   -1.5343    0.4536 C   0  0  0  0  0  0  0  0  0  0  0  0
    3.7640   -2.6648   -0.0267 C   0  0  0  0  0  0  0  0  0  0  0  0
    2.4649   -2.6408    0.6118 N   0  0  0  0  0  0  0  0  0  0  0  0
    2.2158   -3.3914    1.7152 N   0  0  0  0  0  0  0  0  0  0  0  0
    0.9425   -3.1969    2.0595 N   0  0  0  0  0  0  0  0  0  0  0  0
    0.4045   -2.3386    1.1504 C   0  0  0  0  0  0  0  0  0  0  0  0
   -0.9226   -1.7977    1.0338 C   0  0  0  0  0  0  0  0  0  0  0  0
   -1.8595   -2.0131    1.7948 O   0  0  0  0  0  0  0  0  0  0  0  0
   -1.0463   -0.9661   -0.0704 N   0  0  0  0  0  0  0  0  0  0  0  0
   -0.0172   -0.6671   -0.9529 C   0  0  0  0  0  0  0  0  0  0  0  0
   -0.3576    0.2781   -2.1027 C   0  0  0  0  0  0  0  0  0  0  0  0
   -1.0142    1.5775   -1.6093 C   0  0  0  0  0  0  0  0  0  0  0  0
   -2.5239    1.6189   -1.8491 C   0  0  0  0  0  0  0  0  0  0  0  0
   -3.0833    0.2553   -1.6394 N   0  0  0  0  0  0  0  0  0  0  0  0
   -4.8018    0.2175   -1.4238 S   0  0  0  0  0  6  0  0  0  0  0  0
   -5.3760    1.0748   -2.4390 O   0  0  0  0  0  0  0  0  0  0  0  0
   -5.1895   -1.1686   -1.2893 O   0  0  0  0  0  0  0  0  0  0  0  0
   -5.0053    0.9854    0.1642 C   0  0  0  0  0  0  0  0  0  0  0  0
   -5.5879    2.2546    0.2605 C   0  0  0  0  0  0  0  0  0  0  0  0
   -5.7490    2.8383    1.5178 C   0  0  0  0  0  0  0  0  0  0  0  0
   -5.3358    2.1498    2.6556 C   0  0  0  0  0  0  0  0  0  0  0  0
   -5.4923    2.7172    3.8581 F   0  0  0  0  0  0  0  0  0  0  0  0
   -4.7686    0.8813    2.5644 C   0  0  0  0  0  0  0  0  0  0  0  0
   -4.6073    0.2878    1.3122 C   0  0  0  0  0  0  0  0  0  0  0  0
   -2.6545   -0.6827   -2.7315 C   0  0  0  0  0  0  0  0  0  0  0  0
   -1.2087   -0.4241   -3.1624 C   0  0  0  0  0  0  0  0  0  0  0  0
    1.1898   -1.1544   -0.8581 N   0  0  0  0  0  0  0  0  0  0  0  0
    1.3406   -1.9771    0.2108 C   0  0  0  0  0  0  0  0  0  0  0  0
    5.3746   -1.6600    1.6392 C   0  0  0  0  0  0  0  0  0  0  0  0
    6.1767   -0.6098    2.0902 C   0  0  0  0  0  0  0  0  0  0  0  0
    8.1435    1.5742    1.4301 H   0  0  0  0  0  0  0  0  0  0  0  0
    7.1996    1.7204    2.9331 H   0  0  0  0  0  0  0  0  0  0  0  0
    6.7481    2.6759    1.5224 H   0  0  0  0  0  0  0  0  0  0  0  0
    5.5648    1.6338   -0.3944 H   0  0  0  0  0  0  0  0  0  0  0  0
    4.1380   -0.2047   -1.1815 H   0  0  0  0  0  0  0  0  0  0  0  0
    4.2325   -3.6337    0.1818 H   0  0  0  0  0  0  0  0  0  0  0  0
    3.6116   -2.6141   -1.1115 H   0  0  0  0  0  0  0  0  0  0  0  0
   -1.9694   -0.5735   -0.2243 H   0  0  0  0  0  0  0  0  0  0  0  0
    0.6032    0.5467   -2.5632 H   0  0  0  0  0  0  0  0  0  0  0  0
   -0.8019    1.7398   -0.5450 H   0  0  0  0  0  0  0  0  0  0  0  0
   -0.5681    2.4316   -2.1327 H   0  0  0  0  0  0  0  0  0  0  0  0
   -2.7365    1.9568   -2.8715 H   0  0  0  0  0  0  0  0  0  0  0  0
   -2.9652    2.3443   -1.1600 H   0  0  0  0  0  0  0  0  0  0  0  0
   -5.9185    2.7880   -0.6270 H   0  0  0  0  0  0  0  0  0  0  0  0
   -6.1987    3.8218    1.6207 H   0  0  0  0  0  0  0  0  0  0  0  0
   -4.4624    0.3593    3.4666 H   0  0  0  0  0  0  0  0  0  0  0  0
   -4.1868   -0.7138    1.2437 H   0  0  0  0  0  0  0  0  0  0  0  0
   -3.3135   -0.5969   -3.6045 H   0  0  0  0  0  0  0  0  0  0  0  0
   -2.7347   -1.7064   -2.3460 H   0  0  0  0  0  0  0  0  0  0  0  0
   -0.7473   -1.3706   -3.4696 H   0  0  0  0  0  0  0  0  0  0  0  0
   -1.2251    0.2081   -4.0608 H   0  0  0  0  0  0  0  0  0  0  0  0
    5.3254   -2.5780    2.2242 H   0  0  0  0  0  0  0  0  0  0  0  0
    6.7443   -0.7329    3.0105 H   0  0  0  0  0  0  0  0  0  0  0  0
  1  2  1  0
  2  3  2  0
  3  4  1  0
  4  5  2  0
  5  6  1  0
  6  7  1  0
  7  8  1  0
  8  9  2  0
  9 10  1  0
 10 11  1  0
 11 12  2  0
 11 13  1  0
 13 14  1  0
 14 15  1  0
 15 16  1  0
 16 17  1  0
 17 18  1  0
 18 19  1  0
 19 20  2  0
 19 21  2  0
 19 22  1  0
 22 23  2  0
 23 24  1  0
 24 25  2  0
 25 26  1  0
 25 27  1  0
 27 28  2  0
 18 29  1  0
 29 30  1  0
 14 31  2  0
 31 32  1  0
  5 33  1  0
 33 34  2  0
 34  2  1  0
 32  7  1  0
 32 10  2  0
 30 15  1  0
 28 22  1  0
  1 35  1  0
  1 36  1  0
  1 37  1  0
  3 38  1  0
  4 39  1  0
  6 40  1  0
  6 41  1  0
 13 42  1  0
 15 43  1  0
 16 44  1  0
 16 45  1  0
 17 46  1  0
 17 47  1  0
 23 48  1  0
 24 49  1  0
 27 50  1  0
 28 51  1  0
 29 52  1  0
 29 53  1  0
 30 54  1  0
 30 55  1  0
 33 56  1  0
 34 57  1  0
M  END
$$$$
