
     RDKit          3D

 69 73  0  0  0  0  0  0  0  0999 V2000
   -3.3884    4.2639    3.9425 C   0  0  0  0  0  0  0  0  0  0  0  0
   -2.7104    3.6454    2.7561 C   0  0  0  0  0  0  0  0  0  0  0  0
   -3.3695    3.5972    1.5223 C   0  0  0  0  0  0  0  0  0  0  0  0
   -2.7540    3.0128    0.4133 C   0  0  0  0  0  0  0  0  0  0  0  0
   -1.4661    2.4677    0.5155 C   0  0  0  0  0  0  0  0  0  0  0  0
   -0.8062    1.8201   -0.6856 C   0  0  0  0  0  0  0  0  0  0  0  0
   -1.1074    0.3926   -0.7789 N   0  0  0  0  0  0  0  0  0  0  0  0
   -2.3101    0.0427   -1.4087 C   0  0  0  0  0  0  0  0  0  0  0  0
   -2.9339    0.8278   -2.1281 O   0  0  0  0  0  0  0  0  0  0  0  0
   -2.7546   -1.4267   -1.2485 C   0  0  0  0  0  0  0  0  0  0  0  0
   -4.2621   -1.6224   -1.5009 C   0  0  0  0  0  0  0  0  0  0  0  0
   -5.2457   -0.7576   -0.6740 C   0  0  0  0  0  0  0  0  0  0  0  0
   -5.1455   -0.9755    0.8351 C   0  0  0  0  0  0  0  0  0  0  0  0
   -6.6805   -1.0444   -1.1351 C   0  0  0  0  0  0  0  0  0  0  0  0
   -2.3903   -1.9721    0.0520 N   0  0  0  0  0  0  0  0  0  0  0  0
   -1.0632   -1.7451    0.4069 C   0  0  0  0  0  0  0  0  0  0  0  0
   -0.5243   -2.6934    1.1849 N   0  0  0  0  0  0  0  0  0  0  0  0
    0.7172   -2.4584    1.6047 C   0  0  0  0  0  0  0  0  0  0  0  0
    1.4763   -1.4109    1.2667 N   0  0  0  0  0  0  0  0  0  0  0  0
    0.9440   -0.4911    0.4345 C   0  0  0  0  0  0  0  0  0  0  0  0
    1.8186    0.4946   -0.0578 N   0  0  0  0  0  0  0  0  0  0  0  0
    3.0229    0.7604    0.7714 C   0  0  0  0  0  0  0  0  0  0  0  0
    4.1954   -0.2239    0.5303 C   0  0  0  0  0  0  0  0  0  0  0  0
    4.4864   -0.3725   -0.9218 N   0  0  0  0  0  0  0  0  0  0  0  0
    5.6730   -1.0824   -1.1727 C   0  0  0  0  0  0  0  0  0  0  0  0
    5.7132   -2.3303   -1.8124 C   0  0  0  0  0  0  0  0  0  0  0  0
    6.9248   -2.9910   -2.0483 C   0  0  0  0  0  0  0  0  0  0  0  0
    8.1262   -2.4119   -1.6505 C   0  0  0  0  0  0  0  0  0  0  0  0
    8.1160   -1.1708   -1.0254 C   0  0  0  0  0  0  0  0  0  0  0  0
    6.9019   -0.5162   -0.7938 C   0  0  0  0  0  0  0  0  0  0  0  0
    3.2822   -0.7543   -1.6893 C   0  0  0  0  0  0  0  0  0  0  0  0
    2.1677    0.2966   -1.4910 C   0  0  0  0  0  0  0  0  0  0  0  0
   -0.3948   -0.5793    0.0141 C   0  0  0  0  0  0  0  0  0  0  0  0
   -0.8134    2.5091    1.7545 C   0  0  0  0  0  0  0  0  0  0  0  0
   -1.4301    3.0911    2.8649 C   0  0  0  0  0  0  0  0  0  0  0  0
   -2.7129    4.3290    4.8024 H   0  0  0  0  0  0  0  0  0  0  0  0
   -3.7193    5.2801    3.7018 H   0  0  0  0  0  0  0  0  0  0  0  0
   -4.2553    3.6628    4.2355 H   0  0  0  0  0  0  0  0  0  0  0  0
   -4.3699    4.0119    1.4168 H   0  0  0  0  0  0  0  0  0  0  0  0
   -3.2895    2.9806   -0.5346 H   0  0  0  0  0  0  0  0  0  0  0  0
    0.2595    2.0398   -0.6836 H   0  0  0  0  0  0  0  0  0  0  0  0
   -1.1694    2.3213   -1.5928 H   0  0  0  0  0  0  0  0  0  0  0  0
   -2.2189   -1.9934   -2.0237 H   0  0  0  0  0  0  0  0  0  0  0  0
   -4.4492   -1.4156   -2.5642 H   0  0  0  0  0  0  0  0  0  0  0  0
   -4.5100   -2.6826   -1.3517 H   0  0  0  0  0  0  0  0  0  0  0  0
   -5.0530    0.3034   -0.8708 H   0  0  0  0  0  0  0  0  0  0  0  0
   -4.2152   -0.5639    1.2350 H   0  0  0  0  0  0  0  0  0  0  0  0
   -5.1993   -2.0389    1.0904 H   0  0  0  0  0  0  0  0  0  0  0  0
   -5.9619   -0.4650    1.3573 H   0  0  0  0  0  0  0  0  0  0  0  0
   -6.9633   -2.0828   -0.9317 H   0  0  0  0  0  0  0  0  0  0  0  0
   -6.7861   -0.8685   -2.2107 H   0  0  0  0  0  0  0  0  0  0  0  0
   -7.3940   -0.3916   -0.6210 H   0  0  0  0  0  0  0  0  0  0  0  0
   -2.6296   -2.9388    0.2451 H   0  0  0  0  0  0  0  0  0  0  0  0
    1.1598   -3.1926    2.2698 H   0  0  0  0  0  0  0  0  0  0  0  0
    2.7665    0.7973    1.8384 H   0  0  0  0  0  0  0  0  0  0  0  0
    3.3681    1.7710    0.5138 H   0  0  0  0  0  0  0  0  0  0  0  0
    5.0655    0.1691    1.0695 H   0  0  0  0  0  0  0  0  0  0  0  0
    3.9713   -1.2086    0.9574 H   0  0  0  0  0  0  0  0  0  0  0  0
    4.8018   -2.8282   -2.1282 H   0  0  0  0  0  0  0  0  0  0  0  0
    6.9268   -3.9597   -2.5411 H   0  0  0  0  0  0  0  0  0  0  0  0
    9.0671   -2.9228   -1.8353 H   0  0  0  0  0  0  0  0  0  0  0  0
    9.0497   -0.7038   -0.7262 H   0  0  0  0  0  0  0  0  0  0  0  0
    6.9225    0.4676   -0.3318 H   0  0  0  0  0  0  0  0  0  0  0  0
    2.9187   -1.7393   -1.3706 H   0  0  0  0  0  0  0  0  0  0  0  0
    3.5141   -0.8010   -2.7598 H   0  0  0  0  0  0  0  0  0  0  0  0
    2.5172    1.2613   -1.8818 H   0  0  0  0  0  0  0  0  0  0  0  0
    1.2937    0.0210   -2.0923 H   0  0  0  0  0  0  0  0  0  0  0  0
    0.1812    2.0834    1.8647 H   0  0  0  0  0  0  0  0  0  0  0  0
   -0.9022    3.1060    3.8151 H   0  0  0  0  0  0  0  0  0  0  0  0
  1  2  1  0
  2  3  2  0
  3  4  1  0
  4  5  2  0
  5  6  1  0
  6  7  1  0
  7  8  1  0
  8  9  2  0
  8 10  1  0
 10 11  1  0
 11 12  1  0
 12 13  1  0
 12 14  1  0
 10 15  1  0
 15 16  1  0
 16 17  2  0
 17 18  1  0
 18 19  2  0
 19 20  1  0
 20 21  1  0
 21 22  1  0
 22 23  1  0
 23 24  1  0
 24 25  1  0
 25 26  2  0
 26 27  1  0
 27 28  2  0
 28 29  1  0
 29 30  2  0
 24 31  1  0
 31 32  1  0
 20 33  2  0
  5 34  1  0
 34 35  2  0
 35  2  1  0
 33  7  1  0
 33 16  1  0
 32 21  1  0
 30 25  1  0
  1 36  1  0
  1 37  1  0
  1 38  1  0
  3 39  1  0
  4 40  1  0
  6 41  1  0
  6 42  1  0
 10 43  1  0
 11 44  1  0
 11 45  1  0
 12 46  1  0
 13 47  1  0
 13 48  1  0
 13 49  1  0
 14 50  1  0
 14 51  1  0
 14 52  1  0
 15 53  1  0
 18 54  1  0
 22 55  1  0
 22 56  1  0
 23 57  1  0
 23 58  1  0
 26 59  1  0
 27 60  1  0
 28 61  1  0
 29 62  1  0
 30 63  1  0
 31 64  1  0
 31 65  1  0
 32 66  1  0
 32 67  1  0
 34 68  1  0
 35 69  1  0
M  END
$$$$
