
     RDKit          3D

 38 40  0  0  0  0  0  0  0  0999 V2000
   -1.1589    1.8443   -2.0307 O   0  0  0  0  0  0  0  0  0  0  0  0
   -0.9260    0.7118   -1.6299 C   0  0  0  0  0  0  0  0  0  0  0  0
   -1.8894   -0.4500   -1.7107 C   0  0  0  0  0  0  0  0  0  0  0  0
   -3.1820   -0.1906   -0.9781 C   0  0  0  0  0  0  0  0  0  0  0  0
   -4.2355    0.4782   -1.6135 C   0  0  0  0  0  0  0  0  0  0  0  0
   -5.4239    0.7357   -0.9313 C   0  0  0  0  0  0  0  0  0  0  0  0
   -5.5710    0.3311    0.3949 C   0  0  0  0  0  0  0  0  0  0  0  0
   -4.5287   -0.3362    1.0550 C   0  0  0  0  0  0  0  0  0  0  0  0
   -4.6944   -0.7523    2.4962 C   0  0  0  0  0  0  0  0  0  0  0  0
   -5.8646   -1.4139    2.7196 F   0  0  0  0  0  0  0  0  0  0  0  0
   -4.6988    0.3104    3.3476 F   0  0  0  0  0  0  0  0  0  0  0  0
   -3.7099   -1.5837    2.9397 F   0  0  0  0  0  0  0  0  0  0  0  0
   -3.3335   -0.5851    0.3601 C   0  0  0  0  0  0  0  0  0  0  0  0
    0.2446    0.3184   -1.0612 O   0  0  0  0  0  0  0  0  0  0  0  0
    1.1965    1.3763   -0.9568 C   0  0  0  0  0  0  0  0  0  0  0  0
    2.3930    0.8268   -0.3788 N   0  0  0  0  0  0  0  0  0  0  0  0
    2.6215    0.7471    0.9644 C   0  0  0  0  0  0  0  0  0  0  0  0
    1.9328    1.1361    1.8875 O   0  0  0  0  0  0  0  0  0  0  0  0
    3.9110    0.0776    1.1238 C   0  0  0  0  0  0  0  0  0  0  0  0
    4.6138   -0.2529    2.2651 C   0  0  0  0  0  0  0  0  0  0  0  0
    5.8394   -0.9034    2.0933 C   0  0  0  0  0  0  0  0  0  0  0  0
    6.3254   -1.2032    0.8028 C   0  0  0  0  0  0  0  0  0  0  0  0
    5.5934   -0.8594   -0.3376 C   0  0  0  0  0  0  0  0  0  0  0  0
    4.3867   -0.2178   -0.1414 C   0  0  0  0  0  0  0  0  0  0  0  0
    3.3990    0.2610   -1.1069 C   0  0  0  0  0  0  0  0  0  0  0  0
    3.5072    0.1450   -2.3124 O   0  0  0  0  0  0  0  0  0  0  0  0
   -2.0804   -0.6598   -2.7698 H   0  0  0  0  0  0  0  0  0  0  0  0
   -1.4164   -1.3560   -1.3123 H   0  0  0  0  0  0  0  0  0  0  0  0
   -4.1319    0.8146   -2.6442 H   0  0  0  0  0  0  0  0  0  0  0  0
   -6.2331    1.2597   -1.4329 H   0  0  0  0  0  0  0  0  0  0  0  0
   -6.5026    0.5422    0.9175 H   0  0  0  0  0  0  0  0  0  0  0  0
   -2.5143   -1.0916    0.8701 H   0  0  0  0  0  0  0  0  0  0  0  0
    1.4290    1.7743   -1.9510 H   0  0  0  0  0  0  0  0  0  0  0  0
    0.8092    2.1643   -0.3010 H   0  0  0  0  0  0  0  0  0  0  0  0
    4.2278   -0.0176    3.2515 H   0  0  0  0  0  0  0  0  0  0  0  0
    6.4276   -1.1842    2.9656 H   0  0  0  0  0  0  0  0  0  0  0  0
    7.2832   -1.7107    0.6957 H   0  0  0  0  0  0  0  0  0  0  0  0
    5.9544   -1.0867   -1.3354 H   0  0  0  0  0  0  0  0  0  0  0  0
  1  2  2  0
  2  3  1  0
  3  4  1  0
  4  5  2  0
  5  6  1  0
  6  7  2  0
  7  8  1  0
  8  9  1  0
  9 10  1  0
  9 11  1  0
  9 12  1  0
  8 13  2  0
  2 14  1  0
 14 15  1  0
 15 16  1  0
 16 17  1  0
 17 18  2  0
 17 19  1  0
 19 20  2  0
 20 21  1  0
 21 22  2  0
 22 23  1  0
 23 24  2  0
 24 25  1  0
 25 26  2  0
 13  4  1  0
 25 16  1  0
 24 19  1  0
  3 27  1  0
  3 28  1  0
  5 29  1  0
  6 30  1  0
  7 31  1  0
 13 32  1  0
 15 33  1  0
 15 34  1  0
 20 35  1  0
 21 36  1  0
 22 37  1  0
 23 38  1  0
M  END
$$$$
