
     RDKit          3D

 43 45  0  0  0  0  0  0  0  0999 V2000
    6.2458   -1.5696   -0.2292 C   0  0  0  0  0  0  0  0  0  0  0  0
    4.8896   -0.9398   -0.4305 C   0  0  0  0  0  0  0  0  0  0  0  0
    4.8528    0.5223   -0.7347 C   0  0  0  0  0  0  0  0  0  0  0  0
    3.6399    1.0829   -0.9071 C   0  0  0  0  0  0  0  0  0  0  0  0
    3.5288    2.5433   -1.2247 C   0  0  0  0  0  0  0  0  0  0  0  0
    2.5039    0.2554   -0.7900 N   0  0  0  0  0  0  0  0  0  0  0  0
    1.1364    0.4474   -0.8901 C   0  0  0  0  0  0  0  0  0  0  0  0
    0.3501    1.9686   -1.1422 S   0  0  0  0  0  0  0  0  0  0  0  0
   -1.2345    1.4966   -1.8944 C   0  0  0  0  0  0  0  0  0  0  0  0
   -2.0929    0.5499   -1.0663 C   0  0  0  0  0  0  0  0  0  0  0  0
   -2.5165   -0.4844   -1.5922 O   0  0  0  0  0  0  0  0  0  0  0  0
   -2.4335    0.8794    0.2427 N   0  0  0  0  0  0  0  0  0  0  0  0
   -2.3432    2.2272    0.7896 C   0  0  0  0  0  0  0  0  0  0  0  0
   -3.0186   -0.1385    1.1281 C   0  0  0  0  0  0  0  0  0  0  0  0
   -4.4520   -0.5459    0.7571 C   0  0  0  0  0  0  0  0  0  0  0  0
   -4.8453   -1.6370    1.7455 C   0  0  0  0  0  0  0  0  0  0  0  0
   -3.3397   -2.5241    2.1225 S   0  0  0  0  0  6  0  0  0  0  0  0
   -3.3846   -3.8180    1.4758 O   0  0  0  0  0  0  0  0  0  0  0  0
   -3.0910   -2.3837    3.5444 O   0  0  0  0  0  0  0  0  0  0  0  0
   -2.2224   -1.4428    1.2464 C   0  0  0  0  0  0  0  0  0  0  0  0
    0.5017   -0.6841   -0.7001 N   0  0  0  0  0  0  0  0  0  0  0  0
    1.4318   -1.6566   -0.4615 N   0  0  0  0  0  0  0  0  0  0  0  0
    2.6298   -1.1111   -0.5087 C   0  0  0  0  0  0  0  0  0  0  0  0
    3.8447   -1.7021   -0.3247 N   0  0  0  0  0  0  0  0  0  0  0  0
    6.3674   -2.3974   -0.9335 H   0  0  0  0  0  0  0  0  0  0  0  0
    6.3141   -1.9569    0.7911 H   0  0  0  0  0  0  0  0  0  0  0  0
    7.0525   -0.8504   -0.3897 H   0  0  0  0  0  0  0  0  0  0  0  0
    5.7860    1.0672   -0.8058 H   0  0  0  0  0  0  0  0  0  0  0  0
    4.5151    3.0146   -1.3126 H   0  0  0  0  0  0  0  0  0  0  0  0
    2.9964    3.0777   -0.4314 H   0  0  0  0  0  0  0  0  0  0  0  0
    3.0241    2.6986   -2.1834 H   0  0  0  0  0  0  0  0  0  0  0  0
   -1.8166    2.3958   -2.1185 H   0  0  0  0  0  0  0  0  0  0  0  0
   -1.0181    1.0122   -2.8534 H   0  0  0  0  0  0  0  0  0  0  0  0
   -3.2987    2.4818    1.2594 H   0  0  0  0  0  0  0  0  0  0  0  0
   -2.1445    2.9770    0.0236 H   0  0  0  0  0  0  0  0  0  0  0  0
   -1.5529    2.2464    1.5450 H   0  0  0  0  0  0  0  0  0  0  0  0
   -3.0518    0.3055    2.1343 H   0  0  0  0  0  0  0  0  0  0  0  0
   -5.1438    0.3015    0.8047 H   0  0  0  0  0  0  0  0  0  0  0  0
   -4.5039   -0.9467   -0.2606 H   0  0  0  0  0  0  0  0  0  0  0  0
   -5.2198   -1.2039    2.6777 H   0  0  0  0  0  0  0  0  0  0  0  0
   -5.5866   -2.3241    1.3318 H   0  0  0  0  0  0  0  0  0  0  0  0
   -1.9991   -1.9143    0.2875 H   0  0  0  0  0  0  0  0  0  0  0  0
   -1.3009   -1.3204    1.8200 H   0  0  0  0  0  0  0  0  0  0  0  0
  1  2  1  0
  2  3  1  0
  3  4  2  0
  4  5  1  0
  4  6  1  0
  6  7  1  0
  7  8  1  0
  8  9  1  0
  9 10  1  0
 10 11  2  0
 10 12  1  0
 12 13  1  0
 12 14  1  0
 14 15  1  0
 15 16  1  0
 16 17  1  0
 17 18  2  0
 17 19  2  0
 17 20  1  0
  7 21  2  0
 21 22  1  0
 22 23  2  0
 23 24  1  0
 24  2  2  0
 23  6  1  0
 20 14  1  0
  1 25  1  0
  1 26  1  0
  1 27  1  0
  3 28  1  0
  5 29  1  0
  5 30  1  0
  5 31  1  0
  9 32  1  0
  9 33  1  0
 13 34  1  0
 13 35  1  0
 13 36  1  0
 14 37  1  0
 15 38  1  0
 15 39  1  0
 16 40  1  0
 16 41  1  0
 20 42  1  0
 20 43  1  0
M  END
$$$$
