
     RDKit          3D

 53 56  0  0  0  0  0  0  0  0999 V2000
    3.9866    0.2146    2.1202 C   0  0  0  0  0  0  0  0  0  0  0  0
    2.9987   -0.1294    1.0867 N   0  0  0  0  0  0  0  0  0  0  0  0
    3.4799   -0.4779   -0.2006 C   0  0  0  0  0  0  0  0  0  0  0  0
    2.5658   -0.8441   -1.2089 C   0  0  0  0  0  0  0  0  0  0  0  0
    2.9868   -1.2050   -2.4928 C   0  0  0  0  0  0  0  0  0  0  0  0
    4.3417   -1.2169   -2.7999 C   0  0  0  0  0  0  0  0  0  0  0  0
    5.2693   -0.8769   -1.8213 C   0  0  0  0  0  0  0  0  0  0  0  0
    4.8424   -0.5178   -0.5363 C   0  0  0  0  0  0  0  0  0  0  0  0
    1.7699    0.5454    1.3042 C   0  0  0  0  0  0  0  0  0  0  0  0
    1.5314    1.7884    0.6995 C   0  0  0  0  0  0  0  0  0  0  0  0
    0.3149    2.4584    0.8821 C   0  0  0  0  0  0  0  0  0  0  0  0
   -0.7051    1.9005    1.6669 C   0  0  0  0  0  0  0  0  0  0  0  0
   -1.9744    2.6386    1.7840 C   0  0  0  0  0  0  0  0  0  0  0  0
   -3.2284    2.1608    1.6331 C   0  0  0  0  0  0  0  0  0  0  0  0
   -4.3386    3.0491    1.7668 C   0  0  0  0  0  0  0  0  0  0  0  0
   -5.2138    3.8088    1.8317 N   0  0  0  0  0  0  0  0  0  0  0  0
   -3.4828    0.7908    1.3767 C   0  0  0  0  0  0  0  0  0  0  0  0
   -3.8584   -0.1479    2.2220 N   0  0  0  0  0  0  0  0  0  0  0  0
   -3.9248   -1.3381    1.5485 N   0  0  0  0  0  0  0  0  0  0  0  0
   -3.5995   -1.1168    0.2942 C   0  0  0  0  0  0  0  0  0  0  0  0
   -3.3382    0.2213    0.1313 N   0  0  0  0  0  0  0  0  0  0  0  0
   -2.9943    0.8461   -1.1276 C   0  0  0  0  0  0  0  0  0  0  0  0
   -1.6921    0.3199   -1.7270 C   0  0  0  0  0  0  0  0  0  0  0  0
   -1.8205   -1.0567   -2.3820 C   0  0  0  0  0  0  0  0  0  0  0  0
   -2.1260   -2.2042   -1.4165 C   0  0  0  0  0  0  0  0  0  0  0  0
   -3.5167   -2.1298   -0.7891 C   0  0  0  0  0  0  0  0  0  0  0  0
   -0.4731    0.6805    2.3093 C   0  0  0  0  0  0  0  0  0  0  0  0
    0.7472    0.0210    2.1070 C   0  0  0  0  0  0  0  0  0  0  0  0
    0.9150   -1.2784    2.7138 N   0  0  0  0  0  4  0  0  0  0  0  0
    0.5257   -2.2573    2.0629 O   0  0  0  0  0  0  0  0  0  0  0  0
    1.4087   -1.3047    3.8499 O   0  0  0  0  0  1  0  0  0  0  0  0
    4.5256    1.1335    1.8609 H   0  0  0  0  0  0  0  0  0  0  0  0
    3.5201    0.3730    3.1000 H   0  0  0  0  0  0  0  0  0  0  0  0
    4.7060   -0.6010    2.2576 H   0  0  0  0  0  0  0  0  0  0  0  0
    1.5008   -0.8762   -0.9938 H   0  0  0  0  0  0  0  0  0  0  0  0
    2.2545   -1.4879   -3.2437 H   0  0  0  0  0  0  0  0  0  0  0  0
    4.6751   -1.5021   -3.7940 H   0  0  0  0  0  0  0  0  0  0  0  0
    6.3313   -0.8968   -2.0516 H   0  0  0  0  0  0  0  0  0  0  0  0
    5.6112   -0.2657    0.1870 H   0  0  0  0  0  0  0  0  0  0  0  0
    2.2977    2.2390    0.0710 H   0  0  0  0  0  0  0  0  0  0  0  0
    0.1707    3.4166    0.3844 H   0  0  0  0  0  0  0  0  0  0  0  0
   -1.8424    3.7030    1.9863 H   0  0  0  0  0  0  0  0  0  0  0  0
   -3.8384    0.6912   -1.8101 H   0  0  0  0  0  0  0  0  0  0  0  0
   -2.9109    1.9250   -0.9704 H   0  0  0  0  0  0  0  0  0  0  0  0
   -1.3648    1.0257   -2.5003 H   0  0  0  0  0  0  0  0  0  0  0  0
   -0.9011    0.2908   -0.9706 H   0  0  0  0  0  0  0  0  0  0  0  0
   -2.5841   -1.0215   -3.1691 H   0  0  0  0  0  0  0  0  0  0  0  0
   -0.8709   -1.2805   -2.8842 H   0  0  0  0  0  0  0  0  0  0  0  0
   -1.3515   -2.2542   -0.6408 H   0  0  0  0  0  0  0  0  0  0  0  0
   -2.0617   -3.1402   -1.9858 H   0  0  0  0  0  0  0  0  0  0  0  0
   -3.7570   -3.1108   -0.3606 H   0  0  0  0  0  0  0  0  0  0  0  0
   -4.2775   -1.9282   -1.5520 H   0  0  0  0  0  0  0  0  0  0  0  0
   -1.2296    0.2249    2.9469 H   0  0  0  0  0  0  0  0  0  0  0  0
  1  2  1  0
  2  3  1  0
  3  4  2  0
  4  5  1  0
  5  6  2  0
  6  7  1  0
  7  8  2  0
  2  9  1  0
  9 10  2  0
 10 11  1  0
 11 12  2  0
 12 13  1  0
 13 14  2  3
 14 15  1  0
 15 16  3  0
 14 17  1  0
 17 18  2  0
 18 19  1  0
 19 20  2  0
 20 21  1  0
 21 22  1  0
 22 23  1  0
 23 24  1  0
 24 25  1  0
 25 26  1  0
 12 27  1  0
 27 28  2  0
 28 29  1  0
 29 30  2  0
 29 31  1  0
  8  3  1  0
 28  9  1  0
 21 17  1  0
 26 20  1  0
  1 32  1  0
  1 33  1  0
  1 34  1  0
  4 35  1  0
  5 36  1  0
  6 37  1  0
  7 38  1  0
  8 39  1  0
 10 40  1  0
 11 41  1  0
 13 42  1  0
 22 43  1  0
 22 44  1  0
 23 45  1  0
 23 46  1  0
 24 47  1  0
 24 48  1  0
 25 49  1  0
 25 50  1  0
 26 51  1  0
 26 52  1  0
 27 53  1  0
M  CHG  2  29   1  31  -1
M  END
$$$$
