
     RDKit          3D

 35 36  0  0  0  0  0  0  0  0999 V2000
   -5.2814   -2.3739    0.1479 N   0  0  0  0  0  0  0  0  0  0  0  0
   -4.4236   -1.4306   -0.3482 C   0  0  0  0  0  0  0  0  0  0  0  0
   -4.4938   -0.0429    0.1536 C   0  0  0  0  0  0  0  0  0  0  0  0
   -3.6398    0.8159   -0.4018 C   0  0  0  0  0  0  0  0  0  0  0  0
   -2.7509    0.4048   -1.3677 N   0  0  0  0  0  0  0  0  0  0  0  0
   -1.8202    1.3709   -1.9530 C   0  0  0  0  0  0  0  0  0  0  0  0
   -0.4822    1.4046   -1.2118 C   0  0  0  0  0  0  0  0  0  0  0  0
   -0.0107    2.4522   -0.7701 O   0  0  0  0  0  0  0  0  0  0  0  0
    0.1816    0.1985   -1.1473 N   0  0  0  0  0  0  0  0  0  0  0  0
    1.5074    0.0759   -0.5720 C   0  0  0  0  0  0  0  0  0  0  0  0
    1.4964    0.1570    0.9536 C   0  0  0  0  0  0  0  0  0  0  0  0
    2.8936    0.0627    1.5066 C   0  0  0  0  0  0  0  0  0  0  0  0
    3.7053    1.1935    1.5739 C   0  0  0  0  0  0  0  0  0  0  0  0
    5.0028    1.0617    2.0592 C   0  0  0  0  0  0  0  0  0  0  0  0
    5.4523   -0.1901    2.4672 C   0  0  0  0  0  0  0  0  0  0  0  0
    4.5812   -1.2627    2.3680 C   0  0  0  0  0  0  0  0  0  0  0  0
    3.3202   -1.1635    1.8934 N   0  0  0  0  0  0  0  0  0  0  0  0
   -2.6823   -0.9273   -1.7781 C   0  0  0  0  0  0  0  0  0  0  0  0
   -1.8116   -1.2907   -2.5685 O   0  0  0  0  0  0  0  0  0  0  0  0
   -3.5767   -1.8226   -1.2476 N   0  0  0  0  0  0  0  0  0  0  0  0
   -4.9884   -3.3156   -0.0877 H   0  0  0  0  0  0  0  0  0  0  0  0
   -5.5600   -2.2776    1.1151 H   0  0  0  0  0  0  0  0  0  0  0  0
   -5.2156    0.2348    0.9078 H   0  0  0  0  0  0  0  0  0  0  0  0
   -3.6183    1.8618   -0.1035 H   0  0  0  0  0  0  0  0  0  0  0  0
   -2.2673    2.3731   -1.9279 H   0  0  0  0  0  0  0  0  0  0  0  0
   -1.6272    1.1221   -3.0040 H   0  0  0  0  0  0  0  0  0  0  0  0
   -0.1945   -0.5919   -1.6742 H   0  0  0  0  0  0  0  0  0  0  0  0
    2.1357    0.8649   -1.0018 H   0  0  0  0  0  0  0  0  0  0  0  0
    1.9133   -0.8865   -0.9036 H   0  0  0  0  0  0  0  0  0  0  0  0
    1.0254    1.0812    1.3035 H   0  0  0  0  0  0  0  0  0  0  0  0
    0.8896   -0.6602    1.3591 H   0  0  0  0  0  0  0  0  0  0  0  0
    3.3368    2.1625    1.2474 H   0  0  0  0  0  0  0  0  0  0  0  0
    5.6596    1.9262    2.1115 H   0  0  0  0  0  0  0  0  0  0  0  0
    6.4576   -0.3268    2.8480 H   0  0  0  0  0  0  0  0  0  0  0  0
    4.8856   -2.2614    2.6643 H   0  0  0  0  0  0  0  0  0  0  0  0
  1  2  1  0
  2  3  1  0
  3  4  2  0
  4  5  1  0
  5  6  1  0
  6  7  1  0
  7  8  2  0
  7  9  1  0
  9 10  1  0
 10 11  1  0
 11 12  1  0
 12 13  2  0
 13 14  1  0
 14 15  2  0
 15 16  1  0
 16 17  2  0
  5 18  1  0
 18 19  2  0
 18 20  1  0
 20  2  2  0
 17 12  1  0
  1 21  1  0
  1 22  1  0
  3 23  1  0
  4 24  1  0
  6 25  1  0
  6 26  1  0
  9 27  1  0
 10 28  1  0
 10 29  1  0
 11 30  1  0
 11 31  1  0
 13 32  1  0
 14 33  1  0
 15 34  1  0
 16 35  1  0
M  END
$$$$
