
     RDKit          3D

 46 48  0  0  0  0  0  0  0  0999 V2000
   -5.5398   -2.2647   -0.5761 C   0  0  0  0  0  0  0  0  0  0  0  0
   -5.6456   -1.1958    0.4421 C   0  0  0  0  0  0  0  0  0  0  0  0
   -6.5929   -1.3808    1.4033 O   0  0  0  0  0  0  0  0  0  0  0  0
   -6.5379   -0.3094    2.2289 C   0  0  0  0  0  0  0  0  0  0  0  0
   -5.5648    0.5670    1.8118 C   0  0  0  0  0  0  0  0  0  0  0  0
   -4.9680   -0.0013    0.6436 C   0  0  0  0  0  0  0  0  0  0  0  0
   -3.8940    0.4934   -0.2100 C   0  0  0  0  0  0  0  0  0  0  0  0
   -3.5383   -0.0931   -1.2279 O   0  0  0  0  0  0  0  0  0  0  0  0
   -3.3019    1.6598    0.2201 N   0  0  0  0  0  0  0  0  0  0  0  0
   -2.1427    2.2115   -0.4410 C   0  0  0  0  0  0  0  0  0  0  0  0
   -0.8798    1.8357    0.2901 C   0  0  0  0  0  0  0  0  0  0  0  0
   -0.2454    2.7492    1.1419 C   0  0  0  0  0  0  0  0  0  0  0  0
    0.9172    2.3885    1.8234 C   0  0  0  0  0  0  0  0  0  0  0  0
    1.4512    1.1096    1.6693 C   0  0  0  0  0  0  0  0  0  0  0  0
    0.8239    0.1731    0.8374 C   0  0  0  0  0  0  0  0  0  0  0  0
    1.4152   -1.2008    0.6561 C   0  0  0  0  0  0  0  0  0  0  0  0
    2.4059   -1.1955   -0.3940 N   0  0  0  0  0  0  0  0  0  0  0  0
    3.7490   -1.0715   -0.1182 C   0  0  0  0  0  0  0  0  0  0  0  0
    4.1949   -1.0724    1.0253 O   0  0  0  0  0  0  0  0  0  0  0  0
    4.6037   -0.9261   -1.2910 C   0  0  0  0  0  0  0  0  0  0  0  0
    4.2926   -1.0087   -2.6839 C   0  0  0  0  0  0  0  0  0  0  0  0
    5.4663   -0.7973   -3.3674 C   0  0  0  0  0  0  0  0  0  0  0  0
    6.4865   -0.5918   -2.5011 O   0  0  0  0  0  0  0  0  0  0  0  0
    5.9675   -0.6726   -1.2443 C   0  0  0  0  0  0  0  0  0  0  0  0
    6.9270   -0.4794   -0.1341 C   0  0  0  0  0  0  0  0  0  0  0  0
   -0.3371    0.5487    0.1461 C   0  0  0  0  0  0  0  0  0  0  0  0
   -5.7428   -1.8647   -1.5744 H   0  0  0  0  0  0  0  0  0  0  0  0
   -4.5357   -2.7000   -0.5718 H   0  0  0  0  0  0  0  0  0  0  0  0
   -6.2566   -3.0694   -0.3838 H   0  0  0  0  0  0  0  0  0  0  0  0
   -7.2423   -0.3147    3.0493 H   0  0  0  0  0  0  0  0  0  0  0  0
   -5.3275    1.5024    2.2967 H   0  0  0  0  0  0  0  0  0  0  0  0
   -3.5130    2.0059    1.1427 H   0  0  0  0  0  0  0  0  0  0  0  0
   -2.0885    1.8785   -1.4836 H   0  0  0  0  0  0  0  0  0  0  0  0
   -2.2680    3.2998   -0.4555 H   0  0  0  0  0  0  0  0  0  0  0  0
   -0.6464    3.7512    1.2760 H   0  0  0  0  0  0  0  0  0  0  0  0
    1.4124    3.1052    2.4738 H   0  0  0  0  0  0  0  0  0  0  0  0
    2.3656    0.8437    2.1981 H   0  0  0  0  0  0  0  0  0  0  0  0
    1.8453   -1.5598    1.5980 H   0  0  0  0  0  0  0  0  0  0  0  0
    0.6356   -1.9139    0.3659 H   0  0  0  0  0  0  0  0  0  0  0  0
    2.0800   -1.0121   -1.3297 H   0  0  0  0  0  0  0  0  0  0  0  0
    3.3358   -1.2070   -3.1440 H   0  0  0  0  0  0  0  0  0  0  0  0
    5.7297   -0.7669   -4.4155 H   0  0  0  0  0  0  0  0  0  0  0  0
    6.6218    0.3631    0.4941 H   0  0  0  0  0  0  0  0  0  0  0  0
    6.9788   -1.3781    0.4881 H   0  0  0  0  0  0  0  0  0  0  0  0
    7.9338   -0.2716   -0.5101 H   0  0  0  0  0  0  0  0  0  0  0  0
   -0.8309   -0.1668   -0.5113 H   0  0  0  0  0  0  0  0  0  0  0  0
  1  2  1  0
  2  3  1  0
  3  4  1  0
  4  5  2  0
  5  6  1  0
  6  7  1  0
  7  8  2  0
  7  9  1  0
  9 10  1  0
 10 11  1  0
 11 12  2  0
 12 13  1  0
 13 14  2  0
 14 15  1  0
 15 16  1  0
 16 17  1  0
 17 18  1  0
 18 19  2  0
 18 20  1  0
 20 21  1  0
 21 22  2  0
 22 23  1  0
 23 24  1  0
 24 25  1  0
 15 26  2  0
  6  2  2  0
 26 11  1  0
 24 20  2  0
  1 27  1  0
  1 28  1  0
  1 29  1  0
  4 30  1  0
  5 31  1  0
  9 32  1  0
 10 33  1  0
 10 34  1  0
 12 35  1  0
 13 36  1  0
 14 37  1  0
 16 38  1  0
 16 39  1  0
 17 40  1  0
 21 41  1  0
 22 42  1  0
 25 43  1  0
 25 44  1  0
 25 45  1  0
 26 46  1  0
M  END
$$$$
