
     RDKit          3D

 54 59  0  0  0  0  0  0  0  0999 V2000
    4.6067   -3.0717    0.3715 C   0  0  0  0  0  0  0  0  0  0  0  0
    4.9227   -1.6543    0.7643 C   0  0  0  0  0  0  0  0  0  0  0  0
    5.6706   -1.4064    1.9255 C   0  0  0  0  0  0  0  0  0  0  0  0
    5.9690   -0.1009    2.3091 C   0  0  0  0  0  0  0  0  0  0  0  0
    5.5224    0.9659    1.5360 C   0  0  0  0  0  0  0  0  0  0  0  0
    4.7771    0.7319    0.3770 C   0  0  0  0  0  0  0  0  0  0  0  0
    4.4708   -0.5737   -0.0173 C   0  0  0  0  0  0  0  0  0  0  0  0
    3.7537   -0.9178   -1.1319 O   0  0  0  0  0  0  0  0  0  0  0  0
    3.1809    0.1159   -1.9434 C   0  0  0  0  0  0  0  0  0  0  0  0
    1.9171    0.6898   -1.3856 C   0  0  0  0  0  0  0  0  0  0  0  0
    0.7802   -0.0690   -1.2090 N   0  0  0  0  0  0  0  0  0  0  0  0
   -0.0836    0.7766   -0.6892 C   0  0  0  0  0  0  0  0  0  0  0  0
   -1.4418    0.6750   -0.2435 C   0  0  0  0  0  0  0  0  0  0  0  0
   -1.9912    1.8331    0.2371 C   0  0  0  0  0  0  0  0  0  0  0  0
   -1.3351    3.0606    0.3126 N   0  0  0  0  0  0  0  0  0  0  0  0
   -0.1038    3.1203   -0.0935 C   0  0  0  0  0  0  0  0  0  0  0  0
    0.5182    1.9963   -0.5879 N   0  0  0  0  0  0  0  0  0  0  0  0
    1.7870    1.9823   -1.0405 N   0  0  0  0  0  0  0  0  0  0  0  0
   -3.4039    1.8279    0.7140 C   0  0  0  0  0  0  0  0  0  0  0  0
   -4.1272    3.0212    0.8691 C   0  0  0  0  0  0  0  0  0  0  0  0
   -5.4434    3.0092    1.3370 C   0  0  0  0  0  0  0  0  0  0  0  0
   -6.0537    1.8028    1.6660 C   0  0  0  0  0  0  0  0  0  0  0  0
   -5.3504    0.6086    1.5245 C   0  0  0  0  0  0  0  0  0  0  0  0
   -4.0342    0.6169    1.0403 C   0  0  0  0  0  0  0  0  0  0  0  0
   -3.2578   -0.6632    0.9151 C   0  0  0  0  0  0  0  0  0  0  0  0
   -2.2810   -0.6298   -0.2832 C   0  0  0  0  0  0  0  0  0  0  0  0
   -1.4528   -1.9415   -0.2701 C   0  0  0  0  0  0  0  0  0  0  0  0
   -1.2850   -2.3872   -1.7268 C   0  0  0  0  0  0  0  0  0  0  0  0
   -2.0382   -1.3779   -2.5811 C   0  0  0  0  0  0  0  0  0  0  0  0
   -3.0382   -0.7424   -1.6277 C   0  0  0  0  0  0  0  0  0  0  0  0
    3.5230   -3.2265    0.3509 H   0  0  0  0  0  0  0  0  0  0  0  0
    5.0258   -3.2944   -0.6150 H   0  0  0  0  0  0  0  0  0  0  0  0
    5.0308   -3.7898    1.0813 H   0  0  0  0  0  0  0  0  0  0  0  0
    6.0236   -2.2323    2.5387 H   0  0  0  0  0  0  0  0  0  0  0  0
    6.5478    0.0829    3.2103 H   0  0  0  0  0  0  0  0  0  0  0  0
    5.7526    1.9856    1.8340 H   0  0  0  0  0  0  0  0  0  0  0  0
    4.4521    1.5985   -0.1884 H   0  0  0  0  0  0  0  0  0  0  0  0
    2.9296   -0.3574   -2.9005 H   0  0  0  0  0  0  0  0  0  0  0  0
    3.9213    0.8866   -2.1876 H   0  0  0  0  0  0  0  0  0  0  0  0
    0.4639    4.0627   -0.0544 H   0  0  0  0  0  0  0  0  0  0  0  0
   -3.6669    3.9767    0.6263 H   0  0  0  0  0  0  0  0  0  0  0  0
   -5.9860    3.9440    1.4497 H   0  0  0  0  0  0  0  0  0  0  0  0
   -7.0750    1.7930    2.0375 H   0  0  0  0  0  0  0  0  0  0  0  0
   -5.8326   -0.3283    1.7937 H   0  0  0  0  0  0  0  0  0  0  0  0
   -3.9495   -1.5095    0.8128 H   0  0  0  0  0  0  0  0  0  0  0  0
   -2.7038   -0.8157    1.8515 H   0  0  0  0  0  0  0  0  0  0  0  0
   -1.9874   -2.7369    0.2660 H   0  0  0  0  0  0  0  0  0  0  0  0
   -0.4892   -1.8380    0.2394 H   0  0  0  0  0  0  0  0  0  0  0  0
   -1.7148   -3.3876   -1.8565 H   0  0  0  0  0  0  0  0  0  0  0  0
   -0.2322   -2.4521   -2.0187 H   0  0  0  0  0  0  0  0  0  0  0  0
   -2.5304   -1.8518   -3.4360 H   0  0  0  0  0  0  0  0  0  0  0  0
   -1.3508   -0.6230   -2.9778 H   0  0  0  0  0  0  0  0  0  0  0  0
   -3.9090   -1.4034   -1.5297 H   0  0  0  0  0  0  0  0  0  0  0  0
   -3.3979    0.2185   -2.0110 H   0  0  0  0  0  0  0  0  0  0  0  0
  1  2  1  0
  2  3  2  0
  3  4  1  0
  4  5  2  0
  5  6  1  0
  6  7  2  0
  7  8  1  0
  8  9  1  0
  9 10  1  0
 10 11  1  0
 11 12  2  0
 12 13  1  0
 13 14  2  0
 14 15  1  0
 15 16  2  0
 16 17  1  0
 17 18  1  0
 14 19  1  0
 19 20  2  0
 20 21  1  0
 21 22  2  0
 22 23  1  0
 23 24  2  0
 24 25  1  0
 25 26  1  0
 26 27  1  0
 27 28  1  0
 28 29  1  0
 29 30  1  0
  7  2  1  0
 18 10  2  0
 24 19  1  0
 30 26  1  0
 17 12  1  0
 26 13  1  0
  1 31  1  0
  1 32  1  0
  1 33  1  0
  3 34  1  0
  4 35  1  0
  5 36  1  0
  6 37  1  0
  9 38  1  0
  9 39  1  0
 16 40  1  0
 20 41  1  0
 21 42  1  0
 22 43  1  0
 23 44  1  0
 25 45  1  0
 25 46  1  0
 27 47  1  0
 27 48  1  0
 28 49  1  0
 28 50  1  0
 29 51  1  0
 29 52  1  0
 30 53  1  0
 30 54  1  0
M  END
$$$$
