
     RDKit          3D

 48 50  0  0  0  0  0  0  0  0999 V2000
    5.0456   -1.2778    3.0498 C   0  0  0  0  0  0  0  0  0  0  0  0
    4.0997   -0.2966    2.4067 C   0  0  0  0  0  0  0  0  0  0  0  0
    4.5873    0.9589    2.0233 C   0  0  0  0  0  0  0  0  0  0  0  0
    3.7635    1.9078    1.4162 C   0  0  0  0  0  0  0  0  0  0  0  0
    2.4242    1.5679    1.1911 C   0  0  0  0  0  0  0  0  0  0  0  0
    1.1780    2.5182    0.4836 S   0  0  0  0  0  0  0  0  0  0  0  0
    0.0817    1.2133    0.6332 C   0  0  0  0  0  0  0  0  0  0  0  0
   -1.2592    1.3407    0.2654 N   0  0  0  0  0  0  0  0  0  0  0  0
   -2.2550    0.5156    0.9609 C   0  0  0  0  0  0  0  0  0  0  0  0
   -2.4420   -0.8664    0.3211 C   0  0  0  0  0  0  0  0  0  0  0  0
   -3.2826   -0.8046   -0.9628 C   0  0  0  0  0  0  0  0  0  0  0  0
   -3.4807   -2.0731   -1.6790 N   0  0  0  0  0  0  0  0  0  0  0  0
   -2.2441   -2.5924   -2.2571 C   0  0  0  0  0  0  0  0  0  0  0  0
   -4.1516   -3.0894   -0.8757 C   0  0  0  0  0  0  0  0  0  0  0  0
   -1.7264    2.3051   -0.6401 C   0  0  0  0  0  0  0  0  0  0  0  0
   -2.8372    2.8189   -0.4812 O   0  0  0  0  0  0  0  0  0  0  0  0
   -0.9494    2.6221   -1.8379 C   0  0  0  0  0  0  0  0  0  0  0  0
   -0.8659    3.8505   -2.4732 C   0  0  0  0  0  0  0  0  0  0  0  0
   -0.0635    3.8033   -3.6520 C   0  0  0  0  0  0  0  0  0  0  0  0
    0.3919    2.5319   -3.8874 C   0  0  0  0  0  0  0  0  0  0  0  0
    1.4976    2.0663   -5.3750 Br  0  0  0  0  0  0  0  0  0  0  0  0
   -0.1377    1.4050   -2.7412 S   0  0  0  0  0  0  0  0  0  0  0  0
    0.5556    0.1599    1.2568 N   0  0  0  0  0  0  0  0  0  0  0  0
    1.9024    0.3265    1.5506 C   0  0  0  0  0  0  0  0  0  0  0  0
    2.7425   -0.6377    2.1693 C   0  0  0  0  0  0  0  0  0  0  0  0
    2.2131   -1.9899    2.5696 C   0  0  0  0  0  0  0  0  0  0  0  0
    4.6417   -1.6330    4.0027 H   0  0  0  0  0  0  0  0  0  0  0  0
    5.2176   -2.1285    2.3827 H   0  0  0  0  0  0  0  0  0  0  0  0
    6.0165   -0.8182    3.2650 H   0  0  0  0  0  0  0  0  0  0  0  0
    5.6313    1.2158    2.1974 H   0  0  0  0  0  0  0  0  0  0  0  0
    4.1536    2.8783    1.1264 H   0  0  0  0  0  0  0  0  0  0  0  0
   -1.9307    0.3945    2.0026 H   0  0  0  0  0  0  0  0  0  0  0  0
   -3.2196    1.0342    1.0046 H   0  0  0  0  0  0  0  0  0  0  0  0
   -1.4653   -1.3202    0.1241 H   0  0  0  0  0  0  0  0  0  0  0  0
   -2.9519   -1.5037    1.0532 H   0  0  0  0  0  0  0  0  0  0  0  0
   -2.8432   -0.0862   -1.6632 H   0  0  0  0  0  0  0  0  0  0  0  0
   -4.2707   -0.3933   -0.7175 H   0  0  0  0  0  0  0  0  0  0  0  0
   -2.4590   -3.4478   -2.9068 H   0  0  0  0  0  0  0  0  0  0  0  0
   -1.5261   -2.9187   -1.4972 H   0  0  0  0  0  0  0  0  0  0  0  0
   -1.7623   -1.8373   -2.8874 H   0  0  0  0  0  0  0  0  0  0  0  0
   -3.5239   -3.4650   -0.0616 H   0  0  0  0  0  0  0  0  0  0  0  0
   -4.4335   -3.9416   -1.5035 H   0  0  0  0  0  0  0  0  0  0  0  0
   -5.0804   -2.6968   -0.4472 H   0  0  0  0  0  0  0  0  0  0  0  0
   -1.3555    4.7425   -2.0979 H   0  0  0  0  0  0  0  0  0  0  0  0
    0.1485    4.6550   -4.2868 H   0  0  0  0  0  0  0  0  0  0  0  0
    2.7898   -2.7837    2.0846 H   0  0  0  0  0  0  0  0  0  0  0  0
    1.1672   -2.1185    2.2748 H   0  0  0  0  0  0  0  0  0  0  0  0
    2.2682   -2.1118    3.6561 H   0  0  0  0  0  0  0  0  0  0  0  0
  1  2  1  0
  2  3  2  0
  3  4  1  0
  4  5  2  0
  5  6  1  0
  6  7  1  0
  7  8  1  0
  8  9  1  0
  9 10  1  0
 10 11  1  0
 11 12  1  0
 12 13  1  0
 12 14  1  0
  8 15  1  0
 15 16  2  0
 15 17  1  0
 17 18  2  0
 18 19  1  0
 19 20  2  0
 20 21  1  0
 20 22  1  0
  7 23  2  0
 23 24  1  0
 24 25  2  0
 25 26  1  0
 25  2  1  0
 24  5  1  0
 22 17  1  0
  1 27  1  0
  1 28  1  0
  1 29  1  0
  3 30  1  0
  4 31  1  0
  9 32  1  0
  9 33  1  0
 10 34  1  0
 10 35  1  0
 11 36  1  0
 11 37  1  0
 13 38  1  0
 13 39  1  0
 13 40  1  0
 14 41  1  0
 14 42  1  0
 14 43  1  0
 18 44  1  0
 19 45  1  0
 26 46  1  0
 26 47  1  0
 26 48  1  0
M  END
$$$$
