
     RDKit          3D

 42 44  0  0  0  0  0  0  0  0999 V2000
   -3.1951   -1.1955    0.6691 C   0  0  0  0  0  0  0  0  0  0  0  0
   -3.5612   -0.1246   -0.1999 O   0  0  0  0  0  0  0  0  0  0  0  0
   -2.4578    0.3347   -0.8680 C   0  0  0  0  0  0  0  0  0  0  0  0
   -1.5815    1.2095   -0.2288 C   0  0  0  0  0  0  0  0  0  0  0  0
   -0.4593    1.6965   -0.9073 C   0  0  0  0  0  0  0  0  0  0  0  0
    0.5032    2.5981   -0.2536 C   0  0  0  0  0  0  0  0  0  0  0  0
    1.2120    2.3519    0.8682 C   0  0  0  0  0  0  0  0  0  0  0  0
    2.1253    3.3366    1.3528 C   0  0  0  0  0  0  0  0  0  0  0  0
    2.8985    4.1326    1.6937 N   0  0  0  0  0  0  0  0  0  0  0  0
    1.0689    1.1332    1.5867 C   0  0  0  0  0  0  0  0  0  0  0  0
    0.2160    0.8481    2.5523 N   0  0  0  0  0  0  0  0  0  0  0  0
    0.4624   -0.4521    2.9058 C   0  0  0  0  0  0  0  0  0  0  0  0
   -0.1742   -1.2459    3.8715 C   0  0  0  0  0  0  0  0  0  0  0  0
    0.2593   -2.5633    4.0542 C   0  0  0  0  0  0  0  0  0  0  0  0
    1.3099   -3.0778    3.2942 C   0  0  0  0  0  0  0  0  0  0  0  0
    1.9566   -2.2997    2.3266 C   0  0  0  0  0  0  0  0  0  0  0  0
    1.5029   -0.9858    2.1526 C   0  0  0  0  0  0  0  0  0  0  0  0
    1.8758    0.0431    1.3150 N   0  0  0  0  0  0  0  0  0  0  0  0
    2.9299   -0.0263    0.3311 C   0  0  0  0  0  0  0  0  0  0  0  0
   -0.2536    1.3447   -2.2524 C   0  0  0  0  0  0  0  0  0  0  0  0
   -1.1459    0.4892   -2.9049 C   0  0  0  0  0  0  0  0  0  0  0  0
   -1.0541    0.0694   -4.2079 O   0  0  0  0  0  0  0  0  0  0  0  0
    0.0085    0.6111   -4.9837 C   0  0  0  0  0  0  0  0  0  0  0  0
   -2.2453   -0.0142   -2.1995 C   0  0  0  0  0  0  0  0  0  0  0  0
   -3.1178   -0.8647   -2.8282 O   0  0  0  0  0  0  0  0  0  0  0  0
   -4.1154   -1.6423    1.0561 H   0  0  0  0  0  0  0  0  0  0  0  0
   -2.6364   -1.9756    0.1387 H   0  0  0  0  0  0  0  0  0  0  0  0
   -2.6148   -0.8266    1.5211 H   0  0  0  0  0  0  0  0  0  0  0  0
   -1.7809    1.5000    0.8002 H   0  0  0  0  0  0  0  0  0  0  0  0
    0.6443    3.5436   -0.7779 H   0  0  0  0  0  0  0  0  0  0  0  0
   -0.9884   -0.8369    4.4597 H   0  0  0  0  0  0  0  0  0  0  0  0
   -0.2275   -3.1891    4.7988 H   0  0  0  0  0  0  0  0  0  0  0  0
    1.6322   -4.1044    3.4557 H   0  0  0  0  0  0  0  0  0  0  0  0
    2.7733   -2.7112    1.7443 H   0  0  0  0  0  0  0  0  0  0  0  0
    2.5952    0.4426   -0.5966 H   0  0  0  0  0  0  0  0  0  0  0  0
    3.1776   -1.0688    0.1211 H   0  0  0  0  0  0  0  0  0  0  0  0
    3.8058    0.4893    0.7295 H   0  0  0  0  0  0  0  0  0  0  0  0
    0.6115    1.7474   -2.7679 H   0  0  0  0  0  0  0  0  0  0  0  0
    0.9815    0.3048   -4.5843 H   0  0  0  0  0  0  0  0  0  0  0  0
   -0.0754    0.2066   -5.9962 H   0  0  0  0  0  0  0  0  0  0  0  0
   -0.0676    1.7013   -5.0531 H   0  0  0  0  0  0  0  0  0  0  0  0
   -2.7981   -0.9296   -3.7471 H   0  0  0  0  0  0  0  0  0  0  0  0
  1  2  1  0
  2  3  1  0
  3  4  2  0
  4  5  1  0
  5  6  1  0
  6  7  2  3
  7  8  1  0
  8  9  3  0
  7 10  1  0
 10 11  2  0
 11 12  1  0
 12 13  2  0
 13 14  1  0
 14 15  2  0
 15 16  1  0
 16 17  2  0
 17 18  1  0
 18 19  1  0
  5 20  2  0
 20 21  1  0
 21 22  1  0
 22 23  1  0
 21 24  2  0
 24 25  1  0
 24  3  1  0
 18 10  1  0
 17 12  1  0
  1 26  1  0
  1 27  1  0
  1 28  1  0
  4 29  1  0
  6 30  1  0
 13 31  1  0
 14 32  1  0
 15 33  1  0
 16 34  1  0
 19 35  1  0
 19 36  1  0
 19 37  1  0
 20 38  1  0
 23 39  1  0
 23 40  1  0
 23 41  1  0
 25 42  1  0
M  END
$$$$
