
     RDKit          3D

 58 62  0  0  0  0  0  0  0  0999 V2000
   -2.2746    2.3533    1.4741 O   0  0  0  0  0  0  0  0  0  0  0  0
   -2.7451    1.5061    0.4907 C   0  0  0  0  0  0  0  0  0  0  0  0
   -2.3720    0.1543    0.5074 C   0  0  0  0  0  0  0  0  0  0  0  0
   -1.4466   -0.4016    1.5967 C   0  0  0  0  0  0  0  0  0  0  0  0
   -2.0063   -1.6029    2.4031 C   0  0  0  0  0  0  0  0  0  0  0  0
   -1.4218   -1.9054    3.6383 C   0  0  0  0  0  0  0  0  0  0  0  0
   -1.8949   -2.9885    4.3741 C   0  0  0  0  0  0  0  0  0  0  0  0
   -2.9363   -3.7514    3.8650 C   0  0  0  0  0  0  0  0  0  0  0  0
   -3.4597   -3.3999    2.6337 C   0  0  0  0  0  0  0  0  0  0  0  0
   -3.0191   -2.3569    1.8963 N   0  0  0  0  0  0  0  0  0  0  0  0
   -0.0292   -0.6241    1.1786 N   0  0  0  0  0  0  0  0  0  0  0  0
    0.6405    0.6187    0.7823 C   0  0  0  0  0  0  0  0  0  0  0  0
    2.1458    0.3949    0.6152 C   0  0  0  0  0  0  0  0  0  0  0  0
    2.4443   -0.7345   -0.3829 C   0  0  0  0  0  0  0  0  0  0  0  0
    3.9471   -1.0618   -0.4612 C   0  0  0  0  0  0  0  0  0  0  0  0
    4.7802    0.0520   -1.0492 C   0  0  0  0  0  0  0  0  0  0  0  0
    5.6095    0.8299   -0.2302 C   0  0  0  0  0  0  0  0  0  0  0  0
    6.3733    1.8637   -0.7745 C   0  0  0  0  0  0  0  0  0  0  0  0
    6.3162    2.1293   -2.1413 C   0  0  0  0  0  0  0  0  0  0  0  0
    5.4956    1.3616   -2.9652 C   0  0  0  0  0  0  0  0  0  0  0  0
    4.7310    0.3277   -2.4225 C   0  0  0  0  0  0  0  0  0  0  0  0
    1.6528   -1.9891    0.0178 C   0  0  0  0  0  0  0  0  0  0  0  0
    0.1627   -1.6822    0.1864 C   0  0  0  0  0  0  0  0  0  0  0  0
   -2.8740   -0.6479   -0.5265 C   0  0  0  0  0  0  0  0  0  0  0  0
   -3.7081   -0.1179   -1.5165 C   0  0  0  0  0  0  0  0  0  0  0  0
   -4.2658   -1.2055   -2.7449 Cl  0  0  0  0  0  0  0  0  0  0  0  0
   -4.0724    1.2486   -1.5113 C   0  0  0  0  0  0  0  0  0  0  0  0
   -4.9062    1.8703   -2.4678 C   0  0  0  0  0  0  0  0  0  0  0  0
   -5.2034    3.2253   -2.3741 C   0  0  0  0  0  0  0  0  0  0  0  0
   -4.6594    3.9346   -1.3237 C   0  0  0  0  0  0  0  0  0  0  0  0
   -3.8574    3.3871   -0.3852 N   0  0  0  0  0  0  0  0  0  0  0  0
   -3.5753    2.0686   -0.4823 C   0  0  0  0  0  0  0  0  0  0  0  0
   -2.6784    3.2214    1.2518 H   0  0  0  0  0  0  0  0  0  0  0  0
   -1.3990    0.3712    2.3770 H   0  0  0  0  0  0  0  0  0  0  0  0
   -0.5995   -1.3048    4.0164 H   0  0  0  0  0  0  0  0  0  0  0  0
   -1.4502   -3.2335    5.3340 H   0  0  0  0  0  0  0  0  0  0  0  0
   -3.3289   -4.6006    4.4121 H   0  0  0  0  0  0  0  0  0  0  0  0
   -4.2740   -3.9661    2.1909 H   0  0  0  0  0  0  0  0  0  0  0  0
    0.2273    1.0136   -0.1542 H   0  0  0  0  0  0  0  0  0  0  0  0
    0.5030    1.3868    1.5528 H   0  0  0  0  0  0  0  0  0  0  0  0
    2.5875    0.1562    1.5918 H   0  0  0  0  0  0  0  0  0  0  0  0
    2.6042    1.3320    0.2792 H   0  0  0  0  0  0  0  0  0  0  0  0
    2.0926   -0.4167   -1.3742 H   0  0  0  0  0  0  0  0  0  0  0  0
    4.1001   -1.9562   -1.0800 H   0  0  0  0  0  0  0  0  0  0  0  0
    4.3262   -1.3253    0.5349 H   0  0  0  0  0  0  0  0  0  0  0  0
    5.6628    0.6375    0.8389 H   0  0  0  0  0  0  0  0  0  0  0  0
    7.0127    2.4621   -0.1310 H   0  0  0  0  0  0  0  0  0  0  0  0
    6.9112    2.9343   -2.5641 H   0  0  0  0  0  0  0  0  0  0  0  0
    5.4507    1.5675   -4.0313 H   0  0  0  0  0  0  0  0  0  0  0  0
    4.0958   -0.2638   -3.0779 H   0  0  0  0  0  0  0  0  0  0  0  0
    2.0492   -2.4000    0.9559 H   0  0  0  0  0  0  0  0  0  0  0  0
    1.7759   -2.7662   -0.7462 H   0  0  0  0  0  0  0  0  0  0  0  0
   -0.2472   -1.3979   -0.7894 H   0  0  0  0  0  0  0  0  0  0  0  0
   -0.3334   -2.6081    0.4974 H   0  0  0  0  0  0  0  0  0  0  0  0
   -2.6276   -1.7078   -0.5545 H   0  0  0  0  0  0  0  0  0  0  0  0
   -5.3301    1.3014   -3.2920 H   0  0  0  0  0  0  0  0  0  0  0  0
   -5.8428    3.7106   -3.1029 H   0  0  0  0  0  0  0  0  0  0  0  0
   -4.8590    4.9958   -1.2028 H   0  0  0  0  0  0  0  0  0  0  0  0
  1  2  1  0
  2  3  2  0
  3  4  1  0
  4  5  1  0
  5  6  2  0
  6  7  1  0
  7  8  2  0
  8  9  1  0
  9 10  2  0
  4 11  1  0
 11 12  1  0
 12 13  1  0
 13 14  1  0
 14 15  1  0
 15 16  1  0
 16 17  2  0
 17 18  1  0
 18 19  2  0
 19 20  1  0
 20 21  2  0
 14 22  1  0
 22 23  1  0
  3 24  1  0
 24 25  2  0
 25 26  1  0
 25 27  1  0
 27 28  2  0
 28 29  1  0
 29 30  2  0
 30 31  1  0
 31 32  2  0
 32  2  1  0
 10  5  1  0
 23 11  1  0
 32 27  1  0
 21 16  1  0
  1 33  1  0
  4 34  1  0
  6 35  1  0
  7 36  1  0
  8 37  1  0
  9 38  1  0
 12 39  1  0
 12 40  1  0
 13 41  1  0
 13 42  1  0
 14 43  1  0
 15 44  1  0
 15 45  1  0
 17 46  1  0
 18 47  1  0
 19 48  1  0
 20 49  1  0
 21 50  1  0
 22 51  1  0
 22 52  1  0
 23 53  1  0
 23 54  1  0
 24 55  1  0
 28 56  1  0
 29 57  1  0
 30 58  1  0
M  END
$$$$
