
     RDKit          3D

 57 60  0  0  0  0  0  0  0  0999 V2000
    5.2204   -2.0245    1.6193 C   0  0  0  0  0  0  0  0  0  0  0  0
    5.1474   -2.5810    0.2031 C   0  0  0  0  0  0  0  0  0  0  0  0
    5.4022   -1.5189   -0.8477 C   0  0  0  0  0  0  0  0  0  0  0  0
    6.6600   -1.5457   -1.4820 C   0  0  0  0  0  0  0  0  0  0  0  0
    7.0558   -0.5312   -2.3480 C   0  0  0  0  0  0  0  0  0  0  0  0
    6.2077    0.5431   -2.5858 C   0  0  0  0  0  0  0  0  0  0  0  0
    4.9414    0.6022   -1.9832 C   0  0  0  0  0  0  0  0  0  0  0  0
    4.0613    1.7838   -2.2963 C   0  0  0  0  0  0  0  0  0  0  0  0
    4.5203   -0.4516   -1.1354 C   0  0  0  0  0  0  0  0  0  0  0  0
    3.2388   -0.3464   -0.5419 N   0  0  0  0  0  0  0  0  0  0  0  0
    2.2790   -1.3449   -0.5934 C   0  0  0  0  0  0  0  0  0  0  0  0
    2.3734   -2.4084   -1.1946 O   0  0  0  0  0  0  0  0  0  0  0  0
    0.9914   -1.0077    0.0816 C   0  0  0  0  0  0  0  0  0  0  0  0
    0.9410   -0.1333    1.1745 C   0  0  0  0  0  0  0  0  0  0  0  0
   -0.2847    0.1613    1.7768 C   0  0  0  0  0  0  0  0  0  0  0  0
   -1.4721   -0.4173    1.3032 C   0  0  0  0  0  0  0  0  0  0  0  0
   -2.7983   -0.0984    1.9654 C   0  0  0  0  0  0  0  0  0  0  0  0
   -3.1386    1.3316    1.8968 N   0  0  0  0  0  0  0  0  0  0  0  0
   -4.2228    1.6855    2.8279 C   0  0  0  0  0  0  0  0  0  0  0  0
   -5.5748    1.0270    2.5126 C   0  0  0  0  0  0  0  0  0  0  0  0
   -5.9013    1.0371    1.0400 C   0  0  0  0  0  0  0  0  0  0  0  0
   -7.1865    0.6858    0.6062 C   0  0  0  0  0  0  0  0  0  0  0  0
   -7.4860    0.6530   -0.7552 C   0  0  0  0  0  0  0  0  0  0  0  0
   -6.5045    0.9656   -1.6927 C   0  0  0  0  0  0  0  0  0  0  0  0
   -5.2201    1.3097   -1.2707 C   0  0  0  0  0  0  0  0  0  0  0  0
   -4.9029    1.3369    0.0950 C   0  0  0  0  0  0  0  0  0  0  0  0
   -3.5160    1.7583    0.5356 C   0  0  0  0  0  0  0  0  0  0  0  0
   -1.4115   -1.3053    0.2200 C   0  0  0  0  0  0  0  0  0  0  0  0
   -0.1873   -1.6017   -0.3842 C   0  0  0  0  0  0  0  0  0  0  0  0
    5.0860   -2.8310    2.3474 H   0  0  0  0  0  0  0  0  0  0  0  0
    4.4443   -1.2757    1.8041 H   0  0  0  0  0  0  0  0  0  0  0  0
    6.1918   -1.5555    1.8093 H   0  0  0  0  0  0  0  0  0  0  0  0
    4.1958   -3.0880    0.0456 H   0  0  0  0  0  0  0  0  0  0  0  0
    5.8976   -3.3773    0.1116 H   0  0  0  0  0  0  0  0  0  0  0  0
    7.3568   -2.3573   -1.2808 H   0  0  0  0  0  0  0  0  0  0  0  0
    8.0327   -0.5715   -2.8225 H   0  0  0  0  0  0  0  0  0  0  0  0
    6.5390    1.3346   -3.2544 H   0  0  0  0  0  0  0  0  0  0  0  0
    4.5168    2.4405   -3.0453 H   0  0  0  0  0  0  0  0  0  0  0  0
    3.8932    2.3800   -1.3938 H   0  0  0  0  0  0  0  0  0  0  0  0
    3.1008    1.4488   -2.7013 H   0  0  0  0  0  0  0  0  0  0  0  0
    2.8480    0.5849   -0.4977 H   0  0  0  0  0  0  0  0  0  0  0  0
    1.8453    0.3084    1.5844 H   0  0  0  0  0  0  0  0  0  0  0  0
   -0.3184    0.8461    2.6225 H   0  0  0  0  0  0  0  0  0  0  0  0
   -2.6957   -0.4035    3.0159 H   0  0  0  0  0  0  0  0  0  0  0  0
   -3.5890   -0.7320    1.5452 H   0  0  0  0  0  0  0  0  0  0  0  0
   -3.9297    1.4462    3.8577 H   0  0  0  0  0  0  0  0  0  0  0  0
   -4.3457    2.7773    2.8116 H   0  0  0  0  0  0  0  0  0  0  0  0
   -6.3613    1.5513    3.0686 H   0  0  0  0  0  0  0  0  0  0  0  0
   -5.5641   -0.0153    2.8545 H   0  0  0  0  0  0  0  0  0  0  0  0
   -7.9599    0.4341    1.3283 H   0  0  0  0  0  0  0  0  0  0  0  0
   -8.4856    0.3827   -1.0849 H   0  0  0  0  0  0  0  0  0  0  0  0
   -6.7398    0.9432   -2.7536 H   0  0  0  0  0  0  0  0  0  0  0  0
   -4.4657    1.5579   -2.0140 H   0  0  0  0  0  0  0  0  0  0  0  0
   -2.7720    1.4181   -0.1943 H   0  0  0  0  0  0  0  0  0  0  0  0
   -3.4814    2.8556    0.5011 H   0  0  0  0  0  0  0  0  0  0  0  0
   -2.3174   -1.7717   -0.1621 H   0  0  0  0  0  0  0  0  0  0  0  0
   -0.1550   -2.2956   -1.2222 H   0  0  0  0  0  0  0  0  0  0  0  0
  1  2  1  0
  2  3  1  0
  3  4  2  0
  4  5  1  0
  5  6  2  0
  6  7  1  0
  7  8  1  0
  7  9  2  0
  9 10  1  0
 10 11  1  0
 11 12  2  0
 11 13  1  0
 13 14  2  0
 14 15  1  0
 15 16  2  0
 16 17  1  0
 17 18  1  0
 18 19  1  0
 19 20  1  0
 20 21  1  0
 21 22  2  0
 22 23  1  0
 23 24  2  0
 24 25  1  0
 25 26  2  0
 26 27  1  0
 16 28  1  0
 28 29  2  0
  9  3  1  0
 29 13  1  0
 27 18  1  0
 26 21  1  0
  1 30  1  0
  1 31  1  0
  1 32  1  0
  2 33  1  0
  2 34  1  0
  4 35  1  0
  5 36  1  0
  6 37  1  0
  8 38  1  0
  8 39  1  0
  8 40  1  0
 10 41  1  0
 14 42  1  0
 15 43  1  0
 17 44  1  0
 17 45  1  0
 19 46  1  0
 19 47  1  0
 20 48  1  0
 20 49  1  0
 22 50  1  0
 23 51  1  0
 24 52  1  0
 25 53  1  0
 27 54  1  0
 27 55  1  0
 28 56  1  0
 29 57  1  0
M  END
$$$$
