
     RDKit          3D

 23 25  0  0  0  0  0  0  0  0999 V2000
    2.2946    1.9683    1.0454 O   0  0  0  0  0  0  0  0  0  0  0  0
    1.7630    0.8723    1.0439 C   0  0  0  0  0  0  0  0  0  0  0  0
    1.7194    0.1375    2.1649 O   0  0  0  0  0  0  0  0  0  0  0  0
    1.1717    0.1925   -0.1653 C   0  0  0  0  0  0  0  0  0  0  0  0
    0.4431   -1.1614    0.0674 C   0  0  0  0  0  0  0  0  0  0  0  0
   -0.1542   -1.3755   -1.3312 C   0  0  0  0  0  0  0  0  0  0  0  0
   -0.9246   -0.0667   -1.3072 C   0  0  0  0  0  0  0  0  0  0  0  0
   -1.7239   -0.1187   -0.0072 C   0  0  0  0  0  0  0  0  0  0  0  0
   -1.7870    1.2376    0.4359 O   0  0  0  0  0  0  0  0  0  0  0  0
   -0.7155    1.9218   -0.0665 C   0  0  0  0  0  0  0  0  0  0  0  0
   -0.4728    3.0882    0.1813 O   0  0  0  0  0  0  0  0  0  0  0  0
    0.1066    1.0026   -0.9296 C   0  0  0  0  0  0  0  0  0  0  0  0
   -0.8289   -0.9616    0.9308 C   0  0  0  0  0  0  0  0  0  0  0  0
   -1.5934   -2.5320    1.3071 Cl  0  0  0  0  0  0  0  0  0  0  0  0
    2.1612    0.7023    2.8371 H   0  0  0  0  0  0  0  0  0  0  0  0
    2.0217   -0.0044   -0.8346 H   0  0  0  0  0  0  0  0  0  0  0  0
    1.1056   -1.9595    0.4119 H   0  0  0  0  0  0  0  0  0  0  0  0
    0.6025   -1.4105   -2.1220 H   0  0  0  0  0  0  0  0  0  0  0  0
   -0.8002   -2.2542   -1.4125 H   0  0  0  0  0  0  0  0  0  0  0  0
   -1.5168    0.1773   -2.1919 H   0  0  0  0  0  0  0  0  0  0  0  0
   -2.7360   -0.5132   -0.1381 H   0  0  0  0  0  0  0  0  0  0  0  0
    0.5052    1.5224   -1.8047 H   0  0  0  0  0  0  0  0  0  0  0  0
   -0.6413   -0.4651    1.8852 H   0  0  0  0  0  0  0  0  0  0  0  0
  1  2  2  0
  2  3  1  0
  2  4  1  0
  4  5  1  0
  5  6  1  0
  6  7  1  0
  7  8  1  0
  8  9  1  0
  9 10  1  0
 10 11  2  0
 10 12  1  0
  8 13  1  0
 13 14  1  0
 12  4  1  0
 13  5  1  0
 12  7  1  0
  3 15  1  0
  4 16  1  0
  5 17  1  0
  6 18  1  0
  6 19  1  0
  7 20  1  0
  8 21  1  0
 12 22  1  0
 13 23  1  0
M  END
$$$$
