
     RDKit          3D

 43 44  0  0  0  0  0  0  0  0999 V2000
   -5.3071    2.9202   -0.0198 C   0  0  0  0  0  0  0  0  0  0  0  0
   -4.7157    2.3359   -1.2889 C   0  0  0  0  0  0  0  0  0  0  0  0
   -3.5084    1.6241   -0.9900 O   0  0  0  0  0  0  0  0  0  0  0  0
   -3.6528    0.3159   -0.6202 C   0  0  0  0  0  0  0  0  0  0  0  0
   -4.7362   -0.2496   -0.5197 O   0  0  0  0  0  0  0  0  0  0  0  0
   -2.3696   -0.3536   -0.3466 C   0  0  0  0  0  0  0  0  0  0  0  0
   -1.1988    0.2479   -0.6033 N   0  0  0  0  0  0  0  0  0  0  0  0
   -0.2290   -0.6322   -0.2544 N   0  0  0  0  0  0  0  0  0  0  0  0
    1.1301   -0.1836   -0.2705 C   0  0  0  0  0  0  0  0  0  0  0  0
    2.1580   -0.8571    0.3978 C   0  0  0  0  0  0  0  0  0  0  0  0
    3.4755   -0.3732    0.3584 C   0  0  0  0  0  0  0  0  0  0  0  0
    3.7813    0.7941   -0.3385 C   0  0  0  0  0  0  0  0  0  0  0  0
    5.0171    1.3660   -0.4529 O   0  0  0  0  0  0  0  0  0  0  0  0
    6.1072    0.6924    0.1734 C   0  0  0  0  0  0  0  0  0  0  0  0
    7.3702    1.4884   -0.1024 C   0  0  0  0  0  0  0  0  0  0  0  0
    2.7565    1.4821   -0.9861 C   0  0  0  0  0  0  0  0  0  0  0  0
    1.4423    1.0059   -0.9491 C   0  0  0  0  0  0  0  0  0  0  0  0
   -0.7794   -1.8640    0.0805 C   0  0  0  0  0  0  0  0  0  0  0  0
   -0.0068   -3.1190    0.2945 C   0  0  0  0  0  0  0  0  0  0  0  0
   -2.1588   -1.6737    0.1377 C   0  0  0  0  0  0  0  0  0  0  0  0
   -3.1409   -2.6735    0.5509 C   0  0  0  0  0  0  0  0  0  0  0  0
   -4.2504   -2.2726    1.4905 C   0  0  0  0  0  0  0  0  0  0  0  0
   -3.0453   -3.8465    0.1894 O   0  0  0  0  0  0  0  0  0  0  0  0
   -6.1971    3.5146   -0.2447 H   0  0  0  0  0  0  0  0  0  0  0  0
   -5.5836    2.1301    0.6854 H   0  0  0  0  0  0  0  0  0  0  0  0
   -4.5752    3.5575    0.4872 H   0  0  0  0  0  0  0  0  0  0  0  0
   -5.4370    1.6968   -1.8110 H   0  0  0  0  0  0  0  0  0  0  0  0
   -4.4484    3.1453   -1.9762 H   0  0  0  0  0  0  0  0  0  0  0  0
    1.9797   -1.7384    1.0011 H   0  0  0  0  0  0  0  0  0  0  0  0
    4.2363   -0.9298    0.8962 H   0  0  0  0  0  0  0  0  0  0  0  0
    5.9482    0.6380    1.2565 H   0  0  0  0  0  0  0  0  0  0  0  0
    6.2217   -0.3155   -0.2419 H   0  0  0  0  0  0  0  0  0  0  0  0
    8.2398    1.0121    0.3589 H   0  0  0  0  0  0  0  0  0  0  0  0
    7.2766    2.5074    0.2875 H   0  0  0  0  0  0  0  0  0  0  0  0
    7.5441    1.5742   -1.1802 H   0  0  0  0  0  0  0  0  0  0  0  0
    2.9792    2.3996   -1.5259 H   0  0  0  0  0  0  0  0  0  0  0  0
    0.6738    1.5745   -1.4708 H   0  0  0  0  0  0  0  0  0  0  0  0
    0.8604   -3.1779   -0.3700 H   0  0  0  0  0  0  0  0  0  0  0  0
   -0.6077   -4.0048    0.0723 H   0  0  0  0  0  0  0  0  0  0  0  0
    0.3188   -3.1983    1.3360 H   0  0  0  0  0  0  0  0  0  0  0  0
   -4.2753   -2.9792    2.3258 H   0  0  0  0  0  0  0  0  0  0  0  0
   -5.2076   -2.3051    0.9649 H   0  0  0  0  0  0  0  0  0  0  0  0
   -4.0859   -1.2750    1.9056 H   0  0  0  0  0  0  0  0  0  0  0  0
  1  2  1  0
  2  3  1  0
  3  4  1  0
  4  5  2  0
  4  6  1  0
  6  7  2  0
  7  8  1  0
  8  9  1  0
  9 10  2  0
 10 11  1  0
 11 12  2  0
 12 13  1  0
 13 14  1  0
 14 15  1  0
 12 16  1  0
 16 17  2  0
  8 18  1  0
 18 19  1  0
 18 20  2  0
 20 21  1  0
 21 22  1  0
 21 23  2  0
 20  6  1  0
 17  9  1  0
  1 24  1  0
  1 25  1  0
  1 26  1  0
  2 27  1  0
  2 28  1  0
 10 29  1  0
 11 30  1  0
 14 31  1  0
 14 32  1  0
 15 33  1  0
 15 34  1  0
 15 35  1  0
 16 36  1  0
 17 37  1  0
 19 38  1  0
 19 39  1  0
 19 40  1  0
 22 41  1  0
 22 42  1  0
 22 43  1  0
M  END
$$$$
