
     RDKit          3D

 52 55  0  0  0  0  0  0  0  0999 V2000
   -2.4859    0.0753    1.1372 O   0  0  0  0  0  0  0  0  0  0  0  0
   -1.5835    0.0825    0.3020 C   0  0  0  0  0  0  0  0  0  0  0  0
   -1.3450   -1.0239   -0.5039 N   0  0  0  0  0  0  0  0  0  0  0  0
   -2.1660   -2.2106   -0.4179 C   0  0  0  0  0  0  0  0  0  0  0  0
   -3.5027   -2.0676   -1.1505 C   0  0  0  0  0  0  0  0  0  0  0  0
   -3.8319   -3.4575   -1.6999 C   0  0  0  0  0  0  0  0  0  0  0  0
   -2.6802   -4.3642   -1.2800 C   0  0  0  0  0  0  0  0  0  0  0  0
   -1.5103   -3.4159   -1.0805 C   0  0  0  0  0  0  0  0  0  0  0  0
   -0.7188    1.3366   -0.0552 C   0  0  0  0  0  0  0  0  0  0  0  0
   -0.9542    2.6044    0.7649 C   0  0  0  0  0  0  0  0  0  0  0  0
   -1.3758    2.6023    2.0995 C   0  0  0  0  0  0  0  0  0  0  0  0
   -1.5296    3.8127    2.7599 C   0  0  0  0  0  0  0  0  0  0  0  0
   -1.2829    5.0143    2.1976 N   0  0  0  0  0  0  0  0  0  0  0  0
   -0.8745    5.0065    0.9133 C   0  0  0  0  0  0  0  0  0  0  0  0
   -0.6951    3.8501    0.1695 C   0  0  0  0  0  0  0  0  0  0  0  0
    0.7302    1.0210   -0.2376 N   0  0  0  0  0  0  0  0  0  0  0  0
    1.1185    0.6077   -1.5305 C   0  0  0  0  0  0  0  0  0  0  0  0
    0.2634    0.3135   -2.3713 O   0  0  0  0  0  0  0  0  0  0  0  0
    2.5429    0.5792   -1.8363 C   0  0  0  0  0  0  0  0  0  0  0  0
    3.6581    1.1622   -1.2569 C   0  0  0  0  0  0  0  0  0  0  0  0
    4.7796    0.7689   -2.0269 C   0  0  0  0  0  0  0  0  0  0  0  0
    4.2885   -0.0184   -3.0388 C   0  0  0  0  0  0  0  0  0  0  0  0
    2.9412   -0.1347   -2.9387 O   0  0  0  0  0  0  0  0  0  0  0  0
    1.4181    0.5029    0.9103 C   0  0  0  0  0  0  0  0  0  0  0  0
    1.7061    1.3331    1.9982 C   0  0  0  0  0  0  0  0  0  0  0  0
    2.3820    0.8332    3.1141 C   0  0  0  0  0  0  0  0  0  0  0  0
    2.7805   -0.5007    3.1507 C   0  0  0  0  0  0  0  0  0  0  0  0
    2.5096   -1.3350    2.0695 C   0  0  0  0  0  0  0  0  0  0  0  0
    1.8356   -0.8362    0.9526 C   0  0  0  0  0  0  0  0  0  0  0  0
   -0.8851   -0.8375   -1.3955 H   0  0  0  0  0  0  0  0  0  0  0  0
   -2.3556   -2.4304    0.6410 H   0  0  0  0  0  0  0  0  0  0  0  0
   -4.2863   -1.7061   -0.4756 H   0  0  0  0  0  0  0  0  0  0  0  0
   -3.4346   -1.3501   -1.9774 H   0  0  0  0  0  0  0  0  0  0  0  0
   -4.7900   -3.8296   -1.3218 H   0  0  0  0  0  0  0  0  0  0  0  0
   -3.9046   -3.4150   -2.7933 H   0  0  0  0  0  0  0  0  0  0  0  0
   -2.4689   -5.1378   -2.0238 H   0  0  0  0  0  0  0  0  0  0  0  0
   -2.9245   -4.8625   -0.3340 H   0  0  0  0  0  0  0  0  0  0  0  0
   -1.0693   -3.1464   -2.0483 H   0  0  0  0  0  0  0  0  0  0  0  0
   -0.7201   -3.8520   -0.4618 H   0  0  0  0  0  0  0  0  0  0  0  0
   -1.1164    1.6069   -1.0465 H   0  0  0  0  0  0  0  0  0  0  0  0
   -1.5771    1.6826    2.6404 H   0  0  0  0  0  0  0  0  0  0  0  0
   -1.8610    3.8435    3.7942 H   0  0  0  0  0  0  0  0  0  0  0  0
   -0.6861    5.9854    0.4813 H   0  0  0  0  0  0  0  0  0  0  0  0
   -0.3558    3.9241   -0.8595 H   0  0  0  0  0  0  0  0  0  0  0  0
    3.6642    1.7993   -0.3835 H   0  0  0  0  0  0  0  0  0  0  0  0
    5.8159    1.0323   -1.8674 H   0  0  0  0  0  0  0  0  0  0  0  0
    4.7417   -0.5413   -3.8697 H   0  0  0  0  0  0  0  0  0  0  0  0
    1.4504    2.3888    1.9837 H   0  0  0  0  0  0  0  0  0  0  0  0
    2.6027    1.4899    3.9523 H   0  0  0  0  0  0  0  0  0  0  0  0
    3.3044   -0.8890    4.0207 H   0  0  0  0  0  0  0  0  0  0  0  0
    2.8178   -2.3773    2.0963 H   0  0  0  0  0  0  0  0  0  0  0  0
    1.6206   -1.5192    0.1338 H   0  0  0  0  0  0  0  0  0  0  0  0
  1  2  2  0
  2  3  1  0
  3  4  1  0
  4  5  1  0
  5  6  1  0
  6  7  1  0
  7  8  1  0
  2  9  1  0
  9 10  1  0
 10 11  2  0
 11 12  1  0
 12 13  2  0
 13 14  1  0
 14 15  2  0
  9 16  1  0
 16 17  1  0
 17 18  2  0
 17 19  1  0
 19 20  2  0
 20 21  1  0
 21 22  2  0
 22 23  1  0
 16 24  1  0
 24 25  2  0
 25 26  1  0
 26 27  2  0
 27 28  1  0
 28 29  2  0
  8  4  1  0
 15 10  1  0
 23 19  1  0
 29 24  1  0
  3 30  1  0
  4 31  1  0
  5 32  1  0
  5 33  1  0
  6 34  1  0
  6 35  1  0
  7 36  1  0
  7 37  1  0
  8 38  1  0
  8 39  1  0
  9 40  1  0
 11 41  1  0
 12 42  1  0
 14 43  1  0
 15 44  1  0
 20 45  1  0
 21 46  1  0
 22 47  1  0
 25 48  1  0
 26 49  1  0
 27 50  1  0
 28 51  1  0
 29 52  1  0
M  END
$$$$
