
     RDKit          3D

 50 51  0  0  0  0  0  0  0  0999 V2000
    9.0744   -1.3535    1.5095 C   0  0  0  0  0  0  0  0  0  0  0  0
    7.8943   -0.6429    1.1301 O   0  0  0  0  0  0  0  0  0  0  0  0
    7.2125   -1.2180    0.1096 C   0  0  0  0  0  0  0  0  0  0  0  0
    7.5370   -2.2373   -0.4794 O   0  0  0  0  0  0  0  0  0  0  0  0
    5.9865   -0.4367   -0.2126 C   0  0  0  0  0  0  0  0  0  0  0  0
    5.1584   -0.9039   -1.2421 C   0  0  0  0  0  0  0  0  0  0  0  0
    3.9921   -0.2123   -1.5812 C   0  0  0  0  0  0  0  0  0  0  0  0
    3.6411    0.9606   -0.9005 C   0  0  0  0  0  0  0  0  0  0  0  0
    2.3712    1.6955   -1.2403 C   0  0  0  0  0  0  0  0  0  0  0  0
    1.2916    1.2541   -0.3931 N   0  0  0  0  0  0  0  0  0  0  0  0
    0.7985    2.0120    0.6426 C   0  0  0  0  0  0  0  0  0  0  0  0
    1.1838    3.1506    0.8916 O   0  0  0  0  0  0  0  0  0  0  0  0
   -0.2741    1.3122    1.4814 C   0  0  0  0  0  0  0  0  0  0  0  0
   -1.5132    1.1303    0.7925 O   0  0  0  0  0  0  0  0  0  0  0  0
   -1.5677    0.0570   -0.0402 C   0  0  0  0  0  0  0  0  0  0  0  0
   -0.6447   -0.7223   -0.2428 O   0  0  0  0  0  0  0  0  0  0  0  0
   -2.9215   -0.0432   -0.6910 C   0  0  0  0  0  0  0  0  0  0  0  0
   -3.9472   -0.6185    0.2794 C   0  0  0  0  0  0  0  0  0  0  0  0
   -5.3213   -0.8034   -0.3647 C   0  0  0  0  0  0  0  0  0  0  0  0
   -5.9977    0.5020   -0.7813 C   0  0  0  0  0  0  0  0  0  0  0  0
   -7.4796    0.1528   -0.8890 C   0  0  0  0  0  0  0  0  0  0  0  0
   -7.6827   -1.1194   -0.0679 C   0  0  0  0  0  0  0  0  0  0  0  0
   -6.3436   -1.4037    0.5987 C   0  0  0  0  0  0  0  0  0  0  0  0
    4.4661    1.4206    0.1362 C   0  0  0  0  0  0  0  0  0  0  0  0
    5.6329    0.7302    0.4766 C   0  0  0  0  0  0  0  0  0  0  0  0
    9.5309   -0.8270    2.3519 H   0  0  0  0  0  0  0  0  0  0  0  0
    8.8225   -2.3692    1.8304 H   0  0  0  0  0  0  0  0  0  0  0  0
    9.7939   -1.3744    0.6836 H   0  0  0  0  0  0  0  0  0  0  0  0
    5.4163   -1.8135   -1.7827 H   0  0  0  0  0  0  0  0  0  0  0  0
    3.3594   -0.5991   -2.3780 H   0  0  0  0  0  0  0  0  0  0  0  0
    2.5224    2.7761   -1.1518 H   0  0  0  0  0  0  0  0  0  0  0  0
    2.0799    1.4934   -2.2764 H   0  0  0  0  0  0  0  0  0  0  0  0
    0.9770    0.2889   -0.4796 H   0  0  0  0  0  0  0  0  0  0  0  0
    0.1165    0.3605    1.8627 H   0  0  0  0  0  0  0  0  0  0  0  0
   -0.4793    1.9382    2.3555 H   0  0  0  0  0  0  0  0  0  0  0  0
   -2.8235   -0.6842   -1.5753 H   0  0  0  0  0  0  0  0  0  0  0  0
   -3.2084    0.9510   -1.0512 H   0  0  0  0  0  0  0  0  0  0  0  0
   -4.0293    0.0327    1.1587 H   0  0  0  0  0  0  0  0  0  0  0  0
   -3.5897   -1.5867    0.6520 H   0  0  0  0  0  0  0  0  0  0  0  0
   -5.2293   -1.4594   -1.2417 H   0  0  0  0  0  0  0  0  0  0  0  0
   -5.8567    1.2748   -0.0155 H   0  0  0  0  0  0  0  0  0  0  0  0
   -5.6065    0.8928   -1.7262 H   0  0  0  0  0  0  0  0  0  0  0  0
   -7.7602   -0.0265   -1.9329 H   0  0  0  0  0  0  0  0  0  0  0  0
   -8.1028    0.9738   -0.5209 H   0  0  0  0  0  0  0  0  0  0  0  0
   -8.4851   -1.0104    0.6676 H   0  0  0  0  0  0  0  0  0  0  0  0
   -7.9561   -1.9465   -0.7324 H   0  0  0  0  0  0  0  0  0  0  0  0
   -6.1862   -2.4751    0.7580 H   0  0  0  0  0  0  0  0  0  0  0  0
   -6.3002   -0.9072    1.5757 H   0  0  0  0  0  0  0  0  0  0  0  0
    4.1962    2.3201    0.6882 H   0  0  0  0  0  0  0  0  0  0  0  0
    6.2516    1.1142    1.2833 H   0  0  0  0  0  0  0  0  0  0  0  0
  1  2  1  0
  2  3  1  0
  3  4  2  0
  3  5  1  0
  5  6  2  0
  6  7  1  0
  7  8  2  0
  8  9  1  0
  9 10  1  0
 10 11  1  0
 11 12  2  0
 11 13  1  0
 13 14  1  0
 14 15  1  0
 15 16  2  0
 15 17  1  0
 17 18  1  0
 18 19  1  0
 19 20  1  0
 20 21  1  0
 21 22  1  0
 22 23  1  0
  8 24  1  0
 24 25  2  0
 25  5  1  0
 23 19  1  0
  1 26  1  0
  1 27  1  0
  1 28  1  0
  6 29  1  0
  7 30  1  0
  9 31  1  0
  9 32  1  0
 10 33  1  0
 13 34  1  0
 13 35  1  0
 17 36  1  0
 17 37  1  0
 18 38  1  0
 18 39  1  0
 19 40  1  0
 20 41  1  0
 20 42  1  0
 21 43  1  0
 21 44  1  0
 22 45  1  0
 22 46  1  0
 23 47  1  0
 23 48  1  0
 24 49  1  0
 25 50  1  0
M  END
$$$$
