
     RDKit          3D

 61 63  0  0  0  0  0  0  0  0999 V2000
    0.2743    6.2829   -4.5818 C   0  0  0  0  0  0  0  0  0  0  0  0
    0.4855    4.8805   -5.1312 C   0  0  0  0  0  0  0  0  0  0  0  0
    0.6974    3.8233   -4.0466 C   0  0  0  0  0  0  0  0  0  0  0  0
   -0.5042    3.6483   -3.1229 C   0  0  0  0  0  0  0  0  0  0  0  0
   -0.2946    2.5477   -2.2042 N   0  0  0  0  0  0  0  0  0  0  0  0
   -1.0702    2.4006   -1.0686 C   0  0  0  0  0  0  0  0  0  0  0  0
   -1.9226    3.2241   -0.7440 O   0  0  0  0  0  0  0  0  0  0  0  0
   -0.8347    1.0863   -0.3030 C   0  0  0  0  0  0  0  0  0  0  0  0
   -1.4546    1.0896    1.1091 C   0  0  0  0  0  0  0  0  0  0  0  0
   -0.6583    1.8208    2.1693 C   0  0  0  0  0  0  0  0  0  0  0  0
   -0.7730    3.2079    2.3239 C   0  0  0  0  0  0  0  0  0  0  0  0
   -0.0213    3.8775    3.2911 C   0  0  0  0  0  0  0  0  0  0  0  0
    0.8508    3.1684    4.1143 C   0  0  0  0  0  0  0  0  0  0  0  0
    0.9709    1.7877    3.9735 C   0  0  0  0  0  0  0  0  0  0  0  0
    0.2189    1.1165    3.0085 C   0  0  0  0  0  0  0  0  0  0  0  0
    0.5964    0.7309   -0.2337 N   0  0  0  0  0  0  0  0  0  0  0  0
    1.2680   -0.3544   -1.2913 S   0  0  0  0  0  6  0  0  0  0  0  0
    0.6633   -0.1096   -2.5835 O   0  0  0  0  0  0  0  0  0  0  0  0
    2.6970   -0.3206   -1.0967 O   0  0  0  0  0  0  0  0  0  0  0  0
    0.6778   -1.8996   -0.6601 C   0  0  0  0  0  0  0  0  0  0  0  0
   -0.1448   -2.7131   -1.4366 C   0  0  0  0  0  0  0  0  0  0  0  0
   -0.6112   -3.9238   -0.9108 C   0  0  0  0  0  0  0  0  0  0  0  0
   -0.2655   -4.3314    0.3900 C   0  0  0  0  0  0  0  0  0  0  0  0
    0.5556   -3.4958    1.1469 C   0  0  0  0  0  0  0  0  0  0  0  0
    1.0377   -2.2848    0.6300 C   0  0  0  0  0  0  0  0  0  0  0  0
    0.9132   -3.8859    2.5183 C   0  0  0  0  0  0  0  0  0  0  0  0
    1.5253   -3.0855    3.2214 O   0  0  0  0  0  0  0  0  0  0  0  0
    0.5049   -5.1424    2.9334 N   0  0  0  0  0  0  0  0  0  0  0  0
    0.8846   -5.5727    4.2672 C   0  0  0  0  0  0  0  0  0  0  0  0
   -0.3558   -5.9741    2.2255 C   0  0  0  0  0  0  0  0  0  0  0  0
   -0.7709   -7.0290    2.7101 O   0  0  0  0  0  0  0  0  0  0  0  0
   -0.7283   -5.5514    0.9510 N   0  0  0  0  0  0  0  0  0  0  0  0
   -1.6155   -6.4107    0.1764 C   0  0  0  0  0  0  0  0  0  0  0  0
   -0.6700    6.3597   -4.0342 H   0  0  0  0  0  0  0  0  0  0  0  0
    1.0893    6.5699   -3.9092 H   0  0  0  0  0  0  0  0  0  0  0  0
    0.2402    7.0070   -5.4025 H   0  0  0  0  0  0  0  0  0  0  0  0
   -0.3689    4.6031   -5.7604 H   0  0  0  0  0  0  0  0  0  0  0  0
    1.3682    4.8898   -5.7827 H   0  0  0  0  0  0  0  0  0  0  0  0
    0.9177    2.8666   -4.5367 H   0  0  0  0  0  0  0  0  0  0  0  0
    1.5850    4.0735   -3.4522 H   0  0  0  0  0  0  0  0  0  0  0  0
   -1.4091    3.4242   -3.6987 H   0  0  0  0  0  0  0  0  0  0  0  0
   -0.6905    4.5570   -2.5408 H   0  0  0  0  0  0  0  0  0  0  0  0
    0.1160    1.6956   -2.5857 H   0  0  0  0  0  0  0  0  0  0  0  0
   -1.3774    0.3233   -0.8769 H   0  0  0  0  0  0  0  0  0  0  0  0
   -1.5715    0.0467    1.4354 H   0  0  0  0  0  0  0  0  0  0  0  0
   -2.4740    1.4962    1.0851 H   0  0  0  0  0  0  0  0  0  0  0  0
   -1.4537    3.7816    1.6973 H   0  0  0  0  0  0  0  0  0  0  0  0
   -0.1211    4.9543    3.4033 H   0  0  0  0  0  0  0  0  0  0  0  0
    1.4330    3.6906    4.8688 H   0  0  0  0  0  0  0  0  0  0  0  0
    1.6461    1.2310    4.6187 H   0  0  0  0  0  0  0  0  0  0  0  0
    0.3245    0.0370    2.9214 H   0  0  0  0  0  0  0  0  0  0  0  0
    1.2328    1.3634    0.2551 H   0  0  0  0  0  0  0  0  0  0  0  0
   -0.4250   -2.4220   -2.4476 H   0  0  0  0  0  0  0  0  0  0  0  0
   -1.2475   -4.5320   -1.5490 H   0  0  0  0  0  0  0  0  0  0  0  0
    1.6882   -1.6497    1.2303 H   0  0  0  0  0  0  0  0  0  0  0  0
    1.1610   -6.6320    4.2531 H   0  0  0  0  0  0  0  0  0  0  0  0
    1.7279   -4.9968    4.6571 H   0  0  0  0  0  0  0  0  0  0  0  0
    0.0242   -5.4448    4.9324 H   0  0  0  0  0  0  0  0  0  0  0  0
   -1.9122   -7.3076    0.7276 H   0  0  0  0  0  0  0  0  0  0  0  0
   -1.1021   -6.7349   -0.7347 H   0  0  0  0  0  0  0  0  0  0  0  0
   -2.5271   -5.8589   -0.0749 H   0  0  0  0  0  0  0  0  0  0  0  0
  1  2  1  0
  2  3  1  0
  3  4  1  0
  4  5  1  0
  5  6  1  0
  6  7  2  0
  6  8  1  0
  8  9  1  0
  9 10  1  0
 10 11  2  0
 11 12  1  0
 12 13  2  0
 13 14  1  0
 14 15  2  0
  8 16  1  0
 16 17  1  0
 17 18  2  0
 17 19  2  0
 17 20  1  0
 20 21  2  0
 21 22  1  0
 22 23  2  0
 23 24  1  0
 24 25  2  0
 24 26  1  0
 26 27  2  0
 26 28  1  0
 28 29  1  0
 28 30  1  0
 30 31  2  0
 30 32  1  0
 32 33  1  0
 15 10  1  0
 25 20  1  0
 32 23  1  0
  1 34  1  0
  1 35  1  0
  1 36  1  0
  2 37  1  0
  2 38  1  0
  3 39  1  0
  3 40  1  0
  4 41  1  0
  4 42  1  0
  5 43  1  0
  8 44  1  0
  9 45  1  0
  9 46  1  0
 11 47  1  0
 12 48  1  0
 13 49  1  0
 14 50  1  0
 15 51  1  0
 16 52  1  0
 21 53  1  0
 22 54  1  0
 25 55  1  0
 29 56  1  0
 29 57  1  0
 29 58  1  0
 33 59  1  0
 33 60  1  0
 33 61  1  0
M  END
$$$$
