
     RDKit          3D

 53 55  0  0  0  0  0  0  0  0999 V2000
    4.4709    4.4432   -0.5183 C   0  0  0  0  0  0  0  0  0  0  0  0
    4.9650    3.0494   -0.5455 C   0  0  0  0  0  0  0  0  0  0  0  0
    6.2919    2.8760   -0.2890 O   0  0  0  0  0  0  0  0  0  0  0  0
    6.5342    1.5433   -0.3288 C   0  0  0  0  0  0  0  0  0  0  0  0
    5.3795    0.8550   -0.6132 C   0  0  0  0  0  0  0  0  0  0  0  0
    4.3506    1.8303   -0.7854 C   0  0  0  0  0  0  0  0  0  0  0  0
    2.9289    1.6610   -1.0596 C   0  0  0  0  0  0  0  0  0  0  0  0
    2.1016    2.3823   -0.5032 O   0  0  0  0  0  0  0  0  0  0  0  0
    2.5362    0.6439   -1.9353 N   0  0  0  0  0  0  0  0  0  0  0  0
    3.4092    0.0018   -2.9086 C   0  0  0  0  0  0  0  0  0  0  0  0
    1.1180    0.2837   -1.9764 C   0  0  0  0  0  0  0  0  0  0  0  0
    0.6554   -0.5058   -0.7383 C   0  0  0  0  0  0  0  0  0  0  0  0
    1.3421   -1.8695   -0.6168 C   0  0  0  0  0  0  0  0  0  0  0  0
    0.8458   -2.6354    0.6149 C   0  0  0  0  0  0  0  0  0  0  0  0
   -0.4835   -2.1100    1.1666 C   0  0  0  0  0  0  0  0  0  0  0  0
   -1.3769   -1.7779    0.0647 N   0  0  0  0  0  0  0  0  0  0  0  0
   -2.7851   -1.6184    0.4521 C   0  0  0  0  0  0  0  0  0  0  0  0
   -3.0847   -0.5615    1.5314 C   0  0  0  0  0  0  0  0  0  0  0  0
   -4.5614   -0.4739    1.8275 C   0  0  0  0  0  0  0  0  0  0  0  0
   -5.1159   -1.1356    2.9312 C   0  0  0  0  0  0  0  0  0  0  0  0
   -6.4881   -1.0568    3.1848 C   0  0  0  0  0  0  0  0  0  0  0  0
   -7.3186   -0.3215    2.3384 C   0  0  0  0  0  0  0  0  0  0  0  0
   -6.7774    0.3352    1.2351 C   0  0  0  0  0  0  0  0  0  0  0  0
   -5.4103    0.2534    0.9879 C   0  0  0  0  0  0  0  0  0  0  0  0
   -4.9076    0.8850   -0.0827 F   0  0  0  0  0  0  0  0  0  0  0  0
   -0.8799   -0.6801   -0.7757 C   0  0  0  0  0  0  0  0  0  0  0  0
    3.8492    4.6097    0.3667 H   0  0  0  0  0  0  0  0  0  0  0  0
    5.2997    5.1576   -0.4916 H   0  0  0  0  0  0  0  0  0  0  0  0
    3.8717    4.6568   -1.4089 H   0  0  0  0  0  0  0  0  0  0  0  0
    7.5538    1.2476   -0.1240 H   0  0  0  0  0  0  0  0  0  0  0  0
    5.2837   -0.2195   -0.6739 H   0  0  0  0  0  0  0  0  0  0  0  0
    4.3516    0.5372   -3.0354 H   0  0  0  0  0  0  0  0  0  0  0  0
    2.9112   -0.0093   -3.8832 H   0  0  0  0  0  0  0  0  0  0  0  0
    3.6017   -1.0256   -2.5897 H   0  0  0  0  0  0  0  0  0  0  0  0
    0.5391    1.2126   -2.0558 H   0  0  0  0  0  0  0  0  0  0  0  0
    0.9182   -0.2913   -2.8887 H   0  0  0  0  0  0  0  0  0  0  0  0
    0.9088    0.0724    0.1610 H   0  0  0  0  0  0  0  0  0  0  0  0
    2.4306   -1.7620   -0.5544 H   0  0  0  0  0  0  0  0  0  0  0  0
    1.1380   -2.4642   -1.5166 H   0  0  0  0  0  0  0  0  0  0  0  0
    0.7509   -3.6968    0.3536 H   0  0  0  0  0  0  0  0  0  0  0  0
    1.6001   -2.5798    1.4093 H   0  0  0  0  0  0  0  0  0  0  0  0
   -0.3046   -1.2387    1.8090 H   0  0  0  0  0  0  0  0  0  0  0  0
   -0.9189   -2.8907    1.8021 H   0  0  0  0  0  0  0  0  0  0  0  0
   -3.3748   -1.4091   -0.4505 H   0  0  0  0  0  0  0  0  0  0  0  0
   -3.1502   -2.5932    0.8031 H   0  0  0  0  0  0  0  0  0  0  0  0
   -2.5497   -0.7998    2.4587 H   0  0  0  0  0  0  0  0  0  0  0  0
   -2.7291    0.4291    1.2252 H   0  0  0  0  0  0  0  0  0  0  0  0
   -4.4842   -1.7159    3.6001 H   0  0  0  0  0  0  0  0  0  0  0  0
   -6.9100   -1.5714    4.0450 H   0  0  0  0  0  0  0  0  0  0  0  0
   -8.3854   -0.2622    2.5381 H   0  0  0  0  0  0  0  0  0  0  0  0
   -7.4098    0.9088    0.5654 H   0  0  0  0  0  0  0  0  0  0  0  0
   -1.3238    0.2811   -0.4904 H   0  0  0  0  0  0  0  0  0  0  0  0
   -1.2076   -0.8809   -1.8033 H   0  0  0  0  0  0  0  0  0  0  0  0
  1  2  1  0
  2  3  1  0
  3  4  1  0
  4  5  2  0
  5  6  1  0
  6  7  1  0
  7  8  2  0
  7  9  1  0
  9 10  1  0
  9 11  1  0
 11 12  1  0
 12 13  1  0
 13 14  1  0
 14 15  1  0
 15 16  1  0
 16 17  1  0
 17 18  1  0
 18 19  1  0
 19 20  2  0
 20 21  1  0
 21 22  2  0
 22 23  1  0
 23 24  2  0
 24 25  1  0
 16 26  1  0
  6  2  2  0
 26 12  1  0
 24 19  1  0
  1 27  1  0
  1 28  1  0
  1 29  1  0
  4 30  1  0
  5 31  1  0
 10 32  1  0
 10 33  1  0
 10 34  1  0
 11 35  1  0
 11 36  1  0
 12 37  1  0
 13 38  1  0
 13 39  1  0
 14 40  1  0
 14 41  1  0
 15 42  1  0
 15 43  1  0
 17 44  1  0
 17 45  1  0
 18 46  1  0
 18 47  1  0
 20 48  1  0
 21 49  1  0
 22 50  1  0
 23 51  1  0
 26 52  1  0
 26 53  1  0
M  END
$$$$
