
     RDKit          3D

 48 49  0  0  0  0  0  0  0  0999 V2000
   -0.2458    3.2370   -0.8916 C   0  0  0  0  0  0  0  0  0  0  0  0
    0.7650    2.2500   -0.7202 O   0  0  0  0  0  0  0  0  0  0  0  0
    0.3550    0.9423   -0.6771 C   0  0  0  0  0  0  0  0  0  0  0  0
   -0.8741    0.4938   -1.1773 C   0  0  0  0  0  0  0  0  0  0  0  0
   -1.2527   -0.8552   -1.0695 C   0  0  0  0  0  0  0  0  0  0  0  0
   -2.5870   -1.3220   -1.5982 C   0  0  0  0  0  0  0  0  0  0  0  0
   -3.5158   -1.8002   -0.5793 N   0  0  0  0  0  0  0  0  0  0  0  0
   -4.2273   -0.8190    0.2666 C   0  0  0  0  0  0  0  0  0  0  0  0
   -5.3858   -1.6229    0.9008 C   0  0  0  0  0  0  0  0  0  0  0  0
   -3.3415   -0.3119    1.4204 C   0  0  0  0  0  0  0  0  0  0  0  0
   -4.8165    0.3825   -0.5258 C   0  0  0  0  0  0  0  0  0  0  0  0
   -5.6009    1.2524    0.2871 O   0  0  0  0  0  0  0  0  0  0  0  0
   -0.3688   -1.7620   -0.4690 C   0  0  0  0  0  0  0  0  0  0  0  0
    0.8662   -1.3280    0.0161 C   0  0  0  0  0  0  0  0  0  0  0  0
    2.0123   -2.6150    0.8137 Br  0  0  0  0  0  0  0  0  0  0  0  0
    1.2424    0.0152   -0.1036 C   0  0  0  0  0  0  0  0  0  0  0  0
    2.4532    0.3971    0.4226 O   0  0  0  0  0  0  0  0  0  0  0  0
    3.3354    0.9329   -0.5668 C   0  0  0  0  0  0  0  0  0  0  0  0
    4.7421    0.5212   -0.2019 C   0  0  0  0  0  0  0  0  0  0  0  0
    5.2953   -0.6582   -0.7225 C   0  0  0  0  0  0  0  0  0  0  0  0
    6.5870   -1.0515   -0.3655 C   0  0  0  0  0  0  0  0  0  0  0  0
    7.3279   -0.2720    0.5201 C   0  0  0  0  0  0  0  0  0  0  0  0
    8.9193   -0.7567    0.9604 Cl  0  0  0  0  0  0  0  0  0  0  0  0
    6.7873    0.8949    1.0558 C   0  0  0  0  0  0  0  0  0  0  0  0
    5.4954    1.2881    0.6994 C   0  0  0  0  0  0  0  0  0  0  0  0
   -1.0642    3.1041   -0.1758 H   0  0  0  0  0  0  0  0  0  0  0  0
   -0.6166    3.2374   -1.9216 H   0  0  0  0  0  0  0  0  0  0  0  0
    0.2074    4.2148   -0.7019 H   0  0  0  0  0  0  0  0  0  0  0  0
   -1.5640    1.1852   -1.6521 H   0  0  0  0  0  0  0  0  0  0  0  0
   -2.3858   -2.1606   -2.2781 H   0  0  0  0  0  0  0  0  0  0  0  0
   -3.0475   -0.5640   -2.2410 H   0  0  0  0  0  0  0  0  0  0  0  0
   -3.0577   -2.4962    0.0075 H   0  0  0  0  0  0  0  0  0  0  0  0
   -5.9527   -1.0214    1.6200 H   0  0  0  0  0  0  0  0  0  0  0  0
   -6.0887   -1.9763    0.1369 H   0  0  0  0  0  0  0  0  0  0  0  0
   -5.0152   -2.5010    1.4443 H   0  0  0  0  0  0  0  0  0  0  0  0
   -2.8493   -1.1406    1.9429 H   0  0  0  0  0  0  0  0  0  0  0  0
   -2.5672    0.3764    1.0728 H   0  0  0  0  0  0  0  0  0  0  0  0
   -3.9351    0.2300    2.1662 H   0  0  0  0  0  0  0  0  0  0  0  0
   -4.0167    0.9987   -0.9475 H   0  0  0  0  0  0  0  0  0  0  0  0
   -5.4430    0.0390   -1.3571 H   0  0  0  0  0  0  0  0  0  0  0  0
   -6.4507    0.8087    0.4515 H   0  0  0  0  0  0  0  0  0  0  0  0
   -0.6458   -2.8106   -0.3836 H   0  0  0  0  0  0  0  0  0  0  0  0
    3.2681    2.0271   -0.5672 H   0  0  0  0  0  0  0  0  0  0  0  0
    3.1023    0.5769   -1.5800 H   0  0  0  0  0  0  0  0  0  0  0  0
    4.7174   -1.2818   -1.4017 H   0  0  0  0  0  0  0  0  0  0  0  0
    7.0040   -1.9676   -0.7744 H   0  0  0  0  0  0  0  0  0  0  0  0
    7.3604    1.4973    1.7554 H   0  0  0  0  0  0  0  0  0  0  0  0
    5.0729    2.1914    1.1351 H   0  0  0  0  0  0  0  0  0  0  0  0
  1  2  1  0
  2  3  1  0
  3  4  2  0
  4  5  1  0
  5  6  1  0
  6  7  1  0
  7  8  1  0
  8  9  1  0
  8 10  1  0
  8 11  1  0
 11 12  1  0
  5 13  2  0
 13 14  1  0
 14 15  1  0
 14 16  2  0
 16 17  1  0
 17 18  1  0
 18 19  1  0
 19 20  2  0
 20 21  1  0
 21 22  2  0
 22 23  1  0
 22 24  1  0
 24 25  2  0
 16  3  1  0
 25 19  1  0
  1 26  1  0
  1 27  1  0
  1 28  1  0
  4 29  1  0
  6 30  1  0
  6 31  1  0
  7 32  1  0
  9 33  1  0
  9 34  1  0
  9 35  1  0
 10 36  1  0
 10 37  1  0
 10 38  1  0
 11 39  1  0
 11 40  1  0
 12 41  1  0
 13 42  1  0
 18 43  1  0
 18 44  1  0
 20 45  1  0
 21 46  1  0
 24 47  1  0
 25 48  1  0
M  END
$$$$
