
     RDKit          3D

 68 71  0  0  0  0  0  0  0  0999 V2000
   -1.0688   -0.4018   -2.5407 C   0  0  0  0  0  0  0  0  0  0  0  0
   -0.8471    0.7917   -1.6105 C   0  0  0  0  0  0  0  0  0  0  0  0
   -1.6665    1.8517   -2.1283 O   0  0  0  0  0  0  0  0  0  0  0  0
   -1.3061    3.0799   -1.6444 C   0  0  0  0  0  0  0  0  0  0  0  0
   -2.2063    3.7452   -0.8144 C   0  0  0  0  0  0  0  0  0  0  0  0
   -1.8951    5.0136   -0.3260 C   0  0  0  0  0  0  0  0  0  0  0  0
   -0.6939    5.6223   -0.6885 C   0  0  0  0  0  0  0  0  0  0  0  0
    0.1896    4.9676   -1.5472 C   0  0  0  0  0  0  0  0  0  0  0  0
   -0.1171    3.6945   -2.0304 C   0  0  0  0  0  0  0  0  0  0  0  0
   -1.2532    0.3718   -0.1677 C   0  0  0  0  0  0  0  0  0  0  0  0
   -2.3167    0.7543    0.3336 O   0  0  0  0  0  0  0  0  0  0  0  0
   -0.4306   -0.5317    0.5229 N   0  0  0  0  0  0  0  0  0  0  0  0
   -1.0259   -1.2222    1.6849 C   0  0  0  0  0  0  0  0  0  0  0  0
   -2.1255   -2.2296    1.2985 C   0  0  0  0  0  0  0  0  0  0  0  0
   -2.6906   -3.0900    2.4163 C   0  0  0  0  0  0  0  0  0  0  0  0
   -2.5059   -2.8662    3.7315 C   0  0  0  0  0  0  0  0  0  0  0  0
   -3.0405   -3.7587    4.8155 C   0  0  0  0  0  0  0  0  0  0  0  0
   -3.4855   -5.1265    4.3008 C   0  0  0  0  0  0  0  0  0  0  0  0
   -4.3056   -4.9820    3.0260 C   0  0  0  0  0  0  0  0  0  0  0  0
   -3.5109   -4.2679    1.9304 C   0  0  0  0  0  0  0  0  0  0  0  0
    0.9395   -0.7137    0.2900 C   0  0  0  0  0  0  0  0  0  0  0  0
    1.8394    0.3068    0.2436 C   0  0  0  0  0  0  0  0  0  0  0  0
    1.4319    1.6102    0.5121 N   0  0  0  0  0  0  0  0  0  0  0  0
    3.1800    0.0367   -0.0464 N   0  0  0  0  0  0  0  0  0  0  0  0
    4.1311    1.1215   -0.3249 C   0  0  0  0  0  0  0  0  0  0  0  0
    3.9585    1.7467   -1.6937 C   0  0  0  0  0  0  0  0  0  0  0  0
    3.7126    3.1220   -1.8198 C   0  0  0  0  0  0  0  0  0  0  0  0
    3.5909    3.7097   -3.0809 C   0  0  0  0  0  0  0  0  0  0  0  0
    3.7084    2.9303   -4.2294 C   0  0  0  0  0  0  0  0  0  0  0  0
    3.9580    1.5643   -4.1190 C   0  0  0  0  0  0  0  0  0  0  0  0
    4.0885    0.9761   -2.8597 C   0  0  0  0  0  0  0  0  0  0  0  0
    3.6725   -1.2547   -0.1798 C   0  0  0  0  0  0  0  0  0  0  0  0
    4.8226   -1.5370   -0.5109 O   0  0  0  0  0  0  0  0  0  0  0  0
    2.7986   -2.2603    0.0786 N   0  0  0  0  0  0  0  0  0  0  0  0
    1.4532   -2.1141    0.1708 C   0  0  0  0  0  0  0  0  0  0  0  0
    0.7191   -3.0948    0.1367 O   0  0  0  0  0  0  0  0  0  0  0  0
   -2.1215   -0.7069   -2.5350 H   0  0  0  0  0  0  0  0  0  0  0  0
   -0.8241   -0.1316   -3.5743 H   0  0  0  0  0  0  0  0  0  0  0  0
   -0.4620   -1.2661   -2.2564 H   0  0  0  0  0  0  0  0  0  0  0  0
    0.2057    1.0691   -1.6747 H   0  0  0  0  0  0  0  0  0  0  0  0
   -3.1417    3.2651   -0.5373 H   0  0  0  0  0  0  0  0  0  0  0  0
   -2.5890    5.5223    0.3360 H   0  0  0  0  0  0  0  0  0  0  0  0
   -0.4521    6.6129   -0.3114 H   0  0  0  0  0  0  0  0  0  0  0  0
    1.1160    5.4505   -1.8443 H   0  0  0  0  0  0  0  0  0  0  0  0
    0.5676    3.1926   -2.7080 H   0  0  0  0  0  0  0  0  0  0  0  0
   -1.4482   -0.4491    2.3399 H   0  0  0  0  0  0  0  0  0  0  0  0
   -0.2350   -1.7192    2.2613 H   0  0  0  0  0  0  0  0  0  0  0  0
   -2.9627   -1.7001    0.8296 H   0  0  0  0  0  0  0  0  0  0  0  0
   -1.7279   -2.8973    0.5259 H   0  0  0  0  0  0  0  0  0  0  0  0
   -1.9499   -2.0018    4.0813 H   0  0  0  0  0  0  0  0  0  0  0  0
   -3.8829   -3.2480    5.2975 H   0  0  0  0  0  0  0  0  0  0  0  0
   -2.2698   -3.8994    5.5829 H   0  0  0  0  0  0  0  0  0  0  0  0
   -4.0691   -5.6413    5.0730 H   0  0  0  0  0  0  0  0  0  0  0  0
   -2.6010   -5.7468    4.0995 H   0  0  0  0  0  0  0  0  0  0  0  0
   -5.2262   -4.4226    3.2449 H   0  0  0  0  0  0  0  0  0  0  0  0
   -4.6208   -5.9697    2.6693 H   0  0  0  0  0  0  0  0  0  0  0  0
   -2.8295   -4.9858    1.4553 H   0  0  0  0  0  0  0  0  0  0  0  0
   -4.2118   -3.9344    1.1551 H   0  0  0  0  0  0  0  0  0  0  0  0
    2.1265    2.1627    1.0006 H   0  0  0  0  0  0  0  0  0  0  0  0
    0.5398    1.6662    1.0040 H   0  0  0  0  0  0  0  0  0  0  0  0
    4.0588    1.8725    0.4706 H   0  0  0  0  0  0  0  0  0  0  0  0
    5.1633    0.7536   -0.2585 H   0  0  0  0  0  0  0  0  0  0  0  0
    3.6165    3.7490   -0.9366 H   0  0  0  0  0  0  0  0  0  0  0  0
    3.4026    4.7766   -3.1680 H   0  0  0  0  0  0  0  0  0  0  0  0
    3.6123    3.3883   -5.2100 H   0  0  0  0  0  0  0  0  0  0  0  0
    4.0609    0.9569   -5.0146 H   0  0  0  0  0  0  0  0  0  0  0  0
    4.3087   -0.0874   -2.7969 H   0  0  0  0  0  0  0  0  0  0  0  0
    3.1438   -3.1963   -0.0610 H   0  0  0  0  0  0  0  0  0  0  0  0
  1  2  1  0
  2  3  1  0
  3  4  1  0
  4  5  2  0
  5  6  1  0
  6  7  2  0
  7  8  1  0
  8  9  2  0
  2 10  1  0
 10 11  2  0
 10 12  1  0
 12 13  1  0
 13 14  1  0
 14 15  1  0
 15 16  2  0
 16 17  1  0
 17 18  1  0
 18 19  1  0
 19 20  1  0
 12 21  1  0
 21 22  2  0
 22 23  1  0
 22 24  1  0
 24 25  1  0
 25 26  1  0
 26 27  2  0
 27 28  1  0
 28 29  2  0
 29 30  1  0
 30 31  2  0
 24 32  1  0
 32 33  2  0
 32 34  1  0
 34 35  1  0
 35 36  2  0
  9  4  1  0
 20 15  1  0
 35 21  1  0
 31 26  1  0
  1 37  1  0
  1 38  1  0
  1 39  1  0
  2 40  1  0
  5 41  1  0
  6 42  1  0
  7 43  1  0
  8 44  1  0
  9 45  1  0
 13 46  1  0
 13 47  1  0
 14 48  1  0
 14 49  1  0
 16 50  1  0
 17 51  1  0
 17 52  1  0
 18 53  1  0
 18 54  1  0
 19 55  1  0
 19 56  1  0
 20 57  1  0
 20 58  1  0
 23 59  1  0
 23 60  1  0
 25 61  1  0
 25 62  1  0
 27 63  1  0
 28 64  1  0
 29 65  1  0
 30 66  1  0
 31 67  1  0
 34 68  1  0
M  END
$$$$
