
     RDKit          3D

 55 59  0  0  0  0  0  0  0  0999 V2000
   -1.5421   -0.6034   -1.2874 C   0  0  0  0  0  0  0  0  0  0  0  0
   -2.4258    0.2607   -0.4278 C   0  0  0  0  0  0  0  0  0  0  0  0
   -3.6902   -0.1481   -0.0040 C   0  0  0  0  0  0  0  0  0  0  0  0
   -4.2719   -1.4711   -0.2877 C   0  0  0  0  0  0  0  0  0  0  0  0
   -5.4958   -1.5778   -0.9756 C   0  0  0  0  0  0  0  0  0  0  0  0
   -6.0567   -2.8260   -1.2612 C   0  0  0  0  0  0  0  0  0  0  0  0
   -5.4064   -3.9900   -0.8573 C   0  0  0  0  0  0  0  0  0  0  0  0
   -4.2012   -3.8999   -0.1642 C   0  0  0  0  0  0  0  0  0  0  0  0
   -3.3841   -5.3374    0.3219 Cl  0  0  0  0  0  0  0  0  0  0  0  0
   -3.6387   -2.6570    0.1274 C   0  0  0  0  0  0  0  0  0  0  0  0
   -4.5087    0.6538    0.7239 N   0  0  0  0  0  0  0  0  0  0  0  0
   -4.1013    1.8787    1.0864 C   0  0  0  0  0  0  0  0  0  0  0  0
   -4.9717    2.6673    1.8274 C   0  0  0  0  0  0  0  0  0  0  0  0
   -4.6269    3.9521    2.2506 C   0  0  0  0  0  0  0  0  0  0  0  0
   -3.3798    4.4694    1.9266 C   0  0  0  0  0  0  0  0  0  0  0  0
   -2.4859    3.6942    1.1882 C   0  0  0  0  0  0  0  0  0  0  0  0
   -2.8333    2.3864    0.7585 C   0  0  0  0  0  0  0  0  0  0  0  0
   -1.9966    1.5277    0.0097 C   0  0  0  0  0  0  0  0  0  0  0  0
   -0.6251    1.9696   -0.3024 C   0  0  0  0  0  0  0  0  0  0  0  0
   -0.3206    2.7628   -1.1763 O   0  0  0  0  0  0  0  0  0  0  0  0
    0.2209    1.3626    0.5682 O   0  0  0  0  0  0  0  0  0  0  0  0
    1.5950    1.6726    0.3406 C   0  0  0  0  0  0  0  0  0  0  0  0
    2.1657    0.9496   -0.8772 C   0  0  0  0  0  0  0  0  0  0  0  0
    1.6042   -0.0343   -1.3737 O   0  0  0  0  0  0  0  0  0  0  0  0
    3.5121    1.4324   -1.3691 C   0  0  0  0  0  0  0  0  0  0  0  0
    3.5345    1.5032   -2.8347 C   0  0  0  0  0  0  0  0  0  0  0  0
    3.5657    1.5523   -3.9943 N   0  0  0  0  0  0  0  0  0  0  0  0
    4.5328    0.4686   -0.8503 C   0  0  0  0  0  0  0  0  0  0  0  0
    5.4517    0.7268    0.0615 N   0  0  0  0  0  0  0  0  0  0  0  0
    6.1205   -0.4602    0.2617 C   0  0  0  0  0  0  0  0  0  0  0  0
    7.1923   -0.7562    1.1181 C   0  0  0  0  0  0  0  0  0  0  0  0
    7.6879   -2.0674    1.1450 C   0  0  0  0  0  0  0  0  0  0  0  0
    7.1263   -3.0621    0.3384 C   0  0  0  0  0  0  0  0  0  0  0  0
    6.0581   -2.7841   -0.5231 C   0  0  0  0  0  0  0  0  0  0  0  0
    5.5878   -1.4692   -0.5314 C   0  0  0  0  0  0  0  0  0  0  0  0
    4.5818   -0.8566   -1.2332 N   0  0  0  0  0  0  0  0  0  0  0  0
   -2.1185   -1.3127   -1.8897 H   0  0  0  0  0  0  0  0  0  0  0  0
   -0.9971    0.0055   -2.0160 H   0  0  0  0  0  0  0  0  0  0  0  0
   -0.8325   -1.1588   -0.6667 H   0  0  0  0  0  0  0  0  0  0  0  0
   -6.0167   -0.6743   -1.2920 H   0  0  0  0  0  0  0  0  0  0  0  0
   -7.0023   -2.8851   -1.7962 H   0  0  0  0  0  0  0  0  0  0  0  0
   -5.8420   -4.9595   -1.0845 H   0  0  0  0  0  0  0  0  0  0  0  0
   -2.7004   -2.6095    0.6796 H   0  0  0  0  0  0  0  0  0  0  0  0
   -5.9523    2.2659    2.0866 H   0  0  0  0  0  0  0  0  0  0  0  0
   -5.3360    4.5420    2.8260 H   0  0  0  0  0  0  0  0  0  0  0  0
   -3.1024    5.4715    2.2432 H   0  0  0  0  0  0  0  0  0  0  0  0
   -1.5192    4.1284    0.9352 H   0  0  0  0  0  0  0  0  0  0  0  0
    1.7263    2.7580    0.2467 H   0  0  0  0  0  0  0  0  0  0  0  0
    2.1588    1.3388    1.2204 H   0  0  0  0  0  0  0  0  0  0  0  0
    3.7088    2.4327   -0.9624 H   0  0  0  0  0  0  0  0  0  0  0  0
    7.6239    0.0195    1.7436 H   0  0  0  0  0  0  0  0  0  0  0  0
    8.5161   -2.3144    1.8059 H   0  0  0  0  0  0  0  0  0  0  0  0
    7.5268   -4.0735    0.3812 H   0  0  0  0  0  0  0  0  0  0  0  0
    5.6198   -3.5549   -1.1464 H   0  0  0  0  0  0  0  0  0  0  0  0
    3.9644   -1.3097   -1.8978 H   0  0  0  0  0  0  0  0  0  0  0  0
  1  2  1  0
  2  3  2  0
  3  4  1  0
  4  5  2  0
  5  6  1  0
  6  7  2  0
  7  8  1  0
  8  9  1  0
  8 10  2  0
  3 11  1  0
 11 12  2  0
 12 13  1  0
 13 14  2  0
 14 15  1  0
 15 16  2  0
 16 17  1  0
 17 18  2  0
 18 19  1  0
 19 20  2  0
 19 21  1  0
 21 22  1  0
 22 23  1  0
 23 24  2  0
 23 25  1  0
 25 26  1  0
 26 27  3  0
 25 28  1  0
 28 29  2  0
 29 30  1  0
 30 31  2  0
 31 32  1  0
 32 33  2  0
 33 34  1  0
 34 35  2  0
 35 36  1  0
 18  2  1  0
 36 28  1  0
 10  4  1  0
 17 12  1  0
 35 30  1  0
  1 37  1  0
  1 38  1  0
  1 39  1  0
  5 40  1  0
  6 41  1  0
  7 42  1  0
 10 43  1  0
 13 44  1  0
 14 45  1  0
 15 46  1  0
 16 47  1  0
 22 48  1  0
 22 49  1  0
 25 50  1  0
 31 51  1  0
 32 52  1  0
 33 53  1  0
 34 54  1  0
 36 55  1  0
M  END
$$$$
