
     RDKit          3D

 58 60  0  0  0  0  0  0  0  0999 V2000
   -6.9702    0.9946    0.0678 C   0  0  0  0  0  0  0  0  0  0  0  0
   -6.8464   -0.3128   -0.4710 O   0  0  0  0  0  0  0  0  0  0  0  0
   -5.7829   -1.0787   -0.0653 C   0  0  0  0  0  0  0  0  0  0  0  0
   -4.6959   -0.5912    0.6714 C   0  0  0  0  0  0  0  0  0  0  0  0
   -3.6415   -1.4401    1.0202 C   0  0  0  0  0  0  0  0  0  0  0  0
   -2.5250   -1.0710    1.7277 O   0  0  0  0  0  0  0  0  0  0  0  0
   -2.4681    0.2631    2.2194 C   0  0  0  0  0  0  0  0  0  0  0  0
   -3.6703   -2.7854    0.6084 C   0  0  0  0  0  0  0  0  0  0  0  0
   -2.5331   -3.6156    0.8750 N   0  0  0  0  0  0  0  0  0  0  0  0
   -1.5129   -3.9884   -0.4281 S   0  0  0  0  0  6  0  0  0  0  0  0
   -2.2544   -4.7684   -1.3938 O   0  0  0  0  0  0  0  0  0  0  0  0
   -0.2704   -4.4671    0.1377 O   0  0  0  0  0  0  0  0  0  0  0  0
   -1.1839   -2.3961   -1.1566 C   0  0  0  0  0  0  0  0  0  0  0  0
   -1.8613   -2.0036   -2.3140 C   0  0  0  0  0  0  0  0  0  0  0  0
   -1.6693   -0.7164   -2.8187 C   0  0  0  0  0  0  0  0  0  0  0  0
   -0.7940    0.1703   -2.1810 C   0  0  0  0  0  0  0  0  0  0  0  0
   -0.7139    1.7849   -2.7901 Cl  0  0  0  0  0  0  0  0  0  0  0  0
   -0.0781   -0.2523   -1.0535 C   0  0  0  0  0  0  0  0  0  0  0  0
    0.8468    0.6283   -0.3220 C   0  0  0  0  0  0  0  0  0  0  0  0
    0.7647    0.8335    0.8781 O   0  0  0  0  0  0  0  0  0  0  0  0
    1.7873    1.0809   -1.1776 O   0  0  0  0  0  0  0  0  0  0  0  0
    2.8613    1.8512   -0.6113 C   0  0  0  0  0  0  0  0  0  0  0  0
    3.0112    3.1066   -1.4652 C   0  0  0  0  0  0  0  0  0  0  0  0
    4.1598    1.0236   -0.6684 C   0  0  0  0  0  0  0  0  0  0  0  0
    4.3035    0.0990   -1.4747 O   0  0  0  0  0  0  0  0  0  0  0  0
    5.1726    1.3713    0.1975 N   0  0  0  0  0  0  0  0  0  0  0  0
    5.1434    2.3607    1.2626 C   0  0  0  0  0  0  0  0  0  0  0  0
    6.6070    2.5481    1.6374 C   0  0  0  0  0  0  0  0  0  0  0  0
    7.1968    1.1642    1.3918 C   0  0  0  0  0  0  0  0  0  0  0  0
    6.4596    0.6926    0.1474 C   0  0  0  0  0  0  0  0  0  0  0  0
   -0.2708   -1.5387   -0.5370 C   0  0  0  0  0  0  0  0  0  0  0  0
   -4.7456   -3.2833   -0.1194 C   0  0  0  0  0  0  0  0  0  0  0  0
   -5.7976   -2.4303   -0.4522 C   0  0  0  0  0  0  0  0  0  0  0  0
   -7.1027   -3.0846   -1.3734 Cl  0  0  0  0  0  0  0  0  0  0  0  0
   -6.1536    1.6437   -0.2723 H   0  0  0  0  0  0  0  0  0  0  0  0
   -7.9066    1.4226   -0.3041 H   0  0  0  0  0  0  0  0  0  0  0  0
   -7.0268    0.9641    1.1605 H   0  0  0  0  0  0  0  0  0  0  0  0
   -4.6536    0.4574    0.9432 H   0  0  0  0  0  0  0  0  0  0  0  0
   -3.3093    0.4698    2.8886 H   0  0  0  0  0  0  0  0  0  0  0  0
   -1.5468    0.3670    2.8016 H   0  0  0  0  0  0  0  0  0  0  0  0
   -2.4308    0.9835    1.3926 H   0  0  0  0  0  0  0  0  0  0  0  0
   -1.9797   -3.3125    1.6816 H   0  0  0  0  0  0  0  0  0  0  0  0
   -2.5592   -2.6762   -2.8106 H   0  0  0  0  0  0  0  0  0  0  0  0
   -2.2262   -0.4013   -3.6995 H   0  0  0  0  0  0  0  0  0  0  0  0
    2.6491    2.1337    0.4261 H   0  0  0  0  0  0  0  0  0  0  0  0
    2.1473    3.7660   -1.3223 H   0  0  0  0  0  0  0  0  0  0  0  0
    3.9230    3.6633   -1.2370 H   0  0  0  0  0  0  0  0  0  0  0  0
    3.0350    2.8494   -2.5306 H   0  0  0  0  0  0  0  0  0  0  0  0
    4.5786    1.9322    2.0941 H   0  0  0  0  0  0  0  0  0  0  0  0
    4.6677    3.2904    0.9487 H   0  0  0  0  0  0  0  0  0  0  0  0
    6.7381    2.8912    2.6647 H   0  0  0  0  0  0  0  0  0  0  0  0
    7.0792    3.2760    0.9626 H   0  0  0  0  0  0  0  0  0  0  0  0
    8.2821    1.1752    1.2587 H   0  0  0  0  0  0  0  0  0  0  0  0
    6.9623    0.5070    2.2382 H   0  0  0  0  0  0  0  0  0  0  0  0
    6.3324   -0.3934    0.1174 H   0  0  0  0  0  0  0  0  0  0  0  0
    6.9668    1.0163   -0.7720 H   0  0  0  0  0  0  0  0  0  0  0  0
    0.2632   -1.8518    0.3564 H   0  0  0  0  0  0  0  0  0  0  0  0
   -4.7582   -4.3228   -0.4374 H   0  0  0  0  0  0  0  0  0  0  0  0
  1  2  1  0
  2  3  1  0
  3  4  2  0
  4  5  1  0
  5  6  1  0
  6  7  1  0
  5  8  2  0
  8  9  1  0
  9 10  1  0
 10 11  2  0
 10 12  2  0
 10 13  1  0
 13 14  2  0
 14 15  1  0
 15 16  2  0
 16 17  1  0
 16 18  1  0
 18 19  1  0
 19 20  2  0
 19 21  1  0
 21 22  1  0
 22 23  1  0
 22 24  1  0
 24 25  2  0
 24 26  1  0
 26 27  1  0
 27 28  1  0
 28 29  1  0
 29 30  1  0
 18 31  2  0
  8 32  1  0
 32 33  2  0
 33 34  1  0
 33  3  1  0
 31 13  1  0
 30 26  1  0
  1 35  1  0
  1 36  1  0
  1 37  1  0
  4 38  1  0
  7 39  1  0
  7 40  1  0
  7 41  1  0
  9 42  1  0
 14 43  1  0
 15 44  1  0
 22 45  1  0
 23 46  1  0
 23 47  1  0
 23 48  1  0
 27 49  1  0
 27 50  1  0
 28 51  1  0
 28 52  1  0
 29 53  1  0
 29 54  1  0
 30 55  1  0
 30 56  1  0
 31 57  1  0
 32 58  1  0
M  END
$$$$
