
     RDKit          3D

 34 35  0  0  0  0  0  0  0  0999 V2000
   -3.2576   -3.1261   -1.2582 C   0  0  0  0  0  0  0  0  0  0  0  0
   -1.8987   -2.6851   -1.2071 O   0  0  0  0  0  0  0  0  0  0  0  0
   -1.7683   -1.4568   -1.7958 C   0  0  0  0  0  0  0  0  0  0  0  0
   -1.6495   -1.3833   -3.1856 C   0  0  0  0  0  0  0  0  0  0  0  0
   -1.4345   -0.1476   -3.8008 C   0  0  0  0  0  0  0  0  0  0  0  0
   -1.3257    1.0069   -3.0241 C   0  0  0  0  0  0  0  0  0  0  0  0
   -1.0585    2.5253   -3.7875 Cl  0  0  0  0  0  0  0  0  0  0  0  0
   -1.4249    0.9409   -1.6362 C   0  0  0  0  0  0  0  0  0  0  0  0
   -1.6391   -0.2998   -1.0218 C   0  0  0  0  0  0  0  0  0  0  0  0
   -1.7517   -0.3661    0.4446 C   0  0  0  0  0  0  0  0  0  0  0  0
   -2.7473   -0.7610    1.0294 O   0  0  0  0  0  0  0  0  0  0  0  0
   -0.5714    0.0974    0.9461 O   0  0  0  0  0  0  0  0  0  0  0  0
   -0.6039    0.1010    2.3512 N   0  0  0  0  0  0  0  0  0  0  0  0
    0.5308    0.4803    2.8681 C   0  0  0  0  0  0  0  0  0  0  0  0
    0.6185    0.5749    4.2312 N   0  0  0  0  0  0  0  0  0  0  0  0
    1.7394    0.8164    2.0699 C   0  0  0  0  0  0  0  0  0  0  0  0
    2.3492   -0.1735    1.2922 C   0  0  0  0  0  0  0  0  0  0  0  0
    3.4886    0.1384    0.5486 C   0  0  0  0  0  0  0  0  0  0  0  0
    4.0117    1.4314    0.5937 C   0  0  0  0  0  0  0  0  0  0  0  0
    5.4144    1.8153   -0.3262 Cl  0  0  0  0  0  0  0  0  0  0  0  0
    3.4076    2.4172    1.3769 C   0  0  0  0  0  0  0  0  0  0  0  0
    2.2671    2.1101    2.1227 C   0  0  0  0  0  0  0  0  0  0  0  0
   -3.5406   -3.3917   -2.2823 H   0  0  0  0  0  0  0  0  0  0  0  0
   -3.3399   -4.0253   -0.6417 H   0  0  0  0  0  0  0  0  0  0  0  0
   -3.9453   -2.3725   -0.8586 H   0  0  0  0  0  0  0  0  0  0  0  0
   -1.7080   -2.2863   -3.7881 H   0  0  0  0  0  0  0  0  0  0  0  0
   -1.3439   -0.0934   -4.8830 H   0  0  0  0  0  0  0  0  0  0  0  0
   -1.3327    1.8435   -1.0356 H   0  0  0  0  0  0  0  0  0  0  0  0
   -0.2839    0.5614    4.6958 H   0  0  0  0  0  0  0  0  0  0  0  0
    1.2939    1.2115    4.6336 H   0  0  0  0  0  0  0  0  0  0  0  0
    1.9378   -1.1802    1.2662 H   0  0  0  0  0  0  0  0  0  0  0  0
    3.9617   -0.6267   -0.0623 H   0  0  0  0  0  0  0  0  0  0  0  0
    3.8175    3.4236    1.4046 H   0  0  0  0  0  0  0  0  0  0  0  0
    1.7873    2.8800    2.7201 H   0  0  0  0  0  0  0  0  0  0  0  0
  1  2  1  0
  2  3  1  0
  3  4  2  0
  4  5  1  0
  5  6  2  0
  6  7  1  0
  6  8  1  0
  8  9  2  0
  9 10  1  0
 10 11  2  0
 10 12  1  0
 12 13  1  0
 13 14  2  3
 14 15  1  0
 14 16  1  0
 16 17  2  0
 17 18  1  0
 18 19  2  0
 19 20  1  0
 19 21  1  0
 21 22  2  0
  9  3  1  0
 22 16  1  0
  1 23  1  0
  1 24  1  0
  1 25  1  0
  4 26  1  0
  5 27  1  0
  8 28  1  0
 15 29  1  0
 15 30  1  0
 17 31  1  0
 18 32  1  0
 21 33  1  0
 22 34  1  0
M  END
$$$$
