
     RDKit          3D

 36 38  0  0  0  0  0  0  0  0999 V2000
    5.4591    0.6212    1.8209 C   0  0  0  0  0  0  0  0  0  0  0  0
    4.2604    0.3618    0.9554 C   0  0  0  0  0  0  0  0  0  0  0  0
    3.5921   -0.8686    1.0241 C   0  0  0  0  0  0  0  0  0  0  0  0
    2.4979   -1.1254    0.1972 C   0  0  0  0  0  0  0  0  0  0  0  0
    2.0741   -0.1471   -0.7055 C   0  0  0  0  0  0  0  0  0  0  0  0
    0.6815   -0.4859   -1.7492 S   0  0  0  0  0  6  0  0  0  0  0  0
    0.4951    0.6269   -2.6558 O   0  0  0  0  0  0  0  0  0  0  0  0
    0.8255   -1.8379   -2.2442 O   0  0  0  0  0  0  0  0  0  0  0  0
   -0.6238   -0.4689   -0.6551 N   0  0  0  0  0  0  0  0  0  0  0  0
   -0.8354    0.8377    0.0519 C   0  0  0  0  0  0  0  0  0  0  0  0
   -2.1761    1.0577    0.7542 C   0  0  0  0  0  0  0  0  0  0  0  0
   -2.3643    2.0334    1.4807 O   0  0  0  0  0  0  0  0  0  0  0  0
   -3.1743    0.1691    0.4632 N   0  0  0  0  0  0  0  0  0  0  0  0
   -4.5321    0.2516    0.9002 C   0  0  0  0  0  0  0  0  0  0  0  0
   -5.2186   -0.6169   -0.1317 C   0  0  0  0  0  0  0  0  0  0  0  0
   -4.2219   -1.5445   -0.6198 O   0  0  0  0  0  0  0  0  0  0  0  0
   -2.9409   -1.0996   -0.1563 C   0  0  0  0  0  0  0  0  0  0  0  0
   -1.8905   -0.9946   -1.2606 C   0  0  0  0  0  0  0  0  0  0  0  0
    2.7448    1.0736   -0.8045 C   0  0  0  0  0  0  0  0  0  0  0  0
    3.8383    1.3233    0.0263 C   0  0  0  0  0  0  0  0  0  0  0  0
    5.5518    1.6881    2.0496 H   0  0  0  0  0  0  0  0  0  0  0  0
    6.3679    0.2878    1.3107 H   0  0  0  0  0  0  0  0  0  0  0  0
    5.3735    0.0911    2.7753 H   0  0  0  0  0  0  0  0  0  0  0  0
    3.9244   -1.6354    1.7212 H   0  0  0  0  0  0  0  0  0  0  0  0
    1.9861   -2.0835    0.2556 H   0  0  0  0  0  0  0  0  0  0  0  0
   -0.7330    1.6649   -0.6594 H   0  0  0  0  0  0  0  0  0  0  0  0
   -0.0647    0.9309    0.8247 H   0  0  0  0  0  0  0  0  0  0  0  0
   -4.5919   -0.1920    1.8999 H   0  0  0  0  0  0  0  0  0  0  0  0
   -4.9022    1.2793    0.9374 H   0  0  0  0  0  0  0  0  0  0  0  0
   -6.0745   -1.1651    0.2711 H   0  0  0  0  0  0  0  0  0  0  0  0
   -5.5529   -0.0221   -0.9886 H   0  0  0  0  0  0  0  0  0  0  0  0
   -2.6039   -1.7962    0.6219 H   0  0  0  0  0  0  0  0  0  0  0  0
   -2.2350   -0.3283   -2.0609 H   0  0  0  0  0  0  0  0  0  0  0  0
   -1.7317   -1.9876   -1.6938 H   0  0  0  0  0  0  0  0  0  0  0  0
    2.4313    1.8287   -1.5218 H   0  0  0  0  0  0  0  0  0  0  0  0
    4.3638    2.2728   -0.0569 H   0  0  0  0  0  0  0  0  0  0  0  0
  1  2  1  0
  2  3  2  0
  3  4  1  0
  4  5  2  0
  5  6  1  0
  6  7  2  0
  6  8  2  0
  6  9  1  0
  9 10  1  0
 10 11  1  0
 11 12  2  0
 11 13  1  0
 13 14  1  0
 14 15  1  0
 15 16  1  0
 16 17  1  0
 17 18  1  0
  5 19  1  0
 19 20  2  0
 20  2  1  0
 18  9  1  0
 17 13  1  0
  1 21  1  0
  1 22  1  0
  1 23  1  0
  3 24  1  0
  4 25  1  0
 10 26  1  0
 10 27  1  0
 14 28  1  0
 14 29  1  0
 15 30  1  0
 15 31  1  0
 17 32  1  0
 18 33  1  0
 18 34  1  0
 19 35  1  0
 20 36  1  0
M  END
$$$$
