
     RDKit          3D

 63 67  0  0  0  0  0  0  0  0999 V2000
   -1.3391   -1.5800    1.1441 O   0  0  0  0  0  0  0  0  0  0  0  0
   -1.9528   -0.6153    0.7045 C   0  0  0  0  0  0  0  0  0  0  0  0
   -3.2868   -0.6391    0.3754 N   0  0  0  0  0  0  0  0  0  0  0  0
   -4.0951   -1.8419    0.5220 C   0  0  0  0  0  0  0  0  0  0  0  0
   -3.8656   -2.8049   -0.6535 C   0  0  0  0  0  0  0  0  0  0  0  0
   -4.5626   -2.3052   -1.9154 C   0  0  0  0  0  0  0  0  0  0  0  0
   -6.0723   -2.2395   -1.7008 C   0  0  0  0  0  0  0  0  0  0  0  0
   -6.4660   -1.5854   -0.3994 C   0  0  0  0  0  0  0  0  0  0  0  0
   -7.7958   -1.1721   -0.2246 C   0  0  0  0  0  0  0  0  0  0  0  0
   -8.2125   -0.6024    0.9781 C   0  0  0  0  0  0  0  0  0  0  0  0
   -7.3081   -0.4464    2.0237 C   0  0  0  0  0  0  0  0  0  0  0  0
   -5.9867   -0.8619    1.8673 C   0  0  0  0  0  0  0  0  0  0  0  0
   -5.5520   -1.4404    0.6618 C   0  0  0  0  0  0  0  0  0  0  0  0
   -1.2541    0.6845    0.5275 C   0  0  0  0  0  0  0  0  0  0  0  0
   -1.6015    1.5787   -0.4946 C   0  0  0  0  0  0  0  0  0  0  0  0
   -0.9164    2.7892   -0.6299 C   0  0  0  0  0  0  0  0  0  0  0  0
    0.1275    3.1029    0.2409 C   0  0  0  0  0  0  0  0  0  0  0  0
    0.4978    2.1912    1.2352 C   0  0  0  0  0  0  0  0  0  0  0  0
    1.8158    2.5969    2.3633 S   0  0  0  0  0  6  0  0  0  0  0  0
    1.9844    4.0346    2.3247 O   0  0  0  0  0  0  0  0  0  0  0  0
    1.5459    1.9092    3.6073 O   0  0  0  0  0  0  0  0  0  0  0  0
    3.1758    1.8930    1.6515 N   0  0  0  0  0  0  0  0  0  0  0  0
    3.2919    0.4050    1.7147 C   0  0  0  0  0  0  0  0  0  0  0  0
    4.5638   -0.0875    0.9986 C   0  0  0  0  0  0  0  0  0  0  0  0
    4.5793    0.3132   -0.4332 N   0  0  0  0  0  0  0  0  0  0  0  0
    5.8419    0.1669   -1.0236 C   0  0  0  0  0  0  0  0  0  0  0  0
    6.4063   -1.1159   -1.1252 C   0  0  0  0  0  0  0  0  0  0  0  0
    7.6640   -1.3234   -1.7002 C   0  0  0  0  0  0  0  0  0  0  0  0
    8.3906   -0.2435   -2.1872 C   0  0  0  0  0  0  0  0  0  0  0  0
    7.8561    1.0377   -2.0985 C   0  0  0  0  0  0  0  0  0  0  0  0
    6.5949    1.2380   -1.5238 C   0  0  0  0  0  0  0  0  0  0  0  0
    3.7502    1.4899   -0.7603 C   0  0  0  0  0  0  0  0  0  0  0  0
    3.7095    2.5021    0.3962 C   0  0  0  0  0  0  0  0  0  0  0  0
   -0.2011    0.9918    1.3958 C   0  0  0  0  0  0  0  0  0  0  0  0
   -3.7690    0.2139    0.1284 H   0  0  0  0  0  0  0  0  0  0  0  0
   -3.7773   -2.3551    1.4391 H   0  0  0  0  0  0  0  0  0  0  0  0
   -2.7949   -2.9331   -0.8503 H   0  0  0  0  0  0  0  0  0  0  0  0
   -4.2625   -3.7958   -0.3963 H   0  0  0  0  0  0  0  0  0  0  0  0
   -4.1795   -1.3137   -2.1869 H   0  0  0  0  0  0  0  0  0  0  0  0
   -4.3415   -2.9718   -2.7566 H   0  0  0  0  0  0  0  0  0  0  0  0
   -6.5235   -1.6993   -2.5417 H   0  0  0  0  0  0  0  0  0  0  0  0
   -6.4821   -3.2573   -1.7041 H   0  0  0  0  0  0  0  0  0  0  0  0
   -8.5183   -1.2977   -1.0285 H   0  0  0  0  0  0  0  0  0  0  0  0
   -9.2450   -0.2858    1.1003 H   0  0  0  0  0  0  0  0  0  0  0  0
   -7.6316   -0.0044    2.9624 H   0  0  0  0  0  0  0  0  0  0  0  0
   -5.2881   -0.7334    2.6926 H   0  0  0  0  0  0  0  0  0  0  0  0
   -2.3903    1.3391   -1.2032 H   0  0  0  0  0  0  0  0  0  0  0  0
   -1.1962    3.4886   -1.4151 H   0  0  0  0  0  0  0  0  0  0  0  0
    0.6425    4.0564    0.1397 H   0  0  0  0  0  0  0  0  0  0  0  0
    2.4189   -0.0610    1.2485 H   0  0  0  0  0  0  0  0  0  0  0  0
    3.3370    0.0933    2.7631 H   0  0  0  0  0  0  0  0  0  0  0  0
    4.6084   -1.1797    1.0811 H   0  0  0  0  0  0  0  0  0  0  0  0
    5.4392    0.3302    1.5145 H   0  0  0  0  0  0  0  0  0  0  0  0
    5.8482   -1.9800   -0.7731 H   0  0  0  0  0  0  0  0  0  0  0  0
    8.0672   -2.3300   -1.7699 H   0  0  0  0  0  0  0  0  0  0  0  0
    9.3688   -0.3991   -2.6338 H   0  0  0  0  0  0  0  0  0  0  0  0
    8.4202    1.8880   -2.4720 H   0  0  0  0  0  0  0  0  0  0  0  0
    6.2335    2.2586   -1.4545 H   0  0  0  0  0  0  0  0  0  0  0  0
    2.7313    1.1279   -0.9502 H   0  0  0  0  0  0  0  0  0  0  0  0
    4.0593    1.9780   -1.6911 H   0  0  0  0  0  0  0  0  0  0  0  0
    4.7187    2.8718    0.6137 H   0  0  0  0  0  0  0  0  0  0  0  0
    3.1152    3.3679    0.0898 H   0  0  0  0  0  0  0  0  0  0  0  0
    0.0643    0.2975    2.1917 H   0  0  0  0  0  0  0  0  0  0  0  0
  1  2  2  0
  2  3  1  0
  3  4  1  0
  4  5  1  0
  5  6  1  0
  6  7  1  0
  7  8  1  0
  8  9  2  0
  9 10  1  0
 10 11  2  0
 11 12  1  0
 12 13  2  0
  2 14  1  0
 14 15  2  0
 15 16  1  0
 16 17  2  0
 17 18  1  0
 18 19  1  0
 19 20  2  0
 19 21  2  0
 19 22  1  0
 22 23  1  0
 23 24  1  0
 24 25  1  0
 25 26  1  0
 26 27  2  0
 27 28  1  0
 28 29  2  0
 29 30  1  0
 30 31  2  0
 25 32  1  0
 32 33  1  0
 18 34  2  0
 13  4  1  0
 34 14  1  0
 13  8  1  0
 33 22  1  0
 31 26  1  0
  3 35  1  0
  4 36  1  0
  5 37  1  0
  5 38  1  0
  6 39  1  0
  6 40  1  0
  7 41  1  0
  7 42  1  0
  9 43  1  0
 10 44  1  0
 11 45  1  0
 12 46  1  0
 15 47  1  0
 16 48  1  0
 17 49  1  0
 23 50  1  0
 23 51  1  0
 24 52  1  0
 24 53  1  0
 27 54  1  0
 28 55  1  0
 29 56  1  0
 30 57  1  0
 31 58  1  0
 32 59  1  0
 32 60  1  0
 33 61  1  0
 33 62  1  0
 34 63  1  0
M  END
$$$$
