
     RDKit          3D

 42 45  0  0  0  0  0  0  0  0999 V2000
    1.7005   -0.4769   -2.3096 O   0  0  0  0  0  0  0  0  0  0  0  0
    0.5813   -0.5507   -1.8190 C   0  0  0  0  0  0  0  0  0  0  0  0
   -0.5032   -0.7473   -2.6190 N   0  0  0  0  0  0  0  0  0  0  0  0
   -1.6203   -1.4332   -2.2497 C   0  0  0  0  0  0  0  0  0  0  0  0
   -2.2587   -2.0287   -3.1153 O   0  0  0  0  0  0  0  0  0  0  0  0
   -1.9104   -1.4647   -0.8986 N   0  0  0  0  0  0  0  0  0  0  0  0
   -3.2001   -2.0338   -0.4954 C   0  0  0  0  0  0  0  0  0  0  0  0
   -4.3509   -1.0072   -0.4334 C   0  0  0  0  0  0  0  0  0  0  0  0
   -4.2834    0.0030    0.7065 C   0  0  0  0  0  0  0  0  0  0  0  0
   -3.8296    1.2727    0.0306 C   0  0  0  0  0  0  0  0  0  0  0  0
   -4.4681    1.1441   -1.3316 C   0  0  0  0  0  0  0  0  0  0  0  0
   -4.4202   -0.2493   -1.6573 O   0  0  0  0  0  0  0  0  0  0  0  0
   -1.0342   -1.0535    0.0923 C   0  0  0  0  0  0  0  0  0  0  0  0
   -1.3017   -1.1317    1.2912 O   0  0  0  0  0  0  0  0  0  0  0  0
    0.2751   -0.5135   -0.3740 C   0  0  0  0  0  0  0  0  0  0  0  0
    1.1022   -0.0359    0.5787 C   0  0  0  0  0  0  0  0  0  0  0  0
    2.3780    0.5934    0.4544 C   0  0  0  0  0  0  0  0  0  0  0  0
    2.7204    1.5638   -0.4601 C   0  0  0  0  0  0  0  0  0  0  0  0
    4.0241    1.9181   -0.2299 N   0  0  0  0  0  0  0  0  0  0  0  0
    4.5197    1.2373    0.8584 C   0  0  0  0  0  0  0  0  0  0  0  0
    5.7802    1.3017    1.4645 C   0  0  0  0  0  0  0  0  0  0  0  0
    6.0084    0.4834    2.5745 C   0  0  0  0  0  0  0  0  0  0  0  0
    5.0154   -0.3659    3.0559 C   0  0  0  0  0  0  0  0  0  0  0  0
    3.7611   -0.4201    2.4366 C   0  0  0  0  0  0  0  0  0  0  0  0
    3.5026    0.3967    1.3149 C   0  0  0  0  0  0  0  0  0  0  0  0
   -0.2778   -0.8510   -3.5991 H   0  0  0  0  0  0  0  0  0  0  0  0
   -3.4743   -2.8081   -1.2220 H   0  0  0  0  0  0  0  0  0  0  0  0
   -3.1013   -2.5357    0.4741 H   0  0  0  0  0  0  0  0  0  0  0  0
   -5.2866   -1.5728   -0.3436 H   0  0  0  0  0  0  0  0  0  0  0  0
   -3.6584   -0.3012    1.5481 H   0  0  0  0  0  0  0  0  0  0  0  0
   -5.2945    0.1574    1.1055 H   0  0  0  0  0  0  0  0  0  0  0  0
   -2.7388    1.2810   -0.0643 H   0  0  0  0  0  0  0  0  0  0  0  0
   -4.1328    2.1805    0.5588 H   0  0  0  0  0  0  0  0  0  0  0  0
   -3.9456    1.7210   -2.0995 H   0  0  0  0  0  0  0  0  0  0  0  0
   -5.5188    1.4533   -1.3117 H   0  0  0  0  0  0  0  0  0  0  0  0
    0.7780   -0.1242    1.6166 H   0  0  0  0  0  0  0  0  0  0  0  0
    2.1686    2.0229   -1.2690 H   0  0  0  0  0  0  0  0  0  0  0  0
    4.5476    2.5917   -0.7712 H   0  0  0  0  0  0  0  0  0  0  0  0
    6.5570    1.9607    1.0910 H   0  0  0  0  0  0  0  0  0  0  0  0
    6.9775    0.5098    3.0676 H   0  0  0  0  0  0  0  0  0  0  0  0
    5.2147   -0.9961    3.9190 H   0  0  0  0  0  0  0  0  0  0  0  0
    2.9972   -1.0910    2.8181 H   0  0  0  0  0  0  0  0  0  0  0  0
  1  2  2  0
  2  3  1  0
  3  4  1  0
  4  5  2  0
  4  6  1  0
  6  7  1  0
  7  8  1  0
  8  9  1  0
  9 10  1  0
 10 11  1  0
 11 12  1  0
  6 13  1  0
 13 14  2  0
 13 15  1  0
 15 16  2  3
 16 17  1  0
 17 18  2  0
 18 19  1  0
 19 20  1  0
 20 21  2  0
 21 22  1  0
 22 23  2  0
 23 24  1  0
 24 25  2  0
 15  2  1  0
 25 17  1  0
 12  8  1  0
 25 20  1  0
  3 26  1  0
  7 27  1  0
  7 28  1  0
  8 29  1  0
  9 30  1  0
  9 31  1  0
 10 32  1  0
 10 33  1  0
 11 34  1  0
 11 35  1  0
 16 36  1  0
 18 37  1  0
 19 38  1  0
 21 39  1  0
 22 40  1  0
 23 41  1  0
 24 42  1  0
M  END
$$$$
