
     RDKit          3D

 54 57  0  0  0  0  0  0  0  0999 V2000
   -2.3121   -4.5522   -2.6314 C   0  0  0  0  0  0  0  0  0  0  0  0
   -3.0649   -3.3878   -2.9467 O   0  0  0  0  0  0  0  0  0  0  0  0
   -3.0077   -2.3558   -2.0513 C   0  0  0  0  0  0  0  0  0  0  0  0
   -3.7083   -1.2105   -2.4347 C   0  0  0  0  0  0  0  0  0  0  0  0
   -3.7292   -0.0784   -1.6150 C   0  0  0  0  0  0  0  0  0  0  0  0
   -3.0505   -0.0774   -0.3903 C   0  0  0  0  0  0  0  0  0  0  0  0
   -3.0466    1.1147    0.4694 C   0  0  0  0  0  0  0  0  0  0  0  0
   -4.5437    1.6861    1.0729 S   0  0  0  0  0  0  0  0  0  0  0  0
   -3.8116    2.9763    1.9359 C   0  0  0  0  0  0  0  0  0  0  0  0
   -4.4683    3.9437    2.7233 C   0  0  0  0  0  0  0  0  0  0  0  0
   -3.7124    4.9339    3.3533 C   0  0  0  0  0  0  0  0  0  0  0  0
   -2.3343    4.9668    3.2047 C   0  0  0  0  0  0  0  0  0  0  0  0
   -1.6879    4.0040    2.4239 C   0  0  0  0  0  0  0  0  0  0  0  0
   -2.4252    2.9786    1.7741 C   0  0  0  0  0  0  0  0  0  0  0  0
   -1.9885    1.8867    0.9284 C   0  0  0  0  0  0  0  0  0  0  0  0
   -0.6036    1.5925    0.5688 C   0  0  0  0  0  0  0  0  0  0  0  0
   -0.1680    1.7088   -0.7531 C   0  0  0  0  0  0  0  0  0  0  0  0
    1.1587    1.4153   -1.0784 C   0  0  0  0  0  0  0  0  0  0  0  0
    2.0664    1.0092   -0.0957 C   0  0  0  0  0  0  0  0  0  0  0  0
    3.3242    0.7575   -0.5634 O   0  0  0  0  0  0  0  0  0  0  0  0
    4.3319    0.3069    0.3426 C   0  0  0  0  0  0  0  0  0  0  0  0
    4.2843   -1.2174    0.5803 C   0  0  0  0  0  0  0  0  0  0  0  0
    4.4215   -2.0612   -0.6254 N   0  0  0  0  0  0  0  0  0  0  0  0
    5.7175   -1.8936   -1.2809 C   0  0  0  0  0  0  0  0  0  0  0  0
    4.2090   -3.4687   -0.2839 C   0  0  0  0  0  0  0  0  0  0  0  0
    1.6326    0.9010    1.2249 C   0  0  0  0  0  0  0  0  0  0  0  0
    0.3035    1.1915    1.5561 C   0  0  0  0  0  0  0  0  0  0  0  0
   -2.3537   -1.2309   -0.0079 C   0  0  0  0  0  0  0  0  0  0  0  0
   -2.3307   -2.3627   -0.8324 C   0  0  0  0  0  0  0  0  0  0  0  0
   -1.2442   -4.3237   -2.5505 H   0  0  0  0  0  0  0  0  0  0  0  0
   -2.6858   -5.0277   -1.7186 H   0  0  0  0  0  0  0  0  0  0  0  0
   -2.4385   -5.2643   -3.4527 H   0  0  0  0  0  0  0  0  0  0  0  0
   -4.2385   -1.1965   -3.3838 H   0  0  0  0  0  0  0  0  0  0  0  0
   -4.2725    0.8032   -1.9467 H   0  0  0  0  0  0  0  0  0  0  0  0
   -5.5485    3.9222    2.8369 H   0  0  0  0  0  0  0  0  0  0  0  0
   -4.2109    5.6856    3.9607 H   0  0  0  0  0  0  0  0  0  0  0  0
   -1.7520    5.7444    3.6929 H   0  0  0  0  0  0  0  0  0  0  0  0
   -0.6071    4.0487    2.3105 H   0  0  0  0  0  0  0  0  0  0  0  0
   -0.8522    2.0208   -1.5383 H   0  0  0  0  0  0  0  0  0  0  0  0
    1.4884    1.4985   -2.1115 H   0  0  0  0  0  0  0  0  0  0  0  0
    4.2936    0.8546    1.2915 H   0  0  0  0  0  0  0  0  0  0  0  0
    5.2963    0.5838   -0.0970 H   0  0  0  0  0  0  0  0  0  0  0  0
    5.0603   -1.4786    1.3115 H   0  0  0  0  0  0  0  0  0  0  0  0
    3.3184   -1.4508    1.0435 H   0  0  0  0  0  0  0  0  0  0  0  0
    5.8008   -2.5609   -2.1466 H   0  0  0  0  0  0  0  0  0  0  0  0
    5.8352   -0.8792   -1.6738 H   0  0  0  0  0  0  0  0  0  0  0  0
    6.5526   -2.1067   -0.6041 H   0  0  0  0  0  0  0  0  0  0  0  0
    4.9552   -3.8376    0.4291 H   0  0  0  0  0  0  0  0  0  0  0  0
    4.2506   -4.0948   -1.1823 H   0  0  0  0  0  0  0  0  0  0  0  0
    3.2136   -3.6154    0.1503 H   0  0  0  0  0  0  0  0  0  0  0  0
    2.2936    0.5887    2.0248 H   0  0  0  0  0  0  0  0  0  0  0  0
   -0.0203    1.0944    2.5901 H   0  0  0  0  0  0  0  0  0  0  0  0
   -1.8176   -1.2578    0.9382 H   0  0  0  0  0  0  0  0  0  0  0  0
   -1.7730   -3.2280   -0.4911 H   0  0  0  0  0  0  0  0  0  0  0  0
  1  2  1  0
  2  3  1  0
  3  4  2  0
  4  5  1  0
  5  6  2  0
  6  7  1  0
  7  8  1  0
  8  9  1  0
  9 10  2  0
 10 11  1  0
 11 12  2  0
 12 13  1  0
 13 14  2  0
 14 15  1  0
 15 16  1  0
 16 17  2  0
 17 18  1  0
 18 19  2  0
 19 20  1  0
 20 21  1  0
 21 22  1  0
 22 23  1  0
 23 24  1  0
 23 25  1  0
 19 26  1  0
 26 27  2  0
  6 28  1  0
 28 29  2  0
 29  3  1  0
 15  7  2  0
 27 16  1  0
 14  9  1  0
  1 30  1  0
  1 31  1  0
  1 32  1  0
  4 33  1  0
  5 34  1  0
 10 35  1  0
 11 36  1  0
 12 37  1  0
 13 38  1  0
 17 39  1  0
 18 40  1  0
 21 41  1  0
 21 42  1  0
 22 43  1  0
 22 44  1  0
 24 45  1  0
 24 46  1  0
 24 47  1  0
 25 48  1  0
 25 49  1  0
 25 50  1  0
 26 51  1  0
 27 52  1  0
 28 53  1  0
 29 54  1  0
M  END
$$$$
