
     RDKit          3D

 48 51  0  0  0  0  0  0  0  0999 V2000
    2.8360    1.2457   -0.2815 O   0  0  0  0  0  0  0  0  0  0  0  0
    3.6850    0.3654   -0.3020 C   0  0  0  0  0  0  0  0  0  0  0  0
    3.5025   -0.9955   -0.0508 N   0  0  0  0  0  0  0  0  0  0  0  0
    2.3952   -1.8135   -0.0787 C   0  0  0  0  0  0  0  0  0  0  0  0
    2.7404   -3.4293   -0.4113 S   0  0  0  0  0  0  0  0  0  0  0  0
    1.1365   -1.3121    0.1597 N   0  0  0  0  0  0  0  0  0  0  0  0
   -0.0795   -2.0815   -0.1753 C   0  0  0  0  0  0  0  0  0  0  0  0
   -1.3597   -1.2349   -0.0599 C   0  0  0  0  0  0  0  0  0  0  0  0
   -1.5901   -0.7110    1.3071 N   0  0  0  0  0  0  0  0  0  0  0  0
   -2.4564    0.4787    1.2855 C   0  0  0  0  0  0  0  0  0  0  0  0
   -3.8556    0.1911    0.7788 C   0  0  0  0  0  0  0  0  0  0  0  0
   -4.6832   -0.7319    1.4624 C   0  0  0  0  0  0  0  0  0  0  0  0
   -5.9788   -1.0089    1.0157 C   0  0  0  0  0  0  0  0  0  0  0  0
   -6.4204   -0.3510   -0.1106 C   0  0  0  0  0  0  0  0  0  0  0  0
   -5.6261    0.5483   -0.7819 C   0  0  0  0  0  0  0  0  0  0  0  0
   -4.3445    0.8423   -0.3656 C   0  0  0  0  0  0  0  0  0  0  0  0
   -6.2502    1.0843   -1.8652 O   0  0  0  0  0  0  0  0  0  0  0  0
   -7.5278    0.4175   -1.7983 C   0  0  0  0  0  0  0  0  0  0  0  0
   -7.6439   -0.4944   -0.6868 O   0  0  0  0  0  0  0  0  0  0  0  0
   -0.3128   -0.4345    2.0006 C   0  0  0  0  0  0  0  0  0  0  0  0
    0.8890   -0.1786    1.0678 C   0  0  0  0  0  0  0  0  0  0  0  0
    5.0984    0.7664   -0.5518 C   0  0  0  0  0  0  0  0  0  0  0  0
    5.9607   -0.0161   -1.3328 C   0  0  0  0  0  0  0  0  0  0  0  0
    7.2780    0.4019   -1.5466 C   0  0  0  0  0  0  0  0  0  0  0  0
    7.7274    1.6004   -0.9917 C   0  0  0  0  0  0  0  0  0  0  0  0
    9.3485    2.1090   -1.2583 Cl  0  0  0  0  0  0  0  0  0  0  0  0
    6.8693    2.3925   -0.2305 C   0  0  0  0  0  0  0  0  0  0  0  0
    5.5522    1.9789   -0.0152 C   0  0  0  0  0  0  0  0  0  0  0  0
    4.3379   -1.5594   -0.1295 H   0  0  0  0  0  0  0  0  0  0  0  0
    0.0171   -2.4638   -1.1978 H   0  0  0  0  0  0  0  0  0  0  0  0
   -0.1398   -2.9404    0.5048 H   0  0  0  0  0  0  0  0  0  0  0  0
   -1.2806   -0.4103   -0.7815 H   0  0  0  0  0  0  0  0  0  0  0  0
   -2.2153   -1.8517   -0.3574 H   0  0  0  0  0  0  0  0  0  0  0  0
   -1.9941    1.2842    0.6996 H   0  0  0  0  0  0  0  0  0  0  0  0
   -2.5748    0.8707    2.3047 H   0  0  0  0  0  0  0  0  0  0  0  0
   -4.3017   -1.2425    2.3453 H   0  0  0  0  0  0  0  0  0  0  0  0
   -6.6126   -1.7182    1.5351 H   0  0  0  0  0  0  0  0  0  0  0  0
   -3.7411    1.5553   -0.9168 H   0  0  0  0  0  0  0  0  0  0  0  0
   -7.6797   -0.1425   -2.7283 H   0  0  0  0  0  0  0  0  0  0  0  0
   -8.3146    1.1760   -1.7129 H   0  0  0  0  0  0  0  0  0  0  0  0
   -0.0859   -1.3169    2.6133 H   0  0  0  0  0  0  0  0  0  0  0  0
   -0.4109    0.3980    2.7081 H   0  0  0  0  0  0  0  0  0  0  0  0
    1.7754    0.0145    1.6797 H   0  0  0  0  0  0  0  0  0  0  0  0
    0.6695    0.6993    0.4516 H   0  0  0  0  0  0  0  0  0  0  0  0
    5.6200   -0.9325   -1.8084 H   0  0  0  0  0  0  0  0  0  0  0  0
    7.9451   -0.2040   -2.1555 H   0  0  0  0  0  0  0  0  0  0  0  0
    7.2154    3.3324    0.1922 H   0  0  0  0  0  0  0  0  0  0  0  0
    4.8806    2.6040    0.5709 H   0  0  0  0  0  0  0  0  0  0  0  0
  1  2  2  0
  2  3  1  0
  3  4  1  0
  4  5  2  0
  4  6  1  0
  6  7  1  0
  7  8  1  0
  8  9  1  0
  9 10  1  0
 10 11  1  0
 11 12  2  0
 12 13  1  0
 13 14  2  0
 14 15  1  0
 15 16  2  0
 15 17  1  0
 17 18  1  0
 18 19  1  0
  9 20  1  0
 20 21  1  0
  2 22  1  0
 22 23  2  0
 23 24  1  0
 24 25  2  0
 25 26  1  0
 25 27  1  0
 27 28  2  0
 21  6  1  0
 28 22  1  0
 16 11  1  0
 19 14  1  0
  3 29  1  0
  7 30  1  0
  7 31  1  0
  8 32  1  0
  8 33  1  0
 10 34  1  0
 10 35  1  0
 12 36  1  0
 13 37  1  0
 16 38  1  0
 18 39  1  0
 18 40  1  0
 20 41  1  0
 20 42  1  0
 21 43  1  0
 21 44  1  0
 23 45  1  0
 24 46  1  0
 27 47  1  0
 28 48  1  0
M  END
$$$$
