
     RDKit          3D

 39 41  0  0  0  0  0  0  0  0999 V2000
    4.2710   -0.9439   -2.8407 O   0  0  0  0  0  0  0  0  0  0  0  0
    3.1511   -0.8833   -2.3551 C   0  0  0  0  0  0  0  0  0  0  0  0
    2.1578   -1.6128   -2.9171 O   0  0  0  0  0  0  0  0  0  0  0  0
    2.6860    0.0286   -1.2093 C   0  0  0  0  0  0  0  0  0  0  0  0
    3.6642    0.3047   -0.0722 C   0  0  0  0  0  0  0  0  0  0  0  0
    4.7966   -0.4834    0.1822 C   0  0  0  0  0  0  0  0  0  0  0  0
    5.6511   -0.1847    1.2470 C   0  0  0  0  0  0  0  0  0  0  0  0
    5.3904    0.9058    2.0723 C   0  0  0  0  0  0  0  0  0  0  0  0
    4.2750    1.7028    1.8346 C   0  0  0  0  0  0  0  0  0  0  0  0
    3.4197    1.4062    0.7721 C   0  0  0  0  0  0  0  0  0  0  0  0
    1.3316   -0.3196   -0.7328 N   0  0  0  0  0  0  0  0  0  0  0  0
    0.2832    0.5060   -1.0936 C   0  0  0  0  0  0  0  0  0  0  0  0
    0.3666    1.5345   -1.7517 O   0  0  0  0  0  0  0  0  0  0  0  0
   -1.0018   -0.0140   -0.5604 C   0  0  0  0  0  0  0  0  0  0  0  0
   -2.1611    0.6245   -0.7691 C   0  0  0  0  0  0  0  0  0  0  0  0
   -3.4766    0.1976   -0.2811 C   0  0  0  0  0  0  0  0  0  0  0  0
   -4.0951   -0.9546   -0.7921 C   0  0  0  0  0  0  0  0  0  0  0  0
   -5.3546   -1.3444   -0.3313 C   0  0  0  0  0  0  0  0  0  0  0  0
   -5.9891   -0.5767    0.6328 C   0  0  0  0  0  0  0  0  0  0  0  0
   -7.2207   -0.9569    1.0826 O   0  0  0  0  0  0  0  0  0  0  0  0
   -5.3868    0.5714    1.1411 C   0  0  0  0  0  0  0  0  0  0  0  0
   -6.0726    1.2805    2.0890 O   0  0  0  0  0  0  0  0  0  0  0  0
   -4.1328    0.9690    0.6886 C   0  0  0  0  0  0  0  0  0  0  0  0
   -0.7312   -1.4574    0.3216 S   0  0  0  0  0  0  0  0  0  0  0  0
    0.9988   -1.4528   -0.0172 C   0  0  0  0  0  0  0  0  0  0  0  0
    1.9724   -2.7102    0.4879 S   0  0  0  0  0  0  0  0  0  0  0  0
    2.6042   -2.1032   -3.6412 H   0  0  0  0  0  0  0  0  0  0  0  0
    2.6113    0.9946   -1.7308 H   0  0  0  0  0  0  0  0  0  0  0  0
    5.0372   -1.3472   -0.4346 H   0  0  0  0  0  0  0  0  0  0  0  0
    6.5225   -0.8085    1.4315 H   0  0  0  0  0  0  0  0  0  0  0  0
    6.0581    1.1340    2.8990 H   0  0  0  0  0  0  0  0  0  0  0  0
    4.0721    2.5574    2.4751 H   0  0  0  0  0  0  0  0  0  0  0  0
    2.5579    2.0501    0.6022 H   0  0  0  0  0  0  0  0  0  0  0  0
   -2.1709    1.5539   -1.3371 H   0  0  0  0  0  0  0  0  0  0  0  0
   -3.6033   -1.5570   -1.5527 H   0  0  0  0  0  0  0  0  0  0  0  0
   -5.8347   -2.2366   -0.7214 H   0  0  0  0  0  0  0  0  0  0  0  0
   -7.4600   -0.2791    1.7456 H   0  0  0  0  0  0  0  0  0  0  0  0
   -5.5276    2.0410    2.3549 H   0  0  0  0  0  0  0  0  0  0  0  0
   -3.6600    1.8638    1.0812 H   0  0  0  0  0  0  0  0  0  0  0  0
  1  2  2  0
  2  3  1  0
  2  4  1  0
  4  5  1  0
  5  6  2  0
  6  7  1  0
  7  8  2  0
  8  9  1  0
  9 10  2  0
  4 11  1  0
 11 12  1  0
 12 13  2  0
 12 14  1  0
 14 15  2  3
 15 16  1  0
 16 17  2  0
 17 18  1  0
 18 19  2  0
 19 20  1  0
 19 21  1  0
 21 22  1  0
 21 23  2  0
 14 24  1  0
 24 25  1  0
 25 26  2  0
 10  5  1  0
 25 11  1  0
 23 16  1  0
  3 27  1  0
  4 28  1  0
  6 29  1  0
  7 30  1  0
  8 31  1  0
  9 32  1  0
 10 33  1  0
 15 34  1  0
 17 35  1  0
 18 36  1  0
 20 37  1  0
 22 38  1  0
 23 39  1  0
M  END
$$$$
