
     RDKit          3D

 72 75  0  0  0  0  0  0  0  0999 V2000
   -3.6890    0.3776    3.5719 C   0  0  0  0  0  0  0  0  0  0  0  0
   -4.3942    0.0619    2.2831 C   0  0  0  0  0  0  0  0  0  0  0  0
   -5.2619   -1.0378    2.2423 C   0  0  0  0  0  0  0  0  0  0  0  0
   -5.9647   -1.3713    1.0770 C   0  0  0  0  0  0  0  0  0  0  0  0
   -5.8367   -0.6157   -0.0964 C   0  0  0  0  0  0  0  0  0  0  0  0
   -6.6000   -0.9485   -1.3905 C   0  0  0  0  0  0  0  0  0  0  0  0
   -7.5018   -2.1988   -1.2795 C   0  0  0  0  0  0  0  0  0  0  0  0
   -7.5094    0.2378   -1.7764 C   0  0  0  0  0  0  0  0  0  0  0  0
   -5.5951   -1.2114   -2.5329 C   0  0  0  0  0  0  0  0  0  0  0  0
   -4.9691    0.4922   -0.0515 C   0  0  0  0  0  0  0  0  0  0  0  0
   -4.2534    0.8256    1.1136 C   0  0  0  0  0  0  0  0  0  0  0  0
   -3.1780    2.2530    1.0468 S   0  0  0  0  0  6  0  0  0  0  0  0
   -3.2108    2.7910   -0.2981 O   0  0  0  0  0  0  0  0  0  0  0  0
   -3.4915    3.0890    2.1857 O   0  0  0  0  0  0  0  0  0  0  0  0
   -1.6199    1.5743    1.2750 N   0  0  0  0  0  0  0  0  0  0  0  0
   -1.1676    0.6642    0.1920 C   0  0  0  0  0  0  0  0  0  0  0  0
    0.0354   -0.1310    0.6965 C   0  0  0  0  0  0  0  0  0  0  0  0
    1.1857    0.7770    1.1537 C   0  0  0  0  0  0  0  0  0  0  0  0
    1.9398    1.3347   -0.0579 C   0  0  0  0  0  0  0  0  0  0  0  0
    1.6881    2.4606   -0.4874 O   0  0  0  0  0  0  0  0  0  0  0  0
    2.8636    0.5094   -0.6805 N   0  0  0  0  0  0  0  0  0  0  0  0
    3.3675   -0.7568   -0.1211 C   0  0  0  0  0  0  0  0  0  0  0  0
    4.3358   -1.4853   -1.0684 C   0  0  0  0  0  0  0  0  0  0  0  0
    5.4635   -0.6143   -1.4460 N   0  0  0  0  0  0  0  0  0  0  0  0
    6.7284   -0.7843   -0.8749 C   0  0  0  0  0  0  0  0  0  0  0  0
    6.9582   -1.5380    0.2864 C   0  0  0  0  0  0  0  0  0  0  0  0
    8.2431   -1.6868    0.8235 C   0  0  0  0  0  0  0  0  0  0  0  0
    9.3257   -1.0876    0.2004 C   0  0  0  0  0  0  0  0  0  0  0  0
   10.5583   -1.2613    0.7530 O   0  0  0  0  0  0  0  0  0  0  0  0
    9.1443   -0.3386   -0.9518 C   0  0  0  0  0  0  0  0  0  0  0  0
    7.8554   -0.1934   -1.4785 C   0  0  0  0  0  0  0  0  0  0  0  0
    5.1037    0.7949   -1.7601 C   0  0  0  0  0  0  0  0  0  0  0  0
    3.5807    1.0041   -1.8667 C   0  0  0  0  0  0  0  0  0  0  0  0
    0.6785    1.8982    2.0757 C   0  0  0  0  0  0  0  0  0  0  0  0
   -0.5792    2.5983    1.5626 C   0  0  0  0  0  0  0  0  0  0  0  0
   -2.6064    0.4282    3.4293 H   0  0  0  0  0  0  0  0  0  0  0  0
   -3.8674   -0.4013    4.3215 H   0  0  0  0  0  0  0  0  0  0  0  0
   -4.0565    1.3185    3.9917 H   0  0  0  0  0  0  0  0  0  0  0  0
   -5.4083   -1.6529    3.1290 H   0  0  0  0  0  0  0  0  0  0  0  0
   -6.6205   -2.2368    1.1246 H   0  0  0  0  0  0  0  0  0  0  0  0
   -6.9196   -3.0953   -1.0366 H   0  0  0  0  0  0  0  0  0  0  0  0
   -8.0205   -2.3975   -2.2252 H   0  0  0  0  0  0  0  0  0  0  0  0
   -8.2728   -2.0735   -0.5101 H   0  0  0  0  0  0  0  0  0  0  0  0
   -8.0921    0.0122   -2.6774 H   0  0  0  0  0  0  0  0  0  0  0  0
   -8.2164    0.4711   -0.9713 H   0  0  0  0  0  0  0  0  0  0  0  0
   -6.9369    1.1484   -1.9846 H   0  0  0  0  0  0  0  0  0  0  0  0
   -6.1129   -1.4906   -3.4581 H   0  0  0  0  0  0  0  0  0  0  0  0
   -4.9097   -2.0276   -2.2751 H   0  0  0  0  0  0  0  0  0  0  0  0
   -4.9860   -0.3298   -2.7607 H   0  0  0  0  0  0  0  0  0  0  0  0
   -4.8476    1.1126   -0.9384 H   0  0  0  0  0  0  0  0  0  0  0  0
   -1.9564   -0.0476   -0.0682 H   0  0  0  0  0  0  0  0  0  0  0  0
   -0.9125    1.2314   -0.7101 H   0  0  0  0  0  0  0  0  0  0  0  0
    0.3576   -0.8165   -0.0944 H   0  0  0  0  0  0  0  0  0  0  0  0
   -0.2802   -0.7501    1.5465 H   0  0  0  0  0  0  0  0  0  0  0  0
    1.8937    0.1873    1.7464 H   0  0  0  0  0  0  0  0  0  0  0  0
    2.5219   -1.4088    0.1119 H   0  0  0  0  0  0  0  0  0  0  0  0
    3.8765   -0.5137    0.8190 H   0  0  0  0  0  0  0  0  0  0  0  0
    3.7998   -1.7518   -1.9888 H   0  0  0  0  0  0  0  0  0  0  0  0
    4.6555   -2.4412   -0.6408 H   0  0  0  0  0  0  0  0  0  0  0  0
    6.1439   -2.0102    0.8247 H   0  0  0  0  0  0  0  0  0  0  0  0
    8.3919   -2.2700    1.7275 H   0  0  0  0  0  0  0  0  0  0  0  0
   11.2137   -0.8179    0.1901 H   0  0  0  0  0  0  0  0  0  0  0  0
    9.9796    0.1307   -1.4599 H   0  0  0  0  0  0  0  0  0  0  0  0
    7.7425    0.3746   -2.3988 H   0  0  0  0  0  0  0  0  0  0  0  0
    5.4802    1.4594   -0.9706 H   0  0  0  0  0  0  0  0  0  0  0  0
    5.5656    1.0919   -2.7084 H   0  0  0  0  0  0  0  0  0  0  0  0
    3.3700    2.0629   -2.0467 H   0  0  0  0  0  0  0  0  0  0  0  0
    3.1855    0.4475   -2.7253 H   0  0  0  0  0  0  0  0  0  0  0  0
    0.4501    1.4560    3.0550 H   0  0  0  0  0  0  0  0  0  0  0  0
    1.4667    2.6419    2.2437 H   0  0  0  0  0  0  0  0  0  0  0  0
   -0.9273    3.2783    2.3475 H   0  0  0  0  0  0  0  0  0  0  0  0
   -0.3777    3.1968    0.6689 H   0  0  0  0  0  0  0  0  0  0  0  0
  1  2  1  0
  2  3  2  0
  3  4  1  0
  4  5  2  0
  5  6  1  0
  6  7  1  0
  6  8  1  0
  6  9  1  0
  5 10  1  0
 10 11  2  0
 11 12  1  0
 12 13  2  0
 12 14  2  0
 12 15  1  0
 15 16  1  0
 16 17  1  0
 17 18  1  0
 18 19  1  0
 19 20  2  0
 19 21  1  0
 21 22  1  0
 22 23  1  0
 23 24  1  0
 24 25  1  0
 25 26  2  0
 26 27  1  0
 27 28  2  0
 28 29  1  0
 28 30  1  0
 30 31  2  0
 24 32  1  0
 32 33  1  0
 18 34  1  0
 34 35  1  0
 11  2  1  0
 35 15  1  0
 33 21  1  0
 31 25  1  0
  1 36  1  0
  1 37  1  0
  1 38  1  0
  3 39  1  0
  4 40  1  0
  7 41  1  0
  7 42  1  0
  7 43  1  0
  8 44  1  0
  8 45  1  0
  8 46  1  0
  9 47  1  0
  9 48  1  0
  9 49  1  0
 10 50  1  0
 16 51  1  0
 16 52  1  0
 17 53  1  0
 17 54  1  0
 18 55  1  0
 22 56  1  0
 22 57  1  0
 23 58  1  0
 23 59  1  0
 26 60  1  0
 27 61  1  0
 29 62  1  0
 30 63  1  0
 31 64  1  0
 32 65  1  0
 32 66  1  0
 33 67  1  0
 33 68  1  0
 34 69  1  0
 34 70  1  0
 35 71  1  0
 35 72  1  0
M  END
$$$$
