
     RDKit          3D

 36 37  0  0  0  0  0  0  0  0999 V2000
   -2.7234    2.8894   -0.4121 C   0  0  0  0  0  0  0  0  0  0  0  0
   -1.9458    1.6240   -0.4730 C   0  0  0  0  0  0  0  0  0  0  0  0
   -0.6150    1.6581   -0.0842 N   0  0  0  0  0  0  0  0  0  0  0  0
   -0.0724    0.4821   -0.2580 C   0  0  0  0  0  0  0  0  0  0  0  0
    1.2085    0.0620   -0.0254 N   0  0  0  0  0  0  0  0  0  0  0  0
    2.2502    0.8086    0.4586 C   0  0  0  0  0  0  0  0  0  0  0  0
    2.2853    2.4169    0.9201 S   0  0  0  0  0  0  0  0  0  0  0  0
    3.4518    0.1284    0.5858 N   0  0  0  0  0  0  0  0  0  0  0  0
    3.7402   -1.2026    0.2972 C   0  0  0  0  0  0  0  0  0  0  0  0
    2.8690   -1.9647   -0.1247 O   0  0  0  0  0  0  0  0  0  0  0  0
    5.1161   -1.5999    0.5354 C   0  0  0  0  0  0  0  0  0  0  0  0
    6.2439   -0.9293    0.9823 C   0  0  0  0  0  0  0  0  0  0  0  0
    7.3033   -1.8714    1.0044 C   0  0  0  0  0  0  0  0  0  0  0  0
    6.7669   -3.0586    0.5719 C   0  0  0  0  0  0  0  0  0  0  0  0
    5.4505   -2.9065    0.2869 O   0  0  0  0  0  0  0  0  0  0  0  0
   -1.0938   -0.7403   -0.8678 S   0  0  0  0  0  0  0  0  0  0  0  0
   -2.3929    0.3783   -0.8841 C   0  0  0  0  0  0  0  0  0  0  0  0
   -3.6985   -0.0417   -1.3423 C   0  0  0  0  0  0  0  0  0  0  0  0
   -3.8583   -0.5499   -2.4522 O   0  0  0  0  0  0  0  0  0  0  0  0
   -4.7886    0.1751   -0.4863 N   0  0  0  0  0  0  0  0  0  0  0  0
   -6.1144   -0.1450   -0.9868 C   0  0  0  0  0  0  0  0  0  0  0  0
   -4.6723    0.2968    0.9611 C   0  0  0  0  0  0  0  0  0  0  0  0
   -3.2033    2.9929    0.5655 H   0  0  0  0  0  0  0  0  0  0  0  0
   -2.0661    3.7518   -0.5629 H   0  0  0  0  0  0  0  0  0  0  0  0
   -3.4961    2.9197   -1.1864 H   0  0  0  0  0  0  0  0  0  0  0  0
    1.3899   -0.9144   -0.2511 H   0  0  0  0  0  0  0  0  0  0  0  0
    4.1957    0.7112    0.9394 H   0  0  0  0  0  0  0  0  0  0  0  0
    6.3149    0.1123    1.2617 H   0  0  0  0  0  0  0  0  0  0  0  0
    8.3308   -1.7058    1.2980 H   0  0  0  0  0  0  0  0  0  0  0  0
    7.1664   -4.0519    0.4181 H   0  0  0  0  0  0  0  0  0  0  0  0
   -6.8481    0.5134   -0.5126 H   0  0  0  0  0  0  0  0  0  0  0  0
   -6.3407   -1.1874   -0.7438 H   0  0  0  0  0  0  0  0  0  0  0  0
   -6.1730   -0.0100   -2.0706 H   0  0  0  0  0  0  0  0  0  0  0  0
   -3.6455    0.4302    1.3023 H   0  0  0  0  0  0  0  0  0  0  0  0
   -5.2755    1.1479    1.2900 H   0  0  0  0  0  0  0  0  0  0  0  0
   -5.0598   -0.6195    1.4179 H   0  0  0  0  0  0  0  0  0  0  0  0
  1  2  1  0
  2  3  1  0
  3  4  2  0
  4  5  1  0
  5  6  1  0
  6  7  2  0
  6  8  1  0
  8  9  1  0
  9 10  2  0
  9 11  1  0
 11 12  2  0
 12 13  1  0
 13 14  2  0
 14 15  1  0
  4 16  1  0
 16 17  1  0
 17 18  1  0
 18 19  2  0
 18 20  1  0
 20 21  1  0
 20 22  1  0
 17  2  2  0
 15 11  1  0
  1 23  1  0
  1 24  1  0
  1 25  1  0
  5 26  1  0
  8 27  1  0
 12 28  1  0
 13 29  1  0
 14 30  1  0
 21 31  1  0
 21 32  1  0
 21 33  1  0
 22 34  1  0
 22 35  1  0
 22 36  1  0
M  END
$$$$
