
     RDKit          3D

 46 49  0  0  0  0  0  0  0  0999 V2000
   -1.9237    0.3842   -2.9222 C   0  0  0  0  0  0  0  0  0  0  0  0
   -1.8005   -0.9374   -2.3152 N   0  0  0  0  0  0  0  0  0  0  0  0
   -3.0303   -1.7197   -2.3962 C   0  0  0  0  0  0  0  0  0  0  0  0
   -1.2845   -0.8773   -0.9880 N   0  0  0  0  0  0  0  0  0  0  0  0
   -2.0623   -0.2972    0.0371 C   0  0  0  0  0  0  0  0  0  0  0  0
   -3.1455    0.4038   -0.1449 N   0  0  0  0  0  0  0  0  0  0  0  0
   -1.5902   -0.5400    1.4755 C   0  0  0  0  0  0  0  0  0  0  0  0
   -2.1759   -1.8154    1.9284 C   0  0  0  0  0  0  0  0  0  0  0  0
   -2.6272   -2.8178    2.3007 N   0  0  0  0  0  0  0  0  0  0  0  0
   -0.0526   -0.5838    1.5857 C   0  0  0  0  0  0  0  0  0  0  0  0
    0.5547    0.8127    1.7590 C   0  0  0  0  0  0  0  0  0  0  0  0
    1.3773    1.0674    2.8856 C   0  0  0  0  0  0  0  0  0  0  0  0
    1.9610    2.3215    3.0948 C   0  0  0  0  0  0  0  0  0  0  0  0
    1.7162    3.3044    2.1642 C   0  0  0  0  0  0  0  0  0  0  0  0
    0.9320    3.0716    1.0612 C   0  0  0  0  0  0  0  0  0  0  0  0
    0.3426    1.8453    0.8268 C   0  0  0  0  0  0  0  0  0  0  0  0
    0.8230    4.1666    0.2616 O   0  0  0  0  0  0  0  0  0  0  0  0
    1.6316    5.1149    0.9893 C   0  0  0  0  0  0  0  0  0  0  0  0
    2.1986    4.5746    2.2007 O   0  0  0  0  0  0  0  0  0  0  0  0
    0.5906   -1.3284    0.4362 C   0  0  0  0  0  0  0  0  0  0  0  0
   -0.0118   -1.4414   -0.7678 C   0  0  0  0  0  0  0  0  0  0  0  0
    0.6796   -2.1509   -1.9230 C   0  0  0  0  0  0  0  0  0  0  0  0
    2.1891   -2.2678   -1.7394 C   0  0  0  0  0  0  0  0  0  0  0  0
    2.5273   -2.8339   -0.3768 C   0  0  0  0  0  0  0  0  0  0  0  0
    1.8913   -2.0101    0.7148 C   0  0  0  0  0  0  0  0  0  0  0  0
    2.3892   -1.9583    1.8383 O   0  0  0  0  0  0  0  0  0  0  0  0
   -2.7440    0.9833   -2.5170 H   0  0  0  0  0  0  0  0  0  0  0  0
   -2.0966    0.2796   -3.9993 H   0  0  0  0  0  0  0  0  0  0  0  0
   -0.9931    0.9523   -2.8103 H   0  0  0  0  0  0  0  0  0  0  0  0
   -3.8941   -1.2302   -1.9365 H   0  0  0  0  0  0  0  0  0  0  0  0
   -3.2795   -1.9105   -3.4462 H   0  0  0  0  0  0  0  0  0  0  0  0
   -2.8978   -2.6999   -1.9240 H   0  0  0  0  0  0  0  0  0  0  0  0
   -3.5636    0.7188    0.7358 H   0  0  0  0  0  0  0  0  0  0  0  0
   -1.9845    0.2590    2.1172 H   0  0  0  0  0  0  0  0  0  0  0  0
    0.1646   -1.1398    2.5102 H   0  0  0  0  0  0  0  0  0  0  0  0
    1.5833    0.2738    3.6044 H   0  0  0  0  0  0  0  0  0  0  0  0
    2.5928    2.5102    3.9556 H   0  0  0  0  0  0  0  0  0  0  0  0
   -0.2531    1.7150   -0.0699 H   0  0  0  0  0  0  0  0  0  0  0  0
    2.4478    5.4511    0.3394 H   0  0  0  0  0  0  0  0  0  0  0  0
    1.0096    5.9794    1.2484 H   0  0  0  0  0  0  0  0  0  0  0  0
    0.2386   -3.1492   -2.0366 H   0  0  0  0  0  0  0  0  0  0  0  0
    0.5233   -1.6146   -2.8658 H   0  0  0  0  0  0  0  0  0  0  0  0
    2.6457   -1.2752   -1.8492 H   0  0  0  0  0  0  0  0  0  0  0  0
    2.6118   -2.9028   -2.5261 H   0  0  0  0  0  0  0  0  0  0  0  0
    3.6136   -2.8213   -0.2375 H   0  0  0  0  0  0  0  0  0  0  0  0
    2.1757   -3.8667   -0.2789 H   0  0  0  0  0  0  0  0  0  0  0  0
  1  2  1  0
  2  3  1  0
  2  4  1  0
  4  5  1  0
  5  6  2  3
  5  7  1  0
  7  8  1  0
  8  9  3  0
  7 10  1  0
 10 11  1  0
 11 12  2  0
 12 13  1  0
 13 14  2  0
 14 15  1  0
 15 16  2  0
 15 17  1  0
 17 18  1  0
 18 19  1  0
 10 20  1  0
 20 21  2  0
 21 22  1  0
 22 23  1  0
 23 24  1  0
 24 25  1  0
 25 26  2  0
 21  4  1  0
 16 11  1  0
 25 20  1  0
 19 14  1  0
  1 27  1  0
  1 28  1  0
  1 29  1  0
  3 30  1  0
  3 31  1  0
  3 32  1  0
  6 33  1  0
  7 34  1  0
 10 35  1  0
 12 36  1  0
 13 37  1  0
 16 38  1  0
 18 39  1  0
 18 40  1  0
 22 41  1  0
 22 42  1  0
 23 43  1  0
 23 44  1  0
 24 45  1  0
 24 46  1  0
M  END
$$$$
