
     RDKit          3D

 33 35  0  0  0  0  0  0  0  0999 V2000
   -2.9946   -0.1530    3.5055 C   0  0  0  0  0  0  0  0  0  0  0  0
   -2.9825   -1.4248    2.6729 C   0  0  0  0  0  0  0  0  0  0  0  0
   -3.4933   -1.1847    1.2985 C   0  0  0  0  0  0  0  0  0  0  0  0
   -4.7267   -1.3784    0.8679 N   0  0  0  0  0  0  0  0  0  0  0  0
   -4.7782   -1.0088   -0.4581 N   0  0  0  0  0  0  0  0  0  0  0  0
   -3.5748   -0.6167   -0.7942 C   0  0  0  0  0  0  0  0  0  0  0  0
   -2.7082   -0.7211    0.2632 N   0  0  0  0  0  0  0  0  0  0  0  0
   -1.3858   -0.3894    0.3459 N   0  0  0  0  0  0  0  0  0  0  0  0
   -0.7508   -0.1871   -0.7760 C   0  0  0  0  0  0  0  0  0  0  0  0
    0.6851    0.2318   -0.6838 C   0  0  0  0  0  0  0  0  0  0  0  0
    1.6226   -0.1313   -1.6572 C   0  0  0  0  0  0  0  0  0  0  0  0
    2.9586    0.2752   -1.5385 C   0  0  0  0  0  0  0  0  0  0  0  0
    3.3678    1.0408   -0.4463 C   0  0  0  0  0  0  0  0  0  0  0  0
    4.6339    1.4997   -0.2137 O   0  0  0  0  0  0  0  0  0  0  0  0
    5.6282    1.1713   -1.1759 C   0  0  0  0  0  0  0  0  0  0  0  0
    2.4322    1.3919    0.5291 C   0  0  0  0  0  0  0  0  0  0  0  0
    1.0992    0.9889    0.4172 C   0  0  0  0  0  0  0  0  0  0  0  0
   -1.3138   -0.4159   -2.1748 C   0  0  0  0  0  0  0  0  0  0  0  0
   -3.0575    0.0230   -2.3027 S   0  0  0  0  0  0  0  0  0  0  0  0
   -2.6358   -0.3599    4.5188 H   0  0  0  0  0  0  0  0  0  0  0  0
   -2.3492    0.6163    3.0681 H   0  0  0  0  0  0  0  0  0  0  0  0
   -4.0060    0.2611    3.5806 H   0  0  0  0  0  0  0  0  0  0  0  0
   -3.6104   -2.1794    3.1609 H   0  0  0  0  0  0  0  0  0  0  0  0
   -1.9674   -1.8366    2.6388 H   0  0  0  0  0  0  0  0  0  0  0  0
    1.3486   -0.7465   -2.5098 H   0  0  0  0  0  0  0  0  0  0  0  0
    3.6555   -0.0284   -2.3134 H   0  0  0  0  0  0  0  0  0  0  0  0
    6.5730    1.6128   -0.8446 H   0  0  0  0  0  0  0  0  0  0  0  0
    5.7713    0.0876   -1.2409 H   0  0  0  0  0  0  0  0  0  0  0  0
    5.3861    1.5979   -2.1549 H   0  0  0  0  0  0  0  0  0  0  0  0
    2.7446    1.9841    1.3866 H   0  0  0  0  0  0  0  0  0  0  0  0
    0.3925    1.2756    1.1929 H   0  0  0  0  0  0  0  0  0  0  0  0
   -1.1908   -1.4756   -2.4227 H   0  0  0  0  0  0  0  0  0  0  0  0
   -0.7734    0.1799   -2.9152 H   0  0  0  0  0  0  0  0  0  0  0  0
  1  2  1  0
  2  3  1  0
  3  4  2  0
  4  5  1  0
  5  6  2  0
  6  7  1  0
  7  8  1  0
  8  9  2  0
  9 10  1  0
 10 11  2  0
 11 12  1  0
 12 13  2  0
 13 14  1  0
 14 15  1  0
 13 16  1  0
 16 17  2  0
  9 18  1  0
 18 19  1  0
  7  3  1  0
 17 10  1  0
 19  6  1  0
  1 20  1  0
  1 21  1  0
  1 22  1  0
  2 23  1  0
  2 24  1  0
 11 25  1  0
 12 26  1  0
 15 27  1  0
 15 28  1  0
 15 29  1  0
 16 30  1  0
 17 31  1  0
 18 32  1  0
 18 33  1  0
M  END
$$$$
