
     RDKit          3D

 56 60  0  0  0  0  0  0  0  0999 V2000
    5.8782   -0.0299    0.9291 C   0  0  0  0  0  0  0  0  0  0  0  0
    5.4554   -1.3474    1.5577 C   0  0  0  0  0  0  0  0  0  0  0  0
    4.1985   -1.8190    1.0302 N   0  0  0  0  0  0  0  0  0  0  0  0
    4.0600   -2.6599   -0.0678 C   0  0  0  0  0  0  0  0  0  0  0  0
    4.9158   -3.1793   -0.7565 O   0  0  0  0  0  0  0  0  0  0  0  0
    2.6019   -2.8027   -0.2618 C   0  0  0  0  0  0  0  0  0  0  0  0
    1.8818   -3.5257   -1.1879 C   0  0  0  0  0  0  0  0  0  0  0  0
    0.4879   -3.4515   -1.1102 C   0  0  0  0  0  0  0  0  0  0  0  0
   -0.1483   -2.6593   -0.1241 C   0  0  0  0  0  0  0  0  0  0  0  0
    0.5953   -1.8972    0.8275 C   0  0  0  0  0  0  0  0  0  0  0  0
    0.2045   -1.0140    1.8810 C   0  0  0  0  0  0  0  0  0  0  0  0
   -1.5123   -0.6894    2.2601 S   0  0  0  0  0  6  0  0  0  0  0  0
   -1.5841   -0.2862    3.6521 O   0  0  0  0  0  0  0  0  0  0  0  0
   -2.2973   -1.8327    1.8354 O   0  0  0  0  0  0  0  0  0  0  0  0
   -1.9381    0.6615    1.2984 N   0  0  0  0  0  0  0  0  0  0  0  0
   -1.4605    1.9569    1.6509 C   0  0  0  0  0  0  0  0  0  0  0  0
   -0.4561    2.1506    2.3226 O   0  0  0  0  0  0  0  0  0  0  0  0
   -2.2432    3.1190    1.1602 C   0  0  0  0  0  0  0  0  0  0  0  0
   -1.6190    4.3608    1.0086 C   0  0  0  0  0  0  0  0  0  0  0  0
   -2.3555    5.4481    0.5432 C   0  0  0  0  0  0  0  0  0  0  0  0
   -3.6961    5.2569    0.2499 C   0  0  0  0  0  0  0  0  0  0  0  0
   -4.3331    4.0743    0.3961 N   0  0  0  0  0  0  0  0  0  0  0  0
   -3.5946    3.0331    0.8539 C   0  0  0  0  0  0  0  0  0  0  0  0
   -1.9791    0.4112   -0.1264 C   0  0  0  0  0  0  0  0  0  0  0  0
   -3.0907   -0.2400   -0.6687 C   0  0  0  0  0  0  0  0  0  0  0  0
   -3.1419   -0.5424   -2.0339 C   0  0  0  0  0  0  0  0  0  0  0  0
   -2.0732   -0.2095   -2.8654 C   0  0  0  0  0  0  0  0  0  0  0  0
   -1.9919   -0.4519   -4.2077 O   0  0  0  0  0  0  0  0  0  0  0  0
   -3.1112   -1.0825   -4.8184 C   0  0  0  0  0  0  0  0  0  0  0  0
   -0.9539    0.4232   -2.3190 C   0  0  0  0  0  0  0  0  0  0  0  0
   -0.8992    0.7285   -0.9570 C   0  0  0  0  0  0  0  0  0  0  0  0
    1.1797   -0.4018    2.7162 C   0  0  0  0  0  0  0  0  0  0  0  0
    2.5526   -0.6014    2.5113 C   0  0  0  0  0  0  0  0  0  0  0  0
    2.9273   -1.4302    1.4785 C   0  0  0  0  0  0  0  0  0  0  0  0
    1.9782   -2.0356    0.6918 C   0  0  0  0  0  0  0  0  0  0  0  0
    5.1450    0.7580    1.1302 H   0  0  0  0  0  0  0  0  0  0  0  0
    6.8438    0.2912    1.3314 H   0  0  0  0  0  0  0  0  0  0  0  0
    5.9742   -0.1264   -0.1575 H   0  0  0  0  0  0  0  0  0  0  0  0
    6.2208   -2.1027    1.3455 H   0  0  0  0  0  0  0  0  0  0  0  0
    5.3817   -1.2527    2.6462 H   0  0  0  0  0  0  0  0  0  0  0  0
    2.3809   -4.1274   -1.9397 H   0  0  0  0  0  0  0  0  0  0  0  0
   -0.1216   -4.0100   -1.8185 H   0  0  0  0  0  0  0  0  0  0  0  0
   -1.2356   -2.6509   -0.1205 H   0  0  0  0  0  0  0  0  0  0  0  0
   -0.5659    4.4853    1.2510 H   0  0  0  0  0  0  0  0  0  0  0  0
   -1.8952    6.4220    0.4147 H   0  0  0  0  0  0  0  0  0  0  0  0
   -4.3124    6.0737   -0.1163 H   0  0  0  0  0  0  0  0  0  0  0  0
   -4.1583    2.1137    0.9827 H   0  0  0  0  0  0  0  0  0  0  0  0
   -3.9265   -0.5245   -0.0322 H   0  0  0  0  0  0  0  0  0  0  0  0
   -4.0269   -1.0449   -2.4112 H   0  0  0  0  0  0  0  0  0  0  0  0
   -4.0114   -0.4660   -4.7249 H   0  0  0  0  0  0  0  0  0  0  0  0
   -2.8922   -1.1926   -5.8848 H   0  0  0  0  0  0  0  0  0  0  0  0
   -3.2724   -2.0840   -4.4061 H   0  0  0  0  0  0  0  0  0  0  0  0
   -0.1113    0.6710   -2.9614 H   0  0  0  0  0  0  0  0  0  0  0  0
   -0.0004    1.1988   -0.5653 H   0  0  0  0  0  0  0  0  0  0  0  0
    0.8673    0.2495    3.5336 H   0  0  0  0  0  0  0  0  0  0  0  0
    3.2787   -0.1155    3.1532 H   0  0  0  0  0  0  0  0  0  0  0  0
  1  2  1  0
  2  3  1  0
  3  4  1  0
  4  5  2  0
  4  6  1  0
  6  7  2  0
  7  8  1  0
  8  9  2  0
  9 10  1  0
 10 11  2  0
 11 12  1  0
 12 13  2  0
 12 14  2  0
 12 15  1  0
 15 16  1  0
 16 17  2  0
 16 18  1  0
 18 19  2  0
 19 20  1  0
 20 21  2  0
 21 22  1  0
 22 23  2  0
 15 24  1  0
 24 25  2  0
 25 26  1  0
 26 27  2  0
 27 28  1  0
 28 29  1  0
 27 30  1  0
 30 31  2  0
 11 32  1  0
 32 33  2  0
 33 34  1  0
 34 35  2  0
 34  3  1  0
 35  6  1  0
 35 10  1  0
 23 18  1  0
 31 24  1  0
  1 36  1  0
  1 37  1  0
  1 38  1  0
  2 39  1  0
  2 40  1  0
  7 41  1  0
  8 42  1  0
  9 43  1  0
 19 44  1  0
 20 45  1  0
 21 46  1  0
 23 47  1  0
 25 48  1  0
 26 49  1  0
 29 50  1  0
 29 51  1  0
 29 52  1  0
 30 53  1  0
 31 54  1  0
 32 55  1  0
 33 56  1  0
M  END
$$$$
