
     RDKit          3D

 36 38  0  0  0  0  0  0  0  0999 V2000
   -0.5096   -0.6437   -2.9626 C   0  0  0  0  0  0  0  0  0  0  0  0
   -0.8894    0.6655   -2.2836 C   0  0  0  0  0  0  0  0  0  0  0  0
   -1.4099    0.4448   -0.9289 N   0  0  0  0  0  0  0  0  0  0  0  0
   -0.6015    0.3314    0.1908 C   0  0  0  0  0  0  0  0  0  0  0  0
    0.8571    0.5329    0.0082 C   0  0  0  0  0  0  0  0  0  0  0  0
    1.6998   -0.3750    0.5203 C   0  0  0  0  0  0  0  0  0  0  0  0
    3.1052   -0.2199    0.3846 C   0  0  0  0  0  0  0  0  0  0  0  0
    4.1208   -1.0184    0.9079 C   0  0  0  0  0  0  0  0  0  0  0  0
    5.3669   -0.4732    0.5075 C   0  0  0  0  0  0  0  0  0  0  0  0
    5.0457    0.6279   -0.2422 C   0  0  0  0  0  0  0  0  0  0  0  0
    5.8559    1.5876   -0.9217 N   0  0  0  0  0  4  0  0  0  0  0  0
    7.0814    1.4336   -0.8281 O   0  0  0  0  0  0  0  0  0  0  0  0
    5.2841    2.4884   -1.5489 O   0  0  0  0  0  1  0  0  0  0  0  0
    3.7036    0.7989   -0.3305 O   0  0  0  0  0  0  0  0  0  0  0  0
   -1.0466    0.0685    1.3810 N   0  0  0  0  0  0  0  0  0  0  0  0
   -2.4207   -0.1074    1.5629 C   0  0  0  0  0  0  0  0  0  0  0  0
   -2.9050   -0.3611    2.8485 C   0  0  0  0  0  0  0  0  0  0  0  0
   -4.2724   -0.5469    3.0713 C   0  0  0  0  0  0  0  0  0  0  0  0
   -5.1687   -0.4808    2.0053 C   0  0  0  0  0  0  0  0  0  0  0  0
   -4.6964   -0.2280    0.7180 C   0  0  0  0  0  0  0  0  0  0  0  0
   -3.3243   -0.0416    0.5083 C   0  0  0  0  0  0  0  0  0  0  0  0
   -2.7866    0.2241   -0.8353 C   0  0  0  0  0  0  0  0  0  0  0  0
   -3.5530    0.2255   -1.7967 O   0  0  0  0  0  0  0  0  0  0  0  0
    0.2684   -1.1725   -2.4033 H   0  0  0  0  0  0  0  0  0  0  0  0
   -0.1330   -0.4515   -3.9720 H   0  0  0  0  0  0  0  0  0  0  0  0
   -1.3737   -1.3113   -3.0421 H   0  0  0  0  0  0  0  0  0  0  0  0
   -1.6478    1.1758   -2.8887 H   0  0  0  0  0  0  0  0  0  0  0  0
   -0.0242    1.3329   -2.2572 H   0  0  0  0  0  0  0  0  0  0  0  0
    1.1934    1.4289   -0.4980 H   0  0  0  0  0  0  0  0  0  0  0  0
    1.3213   -1.2436    1.0536 H   0  0  0  0  0  0  0  0  0  0  0  0
    3.9677   -1.8998    1.5178 H   0  0  0  0  0  0  0  0  0  0  0  0
    6.3601   -0.8353    0.7351 H   0  0  0  0  0  0  0  0  0  0  0  0
   -2.2084   -0.4129    3.6815 H   0  0  0  0  0  0  0  0  0  0  0  0
   -4.6354   -0.7428    4.0773 H   0  0  0  0  0  0  0  0  0  0  0  0
   -6.2327   -0.6254    2.1764 H   0  0  0  0  0  0  0  0  0  0  0  0
   -5.3919   -0.1761   -0.1166 H   0  0  0  0  0  0  0  0  0  0  0  0
  1  2  1  0
  2  3  1  0
  3  4  1  0
  4  5  1  0
  5  6  2  3
  6  7  1  0
  7  8  2  0
  8  9  1  0
  9 10  2  0
 10 11  1  0
 11 12  2  0
 11 13  1  0
 10 14  1  0
  4 15  2  0
 15 16  1  0
 16 17  2  0
 17 18  1  0
 18 19  2  0
 19 20  1  0
 20 21  2  0
 21 22  1  0
 22 23  2  0
 22  3  1  0
 14  7  1  0
 21 16  1  0
  1 24  1  0
  1 25  1  0
  1 26  1  0
  2 27  1  0
  2 28  1  0
  5 29  1  0
  6 30  1  0
  8 31  1  0
  9 32  1  0
 17 33  1  0
 18 34  1  0
 19 35  1  0
 20 36  1  0
M  CHG  2  11   1  13  -1
M  END
$$$$
