
     RDKit          3D

 46 48  0  0  0  0  0  0  0  0999 V2000
   -1.4721    5.0186    1.3016 C   0  0  0  0  0  0  0  0  0  0  0  0
   -0.5168    3.9166    0.8622 C   0  0  0  0  0  0  0  0  0  0  0  0
   -0.5750    3.6085   -0.6422 C   0  0  0  0  0  0  0  0  0  0  0  0
   -2.1936    3.1128   -1.3388 S   0  0  0  0  0  0  0  0  0  0  0  0
   -2.6694    1.7512   -0.4036 C   0  0  0  0  0  0  0  0  0  0  0  0
   -1.9945    1.1388    0.5385 N   0  0  0  0  0  0  0  0  0  0  0  0
   -2.8304    0.1309    0.9671 C   0  0  0  0  0  0  0  0  0  0  0  0
   -2.6387   -0.8241    1.9769 C   0  0  0  0  0  0  0  0  0  0  0  0
   -3.6560   -1.7572    2.2166 C   0  0  0  0  0  0  0  0  0  0  0  0
   -4.8375   -1.7408    1.4684 C   0  0  0  0  0  0  0  0  0  0  0  0
   -5.0484   -0.7949    0.4584 C   0  0  0  0  0  0  0  0  0  0  0  0
   -4.0202    0.1246    0.2412 C   0  0  0  0  0  0  0  0  0  0  0  0
   -3.8814    1.1695   -0.6359 N   0  0  0  0  0  0  0  0  0  0  0  0
    0.5362    2.6542   -1.1051 C   0  0  0  0  0  0  0  0  0  0  0  0
    1.3274    3.0156   -1.9771 O   0  0  0  0  0  0  0  0  0  0  0  0
    0.5538    1.4287   -0.4681 N   0  0  0  0  0  0  0  0  0  0  0  0
    1.4690    0.3743   -0.6466 C   0  0  0  0  0  0  0  0  0  0  0  0
    2.6247    0.4621   -1.4198 C   0  0  0  0  0  0  0  0  0  0  0  0
    3.4825   -0.6391   -1.5418 C   0  0  0  0  0  0  0  0  0  0  0  0
    3.2013   -1.8465   -0.8933 C   0  0  0  0  0  0  0  0  0  0  0  0
    4.1147   -2.9052   -1.0779 N   0  0  0  0  0  0  0  0  0  0  0  0
    4.0399   -4.1827   -0.5535 C   0  0  0  0  0  0  0  0  0  0  0  0
    5.1981   -5.0485   -0.9884 C   0  0  0  0  0  0  0  0  0  0  0  0
    3.1549   -4.6373    0.1628 O   0  0  0  0  0  0  0  0  0  0  0  0
    2.0500   -1.9319   -0.1134 C   0  0  0  0  0  0  0  0  0  0  0  0
    1.1944   -0.8289    0.0115 C   0  0  0  0  0  0  0  0  0  0  0  0
   -1.3080    5.2557    2.3587 H   0  0  0  0  0  0  0  0  0  0  0  0
   -2.5173    4.7159    1.1905 H   0  0  0  0  0  0  0  0  0  0  0  0
   -1.3107    5.9333    0.7218 H   0  0  0  0  0  0  0  0  0  0  0  0
    0.5057    4.2322    1.1096 H   0  0  0  0  0  0  0  0  0  0  0  0
   -0.6954    3.0263    1.4720 H   0  0  0  0  0  0  0  0  0  0  0  0
   -0.3560    4.5565   -1.1525 H   0  0  0  0  0  0  0  0  0  0  0  0
   -1.7263   -0.8316    2.5643 H   0  0  0  0  0  0  0  0  0  0  0  0
   -3.5231   -2.5033    2.9976 H   0  0  0  0  0  0  0  0  0  0  0  0
   -5.6100   -2.4803    1.6745 H   0  0  0  0  0  0  0  0  0  0  0  0
   -5.9661   -0.7839   -0.1206 H   0  0  0  0  0  0  0  0  0  0  0  0
   -4.5518    1.4731   -1.3263 H   0  0  0  0  0  0  0  0  0  0  0  0
   -0.2572    1.2190    0.1186 H   0  0  0  0  0  0  0  0  0  0  0  0
    2.8923    1.3751   -1.9425 H   0  0  0  0  0  0  0  0  0  0  0  0
    4.3696   -0.5294   -2.1596 H   0  0  0  0  0  0  0  0  0  0  0  0
    4.9071   -2.7029   -1.6750 H   0  0  0  0  0  0  0  0  0  0  0  0
    4.9557   -5.5223   -1.9438 H   0  0  0  0  0  0  0  0  0  0  0  0
    5.3765   -5.8204   -0.2337 H   0  0  0  0  0  0  0  0  0  0  0  0
    6.1153   -4.4604   -1.0924 H   0  0  0  0  0  0  0  0  0  0  0  0
    1.7835   -2.8415    0.4148 H   0  0  0  0  0  0  0  0  0  0  0  0
    0.3031   -0.9335    0.6243 H   0  0  0  0  0  0  0  0  0  0  0  0
  1  2  1  0
  2  3  1  0
  3  4  1  0
  4  5  1  0
  5  6  2  0
  6  7  1  0
  7  8  2  0
  8  9  1  0
  9 10  2  0
 10 11  1  0
 11 12  2  0
 12 13  1  0
  3 14  1  0
 14 15  2  0
 14 16  1  0
 16 17  1  0
 17 18  2  0
 18 19  1  0
 19 20  2  0
 20 21  1  0
 21 22  1  0
 22 23  1  0
 22 24  2  0
 20 25  1  0
 25 26  2  0
 13  5  1  0
 26 17  1  0
 12  7  1  0
  1 27  1  0
  1 28  1  0
  1 29  1  0
  2 30  1  0
  2 31  1  0
  3 32  1  0
  8 33  1  0
  9 34  1  0
 10 35  1  0
 11 36  1  0
 13 37  1  0
 16 38  1  0
 18 39  1  0
 19 40  1  0
 21 41  1  0
 23 42  1  0
 23 43  1  0
 23 44  1  0
 25 45  1  0
 26 46  1  0
M  END
$$$$
