
     RDKit          3D

 34 37  0  0  0  0  0  0  0  0999 V2000
    4.8706    1.8638   -0.5974 N   0  0  0  0  0  0  0  0  0  0  0  0
    3.7670    1.0028   -0.4078 C   0  0  0  0  0  0  0  0  0  0  0  0
    3.4322    0.0346   -1.3746 C   0  0  0  0  0  0  0  0  0  0  0  0
    4.4789   -0.2644   -2.7207 Cl  0  0  0  0  0  0  0  0  0  0  0  0
    2.2658   -0.7255   -1.2689 C   0  0  0  0  0  0  0  0  0  0  0  0
    1.3832   -0.4940   -0.2115 C   0  0  0  0  0  0  0  0  0  0  0  0
    0.1618   -1.3270   -0.1021 C   0  0  0  0  0  0  0  0  0  0  0  0
    0.2872   -2.6089   -0.2479 N   0  0  0  0  0  0  0  0  0  0  0  0
   -0.9308   -3.4426   -0.1408 C   0  0  0  0  0  0  0  0  0  0  0  0
   -1.8956   -2.9562    0.9355 C   0  0  0  0  0  0  0  0  0  0  0  0
   -2.0957   -1.5353    0.7449 N   0  0  0  0  0  0  0  0  0  0  0  0
   -3.2371   -0.9216    1.0862 N   0  0  0  0  0  0  0  0  0  0  0  0
   -3.0572    0.3454    0.6775 C   0  0  0  0  0  0  0  0  0  0  0  0
   -3.9404    1.4362    0.7361 C   0  0  0  0  0  0  0  0  0  0  0  0
   -3.4230    2.6246    0.1796 C   0  0  0  0  0  0  0  0  0  0  0  0
   -2.1218    2.7209   -0.4004 C   0  0  0  0  0  0  0  0  0  0  0  0
   -1.2089    1.6476   -0.4728 C   0  0  0  0  0  0  0  0  0  0  0  0
   -1.7299    0.4864    0.0996 C   0  0  0  0  0  0  0  0  0  0  0  0
   -1.1184   -0.7409    0.2097 C   0  0  0  0  0  0  0  0  0  0  0  0
    1.6794    0.4709    0.7539 C   0  0  0  0  0  0  0  0  0  0  0  0
    2.8492    1.2254    0.6373 C   0  0  0  0  0  0  0  0  0  0  0  0
    3.1576    2.4335    1.8383 Cl  0  0  0  0  0  0  0  0  0  0  0  0
    5.6124    1.4529   -1.1605 H   0  0  0  0  0  0  0  0  0  0  0  0
    5.2031    2.2930    0.2634 H   0  0  0  0  0  0  0  0  0  0  0  0
    2.0390   -1.4892   -2.0098 H   0  0  0  0  0  0  0  0  0  0  0  0
   -0.6279   -4.4702    0.0870 H   0  0  0  0  0  0  0  0  0  0  0  0
   -1.4230   -3.4640   -1.1212 H   0  0  0  0  0  0  0  0  0  0  0  0
   -2.8612   -3.4656    0.8646 H   0  0  0  0  0  0  0  0  0  0  0  0
   -1.4802   -3.0872    1.9401 H   0  0  0  0  0  0  0  0  0  0  0  0
   -4.9308    1.3624    1.1629 H   0  0  0  0  0  0  0  0  0  0  0  0
   -4.0526    3.5147    0.1845 H   0  0  0  0  0  0  0  0  0  0  0  0
   -1.8195    3.6833   -0.8166 H   0  0  0  0  0  0  0  0  0  0  0  0
   -0.2406    1.7547   -0.9400 H   0  0  0  0  0  0  0  0  0  0  0  0
    1.0070    0.6396    1.5918 H   0  0  0  0  0  0  0  0  0  0  0  0
  1  2  1  0
  2  3  2  0
  3  4  1  0
  3  5  1  0
  5  6  2  0
  6  7  1  0
  7  8  2  0
  8  9  1  0
  9 10  1  0
 10 11  1  0
 11 12  1  0
 12 13  2  0
 13 14  1  0
 14 15  2  0
 15 16  1  0
 16 17  2  0
 17 18  1  0
 18 19  2  0
  6 20  1  0
 20 21  2  0
 21 22  1  0
 21  2  1  0
 19  7  1  0
 19 11  1  0
 18 13  1  0
  1 23  1  0
  1 24  1  0
  5 25  1  0
  9 26  1  0
  9 27  1  0
 10 28  1  0
 10 29  1  0
 14 30  1  0
 15 31  1  0
 16 32  1  0
 17 33  1  0
 20 34  1  0
M  END
$$$$
