
     RDKit          3D

 52 53  0  0  0  0  0  0  0  0999 V2000
    3.7283    5.0926    2.2250 C   0  0  0  0  0  0  0  0  0  0  0  0
    3.3009    3.7402    2.3183 O   0  0  0  0  0  0  0  0  0  0  0  0
    3.7648    2.8769    1.3635 C   0  0  0  0  0  0  0  0  0  0  0  0
    4.6179    3.2012    0.3109 C   0  0  0  0  0  0  0  0  0  0  0  0
    5.0143    2.2139   -0.5926 C   0  0  0  0  0  0  0  0  0  0  0  0
    4.5589    0.9005   -0.4520 C   0  0  0  0  0  0  0  0  0  0  0  0
    3.7029    0.5628    0.5943 C   0  0  0  0  0  0  0  0  0  0  0  0
    3.1975   -0.7321    0.8129 N   0  0  0  0  0  0  0  0  0  0  0  0
    3.3810   -1.8639    0.0354 C   0  0  0  0  0  0  0  0  0  0  0  0
    4.0257   -1.9446   -1.0070 O   0  0  0  0  0  0  0  0  0  0  0  0
    2.6418   -3.0846    0.5982 C   0  0  0  0  0  0  0  0  0  0  0  0
    1.1971   -2.9757    0.3892 N   0  0  0  0  0  0  0  0  0  0  0  0
    0.6996   -3.3574   -0.9276 C   0  0  0  0  0  0  0  0  0  0  0  0
    0.4811   -2.2209    1.3018 C   0  0  0  0  0  0  0  0  0  0  0  0
    0.9836   -1.7456    2.3194 O   0  0  0  0  0  0  0  0  0  0  0  0
   -0.9402   -1.9569    1.0085 C   0  0  0  0  0  0  0  0  0  0  0  0
   -1.2458   -0.9792    0.1433 C   0  0  0  0  0  0  0  0  0  0  0  0
   -2.6248   -0.6446   -0.2461 C   0  0  0  0  0  0  0  0  0  0  0  0
   -3.6107   -0.4609    0.7365 C   0  0  0  0  0  0  0  0  0  0  0  0
   -4.9202   -0.1188    0.3909 C   0  0  0  0  0  0  0  0  0  0  0  0
   -5.7735    0.0212    1.4498 O   0  0  0  0  0  0  0  0  0  0  0  0
   -7.1147    0.3898    1.1541 C   0  0  0  0  0  0  0  0  0  0  0  0
   -5.2463    0.0500   -0.9518 C   0  0  0  0  0  0  0  0  0  0  0  0
   -4.2706   -0.1184   -1.9429 C   0  0  0  0  0  0  0  0  0  0  0  0
   -2.9580   -0.4609   -1.6025 C   0  0  0  0  0  0  0  0  0  0  0  0
   -1.9450   -0.6535   -2.5092 O   0  0  0  0  0  0  0  0  0  0  0  0
   -2.2382   -0.4263   -3.8812 C   0  0  0  0  0  0  0  0  0  0  0  0
    3.3132    1.5592    1.4976 C   0  0  0  0  0  0  0  0  0  0  0  0
    3.3828    5.5530    1.2931 H   0  0  0  0  0  0  0  0  0  0  0  0
    3.2766    5.6443    3.0559 H   0  0  0  0  0  0  0  0  0  0  0  0
    4.8156    5.1714    2.3260 H   0  0  0  0  0  0  0  0  0  0  0  0
    4.9947    4.2077    0.1656 H   0  0  0  0  0  0  0  0  0  0  0  0
    5.6826    2.4651   -1.4124 H   0  0  0  0  0  0  0  0  0  0  0  0
    4.8937    0.1645   -1.1754 H   0  0  0  0  0  0  0  0  0  0  0  0
    2.5697   -0.8419    1.6120 H   0  0  0  0  0  0  0  0  0  0  0  0
    2.8652   -3.1714    1.6677 H   0  0  0  0  0  0  0  0  0  0  0  0
    3.0144   -3.9934    0.1152 H   0  0  0  0  0  0  0  0  0  0  0  0
    0.9229   -2.5542   -1.6365 H   0  0  0  0  0  0  0  0  0  0  0  0
    1.1927   -4.2799   -1.2491 H   0  0  0  0  0  0  0  0  0  0  0  0
   -0.3778   -3.5361   -0.9118 H   0  0  0  0  0  0  0  0  0  0  0  0
   -1.6688   -2.5599    1.5330 H   0  0  0  0  0  0  0  0  0  0  0  0
   -0.4623   -0.4125   -0.3578 H   0  0  0  0  0  0  0  0  0  0  0  0
   -3.3617   -0.5699    1.7905 H   0  0  0  0  0  0  0  0  0  0  0  0
   -7.6584    0.4601    2.1009 H   0  0  0  0  0  0  0  0  0  0  0  0
   -7.6081   -0.3735    0.5432 H   0  0  0  0  0  0  0  0  0  0  0  0
   -7.1574    1.3709    0.6693 H   0  0  0  0  0  0  0  0  0  0  0  0
   -6.2502    0.3161   -1.2666 H   0  0  0  0  0  0  0  0  0  0  0  0
   -4.5736    0.0254   -2.9746 H   0  0  0  0  0  0  0  0  0  0  0  0
   -1.3185   -0.5886   -4.4510 H   0  0  0  0  0  0  0  0  0  0  0  0
   -2.5568    0.6073   -4.0517 H   0  0  0  0  0  0  0  0  0  0  0  0
   -2.9849   -1.1374   -4.2470 H   0  0  0  0  0  0  0  0  0  0  0  0
    2.6468    1.3215    2.3249 H   0  0  0  0  0  0  0  0  0  0  0  0
  1  2  1  0
  2  3  1  0
  3  4  2  0
  4  5  1  0
  5  6  2  0
  6  7  1  0
  7  8  1  0
  8  9  1  0
  9 10  2  0
  9 11  1  0
 11 12  1  0
 12 13  1  0
 12 14  1  0
 14 15  2  0
 14 16  1  0
 16 17  2  3
 17 18  1  0
 18 19  2  0
 19 20  1  0
 20 21  1  0
 21 22  1  0
 20 23  2  0
 23 24  1  0
 24 25  2  0
 25 26  1  0
 26 27  1  0
  7 28  2  0
 28  3  1  0
 25 18  1  0
  1 29  1  0
  1 30  1  0
  1 31  1  0
  4 32  1  0
  5 33  1  0
  6 34  1  0
  8 35  1  0
 11 36  1  0
 11 37  1  0
 13 38  1  0
 13 39  1  0
 13 40  1  0
 16 41  1  0
 17 42  1  0
 19 43  1  0
 22 44  1  0
 22 45  1  0
 22 46  1  0
 23 47  1  0
 24 48  1  0
 27 49  1  0
 27 50  1  0
 27 51  1  0
 28 52  1  0
M  END
$$$$
