
     RDKit          3D

 39 41  0  0  0  0  0  0  0  0999 V2000
    4.9451   -0.3781    0.8102 C   0  0  0  0  0  0  0  0  0  0  0  0
    4.2319    0.3596   -0.3238 C   0  0  0  0  0  0  0  0  0  0  0  0
    4.8698   -0.0139   -1.6642 C   0  0  0  0  0  0  0  0  0  0  0  0
    2.7230    0.0582   -0.3622 C   0  0  0  0  0  0  0  0  0  0  0  0
    1.9738    0.5374    0.8873 C   0  0  0  0  0  0  0  0  0  0  0  0
    0.5307    0.3465    0.7524 N   0  0  0  0  0  0  0  0  0  0  0  0
    0.0067   -0.8906    1.1196 C   0  0  0  0  0  0  0  0  0  0  0  0
    0.6873   -1.8203    1.5467 O   0  0  0  0  0  0  0  0  0  0  0  0
   -1.4555   -1.0750    0.9666 C   0  0  0  0  0  0  0  0  0  0  0  0
   -2.0249   -2.2939    1.3541 C   0  0  0  0  0  0  0  0  0  0  0  0
   -3.3907   -2.4947    1.2147 C   0  0  0  0  0  0  0  0  0  0  0  0
   -4.1903   -1.4765    0.6946 C   0  0  0  0  0  0  0  0  0  0  0  0
   -3.6485   -0.2303    0.3007 C   0  0  0  0  0  0  0  0  0  0  0  0
   -4.4367    0.8338   -0.2179 C   0  0  0  0  0  0  0  0  0  0  0  0
   -5.8152    0.7061   -0.4904 N   0  0  0  0  0  0  0  0  0  0  0  0
   -3.8152    2.0026   -0.6708 C   0  0  0  0  0  0  0  0  0  0  0  0
   -2.4428    2.1774   -0.5351 C   0  0  0  0  0  0  0  0  0  0  0  0
   -1.6640    1.1614    0.0256 C   0  0  0  0  0  0  0  0  0  0  0  0
   -2.2446   -0.0442    0.4371 C   0  0  0  0  0  0  0  0  0  0  0  0
   -0.2038    1.3717    0.1616 C   0  0  0  0  0  0  0  0  0  0  0  0
    0.2934    2.4162   -0.2525 O   0  0  0  0  0  0  0  0  0  0  0  0
    4.5976   -0.0354    1.7894 H   0  0  0  0  0  0  0  0  0  0  0  0
    6.0252   -0.1999    0.7703 H   0  0  0  0  0  0  0  0  0  0  0  0
    4.7787   -1.4588    0.7473 H   0  0  0  0  0  0  0  0  0  0  0  0
    4.3719    1.4376   -0.1743 H   0  0  0  0  0  0  0  0  0  0  0  0
    5.9376    0.2296   -1.6686 H   0  0  0  0  0  0  0  0  0  0  0  0
    4.7652   -1.0847   -1.8698 H   0  0  0  0  0  0  0  0  0  0  0  0
    4.4002    0.5371   -2.4859 H   0  0  0  0  0  0  0  0  0  0  0  0
    2.2868    0.5436   -1.2450 H   0  0  0  0  0  0  0  0  0  0  0  0
    2.5612   -1.0191   -0.4974 H   0  0  0  0  0  0  0  0  0  0  0  0
    2.1827    1.5993    1.0623 H   0  0  0  0  0  0  0  0  0  0  0  0
    2.3183   -0.0084    1.7722 H   0  0  0  0  0  0  0  0  0  0  0  0
   -1.4035   -3.0893    1.7620 H   0  0  0  0  0  0  0  0  0  0  0  0
   -3.8355   -3.4417    1.5114 H   0  0  0  0  0  0  0  0  0  0  0  0
   -5.2543   -1.6771    0.6015 H   0  0  0  0  0  0  0  0  0  0  0  0
   -5.9716    0.4711   -1.4689 H   0  0  0  0  0  0  0  0  0  0  0  0
   -6.2911    0.0404    0.1081 H   0  0  0  0  0  0  0  0  0  0  0  0
   -4.4133    2.7962   -1.1144 H   0  0  0  0  0  0  0  0  0  0  0  0
   -1.9856    3.1062   -0.8709 H   0  0  0  0  0  0  0  0  0  0  0  0
  1  2  1  0
  2  3  1  0
  2  4  1  0
  4  5  1  0
  5  6  1  0
  6  7  1  0
  7  8  2  0
  7  9  1  0
  9 10  1  0
 10 11  2  0
 11 12  1  0
 12 13  2  0
 13 14  1  0
 14 15  1  0
 14 16  2  0
 16 17  1  0
 17 18  2  0
 18 19  1  0
 18 20  1  0
 20 21  2  0
 20  6  1  0
 19  9  2  0
 19 13  1  0
  1 22  1  0
  1 23  1  0
  1 24  1  0
  2 25  1  0
  3 26  1  0
  3 27  1  0
  3 28  1  0
  4 29  1  0
  4 30  1  0
  5 31  1  0
  5 32  1  0
 10 33  1  0
 11 34  1  0
 12 35  1  0
 15 36  1  0
 15 37  1  0
 16 38  1  0
 17 39  1  0
M  END
$$$$
