
     RDKit          3D

 45 47  0  0  0  0  0  0  0  0999 V2000
   -4.2969    1.6539    3.4421 C   0  0  0  0  0  0  0  0  0  0  0  0
   -3.6245    0.9621    2.3963 O   0  0  0  0  0  0  0  0  0  0  0  0
   -4.3891    0.5519    1.3269 C   0  0  0  0  0  0  0  0  0  0  0  0
   -5.7643    0.7673    1.1967 C   0  0  0  0  0  0  0  0  0  0  0  0
   -6.4404    0.3078    0.0648 C   0  0  0  0  0  0  0  0  0  0  0  0
   -5.7479   -0.3661   -0.9378 C   0  0  0  0  0  0  0  0  0  0  0  0
   -4.3743   -0.5862   -0.8169 C   0  0  0  0  0  0  0  0  0  0  0  0
   -3.6868   -0.1325    0.3101 C   0  0  0  0  0  0  0  0  0  0  0  0
   -2.2999   -0.3143    0.5080 N   0  0  0  0  0  0  0  0  0  0  0  0
   -1.3887   -0.9452   -0.3154 C   0  0  0  0  0  0  0  0  0  0  0  0
   -1.6317   -1.4805   -1.3916 O   0  0  0  0  0  0  0  0  0  0  0  0
    0.0265   -0.9087    0.2604 C   0  0  0  0  0  0  0  0  0  0  0  0
    0.9691   -1.8225   -0.5296 C   0  0  0  0  0  0  0  0  0  0  0  0
    2.3868   -1.7841    0.0334 C   0  0  0  0  0  0  0  0  0  0  0  0
    2.7914   -0.4098    0.4102 N   0  0  0  0  0  0  0  0  0  0  0  0
    4.4566   -0.1480    0.6152 S   0  0  0  0  0  6  0  0  0  0  0  0
    4.9888   -1.2856    1.3377 O   0  0  0  0  0  0  0  0  0  0  0  0
    4.6656    1.2043    1.0846 O   0  0  0  0  0  0  0  0  0  0  0  0
    5.2462   -0.2475   -0.9833 C   0  0  0  0  0  0  0  0  0  0  0  0
    6.0436   -1.2243   -1.5524 C   0  0  0  0  0  0  0  0  0  0  0  0
    6.4570   -0.8895   -2.8737 C   0  0  0  0  0  0  0  0  0  0  0  0
    5.9645    0.3338   -3.2700 C   0  0  0  0  0  0  0  0  0  0  0  0
    5.0128    1.0677   -2.0526 S   0  0  0  0  0  0  0  0  0  0  0  0
    1.9901    0.6676   -0.1919 C   0  0  0  0  0  0  0  0  0  0  0  0
    0.5531    0.5383    0.3096 C   0  0  0  0  0  0  0  0  0  0  0  0
   -4.7327    2.5906    3.0794 H   0  0  0  0  0  0  0  0  0  0  0  0
   -5.0541    1.0183    3.9127 H   0  0  0  0  0  0  0  0  0  0  0  0
   -3.5546    1.9068    4.2051 H   0  0  0  0  0  0  0  0  0  0  0  0
   -6.3402    1.2875    1.9542 H   0  0  0  0  0  0  0  0  0  0  0  0
   -7.5099    0.4757   -0.0352 H   0  0  0  0  0  0  0  0  0  0  0  0
   -6.2749   -0.7238   -1.8191 H   0  0  0  0  0  0  0  0  0  0  0  0
   -3.8698   -1.1152   -1.6188 H   0  0  0  0  0  0  0  0  0  0  0  0
   -1.9683    0.0736    1.3865 H   0  0  0  0  0  0  0  0  0  0  0  0
   -0.0346   -1.2992    1.2862 H   0  0  0  0  0  0  0  0  0  0  0  0
    0.9885   -1.5179   -1.5848 H   0  0  0  0  0  0  0  0  0  0  0  0
    0.6008   -2.8558   -0.5225 H   0  0  0  0  0  0  0  0  0  0  0  0
    3.0734   -2.2074   -0.7068 H   0  0  0  0  0  0  0  0  0  0  0  0
    2.4321   -2.4070    0.9343 H   0  0  0  0  0  0  0  0  0  0  0  0
    6.3160   -2.1345   -1.0300 H   0  0  0  0  0  0  0  0  0  0  0  0
    7.0871   -1.5107   -3.4991 H   0  0  0  0  0  0  0  0  0  0  0  0
    6.1209    0.8367   -4.2150 H   0  0  0  0  0  0  0  0  0  0  0  0
    2.0218    0.6013   -1.2847 H   0  0  0  0  0  0  0  0  0  0  0  0
    2.3669    1.6545    0.0937 H   0  0  0  0  0  0  0  0  0  0  0  0
   -0.0813    1.2222   -0.2673 H   0  0  0  0  0  0  0  0  0  0  0  0
    0.5051    0.8849    1.3505 H   0  0  0  0  0  0  0  0  0  0  0  0
  1  2  1  0
  2  3  1  0
  3  4  2  0
  4  5  1  0
  5  6  2  0
  6  7  1  0
  7  8  2  0
  8  9  1  0
  9 10  1  0
 10 11  2  0
 10 12  1  0
 12 13  1  0
 13 14  1  0
 14 15  1  0
 15 16  1  0
 16 17  2  0
 16 18  2  0
 16 19  1  0
 19 20  2  0
 20 21  1  0
 21 22  2  0
 22 23  1  0
 15 24  1  0
 24 25  1  0
  8  3  1  0
 25 12  1  0
 23 19  1  0
  1 26  1  0
  1 27  1  0
  1 28  1  0
  4 29  1  0
  5 30  1  0
  6 31  1  0
  7 32  1  0
  9 33  1  0
 12 34  1  0
 13 35  1  0
 13 36  1  0
 14 37  1  0
 14 38  1  0
 20 39  1  0
 21 40  1  0
 22 41  1  0
 24 42  1  0
 24 43  1  0
 25 44  1  0
 25 45  1  0
M  END
$$$$
