
     RDKit          3D

 33 34  0  0  0  0  0  0  0  0999 V2000
    2.4019   -3.1778   -3.3237 C   0  0  0  0  0  0  0  0  0  0  0  0
    1.6987   -2.4143   -2.2143 C   0  0  0  0  0  0  0  0  0  0  0  0
    2.1303   -0.9517   -2.1607 C   0  0  0  0  0  0  0  0  0  0  0  0
    3.2296   -0.6055   -2.6005 O   0  0  0  0  0  0  0  0  0  0  0  0
    1.1201    0.0472   -1.6089 C   0  0  0  0  0  0  0  0  0  0  0  0
    1.6160    1.4273   -1.7204 C   0  0  0  0  0  0  0  0  0  0  0  0
    1.8892    2.5544   -1.7921 N   0  0  0  0  0  0  0  0  0  0  0  0
    0.7701   -0.2589   -0.1864 C   0  0  0  0  0  0  0  0  0  0  0  0
    1.3431   -1.1664    0.5763 N   0  0  0  0  0  0  0  0  0  0  0  0
    0.7417   -1.1498    1.8001 N   0  0  0  0  0  0  0  0  0  0  0  0
   -0.1894   -0.2205    1.7959 C   0  0  0  0  0  0  0  0  0  0  0  0
   -0.2304    0.3543    0.5475 N   0  0  0  0  0  0  0  0  0  0  0  0
   -1.1063    1.4198    0.0955 C   0  0  0  0  0  0  0  0  0  0  0  0
   -2.4900    1.4366    0.7370 C   0  0  0  0  0  0  0  0  0  0  0  0
   -2.5106    2.0473    2.1380 C   0  0  0  0  0  0  0  0  0  0  0  0
   -1.3774    1.6082    3.0655 C   0  0  0  0  0  0  0  0  0  0  0  0
   -1.0507    0.1237    2.9639 C   0  0  0  0  0  0  0  0  0  0  0  0
    3.4837   -3.2086   -3.1573 H   0  0  0  0  0  0  0  0  0  0  0  0
    2.0357   -4.2081   -3.3682 H   0  0  0  0  0  0  0  0  0  0  0  0
    2.2254   -2.7074   -4.2966 H   0  0  0  0  0  0  0  0  0  0  0  0
    0.6184   -2.4558   -2.3889 H   0  0  0  0  0  0  0  0  0  0  0  0
    1.9161   -2.8847   -1.2514 H   0  0  0  0  0  0  0  0  0  0  0  0
    0.2228   -0.0522   -2.2326 H   0  0  0  0  0  0  0  0  0  0  0  0
   -0.5782    2.3659    0.2566 H   0  0  0  0  0  0  0  0  0  0  0  0
   -1.2432    1.2851   -0.9827 H   0  0  0  0  0  0  0  0  0  0  0  0
   -3.1672    2.0257    0.1061 H   0  0  0  0  0  0  0  0  0  0  0  0
   -2.9057    0.4215    0.7658 H   0  0  0  0  0  0  0  0  0  0  0  0
   -3.4733    1.8008    2.6035 H   0  0  0  0  0  0  0  0  0  0  0  0
   -2.4852    3.1413    2.0579 H   0  0  0  0  0  0  0  0  0  0  0  0
   -1.6778    1.8401    4.0949 H   0  0  0  0  0  0  0  0  0  0  0  0
   -0.4813    2.2102    2.8668 H   0  0  0  0  0  0  0  0  0  0  0  0
   -0.5098   -0.1692    3.8729 H   0  0  0  0  0  0  0  0  0  0  0  0
   -1.9664   -0.4783    2.9403 H   0  0  0  0  0  0  0  0  0  0  0  0
  1  2  1  0
  2  3  1  0
  3  4  2  0
  3  5  1  0
  5  6  1  0
  6  7  3  0
  5  8  1  0
  8  9  2  0
  9 10  1  0
 10 11  2  0
 11 12  1  0
 12 13  1  0
 13 14  1  0
 14 15  1  0
 15 16  1  0
 16 17  1  0
 12  8  1  0
 17 11  1  0
  1 18  1  0
  1 19  1  0
  1 20  1  0
  2 21  1  0
  2 22  1  0
  5 23  1  0
 13 24  1  0
 13 25  1  0
 14 26  1  0
 14 27  1  0
 15 28  1  0
 15 29  1  0
 16 30  1  0
 16 31  1  0
 17 32  1  0
 17 33  1  0
M  END
$$$$
