
     RDKit          3D

 45 47  0  0  0  0  0  0  0  0999 V2000
    6.9301   -1.1910    1.7813 C   0  0  0  0  0  0  0  0  0  0  0  0
    6.3144   -0.5894    0.6522 O   0  0  0  0  0  0  0  0  0  0  0  0
    4.9462   -0.4813    0.6531 C   0  0  0  0  0  0  0  0  0  0  0  0
    4.1178   -0.9380    1.6807 C   0  0  0  0  0  0  0  0  0  0  0  0
    2.7309   -0.7821    1.5918 C   0  0  0  0  0  0  0  0  0  0  0  0
    2.1505   -0.1662    0.4794 C   0  0  0  0  0  0  0  0  0  0  0  0
    0.7433   -0.0629    0.4612 N   0  0  0  0  0  0  0  0  0  0  0  0
   -0.0348    0.6695   -0.4093 C   0  0  0  0  0  0  0  0  0  0  0  0
    0.3988    1.4699   -1.2336 O   0  0  0  0  0  0  0  0  0  0  0  0
   -1.4058    0.4466   -0.2681 N   0  0  0  0  0  0  0  0  0  0  0  0
   -1.9999   -0.6953    0.4341 C   0  0  0  0  0  0  0  0  0  0  0  0
   -3.3322   -1.1056   -0.1753 C   0  0  0  0  0  0  0  0  0  0  0  0
   -4.3257    0.0578   -0.1535 C   0  0  0  0  0  0  0  0  0  0  0  0
   -3.6629    1.4285   -0.3256 C   0  0  0  0  0  0  0  0  0  0  0  0
   -2.3191    1.3022   -1.0272 C   0  0  0  0  0  0  0  0  0  0  0  0
   -5.2785   -0.1356   -1.2172 O   0  0  0  0  0  0  0  0  0  0  0  0
   -6.4890   -0.5214   -0.5673 C   0  0  0  0  0  0  0  0  0  0  0  0
   -6.4033    0.1720    0.7630 C   0  0  0  0  0  0  0  0  0  0  0  0
   -5.0247    0.0396    1.1080 O   0  0  0  0  0  0  0  0  0  0  0  0
    2.9770    0.2801   -0.5548 C   0  0  0  0  0  0  0  0  0  0  0  0
    4.3701    0.1359   -0.4743 C   0  0  0  0  0  0  0  0  0  0  0  0
    5.2483    0.5509   -1.4474 O   0  0  0  0  0  0  0  0  0  0  0  0
    4.7185    1.3094   -2.5264 C   0  0  0  0  0  0  0  0  0  0  0  0
    6.7312   -0.6176    2.6927 H   0  0  0  0  0  0  0  0  0  0  0  0
    6.6168   -2.2342    1.8930 H   0  0  0  0  0  0  0  0  0  0  0  0
    8.0117   -1.1854    1.6153 H   0  0  0  0  0  0  0  0  0  0  0  0
    4.5181   -1.4205    2.5656 H   0  0  0  0  0  0  0  0  0  0  0  0
    2.1154   -1.1491    2.4089 H   0  0  0  0  0  0  0  0  0  0  0  0
    0.2665   -0.3997    1.2818 H   0  0  0  0  0  0  0  0  0  0  0  0
   -2.1256   -0.4033    1.4831 H   0  0  0  0  0  0  0  0  0  0  0  0
   -1.3127   -1.5473    0.4014 H   0  0  0  0  0  0  0  0  0  0  0  0
   -3.1689   -1.4410   -1.2079 H   0  0  0  0  0  0  0  0  0  0  0  0
   -3.7362   -1.9657    0.3723 H   0  0  0  0  0  0  0  0  0  0  0  0
   -4.3117    2.1025   -0.8975 H   0  0  0  0  0  0  0  0  0  0  0  0
   -3.5067    1.8962    0.6554 H   0  0  0  0  0  0  0  0  0  0  0  0
   -2.4342    0.8655   -2.0265 H   0  0  0  0  0  0  0  0  0  0  0  0
   -1.8764    2.2966   -1.1537 H   0  0  0  0  0  0  0  0  0  0  0  0
   -6.4819   -1.6110   -0.4556 H   0  0  0  0  0  0  0  0  0  0  0  0
   -7.3581   -0.2230   -1.1584 H   0  0  0  0  0  0  0  0  0  0  0  0
   -6.6335    1.2396    0.6790 H   0  0  0  0  0  0  0  0  0  0  0  0
   -7.0392   -0.2774    1.5295 H   0  0  0  0  0  0  0  0  0  0  0  0
    2.5324    0.7289   -1.4337 H   0  0  0  0  0  0  0  0  0  0  0  0
    5.5567    1.6239   -3.1558 H   0  0  0  0  0  0  0  0  0  0  0  0
    4.0515    0.6998   -3.1445 H   0  0  0  0  0  0  0  0  0  0  0  0
    4.2150    2.2138   -2.1690 H   0  0  0  0  0  0  0  0  0  0  0  0
  1  2  1  0
  2  3  1  0
  3  4  2  0
  4  5  1  0
  5  6  2  0
  6  7  1  0
  7  8  1  0
  8  9  2  0
  8 10  1  0
 10 11  1  0
 11 12  1  0
 12 13  1  0
 13 14  1  0
 14 15  1  0
 13 16  1  0
 16 17  1  0
 17 18  1  0
 18 19  1  0
  6 20  1  0
 20 21  2  0
 21 22  1  0
 22 23  1  0
 21  3  1  0
 15 10  1  0
 19 13  1  0
  1 24  1  0
  1 25  1  0
  1 26  1  0
  4 27  1  0
  5 28  1  0
  7 29  1  0
 11 30  1  0
 11 31  1  0
 12 32  1  0
 12 33  1  0
 14 34  1  0
 14 35  1  0
 15 36  1  0
 15 37  1  0
 17 38  1  0
 17 39  1  0
 18 40  1  0
 18 41  1  0
 20 42  1  0
 23 43  1  0
 23 44  1  0
 23 45  1  0
M  END
$$$$
