
     RDKit          3D

 33 34  0  0  0  0  0  0  0  0999 V2000
   -5.1420    0.0393    2.0059 C   0  0  0  0  0  0  0  0  0  0  0  0
   -3.9911    0.7476    2.4474 O   0  0  0  0  0  0  0  0  0  0  0  0
   -2.8857    0.7158    1.6423 C   0  0  0  0  0  0  0  0  0  0  0  0
   -1.7896    1.4199    2.1421 C   0  0  0  0  0  0  0  0  0  0  0  0
   -0.5952    1.4668    1.4267 C   0  0  0  0  0  0  0  0  0  0  0  0
   -0.4883    0.7971    0.2022 C   0  0  0  0  0  0  0  0  0  0  0  0
    0.8180    0.8816   -0.4999 C   0  0  0  0  0  0  0  0  0  0  0  0
    1.3865    1.9725   -0.5451 O   0  0  0  0  0  0  0  0  0  0  0  0
    1.3896   -0.3787   -1.1131 C   0  0  0  0  0  0  0  0  0  0  0  0
    2.8170   -0.5145   -0.7127 C   0  0  0  0  0  0  0  0  0  0  0  0
    3.2284   -1.1445    0.3693 N   0  0  0  0  0  0  0  0  0  0  0  0
    4.6022   -1.1293    0.4920 N   0  0  0  0  0  0  0  0  0  0  0  0
    5.1828   -0.4942   -0.5038 C   0  0  0  0  0  0  0  0  0  0  0  0
    6.6460   -0.2971   -0.6497 C   0  0  0  0  0  0  0  0  0  0  0  0
    4.0910    0.1121   -1.6828 S   0  0  0  0  0  0  0  0  0  0  0  0
   -1.5901    0.1054   -0.3285 C   0  0  0  0  0  0  0  0  0  0  0  0
   -1.4220   -0.4708   -1.5610 O   0  0  0  0  0  0  0  0  0  0  0  0
   -2.5525   -1.0866   -2.1675 C   0  0  0  0  0  0  0  0  0  0  0  0
   -2.7845    0.0634    0.4079 C   0  0  0  0  0  0  0  0  0  0  0  0
   -5.5241    0.4545    1.0675 H   0  0  0  0  0  0  0  0  0  0  0  0
   -5.9209    0.1600    2.7649 H   0  0  0  0  0  0  0  0  0  0  0  0
   -4.9337   -1.0314    1.9095 H   0  0  0  0  0  0  0  0  0  0  0  0
   -1.8666    1.9359    3.0967 H   0  0  0  0  0  0  0  0  0  0  0  0
    0.2519    2.0208    1.8270 H   0  0  0  0  0  0  0  0  0  0  0  0
    0.8542   -1.2636   -0.7526 H   0  0  0  0  0  0  0  0  0  0  0  0
    1.2697   -0.3283   -2.2004 H   0  0  0  0  0  0  0  0  0  0  0  0
    6.8952    0.7684   -0.6760 H   0  0  0  0  0  0  0  0  0  0  0  0
    7.1792   -0.7465    0.1942 H   0  0  0  0  0  0  0  0  0  0  0  0
    7.0129   -0.7666   -1.5679 H   0  0  0  0  0  0  0  0  0  0  0  0
   -2.8876   -1.9513   -1.5857 H   0  0  0  0  0  0  0  0  0  0  0  0
   -3.3641   -0.3665   -2.3149 H   0  0  0  0  0  0  0  0  0  0  0  0
   -2.2456   -1.4483   -3.1536 H   0  0  0  0  0  0  0  0  0  0  0  0
   -3.6407   -0.4726    0.0197 H   0  0  0  0  0  0  0  0  0  0  0  0
  1  2  1  0
  2  3  1  0
  3  4  2  0
  4  5  1  0
  5  6  2  0
  6  7  1  0
  7  8  2  0
  7  9  1  0
  9 10  1  0
 10 11  2  0
 11 12  1  0
 12 13  2  0
 13 14  1  0
 13 15  1  0
  6 16  1  0
 16 17  1  0
 17 18  1  0
 16 19  2  0
 19  3  1  0
 15 10  1  0
  1 20  1  0
  1 21  1  0
  1 22  1  0
  4 23  1  0
  5 24  1  0
  9 25  1  0
  9 26  1  0
 14 27  1  0
 14 28  1  0
 14 29  1  0
 18 30  1  0
 18 31  1  0
 18 32  1  0
 19 33  1  0
M  END
$$$$
