
     RDKit          3D

 43 45  0  0  0  0  0  0  0  0999 V2000
    6.6115    1.9426   -0.4335 C   0  0  0  0  0  0  0  0  0  0  0  0
    5.7003    0.7528   -0.3688 C   0  0  0  0  0  0  0  0  0  0  0  0
    6.2164   -0.5210   -0.1014 C   0  0  0  0  0  0  0  0  0  0  0  0
    5.3695   -1.6324   -0.0322 C   0  0  0  0  0  0  0  0  0  0  0  0
    3.9884   -1.4909   -0.2144 C   0  0  0  0  0  0  0  0  0  0  0  0
    3.0894   -2.6911   -0.1314 C   0  0  0  0  0  0  0  0  0  0  0  0
    3.4742   -0.2049   -0.4223 C   0  0  0  0  0  0  0  0  0  0  0  0
    2.1238   -0.0317   -0.5884 O   0  0  0  0  0  0  0  0  0  0  0  0
    1.5357    0.4300    0.6328 C   0  0  0  0  0  0  0  0  0  0  0  0
    0.0720    0.4439    0.4145 C   0  0  0  0  0  0  0  0  0  0  0  0
   -0.7801    1.2307   -0.3202 C   0  0  0  0  0  0  0  0  0  0  0  0
   -2.0780    0.7046   -0.0671 C   0  0  0  0  0  0  0  0  0  0  0  0
   -3.3299    1.1877   -0.6733 C   0  0  0  0  0  0  0  0  0  0  0  0
   -3.2750    1.8484   -1.7130 O   0  0  0  0  0  0  0  0  0  0  0  0
   -4.5628    0.9136   -0.0770 N   0  0  0  0  0  0  0  0  0  0  0  0
   -4.7961    0.2857    1.2234 C   0  0  0  0  0  0  0  0  0  0  0  0
   -5.3093   -1.1332    0.9893 C   0  0  0  0  0  0  0  0  0  0  0  0
   -6.4685   -1.1331    0.1109 N   0  0  0  0  0  0  0  0  0  0  0  0
   -6.6321   -0.2293   -0.9150 C   0  0  0  0  0  0  0  0  0  0  0  0
   -7.5295   -0.4038   -1.7384 O   0  0  0  0  0  0  0  0  0  0  0  0
   -5.7752    1.0533   -0.8875 C   0  0  0  0  0  0  0  0  0  0  0  0
   -1.9901   -0.3616    0.7481 N   0  0  0  0  0  0  0  0  0  0  0  0
   -0.6520   -0.5084    1.0576 O   0  0  0  0  0  0  0  0  0  0  0  0
    4.3182    0.9048   -0.5223 C   0  0  0  0  0  0  0  0  0  0  0  0
    7.5758    1.6685   -0.8728 H   0  0  0  0  0  0  0  0  0  0  0  0
    6.7788    2.3398    0.5721 H   0  0  0  0  0  0  0  0  0  0  0  0
    6.1838    2.7348   -1.0583 H   0  0  0  0  0  0  0  0  0  0  0  0
    7.2859   -0.6616    0.0462 H   0  0  0  0  0  0  0  0  0  0  0  0
    5.8005   -2.6133    0.1623 H   0  0  0  0  0  0  0  0  0  0  0  0
    2.6113   -2.7349    0.8524 H   0  0  0  0  0  0  0  0  0  0  0  0
    2.3168   -2.6549   -0.9066 H   0  0  0  0  0  0  0  0  0  0  0  0
    3.6526   -3.6184   -0.2826 H   0  0  0  0  0  0  0  0  0  0  0  0
    1.8798    1.4453    0.8645 H   0  0  0  0  0  0  0  0  0  0  0  0
    1.7911   -0.2348    1.4676 H   0  0  0  0  0  0  0  0  0  0  0  0
   -0.5211    2.0632   -0.9599 H   0  0  0  0  0  0  0  0  0  0  0  0
   -3.9208    0.3106    1.8723 H   0  0  0  0  0  0  0  0  0  0  0  0
   -5.5673    0.8809    1.7295 H   0  0  0  0  0  0  0  0  0  0  0  0
   -5.6020   -1.6058    1.9313 H   0  0  0  0  0  0  0  0  0  0  0  0
   -4.5463   -1.7534    0.5073 H   0  0  0  0  0  0  0  0  0  0  0  0
   -7.0206   -1.9770    0.0106 H   0  0  0  0  0  0  0  0  0  0  0  0
   -5.5350    1.3155   -1.9223 H   0  0  0  0  0  0  0  0  0  0  0  0
   -6.3784    1.8546   -0.4463 H   0  0  0  0  0  0  0  0  0  0  0  0
    3.8942    1.8843   -0.7267 H   0  0  0  0  0  0  0  0  0  0  0  0
  1  2  1  0
  2  3  2  0
  3  4  1  0
  4  5  2  0
  5  6  1  0
  5  7  1  0
  7  8  1  0
  8  9  1  0
  9 10  1  0
 10 11  2  0
 11 12  1  0
 12 13  1  0
 13 14  2  0
 13 15  1  0
 15 16  1  0
 16 17  1  0
 17 18  1  0
 18 19  1  0
 19 20  2  0
 19 21  1  0
 12 22  2  0
 22 23  1  0
  7 24  2  0
 24  2  1  0
 23 10  1  0
 21 15  1  0
  1 25  1  0
  1 26  1  0
  1 27  1  0
  3 28  1  0
  4 29  1  0
  6 30  1  0
  6 31  1  0
  6 32  1  0
  9 33  1  0
  9 34  1  0
 11 35  1  0
 16 36  1  0
 16 37  1  0
 17 38  1  0
 17 39  1  0
 18 40  1  0
 21 41  1  0
 21 42  1  0
 24 43  1  0
M  END
$$$$
