
     RDKit          3D

 48 52  0  0  0  0  0  0  0  0999 V2000
    5.2910   -0.8890   -2.0757 C   0  0  0  0  0  0  0  0  0  0  0  0
    4.0693   -0.5853   -1.2607 C   0  0  0  0  0  0  0  0  0  0  0  0
    2.8699   -0.2315   -1.8860 C   0  0  0  0  0  0  0  0  0  0  0  0
    1.7386    0.0792   -1.1268 C   0  0  0  0  0  0  0  0  0  0  0  0
    1.7850    0.0633    0.2780 C   0  0  0  0  0  0  0  0  0  0  0  0
    0.5875    0.4024    1.1397 C   0  0  0  0  0  0  0  0  0  0  0  0
    0.1750    1.7830    0.8005 C   0  0  0  0  0  0  0  0  0  0  0  0
   -1.1635    1.8153    0.3786 C   0  0  0  0  0  0  0  0  0  0  0  0
   -1.4641    3.0929   -0.0086 C   0  0  0  0  0  0  0  0  0  0  0  0
   -2.5334    3.6020   -0.6061 O   0  0  0  0  0  0  0  0  0  0  0  0
   -0.3573    3.8636    0.2935 N   0  0  0  0  0  0  0  0  0  0  0  0
   -0.2550    5.2885    0.0748 C   0  0  0  0  0  0  0  0  0  0  0  0
    0.6753    3.0587    0.7445 C   0  0  0  0  0  0  0  0  0  0  0  0
    1.8774    3.5574    1.0012 O   0  0  0  0  0  0  0  0  0  0  0  0
   -1.7913    0.4743    0.4257 C   0  0  0  0  0  0  0  0  0  0  0  0
   -2.4300    0.0715   -0.8941 C   0  0  0  0  0  0  0  0  0  0  0  0
   -2.8171    0.8952   -1.7325 O   0  0  0  0  0  0  0  0  0  0  0  0
   -2.7835   -1.2338   -1.0902 N   0  0  0  0  0  0  0  0  0  0  0  0
   -2.7834   -2.3026   -0.1757 C   0  0  0  0  0  0  0  0  0  0  0  0
   -3.7382   -3.3001   -0.4622 C   0  0  0  0  0  0  0  0  0  0  0  0
   -3.9235   -4.4001    0.3759 C   0  0  0  0  0  0  0  0  0  0  0  0
   -3.1437   -4.5342    1.5131 C   0  0  0  0  0  0  0  0  0  0  0  0
   -2.1660   -3.5797    1.7901 C   0  0  0  0  0  0  0  0  0  0  0  0
   -1.9620   -2.4601    0.9521 C   0  0  0  0  0  0  0  0  0  0  0  0
   -0.7624   -1.6407    1.2872 C   0  0  0  0  0  0  0  0  0  0  0  0
    0.1087   -2.1396    2.0001 O   0  0  0  0  0  0  0  0  0  0  0  0
   -0.6345   -0.3661    0.7928 N   0  0  0  0  0  0  0  0  0  0  0  0
    2.9955   -0.2897    0.8961 C   0  0  0  0  0  0  0  0  0  0  0  0
    4.1259   -0.6029    0.1362 C   0  0  0  0  0  0  0  0  0  0  0  0
    5.9360   -1.6081   -1.5599 H   0  0  0  0  0  0  0  0  0  0  0  0
    5.0179   -1.3315   -3.0395 H   0  0  0  0  0  0  0  0  0  0  0  0
    5.8580    0.0294   -2.2560 H   0  0  0  0  0  0  0  0  0  0  0  0
    2.8053   -0.1955   -2.9711 H   0  0  0  0  0  0  0  0  0  0  0  0
    0.8196    0.3477   -1.6437 H   0  0  0  0  0  0  0  0  0  0  0  0
    0.7922    0.3049    2.2122 H   0  0  0  0  0  0  0  0  0  0  0  0
   -2.9861    2.8541   -1.0508 H   0  0  0  0  0  0  0  0  0  0  0  0
   -1.2482    5.7399    0.1403 H   0  0  0  0  0  0  0  0  0  0  0  0
    0.3855    5.7254    0.8454 H   0  0  0  0  0  0  0  0  0  0  0  0
    0.1734    5.4504   -0.9174 H   0  0  0  0  0  0  0  0  0  0  0  0
    2.4810    2.8025    1.1279 H   0  0  0  0  0  0  0  0  0  0  0  0
   -2.5416    0.4221    1.2232 H   0  0  0  0  0  0  0  0  0  0  0  0
   -3.3360   -1.3385   -1.9343 H   0  0  0  0  0  0  0  0  0  0  0  0
   -4.3783   -3.2197   -1.3395 H   0  0  0  0  0  0  0  0  0  0  0  0
   -4.6772   -5.1472    0.1388 H   0  0  0  0  0  0  0  0  0  0  0  0
   -3.2730   -5.3891    2.1724 H   0  0  0  0  0  0  0  0  0  0  0  0
   -1.5318   -3.7308    2.6641 H   0  0  0  0  0  0  0  0  0  0  0  0
    3.0636   -0.3371    1.9815 H   0  0  0  0  0  0  0  0  0  0  0  0
    5.0495   -0.8708    0.6446 H   0  0  0  0  0  0  0  0  0  0  0  0
  1  2  1  0
  2  3  2  0
  3  4  1  0
  4  5  2  0
  5  6  1  0
  6  7  1  0
  7  8  1  0
  8  9  2  0
  9 10  1  0
  9 11  1  0
 11 12  1  0
 11 13  1  0
 13 14  1  0
  8 15  1  0
 15 16  1  0
 16 17  2  0
 16 18  1  0
 18 19  1  0
 19 20  2  0
 20 21  1  0
 21 22  2  0
 22 23  1  0
 23 24  2  0
 24 25  1  0
 25 26  2  0
 25 27  1  0
  5 28  1  0
 28 29  2  0
 29  2  1  0
 27  6  1  0
 13  7  2  0
 27 15  1  0
 24 19  1  0
  1 30  1  0
  1 31  1  0
  1 32  1  0
  3 33  1  0
  4 34  1  0
  6 35  1  0
 10 36  1  0
 12 37  1  0
 12 38  1  0
 12 39  1  0
 14 40  1  0
 15 41  1  0
 18 42  1  0
 20 43  1  0
 21 44  1  0
 22 45  1  0
 23 46  1  0
 28 47  1  0
 29 48  1  0
M  END
$$$$
