
     RDKit          3D

 95 98  0  0  0  0  0  0  0  0999 V2000
   -4.5403   -5.1345    5.1470 C   0  0  0  0  0  0  0  0  0  0  0  0
   -5.1912   -3.9655    5.2160 C   0  0  0  0  0  0  0  0  0  0  0  0
   -4.5545   -2.6339    4.9415 C   0  0  0  0  0  0  0  0  0  0  0  0
   -5.1461   -1.9259    3.7144 C   0  0  0  0  0  0  0  0  0  0  0  0
   -4.9268   -2.6806    2.3876 C   0  0  0  0  0  0  0  0  0  0  0  0
   -5.5905   -1.9723    1.1902 C   0  0  0  0  0  0  0  0  0  0  0  0
   -7.0982   -2.0940    1.1763 C   0  0  0  0  0  0  0  0  0  0  0  0
   -7.9075   -0.9943    1.5037 C   0  0  0  0  0  0  0  0  0  0  0  0
   -9.3004   -1.1196    1.5013 C   0  0  0  0  0  0  0  0  0  0  0  0
   -9.8838   -2.3365    1.1722 C   0  0  0  0  0  0  0  0  0  0  0  0
  -11.2191   -2.4521    1.1725 F   0  0  0  0  0  0  0  0  0  0  0  0
   -9.0982   -3.4331    0.8396 C   0  0  0  0  0  0  0  0  0  0  0  0
   -7.7066   -3.3152    0.8414 C   0  0  0  0  0  0  0  0  0  0  0  0
   -3.4464   -2.8539    2.1030 C   0  0  0  0  0  0  0  0  0  0  0  0
   -2.8666   -3.9318    2.1520 O   0  0  0  0  0  0  0  0  0  0  0  0
   -2.8495   -1.6638    1.8122 O   0  0  0  0  0  0  0  0  0  0  0  0
   -1.4551   -1.7755    1.4882 C   0  0  0  0  0  0  0  0  0  0  0  0
   -0.9072   -0.4145    1.0193 C   0  0  0  0  0  0  0  0  0  0  0  0
   -1.0407    0.6550    2.1289 C   0  0  0  0  0  0  0  0  0  0  0  0
   -0.6142    2.0189    1.6585 C   0  0  0  0  0  0  0  0  0  0  0  0
   -1.4087    2.9253    0.9817 C   0  0  0  0  0  0  0  0  0  0  0  0
   -0.6490    4.0201    0.6726 N   0  0  0  0  0  0  0  0  0  0  0  0
    0.6423    3.8454    1.1190 C   0  0  0  0  0  0  0  0  0  0  0  0
    1.7629    4.6748    0.9929 C   0  0  0  0  0  0  0  0  0  0  0  0
    2.9657    4.2374    1.5581 C   0  0  0  0  0  0  0  0  0  0  0  0
    3.0360    3.0262    2.2400 C   0  0  0  0  0  0  0  0  0  0  0  0
    1.9049    2.2137    2.3677 C   0  0  0  0  0  0  0  0  0  0  0  0
    0.6841    2.6179    1.7819 C   0  0  0  0  0  0  0  0  0  0  0  0
    0.4835   -0.5387    0.5737 N   0  0  0  0  0  0  0  0  0  0  0  0
    0.8261   -1.0356   -0.6663 C   0  0  0  0  0  0  0  0  0  0  0  0
   -0.0033   -1.4842   -1.4477 O   0  0  0  0  0  0  0  0  0  0  0  0
    2.3230   -0.9326   -0.9591 C   0  0  0  0  0  0  0  0  0  0  0  0
    2.7660   -1.9306   -2.0504 C   0  0  0  0  0  0  0  0  0  0  0  0
    2.8457   -1.4079   -3.4616 C   0  0  0  0  0  0  0  0  0  0  0  0
    1.8295   -1.4655   -4.3299 C   0  0  0  0  0  0  0  0  0  0  0  0
    2.6606    0.5415   -1.2428 C   0  0  0  0  0  0  0  0  0  0  0  0
    4.1499    0.8270   -1.1692 C   0  0  0  0  0  0  0  0  0  0  0  0
    4.9165    0.0178   -0.6365 O   0  0  0  0  0  0  0  0  0  0  0  0
    4.5943    2.0401   -1.6909 N   0  0  0  0  0  0  0  0  0  0  0  0
    3.6954    3.0885   -2.2073 C   0  0  0  0  0  0  0  0  0  0  0  0
    3.3469    2.9441   -3.6916 C   0  0  0  0  0  0  0  0  0  0  0  0
    4.3280    3.5775   -4.5056 O   0  0  0  0  0  0  0  0  0  0  0  0
    6.0345    2.3100   -1.7024 C   0  0  0  0  0  0  0  0  0  0  0  0
    6.7247    1.8948   -2.9813 C   0  0  0  0  0  0  0  0  0  0  0  0
    6.8127    0.5419   -3.3405 C   0  0  0  0  0  0  0  0  0  0  0  0
    7.4542    0.1556   -4.5210 C   0  0  0  0  0  0  0  0  0  0  0  0
    8.0328    1.1213   -5.3456 C   0  0  0  0  0  0  0  0  0  0  0  0
    7.9631    2.4700   -4.9951 C   0  0  0  0  0  0  0  0  0  0  0  0
    7.3158    2.8540   -3.8169 C   0  0  0  0  0  0  0  0  0  0  0  0
   -5.0486   -6.0706    5.3551 H   0  0  0  0  0  0  0  0  0  0  0  0
   -3.4948   -5.1880    4.8641 H   0  0  0  0  0  0  0  0  0  0  0  0
   -6.2426   -3.9646    5.4918 H   0  0  0  0  0  0  0  0  0  0  0  0
   -3.4683   -2.7323    4.8333 H   0  0  0  0  0  0  0  0  0  0  0  0
   -4.7173   -2.0008    5.8217 H   0  0  0  0  0  0  0  0  0  0  0  0
   -4.7013   -0.9229    3.6479 H   0  0  0  0  0  0  0  0  0  0  0  0
   -6.2206   -1.7786    3.8816 H   0  0  0  0  0  0  0  0  0  0  0  0
   -5.3447   -3.6927    2.4721 H   0  0  0  0  0  0  0  0  0  0  0  0
   -5.2122   -2.3896    0.2462 H   0  0  0  0  0  0  0  0  0  0  0  0
   -5.3078   -0.9102    1.1711 H   0  0  0  0  0  0  0  0  0  0  0  0
   -7.4603   -0.0357    1.7650 H   0  0  0  0  0  0  0  0  0  0  0  0
   -9.9329   -0.2732    1.7519 H   0  0  0  0  0  0  0  0  0  0  0  0
   -9.5738   -4.3739    0.5840 H   0  0  0  0  0  0  0  0  0  0  0  0
   -7.0980   -4.1827    0.5857 H   0  0  0  0  0  0  0  0  0  0  0  0
   -1.3286   -2.5211    0.6935 H   0  0  0  0  0  0  0  0  0  0  0  0
   -0.9040   -2.1185    2.3720 H   0  0  0  0  0  0  0  0  0  0  0  0
   -1.5008   -0.0901    0.1544 H   0  0  0  0  0  0  0  0  0  0  0  0
   -2.0830    0.7101    2.4707 H   0  0  0  0  0  0  0  0  0  0  0  0
   -0.4414    0.3657    3.0026 H   0  0  0  0  0  0  0  0  0  0  0  0
   -2.4492    2.8742    0.6810 H   0  0  0  0  0  0  0  0  0  0  0  0
   -0.9785    4.8299    0.1627 H   0  0  0  0  0  0  0  0  0  0  0  0
    1.7057    5.6259    0.4765 H   0  0  0  0  0  0  0  0  0  0  0  0
    3.8495    4.8592    1.4759 H   0  0  0  0  0  0  0  0  0  0  0  0
    3.9799    2.7078    2.6779 H   0  0  0  0  0  0  0  0  0  0  0  0
    1.9771    1.2774    2.9127 H   0  0  0  0  0  0  0  0  0  0  0  0
    1.2105   -0.1459    1.1550 H   0  0  0  0  0  0  0  0  0  0  0  0
    2.8238   -1.2494   -0.0306 H   0  0  0  0  0  0  0  0  0  0  0  0
    3.7655   -2.3073   -1.7997 H   0  0  0  0  0  0  0  0  0  0  0  0
    2.1229   -2.8182   -2.0364 H   0  0  0  0  0  0  0  0  0  0  0  0
    3.8018   -1.0024   -3.7894 H   0  0  0  0  0  0  0  0  0  0  0  0
    1.9363   -1.0971   -5.3475 H   0  0  0  0  0  0  0  0  0  0  0  0
    0.8608   -1.8617   -4.0356 H   0  0  0  0  0  0  0  0  0  0  0  0
    2.1883    1.1878   -0.4950 H   0  0  0  0  0  0  0  0  0  0  0  0
    2.2527    0.8361   -2.2138 H   0  0  0  0  0  0  0  0  0  0  0  0
    2.7655    3.0511   -1.6312 H   0  0  0  0  0  0  0  0  0  0  0  0
    4.1488    4.0642   -2.0011 H   0  0  0  0  0  0  0  0  0  0  0  0
    3.2464    1.8952   -4.0031 H   0  0  0  0  0  0  0  0  0  0  0  0
    2.3932    3.4469   -3.8934 H   0  0  0  0  0  0  0  0  0  0  0  0
    4.9357    2.8763   -4.8069 H   0  0  0  0  0  0  0  0  0  0  0  0
    6.5224    1.7845   -0.8716 H   0  0  0  0  0  0  0  0  0  0  0  0
    6.1890    3.3798   -1.5004 H   0  0  0  0  0  0  0  0  0  0  0  0
    6.3888   -0.2267   -2.6960 H   0  0  0  0  0  0  0  0  0  0  0  0
    7.5221   -0.8973   -4.7858 H   0  0  0  0  0  0  0  0  0  0  0  0
    8.5465    0.8207   -6.2558 H   0  0  0  0  0  0  0  0  0  0  0  0
    8.4187    3.2204   -5.6389 H   0  0  0  0  0  0  0  0  0  0  0  0
    7.2614    3.9113   -3.5661 H   0  0  0  0  0  0  0  0  0  0  0  0
  1  2  2  0
  2  3  1  0
  3  4  1  0
  4  5  1  0
  5  6  1  0
  6  7  1  0
  7  8  2  0
  8  9  1  0
  9 10  2  0
 10 11  1  0
 10 12  1  0
 12 13  2  0
  5 14  1  0
 14 15  2  0
 14 16  1  0
 16 17  1  0
 17 18  1  0
 18 19  1  0
 19 20  1  0
 20 21  2  0
 21 22  1  0
 22 23  1  0
 23 24  2  0
 24 25  1  0
 25 26  2  0
 26 27  1  0
 27 28  2  0
 18 29  1  0
 29 30  1  0
 30 31  2  0
 30 32  1  0
 32 33  1  0
 33 34  1  0
 34 35  2  0
 32 36  1  0
 36 37  1  0
 37 38  2  0
 37 39  1  0
 39 40  1  0
 40 41  1  0
 41 42  1  0
 39 43  1  0
 43 44  1  0
 44 45  2  0
 45 46  1  0
 46 47  2  0
 47 48  1  0
 48 49  2  0
 13  7  1  0
 28 20  1  0
 49 44  1  0
 28 23  1  0
  1 50  1  0
  1 51  1  0
  2 52  1  0
  3 53  1  0
  3 54  1  0
  4 55  1  0
  4 56  1  0
  5 57  1  0
  6 58  1  0
  6 59  1  0
  8 60  1  0
  9 61  1  0
 12 62  1  0
 13 63  1  0
 17 64  1  0
 17 65  1  0
 18 66  1  0
 19 67  1  0
 19 68  1  0
 21 69  1  0
 22 70  1  0
 24 71  1  0
 25 72  1  0
 26 73  1  0
 27 74  1  0
 29 75  1  0
 32 76  1  0
 33 77  1  0
 33 78  1  0
 34 79  1  0
 35 80  1  0
 35 81  1  0
 36 82  1  0
 36 83  1  0
 40 84  1  0
 40 85  1  0
 41 86  1  0
 41 87  1  0
 42 88  1  0
 43 89  1  0
 43 90  1  0
 45 91  1  0
 46 92  1  0
 47 93  1  0
 48 94  1  0
 49 95  1  0
M  END
$$$$
