
     RDKit          3D

 30 31  0  0  0  0  0  0  0  0999 V2000
    3.5237    1.9583    0.9216 C   0  0  0  0  0  0  0  0  0  0  0  0
    2.3696    1.0807    0.4832 C   0  0  0  0  0  0  0  0  0  0  0  0
    1.1833    1.6143    0.5348 N   0  0  0  0  0  0  0  0  0  0  0  0
    0.0847    0.8691    0.2270 N   0  0  0  0  0  0  0  0  0  0  0  0
   -1.1666    1.4619    0.2287 C   0  0  0  0  0  0  0  0  0  0  0  0
   -1.3942    2.6401    0.4995 O   0  0  0  0  0  0  0  0  0  0  0  0
   -2.3121    0.6016   -0.1804 C   0  0  0  0  0  0  0  0  0  0  0  0
   -2.2657   -0.7948   -0.0605 C   0  0  0  0  0  0  0  0  0  0  0  0
   -3.3554   -1.5635   -0.4751 C   0  0  0  0  0  0  0  0  0  0  0  0
   -3.2854   -3.2774   -0.3325 Cl  0  0  0  0  0  0  0  0  0  0  0  0
   -4.4974   -0.9610   -0.9991 C   0  0  0  0  0  0  0  0  0  0  0  0
   -4.5601    0.4280   -1.0984 C   0  0  0  0  0  0  0  0  0  0  0  0
   -3.4786    1.2030   -0.6822 C   0  0  0  0  0  0  0  0  0  0  0  0
   -3.6329    2.5592   -0.7964 O   0  0  0  0  0  0  0  0  0  0  0  0
    2.7059   -0.2845    0.1005 C   0  0  0  0  0  0  0  0  0  0  0  0
    3.6076   -1.1395    0.7131 C   0  0  0  0  0  0  0  0  0  0  0  0
    3.7085   -2.3991    0.0482 C   0  0  0  0  0  0  0  0  0  0  0  0
    2.8966   -2.4407   -1.0550 C   0  0  0  0  0  0  0  0  0  0  0  0
    2.7549   -3.9593   -2.2052 Br  0  0  0  0  0  0  0  0  0  0  0  0
    2.0330   -1.0077   -1.3044 S   0  0  0  0  0  0  0  0  0  0  0  0
    3.7985    1.7086    1.9506 H   0  0  0  0  0  0  0  0  0  0  0  0
    3.2365    3.0133    0.8812 H   0  0  0  0  0  0  0  0  0  0  0  0
    4.3885    1.8055    0.2693 H   0  0  0  0  0  0  0  0  0  0  0  0
    0.2287   -0.0577   -0.1569 H   0  0  0  0  0  0  0  0  0  0  0  0
   -1.4086   -1.2988    0.3745 H   0  0  0  0  0  0  0  0  0  0  0  0
   -5.3437   -1.5624   -1.3210 H   0  0  0  0  0  0  0  0  0  0  0  0
   -5.4513    0.9101   -1.4928 H   0  0  0  0  0  0  0  0  0  0  0  0
   -2.8770    2.9920   -0.3351 H   0  0  0  0  0  0  0  0  0  0  0  0
    4.1639   -0.8837    1.6081 H   0  0  0  0  0  0  0  0  0  0  0  0
    4.3452   -3.2153    0.3681 H   0  0  0  0  0  0  0  0  0  0  0  0
  1  2  1  0
  2  3  2  3
  3  4  1  0
  4  5  1  0
  5  6  2  0
  5  7  1  0
  7  8  2  0
  8  9  1  0
  9 10  1  0
  9 11  2  0
 11 12  1  0
 12 13  2  0
 13 14  1  0
  2 15  1  0
 15 16  2  0
 16 17  1  0
 17 18  2  0
 18 19  1  0
 18 20  1  0
 13  7  1  0
 20 15  1  0
  1 21  1  0
  1 22  1  0
  1 23  1  0
  4 24  1  0
  8 25  1  0
 11 26  1  0
 12 27  1  0
 14 28  1  0
 16 29  1  0
 17 30  1  0
M  END
$$$$
