
     RDKit          3D

 35 37  0  0  0  0  0  0  0  0999 V2000
   -3.2184   -2.2637   -0.5912 C   0  0  0  0  0  0  0  0  0  0  0  0
   -3.8341   -0.9827   -0.0976 C   0  0  0  0  0  0  0  0  0  0  0  0
   -5.2139   -0.7831   -0.2722 C   0  0  0  0  0  0  0  0  0  0  0  0
   -5.8318    0.3853    0.1730 C   0  0  0  0  0  0  0  0  0  0  0  0
   -5.0802    1.3718    0.8006 C   0  0  0  0  0  0  0  0  0  0  0  0
   -3.7108    1.1878    0.9868 C   0  0  0  0  0  0  0  0  0  0  0  0
   -3.0703    0.0121    0.5511 C   0  0  0  0  0  0  0  0  0  0  0  0
   -1.5786   -0.1236    0.7763 C   0  0  0  0  0  0  0  0  0  0  0  0
   -0.6355    0.5978   -0.6002 S   0  0  0  0  0  0  0  0  0  0  0  0
    0.9986    0.2942   -0.0612 C   0  0  0  0  0  0  0  0  0  0  0  0
    1.2279   -0.3108    1.0606 N   0  0  0  0  0  0  0  0  0  0  0  0
    2.5413   -0.5290    1.4440 C   0  0  0  0  0  0  0  0  0  0  0  0
    2.8510   -1.0954    2.4860 O   0  0  0  0  0  0  0  0  0  0  0  0
    3.6055   -0.0483    0.5373 C   0  0  0  0  0  0  0  0  0  0  0  0
    3.2669    0.5642   -0.5953 C   0  0  0  0  0  0  0  0  0  0  0  0
    1.9628    0.7464   -0.9182 N   0  0  0  0  0  0  0  0  0  0  0  0
    4.4531    0.9804   -1.3856 C   0  0  0  0  0  0  0  0  0  0  0  0
    5.5920    0.7887   -0.3692 C   0  0  0  0  0  0  0  0  0  0  0  0
    5.0687   -0.1587    0.7234 C   0  0  0  0  0  0  0  0  0  0  0  0
   -3.9405   -2.8657   -1.1533 H   0  0  0  0  0  0  0  0  0  0  0  0
   -2.8711   -2.8663    0.2538 H   0  0  0  0  0  0  0  0  0  0  0  0
   -2.3806   -2.0561   -1.2637 H   0  0  0  0  0  0  0  0  0  0  0  0
   -5.8206   -1.5421   -0.7617 H   0  0  0  0  0  0  0  0  0  0  0  0
   -6.8996    0.5242    0.0275 H   0  0  0  0  0  0  0  0  0  0  0  0
   -5.5580    2.2849    1.1450 H   0  0  0  0  0  0  0  0  0  0  0  0
   -3.1371    1.9724    1.4768 H   0  0  0  0  0  0  0  0  0  0  0  0
   -1.3092    0.3869    1.7088 H   0  0  0  0  0  0  0  0  0  0  0  0
   -1.3086   -1.1762    0.9084 H   0  0  0  0  0  0  0  0  0  0  0  0
    1.6993    1.2116   -1.7768 H   0  0  0  0  0  0  0  0  0  0  0  0
    4.5858    0.3308   -2.2570 H   0  0  0  0  0  0  0  0  0  0  0  0
    4.3941    2.0210   -1.7180 H   0  0  0  0  0  0  0  0  0  0  0  0
    6.5010    0.4033   -0.8428 H   0  0  0  0  0  0  0  0  0  0  0  0
    5.8495    1.7576    0.0788 H   0  0  0  0  0  0  0  0  0  0  0  0
    5.3958    0.1663    1.7152 H   0  0  0  0  0  0  0  0  0  0  0  0
    5.4058   -1.1860    0.5510 H   0  0  0  0  0  0  0  0  0  0  0  0
  1  2  1  0
  2  3  2  0
  3  4  1  0
  4  5  2  0
  5  6  1  0
  6  7  2  0
  7  8  1  0
  8  9  1  0
  9 10  1  0
 10 11  2  0
 11 12  1  0
 12 13  2  0
 12 14  1  0
 14 15  2  0
 15 16  1  0
 15 17  1  0
 17 18  1  0
 18 19  1  0
  7  2  1  0
 16 10  1  0
 19 14  1  0
  1 20  1  0
  1 21  1  0
  1 22  1  0
  3 23  1  0
  4 24  1  0
  5 25  1  0
  6 26  1  0
  8 27  1  0
  8 28  1  0
 16 29  1  0
 17 30  1  0
 17 31  1  0
 18 32  1  0
 18 33  1  0
 19 34  1  0
 19 35  1  0
M  END
$$$$
