
     RDKit          3D

 72 77  0  0  0  0  0  0  0  0999 V2000
    4.3025    0.7012   -2.0680 O   0  0  0  0  0  0  0  0  0  0  0  0
    5.0493    1.6071   -1.7061 C   0  0  0  0  0  0  0  0  0  0  0  0
    4.6494    3.0770   -1.6478 C   0  0  0  0  0  0  0  0  0  0  0  0
    2.8712    3.3184   -1.3912 S   0  0  0  0  0  0  0  0  0  0  0  0
    2.6249    2.2474   -0.0170 C   0  0  0  0  0  0  0  0  0  0  0  0
    3.5629    2.2425    0.8929 N   0  0  0  0  0  0  0  0  0  0  0  0
    3.4435    1.3986    2.0190 C   0  0  0  0  0  0  0  0  0  0  0  0
    4.4676    1.3884    2.9670 C   0  0  0  0  0  0  0  0  0  0  0  0
    4.3842    0.5622    4.0912 C   0  0  0  0  0  0  0  0  0  0  0  0
    3.2722   -0.2613    4.2749 C   0  0  0  0  0  0  0  0  0  0  0  0
    2.2430   -0.2646    3.3330 C   0  0  0  0  0  0  0  0  0  0  0  0
    2.3321    0.5609    2.2086 C   0  0  0  0  0  0  0  0  0  0  0  0
    1.3051    0.6028    1.1860 C   0  0  0  0  0  0  0  0  0  0  0  0
    0.1813   -0.0777    1.1185 N   0  0  0  0  0  0  0  0  0  0  0  0
   -0.4354    0.3355   -0.0457 C   0  0  0  0  0  0  0  0  0  0  0  0
   -1.7209   -0.3344   -0.4187 C   0  0  0  0  0  0  0  0  0  0  0  0
   -2.7015    0.4864   -1.2451 C   0  0  0  0  0  0  0  0  0  0  0  0
   -2.3315    1.4099   -1.9758 O   0  0  0  0  0  0  0  0  0  0  0  0
   -4.0415    0.1225   -1.1830 N   0  0  0  0  0  0  0  0  0  0  0  0
   -4.5571   -1.0569   -0.4757 C   0  0  0  0  0  0  0  0  0  0  0  0
   -5.9280   -1.5351   -0.9940 C   0  0  0  0  0  0  0  0  0  0  0  0
   -6.9141   -0.4459   -0.9859 N   0  0  0  0  0  0  0  0  0  0  0  0
   -8.2777   -0.7000   -0.9421 C   0  0  0  0  0  0  0  0  0  0  0  0
   -9.2010    0.3001   -0.5918 C   0  0  0  0  0  0  0  0  0  0  0  0
  -10.5785    0.0545   -0.5346 C   0  0  0  0  0  0  0  0  0  0  0  0
  -11.0733   -1.2094   -0.8279 C   0  0  0  0  0  0  0  0  0  0  0  0
  -10.1892   -2.2224   -1.1763 C   0  0  0  0  0  0  0  0  0  0  0  0
   -8.8127   -1.9670   -1.2290 C   0  0  0  0  0  0  0  0  0  0  0  0
   -6.4175    0.9193   -1.2427 C   0  0  0  0  0  0  0  0  0  0  0  0
   -5.0330    0.9141   -1.9166 C   0  0  0  0  0  0  0  0  0  0  0  0
    0.3389    1.2977   -0.6793 C   0  0  0  0  0  0  0  0  0  0  0  0
    0.1506    2.0002   -1.7913 O   0  0  0  0  0  0  0  0  0  0  0  0
    1.4721    1.4461    0.1062 N   0  0  0  0  0  0  0  0  0  0  0  0
    6.3648    1.3820   -1.3396 N   0  0  0  0  0  0  0  0  0  0  0  0
    6.8620    0.0266   -1.1619 C   0  0  0  0  0  0  0  0  0  0  0  0
    6.5583   -0.4911    0.2524 C   0  0  0  0  0  0  0  0  0  0  0  0
    7.0205   -1.9253    0.4694 C   0  0  0  0  0  0  0  0  0  0  0  0
    8.4005   -1.7500    1.0515 C   0  0  0  0  0  0  0  0  0  0  0  0
    8.2236   -0.5101    1.8968 C   0  0  0  0  0  0  0  0  0  0  0  0
    7.2927    0.3259    1.1985 O   0  0  0  0  0  0  0  0  0  0  0  0
    5.1943    3.5870   -0.8470 H   0  0  0  0  0  0  0  0  0  0  0  0
    4.9323    3.5415   -2.5978 H   0  0  0  0  0  0  0  0  0  0  0  0
    5.3398    2.0208    2.8225 H   0  0  0  0  0  0  0  0  0  0  0  0
    5.1890    0.5623    4.8218 H   0  0  0  0  0  0  0  0  0  0  0  0
    3.2080   -0.9018    5.1517 H   0  0  0  0  0  0  0  0  0  0  0  0
    1.3763   -0.9072    3.4720 H   0  0  0  0  0  0  0  0  0  0  0  0
   -1.4892   -1.2427   -0.9866 H   0  0  0  0  0  0  0  0  0  0  0  0
   -2.2084   -0.6328    0.5163 H   0  0  0  0  0  0  0  0  0  0  0  0
   -3.8352   -1.8758   -0.5533 H   0  0  0  0  0  0  0  0  0  0  0  0
   -4.6389   -0.7767    0.5814 H   0  0  0  0  0  0  0  0  0  0  0  0
   -5.8219   -1.9166   -2.0174 H   0  0  0  0  0  0  0  0  0  0  0  0
   -6.2498   -2.3633   -0.3511 H   0  0  0  0  0  0  0  0  0  0  0  0
   -8.8592    1.2968   -0.3283 H   0  0  0  0  0  0  0  0  0  0  0  0
  -11.2585    0.8539   -0.2529 H   0  0  0  0  0  0  0  0  0  0  0  0
  -12.1409   -1.4043   -0.7844 H   0  0  0  0  0  0  0  0  0  0  0  0
  -10.5644   -3.2149   -1.4125 H   0  0  0  0  0  0  0  0  0  0  0  0
   -8.1666   -2.7880   -1.5261 H   0  0  0  0  0  0  0  0  0  0  0  0
   -7.1011    1.4702   -1.9001 H   0  0  0  0  0  0  0  0  0  0  0  0
   -6.3537    1.4545   -0.2877 H   0  0  0  0  0  0  0  0  0  0  0  0
   -4.6803    1.9434   -2.0390 H   0  0  0  0  0  0  0  0  0  0  0  0
   -5.1081    0.4717   -2.9172 H   0  0  0  0  0  0  0  0  0  0  0  0
   -0.7754    1.8580   -2.0957 H   0  0  0  0  0  0  0  0  0  0  0  0
    6.8068    2.0759   -0.7485 H   0  0  0  0  0  0  0  0  0  0  0  0
    6.4153   -0.6264   -1.9188 H   0  0  0  0  0  0  0  0  0  0  0  0
    7.9426    0.0780   -1.3320 H   0  0  0  0  0  0  0  0  0  0  0  0
    5.4890   -0.3941    0.4686 H   0  0  0  0  0  0  0  0  0  0  0  0
    7.0002   -2.5414   -0.4339 H   0  0  0  0  0  0  0  0  0  0  0  0
    6.3750   -2.4057    1.2155 H   0  0  0  0  0  0  0  0  0  0  0  0
    8.7471   -2.6121    1.6278 H   0  0  0  0  0  0  0  0  0  0  0  0
    9.1220   -1.5589    0.2484 H   0  0  0  0  0  0  0  0  0  0  0  0
    7.7924   -0.7516    2.8745 H   0  0  0  0  0  0  0  0  0  0  0  0
    9.1607    0.0311    2.0512 H   0  0  0  0  0  0  0  0  0  0  0  0
  1  2  2  0
  2  3  1  0
  3  4  1  0
  4  5  1  0
  5  6  2  0
  6  7  1  0
  7  8  2  0
  8  9  1  0
  9 10  2  0
 10 11  1  0
 11 12  2  0
 12 13  1  0
 13 14  2  0
 14 15  1  0
 15 16  1  0
 16 17  1  0
 17 18  2  0
 17 19  1  0
 19 20  1  0
 20 21  1  0
 21 22  1  0
 22 23  1  0
 23 24  2  0
 24 25  1  0
 25 26  2  0
 26 27  1  0
 27 28  2  0
 22 29  1  0
 29 30  1  0
 15 31  2  0
 31 32  1  0
 31 33  1  0
  2 34  1  0
 34 35  1  0
 35 36  1  0
 36 37  1  0
 37 38  1  0
 38 39  1  0
 39 40  1  0
 33  5  1  0
 40 36  1  0
 12  7  1  0
 33 13  1  0
 30 19  1  0
 28 23  1  0
  3 41  1  0
  3 42  1  0
  8 43  1  0
  9 44  1  0
 10 45  1  0
 11 46  1  0
 16 47  1  0
 16 48  1  0
 20 49  1  0
 20 50  1  0
 21 51  1  0
 21 52  1  0
 24 53  1  0
 25 54  1  0
 26 55  1  0
 27 56  1  0
 28 57  1  0
 29 58  1  0
 29 59  1  0
 30 60  1  0
 30 61  1  0
 32 62  1  0
 34 63  1  0
 35 64  1  0
 35 65  1  0
 36 66  1  0
 37 67  1  0
 37 68  1  0
 38 69  1  0
 38 70  1  0
 39 71  1  0
 39 72  1  0
M  END
$$$$
