
     RDKit          3D

 79 86  0  0  0  0  0  0  0  0999 V2000
    2.9337   -5.8433    4.1014 C   0  0  0  0  0  0  0  0  0  0  0  0
    2.2165   -4.6177    4.1306 O   0  0  0  0  0  0  0  0  0  0  0  0
    2.5555   -3.6712    3.2006 C   0  0  0  0  0  0  0  0  0  0  0  0
    3.5100   -3.8368    2.1898 C   0  0  0  0  0  0  0  0  0  0  0  0
    3.7492   -2.8186    1.2538 C   0  0  0  0  0  0  0  0  0  0  0  0
    3.0645   -1.6043    1.3338 C   0  0  0  0  0  0  0  0  0  0  0  0
    2.1421   -1.4244    2.3616 C   0  0  0  0  0  0  0  0  0  0  0  0
    1.8527   -2.4621    3.2607 C   0  0  0  0  0  0  0  0  0  0  0  0
    0.8283   -2.3140    4.1888 O   0  0  0  0  0  0  0  0  0  0  0  0
   -0.3278   -1.8090    3.6270 C   0  0  0  0  0  0  0  0  0  0  0  0
   -1.0260   -2.5644    2.6845 C   0  0  0  0  0  0  0  0  0  0  0  0
   -2.0120   -1.9528    1.9202 C   0  0  0  0  0  0  0  0  0  0  0  0
   -2.3038   -0.5922    2.1012 C   0  0  0  0  0  0  0  0  0  0  0  0
   -1.6649    0.1242    3.1232 C   0  0  0  0  0  0  0  0  0  0  0  0
   -0.6866   -0.4904    3.9028 C   0  0  0  0  0  0  0  0  0  0  0  0
   -3.2886    0.0881    1.1826 C   0  0  0  0  0  0  0  0  0  0  0  0
   -2.7526    0.2824   -0.2754 C   0  0  0  0  0  0  0  0  0  0  0  0
   -2.3863    1.7419   -0.5438 C   0  0  0  0  0  0  0  0  0  0  0  0
   -3.4642    2.6383   -0.7555 C   0  0  0  0  0  0  0  0  0  0  0  0
   -3.2340    4.0019   -0.9835 C   0  0  0  0  0  0  0  0  0  0  0  0
   -1.9320    4.4805   -1.0974 C   0  0  0  0  0  0  0  0  0  0  0  0
   -1.5943    5.7842   -1.3557 O   0  0  0  0  0  0  0  0  0  0  0  0
   -2.6527    6.7211   -1.4974 C   0  0  0  0  0  0  0  0  0  0  0  0
   -0.8655    3.5744   -0.9809 C   0  0  0  0  0  0  0  0  0  0  0  0
   -1.0731    2.2188   -0.6811 C   0  0  0  0  0  0  0  0  0  0  0  0
    0.0016    1.3534   -0.5674 O   0  0  0  0  0  0  0  0  0  0  0  0
    1.1665    1.7757   -1.1786 C   0  0  0  0  0  0  0  0  0  0  0  0
    1.3292    3.1140   -1.5424 C   0  0  0  0  0  0  0  0  0  0  0  0
    2.4537    3.5473   -2.2452 C   0  0  0  0  0  0  0  0  0  0  0  0
    3.4139    2.6251   -2.6456 C   0  0  0  0  0  0  0  0  0  0  0  0
    3.2711    1.2834   -2.2851 C   0  0  0  0  0  0  0  0  0  0  0  0
    2.1887    0.8614   -1.4770 C   0  0  0  0  0  0  0  0  0  0  0  0
    2.2659   -0.5394   -0.8786 C   0  0  0  0  0  0  0  0  0  0  0  0
    3.2618   -0.4963    0.3278 C   0  0  0  0  0  0  0  0  0  0  0  0
    2.7376   -1.5810   -1.8302 N   0  0  0  0  0  0  0  0  0  0  0  0
    1.6494   -2.4677   -2.2361 C   0  0  0  0  0  0  0  0  0  0  0  0
    3.4634   -1.0689   -3.0058 C   0  0  0  0  0  0  0  0  0  0  0  0
    4.2415    0.2335   -2.7606 C   0  0  0  0  0  0  0  0  0  0  0  0
    0.3963    4.0641   -1.2260 O   0  0  0  0  0  0  0  0  0  0  0  0
   -4.8778    2.1024   -0.7379 C   0  0  0  0  0  0  0  0  0  0  0  0
   -4.9957    0.6431   -1.2343 C   0  0  0  0  0  0  0  0  0  0  0  0
   -3.7330   -0.1016   -1.3177 N   0  0  0  0  0  0  0  0  0  0  0  0
   -3.9393   -1.5372   -1.4374 C   0  0  0  0  0  0  0  0  0  0  0  0
    2.5583   -6.4702    4.9156 H   0  0  0  0  0  0  0  0  0  0  0  0
    2.7600   -6.3798    3.1629 H   0  0  0  0  0  0  0  0  0  0  0  0
    4.0028   -5.6813    4.2728 H   0  0  0  0  0  0  0  0  0  0  0  0
    4.0729   -4.7579    2.0827 H   0  0  0  0  0  0  0  0  0  0  0  0
    4.4690   -2.9846    0.4545 H   0  0  0  0  0  0  0  0  0  0  0  0
    1.6145   -0.4769    2.4313 H   0  0  0  0  0  0  0  0  0  0  0  0
   -0.7481   -3.5977    2.4973 H   0  0  0  0  0  0  0  0  0  0  0  0
   -2.5176   -2.5311    1.1513 H   0  0  0  0  0  0  0  0  0  0  0  0
   -1.8933    1.1746    3.2890 H   0  0  0  0  0  0  0  0  0  0  0  0
   -0.1422    0.0783    4.6507 H   0  0  0  0  0  0  0  0  0  0  0  0
   -4.1924   -0.5345    1.1946 H   0  0  0  0  0  0  0  0  0  0  0  0
   -3.5975    1.0417    1.6288 H   0  0  0  0  0  0  0  0  0  0  0  0
   -1.8525   -0.3235   -0.4368 H   0  0  0  0  0  0  0  0  0  0  0  0
   -4.0895    4.6577   -1.1056 H   0  0  0  0  0  0  0  0  0  0  0  0
   -3.2436    6.7927   -0.5786 H   0  0  0  0  0  0  0  0  0  0  0  0
   -2.2073    7.7033   -1.6829 H   0  0  0  0  0  0  0  0  0  0  0  0
   -3.2844    6.4750   -2.3569 H   0  0  0  0  0  0  0  0  0  0  0  0
    2.5533    4.5950   -2.5148 H   0  0  0  0  0  0  0  0  0  0  0  0
    4.2615    2.9543   -3.2409 H   0  0  0  0  0  0  0  0  0  0  0  0
    1.2743   -0.8096   -0.4922 H   0  0  0  0  0  0  0  0  0  0  0  0
    3.1617    0.4604    0.8614 H   0  0  0  0  0  0  0  0  0  0  0  0
    4.3062   -0.5125   -0.0087 H   0  0  0  0  0  0  0  0  0  0  0  0
    2.0239   -3.2637   -2.8893 H   0  0  0  0  0  0  0  0  0  0  0  0
    0.8555   -1.9289   -2.7660 H   0  0  0  0  0  0  0  0  0  0  0  0
    1.2091   -2.9631   -1.3633 H   0  0  0  0  0  0  0  0  0  0  0  0
    2.7617   -0.8900   -3.8344 H   0  0  0  0  0  0  0  0  0  0  0  0
    4.1635   -1.8410   -3.3477 H   0  0  0  0  0  0  0  0  0  0  0  0
    4.7061    0.5476   -3.7027 H   0  0  0  0  0  0  0  0  0  0  0  0
    5.0423    0.0944   -2.0272 H   0  0  0  0  0  0  0  0  0  0  0  0
   -5.5269    2.7336   -1.3572 H   0  0  0  0  0  0  0  0  0  0  0  0
   -5.2494    2.1720    0.2918 H   0  0  0  0  0  0  0  0  0  0  0  0
   -5.7224    0.1276   -0.5924 H   0  0  0  0  0  0  0  0  0  0  0  0
   -5.4390    0.6581   -2.2383 H   0  0  0  0  0  0  0  0  0  0  0  0
   -4.5567   -1.7610   -2.3146 H   0  0  0  0  0  0  0  0  0  0  0  0
   -2.9857   -2.0548   -1.5879 H   0  0  0  0  0  0  0  0  0  0  0  0
   -4.4309   -1.9697   -0.5600 H   0  0  0  0  0  0  0  0  0  0  0  0
  1  2  1  0
  2  3  1  0
  3  4  2  0
  4  5  1  0
  5  6  2  0
  6  7  1  0
  7  8  2  0
  8  9  1  0
  9 10  1  0
 10 11  2  0
 11 12  1  0
 12 13  2  0
 13 14  1  0
 14 15  2  0
 13 16  1  0
 16 17  1  0
 17 18  1  0
 18 19  2  0
 19 20  1  0
 20 21  2  0
 21 22  1  0
 22 23  1  0
 21 24  1  0
 24 25  2  0
 25 26  1  0
 26 27  1  0
 27 28  2  0
 28 29  1  0
 29 30  2  0
 30 31  1  0
 31 32  2  0
 32 33  1  0
 33 34  1  0
 33 35  1  0
 35 36  1  0
 35 37  1  0
 37 38  1  0
 28 39  1  0
 19 40  1  0
 40 41  1  0
 41 42  1  0
 42 43  1  0
  8  3  1  0
 15 10  1  0
 42 17  1  0
 34  6  1  0
 25 18  1  0
 32 27  1  0
 39 24  1  0
 38 31  1  0
  1 44  1  0
  1 45  1  0
  1 46  1  0
  4 47  1  0
  5 48  1  0
  7 49  1  0
 11 50  1  0
 12 51  1  0
 14 52  1  0
 15 53  1  0
 16 54  1  0
 16 55  1  0
 17 56  1  0
 20 57  1  0
 23 58  1  0
 23 59  1  0
 23 60  1  0
 29 61  1  0
 30 62  1  0
 33 63  1  0
 34 64  1  0
 34 65  1  0
 36 66  1  0
 36 67  1  0
 36 68  1  0
 37 69  1  0
 37 70  1  0
 38 71  1  0
 38 72  1  0
 40 73  1  0
 40 74  1  0
 41 75  1  0
 41 76  1  0
 43 77  1  0
 43 78  1  0
 43 79  1  0
M  END
$$$$
