
     RDKit          3D

 57 60  0  0  0  0  0  0  0  0999 V2000
    3.2619   -0.8386   -2.8350 C   0  0  0  0  0  0  0  0  0  0  0  0
    3.7740    0.4657   -2.2440 C   0  0  0  0  0  0  0  0  0  0  0  0
    3.6801    0.4409   -0.8117 O   0  0  0  0  0  0  0  0  0  0  0  0
    4.7221   -0.1461   -0.1616 C   0  0  0  0  0  0  0  0  0  0  0  0
    5.7013   -0.6420   -0.7015 O   0  0  0  0  0  0  0  0  0  0  0  0
    4.5187   -0.1193    1.3412 C   0  0  0  0  0  0  0  0  0  0  0  0
    4.3774    1.3203    1.8577 C   0  0  0  0  0  0  0  0  0  0  0  0
    2.9230    1.6691    2.1525 C   0  0  0  0  0  0  0  0  0  0  0  0
    2.3895    0.7615    3.1910 N   0  0  0  0  0  0  0  0  0  0  0  0
    0.8346    1.0961    3.7908 S   0  0  0  0  0  6  0  0  0  0  0  0
    0.5643    0.1845    4.8828 O   0  0  0  0  0  0  0  0  0  0  0  0
    0.7153    2.5302    3.9635 O   0  0  0  0  0  0  0  0  0  0  0  0
   -0.2193    0.6391    2.4267 C   0  0  0  0  0  0  0  0  0  0  0  0
   -0.7417   -0.6632    2.3558 C   0  0  0  0  0  0  0  0  0  0  0  0
   -1.5839   -1.0272    1.2979 C   0  0  0  0  0  0  0  0  0  0  0  0
   -1.8983   -0.0774    0.3376 C   0  0  0  0  0  0  0  0  0  0  0  0
   -1.3920    1.2212    0.4281 C   0  0  0  0  0  0  0  0  0  0  0  0
   -0.5600    1.6032    1.4713 C   0  0  0  0  0  0  0  0  0  0  0  0
   -1.8798    2.0788   -0.6939 C   0  0  0  0  0  0  0  0  0  0  0  0
   -2.7314    1.0934   -1.5047 C   0  0  0  0  0  0  0  0  0  0  0  0
   -2.7214   -0.1972   -0.7990 N   0  0  0  0  0  0  0  0  0  0  0  0
   -3.4056   -1.3427   -1.1985 C   0  0  0  0  0  0  0  0  0  0  0  0
   -3.3272   -2.4170   -0.5921 O   0  0  0  0  0  0  0  0  0  0  0  0
   -4.2855   -1.1932   -2.4800 C   0  0  0  0  0  0  0  0  0  0  0  0
   -5.6711   -0.5072   -2.3153 C   0  0  0  0  0  0  0  0  0  0  0  0
   -6.2896   -1.9090   -2.1750 C   0  0  0  0  0  0  0  0  0  0  0  0
   -5.0787   -2.4460   -2.9575 C   0  0  0  0  0  0  0  0  0  0  0  0
    2.8154   -0.6560    3.1197 C   0  0  0  0  0  0  0  0  0  0  0  0
    3.3373   -1.0128    1.7351 C   0  0  0  0  0  0  0  0  0  0  0  0
    3.2791   -0.8029   -3.9267 H   0  0  0  0  0  0  0  0  0  0  0  0
    3.8713   -1.6877   -2.5076 H   0  0  0  0  0  0  0  0  0  0  0  0
    2.2362   -1.0338   -2.5076 H   0  0  0  0  0  0  0  0  0  0  0  0
    3.1443    1.2934   -2.5866 H   0  0  0  0  0  0  0  0  0  0  0  0
    4.7999    0.6852   -2.5666 H   0  0  0  0  0  0  0  0  0  0  0  0
    5.4390   -0.5350    1.7815 H   0  0  0  0  0  0  0  0  0  0  0  0
    4.7951    2.0446    1.1465 H   0  0  0  0  0  0  0  0  0  0  0  0
    4.9589    1.4231    2.7858 H   0  0  0  0  0  0  0  0  0  0  0  0
    2.8827    2.7023    2.5130 H   0  0  0  0  0  0  0  0  0  0  0  0
    2.3248    1.6029    1.2391 H   0  0  0  0  0  0  0  0  0  0  0  0
   -0.5059   -1.3981    3.1227 H   0  0  0  0  0  0  0  0  0  0  0  0
   -1.9789   -2.0372    1.2570 H   0  0  0  0  0  0  0  0  0  0  0  0
   -0.1891    2.6221    1.5429 H   0  0  0  0  0  0  0  0  0  0  0  0
   -2.4852    2.9106   -0.3201 H   0  0  0  0  0  0  0  0  0  0  0  0
   -1.0479    2.4664   -1.2897 H   0  0  0  0  0  0  0  0  0  0  0  0
   -3.7594    1.4512   -1.6082 H   0  0  0  0  0  0  0  0  0  0  0  0
   -2.3188    0.9497   -2.5089 H   0  0  0  0  0  0  0  0  0  0  0  0
   -3.6963   -0.7735   -3.3061 H   0  0  0  0  0  0  0  0  0  0  0  0
   -5.7931    0.1412   -1.4429 H   0  0  0  0  0  0  0  0  0  0  0  0
   -6.0005    0.0350   -3.2091 H   0  0  0  0  0  0  0  0  0  0  0  0
   -6.3395   -2.2650   -1.1400 H   0  0  0  0  0  0  0  0  0  0  0  0
   -7.2657   -2.0501   -2.6459 H   0  0  0  0  0  0  0  0  0  0  0  0
   -4.7071   -3.4191   -2.6312 H   0  0  0  0  0  0  0  0  0  0  0  0
   -5.2360   -2.4781   -4.0417 H   0  0  0  0  0  0  0  0  0  0  0  0
    3.5983   -0.8096    3.8715 H   0  0  0  0  0  0  0  0  0  0  0  0
    1.9988   -1.3372    3.3738 H   0  0  0  0  0  0  0  0  0  0  0  0
    3.6500   -2.0643    1.7118 H   0  0  0  0  0  0  0  0  0  0  0  0
    2.5156   -0.9279    1.0112 H   0  0  0  0  0  0  0  0  0  0  0  0
  1  2  1  0
  2  3  1  0
  3  4  1  0
  4  5  2  0
  4  6  1  0
  6  7  1  0
  7  8  1  0
  8  9  1  0
  9 10  1  0
 10 11  2  0
 10 12  2  0
 10 13  1  0
 13 14  2  0
 14 15  1  0
 15 16  2  0
 16 17  1  0
 17 18  2  0
 17 19  1  0
 19 20  1  0
 20 21  1  0
 21 22  1  0
 22 23  2  0
 22 24  1  0
 24 25  1  0
 25 26  1  0
 26 27  1  0
  9 28  1  0
 28 29  1  0
 29  6  1  0
 18 13  1  0
 27 24  1  0
 21 16  1  0
  1 30  1  0
  1 31  1  0
  1 32  1  0
  2 33  1  0
  2 34  1  0
  6 35  1  0
  7 36  1  0
  7 37  1  0
  8 38  1  0
  8 39  1  0
 14 40  1  0
 15 41  1  0
 18 42  1  0
 19 43  1  0
 19 44  1  0
 20 45  1  0
 20 46  1  0
 24 47  1  0
 25 48  1  0
 25 49  1  0
 26 50  1  0
 26 51  1  0
 27 52  1  0
 27 53  1  0
 28 54  1  0
 28 55  1  0
 29 56  1  0
 29 57  1  0
M  END
$$$$
