
     RDKit          3D

 57 60  0  0  0  0  0  0  0  0999 V2000
    5.9369   -0.4817    2.1001 C   0  0  0  0  0  0  0  0  0  0  0  0
    6.2738    1.0037    2.0447 C   0  0  0  0  0  0  0  0  0  0  0  0
    6.1024    1.5875    0.6364 C   0  0  0  0  0  0  0  0  0  0  0  0
    6.6206    3.0222    0.5830 C   0  0  0  0  0  0  0  0  0  0  0  0
    4.7012    1.5656    0.2354 N   0  0  0  0  0  0  0  0  0  0  0  0
    4.3050    1.1918   -1.0345 C   0  0  0  0  0  0  0  0  0  0  0  0
    5.0715    0.7778   -1.8993 O   0  0  0  0  0  0  0  0  0  0  0  0
    2.8475    1.2868   -1.3202 C   0  0  0  0  0  0  0  0  0  0  0  0
    2.0555    2.3161   -0.7950 C   0  0  0  0  0  0  0  0  0  0  0  0
    0.6983    2.3950   -1.1260 C   0  0  0  0  0  0  0  0  0  0  0  0
    0.1177    1.4514   -1.9871 C   0  0  0  0  0  0  0  0  0  0  0  0
   -1.3306    1.5658   -2.4022 C   0  0  0  0  0  0  0  0  0  0  0  0
   -2.5158    1.1915   -1.0795 S   0  0  0  0  0  0  0  0  0  0  0  0
   -2.7673   -0.5086   -1.3039 C   0  0  0  0  0  0  0  0  0  0  0  0
   -1.9009   -1.3329   -1.8488 N   0  0  0  0  0  0  0  0  0  0  0  0
   -2.4960   -2.5675   -1.8037 C   0  0  0  0  0  0  0  0  0  0  0  0
   -1.9993   -3.8032   -2.2233 C   0  0  0  0  0  0  0  0  0  0  0  0
   -2.8607   -4.8775   -2.0613 C   0  0  0  0  0  0  0  0  0  0  0  0
   -4.1202   -4.7991   -1.5522 N   0  0  0  0  0  0  0  0  0  0  0  0
   -4.5981   -3.5994   -1.1483 C   0  0  0  0  0  0  0  0  0  0  0  0
   -3.7768   -2.4840   -1.2589 C   0  0  0  0  0  0  0  0  0  0  0  0
   -3.9208   -1.1531   -0.9220 N   0  0  0  0  0  0  0  0  0  0  0  0
   -5.1178   -0.5603   -0.3395 C   0  0  0  0  0  0  0  0  0  0  0  0
   -5.0138   -0.3824    1.1604 C   0  0  0  0  0  0  0  0  0  0  0  0
   -4.9251   -1.4931    2.0280 C   0  0  0  0  0  0  0  0  0  0  0  0
   -4.8729   -1.3150    3.4144 C   0  0  0  0  0  0  0  0  0  0  0  0
   -4.9073   -0.0296    3.9401 C   0  0  0  0  0  0  0  0  0  0  0  0
   -4.8807    0.1418    5.2664 F   0  0  0  0  0  0  0  0  0  0  0  0
   -4.9872    1.0827    3.1053 C   0  0  0  0  0  0  0  0  0  0  0  0
   -5.0421    0.9080    1.7178 C   0  0  0  0  0  0  0  0  0  0  0  0
    0.9191    0.4191   -2.4995 C   0  0  0  0  0  0  0  0  0  0  0  0
    2.2766    0.3419   -2.1770 C   0  0  0  0  0  0  0  0  0  0  0  0
    4.8986   -0.6673    1.8184 H   0  0  0  0  0  0  0  0  0  0  0  0
    6.5827   -1.0588    1.4304 H   0  0  0  0  0  0  0  0  0  0  0  0
    6.0792   -0.8635    3.1125 H   0  0  0  0  0  0  0  0  0  0  0  0
    7.3146    1.1363    2.3719 H   0  0  0  0  0  0  0  0  0  0  0  0
    5.6365    1.5433    2.7622 H   0  0  0  0  0  0  0  0  0  0  0  0
    6.6881    0.9880   -0.0719 H   0  0  0  0  0  0  0  0  0  0  0  0
    6.0777    3.6668    1.2873 H   0  0  0  0  0  0  0  0  0  0  0  0
    7.6890    3.0634    0.8300 H   0  0  0  0  0  0  0  0  0  0  0  0
    6.4897    3.4440   -0.4180 H   0  0  0  0  0  0  0  0  0  0  0  0
    4.0026    1.8246    0.9189 H   0  0  0  0  0  0  0  0  0  0  0  0
    2.4846    3.0849   -0.1603 H   0  0  0  0  0  0  0  0  0  0  0  0
    0.0986    3.2092   -0.7215 H   0  0  0  0  0  0  0  0  0  0  0  0
   -1.5378    0.9495   -3.2848 H   0  0  0  0  0  0  0  0  0  0  0  0
   -1.5090    2.5980   -2.7237 H   0  0  0  0  0  0  0  0  0  0  0  0
   -0.9999   -3.9108   -2.6432 H   0  0  0  0  0  0  0  0  0  0  0  0
   -2.5454   -5.8772   -2.3561 H   0  0  0  0  0  0  0  0  0  0  0  0
   -5.6039   -3.5819   -0.7577 H   0  0  0  0  0  0  0  0  0  0  0  0
   -5.3065    0.3905   -0.8516 H   0  0  0  0  0  0  0  0  0  0  0  0
   -5.9775   -1.2013   -0.5721 H   0  0  0  0  0  0  0  0  0  0  0  0
   -4.9011   -2.5086    1.6376 H   0  0  0  0  0  0  0  0  0  0  0  0
   -4.8093   -2.1709    4.0855 H   0  0  0  0  0  0  0  0  0  0  0  0
   -5.0133    2.0769    3.5398 H   0  0  0  0  0  0  0  0  0  0  0  0
   -5.1079    1.7893    1.0759 H   0  0  0  0  0  0  0  0  0  0  0  0
    0.4897   -0.3308   -3.1615 H   0  0  0  0  0  0  0  0  0  0  0  0
    2.8878   -0.4550   -2.5975 H   0  0  0  0  0  0  0  0  0  0  0  0
  1  2  1  0
  2  3  1  0
  3  4  1  0
  3  5  1  0
  5  6  1  0
  6  7  2  0
  6  8  1  0
  8  9  2  0
  9 10  1  0
 10 11  2  0
 11 12  1  0
 12 13  1  0
 13 14  1  0
 14 15  2  0
 15 16  1  0
 16 17  2  0
 17 18  1  0
 18 19  2  0
 19 20  1  0
 20 21  2  0
 21 22  1  0
 22 23  1  0
 23 24  1  0
 24 25  2  0
 25 26  1  0
 26 27  2  0
 27 28  1  0
 27 29  1  0
 29 30  2  0
 11 31  1  0
 31 32  2  0
 32  8  1  0
 22 14  1  0
 30 24  1  0
 21 16  1  0
  1 33  1  0
  1 34  1  0
  1 35  1  0
  2 36  1  0
  2 37  1  0
  3 38  1  0
  4 39  1  0
  4 40  1  0
  4 41  1  0
  5 42  1  0
  9 43  1  0
 10 44  1  0
 12 45  1  0
 12 46  1  0
 17 47  1  0
 18 48  1  0
 20 49  1  0
 23 50  1  0
 23 51  1  0
 25 52  1  0
 26 53  1  0
 29 54  1  0
 30 55  1  0
 31 56  1  0
 32 57  1  0
M  END
$$$$
