
     RDKit          3D

 46 49  0  0  0  0  0  0  0  0999 V2000
   -0.6726   -2.7362   -1.4044 O   0  0  0  0  0  0  0  0  0  0  0  0
    0.0734   -2.2355   -0.5673 C   0  0  0  0  0  0  0  0  0  0  0  0
    1.4032   -2.8713   -0.1962 C   0  0  0  0  0  0  0  0  0  0  0  0
    2.7760   -1.9988   -1.0171 S   0  0  0  0  0  0  0  0  0  0  0  0
    3.3270   -0.9122    0.2920 C   0  0  0  0  0  0  0  0  0  0  0  0
    2.3393   -0.4021    1.0831 N   0  0  0  0  0  0  0  0  0  0  0  0
    2.6903    0.5017    2.0295 C   0  0  0  0  0  0  0  0  0  0  0  0
    3.9838    0.9491    2.2264 C   0  0  0  0  0  0  0  0  0  0  0  0
    4.9834    0.4325    1.4114 C   0  0  0  0  0  0  0  0  0  0  0  0
    4.6578   -0.5211    0.4394 C   0  0  0  0  0  0  0  0  0  0  0  0
    5.7564   -1.0335   -0.3876 C   0  0  0  0  0  0  0  0  0  0  0  0
    6.5819   -0.3523   -0.9661 O   0  0  0  0  0  0  0  0  0  0  0  0
    5.8405   -2.3723   -0.3316 O   0  0  0  0  0  0  0  0  0  0  0  0
   -0.2094   -1.0804    0.1322 N   0  0  0  0  0  0  0  0  0  0  0  0
   -1.3520   -0.2024   -0.1253 C   0  0  0  0  0  0  0  0  0  0  0  0
   -1.2995    0.9728    0.8884 C   0  0  0  0  0  0  0  0  0  0  0  0
   -2.4699    1.9446    0.6685 C   0  0  0  0  0  0  0  0  0  0  0  0
   -3.7941    1.1876    0.8511 C   0  0  0  0  0  0  0  0  0  0  0  0
   -3.8805    0.0326   -0.1585 C   0  0  0  0  0  0  0  0  0  0  0  0
   -3.7985    0.5984   -1.5864 C   0  0  0  0  0  0  0  0  0  0  0  0
   -2.4752    1.3588   -1.7804 C   0  0  0  0  0  0  0  0  0  0  0  0
   -2.3963    2.5059   -0.7604 C   0  0  0  0  0  0  0  0  0  0  0  0
   -1.2983    0.3937   -1.5531 C   0  0  0  0  0  0  0  0  0  0  0  0
   -2.7042   -0.9333    0.0708 C   0  0  0  0  0  0  0  0  0  0  0  0
    1.3932   -3.9052   -0.5575 H   0  0  0  0  0  0  0  0  0  0  0  0
    1.5216   -2.9149    0.8912 H   0  0  0  0  0  0  0  0  0  0  0  0
    1.8719    0.8771    2.6401 H   0  0  0  0  0  0  0  0  0  0  0  0
    4.2082    1.6840    2.9921 H   0  0  0  0  0  0  0  0  0  0  0  0
    6.0122    0.7658    1.5313 H   0  0  0  0  0  0  0  0  0  0  0  0
    6.6078   -2.5956   -0.8997 H   0  0  0  0  0  0  0  0  0  0  0  0
    0.6093   -0.6545    0.5718 H   0  0  0  0  0  0  0  0  0  0  0  0
   -0.3493    1.5146    0.7890 H   0  0  0  0  0  0  0  0  0  0  0  0
   -1.3249    0.5863    1.9163 H   0  0  0  0  0  0  0  0  0  0  0  0
   -2.4105    2.7657    1.3916 H   0  0  0  0  0  0  0  0  0  0  0  0
   -3.8656    0.7980    1.8739 H   0  0  0  0  0  0  0  0  0  0  0  0
   -4.6399    1.8720    0.7114 H   0  0  0  0  0  0  0  0  0  0  0  0
   -4.8279   -0.5024   -0.0264 H   0  0  0  0  0  0  0  0  0  0  0  0
   -4.6458    1.2702   -1.7712 H   0  0  0  0  0  0  0  0  0  0  0  0
   -3.8731   -0.2160   -2.3175 H   0  0  0  0  0  0  0  0  0  0  0  0
   -2.4276    1.7651   -2.7971 H   0  0  0  0  0  0  0  0  0  0  0  0
   -3.2179    3.2136   -0.9278 H   0  0  0  0  0  0  0  0  0  0  0  0
   -1.4621    3.0649   -0.8965 H   0  0  0  0  0  0  0  0  0  0  0  0
   -1.3335   -0.4005   -2.3087 H   0  0  0  0  0  0  0  0  0  0  0  0
   -0.3474    0.9209   -1.7066 H   0  0  0  0  0  0  0  0  0  0  0  0
   -2.8012   -1.7771   -0.6217 H   0  0  0  0  0  0  0  0  0  0  0  0
   -2.7601   -1.3584    1.0817 H   0  0  0  0  0  0  0  0  0  0  0  0
  1  2  2  0
  2  3  1  0
  3  4  1  0
  4  5  1  0
  5  6  2  0
  6  7  1  0
  7  8  2  0
  8  9  1  0
  9 10  2  0
 10 11  1  0
 11 12  2  0
 11 13  1  0
  2 14  1  0
 14 15  1  0
 15 16  1  0
 16 17  1  0
 17 18  1  0
 18 19  1  0
 19 20  1  0
 20 21  1  0
 21 22  1  0
 21 23  1  0
 19 24  1  0
 10  5  1  0
 23 15  1  0
 24 15  1  0
 22 17  1  0
  3 25  1  0
  3 26  1  0
  7 27  1  0
  8 28  1  0
  9 29  1  0
 13 30  1  0
 14 31  1  0
 16 32  1  0
 16 33  1  0
 17 34  1  0
 18 35  1  0
 18 36  1  0
 19 37  1  0
 20 38  1  0
 20 39  1  0
 21 40  1  0
 22 41  1  0
 22 42  1  0
 23 43  1  0
 23 44  1  0
 24 45  1  0
 24 46  1  0
M  END
$$$$
