
     RDKit          3D

 46 50  0  0  0  0  0  0  0  0999 V2000
   -8.1537    0.9610   -0.2157 C   0  0  0  0  0  0  0  0  0  0  0  0
   -6.6667    0.8147   -0.0261 C   0  0  0  0  0  0  0  0  0  0  0  0
   -5.8107    1.2033   -1.0769 C   0  0  0  0  0  0  0  0  0  0  0  0
   -4.4227    1.0817   -0.9222 C   0  0  0  0  0  0  0  0  0  0  0  0
   -3.4116    1.3967   -1.8101 N   0  0  0  0  0  0  0  0  0  0  0  0
   -2.3294    1.0855   -1.1537 C   0  0  0  0  0  0  0  0  0  0  0  0
   -0.6570    1.1700   -1.5439 S   0  0  0  0  0  0  0  0  0  0  0  0
   -0.2525    0.5288    0.0284 C   0  0  0  0  0  0  0  0  0  0  0  0
    0.9490    0.2435    0.5468 C   0  0  0  0  0  0  0  0  0  0  0  0
    2.2141    0.4272   -0.0763 C   0  0  0  0  0  0  0  0  0  0  0  0
    2.6792    1.3398   -1.0172 C   0  0  0  0  0  0  0  0  0  0  0  0
    4.0502    1.0724   -1.2536 C   0  0  0  0  0  0  0  0  0  0  0  0
    4.3825    0.0280   -0.4252 C   0  0  0  0  0  0  0  0  0  0  0  0
    5.5988   -0.7344   -0.1864 C   0  0  0  0  0  0  0  0  0  0  0  0
    6.3258   -1.1985   -1.2977 C   0  0  0  0  0  0  0  0  0  0  0  0
    7.4735   -1.9791   -1.1348 C   0  0  0  0  0  0  0  0  0  0  0  0
    7.9162   -2.3091    0.1423 C   0  0  0  0  0  0  0  0  0  0  0  0
    7.2173   -1.8495    1.2577 C   0  0  0  0  0  0  0  0  0  0  0  0
    6.0645   -1.0598    1.0999 C   0  0  0  0  0  0  0  0  0  0  0  0
    5.4143   -0.5246    2.3181 C   0  0  0  0  0  0  0  0  0  0  0  0
    5.0009    0.6041    2.4982 O   0  0  0  0  0  0  0  0  0  0  0  0
    5.3364   -1.4638    3.2807 O   0  0  0  0  0  0  0  0  0  0  0  0
    3.2844   -0.3712    0.2698 O   0  0  0  0  0  0  0  0  0  0  0  0
   -1.4695    0.2436    0.8475 C   0  0  0  0  0  0  0  0  0  0  0  0
   -1.5660   -0.2095    1.9728 O   0  0  0  0  0  0  0  0  0  0  0  0
   -2.5619    0.5955    0.0874 N   0  0  0  0  0  0  0  0  0  0  0  0
   -3.9188    0.5758    0.2793 C   0  0  0  0  0  0  0  0  0  0  0  0
   -4.7350    0.1830    1.3438 C   0  0  0  0  0  0  0  0  0  0  0  0
   -6.1279    0.3117    1.1796 C   0  0  0  0  0  0  0  0  0  0  0  0
   -7.0267   -0.1063    2.3156 C   0  0  0  0  0  0  0  0  0  0  0  0
   -8.6548   -0.0006   -0.0662 H   0  0  0  0  0  0  0  0  0  0  0  0
   -8.3981    1.3021   -1.2276 H   0  0  0  0  0  0  0  0  0  0  0  0
   -8.5542    1.6970    0.4886 H   0  0  0  0  0  0  0  0  0  0  0  0
   -6.2034    1.5967   -2.0092 H   0  0  0  0  0  0  0  0  0  0  0  0
    0.9967   -0.2105    1.5362 H   0  0  0  0  0  0  0  0  0  0  0  0
    2.1060    2.1321   -1.4774 H   0  0  0  0  0  0  0  0  0  0  0  0
    4.7158    1.5957   -1.9252 H   0  0  0  0  0  0  0  0  0  0  0  0
    5.9879   -0.9710   -2.3073 H   0  0  0  0  0  0  0  0  0  0  0  0
    8.0161   -2.3347   -2.0077 H   0  0  0  0  0  0  0  0  0  0  0  0
    8.8076   -2.9181    0.2711 H   0  0  0  0  0  0  0  0  0  0  0  0
    7.5803   -2.0964    2.2531 H   0  0  0  0  0  0  0  0  0  0  0  0
    4.8715   -1.0047    4.0111 H   0  0  0  0  0  0  0  0  0  0  0  0
   -4.3051   -0.2057    2.2637 H   0  0  0  0  0  0  0  0  0  0  0  0
   -7.6585   -0.9459    2.0094 H   0  0  0  0  0  0  0  0  0  0  0  0
   -6.4485   -0.4280    3.1883 H   0  0  0  0  0  0  0  0  0  0  0  0
   -7.6564    0.7313    2.6315 H   0  0  0  0  0  0  0  0  0  0  0  0
  1  2  1  0
  2  3  2  0
  3  4  1  0
  4  5  1  0
  5  6  2  0
  6  7  1  0
  7  8  1  0
  8  9  2  3
  9 10  1  0
 10 11  2  0
 11 12  1  0
 12 13  2  0
 13 14  1  0
 14 15  2  0
 15 16  1  0
 16 17  2  0
 17 18  1  0
 18 19  2  0
 19 20  1  0
 20 21  2  0
 20 22  1  0
 13 23  1  0
  8 24  1  0
 24 25  2  0
 24 26  1  0
 26 27  1  0
 27 28  1  0
 28 29  2  0
 29 30  1  0
 29  2  1  0
 27  4  2  0
 26  6  1  0
 23 10  1  0
 19 14  1  0
  1 31  1  0
  1 32  1  0
  1 33  1  0
  3 34  1  0
  9 35  1  0
 11 36  1  0
 12 37  1  0
 15 38  1  0
 16 39  1  0
 17 40  1  0
 18 41  1  0
 22 42  1  0
 28 43  1  0
 30 44  1  0
 30 45  1  0
 30 46  1  0
M  END
$$$$
