
     RDKit          3D

 35 36  0  0  0  0  0  0  0  0999 V2000
   -5.9237   -0.6583    1.3953 C   0  0  0  0  0  0  0  0  0  0  0  0
   -4.6714   -0.0286    0.8123 C   0  0  0  0  0  0  0  0  0  0  0  0
   -3.5480   -0.5335    1.5336 O   0  0  0  0  0  0  0  0  0  0  0  0
   -2.3102   -0.0980    1.1557 C   0  0  0  0  0  0  0  0  0  0  0  0
   -1.2533   -0.6385    1.8850 C   0  0  0  0  0  0  0  0  0  0  0  0
    0.0748   -0.2866    1.6087 C   0  0  0  0  0  0  0  0  0  0  0  0
    0.3877    0.6226    0.5927 C   0  0  0  0  0  0  0  0  0  0  0  0
    1.7290    0.9784    0.2979 N   0  0  0  0  0  0  0  0  0  0  0  0
    2.8999    0.5270    0.8856 C   0  0  0  0  0  0  0  0  0  0  0  0
    2.9666   -0.2295    1.8519 O   0  0  0  0  0  0  0  0  0  0  0  0
    4.1709    1.1342    0.2986 C   0  0  0  0  0  0  0  0  0  0  0  0
    4.0997    1.3439   -1.5028 S   0  0  0  0  0  0  0  0  0  0  0  0
    3.8865   -0.3139   -1.9832 C   0  0  0  0  0  0  0  0  0  0  0  0
    4.3991   -1.3720   -1.2893 N   0  0  0  0  0  0  0  0  0  0  0  0
    3.9843   -2.4077   -1.9800 C   0  0  0  0  0  0  0  0  0  0  0  0
    3.2508   -1.9791   -3.0402 N   0  0  0  0  0  0  0  0  0  0  0  0
    3.1639   -0.6395   -3.0574 N   0  0  0  0  0  0  0  0  0  0  0  0
   -0.6940    1.1626   -0.1409 C   0  0  0  0  0  0  0  0  0  0  0  0
   -0.4771    2.1154   -1.2370 N   0  0  0  0  0  4  0  0  0  0  0  0
    0.5763    2.7696   -1.2391 O   0  0  0  0  0  0  0  0  0  0  0  0
   -1.3646    2.2165   -2.0966 O   0  0  0  0  0  1  0  0  0  0  0  0
   -2.0315    0.8078    0.1387 C   0  0  0  0  0  0  0  0  0  0  0  0
   -5.8749   -1.7500    1.3274 H   0  0  0  0  0  0  0  0  0  0  0  0
   -6.0216   -0.4078    2.4566 H   0  0  0  0  0  0  0  0  0  0  0  0
   -6.8162   -0.3111    0.8672 H   0  0  0  0  0  0  0  0  0  0  0  0
   -4.7334    1.0605    0.9218 H   0  0  0  0  0  0  0  0  0  0  0  0
   -4.5954   -0.2973   -0.2478 H   0  0  0  0  0  0  0  0  0  0  0  0
   -1.4583   -1.3511    2.6829 H   0  0  0  0  0  0  0  0  0  0  0  0
    0.8417   -0.7548    2.2186 H   0  0  0  0  0  0  0  0  0  0  0  0
    1.8612    1.6511   -0.4613 H   0  0  0  0  0  0  0  0  0  0  0  0
    5.0247    0.5004    0.5585 H   0  0  0  0  0  0  0  0  0  0  0  0
    4.3220    2.1138    0.7626 H   0  0  0  0  0  0  0  0  0  0  0  0
    4.1779   -3.4497   -1.7662 H   0  0  0  0  0  0  0  0  0  0  0  0
    2.7910   -2.5200   -3.7648 H   0  0  0  0  0  0  0  0  0  0  0  0
   -2.8346    1.2484   -0.4449 H   0  0  0  0  0  0  0  0  0  0  0  0
  1  2  1  0
  2  3  1  0
  3  4  1  0
  4  5  2  0
  5  6  1  0
  6  7  2  0
  7  8  1  0
  8  9  1  0
  9 10  2  0
  9 11  1  0
 11 12  1  0
 12 13  1  0
 13 14  1  0
 14 15  2  0
 15 16  1  0
 16 17  1  0
  7 18  1  0
 18 19  1  0
 19 20  2  0
 19 21  1  0
 18 22  2  0
 22  4  1  0
 17 13  2  0
  1 23  1  0
  1 24  1  0
  1 25  1  0
  2 26  1  0
  2 27  1  0
  5 28  1  0
  6 29  1  0
  8 30  1  0
 11 31  1  0
 11 32  1  0
 15 33  1  0
 16 34  1  0
 22 35  1  0
M  CHG  2  19   1  21  -1
M  END
$$$$
