
     RDKit          3D

 21 21  0  0  0  0  0  0  0  0999 V2000
   -1.9286   -2.2791   -0.1042 C   0  0  0  0  0  0  0  0  0  0  0  0
   -0.5552   -1.9504   -0.2714 O   0  0  0  0  0  0  0  0  0  0  0  0
   -0.1895   -0.6465   -0.0704 C   0  0  0  0  0  0  0  0  0  0  0  0
   -0.9469    0.2605    0.6869 C   0  0  0  0  0  0  0  0  0  0  0  0
   -0.4974    1.5670    0.9283 C   0  0  0  0  0  0  0  0  0  0  0  0
   -1.3519    2.4683    1.5865 N   0  0  0  0  0  0  0  0  0  0  0  0
    0.6977    1.9836    0.3227 C   0  0  0  0  0  0  0  0  0  0  0  0
    1.3282    3.7650    0.5266 Br  0  0  0  0  0  0  0  0  0  0  0  0
    1.4700    1.0944   -0.4248 C   0  0  0  0  0  0  0  0  0  0  0  0
    1.0344   -0.2253   -0.6153 C   0  0  0  0  0  0  0  0  0  0  0  0
    1.8592   -1.1441   -1.4412 C   0  0  0  0  0  0  0  0  0  0  0  0
    1.4847   -2.0595   -2.1472 O   0  0  0  0  0  0  0  0  0  0  0  0
    3.1715   -0.8534   -1.3330 O   0  0  0  0  0  0  0  0  0  0  0  0
   -2.1978   -2.2929    0.9566 H   0  0  0  0  0  0  0  0  0  0  0  0
   -2.0809   -3.2884   -0.4986 H   0  0  0  0  0  0  0  0  0  0  0  0
   -2.5765   -1.5992   -0.6678 H   0  0  0  0  0  0  0  0  0  0  0  0
   -1.8985   -0.0374    1.1157 H   0  0  0  0  0  0  0  0  0  0  0  0
   -0.8676    3.2935    1.9347 H   0  0  0  0  0  0  0  0  0  0  0  0
   -1.9568    2.0473    2.2843 H   0  0  0  0  0  0  0  0  0  0  0  0
    2.4027    1.4295   -0.8723 H   0  0  0  0  0  0  0  0  0  0  0  0
    3.5992   -1.5328   -1.8961 H   0  0  0  0  0  0  0  0  0  0  0  0
  1  2  1  0
  2  3  1  0
  3  4  2  0
  4  5  1  0
  5  6  1  0
  5  7  2  0
  7  8  1  0
  7  9  1  0
  9 10  2  0
 10 11  1  0
 11 12  2  0
 11 13  1  0
 10  3  1  0
  1 14  1  0
  1 15  1  0
  1 16  1  0
  4 17  1  0
  6 18  1  0
  6 19  1  0
  9 20  1  0
 13 21  1  0
M  END
$$$$
