
     RDKit          3D

 33 35  0  0  0  0  0  0  0  0999 V2000
   -5.0217   -2.2728    0.6684 C   0  0  0  0  0  0  0  0  0  0  0  0
   -4.7188   -0.8780    0.2105 C   0  0  0  0  0  0  0  0  0  0  0  0
   -5.7437    0.0136   -0.0297 C   0  0  0  0  0  0  0  0  0  0  0  0
   -5.3659    1.2674   -0.4470 C   0  0  0  0  0  0  0  0  0  0  0  0
   -4.0859    1.6379   -0.6197 N   0  0  0  0  0  0  0  0  0  0  0  0
   -3.1537    0.7079   -0.3558 C   0  0  0  0  0  0  0  0  0  0  0  0
   -1.4667    1.1938   -0.5983 S   0  0  0  0  0  0  0  0  0  0  0  0
   -0.6383   -0.1453    0.3100 C   0  0  0  0  0  0  0  0  0  0  0  0
    0.8391    0.0644    0.3400 C   0  0  0  0  0  0  0  0  0  0  0  0
    1.7495   -0.0138   -0.6965 C   0  0  0  0  0  0  0  0  0  0  0  0
    2.9801    0.2631   -0.1502 N   0  0  0  0  0  0  0  0  0  0  0  0
    4.2487    0.3319   -0.7547 C   0  0  0  0  0  0  0  0  0  0  0  0
    4.3816    0.0858   -2.2263 C   0  0  0  0  0  0  0  0  0  0  0  0
    5.3075    0.6234    0.0301 C   0  0  0  0  0  0  0  0  0  0  0  0
    5.1113    0.8542    1.4522 C   0  0  0  0  0  0  0  0  0  0  0  0
    3.8906    0.7851    2.0143 C   0  0  0  0  0  0  0  0  0  0  0  0
    2.7595    0.4797    1.2085 C   0  0  0  0  0  0  0  0  0  0  0  0
    1.4867    0.3570    1.5210 N   0  0  0  0  0  0  0  0  0  0  0  0
   -3.4209   -0.5467    0.0486 N   0  0  0  0  0  0  0  0  0  0  0  0
   -5.5642   -2.2497    1.6187 H   0  0  0  0  0  0  0  0  0  0  0  0
   -5.6277   -2.7931   -0.0797 H   0  0  0  0  0  0  0  0  0  0  0  0
   -4.0991   -2.8434    0.8165 H   0  0  0  0  0  0  0  0  0  0  0  0
   -6.7848   -0.2502    0.0995 H   0  0  0  0  0  0  0  0  0  0  0  0
   -6.1034    2.0353   -0.6618 H   0  0  0  0  0  0  0  0  0  0  0  0
   -1.0207   -0.1827    1.3361 H   0  0  0  0  0  0  0  0  0  0  0  0
   -0.8491   -1.1067   -0.1712 H   0  0  0  0  0  0  0  0  0  0  0  0
    1.6187   -0.2242   -1.7476 H   0  0  0  0  0  0  0  0  0  0  0  0
    4.0378   -0.9219   -2.4823 H   0  0  0  0  0  0  0  0  0  0  0  0
    5.4212    0.1729   -2.5605 H   0  0  0  0  0  0  0  0  0  0  0  0
    3.7922    0.8132   -2.7944 H   0  0  0  0  0  0  0  0  0  0  0  0
    6.3170    0.6958   -0.3627 H   0  0  0  0  0  0  0  0  0  0  0  0
    5.9842    1.0879    2.0540 H   0  0  0  0  0  0  0  0  0  0  0  0
    3.7389    0.9583    3.0732 H   0  0  0  0  0  0  0  0  0  0  0  0
  1  2  1  0
  2  3  2  0
  3  4  1  0
  4  5  2  0
  5  6  1  0
  6  7  1  0
  7  8  1  0
  8  9  1  0
  9 10  2  0
 10 11  1  0
 11 12  1  0
 12 13  1  0
 12 14  2  0
 14 15  1  0
 15 16  2  0
 16 17  1  0
 17 18  2  0
  6 19  2  0
 19  2  1  0
 18  9  1  0
 17 11  1  0
  1 20  1  0
  1 21  1  0
  1 22  1  0
  3 23  1  0
  4 24  1  0
  8 25  1  0
  8 26  1  0
 10 27  1  0
 13 28  1  0
 13 29  1  0
 13 30  1  0
 14 31  1  0
 15 32  1  0
 16 33  1  0
M  END
$$$$
