
     RDKit          3D

 73 75  0  0  0  0  0  0  0  0999 V2000
   10.7218   -0.7676   -2.0728 C   0  0  0  0  0  0  0  0  0  0  0  0
    9.4202   -1.4041   -1.6095 C   0  0  0  0  0  0  0  0  0  0  0  0
    8.5954   -1.9102   -2.7932 C   0  0  0  0  0  0  0  0  0  0  0  0
    7.3308   -2.6685   -2.3783 C   0  0  0  0  0  0  0  0  0  0  0  0
    6.3353   -1.8930   -1.5084 C   0  0  0  0  0  0  0  0  0  0  0  0
    5.8005   -0.6242   -2.1770 C   0  0  0  0  0  0  0  0  0  0  0  0
    4.7968    0.1405   -1.3077 C   0  0  0  0  0  0  0  0  0  0  0  0
    3.4665   -0.5932   -1.1239 C   0  0  0  0  0  0  0  0  0  0  0  0
    2.4732    0.2561   -0.3268 C   0  0  0  0  0  0  0  0  0  0  0  0
    1.1293   -0.4635   -0.1603 C   0  0  0  0  0  0  0  0  0  0  0  0
    0.1644    0.3975    0.6583 C   0  0  0  0  0  0  0  0  0  0  0  0
   -1.2451   -0.2296    0.8806 N   0  0  0  0  0  4  0  0  0  0  0  0
   -1.1266   -1.5229    1.6763 C   0  0  0  0  0  0  0  0  0  0  0  0
   -1.9023   -0.5066   -0.4664 C   0  0  0  0  0  0  0  0  0  0  0  0
   -2.0524    0.8459    1.6717 C   0  0  0  0  0  0  0  0  0  0  0  0
   -3.3548    0.4007    2.3625 C   0  0  0  0  0  0  0  0  0  0  0  0
   -4.5346    0.0895    1.4781 C   0  0  0  0  0  0  0  0  0  0  0  0
   -5.6393    0.8377    1.2463 C   0  0  0  0  0  0  0  0  0  0  0  0
   -6.7830    0.1724    0.5612 C   0  0  0  0  0  0  0  0  0  0  0  0
   -6.6292   -0.5205   -0.6495 C   0  0  0  0  0  0  0  0  0  0  0  0
   -7.7286   -1.1273   -1.2598 C   0  0  0  0  0  0  0  0  0  0  0  0
   -8.9889   -1.0434   -0.6715 C   0  0  0  0  0  0  0  0  0  0  0  0
   -9.1585   -0.3415    0.5227 C   0  0  0  0  0  0  0  0  0  0  0  0
   -8.0652    0.2781    1.1385 C   0  0  0  0  0  0  0  0  0  0  0  0
   -8.3422    1.1869    2.6614 S   0  0  0  0  0  0  0  0  0  0  0  0
   -7.0506    2.4248    2.5480 C   0  0  0  0  0  0  0  0  0  0  0  0
   -7.2684    3.6722    3.1475 C   0  0  0  0  0  0  0  0  0  0  0  0
   -6.3149    4.6854    3.0316 C   0  0  0  0  0  0  0  0  0  0  0  0
   -5.1549    4.4569    2.2983 C   0  0  0  0  0  0  0  0  0  0  0  0
   -3.9852    5.7059    2.1248 Cl  0  0  0  0  0  0  0  0  0  0  0  0
   -4.9239    3.2182    1.6999 C   0  0  0  0  0  0  0  0  0  0  0  0
   -5.8479    2.1772    1.8549 C   0  0  0  0  0  0  0  0  0  0  0  0
   11.2940   -0.4057   -1.2128 H   0  0  0  0  0  0  0  0  0  0  0  0
   11.3418   -1.4903   -2.6127 H   0  0  0  0  0  0  0  0  0  0  0  0
   10.5286    0.0826   -2.7349 H   0  0  0  0  0  0  0  0  0  0  0  0
    8.8515   -0.6611   -1.0397 H   0  0  0  0  0  0  0  0  0  0  0  0
    9.6472   -2.2340   -0.9303 H   0  0  0  0  0  0  0  0  0  0  0  0
    9.2130   -2.5883   -3.3961 H   0  0  0  0  0  0  0  0  0  0  0  0
    8.3334   -1.0724   -3.4498 H   0  0  0  0  0  0  0  0  0  0  0  0
    6.8176   -3.0083   -3.2867 H   0  0  0  0  0  0  0  0  0  0  0  0
    7.6264   -3.5756   -1.8362 H   0  0  0  0  0  0  0  0  0  0  0  0
    6.7954   -1.6402   -0.5464 H   0  0  0  0  0  0  0  0  0  0  0  0
    5.5028   -2.5689   -1.2824 H   0  0  0  0  0  0  0  0  0  0  0  0
    6.6344    0.0538   -2.3911 H   0  0  0  0  0  0  0  0  0  0  0  0
    5.3394   -0.8759   -3.1395 H   0  0  0  0  0  0  0  0  0  0  0  0
    5.2439    0.3535   -0.3291 H   0  0  0  0  0  0  0  0  0  0  0  0
    4.6038    1.1099   -1.7841 H   0  0  0  0  0  0  0  0  0  0  0  0
    3.0406   -0.8324   -2.1058 H   0  0  0  0  0  0  0  0  0  0  0  0
    3.6267   -1.5412   -0.5989 H   0  0  0  0  0  0  0  0  0  0  0  0
    2.8951    0.4834    0.6602 H   0  0  0  0  0  0  0  0  0  0  0  0
    2.3137    1.2131   -0.8392 H   0  0  0  0  0  0  0  0  0  0  0  0
    0.7236   -0.6681   -1.1559 H   0  0  0  0  0  0  0  0  0  0  0  0
    1.3067   -1.4248    0.3316 H   0  0  0  0  0  0  0  0  0  0  0  0
   -0.0002    1.3610    0.1606 H   0  0  0  0  0  0  0  0  0  0  0  0
    0.5839    0.5858    1.6540 H   0  0  0  0  0  0  0  0  0  0  0  0
   -2.1222   -1.9570    1.7961 H   0  0  0  0  0  0  0  0  0  0  0  0
   -0.6784   -1.2926    2.6464 H   0  0  0  0  0  0  0  0  0  0  0  0
   -0.5080   -2.2304    1.1203 H   0  0  0  0  0  0  0  0  0  0  0  0
   -1.3195   -1.2629   -0.9976 H   0  0  0  0  0  0  0  0  0  0  0  0
   -1.9402    0.4259   -1.0357 H   0  0  0  0  0  0  0  0  0  0  0  0
   -2.9026   -0.9038   -0.3062 H   0  0  0  0  0  0  0  0  0  0  0  0
   -1.3768    1.2075    2.4568 H   0  0  0  0  0  0  0  0  0  0  0  0
   -2.2301    1.6728    0.9760 H   0  0  0  0  0  0  0  0  0  0  0  0
   -3.6305    1.1922    3.0700 H   0  0  0  0  0  0  0  0  0  0  0  0
   -3.1712   -0.4655    3.0082 H   0  0  0  0  0  0  0  0  0  0  0  0
   -4.5382   -0.9373    1.1107 H   0  0  0  0  0  0  0  0  0  0  0  0
   -5.6602   -0.5838   -1.1354 H   0  0  0  0  0  0  0  0  0  0  0  0
   -7.6074   -1.6623   -2.1992 H   0  0  0  0  0  0  0  0  0  0  0  0
   -9.8458   -1.5153   -1.1476 H   0  0  0  0  0  0  0  0  0  0  0  0
  -10.1517   -0.2750    0.9624 H   0  0  0  0  0  0  0  0  0  0  0  0
   -8.1878    3.8685    3.6963 H   0  0  0  0  0  0  0  0  0  0  0  0
   -6.4962    5.6515    3.4967 H   0  0  0  0  0  0  0  0  0  0  0  0
   -4.0344    3.0819    1.0965 H   0  0  0  0  0  0  0  0  0  0  0  0
  1  2  1  0
  2  3  1  0
  3  4  1  0
  4  5  1  0
  5  6  1  0
  6  7  1  0
  7  8  1  0
  8  9  1  0
  9 10  1  0
 10 11  1  0
 11 12  1  0
 12 13  1  0
 12 14  1  0
 12 15  1  0
 15 16  1  0
 16 17  1  0
 17 18  2  3
 18 19  1  0
 19 20  2  0
 20 21  1  0
 21 22  2  0
 22 23  1  0
 23 24  2  0
 24 25  1  0
 25 26  1  0
 26 27  2  0
 27 28  1  0
 28 29  2  0
 29 30  1  0
 29 31  1  0
 31 32  2  0
 32 18  1  0
 24 19  1  0
 32 26  1  0
  1 33  1  0
  1 34  1  0
  1 35  1  0
  2 36  1  0
  2 37  1  0
  3 38  1  0
  3 39  1  0
  4 40  1  0
  4 41  1  0
  5 42  1  0
  5 43  1  0
  6 44  1  0
  6 45  1  0
  7 46  1  0
  7 47  1  0
  8 48  1  0
  8 49  1  0
  9 50  1  0
  9 51  1  0
 10 52  1  0
 10 53  1  0
 11 54  1  0
 11 55  1  0
 13 56  1  0
 13 57  1  0
 13 58  1  0
 14 59  1  0
 14 60  1  0
 14 61  1  0
 15 62  1  0
 15 63  1  0
 16 64  1  0
 16 65  1  0
 17 66  1  0
 20 67  1  0
 21 68  1  0
 22 69  1  0
 23 70  1  0
 27 71  1  0
 28 72  1  0
 31 73  1  0
M  CHG  1  12   1
M  END
$$$$
