
     RDKit          3D

 53 56  0  0  0  0  0  0  0  0999 V2000
    7.4461    2.3916    0.9835 C   0  0  0  0  0  0  0  0  0  0  0  0
    7.1754    2.0417   -0.4731 C   0  0  0  0  0  0  0  0  0  0  0  0
    6.0429    1.0284   -0.6272 C   0  0  0  0  0  0  0  0  0  0  0  0
    4.8326    1.6134   -0.1482 O   0  0  0  0  0  0  0  0  0  0  0  0
    3.7062    0.8412   -0.1948 C   0  0  0  0  0  0  0  0  0  0  0  0
    3.6173   -0.4553   -0.6933 C   0  0  0  0  0  0  0  0  0  0  0  0
    2.3892   -1.1334   -0.6795 C   0  0  0  0  0  0  0  0  0  0  0  0
    1.2177   -0.5409   -0.1705 C   0  0  0  0  0  0  0  0  0  0  0  0
   -0.0732   -1.2613   -0.1597 C   0  0  0  0  0  0  0  0  0  0  0  0
   -1.1409   -0.6205    0.3436 N   0  0  0  0  0  0  0  0  0  0  0  0
   -2.3166   -1.2753    0.3486 C   0  0  0  0  0  0  0  0  0  0  0  0
   -3.4670   -0.5930    0.8269 N   0  0  0  0  0  0  0  0  0  0  0  0
   -4.1521    0.0601   -0.3195 C   0  0  0  0  0  0  0  0  0  0  0  0
   -5.0178    1.2519    0.1482 C   0  0  0  0  0  0  0  0  0  0  0  0
   -4.2728    2.3252    0.8429 N   0  0  0  0  0  0  0  0  0  0  0  0
   -3.9602    3.4374   -0.0509 C   0  0  0  0  0  0  0  0  0  0  0  0
   -3.0326    1.8003    1.4648 C   0  0  0  0  0  0  0  0  0  0  0  0
   -3.1643    0.3382    1.9428 C   0  0  0  0  0  0  0  0  0  0  0  0
   -2.4400   -2.5895   -0.1377 C   0  0  0  0  0  0  0  0  0  0  0  0
   -3.6354   -3.3524   -0.1296 C   0  0  0  0  0  0  0  0  0  0  0  0
   -3.6615   -4.6493   -0.6360 C   0  0  0  0  0  0  0  0  0  0  0  0
   -2.4962   -5.2002   -1.1499 C   0  0  0  0  0  0  0  0  0  0  0  0
   -1.3155   -4.4518   -1.1459 C   0  0  0  0  0  0  0  0  0  0  0  0
   -1.2657   -3.1564   -0.6436 C   0  0  0  0  0  0  0  0  0  0  0  0
   -0.0987   -2.5072   -0.6626 N   0  0  0  0  0  0  0  0  0  0  0  0
    1.3353    0.7696    0.3263 C   0  0  0  0  0  0  0  0  0  0  0  0
    2.5594    1.4490    0.3137 C   0  0  0  0  0  0  0  0  0  0  0  0
    7.7087    1.4977    1.5582 H   0  0  0  0  0  0  0  0  0  0  0  0
    8.2803    3.0969    1.0530 H   0  0  0  0  0  0  0  0  0  0  0  0
    6.5726    2.8568    1.4508 H   0  0  0  0  0  0  0  0  0  0  0  0
    8.0886    1.6360   -0.9224 H   0  0  0  0  0  0  0  0  0  0  0  0
    6.9194    2.9627   -1.0096 H   0  0  0  0  0  0  0  0  0  0  0  0
    6.2822    0.1230   -0.0563 H   0  0  0  0  0  0  0  0  0  0  0  0
    5.9398    0.7795   -1.6902 H   0  0  0  0  0  0  0  0  0  0  0  0
    4.4779   -0.9738   -1.1019 H   0  0  0  0  0  0  0  0  0  0  0  0
    2.3540   -2.1473   -1.0768 H   0  0  0  0  0  0  0  0  0  0  0  0
   -3.4329    0.4244   -1.0669 H   0  0  0  0  0  0  0  0  0  0  0  0
   -4.8008   -0.6713   -0.8156 H   0  0  0  0  0  0  0  0  0  0  0  0
   -5.7691    0.8731    0.8536 H   0  0  0  0  0  0  0  0  0  0  0  0
   -5.5862    1.6506   -0.7012 H   0  0  0  0  0  0  0  0  0  0  0  0
   -3.3487    3.1243   -0.9047 H   0  0  0  0  0  0  0  0  0  0  0  0
   -4.8808    3.8908   -0.4345 H   0  0  0  0  0  0  0  0  0  0  0  0
   -3.4239    4.2257    0.4890 H   0  0  0  0  0  0  0  0  0  0  0  0
   -2.1930    1.8631    0.7606 H   0  0  0  0  0  0  0  0  0  0  0  0
   -2.7815    2.4354    2.3222 H   0  0  0  0  0  0  0  0  0  0  0  0
   -2.2717    0.0363    2.5059 H   0  0  0  0  0  0  0  0  0  0  0  0
   -3.9944    0.2732    2.6585 H   0  0  0  0  0  0  0  0  0  0  0  0
   -4.5456   -2.9278    0.2892 H   0  0  0  0  0  0  0  0  0  0  0  0
   -4.5837   -5.2242   -0.6226 H   0  0  0  0  0  0  0  0  0  0  0  0
   -2.4965   -6.2117   -1.5477 H   0  0  0  0  0  0  0  0  0  0  0  0
   -0.4052   -4.8958   -1.5433 H   0  0  0  0  0  0  0  0  0  0  0  0
    0.4640    1.2794    0.7331 H   0  0  0  0  0  0  0  0  0  0  0  0
    2.6151    2.4616    0.7060 H   0  0  0  0  0  0  0  0  0  0  0  0
  1  2  1  0
  2  3  1  0
  3  4  1  0
  4  5  1  0
  5  6  2  0
  6  7  1  0
  7  8  2  0
  8  9  1  0
  9 10  2  0
 10 11  1  0
 11 12  1  0
 12 13  1  0
 13 14  1  0
 14 15  1  0
 15 16  1  0
 15 17  1  0
 17 18  1  0
 11 19  2  0
 19 20  1  0
 20 21  2  0
 21 22  1  0
 22 23  2  0
 23 24  1  0
 24 25  2  0
  8 26  1  0
 26 27  2  0
 27  5  1  0
 25  9  1  0
 18 12  1  0
 24 19  1  0
  1 28  1  0
  1 29  1  0
  1 30  1  0
  2 31  1  0
  2 32  1  0
  3 33  1  0
  3 34  1  0
  6 35  1  0
  7 36  1  0
 13 37  1  0
 13 38  1  0
 14 39  1  0
 14 40  1  0
 16 41  1  0
 16 42  1  0
 16 43  1  0
 17 44  1  0
 17 45  1  0
 18 46  1  0
 18 47  1  0
 20 48  1  0
 21 49  1  0
 22 50  1  0
 23 51  1  0
 26 52  1  0
 27 53  1  0
M  END
$$$$
