
     RDKit          3D

 44 46  0  0  0  0  0  0  0  0999 V2000
    8.4930    0.2823    0.2311 C   0  0  0  0  0  0  0  0  0  0  0  0
    7.4002    1.1851    0.1144 O   0  0  0  0  0  0  0  0  0  0  0  0
    6.1445    0.6457    0.1113 C   0  0  0  0  0  0  0  0  0  0  0  0
    5.8329   -0.7102    0.2041 C   0  0  0  0  0  0  0  0  0  0  0  0
    4.4967   -1.1360    0.1906 C   0  0  0  0  0  0  0  0  0  0  0  0
    3.4565   -0.2089    0.0830 C   0  0  0  0  0  0  0  0  0  0  0  0
    2.1253   -0.5274    0.0616 O   0  0  0  0  0  0  0  0  0  0  0  0
    1.7617   -1.9023    0.1575 C   0  0  0  0  0  0  0  0  0  0  0  0
    0.2829   -1.9585    0.1040 C   0  0  0  0  0  0  0  0  0  0  0  0
   -0.7055   -1.1053   -0.3223 C   0  0  0  0  0  0  0  0  0  0  0  0
   -1.9187   -1.8043   -0.0820 C   0  0  0  0  0  0  0  0  0  0  0  0
   -3.2926   -1.3717   -0.3664 C   0  0  0  0  0  0  0  0  0  0  0  0
   -4.1109   -2.1395   -0.8738 O   0  0  0  0  0  0  0  0  0  0  0  0
   -3.6311   -0.0305   -0.0956 N   0  0  0  0  0  0  0  0  0  0  0  0
   -2.9779    0.7425    0.9580 C   0  0  0  0  0  0  0  0  0  0  0  0
   -4.9275    0.4320   -0.6029 C   0  0  0  0  0  0  0  0  0  0  0  0
   -5.1104    1.9326   -0.7398 C   0  0  0  0  0  0  0  0  0  0  0  0
   -6.6165    2.0448   -0.8107 C   0  0  0  0  0  0  0  0  0  0  0  0
   -7.1294    1.0597    0.0945 O   0  0  0  0  0  0  0  0  0  0  0  0
   -6.1311    0.0339    0.2554 C   0  0  0  0  0  0  0  0  0  0  0  0
   -1.6617   -3.0206    0.4292 N   0  0  0  0  0  0  0  0  0  0  0  0
   -0.2891   -3.1061    0.5534 O   0  0  0  0  0  0  0  0  0  0  0  0
    3.7789    1.1537   -0.0116 C   0  0  0  0  0  0  0  0  0  0  0  0
    2.5450    2.3597   -0.1496 Cl  0  0  0  0  0  0  0  0  0  0  0  0
    5.1105    1.5756    0.0034 C   0  0  0  0  0  0  0  0  0  0  0  0
    8.5290   -0.4055   -0.6201 H   0  0  0  0  0  0  0  0  0  0  0  0
    8.4539   -0.2641    1.1792 H   0  0  0  0  0  0  0  0  0  0  0  0
    9.4154    0.8710    0.2233 H   0  0  0  0  0  0  0  0  0  0  0  0
    6.6066   -1.4674    0.2883 H   0  0  0  0  0  0  0  0  0  0  0  0
    4.3114   -2.2029    0.2666 H   0  0  0  0  0  0  0  0  0  0  0  0
    2.1111   -2.3214    1.1081 H   0  0  0  0  0  0  0  0  0  0  0  0
    2.1730   -2.4682   -0.6860 H   0  0  0  0  0  0  0  0  0  0  0  0
   -0.5735   -0.1216   -0.7487 H   0  0  0  0  0  0  0  0  0  0  0  0
   -2.2126    0.1725    1.4870 H   0  0  0  0  0  0  0  0  0  0  0  0
   -2.5255    1.6317    0.5106 H   0  0  0  0  0  0  0  0  0  0  0  0
   -3.7234    1.0411    1.7011 H   0  0  0  0  0  0  0  0  0  0  0  0
   -5.0684   -0.0086   -1.6002 H   0  0  0  0  0  0  0  0  0  0  0  0
   -4.6079    2.3531   -1.6153 H   0  0  0  0  0  0  0  0  0  0  0  0
   -4.7560    2.4713    0.1452 H   0  0  0  0  0  0  0  0  0  0  0  0
   -6.9886    1.8120   -1.8145 H   0  0  0  0  0  0  0  0  0  0  0  0
   -6.9801    3.0347   -0.5224 H   0  0  0  0  0  0  0  0  0  0  0  0
   -5.8856   -0.0245    1.3206 H   0  0  0  0  0  0  0  0  0  0  0  0
   -6.5539   -0.9284   -0.0494 H   0  0  0  0  0  0  0  0  0  0  0  0
    5.3495    2.6337   -0.0700 H   0  0  0  0  0  0  0  0  0  0  0  0
  1  2  1  0
  2  3  1  0
  3  4  2  0
  4  5  1  0
  5  6  2  0
  6  7  1  0
  7  8  1  0
  8  9  1  0
  9 10  2  0
 10 11  1  0
 11 12  1  0
 12 13  2  0
 12 14  1  0
 14 15  1  0
 14 16  1  0
 16 17  1  0
 17 18  1  0
 18 19  1  0
 19 20  1  0
 11 21  2  0
 21 22  1  0
  6 23  1  0
 23 24  1  0
 23 25  2  0
 25  3  1  0
 22  9  1  0
 20 16  1  0
  1 26  1  0
  1 27  1  0
  1 28  1  0
  4 29  1  0
  5 30  1  0
  8 31  1  0
  8 32  1  0
 10 33  1  0
 15 34  1  0
 15 35  1  0
 15 36  1  0
 16 37  1  0
 17 38  1  0
 17 39  1  0
 18 40  1  0
 18 41  1  0
 20 42  1  0
 20 43  1  0
 25 44  1  0
M  END
$$$$
