
     RDKit          3D

 40 42  0  0  0  0  0  0  0  0999 V2000
    4.3659   -3.1378   -1.7356 C   0  0  0  0  0  0  0  0  0  0  0  0
    3.8960   -1.8243   -1.1909 C   0  0  0  0  0  0  0  0  0  0  0  0
    4.4285   -0.7485   -1.4171 O   0  0  0  0  0  0  0  0  0  0  0  0
    2.7828   -2.0037   -0.4297 O   0  0  0  0  0  0  0  0  0  0  0  0
    2.2680   -0.8181    0.2073 C   0  0  0  0  0  0  0  0  0  0  0  0
    1.5888    0.1227   -0.7956 C   0  0  0  0  0  0  0  0  0  0  0  0
    0.5011    0.8847   -0.1675 N   0  0  0  0  0  0  0  0  0  0  0  0
    0.7738    2.0807    0.4854 C   0  0  0  0  0  0  0  0  0  0  0  0
    1.9731    2.5526    0.6413 N   0  0  0  0  0  0  0  0  0  0  0  0
    2.1963    3.7335    1.2934 C   0  0  0  0  0  0  0  0  0  0  0  0
    3.2779    4.0054    1.8029 O   0  0  0  0  0  0  0  0  0  0  0  0
    1.1807    4.6380    1.3977 N   0  0  0  0  0  0  0  0  0  0  0  0
   -0.0959    4.2245    1.6229 C   0  0  0  0  0  0  0  0  0  0  0  0
   -0.9082    4.8542    2.2792 O   0  0  0  0  0  0  0  0  0  0  0  0
   -0.3886    2.8659    1.0450 C   0  0  0  0  0  0  0  0  0  0  0  0
   -1.6038    2.4103    1.0315 N   0  0  0  0  0  0  0  0  0  0  0  0
   -1.8322    1.1359    0.4794 C   0  0  0  0  0  0  0  0  0  0  0  0
   -3.1427    0.6488    0.5445 C   0  0  0  0  0  0  0  0  0  0  0  0
   -3.4846   -0.6095    0.0344 C   0  0  0  0  0  0  0  0  0  0  0  0
   -4.9083   -1.0834    0.1336 C   0  0  0  0  0  0  0  0  0  0  0  0
   -2.4813   -1.3985   -0.5498 C   0  0  0  0  0  0  0  0  0  0  0  0
   -2.7872   -2.7637   -1.1064 C   0  0  0  0  0  0  0  0  0  0  0  0
   -1.1631   -0.9053   -0.6172 C   0  0  0  0  0  0  0  0  0  0  0  0
   -0.8101    0.3608   -0.1172 C   0  0  0  0  0  0  0  0  0  0  0  0
    3.6060   -3.5560   -2.4002 H   0  0  0  0  0  0  0  0  0  0  0  0
    5.2863   -2.9848   -2.3064 H   0  0  0  0  0  0  0  0  0  0  0  0
    4.5793   -3.8255   -0.9133 H   0  0  0  0  0  0  0  0  0  0  0  0
    3.0674   -0.3079    0.7587 H   0  0  0  0  0  0  0  0  0  0  0  0
    1.5512   -1.1710    0.9570 H   0  0  0  0  0  0  0  0  0  0  0  0
    2.3375    0.8146   -1.2024 H   0  0  0  0  0  0  0  0  0  0  0  0
    1.2415   -0.4214   -1.6816 H   0  0  0  0  0  0  0  0  0  0  0  0
    1.4391    5.4577    1.9279 H   0  0  0  0  0  0  0  0  0  0  0  0
   -3.9025    1.2760    1.0080 H   0  0  0  0  0  0  0  0  0  0  0  0
   -5.5527   -0.3281    0.5960 H   0  0  0  0  0  0  0  0  0  0  0  0
   -4.9656   -1.9875    0.7479 H   0  0  0  0  0  0  0  0  0  0  0  0
   -5.3107   -1.2919   -0.8627 H   0  0  0  0  0  0  0  0  0  0  0  0
   -1.8904   -3.2453   -1.5102 H   0  0  0  0  0  0  0  0  0  0  0  0
   -3.1836   -3.4146   -0.3207 H   0  0  0  0  0  0  0  0  0  0  0  0
   -3.5148   -2.6874   -1.9205 H   0  0  0  0  0  0  0  0  0  0  0  0
   -0.4147   -1.5522   -1.0655 H   0  0  0  0  0  0  0  0  0  0  0  0
  1  2  1  0
  2  3  2  0
  2  4  1  0
  4  5  1  0
  5  6  1  0
  6  7  1  0
  7  8  1  0
  8  9  2  0
  9 10  1  0
 10 11  2  0
 10 12  1  0
 12 13  1  0
 13 14  2  0
 13 15  1  0
 15 16  2  0
 16 17  1  0
 17 18  2  0
 18 19  1  0
 19 20  1  0
 19 21  2  0
 21 22  1  0
 21 23  1  0
 23 24  2  0
 24  7  1  0
 15  8  1  0
 24 17  1  0
  1 25  1  0
  1 26  1  0
  1 27  1  0
  5 28  1  0
  5 29  1  0
  6 30  1  0
  6 31  1  0
 12 32  1  0
 18 33  1  0
 20 34  1  0
 20 35  1  0
 20 36  1  0
 22 37  1  0
 22 38  1  0
 22 39  1  0
 23 40  1  0
M  END
$$$$
