
     RDKit          3D

 38 40  0  0  0  0  0  0  0  0999 V2000
   -2.1307    0.1778   -4.5305 C   0  0  0  0  0  0  0  0  0  0  0  0
   -1.4663   -0.6878   -3.4926 C   0  0  0  0  0  0  0  0  0  0  0  0
   -0.6481   -1.5530   -3.7987 O   0  0  0  0  0  0  0  0  0  0  0  0
   -1.7493   -0.4667   -2.0661 C   0  0  0  0  0  0  0  0  0  0  0  0
   -0.7483   -0.4677   -1.0998 C   0  0  0  0  0  0  0  0  0  0  0  0
    0.7106   -0.6735   -1.4712 C   0  0  0  0  0  0  0  0  0  0  0  0
    1.5539   -0.2687   -0.3809 O   0  0  0  0  0  0  0  0  0  0  0  0
    2.8779   -0.3825   -0.6304 C   0  0  0  0  0  0  0  0  0  0  0  0
    3.3741   -0.7603   -1.6792 O   0  0  0  0  0  0  0  0  0  0  0  0
    3.6700    0.0292    0.5600 C   0  0  0  0  0  0  0  0  0  0  0  0
    3.0679    0.4272    1.7621 C   0  0  0  0  0  0  0  0  0  0  0  0
    3.8580    0.8045    2.8506 C   0  0  0  0  0  0  0  0  0  0  0  0
    5.2486    0.7859    2.7453 C   0  0  0  0  0  0  0  0  0  0  0  0
    5.8542    0.3900    1.5534 C   0  0  0  0  0  0  0  0  0  0  0  0
    5.0682    0.0120    0.4630 C   0  0  0  0  0  0  0  0  0  0  0  0
   -1.0365   -0.2934    0.2177 N   0  0  0  0  0  0  0  0  0  0  0  0
   -2.3044   -0.1140    0.6040 C   0  0  0  0  0  0  0  0  0  0  0  0
   -2.5880    0.0664    1.9515 C   0  0  0  0  0  0  0  0  0  0  0  0
   -3.8957    0.2564    2.4091 C   0  0  0  0  0  0  0  0  0  0  0  0
   -4.9514    0.2668    1.5060 C   0  0  0  0  0  0  0  0  0  0  0  0
   -4.6911    0.0874    0.1504 C   0  0  0  0  0  0  0  0  0  0  0  0
   -3.3671   -0.1029   -0.3104 C   0  0  0  0  0  0  0  0  0  0  0  0
   -3.0660   -0.2900   -1.6766 N   0  0  0  0  0  4  0  0  0  0  0  0
   -4.0221   -0.3069   -2.5319 O   0  0  0  0  0  1  0  0  0  0  0  0
   -2.4835    1.1182   -4.0984 H   0  0  0  0  0  0  0  0  0  0  0  0
   -2.9610   -0.3639   -4.9897 H   0  0  0  0  0  0  0  0  0  0  0  0
   -1.3942    0.4317   -5.2990 H   0  0  0  0  0  0  0  0  0  0  0  0
    0.8795   -1.7358   -1.6801 H   0  0  0  0  0  0  0  0  0  0  0  0
    0.9574   -0.0567   -2.3429 H   0  0  0  0  0  0  0  0  0  0  0  0
    1.9853    0.4463    1.8659 H   0  0  0  0  0  0  0  0  0  0  0  0
    3.3881    1.1121    3.7816 H   0  0  0  0  0  0  0  0  0  0  0  0
    5.8617    1.0794    3.5941 H   0  0  0  0  0  0  0  0  0  0  0  0
    6.9383    0.3743    1.4722 H   0  0  0  0  0  0  0  0  0  0  0  0
    5.5506   -0.2965   -0.4628 H   0  0  0  0  0  0  0  0  0  0  0  0
   -1.7694    0.0575    2.6686 H   0  0  0  0  0  0  0  0  0  0  0  0
   -4.0841    0.3936    3.4716 H   0  0  0  0  0  0  0  0  0  0  0  0
   -5.9718    0.4116    1.8531 H   0  0  0  0  0  0  0  0  0  0  0  0
   -5.5153    0.0919   -0.5622 H   0  0  0  0  0  0  0  0  0  0  0  0
  1  2  1  0
  2  3  2  0
  2  4  1  0
  4  5  2  0
  5  6  1  0
  6  7  1  0
  7  8  1  0
  8  9  2  0
  8 10  1  0
 10 11  2  0
 11 12  1  0
 12 13  2  0
 13 14  1  0
 14 15  2  0
  5 16  1  0
 16 17  2  0
 17 18  1  0
 18 19  2  0
 19 20  1  0
 20 21  2  0
 21 22  1  0
 22 23  2  0
 23 24  1  0
 23  4  1  0
 15 10  1  0
 22 17  1  0
  1 25  1  0
  1 26  1  0
  1 27  1  0
  6 28  1  0
  6 29  1  0
 11 30  1  0
 12 31  1  0
 13 32  1  0
 14 33  1  0
 15 34  1  0
 18 35  1  0
 19 36  1  0
 20 37  1  0
 21 38  1  0
M  CHG  2  23   1  24  -1
M  END
$$$$
