
     RDKit          3D

 39 41  0  0  0  0  0  0  0  0999 V2000
   -4.3213   -2.4832   -1.8477 C   0  0  0  0  0  0  0  0  0  0  0  0
   -3.5161   -1.5455   -1.1454 O   0  0  0  0  0  0  0  0  0  0  0  0
   -4.1527   -0.6660   -0.3092 C   0  0  0  0  0  0  0  0  0  0  0  0
   -5.5269   -0.6752   -0.0443 C   0  0  0  0  0  0  0  0  0  0  0  0
   -6.0900    0.2649    0.8229 C   0  0  0  0  0  0  0  0  0  0  0  0
   -5.2870    1.2229    1.4324 C   0  0  0  0  0  0  0  0  0  0  0  0
   -3.9174    1.2405    1.1781 C   0  0  0  0  0  0  0  0  0  0  0  0
   -3.3340    0.2958    0.3131 C   0  0  0  0  0  0  0  0  0  0  0  0
   -1.8452    0.3589    0.0536 C   0  0  0  0  0  0  0  0  0  0  0  0
   -1.4568    1.4891   -1.3193 S   0  0  0  0  0  0  0  0  0  0  0  0
    0.2599    1.3782   -1.3290 C   0  0  0  0  0  0  0  0  0  0  0  0
    1.0328    0.7364   -0.4893 N   0  0  0  0  0  0  0  0  0  0  0  0
    2.3197    0.9623   -0.9343 C   0  0  0  0  0  0  0  0  0  0  0  0
    3.4925    0.4097   -0.2710 C   0  0  0  0  0  0  0  0  0  0  0  0
    4.7980    0.6955   -0.7000 C   0  0  0  0  0  0  0  0  0  0  0  0
    5.9055    0.1477   -0.0407 C   0  0  0  0  0  0  0  0  0  0  0  0
    5.7091   -0.6950    1.0601 C   0  0  0  0  0  0  0  0  0  0  0  0
    6.8683   -1.2700    1.7535 N   0  0  0  0  0  4  0  0  0  0  0  0
    7.9966   -0.9660    1.3392 O   0  0  0  0  0  0  0  0  0  0  0  0
    6.6521   -2.0252    2.7122 O   0  0  0  0  0  1  0  0  0  0  0  0
    4.4163   -0.9919    1.5032 C   0  0  0  0  0  0  0  0  0  0  0  0
    3.3183   -0.4381    0.8362 C   0  0  0  0  0  0  0  0  0  0  0  0
    2.3005    1.7587   -2.0624 C   0  0  0  0  0  0  0  0  0  0  0  0
    0.9752    2.0138   -2.2978 N   0  0  0  0  0  0  0  0  0  0  0  0
   -3.6618   -3.0739   -2.4909 H   0  0  0  0  0  0  0  0  0  0  0  0
   -5.0476   -1.9770   -2.4918 H   0  0  0  0  0  0  0  0  0  0  0  0
   -4.8160   -3.1731   -1.1561 H   0  0  0  0  0  0  0  0  0  0  0  0
   -6.1915   -1.4037   -0.4966 H   0  0  0  0  0  0  0  0  0  0  0  0
   -7.1590    0.2483    1.0199 H   0  0  0  0  0  0  0  0  0  0  0  0
   -5.7257    1.9567    2.1034 H   0  0  0  0  0  0  0  0  0  0  0  0
   -3.2994    1.9984    1.6557 H   0  0  0  0  0  0  0  0  0  0  0  0
   -1.3383    0.7057    0.9624 H   0  0  0  0  0  0  0  0  0  0  0  0
   -1.4460   -0.6391   -0.1591 H   0  0  0  0  0  0  0  0  0  0  0  0
    4.9764    1.3490   -1.5503 H   0  0  0  0  0  0  0  0  0  0  0  0
    6.9051    0.3887   -0.3970 H   0  0  0  0  0  0  0  0  0  0  0  0
    4.2422   -1.6442    2.3562 H   0  0  0  0  0  0  0  0  0  0  0  0
    2.3136   -0.6736    1.1867 H   0  0  0  0  0  0  0  0  0  0  0  0
    3.0731    2.1548   -2.7047 H   0  0  0  0  0  0  0  0  0  0  0  0
    0.5776    2.5648   -3.0448 H   0  0  0  0  0  0  0  0  0  0  0  0
  1  2  1  0
  2  3  1  0
  3  4  2  0
  4  5  1  0
  5  6  2  0
  6  7  1  0
  7  8  2  0
  8  9  1  0
  9 10  1  0
 10 11  1  0
 11 12  2  0
 12 13  1  0
 13 14  1  0
 14 15  2  0
 15 16  1  0
 16 17  2  0
 17 18  1  0
 18 19  2  0
 18 20  1  0
 17 21  1  0
 21 22  2  0
 13 23  2  0
 23 24  1  0
  8  3  1  0
 24 11  1  0
 22 14  1  0
  1 25  1  0
  1 26  1  0
  1 27  1  0
  4 28  1  0
  5 29  1  0
  6 30  1  0
  7 31  1  0
  9 32  1  0
  9 33  1  0
 15 34  1  0
 16 35  1  0
 21 36  1  0
 22 37  1  0
 23 38  1  0
 24 39  1  0
M  CHG  2  18   1  20  -1
M  END
$$$$
