
     RDKit          3D

 52 56  0  0  0  0  0  0  0  0999 V2000
    6.9099   -0.6541   -1.0021 C   0  0  0  0  0  0  0  0  0  0  0  0
    6.0621   -1.5918   -0.1601 C   0  0  0  0  0  0  0  0  0  0  0  0
    4.6827   -1.4795   -0.5081 O   0  0  0  0  0  0  0  0  0  0  0  0
    3.9100   -0.5586    0.1381 C   0  0  0  0  0  0  0  0  0  0  0  0
    4.3471    0.4018    1.0432 C   0  0  0  0  0  0  0  0  0  0  0  0
    3.4294    1.2886    1.6229 C   0  0  0  0  0  0  0  0  0  0  0  0
    2.0765    1.2459    1.3197 C   0  0  0  0  0  0  0  0  0  0  0  0
    1.2396    2.1149    1.9044 N   0  0  0  0  0  0  0  0  0  0  0  0
   -0.0698    2.0537    1.5770 C   0  0  0  0  0  0  0  0  0  0  0  0
   -1.0091    3.2109    2.4388 Cl  0  0  0  0  0  0  0  0  0  0  0  0
   -0.6238    1.1531    0.6744 C   0  0  0  0  0  0  0  0  0  0  0  0
   -2.1055    1.1337    0.3628 C   0  0  0  0  0  0  0  0  0  0  0  0
   -2.8385    0.1010    1.2152 C   0  0  0  0  0  0  0  0  0  0  0  0
   -3.1915   -0.9174    0.1644 C   0  0  0  0  0  0  0  0  0  0  0  0
   -3.7800   -2.2310    0.5157 C   0  0  0  0  0  0  0  0  0  0  0  0
   -4.0821   -2.5680    1.8401 C   0  0  0  0  0  0  0  0  0  0  0  0
   -4.6357   -3.8171    2.1343 C   0  0  0  0  0  0  0  0  0  0  0  0
   -4.8901   -4.7299    1.1112 C   0  0  0  0  0  0  0  0  0  0  0  0
   -4.5935   -4.3976   -0.2093 C   0  0  0  0  0  0  0  0  0  0  0  0
   -4.0402   -3.1512   -0.5077 C   0  0  0  0  0  0  0  0  0  0  0  0
   -2.9675   -0.5456   -1.0594 N   0  0  0  0  0  0  0  0  0  0  0  0
   -2.4087    0.7138   -1.0129 N   0  0  0  0  0  0  0  0  0  0  0  0
   -2.1301    1.3945   -2.2052 C   0  0  0  0  0  0  0  0  0  0  0  0
   -2.3139    0.8937   -3.3150 O   0  0  0  0  0  0  0  0  0  0  0  0
   -1.5470    2.7178   -2.0706 C   0  0  0  0  0  0  0  0  0  0  0  0
   -0.2442    3.0970   -2.3261 C   0  0  0  0  0  0  0  0  0  0  0  0
   -0.0332    4.4862   -2.0896 C   0  0  0  0  0  0  0  0  0  0  0  0
   -1.1909    5.1245   -1.7028 C   0  0  0  0  0  0  0  0  0  0  0  0
   -2.5246    4.0540   -1.6396 S   0  0  0  0  0  0  0  0  0  0  0  0
    0.2669    0.2384    0.0940 C   0  0  0  0  0  0  0  0  0  0  0  0
    1.6341    0.2778    0.4011 C   0  0  0  0  0  0  0  0  0  0  0  0
    2.5521   -0.6135   -0.1818 C   0  0  0  0  0  0  0  0  0  0  0  0
    6.6529    0.3932   -0.8170 H   0  0  0  0  0  0  0  0  0  0  0  0
    6.7417   -0.8386   -2.0683 H   0  0  0  0  0  0  0  0  0  0  0  0
    7.9726   -0.7945   -0.7845 H   0  0  0  0  0  0  0  0  0  0  0  0
    6.2365   -1.4632    0.9139 H   0  0  0  0  0  0  0  0  0  0  0  0
    6.3557   -2.6225   -0.3899 H   0  0  0  0  0  0  0  0  0  0  0  0
    5.3907    0.5027    1.3200 H   0  0  0  0  0  0  0  0  0  0  0  0
    3.7847    2.0356    2.3297 H   0  0  0  0  0  0  0  0  0  0  0  0
   -2.5504    2.1202    0.5101 H   0  0  0  0  0  0  0  0  0  0  0  0
   -2.2342   -0.3266    2.0197 H   0  0  0  0  0  0  0  0  0  0  0  0
   -3.7655    0.5165    1.6245 H   0  0  0  0  0  0  0  0  0  0  0  0
   -3.9019   -1.8793    2.6595 H   0  0  0  0  0  0  0  0  0  0  0  0
   -4.8714   -4.0791    3.1632 H   0  0  0  0  0  0  0  0  0  0  0  0
   -5.3222   -5.7006    1.3424 H   0  0  0  0  0  0  0  0  0  0  0  0
   -4.7938   -5.1067   -1.0090 H   0  0  0  0  0  0  0  0  0  0  0  0
   -3.8159   -2.9040   -1.5442 H   0  0  0  0  0  0  0  0  0  0  0  0
    0.5234    2.4051   -2.6536 H   0  0  0  0  0  0  0  0  0  0  0  0
    0.9166    4.9938   -2.2086 H   0  0  0  0  0  0  0  0  0  0  0  0
   -1.3229    6.1723   -1.4691 H   0  0  0  0  0  0  0  0  0  0  0  0
   -0.0986   -0.5090   -0.6105 H   0  0  0  0  0  0  0  0  0  0  0  0
    2.2116   -1.3619   -0.8955 H   0  0  0  0  0  0  0  0  0  0  0  0
  1  2  1  0
  2  3  1  0
  3  4  1  0
  4  5  2  0
  5  6  1  0
  6  7  2  0
  7  8  1  0
  8  9  2  0
  9 10  1  0
  9 11  1  0
 11 12  1  0
 12 13  1  0
 13 14  1  0
 14 15  1  0
 15 16  2  0
 16 17  1  0
 17 18  2  0
 18 19  1  0
 19 20  2  0
 14 21  2  0
 21 22  1  0
 22 23  1  0
 23 24  2  0
 23 25  1  0
 25 26  2  0
 26 27  1  0
 27 28  2  0
 28 29  1  0
 11 30  2  0
 30 31  1  0
 31 32  2  0
 32  4  1  0
 31  7  1  0
 22 12  1  0
 29 25  1  0
 20 15  1  0
  1 33  1  0
  1 34  1  0
  1 35  1  0
  2 36  1  0
  2 37  1  0
  5 38  1  0
  6 39  1  0
 12 40  1  0
 13 41  1  0
 13 42  1  0
 16 43  1  0
 17 44  1  0
 18 45  1  0
 19 46  1  0
 20 47  1  0
 26 48  1  0
 27 49  1  0
 28 50  1  0
 30 51  1  0
 32 52  1  0
M  END
$$$$
