
     RDKit          3D

 56 59  0  0  0  0  0  0  0  0999 V2000
   -3.7204   -0.4604    3.9592 C   0  0  0  0  0  0  0  0  0  0  0  0
   -3.2903   -0.6443    2.5120 C   0  0  0  0  0  0  0  0  0  0  0  0
   -2.1792    0.2409    2.1612 N   0  0  0  0  0  0  0  0  0  0  0  0
   -2.5263    1.4973    1.4809 C   0  0  0  0  0  0  0  0  0  0  0  0
   -2.7450    1.2559   -0.0223 C   0  0  0  0  0  0  0  0  0  0  0  0
   -3.9612    1.0275   -0.4219 N   0  0  0  0  0  0  0  0  0  0  0  0
   -4.1962    0.7797   -1.7580 C   0  0  0  0  0  0  0  0  0  0  0  0
   -5.3293    0.6011   -2.2025 O   0  0  0  0  0  0  0  0  0  0  0  0
   -3.0494    0.7163   -2.7060 C   0  0  0  0  0  0  0  0  0  0  0  0
   -3.2321    0.4075   -4.0591 C   0  0  0  0  0  0  0  0  0  0  0  0
   -2.1223    0.3469   -4.9045 C   0  0  0  0  0  0  0  0  0  0  0  0
   -0.8467    0.6016   -4.3934 C   0  0  0  0  0  0  0  0  0  0  0  0
    0.5222    0.5263   -5.4366 Cl  0  0  0  0  0  0  0  0  0  0  0  0
   -0.6658    0.9170   -3.0449 C   0  0  0  0  0  0  0  0  0  0  0  0
   -1.7725    0.9749   -2.1930 C   0  0  0  0  0  0  0  0  0  0  0  0
   -1.6412    1.2844   -0.8403 N   0  0  0  0  0  0  0  0  0  0  0  0
   -0.8941   -0.1890    2.4765 C   0  0  0  0  0  0  0  0  0  0  0  0
   -0.6313   -1.2474    3.0410 O   0  0  0  0  0  0  0  0  0  0  0  0
    0.2471    0.6527    2.0878 C   0  0  0  0  0  0  0  0  0  0  0  0
    0.5815    1.7835    2.8375 C   0  0  0  0  0  0  0  0  0  0  0  0
    1.6501    2.5830    2.4288 C   0  0  0  0  0  0  0  0  0  0  0  0
    2.3829    2.2391    1.2895 C   0  0  0  0  0  0  0  0  0  0  0  0
    2.0666    1.0778    0.5849 C   0  0  0  0  0  0  0  0  0  0  0  0
    2.7577    0.7760   -0.5554 O   0  0  0  0  0  0  0  0  0  0  0  0
    3.8810   -0.0775   -0.2662 C   0  0  0  0  0  0  0  0  0  0  0  0
    3.5509   -1.5174   -0.4365 C   0  0  0  0  0  0  0  0  0  0  0  0
    3.2800   -2.2192   -1.6427 C   0  0  0  0  0  0  0  0  0  0  0  0
    3.2432   -1.6896   -3.0317 C   0  0  0  0  0  0  0  0  0  0  0  0
    3.0154   -3.5107   -1.4099 N   0  0  0  0  0  0  0  0  0  0  0  0
    3.1025   -3.6753   -0.0407 O   0  0  0  0  0  0  0  0  0  0  0  0
    3.4172   -2.4864    0.5385 C   0  0  0  0  0  0  0  0  0  0  0  0
    3.5346   -2.4866    2.0080 C   0  0  0  0  0  0  0  0  0  0  0  0
    0.9994    0.2762    0.9726 C   0  0  0  0  0  0  0  0  0  0  0  0
   -2.9059   -0.7112    4.6475 H   0  0  0  0  0  0  0  0  0  0  0  0
   -4.5703   -1.1109    4.1872 H   0  0  0  0  0  0  0  0  0  0  0  0
   -4.0151    0.5759    4.1549 H   0  0  0  0  0  0  0  0  0  0  0  0
   -4.1365   -0.4551    1.8442 H   0  0  0  0  0  0  0  0  0  0  0  0
   -2.9832   -1.6852    2.3546 H   0  0  0  0  0  0  0  0  0  0  0  0
   -3.4413    1.9005    1.9311 H   0  0  0  0  0  0  0  0  0  0  0  0
   -1.7411    2.2461    1.6015 H   0  0  0  0  0  0  0  0  0  0  0  0
   -4.2308    0.2079   -4.4471 H   0  0  0  0  0  0  0  0  0  0  0  0
   -2.2576    0.1017   -5.9533 H   0  0  0  0  0  0  0  0  0  0  0  0
    0.3350    1.1095   -2.6634 H   0  0  0  0  0  0  0  0  0  0  0  0
   -0.7155    1.4611   -0.4697 H   0  0  0  0  0  0  0  0  0  0  0  0
    0.0095    2.0444    3.7253 H   0  0  0  0  0  0  0  0  0  0  0  0
    1.9091    3.4771    2.9924 H   0  0  0  0  0  0  0  0  0  0  0  0
    3.2018    2.8728    0.9606 H   0  0  0  0  0  0  0  0  0  0  0  0
    4.2998    0.1228    0.7303 H   0  0  0  0  0  0  0  0  0  0  0  0
    4.6668    0.1979   -0.9790 H   0  0  0  0  0  0  0  0  0  0  0  0
    4.0715   -0.9797   -3.2035 H   0  0  0  0  0  0  0  0  0  0  0  0
    2.2916   -1.1683   -3.2157 H   0  0  0  0  0  0  0  0  0  0  0  0
    3.3361   -2.4958   -3.7679 H   0  0  0  0  0  0  0  0  0  0  0  0
    2.8429   -1.7621    2.4490 H   0  0  0  0  0  0  0  0  0  0  0  0
    4.5507   -2.2150    2.3078 H   0  0  0  0  0  0  0  0  0  0  0  0
    3.3085   -3.4708    2.4296 H   0  0  0  0  0  0  0  0  0  0  0  0
    0.7449   -0.6253    0.4183 H   0  0  0  0  0  0  0  0  0  0  0  0
  1  2  1  0
  2  3  1  0
  3  4  1  0
  4  5  1  0
  5  6  2  0
  6  7  1  0
  7  8  2  0
  7  9  1  0
  9 10  2  0
 10 11  1  0
 11 12  2  0
 12 13  1  0
 12 14  1  0
 14 15  2  0
 15 16  1  0
  3 17  1  0
 17 18  2  0
 17 19  1  0
 19 20  2  0
 20 21  1  0
 21 22  2  0
 22 23  1  0
 23 24  1  0
 24 25  1  0
 25 26  1  0
 26 27  1  0
 27 28  1  0
 27 29  2  0
 29 30  1  0
 30 31  1  0
 31 32  1  0
 23 33  2  0
 16  5  1  0
 33 19  1  0
 15  9  1  0
 31 26  2  0
  1 34  1  0
  1 35  1  0
  1 36  1  0
  2 37  1  0
  2 38  1  0
  4 39  1  0
  4 40  1  0
 10 41  1  0
 11 42  1  0
 14 43  1  0
 16 44  1  0
 20 45  1  0
 21 46  1  0
 22 47  1  0
 25 48  1  0
 25 49  1  0
 28 50  1  0
 28 51  1  0
 28 52  1  0
 32 53  1  0
 32 54  1  0
 32 55  1  0
 33 56  1  0
M  END
$$$$
