
     RDKit          3D

 57 60  0  0  0  0  0  0  0  0999 V2000
    8.2624   -4.5870    0.2628 C   0  0  0  0  0  0  0  0  0  0  0  0
    7.8717   -4.1203   -1.0218 O   0  0  0  0  0  0  0  0  0  0  0  0
    6.9251   -3.1336   -1.0619 C   0  0  0  0  0  0  0  0  0  0  0  0
    6.3588   -2.4920    0.0398 C   0  0  0  0  0  0  0  0  0  0  0  0
    5.4029   -1.4857   -0.1446 C   0  0  0  0  0  0  0  0  0  0  0  0
    4.9967   -1.1133   -1.4338 C   0  0  0  0  0  0  0  0  0  0  0  0
    3.9758   -0.0196   -1.6346 C   0  0  0  0  0  0  0  0  0  0  0  0
    2.5790   -0.3504   -1.1648 C   0  0  0  0  0  0  0  0  0  0  0  0
    1.8227    0.4746   -0.6583 O   0  0  0  0  0  0  0  0  0  0  0  0
    2.2211   -1.6301   -1.4408 O   0  0  0  0  0  0  0  0  0  0  0  0
    0.9156   -2.0129   -1.0038 C   0  0  0  0  0  0  0  0  0  0  0  0
   -0.2201   -1.4327   -1.8497 C   0  0  0  0  0  0  0  0  0  0  0  0
   -0.6554   -2.0074   -2.8460 O   0  0  0  0  0  0  0  0  0  0  0  0
   -0.6472   -0.1882   -1.4504 N   0  0  0  0  0  0  0  0  0  0  0  0
   -1.7933   -0.1334   -0.6972 C   0  0  0  0  0  0  0  0  0  0  0  0
   -2.4904   -1.0973   -0.4165 O   0  0  0  0  0  0  0  0  0  0  0  0
   -2.0270    1.1564   -0.2656 N   0  0  0  0  0  0  0  0  0  0  0  0
   -3.2029    1.5654    0.5137 C   0  0  0  0  0  0  0  0  0  0  0  0
   -3.0574    3.0762    0.8459 C   0  0  0  0  0  0  0  0  0  0  0  0
   -4.2609    3.5819    1.6564 C   0  0  0  0  0  0  0  0  0  0  0  0
   -4.3545    2.7899    2.9700 C   0  0  0  0  0  0  0  0  0  0  0  0
   -4.5224    1.2932    2.6682 C   0  0  0  0  0  0  0  0  0  0  0  0
   -5.8038    1.0814    1.8437 C   0  0  0  0  0  0  0  0  0  0  0  0
   -5.7217    1.8702    0.5255 C   0  0  0  0  0  0  0  0  0  0  0  0
   -5.5450    3.3647    0.8406 C   0  0  0  0  0  0  0  0  0  0  0  0
   -4.5128    1.3750   -0.2888 C   0  0  0  0  0  0  0  0  0  0  0  0
   -3.3111    0.7983    1.8572 C   0  0  0  0  0  0  0  0  0  0  0  0
    5.5666   -1.7624   -2.5349 C   0  0  0  0  0  0  0  0  0  0  0  0
    6.5239   -2.7622   -2.3462 C   0  0  0  0  0  0  0  0  0  0  0  0
    8.7447   -3.7916    0.8426 H   0  0  0  0  0  0  0  0  0  0  0  0
    7.4102   -5.0113    0.8068 H   0  0  0  0  0  0  0  0  0  0  0  0
    8.9971   -5.3861    0.1177 H   0  0  0  0  0  0  0  0  0  0  0  0
    6.6412   -2.7475    1.0562 H   0  0  0  0  0  0  0  0  0  0  0  0
    4.9813   -0.9955    0.7308 H   0  0  0  0  0  0  0  0  0  0  0  0
    4.3173    0.8679   -1.0875 H   0  0  0  0  0  0  0  0  0  0  0  0
    3.9094    0.2623   -2.6925 H   0  0  0  0  0  0  0  0  0  0  0  0
    0.7742   -1.7578    0.0533 H   0  0  0  0  0  0  0  0  0  0  0  0
    0.8523   -3.1056   -1.0650 H   0  0  0  0  0  0  0  0  0  0  0  0
    0.0746    0.3515   -0.9774 H   0  0  0  0  0  0  0  0  0  0  0  0
   -1.6601    1.8558   -0.9001 H   0  0  0  0  0  0  0  0  0  0  0  0
   -2.1298    3.2519    1.4084 H   0  0  0  0  0  0  0  0  0  0  0  0
   -2.9679    3.6597   -0.0811 H   0  0  0  0  0  0  0  0  0  0  0  0
   -4.1376    4.6485    1.8761 H   0  0  0  0  0  0  0  0  0  0  0  0
   -5.2031    3.1491    3.5650 H   0  0  0  0  0  0  0  0  0  0  0  0
   -3.4520    2.9538    3.5708 H   0  0  0  0  0  0  0  0  0  0  0  0
   -4.5918    0.7328    3.6074 H   0  0  0  0  0  0  0  0  0  0  0  0
   -5.9431    0.0141    1.6335 H   0  0  0  0  0  0  0  0  0  0  0  0
   -6.6771    1.4091    2.4209 H   0  0  0  0  0  0  0  0  0  0  0  0
   -6.6410    1.7212   -0.0523 H   0  0  0  0  0  0  0  0  0  0  0  0
   -5.4998    3.9422   -0.0913 H   0  0  0  0  0  0  0  0  0  0  0  0
   -6.4122    3.7345    1.4019 H   0  0  0  0  0  0  0  0  0  0  0  0
   -4.6613    0.3205   -0.5516 H   0  0  0  0  0  0  0  0  0  0  0  0
   -4.4545    1.9232   -1.2390 H   0  0  0  0  0  0  0  0  0  0  0  0
   -2.3911    0.9300    2.4415 H   0  0  0  0  0  0  0  0  0  0  0  0
   -3.4166   -0.2796    1.6919 H   0  0  0  0  0  0  0  0  0  0  0  0
    5.2773   -1.4960   -3.5494 H   0  0  0  0  0  0  0  0  0  0  0  0
    6.9629   -3.2559   -3.2101 H   0  0  0  0  0  0  0  0  0  0  0  0
  1  2  1  0
  2  3  1  0
  3  4  2  0
  4  5  1  0
  5  6  2  0
  6  7  1  0
  7  8  1  0
  8  9  2  0
  8 10  1  0
 10 11  1  0
 11 12  1  0
 12 13  2  0
 12 14  1  0
 14 15  1  0
 15 16  2  0
 15 17  1  0
 17 18  1  0
 18 19  1  0
 19 20  1  0
 20 21  1  0
 21 22  1  0
 22 23  1  0
 23 24  1  0
 24 25  1  0
 24 26  1  0
 22 27  1  0
  6 28  1  0
 28 29  2  0
 29  3  1  0
 26 18  1  0
 27 18  1  0
 25 20  1  0
  1 30  1  0
  1 31  1  0
  1 32  1  0
  4 33  1  0
  5 34  1  0
  7 35  1  0
  7 36  1  0
 11 37  1  0
 11 38  1  0
 14 39  1  0
 17 40  1  0
 19 41  1  0
 19 42  1  0
 20 43  1  0
 21 44  1  0
 21 45  1  0
 22 46  1  0
 23 47  1  0
 23 48  1  0
 24 49  1  0
 25 50  1  0
 25 51  1  0
 26 52  1  0
 26 53  1  0
 27 54  1  0
 27 55  1  0
 28 56  1  0
 29 57  1  0
M  END
$$$$
