
     RDKit          3D

 53 54  0  0  0  0  0  0  0  0999 V2000
   -0.1558   -0.2378   -1.5557 C   0  0  0  0  0  0  0  0  0  0  0  0
    0.0837    0.3394   -0.1498 C   0  0  0  0  0  0  0  0  0  0  0  0
    0.7862   -0.7218    0.7156 C   0  0  0  0  0  0  0  0  0  0  0  0
    0.9473    1.6245   -0.2449 C   0  0  0  0  0  0  0  0  0  0  0  0
    2.2372    1.4334   -0.8808 N   0  0  0  0  0  0  0  0  0  0  0  0
    3.4032    1.3311   -0.1576 C   0  0  0  0  0  0  0  0  0  0  0  0
    3.4703    1.3572    1.0619 O   0  0  0  0  0  0  0  0  0  0  0  0
    4.5875    1.1693   -1.0363 C   0  0  0  0  0  0  0  0  0  0  0  0
    5.8009    1.7028   -0.8232 C   0  0  0  0  0  0  0  0  0  0  0  0
    6.2205    2.6103    0.2526 C   0  0  0  0  0  0  0  0  0  0  0  0
    7.4444    2.3738    0.8957 C   0  0  0  0  0  0  0  0  0  0  0  0
    7.9021    3.2420    1.8890 C   0  0  0  0  0  0  0  0  0  0  0  0
    7.1414    4.3523    2.2322 C   0  0  0  0  0  0  0  0  0  0  0  0
    7.5822    5.1870    3.1827 F   0  0  0  0  0  0  0  0  0  0  0  0
    5.9347    4.6140    1.5972 C   0  0  0  0  0  0  0  0  0  0  0  0
    5.4787    3.7479    0.6011 C   0  0  0  0  0  0  0  0  0  0  0  0
   -1.2557    0.7539    0.5170 C   0  0  0  0  0  0  0  0  0  0  0  0
   -2.2318   -0.3154    0.6173 N   0  0  0  0  0  0  0  0  0  0  0  0
   -3.2753   -0.4310   -0.2678 C   0  0  0  0  0  0  0  0  0  0  0  0
   -3.4723    0.3318   -1.2044 O   0  0  0  0  0  0  0  0  0  0  0  0
   -4.1521   -1.5943    0.0195 C   0  0  0  0  0  0  0  0  0  0  0  0
   -5.1834   -1.8597   -0.7976 C   0  0  0  0  0  0  0  0  0  0  0  0
   -6.1020   -2.9906   -0.6195 C   0  0  0  0  0  0  0  0  0  0  0  0
   -6.5807   -3.3758    0.6425 C   0  0  0  0  0  0  0  0  0  0  0  0
   -7.4771   -4.4401    0.7644 C   0  0  0  0  0  0  0  0  0  0  0  0
   -7.9013   -5.1127   -0.3740 C   0  0  0  0  0  0  0  0  0  0  0  0
   -8.7606   -6.1325   -0.2559 F   0  0  0  0  0  0  0  0  0  0  0  0
   -7.4521   -4.7378   -1.6333 C   0  0  0  0  0  0  0  0  0  0  0  0
   -6.5577   -3.6724   -1.7566 C   0  0  0  0  0  0  0  0  0  0  0  0
   -0.7588   -1.1501   -1.5191 H   0  0  0  0  0  0  0  0  0  0  0  0
    0.7864   -0.5028   -2.0472 H   0  0  0  0  0  0  0  0  0  0  0  0
   -0.6733    0.4825   -2.1960 H   0  0  0  0  0  0  0  0  0  0  0  0
    1.7383   -1.0355    0.2762 H   0  0  0  0  0  0  0  0  0  0  0  0
    0.9906   -0.3372    1.7193 H   0  0  0  0  0  0  0  0  0  0  0  0
    0.1719   -1.6215    0.8232 H   0  0  0  0  0  0  0  0  0  0  0  0
    0.4278    2.3816   -0.8417 H   0  0  0  0  0  0  0  0  0  0  0  0
    1.1001    2.0503    0.7523 H   0  0  0  0  0  0  0  0  0  0  0  0
    2.2719    1.4214   -1.8919 H   0  0  0  0  0  0  0  0  0  0  0  0
    4.4398    0.5275   -1.8990 H   0  0  0  0  0  0  0  0  0  0  0  0
    6.5944    1.4531   -1.5264 H   0  0  0  0  0  0  0  0  0  0  0  0
    8.0452    1.5053    0.6359 H   0  0  0  0  0  0  0  0  0  0  0  0
    8.8433    3.0580    2.3956 H   0  0  0  0  0  0  0  0  0  0  0  0
    5.3559    5.4872    1.8795 H   0  0  0  0  0  0  0  0  0  0  0  0
    4.5350    3.9675    0.1086 H   0  0  0  0  0  0  0  0  0  0  0  0
   -1.7047    1.5922   -0.0291 H   0  0  0  0  0  0  0  0  0  0  0  0
   -1.0747    1.0999    1.5415 H   0  0  0  0  0  0  0  0  0  0  0  0
   -2.1201   -0.9925    1.3592 H   0  0  0  0  0  0  0  0  0  0  0  0
   -3.9249   -2.2110    0.8791 H   0  0  0  0  0  0  0  0  0  0  0  0
   -5.3650   -1.2329   -1.6705 H   0  0  0  0  0  0  0  0  0  0  0  0
   -6.2755   -2.8432    1.5399 H   0  0  0  0  0  0  0  0  0  0  0  0
   -7.8509   -4.7425    1.7366 H   0  0  0  0  0  0  0  0  0  0  0  0
   -7.8011   -5.2723   -2.5102 H   0  0  0  0  0  0  0  0  0  0  0  0
   -6.2140   -3.3819   -2.7471 H   0  0  0  0  0  0  0  0  0  0  0  0
  1  2  1  0
  2  3  1  0
  2  4  1  0
  4  5  1  0
  5  6  1  0
  6  7  2  0
  6  8  1  0
  8  9  2  3
  9 10  1  0
 10 11  2  0
 11 12  1  0
 12 13  2  0
 13 14  1  0
 13 15  1  0
 15 16  2  0
  2 17  1  0
 17 18  1  0
 18 19  1  0
 19 20  2  0
 19 21  1  0
 21 22  2  3
 22 23  1  0
 23 24  2  0
 24 25  1  0
 25 26  2  0
 26 27  1  0
 26 28  1  0
 28 29  2  0
 16 10  1  0
 29 23  1  0
  1 30  1  0
  1 31  1  0
  1 32  1  0
  3 33  1  0
  3 34  1  0
  3 35  1  0
  4 36  1  0
  4 37  1  0
  5 38  1  0
  8 39  1  0
  9 40  1  0
 11 41  1  0
 12 42  1  0
 15 43  1  0
 16 44  1  0
 17 45  1  0
 17 46  1  0
 18 47  1  0
 21 48  1  0
 22 49  1  0
 24 50  1  0
 25 51  1  0
 28 52  1  0
 29 53  1  0
M  END
$$$$
