
     RDKit          3D

 47 49  0  0  0  0  0  0  0  0999 V2000
    2.5711    3.6326   -4.2483 C   0  0  0  0  0  0  0  0  0  0  0  0
    2.3511    2.6663   -3.1165 C   0  0  0  0  0  0  0  0  0  0  0  0
    2.4644    3.1194   -1.7949 C   0  0  0  0  0  0  0  0  0  0  0  0
    2.2682    2.2504   -0.7201 C   0  0  0  0  0  0  0  0  0  0  0  0
    1.9606    0.9017   -0.9397 C   0  0  0  0  0  0  0  0  0  0  0  0
    1.7112   -0.0593    0.2097 C   0  0  0  0  0  0  0  0  0  0  0  0
    2.8528   -0.0517    1.2312 C   0  0  0  0  0  0  0  0  0  0  0  0
    0.4360    0.2603    0.8302 N   0  0  0  0  0  0  0  0  0  0  0  0
   -0.2389   -0.6471    1.6158 C   0  0  0  0  0  0  0  0  0  0  0  0
    0.2089   -1.7577    1.8750 O   0  0  0  0  0  0  0  0  0  0  0  0
   -1.5351   -0.1992    2.0817 C   0  0  0  0  0  0  0  0  0  0  0  0
   -2.7218   -0.9653    2.3184 C   0  0  0  0  0  0  0  0  0  0  0  0
   -2.9786   -2.3900    2.0997 C   0  0  0  0  0  0  0  0  0  0  0  0
   -3.7479   -3.1124    3.0253 C   0  0  0  0  0  0  0  0  0  0  0  0
   -4.0152   -4.4692    2.8265 C   0  0  0  0  0  0  0  0  0  0  0  0
   -3.5211   -5.1179    1.6973 C   0  0  0  0  0  0  0  0  0  0  0  0
   -2.7640   -4.4107    0.7654 C   0  0  0  0  0  0  0  0  0  0  0  0
   -2.4971   -3.0526    0.9627 C   0  0  0  0  0  0  0  0  0  0  0  0
   -3.7002   -0.1736    2.7915 N   0  0  0  0  0  0  0  0  0  0  0  0
   -3.1762    1.0927    2.8761 O   0  0  0  0  0  0  0  0  0  0  0  0
   -1.8838    1.0814    2.4679 C   0  0  0  0  0  0  0  0  0  0  0  0
   -1.1767    2.3740    2.5645 C   0  0  0  0  0  0  0  0  0  0  0  0
    1.8369    0.4516   -2.2636 C   0  0  0  0  0  0  0  0  0  0  0  0
    2.0308    1.3163   -3.3546 C   0  0  0  0  0  0  0  0  0  0  0  0
    1.8929    0.7786   -4.7533 C   0  0  0  0  0  0  0  0  0  0  0  0
    3.4019    3.2986   -4.8778 H   0  0  0  0  0  0  0  0  0  0  0  0
    1.6642    3.7202   -4.8550 H   0  0  0  0  0  0  0  0  0  0  0  0
    2.8194    4.6338   -3.8801 H   0  0  0  0  0  0  0  0  0  0  0  0
    2.7085    4.1601   -1.5912 H   0  0  0  0  0  0  0  0  0  0  0  0
    2.3576    2.6415    0.2907 H   0  0  0  0  0  0  0  0  0  0  0  0
    1.6357   -1.0802   -0.1869 H   0  0  0  0  0  0  0  0  0  0  0  0
    2.9180    0.9020    1.7665 H   0  0  0  0  0  0  0  0  0  0  0  0
    3.8168   -0.2343    0.7438 H   0  0  0  0  0  0  0  0  0  0  0  0
    2.7087   -0.8309    1.9872 H   0  0  0  0  0  0  0  0  0  0  0  0
   -0.0694    1.0561    0.4662 H   0  0  0  0  0  0  0  0  0  0  0  0
   -4.1434   -2.6201    3.9117 H   0  0  0  0  0  0  0  0  0  0  0  0
   -4.6090   -5.0165    3.5539 H   0  0  0  0  0  0  0  0  0  0  0  0
   -3.7268   -6.1738    1.5429 H   0  0  0  0  0  0  0  0  0  0  0  0
   -2.3789   -4.9155   -0.1168 H   0  0  0  0  0  0  0  0  0  0  0  0
   -1.9120   -2.5253    0.2143 H   0  0  0  0  0  0  0  0  0  0  0  0
   -1.1605    2.8737    1.5912 H   0  0  0  0  0  0  0  0  0  0  0  0
   -1.6686    3.0408    3.2800 H   0  0  0  0  0  0  0  0  0  0  0  0
   -0.1448    2.2317    2.8998 H   0  0  0  0  0  0  0  0  0  0  0  0
    1.5848   -0.5916   -2.4508 H   0  0  0  0  0  0  0  0  0  0  0  0
    2.8373    0.8857   -5.2963 H   0  0  0  0  0  0  0  0  0  0  0  0
    1.1002    1.3105   -5.2889 H   0  0  0  0  0  0  0  0  0  0  0  0
    1.6322   -0.2851   -4.7521 H   0  0  0  0  0  0  0  0  0  0  0  0
  1  2  1  0
  2  3  2  0
  3  4  1  0
  4  5  2  0
  5  6  1  0
  6  7  1  0
  6  8  1  0
  8  9  1  0
  9 10  2  0
  9 11  1  0
 11 12  1  0
 12 13  1  0
 13 14  2  0
 14 15  1  0
 15 16  2  0
 16 17  1  0
 17 18  2  0
 12 19  2  0
 19 20  1  0
 20 21  1  0
 21 22  1  0
  5 23  1  0
 23 24  2  0
 24 25  1  0
 24  2  1  0
 21 11  2  0
 18 13  1  0
  1 26  1  0
  1 27  1  0
  1 28  1  0
  3 29  1  0
  4 30  1  0
  6 31  1  0
  7 32  1  0
  7 33  1  0
  7 34  1  0
  8 35  1  0
 14 36  1  0
 15 37  1  0
 16 38  1  0
 17 39  1  0
 18 40  1  0
 22 41  1  0
 22 42  1  0
 22 43  1  0
 23 44  1  0
 25 45  1  0
 25 46  1  0
 25 47  1  0
M  END
$$$$
