
     RDKit          3D

 37 38  0  0  0  0  0  0  0  0999 V2000
   -1.9098    1.4405    1.9877 C   0  0  0  0  0  0  0  0  0  0  0  0
   -1.4066    1.0877    0.7068 O   0  0  0  0  0  0  0  0  0  0  0  0
   -1.9051   -0.0488    0.1238 C   0  0  0  0  0  0  0  0  0  0  0  0
   -2.9792   -0.7954    0.6276 C   0  0  0  0  0  0  0  0  0  0  0  0
   -3.4199   -1.9571   -0.0166 C   0  0  0  0  0  0  0  0  0  0  0  0
   -4.5646   -2.6258    0.4381 N   0  0  0  0  0  0  0  0  0  0  0  0
   -2.8442   -2.3080   -1.2364 C   0  0  0  0  0  0  0  0  0  0  0  0
   -1.7756   -1.5747   -1.7536 C   0  0  0  0  0  0  0  0  0  0  0  0
   -1.2875   -0.4463   -1.0758 C   0  0  0  0  0  0  0  0  0  0  0  0
   -0.1140    0.3207   -1.6588 C   0  0  0  0  0  0  0  0  0  0  0  0
    1.2066    0.1300   -0.9391 C   0  0  0  0  0  0  0  0  0  0  0  0
    1.6411   -1.1474   -0.5530 C   0  0  0  0  0  0  0  0  0  0  0  0
    2.8781   -1.3271    0.0764 C   0  0  0  0  0  0  0  0  0  0  0  0
    3.7046   -0.2383    0.3543 C   0  0  0  0  0  0  0  0  0  0  0  0
    4.9930   -0.4433    0.8638 N   0  0  0  0  0  0  0  0  0  0  0  0
    3.3161    1.0230   -0.0981 C   0  0  0  0  0  0  0  0  0  0  0  0
    2.0678    1.2110   -0.7059 C   0  0  0  0  0  0  0  0  0  0  0  0
    1.7131    2.4562   -1.1617 O   0  0  0  0  0  0  0  0  0  0  0  0
    1.5080    3.3591   -0.0754 C   0  0  0  0  0  0  0  0  0  0  0  0
   -1.3510    2.3143    2.3365 H   0  0  0  0  0  0  0  0  0  0  0  0
   -2.9657    1.7236    1.9303 H   0  0  0  0  0  0  0  0  0  0  0  0
   -1.7528    0.6352    2.7130 H   0  0  0  0  0  0  0  0  0  0  0  0
   -3.4978   -0.4855    1.5279 H   0  0  0  0  0  0  0  0  0  0  0  0
   -4.6293   -3.5877    0.1196 H   0  0  0  0  0  0  0  0  0  0  0  0
   -4.7215   -2.5400    1.4371 H   0  0  0  0  0  0  0  0  0  0  0  0
   -3.2215   -3.1587   -1.7973 H   0  0  0  0  0  0  0  0  0  0  0  0
   -1.3301   -1.8840   -2.6965 H   0  0  0  0  0  0  0  0  0  0  0  0
   -0.4014    1.3788   -1.6930 H   0  0  0  0  0  0  0  0  0  0  0  0
    0.0371    0.0316   -2.7075 H   0  0  0  0  0  0  0  0  0  0  0  0
    1.0250   -2.0218   -0.7484 H   0  0  0  0  0  0  0  0  0  0  0  0
    3.1918   -2.3337    0.3391 H   0  0  0  0  0  0  0  0  0  0  0  0
    5.3916    0.3758    1.3111 H   0  0  0  0  0  0  0  0  0  0  0  0
    5.0777   -1.2771    1.4363 H   0  0  0  0  0  0  0  0  0  0  0  0
    3.9919    1.8660    0.0051 H   0  0  0  0  0  0  0  0  0  0  0  0
    0.9669    4.2282   -0.4614 H   0  0  0  0  0  0  0  0  0  0  0  0
    0.9023    2.9102    0.7199 H   0  0  0  0  0  0  0  0  0  0  0  0
    2.4651    3.7089    0.3245 H   0  0  0  0  0  0  0  0  0  0  0  0
  1  2  1  0
  2  3  1  0
  3  4  2  0
  4  5  1  0
  5  6  1  0
  5  7  2  0
  7  8  1  0
  8  9  2  0
  9 10  1  0
 10 11  1  0
 11 12  2  0
 12 13  1  0
 13 14  2  0
 14 15  1  0
 14 16  1  0
 16 17  2  0
 17 18  1  0
 18 19  1  0
  9  3  1  0
 17 11  1  0
  1 20  1  0
  1 21  1  0
  1 22  1  0
  4 23  1  0
  6 24  1  0
  6 25  1  0
  7 26  1  0
  8 27  1  0
 10 28  1  0
 10 29  1  0
 12 30  1  0
 13 31  1  0
 15 32  1  0
 15 33  1  0
 16 34  1  0
 19 35  1  0
 19 36  1  0
 19 37  1  0
M  END
$$$$
