
     RDKit          3D

 48 51  0  0  0  0  0  0  0  0999 V2000
    6.4853   -2.5640    2.0059 O   0  0  0  0  0  0  0  0  0  0  0  0
    5.1918   -2.5346    1.3569 S   0  0  0  0  0  6  0  0  0  0  0  0
    4.6072   -3.7300    0.7907 O   0  0  0  0  0  0  0  0  0  0  0  0
    4.1231   -1.8497    2.4681 N   0  0  0  0  0  0  0  0  0  0  0  0
    2.8529   -1.3854    2.0322 C   0  0  0  0  0  0  0  0  0  0  0  0
    2.5561   -0.0292    2.1464 C   0  0  0  0  0  0  0  0  0  0  0  0
    1.3311    0.4634    1.6794 C   0  0  0  0  0  0  0  0  0  0  0  0
    0.3749   -0.3871    1.0942 C   0  0  0  0  0  0  0  0  0  0  0  0
   -0.9150    0.1145    0.5868 C   0  0  0  0  0  0  0  0  0  0  0  0
   -1.6051    1.1835    1.1359 C   0  0  0  0  0  0  0  0  0  0  0  0
   -2.8235    1.5769    0.5742 C   0  0  0  0  0  0  0  0  0  0  0  0
   -3.3488    0.9004   -0.5199 C   0  0  0  0  0  0  0  0  0  0  0  0
   -4.5483    1.2954   -1.1070 N   0  0  0  0  0  0  0  0  0  0  0  0
   -4.9124    0.5867   -2.3469 C   0  0  0  0  0  0  0  0  0  0  0  0
   -6.2342    1.1552   -2.8864 C   0  0  0  0  0  0  0  0  0  0  0  0
   -7.3412    1.0198   -1.9800 O   0  0  0  0  0  0  0  0  0  0  0  0
   -6.9404    0.8491   -0.6142 C   0  0  0  0  0  0  0  0  0  0  0  0
   -5.6831    1.6512   -0.2358 C   0  0  0  0  0  0  0  0  0  0  0  0
   -2.6375   -0.1233   -1.0343 N   0  0  0  0  0  0  0  0  0  0  0  0
   -1.4313   -0.5268   -0.4801 N   0  0  0  0  0  0  0  0  0  0  0  0
    0.7013   -1.7531    0.9977 C   0  0  0  0  0  0  0  0  0  0  0  0
    1.9231   -2.2498    1.4647 C   0  0  0  0  0  0  0  0  0  0  0  0
    5.2760   -1.3026    0.0745 C   0  0  0  0  0  0  0  0  0  0  0  0
    4.5119   -1.4508   -1.0864 C   0  0  0  0  0  0  0  0  0  0  0  0
    4.5832   -0.4773   -2.0845 C   0  0  0  0  0  0  0  0  0  0  0  0
    5.4225    0.6315   -1.9281 C   0  0  0  0  0  0  0  0  0  0  0  0
    5.4532    1.8009   -3.1991 Cl  0  0  0  0  0  0  0  0  0  0  0  0
    6.1996    0.7624   -0.7689 C   0  0  0  0  0  0  0  0  0  0  0  0
    7.2555    2.1052   -0.5097 Cl  0  0  0  0  0  0  0  0  0  0  0  0
    6.1325   -0.2092    0.2331 C   0  0  0  0  0  0  0  0  0  0  0  0
    4.6035   -1.3321    3.2020 H   0  0  0  0  0  0  0  0  0  0  0  0
    3.2725    0.6636    2.5795 H   0  0  0  0  0  0  0  0  0  0  0  0
    1.1452    1.5328    1.7587 H   0  0  0  0  0  0  0  0  0  0  0  0
   -1.2239    1.7180    1.9989 H   0  0  0  0  0  0  0  0  0  0  0  0
   -3.3409    2.4342    0.9917 H   0  0  0  0  0  0  0  0  0  0  0  0
   -4.1326    0.7205   -3.1059 H   0  0  0  0  0  0  0  0  0  0  0  0
   -5.0334   -0.4862   -2.1494 H   0  0  0  0  0  0  0  0  0  0  0  0
   -6.5100    0.6526   -3.8189 H   0  0  0  0  0  0  0  0  0  0  0  0
   -6.1245    2.2230   -3.1089 H   0  0  0  0  0  0  0  0  0  0  0  0
   -7.7824    1.1555    0.0150 H   0  0  0  0  0  0  0  0  0  0  0  0
   -6.7792   -0.2216   -0.4407 H   0  0  0  0  0  0  0  0  0  0  0  0
   -5.4731    1.4747    0.8252 H   0  0  0  0  0  0  0  0  0  0  0  0
   -5.8818    2.7210   -0.3685 H   0  0  0  0  0  0  0  0  0  0  0  0
   -0.0076   -2.4521    0.5532 H   0  0  0  0  0  0  0  0  0  0  0  0
    2.1283   -3.3145    1.3804 H   0  0  0  0  0  0  0  0  0  0  0  0
    3.8560   -2.3100   -1.2184 H   0  0  0  0  0  0  0  0  0  0  0  0
    3.9798   -0.5885   -2.9834 H   0  0  0  0  0  0  0  0  0  0  0  0
    6.7438   -0.1138    1.1280 H   0  0  0  0  0  0  0  0  0  0  0  0
  1  2  2  0
  2  3  2  0
  2  4  1  0
  4  5  1  0
  5  6  2  0
  6  7  1  0
  7  8  2  0
  8  9  1  0
  9 10  2  0
 10 11  1  0
 11 12  2  0
 12 13  1  0
 13 14  1  0
 14 15  1  0
 15 16  1  0
 16 17  1  0
 17 18  1  0
 12 19  1  0
 19 20  2  0
  8 21  1  0
 21 22  2  0
  2 23  1  0
 23 24  2  0
 24 25  1  0
 25 26  2  0
 26 27  1  0
 26 28  1  0
 28 29  1  0
 28 30  2  0
 22  5  1  0
 30 23  1  0
 20  9  1  0
 18 13  1  0
  4 31  1  0
  6 32  1  0
  7 33  1  0
 10 34  1  0
 11 35  1  0
 14 36  1  0
 14 37  1  0
 15 38  1  0
 15 39  1  0
 17 40  1  0
 17 41  1  0
 18 42  1  0
 18 43  1  0
 21 44  1  0
 22 45  1  0
 24 46  1  0
 25 47  1  0
 30 48  1  0
M  END
$$$$
