
     RDKit          3D

 40 41  0  0  0  0  0  0  0  0999 V2000
   -0.2245    3.5095   -1.7815 C   0  0  0  0  0  0  0  0  0  0  0  0
   -0.0870    2.0296   -2.1162 C   0  0  0  0  0  0  0  0  0  0  0  0
   -0.5874    1.1378   -0.9982 C   0  0  0  0  0  0  0  0  0  0  0  0
   -1.9083    0.6859   -0.9932 C   0  0  0  0  0  0  0  0  0  0  0  0
   -2.8868    1.0183   -2.0868 C   0  0  0  0  0  0  0  0  0  0  0  0
   -2.4110   -0.0991   -0.0139 N   0  0  0  0  0  0  0  0  0  0  0  0
   -1.6552   -0.4657    1.0408 C   0  0  0  0  0  0  0  0  0  0  0  0
   -2.2138   -1.2779    2.0511 C   0  0  0  0  0  0  0  0  0  0  0  0
   -3.5316   -1.6419    1.8616 O   0  0  0  0  0  0  0  0  0  0  0  0
   -4.1093   -2.5629    2.7765 C   0  0  0  0  0  0  0  0  0  0  0  0
   -1.4640   -1.6679    3.1668 C   0  0  0  0  0  0  0  0  0  0  0  0
   -0.1460   -1.2566    3.2919 C   0  0  0  0  0  0  0  0  0  0  0  0
    0.4209   -0.4612    2.3006 C   0  0  0  0  0  0  0  0  0  0  0  0
   -0.3115   -0.0543    1.1527 C   0  0  0  0  0  0  0  0  0  0  0  0
    0.2195    0.7488    0.0955 C   0  0  0  0  0  0  0  0  0  0  0  0
    1.9576    1.2770    0.1471 S   0  0  0  0  0  0  0  0  0  0  0  0
    2.7088   -0.2196   -0.5803 C   0  0  0  0  0  0  0  0  0  0  0  0
    4.1943    0.0070   -0.8169 C   0  0  0  0  0  0  0  0  0  0  0  0
    4.7939   -1.2335   -1.4093 C   0  0  0  0  0  0  0  0  0  0  0  0
    4.6196   -2.3775   -1.0198 O   0  0  0  0  0  0  0  0  0  0  0  0
    5.6007   -0.9773   -2.4620 O   0  0  0  0  0  0  0  0  0  0  0  0
    0.1318    4.1213   -2.6194 H   0  0  0  0  0  0  0  0  0  0  0  0
   -1.2698    3.7783   -1.5878 H   0  0  0  0  0  0  0  0  0  0  0  0
    0.3592    3.7809   -0.8950 H   0  0  0  0  0  0  0  0  0  0  0  0
   -0.6306    1.8221   -3.0450 H   0  0  0  0  0  0  0  0  0  0  0  0
    0.9534    1.7959   -2.3673 H   0  0  0  0  0  0  0  0  0  0  0  0
   -2.5755    0.5615   -3.0312 H   0  0  0  0  0  0  0  0  0  0  0  0
   -2.9772    2.1028   -2.2120 H   0  0  0  0  0  0  0  0  0  0  0  0
   -3.8836    0.6308   -1.8472 H   0  0  0  0  0  0  0  0  0  0  0  0
   -4.1890   -2.1275    3.7776 H   0  0  0  0  0  0  0  0  0  0  0  0
   -3.5525   -3.5070    2.7949 H   0  0  0  0  0  0  0  0  0  0  0  0
   -5.1247   -2.7845    2.4343 H   0  0  0  0  0  0  0  0  0  0  0  0
   -1.8829   -2.2841    3.9545 H   0  0  0  0  0  0  0  0  0  0  0  0
    0.4409   -1.5519    4.1583 H   0  0  0  0  0  0  0  0  0  0  0  0
    1.4551   -0.1536    2.4400 H   0  0  0  0  0  0  0  0  0  0  0  0
    2.5484   -1.0657    0.0981 H   0  0  0  0  0  0  0  0  0  0  0  0
    2.2088   -0.4542   -1.5282 H   0  0  0  0  0  0  0  0  0  0  0  0
    4.7324    0.2268    0.1134 H   0  0  0  0  0  0  0  0  0  0  0  0
    4.3467    0.8466   -1.5072 H   0  0  0  0  0  0  0  0  0  0  0  0
    5.9298   -1.8573   -2.7373 H   0  0  0  0  0  0  0  0  0  0  0  0
  1  2  1  0
  2  3  1  0
  3  4  2  0
  4  5  1  0
  4  6  1  0
  6  7  2  0
  7  8  1  0
  8  9  1  0
  9 10  1  0
  8 11  2  0
 11 12  1  0
 12 13  2  0
 13 14  1  0
 14 15  2  0
 15 16  1  0
 16 17  1  0
 17 18  1  0
 18 19  1  0
 19 20  2  0
 19 21  1  0
 15  3  1  0
 14  7  1  0
  1 22  1  0
  1 23  1  0
  1 24  1  0
  2 25  1  0
  2 26  1  0
  5 27  1  0
  5 28  1  0
  5 29  1  0
 10 30  1  0
 10 31  1  0
 10 32  1  0
 11 33  1  0
 12 34  1  0
 13 35  1  0
 17 36  1  0
 17 37  1  0
 18 38  1  0
 18 39  1  0
 21 40  1  0
M  END
$$$$
