
     RDKit          3D

 40 41  0  0  0  0  0  0  0  0999 V2000
   -4.9380    1.1224    1.2949 C   0  0  0  0  0  0  0  0  0  0  0  0
   -3.8364    0.5286    0.4210 C   0  0  0  0  0  0  0  0  0  0  0  0
   -2.4451    0.7642    1.0431 C   0  0  0  0  0  0  0  0  0  0  0  0
   -1.3558    1.0319    0.0042 C   0  0  0  0  0  0  0  0  0  0  0  0
   -1.5633    0.2261   -1.1952 N   0  0  0  0  0  0  0  0  0  0  0  0
   -0.5547   -0.4248   -1.9036 C   0  0  0  0  0  0  0  0  0  0  0  0
   -0.6674   -0.7614   -3.0806 O   0  0  0  0  0  0  0  0  0  0  0  0
    0.7148   -0.7574   -1.2189 C   0  0  0  0  0  0  0  0  0  0  0  0
    0.7147   -1.4673   -0.0136 C   0  0  0  0  0  0  0  0  0  0  0  0
    1.9271   -1.7999    0.5952 C   0  0  0  0  0  0  0  0  0  0  0  0
    3.1345   -1.4422   -0.0071 C   0  0  0  0  0  0  0  0  0  0  0  0
    4.3807   -1.7603    0.5999 N   0  0  0  0  0  0  0  0  0  0  0  0
    4.7715   -1.1109    2.1033 S   0  0  0  0  0  6  0  0  0  0  0  0
    4.7953    0.6391    1.7664 C   0  0  0  0  0  0  0  0  0  0  0  0
    3.7127   -1.3822    3.0498 O   0  0  0  0  0  0  0  0  0  0  0  0
    6.1359   -1.5185    2.3637 O   0  0  0  0  0  0  0  0  0  0  0  0
    3.1342   -0.7660   -1.2296 C   0  0  0  0  0  0  0  0  0  0  0  0
    1.9238   -0.4269   -1.8394 C   0  0  0  0  0  0  0  0  0  0  0  0
   -2.8328    0.4267   -1.8889 C   0  0  0  0  0  0  0  0  0  0  0  0
   -3.9037    1.0747   -1.0091 C   0  0  0  0  0  0  0  0  0  0  0  0
   -4.8977    0.7049    2.3065 H   0  0  0  0  0  0  0  0  0  0  0  0
   -5.9260    0.8993    0.8787 H   0  0  0  0  0  0  0  0  0  0  0  0
   -4.8416    2.2107    1.3715 H   0  0  0  0  0  0  0  0  0  0  0  0
   -4.0040   -0.5563    0.3727 H   0  0  0  0  0  0  0  0  0  0  0  0
   -2.1775   -0.1265    1.6260 H   0  0  0  0  0  0  0  0  0  0  0  0
   -2.4610    1.5990    1.7541 H   0  0  0  0  0  0  0  0  0  0  0  0
   -0.3681    0.8849    0.4455 H   0  0  0  0  0  0  0  0  0  0  0  0
   -1.3862    2.0827   -0.3116 H   0  0  0  0  0  0  0  0  0  0  0  0
   -0.2215   -1.7745    0.4459 H   0  0  0  0  0  0  0  0  0  0  0  0
    1.9178   -2.3595    1.5281 H   0  0  0  0  0  0  0  0  0  0  0  0
    5.1931   -1.8550   -0.0092 H   0  0  0  0  0  0  0  0  0  0  0  0
    5.1384    1.1476    2.6703 H   0  0  0  0  0  0  0  0  0  0  0  0
    3.7873    0.9747    1.5182 H   0  0  0  0  0  0  0  0  0  0  0  0
    5.4910    0.8336    0.9480 H   0  0  0  0  0  0  0  0  0  0  0  0
    4.0655   -0.5017   -1.7228 H   0  0  0  0  0  0  0  0  0  0  0  0
    1.9193    0.0844   -2.7999 H   0  0  0  0  0  0  0  0  0  0  0  0
   -2.6531    1.0456   -2.7760 H   0  0  0  0  0  0  0  0  0  0  0  0
   -3.1768   -0.5536   -2.2405 H   0  0  0  0  0  0  0  0  0  0  0  0
   -4.8921    0.9017   -1.4505 H   0  0  0  0  0  0  0  0  0  0  0  0
   -3.7548    2.1623   -0.9931 H   0  0  0  0  0  0  0  0  0  0  0  0
  1  2  1  0
  2  3  1  0
  3  4  1  0
  4  5  1  0
  5  6  1  0
  6  7  2  0
  6  8  1  0
  8  9  2  0
  9 10  1  0
 10 11  2  0
 11 12  1  0
 12 13  1  0
 13 14  1  0
 13 15  2  0
 13 16  2  0
 11 17  1  0
 17 18  2  0
  5 19  1  0
 19 20  1  0
 20  2  1  0
 18  8  1  0
  1 21  1  0
  1 22  1  0
  1 23  1  0
  2 24  1  0
  3 25  1  0
  3 26  1  0
  4 27  1  0
  4 28  1  0
  9 29  1  0
 10 30  1  0
 12 31  1  0
 14 32  1  0
 14 33  1  0
 14 34  1  0
 17 35  1  0
 18 36  1  0
 19 37  1  0
 19 38  1  0
 20 39  1  0
 20 40  1  0
M  END
$$$$
