
     RDKit          3D

 43 46  0  0  0  0  0  0  0  0999 V2000
    4.2163    3.2472    0.3784 C   0  0  0  0  0  0  0  0  0  0  0  0
    3.0084    2.5034    0.5508 O   0  0  0  0  0  0  0  0  0  0  0  0
    3.1987    1.2565    1.0508 C   0  0  0  0  0  0  0  0  0  0  0  0
    4.2727    0.7680    1.3622 O   0  0  0  0  0  0  0  0  0  0  0  0
    1.8940    0.5696    1.1710 C   0  0  0  0  0  0  0  0  0  0  0  0
    1.6133   -0.2383    2.2149 C   0  0  0  0  0  0  0  0  0  0  0  0
    2.5367   -0.4673    3.3853 C   0  0  0  0  0  0  0  0  0  0  0  0
    0.4116   -0.9104    2.3196 N   0  0  0  0  0  0  0  0  0  0  0  0
   -0.4982   -0.6428    1.4480 C   0  0  0  0  0  0  0  0  0  0  0  0
   -2.1002   -1.3123    1.5248 S   0  0  0  0  0  0  0  0  0  0  0  0
   -2.6427   -0.3551    0.2010 C   0  0  0  0  0  0  0  0  0  0  0  0
   -3.8541   -0.2909   -0.3710 C   0  0  0  0  0  0  0  0  0  0  0  0
   -5.0687   -0.9735   -0.0551 C   0  0  0  0  0  0  0  0  0  0  0  0
   -6.2056   -1.0597   -0.9057 C   0  0  0  0  0  0  0  0  0  0  0  0
   -7.1522   -1.7833   -0.2195 C   0  0  0  0  0  0  0  0  0  0  0  0
   -6.6797   -2.1399    1.0007 O   0  0  0  0  0  0  0  0  0  0  0  0
   -5.4171   -1.6426    1.0975 C   0  0  0  0  0  0  0  0  0  0  0  0
   -1.5093    0.4663   -0.3243 C   0  0  0  0  0  0  0  0  0  0  0  0
   -1.6149    1.2699   -1.2403 O   0  0  0  0  0  0  0  0  0  0  0  0
   -0.3683    0.1984    0.3900 N   0  0  0  0  0  0  0  0  0  0  0  0
    0.9232    0.7589    0.0365 C   0  0  0  0  0  0  0  0  0  0  0  0
    1.4384    0.1388   -1.2631 C   0  0  0  0  0  0  0  0  0  0  0  0
    1.7888   -1.2210   -1.3422 C   0  0  0  0  0  0  0  0  0  0  0  0
    2.2552   -1.7659   -2.5395 C   0  0  0  0  0  0  0  0  0  0  0  0
    2.3727   -0.9648   -3.6729 C   0  0  0  0  0  0  0  0  0  0  0  0
    2.0223    0.3819   -3.6124 C   0  0  0  0  0  0  0  0  0  0  0  0
    1.5573    0.9313   -2.4165 C   0  0  0  0  0  0  0  0  0  0  0  0
    4.8813    2.7397   -0.3274 H   0  0  0  0  0  0  0  0  0  0  0  0
    4.7135    3.3987    1.3416 H   0  0  0  0  0  0  0  0  0  0  0  0
    3.9550    4.2254   -0.0345 H   0  0  0  0  0  0  0  0  0  0  0  0
    3.1749   -1.3366    3.1986 H   0  0  0  0  0  0  0  0  0  0  0  0
    3.1656    0.4012    3.6014 H   0  0  0  0  0  0  0  0  0  0  0  0
    1.9595   -0.6607    4.2969 H   0  0  0  0  0  0  0  0  0  0  0  0
   -3.9379    0.3773   -1.2307 H   0  0  0  0  0  0  0  0  0  0  0  0
   -6.3244   -0.6501   -1.8993 H   0  0  0  0  0  0  0  0  0  0  0  0
   -8.1577   -2.1095   -0.4458 H   0  0  0  0  0  0  0  0  0  0  0  0
   -4.9277   -1.8473    2.0391 H   0  0  0  0  0  0  0  0  0  0  0  0
    0.7460    1.8307   -0.1218 H   0  0  0  0  0  0  0  0  0  0  0  0
    1.7075   -1.8702   -0.4721 H   0  0  0  0  0  0  0  0  0  0  0  0
    2.5279   -2.8174   -2.5876 H   0  0  0  0  0  0  0  0  0  0  0  0
    2.7347   -1.3912   -4.6049 H   0  0  0  0  0  0  0  0  0  0  0  0
    2.1065    1.0049   -4.4993 H   0  0  0  0  0  0  0  0  0  0  0  0
    1.2767    1.9830   -2.3963 H   0  0  0  0  0  0  0  0  0  0  0  0
  1  2  1  0
  2  3  1  0
  3  4  2  0
  3  5  1  0
  5  6  2  0
  6  7  1  0
  6  8  1  0
  8  9  2  0
  9 10  1  0
 10 11  1  0
 11 12  2  3
 12 13  1  0
 13 14  1  0
 14 15  2  0
 15 16  1  0
 16 17  1  0
 11 18  1  0
 18 19  2  0
 18 20  1  0
 20 21  1  0
 21 22  1  0
 22 23  2  0
 23 24  1  0
 24 25  2  0
 25 26  1  0
 26 27  2  0
 21  5  1  0
 27 22  1  0
 20  9  1  0
 17 13  2  0
  1 28  1  0
  1 29  1  0
  1 30  1  0
  7 31  1  0
  7 32  1  0
  7 33  1  0
 12 34  1  0
 14 35  1  0
 15 36  1  0
 17 37  1  0
 21 38  1  0
 23 39  1  0
 24 40  1  0
 25 41  1  0
 26 42  1  0
 27 43  1  0
M  END
$$$$
