
     RDKit          3D

 52 55  0  0  0  0  0  0  0  0999 V2000
    8.4264   -0.8468    0.5803 C   0  0  0  0  0  0  0  0  0  0  0  0
    7.4962   -1.8029    1.3039 C   0  0  0  0  0  0  0  0  0  0  0  0
    6.1398   -1.3491    1.2070 O   0  0  0  0  0  0  0  0  0  0  0  0
    5.4512   -1.7472    0.0977 C   0  0  0  0  0  0  0  0  0  0  0  0
    5.9340   -2.4340   -0.7946 O   0  0  0  0  0  0  0  0  0  0  0  0
    4.0949   -1.2181    0.1323 C   0  0  0  0  0  0  0  0  0  0  0  0
    3.2758   -1.0628   -1.3691 S   0  0  0  0  0  0  0  0  0  0  0  0
    1.9052   -0.3759   -0.6443 C   0  0  0  0  0  0  0  0  0  0  0  0
    0.8466    0.0055   -1.3905 N   0  0  0  0  0  0  0  0  0  0  0  0
   -0.1644    0.5031   -0.7345 C   0  0  0  0  0  0  0  0  0  0  0  0
   -1.4091    0.9500   -1.4742 C   0  0  0  0  0  0  0  0  0  0  0  0
   -1.4463    0.8261   -3.2039 S   0  0  0  0  0  0  0  0  0  0  0  0
   -2.1256   -0.8446   -3.4058 C   0  0  0  0  0  0  0  0  0  0  0  0
   -1.2114   -1.8981   -2.8388 C   0  0  0  0  0  0  0  0  0  0  0  0
   -1.3139   -2.4063   -1.7308 O   0  0  0  0  0  0  0  0  0  0  0  0
   -0.2086   -2.2381   -3.6699 O   0  0  0  0  0  0  0  0  0  0  0  0
   -2.4430    1.4678   -0.7953 C   0  0  0  0  0  0  0  0  0  0  0  0
   -2.4094    1.5673    0.6429 C   0  0  0  0  0  0  0  0  0  0  0  0
   -3.5340    2.1232    1.4560 C   0  0  0  0  0  0  0  0  0  0  0  0
   -3.3185    2.7815    2.4727 O   0  0  0  0  0  0  0  0  0  0  0  0
   -4.9337    1.9278    1.0050 C   0  0  0  0  0  0  0  0  0  0  0  0
   -5.8046    3.0208    1.1209 C   0  0  0  0  0  0  0  0  0  0  0  0
   -7.1363    2.8997    0.7275 C   0  0  0  0  0  0  0  0  0  0  0  0
   -7.6088    1.6822    0.2330 C   0  0  0  0  0  0  0  0  0  0  0  0
   -6.7563    0.5816    0.1414 C   0  0  0  0  0  0  0  0  0  0  0  0
   -5.4231    0.7022    0.5349 C   0  0  0  0  0  0  0  0  0  0  0  0
   -4.6063   -0.3920    0.4706 O   0  0  0  0  0  0  0  0  0  0  0  0
   -1.3057    1.1950    1.3064 C   0  0  0  0  0  0  0  0  0  0  0  0
   -0.1871    0.6622    0.6644 N   0  0  0  0  0  0  0  0  0  0  0  0
    0.9145    0.2893    1.4573 C   0  0  0  0  0  0  0  0  0  0  0  0
    0.9582    0.4346    2.6785 O   0  0  0  0  0  0  0  0  0  0  0  0
    2.0309   -0.2861    0.7188 C   0  0  0  0  0  0  0  0  0  0  0  0
    3.2944   -0.8048    1.1981 C   0  0  0  0  0  0  0  0  0  0  0  0
    3.6751   -0.8803    2.6463 C   0  0  0  0  0  0  0  0  0  0  0  0
    8.1852   -0.7949   -0.4858 H   0  0  0  0  0  0  0  0  0  0  0  0
    9.4682   -1.1659    0.6865 H   0  0  0  0  0  0  0  0  0  0  0  0
    8.3258    0.1688    0.9796 H   0  0  0  0  0  0  0  0  0  0  0  0
    7.6021   -2.8263    0.9272 H   0  0  0  0  0  0  0  0  0  0  0  0
    7.7496   -1.8263    2.3696 H   0  0  0  0  0  0  0  0  0  0  0  0
   -3.1036   -0.9228   -2.9162 H   0  0  0  0  0  0  0  0  0  0  0  0
   -2.2862   -1.0490   -4.4696 H   0  0  0  0  0  0  0  0  0  0  0  0
    0.3972   -2.7796   -3.1219 H   0  0  0  0  0  0  0  0  0  0  0  0
   -3.3264    1.8249   -1.3162 H   0  0  0  0  0  0  0  0  0  0  0  0
   -5.4386    3.9696    1.5132 H   0  0  0  0  0  0  0  0  0  0  0  0
   -7.8057    3.7528    0.8127 H   0  0  0  0  0  0  0  0  0  0  0  0
   -8.6487    1.5940   -0.0747 H   0  0  0  0  0  0  0  0  0  0  0  0
   -7.1444   -0.3572   -0.2411 H   0  0  0  0  0  0  0  0  0  0  0  0
   -5.1442   -1.1859    0.3094 H   0  0  0  0  0  0  0  0  0  0  0  0
   -1.2473    1.2857    2.3907 H   0  0  0  0  0  0  0  0  0  0  0  0
    4.3265   -1.7376    2.8443 H   0  0  0  0  0  0  0  0  0  0  0  0
    4.1925    0.0351    2.9506 H   0  0  0  0  0  0  0  0  0  0  0  0
    2.8010   -1.0184    3.2877 H   0  0  0  0  0  0  0  0  0  0  0  0
  1  2  1  0
  2  3  1  0
  3  4  1  0
  4  5  2  0
  4  6  1  0
  6  7  1  0
  7  8  1  0
  8  9  1  0
  9 10  2  0
 10 11  1  0
 11 12  1  0
 12 13  1  0
 13 14  1  0
 14 15  2  0
 14 16  1  0
 11 17  2  0
 17 18  1  0
 18 19  1  0
 19 20  2  0
 19 21  1  0
 21 22  2  0
 22 23  1  0
 23 24  2  0
 24 25  1  0
 25 26  2  0
 26 27  1  0
 18 28  2  0
 28 29  1  0
 29 30  1  0
 30 31  2  0
 30 32  1  0
 32 33  1  0
 33 34  1  0
 33  6  2  0
 32  8  2  0
 29 10  1  0
 26 21  1  0
  1 35  1  0
  1 36  1  0
  1 37  1  0
  2 38  1  0
  2 39  1  0
 13 40  1  0
 13 41  1  0
 16 42  1  0
 17 43  1  0
 22 44  1  0
 23 45  1  0
 24 46  1  0
 25 47  1  0
 27 48  1  0
 28 49  1  0
 34 50  1  0
 34 51  1  0
 34 52  1  0
M  END
$$$$
