
     RDKit          3D

 45 47  0  0  0  0  0  0  0  0999 V2000
    0.2461   -0.4827    3.5624 O   0  0  0  0  0  0  0  0  0  0  0  0
    0.3971   -0.1631    2.3900 C   0  0  0  0  0  0  0  0  0  0  0  0
    1.6789   -0.4513    1.7015 C   0  0  0  0  0  0  0  0  0  0  0  0
    2.1867    0.3114    0.7206 C   0  0  0  0  0  0  0  0  0  0  0  0
    3.4780    0.0475    0.0684 C   0  0  0  0  0  0  0  0  0  0  0  0
    3.9217   -1.2654   -0.2116 C   0  0  0  0  0  0  0  0  0  0  0  0
    5.1403   -1.4938   -0.8621 C   0  0  0  0  0  0  0  0  0  0  0  0
    5.8860   -0.3964   -1.2291 C   0  0  0  0  0  0  0  0  0  0  0  0
    5.4577    0.8839   -0.9747 C   0  0  0  0  0  0  0  0  0  0  0  0
    4.2615    1.1394   -0.3358 C   0  0  0  0  0  0  0  0  0  0  0  0
    6.3345    1.8226   -1.4222 O   0  0  0  0  0  0  0  0  0  0  0  0
    7.3688    0.9842   -1.9788 C   0  0  0  0  0  0  0  0  0  0  0  0
    7.0855   -0.4262   -1.8676 O   0  0  0  0  0  0  0  0  0  0  0  0
   -0.5778    0.3966    1.6049 N   0  0  0  0  0  0  0  0  0  0  0  0
   -1.9107    0.6525    2.1107 C   0  0  0  0  0  0  0  0  0  0  0  0
   -2.7851   -0.5962    2.1683 C   0  0  0  0  0  0  0  0  0  0  0  0
   -2.9921   -1.3474    0.8430 C   0  0  0  0  0  0  0  0  0  0  0  0
   -3.7479   -0.7265   -0.2472 N   0  0  0  0  0  0  0  0  0  0  0  0
   -2.9568    0.1207   -1.1485 C   0  0  0  0  0  0  0  0  0  0  0  0
   -3.8083    0.6072   -2.3339 C   0  0  0  0  0  0  0  0  0  0  0  0
   -4.9702    1.3150   -1.8803 O   0  0  0  0  0  0  0  0  0  0  0  0
   -5.7716    0.4596   -1.0525 C   0  0  0  0  0  0  0  0  0  0  0  0
   -4.9771   -0.0347    0.1680 C   0  0  0  0  0  0  0  0  0  0  0  0
    2.2189   -1.2951    2.1184 H   0  0  0  0  0  0  0  0  0  0  0  0
    1.6720    1.2097    0.3894 H   0  0  0  0  0  0  0  0  0  0  0  0
    3.3159   -2.1251    0.0673 H   0  0  0  0  0  0  0  0  0  0  0  0
    5.4844   -2.4997   -1.0749 H   0  0  0  0  0  0  0  0  0  0  0  0
    3.9554    2.1635   -0.1498 H   0  0  0  0  0  0  0  0  0  0  0  0
    8.3098    1.1953   -1.4576 H   0  0  0  0  0  0  0  0  0  0  0  0
    7.4900    1.2347   -3.0389 H   0  0  0  0  0  0  0  0  0  0  0  0
   -0.4240    0.4741    0.6098 H   0  0  0  0  0  0  0  0  0  0  0  0
   -1.8167    1.0659    3.1219 H   0  0  0  0  0  0  0  0  0  0  0  0
   -2.3617    1.4306    1.4903 H   0  0  0  0  0  0  0  0  0  0  0  0
   -2.3344   -1.3049    2.8756 H   0  0  0  0  0  0  0  0  0  0  0  0
   -3.7561   -0.3303    2.6025 H   0  0  0  0  0  0  0  0  0  0  0  0
   -2.0239   -1.7011    0.4659 H   0  0  0  0  0  0  0  0  0  0  0  0
   -3.5340   -2.2687    1.0968 H   0  0  0  0  0  0  0  0  0  0  0  0
   -2.0992   -0.4373   -1.5407 H   0  0  0  0  0  0  0  0  0  0  0  0
   -2.5754    0.9982   -0.6186 H   0  0  0  0  0  0  0  0  0  0  0  0
   -4.1192   -0.2297   -2.9711 H   0  0  0  0  0  0  0  0  0  0  0  0
   -3.2226    1.2952   -2.9521 H   0  0  0  0  0  0  0  0  0  0  0  0
   -6.1429   -0.3800   -1.6526 H   0  0  0  0  0  0  0  0  0  0  0  0
   -6.6385    1.0395   -0.7200 H   0  0  0  0  0  0  0  0  0  0  0  0
   -4.7301    0.8331    0.7912 H   0  0  0  0  0  0  0  0  0  0  0  0
   -5.6129   -0.7084    0.7533 H   0  0  0  0  0  0  0  0  0  0  0  0
  1  2  2  0
  2  3  1  0
  3  4  2  3
  4  5  1  0
  5  6  2  0
  6  7  1  0
  7  8  2  0
  8  9  1  0
  9 10  2  0
  9 11  1  0
 11 12  1  0
 12 13  1  0
  2 14  1  0
 14 15  1  0
 15 16  1  0
 16 17  1  0
 17 18  1  0
 18 19  1  0
 19 20  1  0
 20 21  1  0
 21 22  1  0
 22 23  1  0
 10  5  1  0
 23 18  1  0
 13  8  1  0
  3 24  1  0
  4 25  1  0
  6 26  1  0
  7 27  1  0
 10 28  1  0
 12 29  1  0
 12 30  1  0
 14 31  1  0
 15 32  1  0
 15 33  1  0
 16 34  1  0
 16 35  1  0
 17 36  1  0
 17 37  1  0
 19 38  1  0
 19 39  1  0
 20 40  1  0
 20 41  1  0
 22 42  1  0
 22 43  1  0
 23 44  1  0
 23 45  1  0
M  END
$$$$
