
     RDKit          3D

 43 45  0  0  0  0  0  0  0  0999 V2000
    5.8653    1.9798   -2.5896 C   0  0  0  0  0  0  0  0  0  0  0  0
    6.2783    1.5483   -1.2997 O   0  0  0  0  0  0  0  0  0  0  0  0
    5.3791    0.8207   -0.5689 C   0  0  0  0  0  0  0  0  0  0  0  0
    5.8579    0.3760    0.6636 C   0  0  0  0  0  0  0  0  0  0  0  0
    5.0391   -0.3655    1.5124 C   0  0  0  0  0  0  0  0  0  0  0  0
    3.7337   -0.6764    1.1282 C   0  0  0  0  0  0  0  0  0  0  0  0
    3.2458   -0.2627   -0.1122 C   0  0  0  0  0  0  0  0  0  0  0  0
    1.9231   -0.5039   -0.5495 N   0  0  0  0  0  0  0  0  0  0  0  0
    1.0222   -1.5075   -0.2075 C   0  0  0  0  0  0  0  0  0  0  0  0
    1.4705   -3.0247    0.3643 S   0  0  0  0  0  0  0  0  0  0  0  0
   -0.3143   -1.1284   -0.4632 N   0  0  0  0  0  0  0  0  0  0  0  0
   -1.4650   -2.0407   -0.3032 C   0  0  0  0  0  0  0  0  0  0  0  0
   -2.4335   -1.5602    0.7961 C   0  0  0  0  0  0  0  0  0  0  0  0
   -2.8233   -0.1464    0.6147 N   0  0  0  0  0  0  0  0  0  0  0  0
   -4.1560    0.1768    0.8775 C   0  0  0  0  0  0  0  0  0  0  0  0
   -4.7904   -0.3052    2.0252 C   0  0  0  0  0  0  0  0  0  0  0  0
   -6.1172    0.0338    2.2885 C   0  0  0  0  0  0  0  0  0  0  0  0
   -6.7916    0.8588    1.4039 C   0  0  0  0  0  0  0  0  0  0  0  0
   -6.1008    1.3125    0.2974 C   0  0  0  0  0  0  0  0  0  0  0  0
   -4.8145    0.9945    0.0256 N   0  0  0  0  0  0  0  0  0  0  0  0
   -2.2223    0.5497   -0.5327 C   0  0  0  0  0  0  0  0  0  0  0  0
   -0.7013    0.2962   -0.5766 C   0  0  0  0  0  0  0  0  0  0  0  0
    4.0701    0.5089   -0.9475 C   0  0  0  0  0  0  0  0  0  0  0  0
    5.0213    2.6739   -2.5210 H   0  0  0  0  0  0  0  0  0  0  0  0
    6.7019    2.5176   -3.0461 H   0  0  0  0  0  0  0  0  0  0  0  0
    5.6259    1.1276   -3.2342 H   0  0  0  0  0  0  0  0  0  0  0  0
    6.8738    0.6158    0.9674 H   0  0  0  0  0  0  0  0  0  0  0  0
    5.4129   -0.6946    2.4784 H   0  0  0  0  0  0  0  0  0  0  0  0
    3.1090   -1.2141    1.8340 H   0  0  0  0  0  0  0  0  0  0  0  0
    1.6573   -0.0065   -1.3874 H   0  0  0  0  0  0  0  0  0  0  0  0
   -1.1656   -3.0702   -0.1005 H   0  0  0  0  0  0  0  0  0  0  0  0
   -1.9815   -2.0590   -1.2714 H   0  0  0  0  0  0  0  0  0  0  0  0
   -3.3043   -2.2278    0.7841 H   0  0  0  0  0  0  0  0  0  0  0  0
   -1.9478   -1.6566    1.7744 H   0  0  0  0  0  0  0  0  0  0  0  0
   -4.2519   -0.9266    2.7326 H   0  0  0  0  0  0  0  0  0  0  0  0
   -6.6096   -0.3382    3.1819 H   0  0  0  0  0  0  0  0  0  0  0  0
   -7.8218    1.1476    1.5749 H   0  0  0  0  0  0  0  0  0  0  0  0
   -6.5746    1.9682   -0.4271 H   0  0  0  0  0  0  0  0  0  0  0  0
   -2.3783    1.6336   -0.4621 H   0  0  0  0  0  0  0  0  0  0  0  0
   -2.6800    0.2026   -1.4684 H   0  0  0  0  0  0  0  0  0  0  0  0
   -0.2999    0.6907   -1.5163 H   0  0  0  0  0  0  0  0  0  0  0  0
   -0.2203    0.8334    0.2503 H   0  0  0  0  0  0  0  0  0  0  0  0
    3.6789    0.8483   -1.8997 H   0  0  0  0  0  0  0  0  0  0  0  0
  1  2  1  0
  2  3  1  0
  3  4  2  0
  4  5  1  0
  5  6  2  0
  6  7  1  0
  7  8  1  0
  8  9  1  0
  9 10  2  0
  9 11  1  0
 11 12  1  0
 12 13  1  0
 13 14  1  0
 14 15  1  0
 15 16  2  0
 16 17  1  0
 17 18  2  0
 18 19  1  0
 19 20  2  0
 14 21  1  0
 21 22  1  0
  7 23  2  0
 23  3  1  0
 22 11  1  0
 20 15  1  0
  1 24  1  0
  1 25  1  0
  1 26  1  0
  4 27  1  0
  5 28  1  0
  6 29  1  0
  8 30  1  0
 12 31  1  0
 12 32  1  0
 13 33  1  0
 13 34  1  0
 16 35  1  0
 17 36  1  0
 18 37  1  0
 19 38  1  0
 21 39  1  0
 21 40  1  0
 22 41  1  0
 22 42  1  0
 23 43  1  0
M  END
$$$$
