
     RDKit          3D

 55 58  0  0  0  0  0  0  0  0999 V2000
   -7.7271   -0.2561    1.4737 C   0  0  0  0  0  0  0  0  0  0  0  0
   -6.9546   -0.5546    0.3201 O   0  0  0  0  0  0  0  0  0  0  0  0
   -5.6341   -0.1803    0.3246 C   0  0  0  0  0  0  0  0  0  0  0  0
   -4.9956    0.4527    1.3919 C   0  0  0  0  0  0  0  0  0  0  0  0
   -3.6415    0.7929    1.3035 C   0  0  0  0  0  0  0  0  0  0  0  0
   -2.8842    0.5073    0.1562 C   0  0  0  0  0  0  0  0  0  0  0  0
   -1.4522    0.8660    0.0930 C   0  0  0  0  0  0  0  0  0  0  0  0
   -0.5146    0.1052   -0.5825 C   0  0  0  0  0  0  0  0  0  0  0  0
    0.8127    0.5315   -0.5745 C   0  0  0  0  0  0  0  0  0  0  0  0
    1.7801   -0.3196   -1.2927 C   0  0  0  0  0  0  0  0  0  0  0  0
    1.6691   -0.3892   -2.5138 O   0  0  0  0  0  0  0  0  0  0  0  0
    2.7532   -1.0066   -0.5584 N   0  0  0  0  0  0  0  0  0  0  0  0
    2.6023   -1.3094    0.8677 C   0  0  0  0  0  0  0  0  0  0  0  0
    3.9524   -1.4052    1.5666 C   0  0  0  0  0  0  0  0  0  0  0  0
    4.8861   -2.3699    0.8415 C   0  0  0  0  0  0  0  0  0  0  0  0
    5.0215   -2.0547   -0.6546 C   0  0  0  0  0  0  0  0  0  0  0  0
    5.9006   -0.8442   -0.9267 C   0  0  0  0  0  0  0  0  0  0  0  0
    5.3976    0.3011   -0.4248 F   0  0  0  0  0  0  0  0  0  0  0  0
    7.1272   -1.0197   -0.3810 F   0  0  0  0  0  0  0  0  0  0  0  0
    6.0825   -0.6675   -2.2544 F   0  0  0  0  0  0  0  0  0  0  0  0
    3.6517   -1.8824   -1.3088 C   0  0  0  0  0  0  0  0  0  0  0  0
    1.1982    1.7283    0.0621 C   0  0  0  0  0  0  0  0  0  0  0  0
    2.5121    2.2602    0.0631 C   0  0  0  0  0  0  0  0  0  0  0  0
    2.8050    3.4445    0.7351 C   0  0  0  0  0  0  0  0  0  0  0  0
    1.7933    4.1144    1.4079 C   0  0  0  0  0  0  0  0  0  0  0  0
    0.4952    3.5978    1.3979 C   0  0  0  0  0  0  0  0  0  0  0  0
    0.1764    2.4205    0.7337 C   0  0  0  0  0  0  0  0  0  0  0  0
   -1.0985    1.9928    0.7612 N   0  0  0  0  0  0  0  0  0  0  0  0
   -3.5453   -0.1201   -0.9174 C   0  0  0  0  0  0  0  0  0  0  0  0
   -4.9034   -0.4657   -0.8440 C   0  0  0  0  0  0  0  0  0  0  0  0
   -5.6014   -1.0836   -1.8532 O   0  0  0  0  0  0  0  0  0  0  0  0
   -4.9259   -1.3197   -3.0799 C   0  0  0  0  0  0  0  0  0  0  0  0
   -8.7469   -0.6096    1.2941 H   0  0  0  0  0  0  0  0  0  0  0  0
   -7.3433   -0.7836    2.3530 H   0  0  0  0  0  0  0  0  0  0  0  0
   -7.7763    0.8237    1.6493 H   0  0  0  0  0  0  0  0  0  0  0  0
   -5.5184    0.6995    2.3094 H   0  0  0  0  0  0  0  0  0  0  0  0
   -3.1707    1.2894    2.1513 H   0  0  0  0  0  0  0  0  0  0  0  0
   -0.7868   -0.8104   -1.0967 H   0  0  0  0  0  0  0  0  0  0  0  0
    1.9852   -0.5664    1.3768 H   0  0  0  0  0  0  0  0  0  0  0  0
    2.0675   -2.2649    0.9367 H   0  0  0  0  0  0  0  0  0  0  0  0
    4.4120   -0.4117    1.6178 H   0  0  0  0  0  0  0  0  0  0  0  0
    3.8085   -1.7389    2.6007 H   0  0  0  0  0  0  0  0  0  0  0  0
    5.8693   -2.3687    1.3255 H   0  0  0  0  0  0  0  0  0  0  0  0
    4.4881   -3.3871    0.9500 H   0  0  0  0  0  0  0  0  0  0  0  0
    5.5168   -2.9104   -1.1318 H   0  0  0  0  0  0  0  0  0  0  0  0
    3.7643   -1.5238   -2.3383 H   0  0  0  0  0  0  0  0  0  0  0  0
    3.1500   -2.8568   -1.3727 H   0  0  0  0  0  0  0  0  0  0  0  0
    3.3172    1.7555   -0.4681 H   0  0  0  0  0  0  0  0  0  0  0  0
    3.8172    3.8411    0.7269 H   0  0  0  0  0  0  0  0  0  0  0  0
    2.0047    5.0416    1.9343 H   0  0  0  0  0  0  0  0  0  0  0  0
   -0.2944    4.1351    1.9192 H   0  0  0  0  0  0  0  0  0  0  0  0
   -2.9841   -0.3201   -1.8245 H   0  0  0  0  0  0  0  0  0  0  0  0
   -4.5884   -0.3819   -3.5335 H   0  0  0  0  0  0  0  0  0  0  0  0
   -5.6372   -1.7850   -3.7693 H   0  0  0  0  0  0  0  0  0  0  0  0
   -4.0930   -2.0170   -2.9431 H   0  0  0  0  0  0  0  0  0  0  0  0
  1  2  1  0
  2  3  1  0
  3  4  2  0
  4  5  1  0
  5  6  2  0
  6  7  1  0
  7  8  2  0
  8  9  1  0
  9 10  1  0
 10 11  2  0
 10 12  1  0
 12 13  1  0
 13 14  1  0
 14 15  1  0
 15 16  1  0
 16 17  1  0
 17 18  1  0
 17 19  1  0
 17 20  1  0
 16 21  1  0
  9 22  2  0
 22 23  1  0
 23 24  2  0
 24 25  1  0
 25 26  2  0
 26 27  1  0
 27 28  2  0
  6 29  1  0
 29 30  2  0
 30 31  1  0
 31 32  1  0
 30  3  1  0
 28  7  1  0
 21 12  1  0
 27 22  1  0
  1 33  1  0
  1 34  1  0
  1 35  1  0
  4 36  1  0
  5 37  1  0
  8 38  1  0
 13 39  1  0
 13 40  1  0
 14 41  1  0
 14 42  1  0
 15 43  1  0
 15 44  1  0
 16 45  1  0
 21 46  1  0
 21 47  1  0
 23 48  1  0
 24 49  1  0
 25 50  1  0
 26 51  1  0
 29 52  1  0
 32 53  1  0
 32 54  1  0
 32 55  1  0
M  END
$$$$
