
     RDKit          3D

 46 49  0  0  0  0  0  0  0  0999 V2000
    1.9217    0.0105    0.4959 O   0  0  0  0  0  0  0  0  0  0  0  0
    1.7146   -0.5254   -0.5866 C   0  0  0  0  0  0  0  0  0  0  0  0
    0.3044   -0.6662   -1.1682 C   0  0  0  0  0  0  0  0  0  0  0  0
   -0.6923   -0.1119   -0.3161 O   0  0  0  0  0  0  0  0  0  0  0  0
   -1.9452   -0.2252   -0.8131 C   0  0  0  0  0  0  0  0  0  0  0  0
   -2.2693   -0.7349   -1.8714 O   0  0  0  0  0  0  0  0  0  0  0  0
   -2.8807    0.3804    0.1495 C   0  0  0  0  0  0  0  0  0  0  0  0
   -3.4389   -0.4433    1.1642 C   0  0  0  0  0  0  0  0  0  0  0  0
   -3.1613   -1.8247    1.3186 C   0  0  0  0  0  0  0  0  0  0  0  0
   -3.7411   -2.5776    2.3415 C   0  0  0  0  0  0  0  0  0  0  0  0
   -4.6130   -1.9718    3.2354 C   0  0  0  0  0  0  0  0  0  0  0  0
   -4.9053   -0.6151    3.1046 C   0  0  0  0  0  0  0  0  0  0  0  0
   -4.3301    0.1555    2.0796 C   0  0  0  0  0  0  0  0  0  0  0  0
   -4.6386    1.5201    1.9606 C   0  0  0  0  0  0  0  0  0  0  0  0
   -4.0906    2.3235    0.9479 C   0  0  0  0  0  0  0  0  0  0  0  0
   -4.4302    3.6845    0.8602 C   0  0  0  0  0  0  0  0  0  0  0  0
   -3.8982    4.4959   -0.1406 C   0  0  0  0  0  0  0  0  0  0  0  0
   -3.0190    3.9567   -1.0695 C   0  0  0  0  0  0  0  0  0  0  0  0
   -2.6717    2.6066   -0.9946 C   0  0  0  0  0  0  0  0  0  0  0  0
   -3.1956    1.7597    0.0141 C   0  0  0  0  0  0  0  0  0  0  0  0
    2.6653   -1.0715   -1.4347 N   0  0  0  0  0  0  0  0  0  0  0  0
    4.0520   -1.1079   -1.2032 C   0  0  0  0  0  0  0  0  0  0  0  0
    4.5647   -0.5800   -0.0749 N   0  0  0  0  0  0  0  0  0  0  0  0
    5.9033   -0.6330    0.1152 C   0  0  0  0  0  0  0  0  0  0  0  0
    6.7885   -1.2069   -0.7826 C   0  0  0  0  0  0  0  0  0  0  0  0
    8.2589   -1.1997   -0.5024 C   0  0  0  0  0  0  0  0  0  0  0  0
    8.8614   -0.0619   -0.9404 F   0  0  0  0  0  0  0  0  0  0  0  0
    8.5523   -1.2971    0.8224 F   0  0  0  0  0  0  0  0  0  0  0  0
    8.9167   -2.2278   -1.1061 F   0  0  0  0  0  0  0  0  0  0  0  0
    6.2529   -1.7457   -1.9561 C   0  0  0  0  0  0  0  0  0  0  0  0
    4.8747   -1.7000   -2.1688 C   0  0  0  0  0  0  0  0  0  0  0  0
    4.2357   -2.3774   -3.6238 Cl  0  0  0  0  0  0  0  0  0  0  0  0
    0.1080   -1.7358   -1.3118 H   0  0  0  0  0  0  0  0  0  0  0  0
    0.2886   -0.1469   -2.1343 H   0  0  0  0  0  0  0  0  0  0  0  0
   -2.4846   -2.3354    0.6360 H   0  0  0  0  0  0  0  0  0  0  0  0
   -3.5089   -3.6352    2.4367 H   0  0  0  0  0  0  0  0  0  0  0  0
   -5.0665   -2.5522    4.0346 H   0  0  0  0  0  0  0  0  0  0  0  0
   -5.5920   -0.1601    3.8159 H   0  0  0  0  0  0  0  0  0  0  0  0
   -5.3275    1.9694    2.6755 H   0  0  0  0  0  0  0  0  0  0  0  0
   -5.1182    4.1273    1.5779 H   0  0  0  0  0  0  0  0  0  0  0  0
   -4.1715    5.5465   -0.1929 H   0  0  0  0  0  0  0  0  0  0  0  0
   -2.6008    4.5830   -1.8533 H   0  0  0  0  0  0  0  0  0  0  0  0
   -1.9815    2.2196   -1.7420 H   0  0  0  0  0  0  0  0  0  0  0  0
    2.3586   -1.4874   -2.3053 H   0  0  0  0  0  0  0  0  0  0  0  0
    6.2431   -0.1824    1.0466 H   0  0  0  0  0  0  0  0  0  0  0  0
    6.9075   -2.1989   -2.6983 H   0  0  0  0  0  0  0  0  0  0  0  0
  1  2  2  0
  2  3  1  0
  3  4  1  0
  4  5  1  0
  5  6  2  0
  5  7  1  0
  7  8  1  0
  8  9  2  0
  9 10  1  0
 10 11  2  0
 11 12  1  0
 12 13  2  0
 13 14  1  0
 14 15  2  0
 15 16  1  0
 16 17  2  0
 17 18  1  0
 18 19  2  0
 19 20  1  0
  2 21  1  0
 21 22  1  0
 22 23  2  0
 23 24  1  0
 24 25  2  0
 25 26  1  0
 26 27  1  0
 26 28  1  0
 26 29  1  0
 25 30  1  0
 30 31  2  0
 31 32  1  0
 20  7  2  0
 31 22  1  0
 13  8  1  0
 20 15  1  0
  3 33  1  0
  3 34  1  0
  9 35  1  0
 10 36  1  0
 11 37  1  0
 12 38  1  0
 14 39  1  0
 16 40  1  0
 17 41  1  0
 18 42  1  0
 19 43  1  0
 21 44  1  0
 24 45  1  0
 30 46  1  0
M  END
$$$$
