
     RDKit          3D

 59 62  0  0  0  0  0  0  0  0999 V2000
    4.9600   -2.9599   -2.2060 C   0  0  0  0  0  0  0  0  0  0  0  0
    5.6296   -2.0015   -1.3950 O   0  0  0  0  0  0  0  0  0  0  0  0
    4.8598   -1.0194   -0.8241 C   0  0  0  0  0  0  0  0  0  0  0  0
    3.4583   -1.0442   -0.7521 C   0  0  0  0  0  0  0  0  0  0  0  0
    2.7500   -0.0026   -0.1394 C   0  0  0  0  0  0  0  0  0  0  0  0
    1.3411    0.0335   -0.0370 N   0  0  0  0  0  0  0  0  0  0  0  0
    0.4501   -0.9700   -0.3722 C   0  0  0  0  0  0  0  0  0  0  0  0
    0.7158   -2.1077   -0.7326 O   0  0  0  0  0  0  0  0  0  0  0  0
   -0.9721   -0.5979   -0.2227 C   0  0  0  0  0  0  0  0  0  0  0  0
   -1.4610    0.6381   -0.6709 C   0  0  0  0  0  0  0  0  0  0  0  0
   -2.8108    0.9541   -0.4966 C   0  0  0  0  0  0  0  0  0  0  0  0
   -3.3764    2.2508   -0.9388 C   0  0  0  0  0  0  0  0  0  0  0  0
   -2.6434    3.4523   -0.8706 C   0  0  0  0  0  0  0  0  0  0  0  0
   -3.1976    4.6704   -1.2833 C   0  0  0  0  0  0  0  0  0  0  0  0
   -4.5001    4.7128   -1.7747 C   0  0  0  0  0  0  0  0  0  0  0  0
   -5.2486    3.5423   -1.8458 C   0  0  0  0  0  0  0  0  0  0  0  0
   -4.6936    2.3264   -1.4312 C   0  0  0  0  0  0  0  0  0  0  0  0
   -3.7010    0.1132    0.0856 N   0  0  0  0  0  0  0  0  0  0  0  0
   -3.1893   -1.0713    0.4806 C   0  0  0  0  0  0  0  0  0  0  0  0
   -1.8753   -1.4930    0.3615 C   0  0  0  0  0  0  0  0  0  0  0  0
   -1.8653   -2.7842    0.9295 C   0  0  0  0  0  0  0  0  0  0  0  0
   -3.0626   -3.1541    1.3991 N   0  0  0  0  0  0  0  0  0  0  0  0
   -3.8596   -2.1005    1.0969 N   0  0  0  0  0  0  0  0  0  0  0  0
   -5.2704   -2.1096    1.4683 C   0  0  0  0  0  0  0  0  0  0  0  0
   -5.4352   -1.8459    2.9653 C   0  0  0  0  0  0  0  0  0  0  0  0
   -5.9711   -3.4037    1.0575 C   0  0  0  0  0  0  0  0  0  0  0  0
    3.4534    1.0867    0.3875 C   0  0  0  0  0  0  0  0  0  0  0  0
    4.8447    1.1302    0.3027 C   0  0  0  0  0  0  0  0  0  0  0  0
    5.4868    2.2064    0.8611 O   0  0  0  0  0  0  0  0  0  0  0  0
    5.9408    3.1048   -0.1560 C   0  0  0  0  0  0  0  0  0  0  0  0
    5.5513    0.0651   -0.2642 C   0  0  0  0  0  0  0  0  0  0  0  0
    6.9235    0.1339   -0.3332 O   0  0  0  0  0  0  0  0  0  0  0  0
    7.5033   -0.5649    0.7685 C   0  0  0  0  0  0  0  0  0  0  0  0
    5.7206   -3.5976   -2.6698 H   0  0  0  0  0  0  0  0  0  0  0  0
    4.3938   -2.4743   -3.0090 H   0  0  0  0  0  0  0  0  0  0  0  0
    4.3185   -3.6050   -1.5964 H   0  0  0  0  0  0  0  0  0  0  0  0
    2.9154   -1.8804   -1.1745 H   0  0  0  0  0  0  0  0  0  0  0  0
    0.9572    0.8602    0.4023 H   0  0  0  0  0  0  0  0  0  0  0  0
   -0.7994    1.3317   -1.1844 H   0  0  0  0  0  0  0  0  0  0  0  0
   -1.6314    3.4650   -0.4713 H   0  0  0  0  0  0  0  0  0  0  0  0
   -2.6156    5.5868   -1.2059 H   0  0  0  0  0  0  0  0  0  0  0  0
   -4.9324    5.6627   -2.0875 H   0  0  0  0  0  0  0  0  0  0  0  0
   -6.2687    3.5696   -2.2225 H   0  0  0  0  0  0  0  0  0  0  0  0
   -5.3013    1.4242   -1.4993 H   0  0  0  0  0  0  0  0  0  0  0  0
   -1.0294   -3.4657    1.0307 H   0  0  0  0  0  0  0  0  0  0  0  0
   -5.7459   -1.2885    0.9170 H   0  0  0  0  0  0  0  0  0  0  0  0
   -4.9771   -2.6426    3.5628 H   0  0  0  0  0  0  0  0  0  0  0  0
   -4.9594   -0.9028    3.2489 H   0  0  0  0  0  0  0  0  0  0  0  0
   -6.4945   -1.7860    3.2373 H   0  0  0  0  0  0  0  0  0  0  0  0
   -5.5911   -4.2626    1.6199 H   0  0  0  0  0  0  0  0  0  0  0  0
   -5.8203   -3.6147   -0.0056 H   0  0  0  0  0  0  0  0  0  0  0  0
   -7.0512   -3.3349    1.2420 H   0  0  0  0  0  0  0  0  0  0  0  0
    2.9383    1.9116    0.8701 H   0  0  0  0  0  0  0  0  0  0  0  0
    6.3823    2.5920   -1.0267 H   0  0  0  0  0  0  0  0  0  0  0  0
    6.7067    3.7513    0.2837 H   0  0  0  0  0  0  0  0  0  0  0  0
    5.1076    3.7383   -0.4805 H   0  0  0  0  0  0  0  0  0  0  0  0
    8.5856   -0.4039    0.7348 H   0  0  0  0  0  0  0  0  0  0  0  0
    7.3211   -1.6437    0.6960 H   0  0  0  0  0  0  0  0  0  0  0  0
    7.1352   -0.1810    1.7262 H   0  0  0  0  0  0  0  0  0  0  0  0
  1  2  1  0
  2  3  1  0
  3  4  2  0
  4  5  1  0
  5  6  1  0
  6  7  1  0
  7  8  2  0
  7  9  1  0
  9 10  2  0
 10 11  1  0
 11 12  1  0
 12 13  2  0
 13 14  1  0
 14 15  2  0
 15 16  1  0
 16 17  2  0
 11 18  2  0
 18 19  1  0
 19 20  2  0
 20 21  1  0
 21 22  2  0
 22 23  1  0
 23 24  1  0
 24 25  1  0
 24 26  1  0
  5 27  2  0
 27 28  1  0
 28 29  1  0
 29 30  1  0
 28 31  2  0
 31 32  1  0
 32 33  1  0
 31  3  1  0
 20  9  1  0
 17 12  1  0
 23 19  1  0
  1 34  1  0
  1 35  1  0
  1 36  1  0
  4 37  1  0
  6 38  1  0
 10 39  1  0
 13 40  1  0
 14 41  1  0
 15 42  1  0
 16 43  1  0
 17 44  1  0
 21 45  1  0
 24 46  1  0
 25 47  1  0
 25 48  1  0
 25 49  1  0
 26 50  1  0
 26 51  1  0
 26 52  1  0
 27 53  1  0
 30 54  1  0
 30 55  1  0
 30 56  1  0
 33 57  1  0
 33 58  1  0
 33 59  1  0
M  END
$$$$
