
     RDKit          3D

 36 39  0  0  0  0  0  0  0  0999 V2000
   -1.7868   -0.8785    2.8043 C   0  0  0  0  0  0  0  0  0  0  0  0
   -0.9496   -0.4919    1.6397 C   0  0  0  0  0  0  0  0  0  0  0  0
    0.3815   -0.4823    1.7611 N   0  0  0  0  0  0  0  0  0  0  0  0
    0.8447   -0.1200    0.5396 N   0  0  0  0  0  0  0  0  0  0  0  0
    2.1847    0.0366    0.1530 C   0  0  0  0  0  0  0  0  0  0  0  0
    2.4556    0.4195   -1.1088 C   0  0  0  0  0  0  0  0  0  0  0  0
    1.2820    0.6308   -1.9969 C   0  0  0  0  0  0  0  0  0  0  0  0
    0.0350    0.4849   -1.6622 N   0  0  0  0  0  0  0  0  0  0  0  0
   -0.2011    0.1061   -0.3652 C   0  0  0  0  0  0  0  0  0  0  0  0
   -1.3716   -0.1192    0.3378 C   0  0  0  0  0  0  0  0  0  0  0  0
   -2.7078    0.0211   -0.2171 C   0  0  0  0  0  0  0  0  0  0  0  0
   -3.6874    0.7455    0.4751 C   0  0  0  0  0  0  0  0  0  0  0  0
   -4.9786    0.8677   -0.0449 C   0  0  0  0  0  0  0  0  0  0  0  0
   -5.3012    0.2682   -1.2608 C   0  0  0  0  0  0  0  0  0  0  0  0
   -4.3334   -0.4504   -1.9599 C   0  0  0  0  0  0  0  0  0  0  0  0
   -3.0423   -0.5732   -1.4408 C   0  0  0  0  0  0  0  0  0  0  0  0
    3.8473    0.6453   -1.5593 C   0  0  0  0  0  0  0  0  0  0  0  0
    4.0768    0.9832   -2.7181 O   0  0  0  0  0  0  0  0  0  0  0  0
    4.9532    0.5208   -0.5346 C   0  0  0  0  0  0  0  0  0  0  0  0
    4.6107   -0.5231    0.5177 C   0  0  0  0  0  0  0  0  0  0  0  0
    3.2574   -0.2439    1.1712 C   0  0  0  0  0  0  0  0  0  0  0  0
   -2.1682    0.0137    3.3106 H   0  0  0  0  0  0  0  0  0  0  0  0
   -1.2119   -1.4620    3.5313 H   0  0  0  0  0  0  0  0  0  0  0  0
   -2.6375   -1.4907    2.4886 H   0  0  0  0  0  0  0  0  0  0  0  0
    1.5140    0.9392   -3.0305 H   0  0  0  0  0  0  0  0  0  0  0  0
   -3.4522    1.2357    1.4163 H   0  0  0  0  0  0  0  0  0  0  0  0
   -5.7300    1.4363    0.4966 H   0  0  0  0  0  0  0  0  0  0  0  0
   -6.3044    0.3663   -1.6673 H   0  0  0  0  0  0  0  0  0  0  0  0
   -4.5794   -0.9130   -2.9120 H   0  0  0  0  0  0  0  0  0  0  0  0
   -2.2977   -1.1344   -2.0012 H   0  0  0  0  0  0  0  0  0  0  0  0
    5.1092    1.5034   -0.0764 H   0  0  0  0  0  0  0  0  0  0  0  0
    5.8747    0.2272   -1.0488 H   0  0  0  0  0  0  0  0  0  0  0  0
    4.5847   -1.5154    0.0481 H   0  0  0  0  0  0  0  0  0  0  0  0
    5.3936   -0.5542    1.2838 H   0  0  0  0  0  0  0  0  0  0  0  0
    3.3408    0.6159    1.8472 H   0  0  0  0  0  0  0  0  0  0  0  0
    2.9951   -1.1155    1.7828 H   0  0  0  0  0  0  0  0  0  0  0  0
  1  2  1  0
  2  3  2  0
  3  4  1  0
  4  5  1  0
  5  6  2  0
  6  7  1  0
  7  8  2  0
  8  9  1  0
  9 10  2  0
 10 11  1  0
 11 12  2  0
 12 13  1  0
 13 14  2  0
 14 15  1  0
 15 16  2  0
  6 17  1  0
 17 18  2  0
 17 19  1  0
 19 20  1  0
 20 21  1  0
 10  2  1  0
 16 11  1  0
  9  4  1  0
 21  5  1  0
  1 22  1  0
  1 23  1  0
  1 24  1  0
  7 25  1  0
 12 26  1  0
 13 27  1  0
 14 28  1  0
 15 29  1  0
 16 30  1  0
 19 31  1  0
 19 32  1  0
 20 33  1  0
 20 34  1  0
 21 35  1  0
 21 36  1  0
M  END
$$$$
