
     RDKit          3D

 56 59  0  0  0  0  0  0  0  0999 V2000
    3.8036   -4.0445    2.7426 C   0  0  0  0  0  0  0  0  0  0  0  0
    4.5234   -3.5931    1.6025 O   0  0  0  0  0  0  0  0  0  0  0  0
    4.0539   -2.4705    0.9788 C   0  0  0  0  0  0  0  0  0  0  0  0
    4.7788   -2.0852   -0.1527 C   0  0  0  0  0  0  0  0  0  0  0  0
    4.4096   -0.9548   -0.8854 C   0  0  0  0  0  0  0  0  0  0  0  0
    3.3124   -0.1998   -0.4810 C   0  0  0  0  0  0  0  0  0  0  0  0
    2.9224    0.9266   -1.2450 N   0  0  0  0  0  0  0  0  0  0  0  0
    1.6401    0.7832   -2.3310 S   0  0  0  0  0  6  0  0  0  0  0  0
    1.6367   -0.5743   -2.8438 O   0  0  0  0  0  0  0  0  0  0  0  0
    1.7287    1.8968   -3.2538 O   0  0  0  0  0  0  0  0  0  0  0  0
    0.1826    1.0015   -1.3363 C   0  0  0  0  0  0  0  0  0  0  0  0
   -0.7771   -0.0288   -1.3679 C   0  0  0  0  0  0  0  0  0  0  0  0
   -1.9347    0.0456   -0.5908 C   0  0  0  0  0  0  0  0  0  0  0  0
   -2.8408   -1.0327   -0.6800 N   0  0  0  0  0  0  0  0  0  0  0  0
   -4.0368   -1.1846   -0.0042 C   0  0  0  0  0  0  0  0  0  0  0  0
   -4.4937   -0.4167    0.8367 O   0  0  0  0  0  0  0  0  0  0  0  0
   -4.8036   -2.4273   -0.2762 C   0  0  0  0  0  0  0  0  0  0  0  0
   -5.5271   -2.9875    0.7869 C   0  0  0  0  0  0  0  0  0  0  0  0
   -6.2650   -4.1532    0.5941 C   0  0  0  0  0  0  0  0  0  0  0  0
   -6.2628   -4.7267   -0.6644 C   0  0  0  0  0  0  0  0  0  0  0  0
   -5.5907   -4.2137   -1.7158 N   0  0  0  0  0  0  0  0  0  0  0  0
   -4.8875   -3.0729   -1.5030 C   0  0  0  0  0  0  0  0  0  0  0  0
   -4.1366   -2.5154   -2.9489 Cl  0  0  0  0  0  0  0  0  0  0  0  0
   -2.1249    1.1658    0.2110 C   0  0  0  0  0  0  0  0  0  0  0  0
   -1.1711    2.1925    0.2371 C   0  0  0  0  0  0  0  0  0  0  0  0
    0.0066    2.1351   -0.5276 C   0  0  0  0  0  0  0  0  0  0  0  0
    0.9400    3.1754   -0.4902 N   0  0  0  0  0  0  0  0  0  0  0  0
    0.5467    4.3467   -1.3010 C   0  0  0  0  0  0  0  0  0  0  0  0
    1.2155    5.5226   -0.5985 C   0  0  0  0  0  0  0  0  0  0  0  0
    1.1030    5.1308    0.8632 C   0  0  0  0  0  0  0  0  0  0  0  0
    1.3957    3.6341    0.8355 C   0  0  0  0  0  0  0  0  0  0  0  0
    2.5777   -0.5804    0.6403 C   0  0  0  0  0  0  0  0  0  0  0  0
    2.9501   -1.7129    1.3730 C   0  0  0  0  0  0  0  0  0  0  0  0
    2.7736   -4.3085    2.4808 H   0  0  0  0  0  0  0  0  0  0  0  0
    3.8298   -3.3004    3.5455 H   0  0  0  0  0  0  0  0  0  0  0  0
    4.2955   -4.9496    3.1117 H   0  0  0  0  0  0  0  0  0  0  0  0
    5.6339   -2.6766   -0.4712 H   0  0  0  0  0  0  0  0  0  0  0  0
    4.9733   -0.6848   -1.7734 H   0  0  0  0  0  0  0  0  0  0  0  0
    3.6281    1.5801   -1.5748 H   0  0  0  0  0  0  0  0  0  0  0  0
   -0.6078   -0.8944   -2.0054 H   0  0  0  0  0  0  0  0  0  0  0  0
   -2.5779   -1.7630   -1.3338 H   0  0  0  0  0  0  0  0  0  0  0  0
   -5.5159   -2.5150    1.7679 H   0  0  0  0  0  0  0  0  0  0  0  0
   -6.8286   -4.5992    1.4071 H   0  0  0  0  0  0  0  0  0  0  0  0
   -6.8210   -5.6370   -0.8685 H   0  0  0  0  0  0  0  0  0  0  0  0
   -3.0102    1.2860    0.8274 H   0  0  0  0  0  0  0  0  0  0  0  0
   -1.3723    3.0578    0.8650 H   0  0  0  0  0  0  0  0  0  0  0  0
   -0.5408    4.4956   -1.3086 H   0  0  0  0  0  0  0  0  0  0  0  0
    0.8931    4.2545   -2.3344 H   0  0  0  0  0  0  0  0  0  0  0  0
    2.2698    5.5922   -0.8918 H   0  0  0  0  0  0  0  0  0  0  0  0
    0.7299    6.4763   -0.8224 H   0  0  0  0  0  0  0  0  0  0  0  0
    1.7961    5.6806    1.5058 H   0  0  0  0  0  0  0  0  0  0  0  0
    0.0831    5.3100    1.2238 H   0  0  0  0  0  0  0  0  0  0  0  0
    2.4771    3.4646    0.8973 H   0  0  0  0  0  0  0  0  0  0  0  0
    0.9345    3.1159    1.6833 H   0  0  0  0  0  0  0  0  0  0  0  0
    1.7235    0.0057    0.9660 H   0  0  0  0  0  0  0  0  0  0  0  0
    2.3579   -1.9727    2.2439 H   0  0  0  0  0  0  0  0  0  0  0  0
  1  2  1  0
  2  3  1  0
  3  4  2  0
  4  5  1  0
  5  6  2  0
  6  7  1  0
  7  8  1  0
  8  9  2  0
  8 10  2  0
  8 11  1  0
 11 12  2  0
 12 13  1  0
 13 14  1  0
 14 15  1  0
 15 16  2  0
 15 17  1  0
 17 18  2  0
 18 19  1  0
 19 20  2  0
 20 21  1  0
 21 22  2  0
 22 23  1  0
 13 24  2  0
 24 25  1  0
 25 26  2  0
 26 27  1  0
 27 28  1  0
 28 29  1  0
 29 30  1  0
 30 31  1  0
  6 32  1  0
 32 33  2  0
 33  3  1  0
 26 11  1  0
 31 27  1  0
 22 17  1  0
  1 34  1  0
  1 35  1  0
  1 36  1  0
  4 37  1  0
  5 38  1  0
  7 39  1  0
 12 40  1  0
 14 41  1  0
 18 42  1  0
 19 43  1  0
 20 44  1  0
 24 45  1  0
 25 46  1  0
 28 47  1  0
 28 48  1  0
 29 49  1  0
 29 50  1  0
 30 51  1  0
 30 52  1  0
 31 53  1  0
 31 54  1  0
 32 55  1  0
 33 56  1  0
M  END
$$$$
