
     RDKit          3D

 50 52  0  0  0  0  0  0  0  0999 V2000
   -6.1586    0.5331    2.0665 C   0  0  0  0  0  0  0  0  0  0  0  0
   -5.6645   -0.0621    0.7499 C   0  0  0  0  0  0  0  0  0  0  0  0
   -5.7178    0.9886   -0.3696 C   0  0  0  0  0  0  0  0  0  0  0  0
   -4.8556    0.5716   -1.5549 C   0  0  0  0  0  0  0  0  0  0  0  0
   -3.4557    0.3857   -1.1795 N   0  0  0  0  0  0  0  0  0  0  0  0
   -2.5217    0.2976   -2.2143 C   0  0  0  0  0  0  0  0  0  0  0  0
   -2.8071    0.3036   -3.4119 O   0  0  0  0  0  0  0  0  0  0  0  0
   -1.0919    0.2054   -1.8655 C   0  0  0  0  0  0  0  0  0  0  0  0
   -0.3769   -0.9442   -2.2169 C   0  0  0  0  0  0  0  0  0  0  0  0
    0.9821   -1.0412   -1.9026 C   0  0  0  0  0  0  0  0  0  0  0  0
    1.6302    0.0125   -1.2360 C   0  0  0  0  0  0  0  0  0  0  0  0
    3.3932   -0.1101   -0.9897 S   0  0  0  0  0  6  0  0  0  0  0  0
    3.9171    1.2366   -1.1033 O   0  0  0  0  0  0  0  0  0  0  0  0
    3.8432   -1.1374   -1.9157 O   0  0  0  0  0  0  0  0  0  0  0  0
    3.5668   -0.7511    0.6758 C   0  0  0  0  0  0  0  0  0  0  0  0
    5.0278   -0.8287    1.0158 C   0  0  0  0  0  0  0  0  0  0  0  0
    5.8168   -1.9124    0.6051 C   0  0  0  0  0  0  0  0  0  0  0  0
    7.1789   -1.9466    0.9106 C   0  0  0  0  0  0  0  0  0  0  0  0
    7.7660   -0.9027    1.6280 C   0  0  0  0  0  0  0  0  0  0  0  0
    6.9926    0.1824    2.0371 C   0  0  0  0  0  0  0  0  0  0  0  0
    5.6366    0.2086    1.7317 C   0  0  0  0  0  0  0  0  0  0  0  0
    4.9016    1.2481    2.1533 F   0  0  0  0  0  0  0  0  0  0  0  0
    0.9051    1.1682   -0.9218 C   0  0  0  0  0  0  0  0  0  0  0  0
    1.4883    2.2723   -0.1846 N   0  0  0  0  0  4  0  0  0  0  0  0
    1.4101    3.3994   -0.6888 O   0  0  0  0  0  0  0  0  0  0  0  0
    1.9165    2.0034    0.9440 O   0  0  0  0  0  1  0  0  0  0  0  0
   -0.4588    1.2753   -1.2301 C   0  0  0  0  0  0  0  0  0  0  0  0
   -3.1681    0.1502    0.2371 C   0  0  0  0  0  0  0  0  0  0  0  0
   -4.2631   -0.6810    0.9011 C   0  0  0  0  0  0  0  0  0  0  0  0
   -6.2104   -0.2369    2.8453 H   0  0  0  0  0  0  0  0  0  0  0  0
   -7.1584    0.9588    1.9501 H   0  0  0  0  0  0  0  0  0  0  0  0
   -5.4933    1.3245    2.4206 H   0  0  0  0  0  0  0  0  0  0  0  0
   -6.3508   -0.8763    0.4845 H   0  0  0  0  0  0  0  0  0  0  0  0
   -5.3668    1.9594    0.0054 H   0  0  0  0  0  0  0  0  0  0  0  0
   -6.7555    1.1326   -0.6923 H   0  0  0  0  0  0  0  0  0  0  0  0
   -4.9151    1.3245   -2.3489 H   0  0  0  0  0  0  0  0  0  0  0  0
   -5.2119   -0.3770   -1.9749 H   0  0  0  0  0  0  0  0  0  0  0  0
   -0.8745   -1.7528   -2.7511 H   0  0  0  0  0  0  0  0  0  0  0  0
    1.5284   -1.9329   -2.2109 H   0  0  0  0  0  0  0  0  0  0  0  0
    3.1081   -1.7458    0.7087 H   0  0  0  0  0  0  0  0  0  0  0  0
    3.0310   -0.1100    1.3765 H   0  0  0  0  0  0  0  0  0  0  0  0
    5.3851   -2.7300    0.0249 H   0  0  0  0  0  0  0  0  0  0  0  0
    7.7875   -2.7878    0.5762 H   0  0  0  0  0  0  0  0  0  0  0  0
    8.8279   -0.9275    1.8581 H   0  0  0  0  0  0  0  0  0  0  0  0
    7.4376    1.0099    2.5849 H   0  0  0  0  0  0  0  0  0  0  0  0
   -1.0225    2.1751   -0.9867 H   0  0  0  0  0  0  0  0  0  0  0  0
   -3.0808    1.1311    0.7231 H   0  0  0  0  0  0  0  0  0  0  0  0
   -2.2098   -0.3666    0.3557 H   0  0  0  0  0  0  0  0  0  0  0  0
   -4.2738   -1.6709    0.4256 H   0  0  0  0  0  0  0  0  0  0  0  0
   -4.0150   -0.8515    1.9546 H   0  0  0  0  0  0  0  0  0  0  0  0
  1  2  1  0
  2  3  1  0
  3  4  1  0
  4  5  1  0
  5  6  1  0
  6  7  2  0
  6  8  1  0
  8  9  2  0
  9 10  1  0
 10 11  2  0
 11 12  1  0
 12 13  2  0
 12 14  2  0
 12 15  1  0
 15 16  1  0
 16 17  2  0
 17 18  1  0
 18 19  2  0
 19 20  1  0
 20 21  2  0
 21 22  1  0
 11 23  1  0
 23 24  1  0
 24 25  2  0
 24 26  1  0
 23 27  2  0
  5 28  1  0
 28 29  1  0
 29  2  1  0
 27  8  1  0
 21 16  1  0
  1 30  1  0
  1 31  1  0
  1 32  1  0
  2 33  1  0
  3 34  1  0
  3 35  1  0
  4 36  1  0
  4 37  1  0
  9 38  1  0
 10 39  1  0
 15 40  1  0
 15 41  1  0
 17 42  1  0
 18 43  1  0
 19 44  1  0
 20 45  1  0
 27 46  1  0
 28 47  1  0
 28 48  1  0
 29 49  1  0
 29 50  1  0
M  CHG  2  24   1  26  -1
M  END
$$$$
