
     RDKit          3D

 75 77  0  0  0  0  0  0  0  0999 V2000
   -6.3473    1.2679    4.3288 C   0  0  0  0  0  0  0  0  0  0  0  0
   -4.9344    0.9054    4.7512 C   0  0  0  0  0  0  0  0  0  0  0  0
   -4.0222    1.0930    3.6709 O   0  0  0  0  0  0  0  0  0  0  0  0
   -3.7422    0.0323    2.8552 C   0  0  0  0  0  0  0  0  0  0  0  0
   -4.4272   -1.1805    2.8166 C   0  0  0  0  0  0  0  0  0  0  0  0
   -4.0302   -2.1796    1.9254 C   0  0  0  0  0  0  0  0  0  0  0  0
   -2.9465   -1.9720    1.0711 C   0  0  0  0  0  0  0  0  0  0  0  0
   -2.2494   -0.7590    1.0962 C   0  0  0  0  0  0  0  0  0  0  0  0
   -1.1492   -0.5339    0.2140 N   0  0  0  0  0  0  0  0  0  0  0  0
   -0.1758   -1.4980   -0.0343 C   0  0  0  0  0  0  0  0  0  0  0  0
    0.4749   -1.5332   -1.0841 O   0  0  0  0  0  0  0  0  0  0  0  0
    0.1075   -2.5171    1.0635 C   0  0  0  0  0  0  0  0  0  0  0  0
    1.5988   -2.8439    1.0973 C   0  0  0  0  0  0  0  0  0  0  0  0
    2.4037   -1.6507    1.5912 C   0  0  0  0  0  0  0  0  0  0  0  0
    1.9683   -0.9218    2.4766 O   0  0  0  0  0  0  0  0  0  0  0  0
    3.6295   -1.5524    0.9663 N   0  0  0  0  0  0  0  0  0  0  0  0
    4.6017   -0.6232    1.2843 C   0  0  0  0  0  0  0  0  0  0  0  0
    5.8264   -0.5073    0.5806 C   0  0  0  0  0  0  0  0  0  0  0  0
    6.5068    0.4952    1.2249 C   0  0  0  0  0  0  0  0  0  0  0  0
    7.8200    1.1356    1.0438 C   0  0  0  0  0  0  0  0  0  0  0  0
    5.7424    0.9610    2.2462 O   0  0  0  0  0  0  0  0  0  0  0  0
    4.5506    0.2650    2.2824 N   0  0  0  0  0  0  0  0  0  0  0  0
   -1.2284    0.6842   -0.6474 C   0  0  0  0  0  0  0  0  0  0  0  0
   -1.9492    0.3900   -1.9974 C   0  0  0  0  0  0  0  0  0  0  0  0
   -2.7922    1.1647   -2.4522 O   0  0  0  0  0  0  0  0  0  0  0  0
   -1.5085   -0.7182   -2.6922 N   0  0  0  0  0  0  0  0  0  0  0  0
   -1.9440   -1.1147   -4.0364 C   0  0  0  0  0  0  0  0  0  0  0  0
   -1.5480   -0.0535   -5.0737 C   0  0  0  0  0  0  0  0  0  0  0  0
   -3.4607   -1.3613   -4.0789 C   0  0  0  0  0  0  0  0  0  0  0  0
   -1.2345   -2.4348   -4.3916 C   0  0  0  0  0  0  0  0  0  0  0  0
    0.1036    1.4333   -0.7764 C   0  0  0  0  0  0  0  0  0  0  0  0
    0.9178    1.6122    0.3565 C   0  0  0  0  0  0  0  0  0  0  0  0
    2.1294    2.3093    0.2810 C   0  0  0  0  0  0  0  0  0  0  0  0
    2.5420    2.8688   -0.9248 C   0  0  0  0  0  0  0  0  0  0  0  0
    3.6929    3.5790   -1.1317 O   0  0  0  0  0  0  0  0  0  0  0  0
    4.4493    3.9065    0.0282 C   0  0  0  0  0  0  0  0  0  0  0  0
    1.7358    2.7146   -2.0525 C   0  0  0  0  0  0  0  0  0  0  0  0
    0.5273    2.0133   -1.9817 C   0  0  0  0  0  0  0  0  0  0  0  0
   -2.6669    0.2408    1.9838 C   0  0  0  0  0  0  0  0  0  0  0  0
   -6.6986    0.6272    3.5154 H   0  0  0  0  0  0  0  0  0  0  0  0
   -6.3824    2.2989    3.9605 H   0  0  0  0  0  0  0  0  0  0  0  0
   -7.0395    1.1751    5.1706 H   0  0  0  0  0  0  0  0  0  0  0  0
   -4.8737   -0.0966    5.1887 H   0  0  0  0  0  0  0  0  0  0  0  0
   -4.6220    1.5961    5.5425 H   0  0  0  0  0  0  0  0  0  0  0  0
   -5.2837   -1.3759    3.4529 H   0  0  0  0  0  0  0  0  0  0  0  0
   -4.5795   -3.1177    1.8845 H   0  0  0  0  0  0  0  0  0  0  0  0
   -2.6897   -2.7512    0.3580 H   0  0  0  0  0  0  0  0  0  0  0  0
   -0.4516   -3.4290    0.8314 H   0  0  0  0  0  0  0  0  0  0  0  0
   -0.2164   -2.1480    2.0407 H   0  0  0  0  0  0  0  0  0  0  0  0
    1.9493   -3.1729    0.1129 H   0  0  0  0  0  0  0  0  0  0  0  0
    1.7791   -3.6674    1.7986 H   0  0  0  0  0  0  0  0  0  0  0  0
    3.8274   -2.1492    0.1767 H   0  0  0  0  0  0  0  0  0  0  0  0
    6.1678   -1.0747   -0.2716 H   0  0  0  0  0  0  0  0  0  0  0  0
    8.4125    0.6101    0.2888 H   0  0  0  0  0  0  0  0  0  0  0  0
    8.3843    1.1294    1.9813 H   0  0  0  0  0  0  0  0  0  0  0  0
    7.6964    2.1742    0.7190 H   0  0  0  0  0  0  0  0  0  0  0  0
   -1.8915    1.4067   -0.1535 H   0  0  0  0  0  0  0  0  0  0  0  0
   -0.6168   -1.0970   -2.3659 H   0  0  0  0  0  0  0  0  0  0  0  0
   -0.4698    0.1440   -5.0423 H   0  0  0  0  0  0  0  0  0  0  0  0
   -1.8019   -0.3786   -6.0894 H   0  0  0  0  0  0  0  0  0  0  0  0
   -2.0573    0.8998   -4.8974 H   0  0  0  0  0  0  0  0  0  0  0  0
   -3.7579   -2.0986   -3.3252 H   0  0  0  0  0  0  0  0  0  0  0  0
   -4.0342   -0.4507   -3.8863 H   0  0  0  0  0  0  0  0  0  0  0  0
   -3.7707   -1.7387   -5.0596 H   0  0  0  0  0  0  0  0  0  0  0  0
   -0.1444   -2.3136   -4.3807 H   0  0  0  0  0  0  0  0  0  0  0  0
   -1.4805   -3.2196   -3.6662 H   0  0  0  0  0  0  0  0  0  0  0  0
   -1.5219   -2.7909   -5.3871 H   0  0  0  0  0  0  0  0  0  0  0  0
    0.6269    1.2002    1.3229 H   0  0  0  0  0  0  0  0  0  0  0  0
    2.7230    2.3847    1.1873 H   0  0  0  0  0  0  0  0  0  0  0  0
    4.8718    3.0070    0.4865 H   0  0  0  0  0  0  0  0  0  0  0  0
    5.2820    4.5433   -0.2868 H   0  0  0  0  0  0  0  0  0  0  0  0
    3.8504    4.4742    0.7491 H   0  0  0  0  0  0  0  0  0  0  0  0
    2.0454    3.1544   -2.9974 H   0  0  0  0  0  0  0  0  0  0  0  0
   -0.0723    1.9425   -2.8862 H   0  0  0  0  0  0  0  0  0  0  0  0
   -2.1320    1.1858    2.0464 H   0  0  0  0  0  0  0  0  0  0  0  0
  1  2  1  0
  2  3  1  0
  3  4  1  0
  4  5  2  0
  5  6  1  0
  6  7  2  0
  7  8  1  0
  8  9  1  0
  9 10  1  0
 10 11  2  0
 10 12  1  0
 12 13  1  0
 13 14  1  0
 14 15  2  0
 14 16  1  0
 16 17  1  0
 17 18  1  0
 18 19  2  0
 19 20  1  0
 19 21  1  0
 21 22  1  0
  9 23  1  0
 23 24  1  0
 24 25  2  0
 24 26  1  0
 26 27  1  0
 27 28  1  0
 27 29  1  0
 27 30  1  0
 23 31  1  0
 31 32  2  0
 32 33  1  0
 33 34  2  0
 34 35  1  0
 35 36  1  0
 34 37  1  0
 37 38  2  0
  8 39  2  0
 39  4  1  0
 22 17  2  0
 38 31  1  0
  1 40  1  0
  1 41  1  0
  1 42  1  0
  2 43  1  0
  2 44  1  0
  5 45  1  0
  6 46  1  0
  7 47  1  0
 12 48  1  0
 12 49  1  0
 13 50  1  0
 13 51  1  0
 16 52  1  0
 18 53  1  0
 20 54  1  0
 20 55  1  0
 20 56  1  0
 23 57  1  0
 26 58  1  0
 28 59  1  0
 28 60  1  0
 28 61  1  0
 29 62  1  0
 29 63  1  0
 29 64  1  0
 30 65  1  0
 30 66  1  0
 30 67  1  0
 32 68  1  0
 33 69  1  0
 36 70  1  0
 36 71  1  0
 36 72  1  0
 37 73  1  0
 38 74  1  0
 39 75  1  0
M  END
$$$$
