
     RDKit          3D

 44 47  0  0  0  0  0  0  0  0999 V2000
    4.5323    1.3928    0.6770 C   0  0  0  0  0  0  0  0  0  0  0  0
    3.3871    0.4093    0.3795 C   0  0  0  0  0  0  0  0  0  0  0  0
    3.6704   -0.2578   -0.9768 C   0  0  0  0  0  0  0  0  0  0  0  0
    2.0560    1.1790    0.4017 C   0  0  0  0  0  0  0  0  0  0  0  0
    0.8400    0.2331    0.4072 C   0  0  0  0  0  0  0  0  0  0  0  0
   -0.4022    1.0638    0.7617 C   0  0  0  0  0  0  0  0  0  0  0  0
   -1.6840    0.2270    0.6875 C   0  0  0  0  0  0  0  0  0  0  0  0
   -2.9103    1.1174    0.8010 C   0  0  0  0  0  0  0  0  0  0  0  0
   -3.7969    1.1900    1.8607 C   0  0  0  0  0  0  0  0  0  0  0  0
   -4.8420    2.1316    1.6369 C   0  0  0  0  0  0  0  0  0  0  0  0
   -4.7222    2.7534    0.4154 C   0  0  0  0  0  0  0  0  0  0  0  0
   -3.3568    2.2064   -0.4527 S   0  0  0  0  0  0  0  0  0  0  0  0
   -1.6701   -0.6862   -0.5204 C   0  0  0  0  0  0  0  0  0  0  0  0
   -2.8237   -1.3870   -0.9183 C   0  0  0  0  0  0  0  0  0  0  0  0
   -2.8001   -2.2298   -2.0326 C   0  0  0  0  0  0  0  0  0  0  0  0
   -4.2515   -3.0478   -2.4806 Cl  0  0  0  0  0  0  0  0  0  0  0  0
   -1.6170   -2.3947   -2.7535 C   0  0  0  0  0  0  0  0  0  0  0  0
   -1.5881   -3.2164   -3.8465 O   0  0  0  0  0  0  0  0  0  0  0  0
   -0.4598   -1.7296   -2.3546 C   0  0  0  0  0  0  0  0  0  0  0  0
   -0.4848   -0.8963   -1.2323 C   0  0  0  0  0  0  0  0  0  0  0  0
    0.7109   -0.3188   -0.9092 O   0  0  0  0  0  0  0  0  0  0  0  0
    1.0540   -0.8537    1.3490 N   0  0  0  0  0  0  0  0  0  0  0  0
    2.2575   -1.3242    1.7422 C   0  0  0  0  0  0  0  0  0  0  0  0
    2.3739   -2.7217    2.6295 S   0  0  0  0  0  0  0  0  0  0  0  0
    3.3589   -0.6070    1.4245 N   0  0  0  0  0  0  0  0  0  0  0  0
    5.5014    0.8806    0.6969 H   0  0  0  0  0  0  0  0  0  0  0  0
    4.5830    2.1836   -0.0797 H   0  0  0  0  0  0  0  0  0  0  0  0
    4.4026    1.8685    1.6562 H   0  0  0  0  0  0  0  0  0  0  0  0
    3.5856    0.4612   -1.7988 H   0  0  0  0  0  0  0  0  0  0  0  0
    2.9986   -1.0969   -1.1802 H   0  0  0  0  0  0  0  0  0  0  0  0
    4.6853   -0.6733   -1.0007 H   0  0  0  0  0  0  0  0  0  0  0  0
    2.0057    1.8656   -0.4534 H   0  0  0  0  0  0  0  0  0  0  0  0
    2.0265    1.7935    1.3130 H   0  0  0  0  0  0  0  0  0  0  0  0
   -0.3094    1.5025    1.7643 H   0  0  0  0  0  0  0  0  0  0  0  0
   -0.4646    1.9024    0.0543 H   0  0  0  0  0  0  0  0  0  0  0  0
   -1.6926   -0.4417    1.5611 H   0  0  0  0  0  0  0  0  0  0  0  0
   -3.7041    0.5907    2.7590 H   0  0  0  0  0  0  0  0  0  0  0  0
   -5.6423    2.3416    2.3361 H   0  0  0  0  0  0  0  0  0  0  0  0
   -5.3719    3.5052   -0.0116 H   0  0  0  0  0  0  0  0  0  0  0  0
   -3.7539   -1.2691   -0.3656 H   0  0  0  0  0  0  0  0  0  0  0  0
   -0.6931   -3.2227   -4.2227 H   0  0  0  0  0  0  0  0  0  0  0  0
    0.4740   -1.8582   -2.8939 H   0  0  0  0  0  0  0  0  0  0  0  0
    0.3030   -1.5180    1.4831 H   0  0  0  0  0  0  0  0  0  0  0  0
    4.2344   -1.0485    1.6864 H   0  0  0  0  0  0  0  0  0  0  0  0
  1  2  1  0
  2  3  1  0
  2  4  1  0
  4  5  1  0
  5  6  1  0
  6  7  1  0
  7  8  1  0
  8  9  2  0
  9 10  1  0
 10 11  2  0
 11 12  1  0
  7 13  1  0
 13 14  2  0
 14 15  1  0
 15 16  1  0
 15 17  2  0
 17 18  1  0
 17 19  1  0
 19 20  2  0
 20 21  1  0
  5 22  1  0
 22 23  1  0
 23 24  2  0
 23 25  1  0
 25  2  1  0
 21  5  1  0
 12  8  1  0
 20 13  1  0
  1 26  1  0
  1 27  1  0
  1 28  1  0
  3 29  1  0
  3 30  1  0
  3 31  1  0
  4 32  1  0
  4 33  1  0
  6 34  1  0
  6 35  1  0
  7 36  1  0
  9 37  1  0
 10 38  1  0
 11 39  1  0
 14 40  1  0
 18 41  1  0
 19 42  1  0
 22 43  1  0
 25 44  1  0
M  END
$$$$
