
     RDKit          3D

 49 52  0  0  0  0  0  0  0  0999 V2000
    7.7085    1.1087    1.5424 C   0  0  0  0  0  0  0  0  0  0  0  0
    7.3458   -0.0751    0.7634 N   0  0  0  0  0  0  0  0  0  0  0  0
    8.0549   -1.3014    1.1256 C   0  0  0  0  0  0  0  0  0  0  0  0
    6.0363   -0.1760    0.2721 C   0  0  0  0  0  0  0  0  0  0  0  0
    5.1818    0.9373    0.1836 C   0  0  0  0  0  0  0  0  0  0  0  0
    3.8751    0.8464   -0.3218 C   0  0  0  0  0  0  0  0  0  0  0  0
    3.3697   -0.3739   -0.7609 C   0  0  0  0  0  0  0  0  0  0  0  0
    2.0298   -0.4994   -1.3404 C   0  0  0  0  0  0  0  0  0  0  0  0
    0.8625   -0.1942   -0.7551 C   0  0  0  0  0  0  0  0  0  0  0  0
   -0.4135   -0.3412   -1.3784 C   0  0  0  0  0  0  0  0  0  0  0  0
   -1.3090    0.0532   -0.4750 C   0  0  0  0  0  0  0  0  0  0  0  0
   -2.7738    0.0930   -0.6073 C   0  0  0  0  0  0  0  0  0  0  0  0
   -3.4017    0.0611   -1.8590 C   0  0  0  0  0  0  0  0  0  0  0  0
   -4.7955    0.1002   -1.9653 C   0  0  0  0  0  0  0  0  0  0  0  0
   -5.5995    0.1708   -0.8214 C   0  0  0  0  0  0  0  0  0  0  0  0
   -4.9887    0.2318    0.4409 C   0  0  0  0  0  0  0  0  0  0  0  0
   -3.5862    0.1812    0.5340 C   0  0  0  0  0  0  0  0  0  0  0  0
   -5.8041    0.2893    1.7102 C   0  0  0  0  0  0  0  0  0  0  0  0
   -7.2523    0.7159    1.4778 C   0  0  0  0  0  0  0  0  0  0  0  0
   -7.8552   -0.0590    0.3133 C   0  0  0  0  0  0  0  0  0  0  0  0
   -7.0984    0.2450   -0.9783 C   0  0  0  0  0  0  0  0  0  0  0  0
   -0.7600    0.4654    0.7558 O   0  0  0  0  0  0  0  0  0  0  0  0
    0.6065    0.3235    0.6218 C   0  0  0  0  0  0  0  0  0  0  0  0
    1.4171    0.5836    1.4916 O   0  0  0  0  0  0  0  0  0  0  0  0
    4.2031   -1.4894   -0.7161 C   0  0  0  0  0  0  0  0  0  0  0  0
    5.5087   -1.3866   -0.2105 C   0  0  0  0  0  0  0  0  0  0  0  0
    7.0745    1.2070    2.4306 H   0  0  0  0  0  0  0  0  0  0  0  0
    8.7487    1.0548    1.8833 H   0  0  0  0  0  0  0  0  0  0  0  0
    7.6406    2.0188    0.9368 H   0  0  0  0  0  0  0  0  0  0  0  0
    9.0580   -1.0806    1.5078 H   0  0  0  0  0  0  0  0  0  0  0  0
    8.2041   -1.9464    0.2531 H   0  0  0  0  0  0  0  0  0  0  0  0
    7.5179   -1.8528    1.9055 H   0  0  0  0  0  0  0  0  0  0  0  0
    5.5073    1.9206    0.5081 H   0  0  0  0  0  0  0  0  0  0  0  0
    3.2657    1.7459   -0.3581 H   0  0  0  0  0  0  0  0  0  0  0  0
    2.0294   -0.9015   -2.3520 H   0  0  0  0  0  0  0  0  0  0  0  0
   -0.5914   -0.7088   -2.3748 H   0  0  0  0  0  0  0  0  0  0  0  0
   -2.8214    0.0158   -2.7766 H   0  0  0  0  0  0  0  0  0  0  0  0
   -5.2522    0.0787   -2.9527 H   0  0  0  0  0  0  0  0  0  0  0  0
   -3.1291    0.2070    1.5226 H   0  0  0  0  0  0  0  0  0  0  0  0
   -5.3419    0.9864    2.4194 H   0  0  0  0  0  0  0  0  0  0  0  0
   -5.7893   -0.7078    2.1679 H   0  0  0  0  0  0  0  0  0  0  0  0
   -7.2953    1.7916    1.2644 H   0  0  0  0  0  0  0  0  0  0  0  0
   -7.8367    0.5456    2.3889 H   0  0  0  0  0  0  0  0  0  0  0  0
   -7.8130   -1.1346    0.5269 H   0  0  0  0  0  0  0  0  0  0  0  0
   -8.9121    0.2031    0.1908 H   0  0  0  0  0  0  0  0  0  0  0  0
   -7.3543    1.2563   -1.3185 H   0  0  0  0  0  0  0  0  0  0  0  0
   -7.4276   -0.4581   -1.7528 H   0  0  0  0  0  0  0  0  0  0  0  0
    3.8535   -2.4562   -1.0700 H   0  0  0  0  0  0  0  0  0  0  0  0
    6.1030   -2.2948   -0.2098 H   0  0  0  0  0  0  0  0  0  0  0  0
  1  2  1  0
  2  3  1  0
  2  4  1  0
  4  5  2  0
  5  6  1  0
  6  7  2  0
  7  8  1  0
  8  9  2  3
  9 10  1  0
 10 11  2  0
 11 12  1  0
 12 13  2  0
 13 14  1  0
 14 15  2  0
 15 16  1  0
 16 17  2  0
 16 18  1  0
 18 19  1  0
 19 20  1  0
 20 21  1  0
 11 22  1  0
 22 23  1  0
 23 24  2  0
  7 25  1  0
 25 26  2  0
 26  4  1  0
 23  9  1  0
 17 12  1  0
 21 15  1  0
  1 27  1  0
  1 28  1  0
  1 29  1  0
  3 30  1  0
  3 31  1  0
  3 32  1  0
  5 33  1  0
  6 34  1  0
  8 35  1  0
 10 36  1  0
 13 37  1  0
 14 38  1  0
 17 39  1  0
 18 40  1  0
 18 41  1  0
 19 42  1  0
 19 43  1  0
 20 44  1  0
 20 45  1  0
 21 46  1  0
 21 47  1  0
 25 48  1  0
 26 49  1  0
M  END
$$$$
