
     RDKit          3D

 69 71  0  0  0  0  0  0  0  0999 V2000
   -6.9917    3.4092    0.5334 C   0  0  0  0  0  0  0  0  0  0  0  0
   -5.5903    3.6753    0.0083 C   0  0  0  0  0  0  0  0  0  0  0  0
   -5.1522    2.6877   -1.0749 C   0  0  0  0  0  0  0  0  0  0  0  0
   -4.5730    1.4499   -0.5344 N   0  0  0  0  0  0  0  0  0  0  0  0
   -5.4598    0.2842   -0.4432 C   0  0  0  0  0  0  0  0  0  0  0  0
   -5.3023   -0.5722    0.8229 C   0  0  0  0  0  0  0  0  0  0  0  0
   -5.5802    0.1847    2.1104 C   0  0  0  0  0  0  0  0  0  0  0  0
   -3.1877    1.2307   -0.5118 C   0  0  0  0  0  0  0  0  0  0  0  0
   -2.7076    0.0958   -0.4688 O   0  0  0  0  0  0  0  0  0  0  0  0
   -2.2849    2.4767   -0.5269 C   0  0  0  0  0  0  0  0  0  0  0  0
   -0.9425    2.1497   -0.0414 N   0  0  0  0  0  0  0  0  0  0  0  0
    0.0277    1.8195   -0.9955 C   0  0  0  0  0  0  0  0  0  0  0  0
   -0.2181    1.8761   -2.2049 O   0  0  0  0  0  0  0  0  0  0  0  0
    1.2897    1.4339   -0.5244 N   0  0  0  0  0  0  0  0  0  0  0  0
    2.2971    1.0735   -1.5177 C   0  0  0  0  0  0  0  0  0  0  0  0
    2.2109   -0.4132   -1.8816 C   0  0  0  0  0  0  0  0  0  0  0  0
    3.2935   -0.8083   -2.8869 C   0  0  0  0  0  0  0  0  0  0  0  0
    3.1874   -2.2648   -3.3543 C   0  0  0  0  0  0  0  0  0  0  0  0
    3.2942   -3.3015   -2.2362 C   0  0  0  0  0  0  0  0  0  0  0  0
    4.6458   -3.2627   -1.5394 C   0  0  0  0  0  0  0  0  0  0  0  0
    5.6861   -3.2549   -2.1894 O   0  0  0  0  0  0  0  0  0  0  0  0
    4.5326   -3.2600   -0.1615 N   0  0  0  0  0  0  0  0  0  0  0  0
    5.5749   -3.2885    0.7884 C   0  0  0  0  0  0  0  0  0  0  0  0
    5.2095   -3.2160    2.1400 C   0  0  0  0  0  0  0  0  0  0  0  0
    6.1790   -3.2557    3.1457 C   0  0  0  0  0  0  0  0  0  0  0  0
    7.5251   -3.3700    2.8099 C   0  0  0  0  0  0  0  0  0  0  0  0
    7.8980   -3.4406    1.4699 C   0  0  0  0  0  0  0  0  0  0  0  0
    6.9273   -3.3997    0.4634 C   0  0  0  0  0  0  0  0  0  0  0  0
    1.6179    1.2242    0.8212 C   0  0  0  0  0  0  0  0  0  0  0  0
    2.7037    0.7662    1.1771 O   0  0  0  0  0  0  0  0  0  0  0  0
    0.5601    1.5685    1.7278 C   0  0  0  0  0  0  0  0  0  0  0  0
    0.7019    1.4440    3.4141 S   0  0  0  0  0  0  0  0  0  0  0  0
   -0.9094    1.9809    3.6343 C   0  0  0  0  0  0  0  0  0  0  0  0
   -1.5358    2.2352    2.4303 C   0  0  0  0  0  0  0  0  0  0  0  0
   -0.6704    2.0079    1.3203 C   0  0  0  0  0  0  0  0  0  0  0  0
   -7.7302    3.4618   -0.2725 H   0  0  0  0  0  0  0  0  0  0  0  0
   -7.0639    2.4269    1.0023 H   0  0  0  0  0  0  0  0  0  0  0  0
   -7.2610    4.1576    1.2868 H   0  0  0  0  0  0  0  0  0  0  0  0
   -5.5825    4.6888   -0.4131 H   0  0  0  0  0  0  0  0  0  0  0  0
   -4.8782    3.6689    0.8425 H   0  0  0  0  0  0  0  0  0  0  0  0
   -5.9798    2.4326   -1.7465 H   0  0  0  0  0  0  0  0  0  0  0  0
   -4.4041    3.1762   -1.7066 H   0  0  0  0  0  0  0  0  0  0  0  0
   -5.2741   -0.3378   -1.3273 H   0  0  0  0  0  0  0  0  0  0  0  0
   -6.5011    0.6255   -0.4953 H   0  0  0  0  0  0  0  0  0  0  0  0
   -6.0038   -1.4142    0.7561 H   0  0  0  0  0  0  0  0  0  0  0  0
   -4.3039   -1.0154    0.8801 H   0  0  0  0  0  0  0  0  0  0  0  0
   -6.6177    0.5274    2.1491 H   0  0  0  0  0  0  0  0  0  0  0  0
   -5.4190   -0.4784    2.9673 H   0  0  0  0  0  0  0  0  0  0  0  0
   -4.9183    1.0488    2.2230 H   0  0  0  0  0  0  0  0  0  0  0  0
   -2.6976    3.2675    0.1049 H   0  0  0  0  0  0  0  0  0  0  0  0
   -2.2335    2.8540   -1.5532 H   0  0  0  0  0  0  0  0  0  0  0  0
    3.2937    1.3023   -1.1211 H   0  0  0  0  0  0  0  0  0  0  0  0
    2.1647    1.6861   -2.4179 H   0  0  0  0  0  0  0  0  0  0  0  0
    1.2199   -0.6377   -2.2969 H   0  0  0  0  0  0  0  0  0  0  0  0
    2.3123   -1.0093   -0.9669 H   0  0  0  0  0  0  0  0  0  0  0  0
    3.2187   -0.1605   -3.7693 H   0  0  0  0  0  0  0  0  0  0  0  0
    4.2844   -0.6271   -2.4515 H   0  0  0  0  0  0  0  0  0  0  0  0
    3.9728   -2.4451   -4.0979 H   0  0  0  0  0  0  0  0  0  0  0  0
    2.2307   -2.4057   -3.8718 H   0  0  0  0  0  0  0  0  0  0  0  0
    3.1901   -4.3063   -2.6647 H   0  0  0  0  0  0  0  0  0  0  0  0
    2.4703   -3.1867   -1.5248 H   0  0  0  0  0  0  0  0  0  0  0  0
    3.5992   -3.1919    0.2225 H   0  0  0  0  0  0  0  0  0  0  0  0
    4.1659   -3.1237    2.4305 H   0  0  0  0  0  0  0  0  0  0  0  0
    5.8821   -3.1968    4.1899 H   0  0  0  0  0  0  0  0  0  0  0  0
    8.2823   -3.4021    3.5884 H   0  0  0  0  0  0  0  0  0  0  0  0
    8.9476   -3.5283    1.2009 H   0  0  0  0  0  0  0  0  0  0  0  0
    7.2631   -3.4617   -0.5668 H   0  0  0  0  0  0  0  0  0  0  0  0
   -1.3209    2.0727    4.6305 H   0  0  0  0  0  0  0  0  0  0  0  0
   -2.5642    2.5660    2.3733 H   0  0  0  0  0  0  0  0  0  0  0  0
  1  2  1  0
  2  3  1  0
  3  4  1  0
  4  5  1  0
  5  6  1  0
  6  7  1  0
  4  8  1  0
  8  9  2  0
  8 10  1  0
 10 11  1  0
 11 12  1  0
 12 13  2  0
 12 14  1  0
 14 15  1  0
 15 16  1  0
 16 17  1  0
 17 18  1  0
 18 19  1  0
 19 20  1  0
 20 21  2  0
 20 22  1  0
 22 23  1  0
 23 24  2  0
 24 25  1  0
 25 26  2  0
 26 27  1  0
 27 28  2  0
 14 29  1  0
 29 30  2  0
 29 31  1  0
 31 32  1  0
 32 33  1  0
 33 34  2  0
 34 35  1  0
 35 11  1  0
 28 23  1  0
 35 31  2  0
  1 36  1  0
  1 37  1  0
  1 38  1  0
  2 39  1  0
  2 40  1  0
  3 41  1  0
  3 42  1  0
  5 43  1  0
  5 44  1  0
  6 45  1  0
  6 46  1  0
  7 47  1  0
  7 48  1  0
  7 49  1  0
 10 50  1  0
 10 51  1  0
 15 52  1  0
 15 53  1  0
 16 54  1  0
 16 55  1  0
 17 56  1  0
 17 57  1  0
 18 58  1  0
 18 59  1  0
 19 60  1  0
 19 61  1  0
 22 62  1  0
 24 63  1  0
 25 64  1  0
 26 65  1  0
 27 66  1  0
 28 67  1  0
 33 68  1  0
 34 69  1  0
M  END
$$$$
