
     RDKit          3D

 61 65  0  0  0  0  0  0  0  0999 V2000
   -5.3921    2.1537   -2.6789 C   0  0  0  0  0  0  0  0  0  0  0  0
   -4.9793    1.4705   -1.5040 O   0  0  0  0  0  0  0  0  0  0  0  0
   -4.8172    0.1098   -1.5833 C   0  0  0  0  0  0  0  0  0  0  0  0
   -4.9537   -0.6352   -2.7608 C   0  0  0  0  0  0  0  0  0  0  0  0
   -4.7515   -2.0187   -2.7539 C   0  0  0  0  0  0  0  0  0  0  0  0
   -4.4095   -2.6721   -1.5738 C   0  0  0  0  0  0  0  0  0  0  0  0
   -4.2707   -1.9426   -0.3946 C   0  0  0  0  0  0  0  0  0  0  0  0
   -4.4754   -0.5530   -0.3861 C   0  0  0  0  0  0  0  0  0  0  0  0
   -4.3052    0.1743    0.8787 C   0  0  0  0  0  0  0  0  0  0  0  0
   -5.6910    0.4819    1.8305 S   0  0  0  0  0  0  0  0  0  0  0  0
   -4.7810    1.2732    3.0550 C   0  0  0  0  0  0  0  0  0  0  0  0
   -5.2814    1.8415    4.2439 C   0  0  0  0  0  0  0  0  0  0  0  0
   -4.3927    2.4505    5.1321 C   0  0  0  0  0  0  0  0  0  0  0  0
   -3.0360    2.4970    4.8483 C   0  0  0  0  0  0  0  0  0  0  0  0
   -2.5443    1.9314    3.6682 C   0  0  0  0  0  0  0  0  0  0  0  0
   -3.4195    1.3014    2.7447 C   0  0  0  0  0  0  0  0  0  0  0  0
   -3.1536    0.6562    1.4781 C   0  0  0  0  0  0  0  0  0  0  0  0
   -1.8436    0.4917    0.8594 C   0  0  0  0  0  0  0  0  0  0  0  0
   -1.4916    1.2425   -0.2648 C   0  0  0  0  0  0  0  0  0  0  0  0
   -0.2323    1.0788   -0.8464 C   0  0  0  0  0  0  0  0  0  0  0  0
    0.6875    0.1720   -0.3128 C   0  0  0  0  0  0  0  0  0  0  0  0
    1.8805    0.1122   -0.9789 O   0  0  0  0  0  0  0  0  0  0  0  0
    2.8678   -0.7895   -0.4663 C   0  0  0  0  0  0  0  0  0  0  0  0
    4.1086   -0.6989   -1.3706 C   0  0  0  0  0  0  0  0  0  0  0  0
    5.1787   -1.6667   -1.0615 N   0  0  0  0  0  0  0  0  0  0  0  0
    6.2240   -1.6470   -2.1049 C   0  0  0  0  0  0  0  0  0  0  0  0
    7.6114   -1.1890   -1.6361 C   0  0  0  0  0  0  0  0  0  0  0  0
    7.5065    0.0241   -0.7220 C   0  0  0  0  0  0  0  0  0  0  0  0
    6.5788   -0.2474    0.4635 C   0  0  0  0  0  0  0  0  0  0  0  0
    5.7462   -1.5195    0.2826 C   0  0  0  0  0  0  0  0  0  0  0  0
    0.3369   -0.5746    0.8130 C   0  0  0  0  0  0  0  0  0  0  0  0
   -0.9243   -0.4142    1.3983 C   0  0  0  0  0  0  0  0  0  0  0  0
   -4.6339    2.0784   -3.4651 H   0  0  0  0  0  0  0  0  0  0  0  0
   -6.3641    1.7903   -3.0282 H   0  0  0  0  0  0  0  0  0  0  0  0
   -5.5043    3.2125   -2.4272 H   0  0  0  0  0  0  0  0  0  0  0  0
   -5.2109   -0.1689   -3.7058 H   0  0  0  0  0  0  0  0  0  0  0  0
   -4.8575   -2.5857   -3.6755 H   0  0  0  0  0  0  0  0  0  0  0  0
   -4.2478   -3.7468   -1.5708 H   0  0  0  0  0  0  0  0  0  0  0  0
   -3.9992   -2.4590    0.5235 H   0  0  0  0  0  0  0  0  0  0  0  0
   -6.3442    1.8086    4.4661 H   0  0  0  0  0  0  0  0  0  0  0  0
   -4.7702    2.8933    6.0506 H   0  0  0  0  0  0  0  0  0  0  0  0
   -2.3502    2.9767    5.5422 H   0  0  0  0  0  0  0  0  0  0  0  0
   -1.4789    1.9809    3.4551 H   0  0  0  0  0  0  0  0  0  0  0  0
   -2.1936    1.9531   -0.6949 H   0  0  0  0  0  0  0  0  0  0  0  0
    0.0326    1.6627   -1.7241 H   0  0  0  0  0  0  0  0  0  0  0  0
    3.1248   -0.4961    0.5573 H   0  0  0  0  0  0  0  0  0  0  0  0
    2.4818   -1.8159   -0.4834 H   0  0  0  0  0  0  0  0  0  0  0  0
    3.7587   -0.8749   -2.3974 H   0  0  0  0  0  0  0  0  0  0  0  0
    4.4864    0.3318   -1.3648 H   0  0  0  0  0  0  0  0  0  0  0  0
    6.3160   -2.6632   -2.5070 H   0  0  0  0  0  0  0  0  0  0  0  0
    5.9248   -1.0218   -2.9565 H   0  0  0  0  0  0  0  0  0  0  0  0
    8.2334   -0.9497   -2.5062 H   0  0  0  0  0  0  0  0  0  0  0  0
    8.1157   -2.0067   -1.1059 H   0  0  0  0  0  0  0  0  0  0  0  0
    7.1187    0.8751   -1.2957 H   0  0  0  0  0  0  0  0  0  0  0  0
    8.4992    0.3181   -0.3633 H   0  0  0  0  0  0  0  0  0  0  0  0
    7.1762   -0.3468    1.3778 H   0  0  0  0  0  0  0  0  0  0  0  0
    5.9254    0.6197    0.6176 H   0  0  0  0  0  0  0  0  0  0  0  0
    4.9703   -1.5690    1.0541 H   0  0  0  0  0  0  0  0  0  0  0  0
    6.3795   -2.3940    0.4853 H   0  0  0  0  0  0  0  0  0  0  0  0
    1.0167   -1.2922    1.2595 H   0  0  0  0  0  0  0  0  0  0  0  0
   -1.1862   -1.0047    2.2733 H   0  0  0  0  0  0  0  0  0  0  0  0
  1  2  1  0
  2  3  1  0
  3  4  2  0
  4  5  1  0
  5  6  2  0
  6  7  1  0
  7  8  2  0
  8  9  1  0
  9 10  1  0
 10 11  1  0
 11 12  2  0
 12 13  1  0
 13 14  2  0
 14 15  1  0
 15 16  2  0
 16 17  1  0
 17 18  1  0
 18 19  2  0
 19 20  1  0
 20 21  2  0
 21 22  1  0
 22 23  1  0
 23 24  1  0
 24 25  1  0
 25 26  1  0
 26 27  1  0
 27 28  1  0
 28 29  1  0
 29 30  1  0
 21 31  1  0
 31 32  2  0
  8  3  1  0
 17  9  2  0
 32 18  1  0
 16 11  1  0
 30 25  1  0
  1 33  1  0
  1 34  1  0
  1 35  1  0
  4 36  1  0
  5 37  1  0
  6 38  1  0
  7 39  1  0
 12 40  1  0
 13 41  1  0
 14 42  1  0
 15 43  1  0
 19 44  1  0
 20 45  1  0
 23 46  1  0
 23 47  1  0
 24 48  1  0
 24 49  1  0
 26 50  1  0
 26 51  1  0
 27 52  1  0
 27 53  1  0
 28 54  1  0
 28 55  1  0
 29 56  1  0
 29 57  1  0
 30 58  1  0
 30 59  1  0
 31 60  1  0
 32 61  1  0
M  END
$$$$
