
     RDKit          3D

 55 58  0  0  0  0  0  0  0  0999 V2000
   -2.6658   -3.9991   -0.6331 C   0  0  0  0  0  0  0  0  0  0  0  0
   -2.7226   -3.3157    0.6613 N   0  0  0  0  0  0  0  0  0  0  0  0
   -2.7012   -4.1988    1.8278 C   0  0  0  0  0  0  0  0  0  0  0  0
   -2.1334   -2.0493    0.7602 C   0  0  0  0  0  0  0  0  0  0  0  0
   -1.6646   -1.5251    1.9743 C   0  0  0  0  0  0  0  0  0  0  0  0
   -1.0783   -0.2522    2.0689 C   0  0  0  0  0  0  0  0  0  0  0  0
   -0.9357    0.5646    0.9482 C   0  0  0  0  0  0  0  0  0  0  0  0
   -0.3413    1.8387    1.0211 N   0  0  0  0  0  0  0  0  0  0  0  0
    0.6924    2.2055    1.8713 C   0  0  0  0  0  0  0  0  0  0  0  0
    1.7351    1.6328    2.3504 N   0  0  0  0  0  0  0  0  0  0  0  0
    2.0092    0.3384    2.0024 C   0  0  0  0  0  0  0  0  0  0  0  0
    1.9203   -0.5873    2.8028 O   0  0  0  0  0  0  0  0  0  0  0  0
    2.5536    0.1446    0.5984 C   0  0  0  0  0  0  0  0  0  0  0  0
    2.4744   -1.3204    0.1767 C   0  0  0  0  0  0  0  0  0  0  0  0
    2.8103   -1.4976   -1.2835 C   0  0  0  0  0  0  0  0  0  0  0  0
    4.1399   -1.4355   -1.7210 C   0  0  0  0  0  0  0  0  0  0  0  0
    4.4457   -1.5819   -3.0749 C   0  0  0  0  0  0  0  0  0  0  0  0
    3.4267   -1.7909   -4.0025 C   0  0  0  0  0  0  0  0  0  0  0  0
    2.1009   -1.8546   -3.5775 C   0  0  0  0  0  0  0  0  0  0  0  0
    1.7930   -1.7080   -2.2241 C   0  0  0  0  0  0  0  0  0  0  0  0
    0.5225    3.9220    2.3299 S   0  0  0  0  0  0  0  0  0  0  0  0
   -1.1737    4.0081    1.6732 C   0  0  0  0  0  0  0  0  0  0  0  0
   -1.5495    5.3563    1.0857 C   0  0  0  0  0  0  0  0  0  0  0  0
   -1.3145    5.2205   -0.6744 S   0  0  0  0  0  6  0  0  0  0  0  0
   -2.6215    5.1733   -1.2974 O   0  0  0  0  0  0  0  0  0  0  0  0
   -0.2894    6.1479   -1.0983 O   0  0  0  0  0  0  0  0  0  0  0  0
   -0.6518    3.5780   -0.7028 C   0  0  0  0  0  0  0  0  0  0  0  0
   -1.2047    2.9434    0.5679 C   0  0  0  0  0  0  0  0  0  0  0  0
   -1.4271    0.0719   -0.2642 C   0  0  0  0  0  0  0  0  0  0  0  0
   -2.0144   -1.2004   -0.3507 C   0  0  0  0  0  0  0  0  0  0  0  0
   -3.2727   -3.4811   -1.3838 H   0  0  0  0  0  0  0  0  0  0  0  0
   -1.6322   -4.0844   -0.9893 H   0  0  0  0  0  0  0  0  0  0  0  0
   -3.0752   -5.0134   -0.5645 H   0  0  0  0  0  0  0  0  0  0  0  0
   -1.6753   -4.4750    2.0952 H   0  0  0  0  0  0  0  0  0  0  0  0
   -3.1957   -3.7342    2.6878 H   0  0  0  0  0  0  0  0  0  0  0  0
   -3.2548   -5.1234    1.6287 H   0  0  0  0  0  0  0  0  0  0  0  0
   -1.7239   -2.0986    2.8950 H   0  0  0  0  0  0  0  0  0  0  0  0
   -0.7342    0.0771    3.0482 H   0  0  0  0  0  0  0  0  0  0  0  0
    3.5919    0.4959    0.5877 H   0  0  0  0  0  0  0  0  0  0  0  0
    1.9881    0.7673   -0.1033 H   0  0  0  0  0  0  0  0  0  0  0  0
    1.4726   -1.7222    0.3747 H   0  0  0  0  0  0  0  0  0  0  0  0
    3.1606   -1.9291    0.7797 H   0  0  0  0  0  0  0  0  0  0  0  0
    4.9461   -1.2758   -1.0084 H   0  0  0  0  0  0  0  0  0  0  0  0
    5.4800   -1.5354   -3.4056 H   0  0  0  0  0  0  0  0  0  0  0  0
    3.6668   -1.9074   -5.0561 H   0  0  0  0  0  0  0  0  0  0  0  0
    1.3069   -2.0221   -4.3004 H   0  0  0  0  0  0  0  0  0  0  0  0
    0.7547   -1.7654   -1.9059 H   0  0  0  0  0  0  0  0  0  0  0  0
   -1.8410    3.7423    2.5003 H   0  0  0  0  0  0  0  0  0  0  0  0
   -2.6129    5.5608    1.2460 H   0  0  0  0  0  0  0  0  0  0  0  0
   -0.9632    6.1926    1.4743 H   0  0  0  0  0  0  0  0  0  0  0  0
   -0.9842    3.0656   -1.6085 H   0  0  0  0  0  0  0  0  0  0  0  0
    0.4401    3.6475   -0.7136 H   0  0  0  0  0  0  0  0  0  0  0  0
   -2.2493    2.6408    0.4082 H   0  0  0  0  0  0  0  0  0  0  0  0
   -1.3441    0.6552   -1.1773 H   0  0  0  0  0  0  0  0  0  0  0  0
   -2.3835   -1.5067   -1.3251 H   0  0  0  0  0  0  0  0  0  0  0  0
  1  2  1  0
  2  3  1  0
  2  4  1  0
  4  5  2  0
  5  6  1  0
  6  7  2  0
  7  8  1  0
  8  9  1  0
  9 10  2  3
 10 11  1  0
 11 12  2  0
 11 13  1  0
 13 14  1  0
 14 15  1  0
 15 16  2  0
 16 17  1  0
 17 18  2  0
 18 19  1  0
 19 20  2  0
  9 21  1  0
 21 22  1  0
 22 23  1  0
 23 24  1  0
 24 25  2  0
 24 26  2  0
 24 27  1  0
 27 28  1  0
  7 29  1  0
 29 30  2  0
 30  4  1  0
 28  8  1  0
 20 15  1  0
 28 22  1  0
  1 31  1  0
  1 32  1  0
  1 33  1  0
  3 34  1  0
  3 35  1  0
  3 36  1  0
  5 37  1  0
  6 38  1  0
 13 39  1  0
 13 40  1  0
 14 41  1  0
 14 42  1  0
 16 43  1  0
 17 44  1  0
 18 45  1  0
 19 46  1  0
 20 47  1  0
 22 48  1  0
 23 49  1  0
 23 50  1  0
 27 51  1  0
 27 52  1  0
 28 53  1  0
 29 54  1  0
 30 55  1  0
M  END
$$$$
