
     RDKit          3D

 41 43  0  0  0  0  0  0  0  0999 V2000
   -4.7404    0.3724    1.4413 C   0  0  0  0  0  0  0  0  0  0  0  0
   -4.6459   -1.0558    1.9497 C   0  0  0  0  0  0  0  0  0  0  0  0
   -3.3209   -1.4111    2.6338 C   0  0  0  0  0  0  0  0  0  0  0  0
   -2.1016   -1.4582    1.7084 C   0  0  0  0  0  0  0  0  0  0  0  0
   -1.2878    0.1601    1.5542 S   0  0  0  0  0  0  0  0  0  0  0  0
    0.0118   -0.2124    0.4598 C   0  0  0  0  0  0  0  0  0  0  0  0
    0.1918   -1.4265    0.0373 N   0  0  0  0  0  0  0  0  0  0  0  0
    1.2070   -1.3301   -0.8865 C   0  0  0  0  0  0  0  0  0  0  0  0
    1.6824   -2.4041   -1.5342 C   0  0  0  0  0  0  0  0  0  0  0  0
    2.7082   -2.5072   -2.5247 C   0  0  0  0  0  0  0  0  0  0  0  0
    3.6724   -3.5626   -2.5487 C   0  0  0  0  0  0  0  0  0  0  0  0
    4.5323   -3.4635   -3.6209 C   0  0  0  0  0  0  0  0  0  0  0  0
    4.1660   -2.1213   -4.6140 S   0  0  0  0  0  0  0  0  0  0  0  0
    2.8535   -1.6691   -3.6096 C   0  0  0  0  0  0  0  0  0  0  0  0
    1.6450    0.0979   -0.9835 C   0  0  0  0  0  0  0  0  0  0  0  0
    2.5408    0.5340   -1.6831 O   0  0  0  0  0  0  0  0  0  0  0  0
    0.8389    0.7424   -0.0685 N   0  0  0  0  0  0  0  0  0  0  0  0
    0.9556    2.1302    0.2253 C   0  0  0  0  0  0  0  0  0  0  0  0
    1.3429    3.0360   -0.7771 C   0  0  0  0  0  0  0  0  0  0  0  0
    1.4700    4.4044   -0.5147 C   0  0  0  0  0  0  0  0  0  0  0  0
    1.2245    4.8949    0.7622 C   0  0  0  0  0  0  0  0  0  0  0  0
    0.8628    4.0152    1.7762 C   0  0  0  0  0  0  0  0  0  0  0  0
    0.7360    2.6463    1.5104 C   0  0  0  0  0  0  0  0  0  0  0  0
   -5.7635    0.5851    1.1140 H   0  0  0  0  0  0  0  0  0  0  0  0
   -4.0856    0.5351    0.5810 H   0  0  0  0  0  0  0  0  0  0  0  0
   -4.4820    1.0907    2.2255 H   0  0  0  0  0  0  0  0  0  0  0  0
   -5.4536   -1.2138    2.6751 H   0  0  0  0  0  0  0  0  0  0  0  0
   -4.8335   -1.7487    1.1210 H   0  0  0  0  0  0  0  0  0  0  0  0
   -3.1465   -0.7547    3.4952 H   0  0  0  0  0  0  0  0  0  0  0  0
   -3.4492   -2.4201    3.0486 H   0  0  0  0  0  0  0  0  0  0  0  0
   -1.3703   -2.1523    2.1373 H   0  0  0  0  0  0  0  0  0  0  0  0
   -2.3872   -1.8341    0.7203 H   0  0  0  0  0  0  0  0  0  0  0  0
    1.2353   -3.3559   -1.2478 H   0  0  0  0  0  0  0  0  0  0  0  0
    3.7441   -4.3535   -1.8116 H   0  0  0  0  0  0  0  0  0  0  0  0
    5.3565   -4.1165   -3.8725 H   0  0  0  0  0  0  0  0  0  0  0  0
    2.2637   -0.8032   -3.8779 H   0  0  0  0  0  0  0  0  0  0  0  0
    1.5321    2.7016   -1.7950 H   0  0  0  0  0  0  0  0  0  0  0  0
    1.7627    5.0825   -1.3126 H   0  0  0  0  0  0  0  0  0  0  0  0
    1.3260    5.9570    0.9689 H   0  0  0  0  0  0  0  0  0  0  0  0
    0.6913    4.3886    2.7830 H   0  0  0  0  0  0  0  0  0  0  0  0
    0.5144    2.0005    2.3543 H   0  0  0  0  0  0  0  0  0  0  0  0
  1  2  1  0
  2  3  1  0
  3  4  1  0
  4  5  1  0
  5  6  1  0
  6  7  2  0
  7  8  1  0
  8  9  2  3
  9 10  1  0
 10 11  1  0
 11 12  2  0
 12 13  1  0
 13 14  1  0
  8 15  1  0
 15 16  2  0
 15 17  1  0
 17 18  1  0
 18 19  2  0
 19 20  1  0
 20 21  2  0
 21 22  1  0
 22 23  2  0
 17  6  1  0
 23 18  1  0
 14 10  2  0
  1 24  1  0
  1 25  1  0
  1 26  1  0
  2 27  1  0
  2 28  1  0
  3 29  1  0
  3 30  1  0
  4 31  1  0
  4 32  1  0
  9 33  1  0
 11 34  1  0
 12 35  1  0
 14 36  1  0
 19 37  1  0
 20 38  1  0
 21 39  1  0
 22 40  1  0
 23 41  1  0
M  END
$$$$
