
     RDKit          3D

 49 51  0  0  0  0  0  0  0  0999 V2000
    8.7349   -2.9729    3.3800 N   0  0  0  0  0  0  0  0  0  0  0  0
    7.7415   -2.6480    2.8772 C   0  0  0  0  0  0  0  0  0  0  0  0
    6.5273   -2.2818    2.2191 C   0  0  0  0  0  0  0  0  0  0  0  0
    5.9127   -1.1607    2.6865 N   0  0  0  0  0  0  0  0  0  0  0  0
    4.7600   -0.8183    2.0576 C   0  0  0  0  0  0  0  0  0  0  0  0
    4.2162   -1.5448    0.9970 C   0  0  0  0  0  0  0  0  0  0  0  0
    2.9633   -1.1850    0.3028 C   0  0  0  0  0  0  0  0  0  0  0  0
    2.1846   -2.1776   -0.3246 C   0  0  0  0  0  0  0  0  0  0  0  0
    1.0089   -1.8670   -1.0198 C   0  0  0  0  0  0  0  0  0  0  0  0
    0.5650   -0.5515   -1.0902 C   0  0  0  0  0  0  0  0  0  0  0  0
    1.3229    0.4467   -0.4729 C   0  0  0  0  0  0  0  0  0  0  0  0
    2.5144    0.1406    0.1978 C   0  0  0  0  0  0  0  0  0  0  0  0
    0.9476    1.7610   -0.5454 O   0  0  0  0  0  0  0  0  0  0  0  0
    0.0357    2.0994    0.4935 C   0  0  0  0  0  0  0  0  0  0  0  0
   -1.1789    2.7911   -0.1050 C   0  0  0  0  0  0  0  0  0  0  0  0
   -2.0396    3.2236    0.9434 O   0  0  0  0  0  0  0  0  0  0  0  0
   -3.3070    3.6876    0.4607 C   0  0  0  0  0  0  0  0  0  0  0  0
   -4.3545    2.5782    0.5326 C   0  0  0  0  0  0  0  0  0  0  0  0
   -4.1957    1.6820   -0.5641 O   0  0  0  0  0  0  0  0  0  0  0  0
   -5.0883    0.5676   -0.4809 C   0  0  0  0  0  0  0  0  0  0  0  0
   -5.1519   -0.1719   -1.8236 C   0  0  0  0  0  0  0  0  0  0  0  0
   -4.0550   -1.0700   -2.0114 O   0  0  0  0  0  0  0  0  0  0  0  0
   -2.8499   -0.4227   -2.4087 C   0  0  0  0  0  0  0  0  0  0  0  0
   -1.6913   -0.9770   -1.5862 C   0  0  0  0  0  0  0  0  0  0  0  0
   -0.5343   -0.1723   -1.8131 O   0  0  0  0  0  0  0  0  0  0  0  0
    4.8421   -2.6694    0.5527 N   0  0  0  0  0  0  0  0  0  0  0  0
    5.9987   -3.0216    1.1733 C   0  0  0  0  0  0  0  0  0  0  0  0
    6.6200   -4.2058    0.6748 C   0  0  0  0  0  0  0  0  0  0  0  0
    7.1348   -5.1673    0.2910 N   0  0  0  0  0  0  0  0  0  0  0  0
    4.2762    0.0664    2.4592 H   0  0  0  0  0  0  0  0  0  0  0  0
    2.5029   -3.2207   -0.2909 H   0  0  0  0  0  0  0  0  0  0  0  0
    0.4829   -2.6692   -1.5308 H   0  0  0  0  0  0  0  0  0  0  0  0
    3.0880    0.9619    0.6183 H   0  0  0  0  0  0  0  0  0  0  0  0
    0.5318    2.7698    1.1839 H   0  0  0  0  0  0  0  0  0  0  0  0
   -0.2864    1.2363    1.0788 H   0  0  0  0  0  0  0  0  0  0  0  0
   -1.7007    2.0941   -0.7717 H   0  0  0  0  0  0  0  0  0  0  0  0
   -0.8604    3.6603   -0.6946 H   0  0  0  0  0  0  0  0  0  0  0  0
   -3.2168    4.0853   -0.5513 H   0  0  0  0  0  0  0  0  0  0  0  0
   -3.6139    4.4960    1.1202 H   0  0  0  0  0  0  0  0  0  0  0  0
   -4.2634    2.0310    1.4843 H   0  0  0  0  0  0  0  0  0  0  0  0
   -5.3630    3.0314    0.4641 H   0  0  0  0  0  0  0  0  0  0  0  0
   -4.7342   -0.1146    0.3140 H   0  0  0  0  0  0  0  0  0  0  0  0
   -6.0933    0.9290   -0.2338 H   0  0  0  0  0  0  0  0  0  0  0  0
   -6.0540   -0.7963   -1.8250 H   0  0  0  0  0  0  0  0  0  0  0  0
   -5.2264    0.5314   -2.6712 H   0  0  0  0  0  0  0  0  0  0  0  0
   -2.6739   -0.6742   -3.4629 H   0  0  0  0  0  0  0  0  0  0  0  0
   -2.8944    0.6721   -2.3596 H   0  0  0  0  0  0  0  0  0  0  0  0
   -1.5301   -2.0137   -1.9099 H   0  0  0  0  0  0  0  0  0  0  0  0
   -1.9548   -0.9683   -0.5237 H   0  0  0  0  0  0  0  0  0  0  0  0
  1  2  3  0
  2  3  1  0
  3  4  2  0
  4  5  1  0
  5  6  2  0
  6  7  1  0
  7  8  2  0
  8  9  1  0
  9 10  2  0
 10 11  1  0
 11 12  2  0
 11 13  1  0
 13 14  1  0
 14 15  1  0
 15 16  1  0
 16 17  1  0
 17 18  1  0
 18 19  1  0
 19 20  1  0
 20 21  1  0
 21 22  1  0
 22 23  1  0
 23 24  1  0
 24 25  1  0
  6 26  1  0
 26 27  2  0
 27 28  1  0
 28 29  3  0
 27  3  1  0
 12  7  1  0
 25 10  1  0
  5 30  1  0
  8 31  1  0
  9 32  1  0
 12 33  1  0
 14 34  1  0
 14 35  1  0
 15 36  1  0
 15 37  1  0
 17 38  1  0
 17 39  1  0
 18 40  1  0
 18 41  1  0
 20 42  1  0
 20 43  1  0
 21 44  1  0
 21 45  1  0
 23 46  1  0
 23 47  1  0
 24 48  1  0
 24 49  1  0
M  END
$$$$
