
     RDKit          3D

 67 70  0  0  0  0  0  0  0  0999 V2000
   -3.1941   -1.3334    2.4400 C   0  0  0  0  0  0  0  0  0  0  0  0
   -1.8565   -0.8302    2.4497 O   0  0  0  0  0  0  0  0  0  0  0  0
   -1.7636    0.3993    1.8407 C   0  0  0  0  0  0  0  0  0  0  0  0
   -2.4618    1.4892    2.3838 C   0  0  0  0  0  0  0  0  0  0  0  0
   -2.3633    2.7577    1.8077 C   0  0  0  0  0  0  0  0  0  0  0  0
   -3.0100    3.8741    2.2767 O   0  0  0  0  0  0  0  0  0  0  0  0
   -3.7308    3.7544    3.4988 C   0  0  0  0  0  0  0  0  0  0  0  0
   -1.5600    2.9285    0.6687 C   0  0  0  0  0  0  0  0  0  0  0  0
   -1.4223    4.2233    0.0006 C   0  0  0  0  0  0  0  0  0  0  0  0
   -0.6583    4.3541   -1.0864 C   0  0  0  0  0  0  0  0  0  0  0  0
    0.0767    3.2215   -1.6606 C   0  0  0  0  0  0  0  0  0  0  0  0
    0.7558    3.3545   -2.6720 O   0  0  0  0  0  0  0  0  0  0  0  0
   -0.0468    2.0113   -0.9955 O   0  0  0  0  0  0  0  0  0  0  0  0
   -0.8513    1.8304    0.1559 C   0  0  0  0  0  0  0  0  0  0  0  0
   -0.9054    0.5488    0.7360 C   0  0  0  0  0  0  0  0  0  0  0  0
   -0.0989   -0.6456    0.2176 C   0  0  0  0  0  0  0  0  0  0  0  0
    1.4295   -0.4066    0.0867 C   0  0  0  0  0  0  0  0  0  0  0  0
    2.0740   -0.0605    1.4416 C   0  0  0  0  0  0  0  0  0  0  0  0
    3.5202    0.1942    1.3438 N   0  0  0  0  0  0  0  0  0  0  0  0
    4.2753   -0.9903    0.8998 C   0  0  0  0  0  0  0  0  0  0  0  0
    5.7404   -1.0118    1.3592 C   0  0  0  0  0  0  0  0  0  0  0  0
    6.3132    0.3943    1.4495 C   0  0  0  0  0  0  0  0  0  0  0  0
    5.4740    1.2685    2.3831 C   0  0  0  0  0  0  0  0  0  0  0  0
    4.0518    0.7371    2.5953 C   0  0  0  0  0  0  0  0  0  0  0  0
   -0.7217   -1.2756   -1.0269 C   0  0  0  0  0  0  0  0  0  0  0  0
   -1.6026   -2.3549   -0.8869 C   0  0  0  0  0  0  0  0  0  0  0  0
   -2.1920   -2.9639   -2.0053 C   0  0  0  0  0  0  0  0  0  0  0  0
   -1.9516   -2.5178   -3.3145 C   0  0  0  0  0  0  0  0  0  0  0  0
   -2.5196   -3.1315   -4.4378 N   0  0  0  0  0  0  0  0  0  0  0  0
   -2.7150   -2.3123   -5.6370 C   0  0  0  0  0  0  0  0  0  0  0  0
   -3.4798   -4.2182   -4.2534 C   0  0  0  0  0  0  0  0  0  0  0  0
   -1.0604   -1.4369   -3.4347 C   0  0  0  0  0  0  0  0  0  0  0  0
   -0.4567   -0.8271   -2.3228 C   0  0  0  0  0  0  0  0  0  0  0  0
   -3.7956   -0.8634    3.2241 H   0  0  0  0  0  0  0  0  0  0  0  0
   -3.1442   -2.4041    2.6551 H   0  0  0  0  0  0  0  0  0  0  0  0
   -3.6693   -1.2058    1.4610 H   0  0  0  0  0  0  0  0  0  0  0  0
   -3.0652    1.3232    3.2698 H   0  0  0  0  0  0  0  0  0  0  0  0
   -4.1297    4.7423    3.7481 H   0  0  0  0  0  0  0  0  0  0  0  0
   -3.0743    3.4431    4.3203 H   0  0  0  0  0  0  0  0  0  0  0  0
   -4.5818    3.0716    3.3836 H   0  0  0  0  0  0  0  0  0  0  0  0
   -1.9559    5.0776    0.4043 H   0  0  0  0  0  0  0  0  0  0  0  0
   -0.5442    5.3028   -1.5965 H   0  0  0  0  0  0  0  0  0  0  0  0
   -0.1487   -1.4318    0.9843 H   0  0  0  0  0  0  0  0  0  0  0  0
    1.6650    0.3793   -0.6376 H   0  0  0  0  0  0  0  0  0  0  0  0
    1.8840   -1.3256   -0.3085 H   0  0  0  0  0  0  0  0  0  0  0  0
    1.5920    0.8467    1.8246 H   0  0  0  0  0  0  0  0  0  0  0  0
    1.8753   -0.8591    2.1680 H   0  0  0  0  0  0  0  0  0  0  0  0
    3.8067   -1.9188    1.2523 H   0  0  0  0  0  0  0  0  0  0  0  0
    4.2542   -1.0166   -0.1971 H   0  0  0  0  0  0  0  0  0  0  0  0
    5.8094   -1.4902    2.3449 H   0  0  0  0  0  0  0  0  0  0  0  0
    6.3343   -1.6210    0.6684 H   0  0  0  0  0  0  0  0  0  0  0  0
    7.3525    0.3672    1.7950 H   0  0  0  0  0  0  0  0  0  0  0  0
    6.3254    0.8425    0.4475 H   0  0  0  0  0  0  0  0  0  0  0  0
    5.9672    1.3440    3.3600 H   0  0  0  0  0  0  0  0  0  0  0  0
    5.4393    2.2866    1.9752 H   0  0  0  0  0  0  0  0  0  0  0  0
    4.0419   -0.0258    3.3854 H   0  0  0  0  0  0  0  0  0  0  0  0
    3.4359    1.5710    2.9545 H   0  0  0  0  0  0  0  0  0  0  0  0
   -1.8331   -2.7506    0.0999 H   0  0  0  0  0  0  0  0  0  0  0  0
   -2.8541   -3.8024   -1.8111 H   0  0  0  0  0  0  0  0  0  0  0  0
   -3.2656   -2.8622   -6.4091 H   0  0  0  0  0  0  0  0  0  0  0  0
   -3.2905   -1.4072   -5.4086 H   0  0  0  0  0  0  0  0  0  0  0  0
   -1.7565   -2.0358   -6.0900 H   0  0  0  0  0  0  0  0  0  0  0  0
   -4.4047   -3.8514   -3.7939 H   0  0  0  0  0  0  0  0  0  0  0  0
   -3.7434   -4.6727   -5.2150 H   0  0  0  0  0  0  0  0  0  0  0  0
   -3.0570   -5.0270   -3.6446 H   0  0  0  0  0  0  0  0  0  0  0  0
   -0.7907   -1.0447   -4.4120 H   0  0  0  0  0  0  0  0  0  0  0  0
    0.2334   -0.0067   -2.5035 H   0  0  0  0  0  0  0  0  0  0  0  0
  1  2  1  0
  2  3  1  0
  3  4  2  0
  4  5  1  0
  5  6  1  0
  6  7  1  0
  5  8  2  0
  8  9  1  0
  9 10  2  0
 10 11  1  0
 11 12  2  0
 11 13  1  0
 13 14  1  0
 14 15  2  0
 15 16  1  0
 16 17  1  0
 17 18  1  0
 18 19  1  0
 19 20  1  0
 20 21  1  0
 21 22  1  0
 22 23  1  0
 23 24  1  0
 16 25  1  0
 25 26  2  0
 26 27  1  0
 27 28  2  0
 28 29  1  0
 29 30  1  0
 29 31  1  0
 28 32  1  0
 32 33  2  0
 15  3  1  0
 24 19  1  0
 33 25  1  0
 14  8  1  0
  1 34  1  0
  1 35  1  0
  1 36  1  0
  4 37  1  0
  7 38  1  0
  7 39  1  0
  7 40  1  0
  9 41  1  0
 10 42  1  0
 16 43  1  0
 17 44  1  0
 17 45  1  0
 18 46  1  0
 18 47  1  0
 20 48  1  0
 20 49  1  0
 21 50  1  0
 21 51  1  0
 22 52  1  0
 22 53  1  0
 23 54  1  0
 23 55  1  0
 24 56  1  0
 24 57  1  0
 26 58  1  0
 27 59  1  0
 30 60  1  0
 30 61  1  0
 30 62  1  0
 31 63  1  0
 31 64  1  0
 31 65  1  0
 32 66  1  0
 33 67  1  0
M  END
$$$$
