
     RDKit          3D

 40 41  0  0  0  0  0  0  0  0999 V2000
    5.5579    0.3246   -0.8382 C   0  0  0  0  0  0  0  0  0  0  0  0
    4.8059    0.6719    0.4328 C   0  0  0  0  0  0  0  0  0  0  0  0
    3.4785    0.1309    0.3850 O   0  0  0  0  0  0  0  0  0  0  0  0
    2.5344    0.9119   -0.2179 C   0  0  0  0  0  0  0  0  0  0  0  0
    2.7786    2.0089   -0.7090 O   0  0  0  0  0  0  0  0  0  0  0  0
    1.2012    0.2996   -0.2250 C   0  0  0  0  0  0  0  0  0  0  0  0
    0.0352    0.9488   -0.6334 C   0  0  0  0  0  0  0  0  0  0  0  0
   -0.1511    2.3603   -1.0876 C   0  0  0  0  0  0  0  0  0  0  0  0
   -1.0036    0.0429   -0.5621 N   0  0  0  0  0  0  0  0  0  0  0  0
   -2.3699    0.2822   -1.0146 C   0  0  0  0  0  0  0  0  0  0  0  0
   -3.0919    0.8800    0.0569 O   0  0  0  0  0  0  0  0  0  0  0  0
   -4.4484    1.1432   -0.3131 C   0  0  0  0  0  0  0  0  0  0  0  0
   -5.1599    1.7326    0.8993 C   0  0  0  0  0  0  0  0  0  0  0  0
   -5.1421    0.7891    1.9686 O   0  0  0  0  0  0  0  0  0  0  0  0
   -0.5611   -1.1525   -0.0287 C   0  0  0  0  0  0  0  0  0  0  0  0
   -1.2618   -2.3322    0.2850 C   0  0  0  0  0  0  0  0  0  0  0  0
   -0.5456   -3.4147    0.7976 C   0  0  0  0  0  0  0  0  0  0  0  0
    0.8214   -3.3201    0.9899 C   0  0  0  0  0  0  0  0  0  0  0  0
    1.4666   -4.4141    1.4910 O   0  0  0  0  0  0  0  0  0  0  0  0
    1.5177   -2.1490    0.6872 C   0  0  0  0  0  0  0  0  0  0  0  0
    0.8177   -1.0299    0.1730 C   0  0  0  0  0  0  0  0  0  0  0  0
    5.5639   -0.7588   -0.9972 H   0  0  0  0  0  0  0  0  0  0  0  0
    6.5910    0.6797   -0.7869 H   0  0  0  0  0  0  0  0  0  0  0  0
    5.0778    0.7720   -1.7142 H   0  0  0  0  0  0  0  0  0  0  0  0
    4.7926    1.7532    0.6107 H   0  0  0  0  0  0  0  0  0  0  0  0
    5.3063    0.2128    1.2918 H   0  0  0  0  0  0  0  0  0  0  0  0
   -1.1814    2.7054   -0.9620 H   0  0  0  0  0  0  0  0  0  0  0  0
    0.4741    3.0441   -0.5051 H   0  0  0  0  0  0  0  0  0  0  0  0
    0.1187    2.4544   -2.1440 H   0  0  0  0  0  0  0  0  0  0  0  0
   -2.3373    0.9410   -1.8888 H   0  0  0  0  0  0  0  0  0  0  0  0
   -2.8188   -0.6718   -1.3087 H   0  0  0  0  0  0  0  0  0  0  0  0
   -4.4743    1.8499   -1.1491 H   0  0  0  0  0  0  0  0  0  0  0  0
   -4.9264    0.2016   -0.6057 H   0  0  0  0  0  0  0  0  0  0  0  0
   -4.6564    2.6397    1.2480 H   0  0  0  0  0  0  0  0  0  0  0  0
   -6.2013    1.9689    0.6645 H   0  0  0  0  0  0  0  0  0  0  0  0
   -4.2048    0.5319    2.0733 H   0  0  0  0  0  0  0  0  0  0  0  0
   -2.3351   -2.4135    0.1457 H   0  0  0  0  0  0  0  0  0  0  0  0
   -1.0637   -4.3364    1.0489 H   0  0  0  0  0  0  0  0  0  0  0  0
    2.4074   -4.1957    1.5934 H   0  0  0  0  0  0  0  0  0  0  0  0
    2.5881   -2.0928    0.8490 H   0  0  0  0  0  0  0  0  0  0  0  0
  1  2  1  0
  2  3  1  0
  3  4  1  0
  4  5  2  0
  4  6  1  0
  6  7  2  0
  7  8  1  0
  7  9  1  0
  9 10  1  0
 10 11  1  0
 11 12  1  0
 12 13  1  0
 13 14  1  0
  9 15  1  0
 15 16  2  0
 16 17  1  0
 17 18  2  0
 18 19  1  0
 18 20  1  0
 20 21  2  0
 21  6  1  0
 21 15  1  0
  1 22  1  0
  1 23  1  0
  1 24  1  0
  2 25  1  0
  2 26  1  0
  8 27  1  0
  8 28  1  0
  8 29  1  0
 10 30  1  0
 10 31  1  0
 12 32  1  0
 12 33  1  0
 13 34  1  0
 13 35  1  0
 14 36  1  0
 16 37  1  0
 17 38  1  0
 19 39  1  0
 20 40  1  0
M  END
$$$$
