
     RDKit          3D

 59 63  0  0  0  0  0  0  0  0999 V2000
   -3.8086    1.7540   -2.6236 C   0  0  0  0  0  0  0  0  0  0  0  0
   -3.6648    1.3360   -1.1664 C   0  0  0  0  0  0  0  0  0  0  0  0
   -2.1797    1.1680   -0.7807 C   0  0  0  0  0  0  0  0  0  0  0  0
   -2.0177    0.7582    0.6396 N   0  0  0  0  0  0  0  0  0  0  0  0
   -1.7039   -0.6065    0.7516 C   0  0  0  0  0  0  0  0  0  0  0  0
   -2.5711   -1.5215    0.2664 N   0  0  0  0  0  0  0  0  0  0  0  0
   -2.2382   -2.8221    0.3644 C   0  0  0  0  0  0  0  0  0  0  0  0
   -3.1156   -3.7910   -0.1067 C   0  0  0  0  0  0  0  0  0  0  0  0
   -2.8081   -5.1501   -0.0281 C   0  0  0  0  0  0  0  0  0  0  0  0
   -1.6010   -5.5476    0.5314 C   0  0  0  0  0  0  0  0  0  0  0  0
   -0.7120   -4.5825    1.0063 C   0  0  0  0  0  0  0  0  0  0  0  0
   -1.0100   -3.2271    0.9324 C   0  0  0  0  0  0  0  0  0  0  0  0
   -0.1264   -2.3241    1.3939 N   0  0  0  0  0  0  0  0  0  0  0  0
   -0.4847   -1.0085    1.3165 C   0  0  0  0  0  0  0  0  0  0  0  0
    0.5451   -0.0069    1.7915 C   0  0  0  0  0  0  0  0  0  0  0  0
    0.0568    0.8246    2.9017 C   0  0  0  0  0  0  0  0  0  0  0  0
   -0.3241    1.4290    3.8196 N   0  0  0  0  0  0  0  0  0  0  0  0
    1.0946    0.8256    0.6378 C   0  0  0  0  0  0  0  0  0  0  0  0
    1.1572    2.0529    0.6426 O   0  0  0  0  0  0  0  0  0  0  0  0
    1.5912    0.0764   -0.4205 N   0  0  0  0  0  0  0  0  0  0  0  0
    2.2772    0.6871   -1.5365 C   0  0  0  0  0  0  0  0  0  0  0  0
    3.7695    0.5554   -1.3739 C   0  0  0  0  0  0  0  0  0  0  0  0
    4.4665   -0.5142   -1.9830 C   0  0  0  0  0  0  0  0  0  0  0  0
    5.8482   -0.6582   -1.8187 C   0  0  0  0  0  0  0  0  0  0  0  0
    6.5021    0.2712   -1.0399 C   0  0  0  0  0  0  0  0  0  0  0  0
    5.8330    1.3091   -0.4365 C   0  0  0  0  0  0  0  0  0  0  0  0
    4.4722    1.4776   -0.5797 C   0  0  0  0  0  0  0  0  0  0  0  0
    6.6608    2.1072    0.2895 O   0  0  0  0  0  0  0  0  0  0  0  0
    7.9293    1.4581    0.0663 C   0  0  0  0  0  0  0  0  0  0  0  0
    7.8354    0.2871   -0.7716 O   0  0  0  0  0  0  0  0  0  0  0  0
   -3.2107    1.0907    1.4663 C   0  0  0  0  0  0  0  0  0  0  0  0
   -3.8268    2.4193    0.9801 C   0  0  0  0  0  0  0  0  0  0  0  0
   -4.9786    2.8570    1.8735 C   0  0  0  0  0  0  0  0  0  0  0  0
   -4.3344    2.3301   -0.3667 O   0  0  0  0  0  0  0  0  0  0  0  0
   -3.3280    2.7229   -2.8007 H   0  0  0  0  0  0  0  0  0  0  0  0
   -4.8658    1.8747   -2.8848 H   0  0  0  0  0  0  0  0  0  0  0  0
   -3.3648    1.0134   -3.2959 H   0  0  0  0  0  0  0  0  0  0  0  0
   -4.2016    0.3900   -1.0246 H   0  0  0  0  0  0  0  0  0  0  0  0
   -1.6729    0.4756   -1.4662 H   0  0  0  0  0  0  0  0  0  0  0  0
   -1.6718    2.1357   -0.8856 H   0  0  0  0  0  0  0  0  0  0  0  0
   -4.0618   -3.4787   -0.5427 H   0  0  0  0  0  0  0  0  0  0  0  0
   -3.5118   -5.8906   -0.4008 H   0  0  0  0  0  0  0  0  0  0  0  0
   -1.3498   -6.6033    0.6023 H   0  0  0  0  0  0  0  0  0  0  0  0
    0.2320   -4.8938    1.4472 H   0  0  0  0  0  0  0  0  0  0  0  0
    1.4081   -0.5695    2.1774 H   0  0  0  0  0  0  0  0  0  0  0  0
    1.6666   -0.9304   -0.3225 H   0  0  0  0  0  0  0  0  0  0  0  0
    1.9953    1.7404   -1.6424 H   0  0  0  0  0  0  0  0  0  0  0  0
    1.9450    0.1709   -2.4440 H   0  0  0  0  0  0  0  0  0  0  0  0
    3.9311   -1.2395   -2.5927 H   0  0  0  0  0  0  0  0  0  0  0  0
    6.3899   -1.4726   -2.2862 H   0  0  0  0  0  0  0  0  0  0  0  0
    3.9643    2.3021   -0.0872 H   0  0  0  0  0  0  0  0  0  0  0  0
    8.6114    2.1740   -0.4070 H   0  0  0  0  0  0  0  0  0  0  0  0
    8.3473    1.1625    1.0352 H   0  0  0  0  0  0  0  0  0  0  0  0
   -3.9739    0.3028    1.4046 H   0  0  0  0  0  0  0  0  0  0  0  0
   -2.9071    1.1806    2.5149 H   0  0  0  0  0  0  0  0  0  0  0  0
   -3.0611    3.2053    0.9844 H   0  0  0  0  0  0  0  0  0  0  0  0
   -5.4020    3.8021    1.5163 H   0  0  0  0  0  0  0  0  0  0  0  0
   -5.7898    2.1211    1.8531 H   0  0  0  0  0  0  0  0  0  0  0  0
   -4.6512    2.9900    2.9090 H   0  0  0  0  0  0  0  0  0  0  0  0
  1  2  1  0
  2  3  1  0
  3  4  1  0
  4  5  1  0
  5  6  2  0
  6  7  1  0
  7  8  2  0
  8  9  1  0
  9 10  2  0
 10 11  1  0
 11 12  2  0
 12 13  1  0
 13 14  2  0
 14 15  1  0
 15 16  1  0
 16 17  3  0
 15 18  1  0
 18 19  2  0
 18 20  1  0
 20 21  1  0
 21 22  1  0
 22 23  2  0
 23 24  1  0
 24 25  2  0
 25 26  1  0
 26 27  2  0
 26 28  1  0
 28 29  1  0
 29 30  1  0
  4 31  1  0
 31 32  1  0
 32 33  1  0
 32 34  1  0
 34  2  1  0
 14  5  1  0
 27 22  1  0
 12  7  1  0
 30 25  1  0
  1 35  1  0
  1 36  1  0
  1 37  1  0
  2 38  1  0
  3 39  1  0
  3 40  1  0
  8 41  1  0
  9 42  1  0
 10 43  1  0
 11 44  1  0
 15 45  1  0
 20 46  1  0
 21 47  1  0
 21 48  1  0
 23 49  1  0
 24 50  1  0
 27 51  1  0
 29 52  1  0
 29 53  1  0
 31 54  1  0
 31 55  1  0
 32 56  1  0
 33 57  1  0
 33 58  1  0
 33 59  1  0
M  END
$$$$
