
     RDKit          3D

 47 48  0  0  0  0  0  0  0  0999 V2000
    6.0569    2.6667    0.7039 C   0  0  0  0  0  0  0  0  0  0  0  0
    5.1139    1.5008    0.7337 C   0  0  0  0  0  0  0  0  0  0  0  0
    5.6037    0.1939    0.6434 C   0  0  0  0  0  0  0  0  0  0  0  0
    4.7316   -0.8958    0.7020 C   0  0  0  0  0  0  0  0  0  0  0  0
    3.3512   -0.7006    0.8534 C   0  0  0  0  0  0  0  0  0  0  0  0
    2.4038   -1.8741    0.9201 C   0  0  0  0  0  0  0  0  0  0  0  0
    2.3394   -2.8557   -0.6033 S   0  0  0  0  0  0  0  0  0  0  0  0
    1.5017   -1.7774   -1.6744 C   0  0  0  0  0  0  0  0  0  0  0  0
    1.3929   -1.9759   -2.9731 N   0  0  0  0  0  0  0  0  0  0  0  0
    0.6565   -0.9251   -3.4811 N   0  0  0  0  0  0  0  0  0  0  0  0
    0.3520   -0.1654   -2.4518 C   0  0  0  0  0  0  0  0  0  0  0  0
   -0.4344    1.0873   -2.4040 C   0  0  0  0  0  0  0  0  0  0  0  0
   -1.8663    0.8689   -2.8926 C   0  0  0  0  0  0  0  0  0  0  0  0
   -2.6370   -0.0242   -2.0528 N   0  0  0  0  0  0  0  0  0  0  0  0
   -3.0897    0.3257   -0.8186 C   0  0  0  0  0  0  0  0  0  0  0  0
   -2.9285    1.4219   -0.3074 O   0  0  0  0  0  0  0  0  0  0  0  0
   -3.7137   -0.7378   -0.2667 O   0  0  0  0  0  0  0  0  0  0  0  0
   -4.2891   -0.6510    1.0623 C   0  0  0  0  0  0  0  0  0  0  0  0
   -5.4140    0.3887    1.1148 C   0  0  0  0  0  0  0  0  0  0  0  0
   -3.2112   -0.3830    2.1188 C   0  0  0  0  0  0  0  0  0  0  0  0
   -4.8921   -2.0406    1.3181 C   0  0  0  0  0  0  0  0  0  0  0  0
    0.8409   -0.6470   -1.2701 O   0  0  0  0  0  0  0  0  0  0  0  0
    2.8671    0.6095    0.9657 C   0  0  0  0  0  0  0  0  0  0  0  0
    3.7407    1.6988    0.9087 C   0  0  0  0  0  0  0  0  0  0  0  0
    5.5406    3.5837    0.3999 H   0  0  0  0  0  0  0  0  0  0  0  0
    6.4919    2.8225    1.6967 H   0  0  0  0  0  0  0  0  0  0  0  0
    6.8631    2.4946   -0.0158 H   0  0  0  0  0  0  0  0  0  0  0  0
    6.6702    0.0159    0.5249 H   0  0  0  0  0  0  0  0  0  0  0  0
    5.1399   -1.9019    0.6254 H   0  0  0  0  0  0  0  0  0  0  0  0
    2.7319   -2.5330    1.7324 H   0  0  0  0  0  0  0  0  0  0  0  0
    1.3918   -1.5507    1.1872 H   0  0  0  0  0  0  0  0  0  0  0  0
    0.0534    1.8304   -3.0452 H   0  0  0  0  0  0  0  0  0  0  0  0
   -0.4321    1.4940   -1.3861 H   0  0  0  0  0  0  0  0  0  0  0  0
   -2.3860    1.8330   -2.9203 H   0  0  0  0  0  0  0  0  0  0  0  0
   -1.8797    0.4508   -3.9055 H   0  0  0  0  0  0  0  0  0  0  0  0
   -2.7781   -0.9890   -2.3244 H   0  0  0  0  0  0  0  0  0  0  0  0
   -5.0334    1.4094    1.0030 H   0  0  0  0  0  0  0  0  0  0  0  0
   -5.9554    0.3432    2.0664 H   0  0  0  0  0  0  0  0  0  0  0  0
   -6.1281    0.2311    0.2984 H   0  0  0  0  0  0  0  0  0  0  0  0
   -2.7988    0.6273    2.0343 H   0  0  0  0  0  0  0  0  0  0  0  0
   -2.3701   -1.0759    2.0020 H   0  0  0  0  0  0  0  0  0  0  0  0
   -3.6125   -0.4883    3.1327 H   0  0  0  0  0  0  0  0  0  0  0  0
   -5.3729   -2.1011    2.3001 H   0  0  0  0  0  0  0  0  0  0  0  0
   -4.1191   -2.8162    1.2632 H   0  0  0  0  0  0  0  0  0  0  0  0
   -5.6356   -2.2902    0.5521 H   0  0  0  0  0  0  0  0  0  0  0  0
    1.8033    0.7961    1.0975 H   0  0  0  0  0  0  0  0  0  0  0  0
    3.3394    2.7056    1.0029 H   0  0  0  0  0  0  0  0  0  0  0  0
  1  2  1  0
  2  3  2  0
  3  4  1  0
  4  5  2  0
  5  6  1  0
  6  7  1  0
  7  8  1  0
  8  9  2  0
  9 10  1  0
 10 11  2  0
 11 12  1  0
 12 13  1  0
 13 14  1  0
 14 15  1  0
 15 16  2  0
 15 17  1  0
 17 18  1  0
 18 19  1  0
 18 20  1  0
 18 21  1  0
 11 22  1  0
  5 23  1  0
 23 24  2  0
 24  2  1  0
 22  8  1  0
  1 25  1  0
  1 26  1  0
  1 27  1  0
  3 28  1  0
  4 29  1  0
  6 30  1  0
  6 31  1  0
 12 32  1  0
 12 33  1  0
 13 34  1  0
 13 35  1  0
 14 36  1  0
 19 37  1  0
 19 38  1  0
 19 39  1  0
 20 40  1  0
 20 41  1  0
 20 42  1  0
 21 43  1  0
 21 44  1  0
 21 45  1  0
 23 46  1  0
 24 47  1  0
M  END
$$$$
