
     RDKit          3D

 52 55  0  0  0  0  0  0  0  0999 V2000
    6.8553    3.1310   -1.2735 C   0  0  0  0  0  0  0  0  0  0  0  0
    6.1364    2.2082   -2.2457 C   0  0  0  0  0  0  0  0  0  0  0  0
    4.8883    1.6181   -1.6397 C   0  0  0  0  0  0  0  0  0  0  0  0
    4.9442    0.4119   -0.9297 C   0  0  0  0  0  0  0  0  0  0  0  0
    3.7909   -0.1292   -0.3524 C   0  0  0  0  0  0  0  0  0  0  0  0
    2.5668    0.5349   -0.4770 C   0  0  0  0  0  0  0  0  0  0  0  0
    1.3248   -0.0090    0.1202 C   0  0  0  0  0  0  0  0  0  0  0  0
    0.1901    0.6224    0.0979 N   0  0  0  0  0  0  0  0  0  0  0  0
   -0.7313   -0.1772    0.7122 N   0  0  0  0  0  0  0  0  0  0  0  0
   -2.0026    0.3047    1.0200 C   0  0  0  0  0  0  0  0  0  0  0  0
   -2.3781    1.6151    0.6671 C   0  0  0  0  0  0  0  0  0  0  0  0
   -3.6464    2.1294    0.9584 C   0  0  0  0  0  0  0  0  0  0  0  0
   -4.5769    1.3231    1.6081 C   0  0  0  0  0  0  0  0  0  0  0  0
   -6.1719    1.9684    2.0071 S   0  0  0  0  0  6  0  0  0  0  0  0
   -7.0536    1.5968    0.6278 N   0  0  0  0  0  0  0  0  0  0  0  0
   -6.7529    1.1819    3.0705 O   0  0  0  0  0  0  0  0  0  0  0  0
   -6.1066    3.4103    2.0598 O   0  0  0  0  0  0  0  0  0  0  0  0
   -4.2392    0.0244    1.9841 C   0  0  0  0  0  0  0  0  0  0  0  0
   -2.9642   -0.4739    1.6863 C   0  0  0  0  0  0  0  0  0  0  0  0
   -0.2015   -1.4958    1.0649 C   0  0  0  0  0  0  0  0  0  0  0  0
   -0.7673   -2.6220    0.2087 C   0  0  0  0  0  0  0  0  0  0  0  0
   -0.9312   -3.9013    0.7711 C   0  0  0  0  0  0  0  0  0  0  0  0
   -1.4261   -4.9567    0.0025 C   0  0  0  0  0  0  0  0  0  0  0  0
   -1.7534   -4.7410   -1.3303 C   0  0  0  0  0  0  0  0  0  0  0  0
   -2.2272   -5.7558   -2.0650 F   0  0  0  0  0  0  0  0  0  0  0  0
   -1.5937   -3.4903   -1.9115 C   0  0  0  0  0  0  0  0  0  0  0  0
   -1.0985   -2.4337   -1.1457 C   0  0  0  0  0  0  0  0  0  0  0  0
    1.3018   -1.3335    0.8321 C   0  0  0  0  0  0  0  0  0  0  0  0
    2.5084    1.7446   -1.1781 C   0  0  0  0  0  0  0  0  0  0  0  0
    3.6617    2.2831   -1.7537 C   0  0  0  0  0  0  0  0  0  0  0  0
    7.7558    3.5436   -1.7391 H   0  0  0  0  0  0  0  0  0  0  0  0
    6.2153    3.9673   -0.9724 H   0  0  0  0  0  0  0  0  0  0  0  0
    7.1569    2.5956   -0.3668 H   0  0  0  0  0  0  0  0  0  0  0  0
    6.8108    1.4020   -2.5593 H   0  0  0  0  0  0  0  0  0  0  0  0
    5.8783    2.7594   -3.1582 H   0  0  0  0  0  0  0  0  0  0  0  0
    5.8907   -0.1140   -0.8205 H   0  0  0  0  0  0  0  0  0  0  0  0
    3.8779   -1.0646    0.1914 H   0  0  0  0  0  0  0  0  0  0  0  0
   -1.6638    2.2564    0.1537 H   0  0  0  0  0  0  0  0  0  0  0  0
   -3.8894    3.1500    0.6739 H   0  0  0  0  0  0  0  0  0  0  0  0
   -7.3657    2.4555    0.1744 H   0  0  0  0  0  0  0  0  0  0  0  0
   -7.8084    0.9519    0.8614 H   0  0  0  0  0  0  0  0  0  0  0  0
   -4.9545   -0.6085    2.5041 H   0  0  0  0  0  0  0  0  0  0  0  0
   -2.7433   -1.4936    1.9870 H   0  0  0  0  0  0  0  0  0  0  0  0
   -0.3818   -1.7084    2.1265 H   0  0  0  0  0  0  0  0  0  0  0  0
   -0.6767   -4.0842    1.8132 H   0  0  0  0  0  0  0  0  0  0  0  0
   -1.5586   -5.9441    0.4332 H   0  0  0  0  0  0  0  0  0  0  0  0
   -1.8564   -3.3419   -2.9539 H   0  0  0  0  0  0  0  0  0  0  0  0
   -0.9813   -1.4545   -1.6091 H   0  0  0  0  0  0  0  0  0  0  0  0
    1.7516   -2.1306    0.2340 H   0  0  0  0  0  0  0  0  0  0  0  0
    1.8370   -1.2307    1.7822 H   0  0  0  0  0  0  0  0  0  0  0  0
    1.5650    2.2774   -1.2804 H   0  0  0  0  0  0  0  0  0  0  0  0
    3.5946    3.2270   -2.2908 H   0  0  0  0  0  0  0  0  0  0  0  0
  1  2  1  0
  2  3  1  0
  3  4  2  0
  4  5  1  0
  5  6  2  0
  6  7  1  0
  7  8  2  0
  8  9  1  0
  9 10  1  0
 10 11  2  0
 11 12  1  0
 12 13  2  0
 13 14  1  0
 14 15  1  0
 14 16  2  0
 14 17  2  0
 13 18  1  0
 18 19  2  0
  9 20  1  0
 20 21  1  0
 21 22  2  0
 22 23  1  0
 23 24  2  0
 24 25  1  0
 24 26  1  0
 26 27  2  0
 20 28  1  0
  6 29  1  0
 29 30  2  0
 30  3  1  0
 28  7  1  0
 19 10  1  0
 27 21  1  0
  1 31  1  0
  1 32  1  0
  1 33  1  0
  2 34  1  0
  2 35  1  0
  4 36  1  0
  5 37  1  0
 11 38  1  0
 12 39  1  0
 15 40  1  0
 15 41  1  0
 18 42  1  0
 19 43  1  0
 20 44  1  0
 22 45  1  0
 23 46  1  0
 26 47  1  0
 27 48  1  0
 28 49  1  0
 28 50  1  0
 29 51  1  0
 30 52  1  0
M  END
$$$$
