
     RDKit          3D

 35 37  0  0  0  0  0  0  0  0999 V2000
    5.5912   -1.2577    1.1134 C   0  0  0  0  0  0  0  0  0  0  0  0
    4.1237   -0.9379    1.2041 C   0  0  0  0  0  0  0  0  0  0  0  0
    3.2024   -1.9832    1.3709 C   0  0  0  0  0  0  0  0  0  0  0  0
    1.8352   -1.7202    1.4665 C   0  0  0  0  0  0  0  0  0  0  0  0
    1.3639   -0.4115    1.3875 C   0  0  0  0  0  0  0  0  0  0  0  0
   -0.0094   -0.1490    1.4652 N   0  0  0  0  0  0  0  0  0  0  0  0
   -0.6964   -0.1100    0.3761 C   0  0  0  0  0  0  0  0  0  0  0  0
   -0.2490   -0.2957   -0.8927 N   0  0  0  0  0  0  0  0  0  0  0  0
   -1.1607   -0.2055   -1.9029 C   0  0  0  0  0  0  0  0  0  0  0  0
   -0.8984   -0.3485   -3.0867 O   0  0  0  0  0  0  0  0  0  0  0  0
   -2.5104    0.0945   -1.3464 C   0  0  0  0  0  0  0  0  0  0  0  0
   -3.5712    0.1974   -2.1581 C   0  0  0  0  0  0  0  0  0  0  0  0
   -4.9099    0.4658   -1.7481 C   0  0  0  0  0  0  0  0  0  0  0  0
   -5.4228    1.3021   -0.7698 C   0  0  0  0  0  0  0  0  0  0  0  0
   -6.8468    1.2778   -0.6980 C   0  0  0  0  0  0  0  0  0  0  0  0
   -7.3935    0.4359   -1.6365 C   0  0  0  0  0  0  0  0  0  0  0  0
   -6.1983   -0.3089   -2.6001 S   0  0  0  0  0  0  0  0  0  0  0  0
   -2.4107    0.2095    0.3720 S   0  0  0  0  0  0  0  0  0  0  0  0
    2.2765    0.6367    1.2462 C   0  0  0  0  0  0  0  0  0  0  0  0
    3.6561    0.3904    1.1488 C   0  0  0  0  0  0  0  0  0  0  0  0
    4.6015    1.5504    0.9955 C   0  0  0  0  0  0  0  0  0  0  0  0
    6.1263   -0.8261    1.9651 H   0  0  0  0  0  0  0  0  0  0  0  0
    5.7682   -2.3385    1.1225 H   0  0  0  0  0  0  0  0  0  0  0  0
    6.0103   -0.8663    0.1811 H   0  0  0  0  0  0  0  0  0  0  0  0
    3.5448   -3.0141    1.4359 H   0  0  0  0  0  0  0  0  0  0  0  0
    1.1355   -2.5396    1.6083 H   0  0  0  0  0  0  0  0  0  0  0  0
    0.7170   -0.4942   -1.0994 H   0  0  0  0  0  0  0  0  0  0  0  0
   -3.4160    0.0331   -3.2249 H   0  0  0  0  0  0  0  0  0  0  0  0
   -4.8093    1.9204   -0.1259 H   0  0  0  0  0  0  0  0  0  0  0  0
   -7.4366    1.8545    0.0039 H   0  0  0  0  0  0  0  0  0  0  0  0
   -8.4402    0.2269   -1.8095 H   0  0  0  0  0  0  0  0  0  0  0  0
    1.9000    1.6569    1.2182 H   0  0  0  0  0  0  0  0  0  0  0  0
    4.0674    2.5066    0.9900 H   0  0  0  0  0  0  0  0  0  0  0  0
    5.3116    1.5753    1.8281 H   0  0  0  0  0  0  0  0  0  0  0  0
    5.1480    1.4727    0.0504 H   0  0  0  0  0  0  0  0  0  0  0  0
  1  2  1  0
  2  3  2  0
  3  4  1  0
  4  5  2  0
  5  6  1  0
  6  7  2  3
  7  8  1  0
  8  9  1  0
  9 10  2  0
  9 11  1  0
 11 12  2  3
 12 13  1  0
 13 14  2  0
 14 15  1  0
 15 16  2  0
 16 17  1  0
 11 18  1  0
  5 19  1  0
 19 20  2  0
 20 21  1  0
 20  2  1  0
 18  7  1  0
 17 13  1  0
  1 22  1  0
  1 23  1  0
  1 24  1  0
  3 25  1  0
  4 26  1  0
  8 27  1  0
 12 28  1  0
 14 29  1  0
 15 30  1  0
 16 31  1  0
 19 32  1  0
 21 33  1  0
 21 34  1  0
 21 35  1  0
M  END
$$$$
