
     RDKit          3D

 46 49  0  0  0  0  0  0  0  0999 V2000
   -0.7977    1.7390    2.1258 O   0  0  0  0  0  0  0  0  0  0  0  0
   -0.8134    0.7026    1.4662 C   0  0  0  0  0  0  0  0  0  0  0  0
    0.2626    0.4034    0.5360 C   0  0  0  0  0  0  0  0  0  0  0  0
    0.9760   -0.7790    0.4647 C   0  0  0  0  0  0  0  0  0  0  0  0
    1.9426   -0.6181   -0.4964 N   0  0  0  0  0  0  0  0  0  0  0  0
    2.9137   -1.5657   -0.9290 C   0  0  0  0  0  0  0  0  0  0  0  0
    2.9845   -2.8474   -0.3646 C   0  0  0  0  0  0  0  0  0  0  0  0
    3.9483   -3.7567   -0.8115 C   0  0  0  0  0  0  0  0  0  0  0  0
    4.8421   -3.3963   -1.8185 C   0  0  0  0  0  0  0  0  0  0  0  0
    4.7776   -2.1248   -2.3836 C   0  0  0  0  0  0  0  0  0  0  0  0
    3.8183   -1.2109   -1.9425 C   0  0  0  0  0  0  0  0  0  0  0  0
    1.8886    0.6167   -1.0442 N   0  0  0  0  0  0  0  0  0  0  0  0
    0.8874    1.2561   -0.4181 C   0  0  0  0  0  0  0  0  0  0  0  0
    0.5686    2.6418   -0.7797 C   0  0  0  0  0  0  0  0  0  0  0  0
    1.6033    3.5266   -1.1310 C   0  0  0  0  0  0  0  0  0  0  0  0
    1.3227    4.8476   -1.4882 C   0  0  0  0  0  0  0  0  0  0  0  0
    0.0054    5.2862   -1.5001 C   0  0  0  0  0  0  0  0  0  0  0  0
   -0.2666    6.5519   -1.8437 F   0  0  0  0  0  0  0  0  0  0  0  0
   -1.0354    4.4288   -1.1657 C   0  0  0  0  0  0  0  0  0  0  0  0
   -0.7556    3.1061   -0.8093 C   0  0  0  0  0  0  0  0  0  0  0  0
   -1.8483   -0.2299    1.5872 N   0  0  0  0  0  0  0  0  0  0  0  0
   -2.8481   -0.0004    2.6279 C   0  0  0  0  0  0  0  0  0  0  0  0
   -3.5779   -1.2843    3.0009 C   0  0  0  0  0  0  0  0  0  0  0  0
   -4.2738   -1.9201    1.7973 C   0  0  0  0  0  0  0  0  0  0  0  0
   -3.6256   -1.5449    0.4651 C   0  0  0  0  0  0  0  0  0  0  0  0
   -2.1293   -1.2835    0.6071 C   0  0  0  0  0  0  0  0  0  0  0  0
    0.8774   -1.6867    1.0387 H   0  0  0  0  0  0  0  0  0  0  0  0
    2.3126   -3.1726    0.4228 H   0  0  0  0  0  0  0  0  0  0  0  0
    4.0031   -4.7496   -0.3715 H   0  0  0  0  0  0  0  0  0  0  0  0
    5.5904   -4.1060   -2.1624 H   0  0  0  0  0  0  0  0  0  0  0  0
    5.4742   -1.8411   -3.1687 H   0  0  0  0  0  0  0  0  0  0  0  0
    3.7880   -0.2234   -2.4001 H   0  0  0  0  0  0  0  0  0  0  0  0
    2.6372    3.1860   -1.1249 H   0  0  0  0  0  0  0  0  0  0  0  0
    2.1221    5.5305   -1.7557 H   0  0  0  0  0  0  0  0  0  0  0  0
   -2.0576    4.7926   -1.1838 H   0  0  0  0  0  0  0  0  0  0  0  0
   -1.5856    2.4503   -0.5622 H   0  0  0  0  0  0  0  0  0  0  0  0
   -2.3619    0.4219    3.5147 H   0  0  0  0  0  0  0  0  0  0  0  0
   -3.5531    0.7505    2.2509 H   0  0  0  0  0  0  0  0  0  0  0  0
   -2.8519   -2.0001    3.4079 H   0  0  0  0  0  0  0  0  0  0  0  0
   -4.3085   -1.0927    3.7946 H   0  0  0  0  0  0  0  0  0  0  0  0
   -4.2692   -3.0098    1.9211 H   0  0  0  0  0  0  0  0  0  0  0  0
   -5.3283   -1.6197    1.7741 H   0  0  0  0  0  0  0  0  0  0  0  0
   -4.1091   -0.6382    0.0789 H   0  0  0  0  0  0  0  0  0  0  0  0
   -3.8068   -2.3352   -0.2718 H   0  0  0  0  0  0  0  0  0  0  0  0
   -1.7210   -1.0095   -0.3705 H   0  0  0  0  0  0  0  0  0  0  0  0
   -1.6215   -2.1923    0.9497 H   0  0  0  0  0  0  0  0  0  0  0  0
  1  2  2  0
  2  3  1  0
  3  4  2  0
  4  5  1  0
  5  6  1  0
  6  7  2  0
  7  8  1  0
  8  9  2  0
  9 10  1  0
 10 11  2  0
  5 12  1  0
 12 13  2  0
 13 14  1  0
 14 15  2  0
 15 16  1  0
 16 17  2  0
 17 18  1  0
 17 19  1  0
 19 20  2  0
  2 21  1  0
 21 22  1  0
 22 23  1  0
 23 24  1  0
 24 25  1  0
 25 26  1  0
 13  3  1  0
 20 14  1  0
 26 21  1  0
 11  6  1  0
  4 27  1  0
  7 28  1  0
  8 29  1  0
  9 30  1  0
 10 31  1  0
 11 32  1  0
 15 33  1  0
 16 34  1  0
 19 35  1  0
 20 36  1  0
 22 37  1  0
 22 38  1  0
 23 39  1  0
 23 40  1  0
 24 41  1  0
 24 42  1  0
 25 43  1  0
 25 44  1  0
 26 45  1  0
 26 46  1  0
M  END
$$$$
