
     RDKit          3D

 36 37  0  0  0  0  0  0  0  0999 V2000
    3.9384   -2.7521    1.7026 C   0  0  0  0  0  0  0  0  0  0  0  0
    4.2033   -1.3711    1.4895 O   0  0  0  0  0  0  0  0  0  0  0  0
    3.3639   -0.7033    0.6409 C   0  0  0  0  0  0  0  0  0  0  0  0
    3.6766    0.6485    0.4581 C   0  0  0  0  0  0  0  0  0  0  0  0
    2.9028    1.4543   -0.3795 C   0  0  0  0  0  0  0  0  0  0  0  0
    1.7993    0.9002   -1.0303 C   0  0  0  0  0  0  0  0  0  0  0  0
    0.8204    1.9070   -2.1204 S   0  0  0  0  0  6  0  0  0  0  0  0
    0.1710    1.0339   -3.0764 O   0  0  0  0  0  0  0  0  0  0  0  0
    1.6365    3.0246   -2.5482 O   0  0  0  0  0  0  0  0  0  0  0  0
   -0.3730    2.5502   -1.0696 N   0  0  0  0  0  0  0  0  0  0  0  0
   -0.9849    1.6521   -0.0579 N   0  0  0  0  0  0  0  0  0  0  0  0
   -2.1238    1.1109   -0.3858 C   0  0  0  0  0  0  0  0  0  0  0  0
   -2.8535    1.4122   -1.6795 C   0  0  0  0  0  0  0  0  0  0  0  0
   -2.7364    0.1263    0.5579 C   0  0  0  0  0  0  0  0  0  0  0  0
   -3.6497   -0.8325    0.1202 C   0  0  0  0  0  0  0  0  0  0  0  0
   -4.1576   -1.7205    1.0530 C   0  0  0  0  0  0  0  0  0  0  0  0
   -3.8166   -1.7149    2.3585 N   0  0  0  0  0  0  0  0  0  0  0  0
   -2.9224   -0.7849    2.7540 C   0  0  0  0  0  0  0  0  0  0  0  0
   -2.3570    0.1457    1.9016 C   0  0  0  0  0  0  0  0  0  0  0  0
    1.4872   -0.4530   -0.8707 C   0  0  0  0  0  0  0  0  0  0  0  0
    2.2676   -1.2518   -0.0287 C   0  0  0  0  0  0  0  0  0  0  0  0
    4.6937   -3.1341    2.3961 H   0  0  0  0  0  0  0  0  0  0  0  0
    4.0255   -3.3193    0.7699 H   0  0  0  0  0  0  0  0  0  0  0  0
    2.9569   -2.8987    2.1654 H   0  0  0  0  0  0  0  0  0  0  0  0
    4.5358    1.0743    0.9719 H   0  0  0  0  0  0  0  0  0  0  0  0
    3.1690    2.4994   -0.5162 H   0  0  0  0  0  0  0  0  0  0  0  0
   -0.0500    3.4562   -0.7176 H   0  0  0  0  0  0  0  0  0  0  0  0
   -3.9344    1.3009   -1.5570 H   0  0  0  0  0  0  0  0  0  0  0  0
   -2.5069    0.7297   -2.4598 H   0  0  0  0  0  0  0  0  0  0  0  0
   -2.6802    2.4436   -1.9974 H   0  0  0  0  0  0  0  0  0  0  0  0
   -3.9573   -0.9171   -0.9151 H   0  0  0  0  0  0  0  0  0  0  0  0
   -4.8711   -2.4883    0.7656 H   0  0  0  0  0  0  0  0  0  0  0  0
   -2.6628   -0.8092    3.8088 H   0  0  0  0  0  0  0  0  0  0  0  0
   -1.6407    0.8655    2.2832 H   0  0  0  0  0  0  0  0  0  0  0  0
    0.6368   -0.8888   -1.3904 H   0  0  0  0  0  0  0  0  0  0  0  0
    1.9937   -2.2961    0.0805 H   0  0  0  0  0  0  0  0  0  0  0  0
  1  2  1  0
  2  3  1  0
  3  4  2  0
  4  5  1  0
  5  6  2  0
  6  7  1  0
  7  8  2  0
  7  9  2  0
  7 10  1  0
 10 11  1  0
 11 12  2  3
 12 13  1  0
 12 14  1  0
 14 15  2  0
 15 16  1  0
 16 17  2  0
 17 18  1  0
 18 19  2  0
  6 20  1  0
 20 21  2  0
 21  3  1  0
 19 14  1  0
  1 22  1  0
  1 23  1  0
  1 24  1  0
  4 25  1  0
  5 26  1  0
 10 27  1  0
 13 28  1  0
 13 29  1  0
 13 30  1  0
 15 31  1  0
 16 32  1  0
 18 33  1  0
 19 34  1  0
 20 35  1  0
 21 36  1  0
M  END
$$$$
