
     RDKit          3D

 72 76  0  0  0  0  0  0  0  0999 V2000
    9.4263   -0.2309   -2.0700 C   0  0  0  0  0  0  0  0  0  0  0  0
    8.4142   -1.1697   -1.7356 O   0  0  0  0  0  0  0  0  0  0  0  0
    7.1915   -0.6675   -1.3865 C   0  0  0  0  0  0  0  0  0  0  0  0
    6.2479   -1.6338   -1.0291 C   0  0  0  0  0  0  0  0  0  0  0  0
    4.9592   -1.2631   -0.6386 C   0  0  0  0  0  0  0  0  0  0  0  0
    4.5868    0.0891   -0.6149 C   0  0  0  0  0  0  0  0  0  0  0  0
    3.2299    0.4880   -0.2230 C   0  0  0  0  0  0  0  0  0  0  0  0
    3.0684    1.5399    0.5863 N   0  0  0  0  0  0  0  0  0  0  0  0
    1.4634    1.7502    0.9181 S   0  0  0  0  0  0  0  0  0  0  0  0
    0.9062    0.4352   -0.0154 C   0  0  0  0  0  0  0  0  0  0  0  0
   -0.5033    0.1298   -0.1490 C   0  0  0  0  0  0  0  0  0  0  0  0
   -0.9768   -0.1642   -1.2487 O   0  0  0  0  0  0  0  0  0  0  0  0
   -1.3291    0.1674    0.9928 N   0  0  0  0  0  0  0  0  0  0  0  0
   -0.8764   -0.2429    2.2927 C   0  0  0  0  0  0  0  0  0  0  0  0
    0.0958   -1.2493    2.4225 C   0  0  0  0  0  0  0  0  0  0  0  0
    0.5512   -1.6484    3.6837 C   0  0  0  0  0  0  0  0  0  0  0  0
    0.0275   -1.0591    4.8228 C   0  0  0  0  0  0  0  0  0  0  0  0
    0.4685   -1.4334    6.0304 F   0  0  0  0  0  0  0  0  0  0  0  0
   -0.9423   -0.0725    4.7268 C   0  0  0  0  0  0  0  0  0  0  0  0
   -1.3928    0.3342    3.4656 C   0  0  0  0  0  0  0  0  0  0  0  0
   -2.7575    0.5393    0.8030 C   0  0  0  0  0  0  0  0  0  0  0  0
   -3.5728   -0.4134   -0.1211 C   0  0  0  0  0  0  0  0  0  0  0  0
   -4.5781   -0.0639   -0.7361 O   0  0  0  0  0  0  0  0  0  0  0  0
   -3.1907   -1.7461   -0.0372 N   0  0  0  0  0  0  0  0  0  0  0  0
   -3.8311   -2.7716   -0.8484 C   0  0  0  0  0  0  0  0  0  0  0  0
   -3.2570   -2.8121   -2.2670 C   0  0  0  0  0  0  0  0  0  0  0  0
   -2.0616   -3.7475   -2.1432 C   0  0  0  0  0  0  0  0  0  0  0  0
   -2.5870   -4.8533   -1.2386 C   0  0  0  0  0  0  0  0  0  0  0  0
   -3.5484   -4.1640   -0.2670 C   0  0  0  0  0  0  0  0  0  0  0  0
   -2.9507    2.0268    0.5059 C   0  0  0  0  0  0  0  0  0  0  0  0
   -3.5870    2.8515    1.4532 C   0  0  0  0  0  0  0  0  0  0  0  0
   -3.7690    4.2210    1.2193 C   0  0  0  0  0  0  0  0  0  0  0  0
   -3.3149    4.7895    0.0300 C   0  0  0  0  0  0  0  0  0  0  0  0
   -3.4205    6.1096   -0.3130 O   0  0  0  0  0  0  0  0  0  0  0  0
   -4.4414    6.8435    0.3602 C   0  0  0  0  0  0  0  0  0  0  0  0
   -2.6718    3.9854   -0.9113 C   0  0  0  0  0  0  0  0  0  0  0  0
   -2.5086    2.6160   -0.6874 C   0  0  0  0  0  0  0  0  0  0  0  0
    1.9908   -0.1368   -0.6537 C   0  0  0  0  0  0  0  0  0  0  0  0
    1.8821   -1.1600   -1.5500 N   0  0  0  0  0  0  0  0  0  0  0  0
    5.5367    1.0553   -0.9719 C   0  0  0  0  0  0  0  0  0  0  0  0
    6.8321    0.6805   -1.3525 C   0  0  0  0  0  0  0  0  0  0  0  0
    9.1502    0.3415   -2.9609 H   0  0  0  0  0  0  0  0  0  0  0  0
    9.6448    0.4342   -1.2271 H   0  0  0  0  0  0  0  0  0  0  0  0
   10.3399   -0.7903   -2.2927 H   0  0  0  0  0  0  0  0  0  0  0  0
    6.5219   -2.6870   -1.0467 H   0  0  0  0  0  0  0  0  0  0  0  0
    4.2598   -2.0377   -0.3328 H   0  0  0  0  0  0  0  0  0  0  0  0
    0.5059   -1.7658    1.5580 H   0  0  0  0  0  0  0  0  0  0  0  0
    1.3015   -2.4293    3.7797 H   0  0  0  0  0  0  0  0  0  0  0  0
   -1.3350    0.3838    5.6309 H   0  0  0  0  0  0  0  0  0  0  0  0
   -2.1208    1.1363    3.4373 H   0  0  0  0  0  0  0  0  0  0  0  0
   -3.2650    0.3499    1.7587 H   0  0  0  0  0  0  0  0  0  0  0  0
   -2.2354   -1.9167    0.2506 H   0  0  0  0  0  0  0  0  0  0  0  0
   -4.9048   -2.5617   -0.8716 H   0  0  0  0  0  0  0  0  0  0  0  0
   -2.9761   -1.8288   -2.6530 H   0  0  0  0  0  0  0  0  0  0  0  0
   -3.9905   -3.2566   -2.9504 H   0  0  0  0  0  0  0  0  0  0  0  0
   -1.7252   -4.1280   -3.1147 H   0  0  0  0  0  0  0  0  0  0  0  0
   -1.2166   -3.2325   -1.6660 H   0  0  0  0  0  0  0  0  0  0  0  0
   -1.7806   -5.3807   -0.7196 H   0  0  0  0  0  0  0  0  0  0  0  0
   -3.1347   -5.5936   -1.8328 H   0  0  0  0  0  0  0  0  0  0  0  0
   -3.1188   -4.1104    0.7398 H   0  0  0  0  0  0  0  0  0  0  0  0
   -4.4757   -4.7482   -0.1875 H   0  0  0  0  0  0  0  0  0  0  0  0
   -3.9658    2.4371    2.3853 H   0  0  0  0  0  0  0  0  0  0  0  0
   -4.2621    4.8152    1.9853 H   0  0  0  0  0  0  0  0  0  0  0  0
   -4.1449    7.0616    1.3915 H   0  0  0  0  0  0  0  0  0  0  0  0
   -5.4030    6.3205    0.3306 H   0  0  0  0  0  0  0  0  0  0  0  0
   -4.5712    7.7979   -0.1591 H   0  0  0  0  0  0  0  0  0  0  0  0
   -2.3104    4.4268   -1.8395 H   0  0  0  0  0  0  0  0  0  0  0  0
   -2.0419    2.0251   -1.4724 H   0  0  0  0  0  0  0  0  0  0  0  0
    2.6525   -1.3079   -2.2020 H   0  0  0  0  0  0  0  0  0  0  0  0
    0.9852   -1.2843   -2.0281 H   0  0  0  0  0  0  0  0  0  0  0  0
    5.2741    2.1132   -0.9514 H   0  0  0  0  0  0  0  0  0  0  0  0
    7.5331    1.4677   -1.6129 H   0  0  0  0  0  0  0  0  0  0  0  0
  1  2  1  0
  2  3  1  0
  3  4  2  0
  4  5  1  0
  5  6  2  0
  6  7  1  0
  7  8  2  0
  8  9  1  0
  9 10  1  0
 10 11  1  0
 11 12  2  0
 11 13  1  0
 13 14  1  0
 14 15  2  0
 15 16  1  0
 16 17  2  0
 17 18  1  0
 17 19  1  0
 19 20  2  0
 13 21  1  0
 21 22  1  0
 22 23  2  0
 22 24  1  0
 24 25  1  0
 25 26  1  0
 26 27  1  0
 27 28  1  0
 28 29  1  0
 21 30  1  0
 30 31  2  0
 31 32  1  0
 32 33  2  0
 33 34  1  0
 34 35  1  0
 33 36  1  0
 36 37  2  0
 10 38  2  0
 38 39  1  0
  6 40  1  0
 40 41  2  0
 41  3  1  0
 38  7  1  0
 20 14  1  0
 29 25  1  0
 37 30  1  0
  1 42  1  0
  1 43  1  0
  1 44  1  0
  4 45  1  0
  5 46  1  0
 15 47  1  0
 16 48  1  0
 19 49  1  0
 20 50  1  0
 21 51  1  0
 24 52  1  0
 25 53  1  0
 26 54  1  0
 26 55  1  0
 27 56  1  0
 27 57  1  0
 28 58  1  0
 28 59  1  0
 29 60  1  0
 29 61  1  0
 31 62  1  0
 32 63  1  0
 35 64  1  0
 35 65  1  0
 35 66  1  0
 36 67  1  0
 37 68  1  0
 39 69  1  0
 39 70  1  0
 40 71  1  0
 41 72  1  0
M  END
$$$$
