
     RDKit          3D

 42 44  0  0  0  0  0  0  0  0999 V2000
   -2.5847    0.1548   -1.9291 O   0  0  0  0  0  0  0  0  0  0  0  0
   -2.4133    0.2285   -0.7096 C   0  0  0  0  0  0  0  0  0  0  0  0
   -3.5288   -0.1833    0.2829 C   0  0  0  0  0  0  0  0  0  0  0  0
   -3.3468   -1.6281    0.7236 C   0  0  0  0  0  0  0  0  0  0  0  0
   -4.1475   -2.3818   -0.3105 C   0  0  0  0  0  0  0  0  0  0  0  0
   -5.2979   -1.4384   -0.5820 C   0  0  0  0  0  0  0  0  0  0  0  0
   -4.8370   -0.1114   -0.2997 O   0  0  0  0  0  0  0  0  0  0  0  0
   -1.1991    0.6539   -0.1786 N   0  0  0  0  0  0  0  0  0  0  0  0
   -0.9114    0.8101    1.2523 C   0  0  0  0  0  0  0  0  0  0  0  0
    0.5953    0.8198    1.5479 C   0  0  0  0  0  0  0  0  0  0  0  0
    1.2871    1.9015    0.7993 N   0  0  0  0  0  0  0  0  0  0  0  0
    2.9729    1.9874    0.9495 S   0  0  0  0  0  6  0  0  0  0  0  0
    3.4189    3.2042    0.3052 O   0  0  0  0  0  0  0  0  0  0  0  0
    3.3083    1.7013    2.3287 O   0  0  0  0  0  0  0  0  0  0  0  0
    3.5437    0.6168   -0.0355 C   0  0  0  0  0  0  0  0  0  0  0  0
    3.8371    0.8106   -1.3892 C   0  0  0  0  0  0  0  0  0  0  0  0
    4.3003   -0.2608   -2.1527 C   0  0  0  0  0  0  0  0  0  0  0  0
    4.4864   -1.5113   -1.5614 C   0  0  0  0  0  0  0  0  0  0  0  0
    4.2220   -1.6936   -0.2031 C   0  0  0  0  0  0  0  0  0  0  0  0
    3.7579   -0.6272    0.5669 C   0  0  0  0  0  0  0  0  0  0  0  0
    0.6827    2.2575   -0.5165 C   0  0  0  0  0  0  0  0  0  0  0  0
   -0.1519    1.1103   -1.0997 C   0  0  0  0  0  0  0  0  0  0  0  0
   -3.5197    0.5066    1.1316 H   0  0  0  0  0  0  0  0  0  0  0  0
   -2.3065   -1.9619    0.7710 H   0  0  0  0  0  0  0  0  0  0  0  0
   -3.8006   -1.7731    1.7114 H   0  0  0  0  0  0  0  0  0  0  0  0
   -4.4769   -3.3691    0.0240 H   0  0  0  0  0  0  0  0  0  0  0  0
   -3.5512   -2.5162   -1.2206 H   0  0  0  0  0  0  0  0  0  0  0  0
   -5.6502   -1.4944   -1.6159 H   0  0  0  0  0  0  0  0  0  0  0  0
   -6.1425   -1.6446    0.0838 H   0  0  0  0  0  0  0  0  0  0  0  0
   -1.3655    1.7576    1.5658 H   0  0  0  0  0  0  0  0  0  0  0  0
   -1.3882    0.0070    1.8198 H   0  0  0  0  0  0  0  0  0  0  0  0
    0.7423    0.9734    2.6220 H   0  0  0  0  0  0  0  0  0  0  0  0
    1.0151   -0.1528    1.2724 H   0  0  0  0  0  0  0  0  0  0  0  0
    3.7191    1.7878   -1.8520 H   0  0  0  0  0  0  0  0  0  0  0  0
    4.5283   -0.1198   -3.2068 H   0  0  0  0  0  0  0  0  0  0  0  0
    4.8540   -2.3431   -2.1583 H   0  0  0  0  0  0  0  0  0  0  0  0
    4.3889   -2.6652    0.2562 H   0  0  0  0  0  0  0  0  0  0  0  0
    3.5739   -0.7711    1.6292 H   0  0  0  0  0  0  0  0  0  0  0  0
    0.0439    3.1338   -0.3521 H   0  0  0  0  0  0  0  0  0  0  0  0
    1.4430    2.5556   -1.2435 H   0  0  0  0  0  0  0  0  0  0  0  0
   -0.5890    1.4262   -2.0526 H   0  0  0  0  0  0  0  0  0  0  0  0
    0.4874    0.2425   -1.3013 H   0  0  0  0  0  0  0  0  0  0  0  0
  1  2  2  0
  2  3  1  0
  3  4  1  0
  4  5  1  0
  5  6  1  0
  6  7  1  0
  2  8  1  0
  8  9  1  0
  9 10  1  0
 10 11  1  0
 11 12  1  0
 12 13  2  0
 12 14  2  0
 12 15  1  0
 15 16  2  0
 16 17  1  0
 17 18  2  0
 18 19  1  0
 19 20  2  0
 11 21  1  0
 21 22  1  0
  7  3  1  0
 22  8  1  0
 20 15  1  0
  3 23  1  0
  4 24  1  0
  4 25  1  0
  5 26  1  0
  5 27  1  0
  6 28  1  0
  6 29  1  0
  9 30  1  0
  9 31  1  0
 10 32  1  0
 10 33  1  0
 16 34  1  0
 17 35  1  0
 18 36  1  0
 19 37  1  0
 20 38  1  0
 21 39  1  0
 21 40  1  0
 22 41  1  0
 22 42  1  0
M  END
$$$$
