
     RDKit          3D

 40 41  0  0  0  0  0  0  0  0999 V2000
   -3.4955   -0.6883    3.1896 C   0  0  0  0  0  0  0  0  0  0  0  0
   -3.9563    0.0699    1.9988 C   0  0  0  0  0  0  0  0  0  0  0  0
   -5.2547    0.3647    1.8651 N   0  0  0  0  0  0  0  0  0  0  0  0
   -5.3249    1.0405    0.7090 N   0  0  0  0  0  0  0  0  0  0  0  0
   -6.6110    1.5197    0.2570 C   0  0  0  0  0  0  0  0  0  0  0  0
   -4.1142    1.1816    0.0799 C   0  0  0  0  0  0  0  0  0  0  0  0
   -3.9636    1.8785   -1.2239 C   0  0  0  0  0  0  0  0  0  0  0  0
   -3.1858    0.5666    0.9100 C   0  0  0  0  0  0  0  0  0  0  0  0
   -1.7603    0.4786    0.6679 C   0  0  0  0  0  0  0  0  0  0  0  0
   -1.0112   -0.1460    1.5192 N   0  0  0  0  0  0  0  0  0  0  0  0
    0.3335   -0.2547    1.2658 N   0  0  0  0  0  0  0  0  0  0  0  0
    0.9051   -0.3922    0.0035 C   0  0  0  0  0  0  0  0  0  0  0  0
    0.3169   -0.2997   -1.0692 O   0  0  0  0  0  0  0  0  0  0  0  0
    2.3915   -0.6518    0.0898 C   0  0  0  0  0  0  0  0  0  0  0  0
    2.9749   -0.9075   -1.2925 C   0  0  0  0  0  0  0  0  0  0  0  0
    4.4153   -1.0851   -1.2497 N   0  0  0  0  0  0  0  0  0  0  0  0
    5.3560   -0.3026   -1.8550 C   0  0  0  0  0  0  0  0  0  0  0  0
    6.5737   -0.8695   -1.5369 C   0  0  0  0  0  0  0  0  0  0  0  0
    7.8683   -0.4189   -1.9377 N   0  0  0  0  0  4  0  0  0  0  0  0
    8.8360   -1.0786   -1.5394 O   0  0  0  0  0  0  0  0  0  0  0  0
    7.9188    0.5944   -2.6462 O   0  0  0  0  0  1  0  0  0  0  0  0
    6.2602   -1.9809   -0.7361 C   0  0  0  0  0  0  0  0  0  0  0  0
    4.9414   -2.1132   -0.5527 N   0  0  0  0  0  0  0  0  0  0  0  0
   -4.3291   -0.9328    3.8566 H   0  0  0  0  0  0  0  0  0  0  0  0
   -3.0247   -1.6290    2.8873 H   0  0  0  0  0  0  0  0  0  0  0  0
   -2.7721   -0.1003    3.7631 H   0  0  0  0  0  0  0  0  0  0  0  0
   -6.9489    0.8718   -0.5553 H   0  0  0  0  0  0  0  0  0  0  0  0
   -6.5020    2.5504   -0.0890 H   0  0  0  0  0  0  0  0  0  0  0  0
   -7.3235    1.4875    1.0856 H   0  0  0  0  0  0  0  0  0  0  0  0
   -3.0167    1.6243   -1.7088 H   0  0  0  0  0  0  0  0  0  0  0  0
   -3.9911    2.9631   -1.0791 H   0  0  0  0  0  0  0  0  0  0  0  0
   -4.7652    1.6002   -1.9157 H   0  0  0  0  0  0  0  0  0  0  0  0
   -1.3743    0.9887   -0.2278 H   0  0  0  0  0  0  0  0  0  0  0  0
    0.8557   -0.6122    2.0622 H   0  0  0  0  0  0  0  0  0  0  0  0
    2.8701    0.2206    0.5507 H   0  0  0  0  0  0  0  0  0  0  0  0
    2.5607   -1.5163    0.7427 H   0  0  0  0  0  0  0  0  0  0  0  0
    2.7649   -0.0722   -1.9709 H   0  0  0  0  0  0  0  0  0  0  0  0
    2.5547   -1.8149   -1.7421 H   0  0  0  0  0  0  0  0  0  0  0  0
    5.0958    0.5629   -2.4497 H   0  0  0  0  0  0  0  0  0  0  0  0
    6.9318   -2.6974   -0.2784 H   0  0  0  0  0  0  0  0  0  0  0  0
  1  2  1  0
  2  3  2  0
  3  4  1  0
  4  5  1  0
  4  6  1  0
  6  7  1  0
  6  8  2  0
  8  9  1  0
  9 10  2  3
 10 11  1  0
 11 12  1  0
 12 13  2  0
 12 14  1  0
 14 15  1  0
 15 16  1  0
 16 17  1  0
 17 18  2  0
 18 19  1  0
 19 20  2  0
 19 21  1  0
 18 22  1  0
 22 23  2  0
  8  2  1  0
 23 16  1  0
  1 24  1  0
  1 25  1  0
  1 26  1  0
  5 27  1  0
  5 28  1  0
  5 29  1  0
  7 30  1  0
  7 31  1  0
  7 32  1  0
  9 33  1  0
 11 34  1  0
 14 35  1  0
 14 36  1  0
 15 37  1  0
 15 38  1  0
 17 39  1  0
 22 40  1  0
M  CHG  2  19   1  21  -1
M  END
$$$$
