
     RDKit          3D

 47 51  0  0  0  0  0  0  0  0999 V2000
   -4.9173   -2.5904    1.6016 C   0  0  0  0  0  0  0  0  0  0  0  0
   -5.0288   -1.3348    0.8156 C   0  0  0  0  0  0  0  0  0  0  0  0
   -3.9757   -0.5630    0.3390 C   0  0  0  0  0  0  0  0  0  0  0  0
   -2.5329   -0.7244    0.4486 C   0  0  0  0  0  0  0  0  0  0  0  0
   -2.0214   -1.6679    1.0423 O   0  0  0  0  0  0  0  0  0  0  0  0
   -1.8389    0.2932   -0.1840 N   0  0  0  0  0  0  0  0  0  0  0  0
   -0.4469    0.4742   -0.2895 C   0  0  0  0  0  0  0  0  0  0  0  0
   -0.0120    1.6022   -0.9915 C   0  0  0  0  0  0  0  0  0  0  0  0
    1.3527    1.8738   -1.1535 C   0  0  0  0  0  0  0  0  0  0  0  0
    2.3072    0.9994   -0.6023 C   0  0  0  0  0  0  0  0  0  0  0  0
    3.6792    1.1412   -0.6824 N   0  0  0  0  0  0  0  0  0  0  0  0
    4.3004    0.1580   -0.0668 C   0  0  0  0  0  0  0  0  0  0  0  0
    5.6585    0.0641   -0.0045 N   0  0  0  0  0  0  0  0  0  0  0  0
    6.3600   -0.9945    0.7240 C   0  0  0  0  0  0  0  0  0  0  0  0
    7.8428   -1.0198    0.3175 C   0  0  0  0  0  0  0  0  0  0  0  0
    8.5334    0.2125    0.5660 O   0  0  0  0  0  0  0  0  0  0  0  0
    7.6899    1.3699    0.4655 C   0  0  0  0  0  0  0  0  0  0  0  0
    6.4812    1.1883   -0.4664 C   0  0  0  0  0  0  0  0  0  0  0  0
    3.2280   -0.9986    0.6489 S   0  0  0  0  0  0  0  0  0  0  0  0
    1.8626   -0.1191    0.0933 C   0  0  0  0  0  0  0  0  0  0  0  0
    0.4932   -0.4028    0.2632 C   0  0  0  0  0  0  0  0  0  0  0  0
   -4.4628    0.5231   -0.3432 O   0  0  0  0  0  0  0  0  0  0  0  0
   -5.8189    0.4509   -0.3062 C   0  0  0  0  0  0  0  0  0  0  0  0
   -6.6889    1.3711   -0.8870 C   0  0  0  0  0  0  0  0  0  0  0  0
   -8.0561    1.1189   -0.7374 C   0  0  0  0  0  0  0  0  0  0  0  0
   -8.5096   -0.0021   -0.0388 C   0  0  0  0  0  0  0  0  0  0  0  0
   -7.6070   -0.9098    0.5344 C   0  0  0  0  0  0  0  0  0  0  0  0
   -6.2254   -0.6758    0.3962 C   0  0  0  0  0  0  0  0  0  0  0  0
   -4.3740   -3.3518    1.0327 H   0  0  0  0  0  0  0  0  0  0  0  0
   -4.3833   -2.4090    2.5399 H   0  0  0  0  0  0  0  0  0  0  0  0
   -5.9014   -2.9985    1.8509 H   0  0  0  0  0  0  0  0  0  0  0  0
   -2.4316    0.9903   -0.6235 H   0  0  0  0  0  0  0  0  0  0  0  0
   -0.7271    2.2955   -1.4287 H   0  0  0  0  0  0  0  0  0  0  0  0
    1.6834    2.7512   -1.7001 H   0  0  0  0  0  0  0  0  0  0  0  0
    6.2787   -0.8047    1.8010 H   0  0  0  0  0  0  0  0  0  0  0  0
    5.9319   -1.9789    0.5050 H   0  0  0  0  0  0  0  0  0  0  0  0
    7.9405   -1.2450   -0.7512 H   0  0  0  0  0  0  0  0  0  0  0  0
    8.3695   -1.8077    0.8653 H   0  0  0  0  0  0  0  0  0  0  0  0
    7.3517    1.6179    1.4787 H   0  0  0  0  0  0  0  0  0  0  0  0
    8.3128    2.2001    0.1177 H   0  0  0  0  0  0  0  0  0  0  0  0
    6.8252    0.9715   -1.4845 H   0  0  0  0  0  0  0  0  0  0  0  0
    5.9227    2.1311   -0.4906 H   0  0  0  0  0  0  0  0  0  0  0  0
    0.2062   -1.2902    0.8152 H   0  0  0  0  0  0  0  0  0  0  0  0
   -6.3210    2.2356   -1.4256 H   0  0  0  0  0  0  0  0  0  0  0  0
   -8.7772    1.8078   -1.1727 H   0  0  0  0  0  0  0  0  0  0  0  0
   -9.5790   -0.1757    0.0633 H   0  0  0  0  0  0  0  0  0  0  0  0
   -7.9750   -1.7770    1.0746 H   0  0  0  0  0  0  0  0  0  0  0  0
  1  2  1  0
  2  3  2  0
  3  4  1  0
  4  5  2  0
  4  6  1  0
  6  7  1  0
  7  8  2  0
  8  9  1  0
  9 10  2  0
 10 11  1  0
 11 12  2  0
 12 13  1  0
 13 14  1  0
 14 15  1  0
 15 16  1  0
 16 17  1  0
 17 18  1  0
 12 19  1  0
 19 20  1  0
 20 21  2  0
  3 22  1  0
 22 23  1  0
 23 24  2  0
 24 25  1  0
 25 26  2  0
 26 27  1  0
 27 28  2  0
 28  2  1  0
 21  7  1  0
 28 23  1  0
 20 10  1  0
 18 13  1  0
  1 29  1  0
  1 30  1  0
  1 31  1  0
  6 32  1  0
  8 33  1  0
  9 34  1  0
 14 35  1  0
 14 36  1  0
 15 37  1  0
 15 38  1  0
 17 39  1  0
 17 40  1  0
 18 41  1  0
 18 42  1  0
 21 43  1  0
 24 44  1  0
 25 45  1  0
 26 46  1  0
 27 47  1  0
M  END
$$$$
