
     RDKit          3D

 41 41  0  0  0  0  0  0  0  0999 V2000
    4.9382   -2.0249    2.3227 C   0  0  0  0  0  0  0  0  0  0  0  0
    4.1556   -0.8500    1.7582 C   0  0  0  0  0  0  0  0  0  0  0  0
    2.7206   -1.2473    1.4128 C   0  0  0  0  0  0  0  0  0  0  0  0
    1.9359   -0.0617    0.8453 C   0  0  0  0  0  0  0  0  0  0  0  0
    0.4993   -0.4655    0.4961 C   0  0  0  0  0  0  0  0  0  0  0  0
   -0.3763    0.7189    0.0362 C   0  0  0  0  0  0  0  0  0  0  0  0
    0.0861    1.3113   -1.2994 C   0  0  0  0  0  0  0  0  0  0  0  0
   -0.7714    2.4996   -1.7055 C   0  0  0  0  0  0  0  0  0  0  0  0
   -0.1814    3.4436   -2.3754 N   0  0  0  0  0  0  0  0  0  0  0  0
   -1.0547    4.4860   -2.7061 O   0  0  0  0  0  0  0  0  0  0  0  0
   -2.2160    2.4702   -1.3298 C   0  0  0  0  0  0  0  0  0  0  0  0
   -2.7235    1.4777   -0.5781 C   0  0  0  0  0  0  0  0  0  0  0  0
   -4.1872    1.4403   -0.2334 C   0  0  0  0  0  0  0  0  0  0  0  0
   -1.8777    0.3450   -0.0205 C   0  0  0  0  0  0  0  0  0  0  0  0
   -2.1298   -0.9244   -0.8423 C   0  0  0  0  0  0  0  0  0  0  0  0
   -2.1702   -0.9826   -2.0641 O   0  0  0  0  0  0  0  0  0  0  0  0
   -2.2786   -1.9955   -0.0086 O   0  0  0  0  0  0  0  0  0  0  0  0
   -2.4972   -3.2327   -0.6878 C   0  0  0  0  0  0  0  0  0  0  0  0
    5.9612   -1.7186    2.5627 H   0  0  0  0  0  0  0  0  0  0  0  0
    4.9899   -2.8454    1.6000 H   0  0  0  0  0  0  0  0  0  0  0  0
    4.4728   -2.4023    3.2389 H   0  0  0  0  0  0  0  0  0  0  0  0
    4.1502   -0.0356    2.4920 H   0  0  0  0  0  0  0  0  0  0  0  0
    4.6647   -0.4763    0.8622 H   0  0  0  0  0  0  0  0  0  0  0  0
    2.7312   -2.0644    0.6812 H   0  0  0  0  0  0  0  0  0  0  0  0
    2.2181   -1.6247    2.3117 H   0  0  0  0  0  0  0  0  0  0  0  0
    2.4507    0.3111   -0.0468 H   0  0  0  0  0  0  0  0  0  0  0  0
    1.9217    0.7528    1.5793 H   0  0  0  0  0  0  0  0  0  0  0  0
    0.5270   -1.2392   -0.2809 H   0  0  0  0  0  0  0  0  0  0  0  0
    0.0404   -0.9193    1.3839 H   0  0  0  0  0  0  0  0  0  0  0  0
   -0.2793    1.5098    0.7956 H   0  0  0  0  0  0  0  0  0  0  0  0
    0.0510    0.5705   -2.1060 H   0  0  0  0  0  0  0  0  0  0  0  0
    1.1224    1.6587   -1.2218 H   0  0  0  0  0  0  0  0  0  0  0  0
   -0.4772    5.0847   -3.2153 H   0  0  0  0  0  0  0  0  0  0  0  0
   -2.8370    3.2736   -1.7090 H   0  0  0  0  0  0  0  0  0  0  0  0
   -4.3220    1.4710    0.8526 H   0  0  0  0  0  0  0  0  0  0  0  0
   -4.6486    0.5244   -0.6160 H   0  0  0  0  0  0  0  0  0  0  0  0
   -4.7328    2.2890   -0.6595 H   0  0  0  0  0  0  0  0  0  0  0  0
   -2.2128    0.1568    1.0092 H   0  0  0  0  0  0  0  0  0  0  0  0
   -1.6397   -3.4777   -1.3222 H   0  0  0  0  0  0  0  0  0  0  0  0
   -3.4181   -3.1890   -1.2777 H   0  0  0  0  0  0  0  0  0  0  0  0
   -2.6057   -4.0178    0.0656 H   0  0  0  0  0  0  0  0  0  0  0  0
  1  2  1  0
  2  3  1  0
  3  4  1  0
  4  5  1  0
  5  6  1  0
  6  7  1  0
  7  8  1  0
  8  9  2  3
  9 10  1  0
  8 11  1  0
 11 12  2  0
 12 13  1  0
 12 14  1  0
 14 15  1  0
 15 16  2  0
 15 17  1  0
 17 18  1  0
 14  6  1  0
  1 19  1  0
  1 20  1  0
  1 21  1  0
  2 22  1  0
  2 23  1  0
  3 24  1  0
  3 25  1  0
  4 26  1  0
  4 27  1  0
  5 28  1  0
  5 29  1  0
  6 30  1  0
  7 31  1  0
  7 32  1  0
 10 33  1  0
 11 34  1  0
 13 35  1  0
 13 36  1  0
 13 37  1  0
 14 38  1  0
 18 39  1  0
 18 40  1  0
 18 41  1  0
M  END
$$$$
