
     RDKit          3D

 51 54  0  0  0  0  0  0  0  0999 V2000
    3.4829    3.0272   -0.1280 C   0  0  0  0  0  0  0  0  0  0  0  0
    2.7340    1.8063   -0.6788 C   0  0  0  0  0  0  0  0  0  0  0  0
    1.3091    2.2108   -1.1149 C   0  0  0  0  0  0  0  0  0  0  0  0
    0.4944    1.7334    0.0467 C   0  0  0  0  0  0  0  0  0  0  0  0
   -0.8419    2.0005    0.3035 C   0  0  0  0  0  0  0  0  0  0  0  0
   -1.4288    1.3803    1.4113 C   0  0  0  0  0  0  0  0  0  0  0  0
   -3.1360    1.7098    1.7821 S   0  0  0  0  0  6  0  0  0  0  0  0
   -3.4322    3.0488    1.3230 O   0  0  0  0  0  0  0  0  0  0  0  0
   -3.3918    1.2950    3.1429 O   0  0  0  0  0  0  0  0  0  0  0  0
   -3.9387    0.6660    0.7587 N   0  0  0  0  0  0  0  0  0  0  0  0
   -3.7334   -0.7705    0.8866 C   0  0  0  0  0  0  0  0  0  0  0  0
   -4.7873   -1.5331    0.1216 C   0  0  0  0  0  0  0  0  0  0  0  0
   -6.1238   -1.5040    0.5474 C   0  0  0  0  0  0  0  0  0  0  0  0
   -7.1076   -2.1979   -0.1579 C   0  0  0  0  0  0  0  0  0  0  0  0
   -6.7666   -2.9257   -1.2961 C   0  0  0  0  0  0  0  0  0  0  0  0
   -5.4428   -2.9590   -1.7312 C   0  0  0  0  0  0  0  0  0  0  0  0
   -4.4566   -2.2649   -1.0276 C   0  0  0  0  0  0  0  0  0  0  0  0
   -0.6872    0.5242    2.2433 C   0  0  0  0  0  0  0  0  0  0  0  0
    0.6561    0.2564    1.9569 C   0  0  0  0  0  0  0  0  0  0  0  0
    1.2384    0.8715    0.8596 C   0  0  0  0  0  0  0  0  0  0  0  0
    2.5592    0.7694    0.3706 N   0  0  0  0  0  0  0  0  0  0  0  0
    3.5145   -0.1433    0.8137 C   0  0  0  0  0  0  0  0  0  0  0  0
    3.3168   -0.9084    1.7660 O   0  0  0  0  0  0  0  0  0  0  0  0
    4.8485   -0.1908    0.0118 C   0  0  0  0  0  0  0  0  0  0  0  0
    5.9635   -1.1522    0.5233 C   0  0  0  0  0  0  0  0  0  0  0  0
    6.3101   -1.4321   -0.9501 C   0  0  0  0  0  0  0  0  0  0  0  0
    4.8600   -1.0437   -1.2900 C   0  0  0  0  0  0  0  0  0  0  0  0
    4.4743    2.7642    0.2491 H   0  0  0  0  0  0  0  0  0  0  0  0
    3.6111    3.7826   -0.9105 H   0  0  0  0  0  0  0  0  0  0  0  0
    2.9379    3.4898    0.7027 H   0  0  0  0  0  0  0  0  0  0  0  0
    3.2920    1.3945   -1.5255 H   0  0  0  0  0  0  0  0  0  0  0  0
    1.0120    1.6577   -2.0129 H   0  0  0  0  0  0  0  0  0  0  0  0
    1.2008    3.2845   -1.2937 H   0  0  0  0  0  0  0  0  0  0  0  0
   -1.4121    2.6671   -0.3371 H   0  0  0  0  0  0  0  0  0  0  0  0
   -4.1839    1.0431   -0.1535 H   0  0  0  0  0  0  0  0  0  0  0  0
   -3.7679   -1.0828    1.9362 H   0  0  0  0  0  0  0  0  0  0  0  0
   -2.7439   -1.0310    0.4954 H   0  0  0  0  0  0  0  0  0  0  0  0
   -6.4017   -0.9335    1.4323 H   0  0  0  0  0  0  0  0  0  0  0  0
   -8.1401   -2.1690    0.1810 H   0  0  0  0  0  0  0  0  0  0  0  0
   -7.5335   -3.4666   -1.8446 H   0  0  0  0  0  0  0  0  0  0  0  0
   -5.1789   -3.5272   -2.6195 H   0  0  0  0  0  0  0  0  0  0  0  0
   -3.4295   -2.3030   -1.3833 H   0  0  0  0  0  0  0  0  0  0  0  0
   -1.1467    0.0622    3.1154 H   0  0  0  0  0  0  0  0  0  0  0  0
    1.2165   -0.4067    2.6078 H   0  0  0  0  0  0  0  0  0  0  0  0
    5.2740    0.8066   -0.1521 H   0  0  0  0  0  0  0  0  0  0  0  0
    5.6000   -2.0359    1.0605 H   0  0  0  0  0  0  0  0  0  0  0  0
    6.7579   -0.6842    1.1109 H   0  0  0  0  0  0  0  0  0  0  0  0
    7.0589   -0.7476   -1.3648 H   0  0  0  0  0  0  0  0  0  0  0  0
    6.5958   -2.4600   -1.1858 H   0  0  0  0  0  0  0  0  0  0  0  0
    4.7337   -0.4905   -2.2242 H   0  0  0  0  0  0  0  0  0  0  0  0
    4.1606   -1.8880   -1.2804 H   0  0  0  0  0  0  0  0  0  0  0  0
  1  2  1  0
  2  3  1  0
  3  4  1  0
  4  5  2  0
  5  6  1  0
  6  7  1  0
  7  8  2  0
  7  9  2  0
  7 10  1  0
 10 11  1  0
 11 12  1  0
 12 13  2  0
 13 14  1  0
 14 15  2  0
 15 16  1  0
 16 17  2  0
  6 18  2  0
 18 19  1  0
 19 20  2  0
 20 21  1  0
 21 22  1  0
 22 23  2  0
 22 24  1  0
 24 25  1  0
 25 26  1  0
 26 27  1  0
 21  2  1  0
 27 24  1  0
 20  4  1  0
 17 12  1  0
  1 28  1  0
  1 29  1  0
  1 30  1  0
  2 31  1  0
  3 32  1  0
  3 33  1  0
  5 34  1  0
 10 35  1  0
 11 36  1  0
 11 37  1  0
 13 38  1  0
 14 39  1  0
 15 40  1  0
 16 41  1  0
 17 42  1  0
 18 43  1  0
 19 44  1  0
 24 45  1  0
 25 46  1  0
 25 47  1  0
 26 48  1  0
 26 49  1  0
 27 50  1  0
 27 51  1  0
M  END
$$$$
