
     RDKit          3D

 33 34  0  0  0  0  0  0  0  0999 V2000
    5.5168   -0.1741   -0.8752 C   0  0  0  0  0  0  0  0  0  0  0  0
    6.2591    0.4193    0.3127 C   0  0  0  0  0  0  0  0  0  0  0  0
    5.4839    0.3842    1.6309 C   0  0  0  0  0  0  0  0  0  0  0  0
    4.0696    1.5270    1.6690 S   0  0  0  0  0  0  0  0  0  0  0  0
    2.7474    0.5056    1.1554 C   0  0  0  0  0  0  0  0  0  0  0  0
    2.8468   -0.8004    1.0314 N   0  0  0  0  0  0  0  0  0  0  0  0
    1.6624   -1.3697    0.6069 N   0  0  0  0  0  0  0  0  0  0  0  0
    0.7138   -0.4723    0.4483 C   0  0  0  0  0  0  0  0  0  0  0  0
   -0.5423   -0.8186    0.0145 N   0  0  0  0  0  0  0  0  0  0  0  0
   -1.6545   -0.0026   -0.0340 C   0  0  0  0  0  0  0  0  0  0  0  0
   -1.6973    1.1523    0.3661 O   0  0  0  0  0  0  0  0  0  0  0  0
   -2.7227   -0.6837   -0.6048 N   0  0  0  0  0  0  0  0  0  0  0  0
   -4.0515   -0.2326   -0.7572 C   0  0  0  0  0  0  0  0  0  0  0  0
   -4.9248   -1.0535   -1.4844 C   0  0  0  0  0  0  0  0  0  0  0  0
   -6.2593   -0.6849   -1.6757 C   0  0  0  0  0  0  0  0  0  0  0  0
   -6.7353    0.5073   -1.1383 C   0  0  0  0  0  0  0  0  0  0  0  0
   -5.8773    1.3268   -0.4094 C   0  0  0  0  0  0  0  0  0  0  0  0
   -4.5415    0.9580   -0.2178 C   0  0  0  0  0  0  0  0  0  0  0  0
    1.1989    1.1278    0.7696 S   0  0  0  0  0  0  0  0  0  0  0  0
    6.1781   -0.2120   -1.7471 H   0  0  0  0  0  0  0  0  0  0  0  0
    4.6462    0.4274   -1.1512 H   0  0  0  0  0  0  0  0  0  0  0  0
    5.1849   -1.1948   -0.6618 H   0  0  0  0  0  0  0  0  0  0  0  0
    6.5663    1.4456    0.0778 H   0  0  0  0  0  0  0  0  0  0  0  0
    7.1848   -0.1533    0.4512 H   0  0  0  0  0  0  0  0  0  0  0  0
    5.1869   -0.6376    1.8878 H   0  0  0  0  0  0  0  0  0  0  0  0
    6.1604    0.7130    2.4281 H   0  0  0  0  0  0  0  0  0  0  0  0
   -0.6584   -1.8106   -0.1129 H   0  0  0  0  0  0  0  0  0  0  0  0
   -2.5049   -1.5561   -1.0615 H   0  0  0  0  0  0  0  0  0  0  0  0
   -4.5818   -1.9901   -1.9155 H   0  0  0  0  0  0  0  0  0  0  0  0
   -6.9258   -1.3285   -2.2439 H   0  0  0  0  0  0  0  0  0  0  0  0
   -7.7722    0.7982   -1.2848 H   0  0  0  0  0  0  0  0  0  0  0  0
   -6.2437    2.2583    0.0153 H   0  0  0  0  0  0  0  0  0  0  0  0
   -3.9129    1.6247    0.3640 H   0  0  0  0  0  0  0  0  0  0  0  0
  1  2  1  0
  2  3  1  0
  3  4  1  0
  4  5  1  0
  5  6  2  0
  6  7  1  0
  7  8  2  0
  8  9  1  0
  9 10  1  0
 10 11  2  0
 10 12  1  0
 12 13  1  0
 13 14  2  0
 14 15  1  0
 15 16  2  0
 16 17  1  0
 17 18  2  0
  8 19  1  0
 19  5  1  0
 18 13  1  0
  1 20  1  0
  1 21  1  0
  1 22  1  0
  2 23  1  0
  2 24  1  0
  3 25  1  0
  3 26  1  0
  9 27  1  0
 12 28  1  0
 14 29  1  0
 15 30  1  0
 16 31  1  0
 17 32  1  0
 18 33  1  0
M  END
$$$$
