
     RDKit          3D

 53 56  0  0  0  0  0  0  0  0999 V2000
   -6.7190    3.0038    0.0001 C   0  0  0  0  0  0  0  0  0  0  0  0
   -5.3965    2.3241    0.1947 C   0  0  0  0  0  0  0  0  0  0  0  0
   -4.3104    3.0195    0.7332 C   0  0  0  0  0  0  0  0  0  0  0  0
   -3.0700    2.3907    0.8808 C   0  0  0  0  0  0  0  0  0  0  0  0
   -2.8844    1.0671    0.4662 C   0  0  0  0  0  0  0  0  0  0  0  0
   -1.6135    0.4928    0.6850 N   0  0  0  0  0  0  0  0  0  0  0  0
   -0.9808   -0.5849    0.0750 C   0  0  0  0  0  0  0  0  0  0  0  0
   -1.3305   -1.1339   -1.4766 S   0  0  0  0  0  0  0  0  0  0  0  0
    0.0505   -1.1129    0.8887 N   0  0  0  0  0  0  0  0  0  0  0  0
   -0.0938   -1.1470    2.3576 C   0  0  0  0  0  0  0  0  0  0  0  0
   -0.9067   -2.3475    2.7615 C   0  0  0  0  0  0  0  0  0  0  0  0
   -2.2727   -2.5340    2.6525 C   0  0  0  0  0  0  0  0  0  0  0  0
   -2.6917   -3.8016    3.1487 C   0  0  0  0  0  0  0  0  0  0  0  0
   -1.6346   -4.5410    3.6292 C   0  0  0  0  0  0  0  0  0  0  0  0
   -0.1505   -3.7056    3.4874 S   0  0  0  0  0  0  0  0  0  0  0  0
    1.1292   -1.9666    0.3549 C   0  0  0  0  0  0  0  0  0  0  0  0
    2.1712   -1.1326   -0.3405 C   0  0  0  0  0  0  0  0  0  0  0  0
    2.3682   -1.1540   -1.6710 C   0  0  0  0  0  0  0  0  0  0  0  0
    3.4060   -0.3389   -2.3016 C   0  0  0  0  0  0  0  0  0  0  0  0
    3.5794   -0.3452   -3.6876 C   0  0  0  0  0  0  0  0  0  0  0  0
    4.5749    0.4394   -4.2677 C   0  0  0  0  0  0  0  0  0  0  0  0
    5.4003    1.2308   -3.4667 C   0  0  0  0  0  0  0  0  0  0  0  0
    5.2426    1.2529   -2.0721 C   0  0  0  0  0  0  0  0  0  0  0  0
    6.1484    2.1174   -1.2424 C   0  0  0  0  0  0  0  0  0  0  0  0
    4.2346    0.4593   -1.4992 C   0  0  0  0  0  0  0  0  0  0  0  0
    4.0310    0.4411   -0.1117 N   0  0  0  0  0  0  0  0  0  0  0  0
    3.0683   -0.3019    0.5166 C   0  0  0  0  0  0  0  0  0  0  0  0
    2.9644   -0.2772    1.7401 O   0  0  0  0  0  0  0  0  0  0  0  0
   -3.9725    0.3701   -0.0589 C   0  0  0  0  0  0  0  0  0  0  0  0
   -5.2154    0.9970   -0.2059 C   0  0  0  0  0  0  0  0  0  0  0  0
   -6.7682    3.4477   -0.9991 H   0  0  0  0  0  0  0  0  0  0  0  0
   -7.5433    2.2921    0.1141 H   0  0  0  0  0  0  0  0  0  0  0  0
   -6.8673    3.7933    0.7444 H   0  0  0  0  0  0  0  0  0  0  0  0
   -4.4208    4.0563    1.0426 H   0  0  0  0  0  0  0  0  0  0  0  0
   -2.2486    2.9598    1.3079 H   0  0  0  0  0  0  0  0  0  0  0  0
   -0.9658    1.0773    1.1984 H   0  0  0  0  0  0  0  0  0  0  0  0
    0.8971   -1.1525    2.8218 H   0  0  0  0  0  0  0  0  0  0  0  0
   -0.5979   -0.2497    2.7287 H   0  0  0  0  0  0  0  0  0  0  0  0
   -2.9420   -1.7951    2.2281 H   0  0  0  0  0  0  0  0  0  0  0  0
   -3.7164   -4.1526    3.1516 H   0  0  0  0  0  0  0  0  0  0  0  0
   -1.6615   -5.5323    4.0602 H   0  0  0  0  0  0  0  0  0  0  0  0
    1.6070   -2.5259    1.1676 H   0  0  0  0  0  0  0  0  0  0  0  0
    0.7033   -2.7228   -0.3130 H   0  0  0  0  0  0  0  0  0  0  0  0
    1.7497   -1.7685   -2.3172 H   0  0  0  0  0  0  0  0  0  0  0  0
    2.9425   -0.9540   -4.3246 H   0  0  0  0  0  0  0  0  0  0  0  0
    4.7070    0.4366   -5.3467 H   0  0  0  0  0  0  0  0  0  0  0  0
    6.1702    1.8350   -3.9429 H   0  0  0  0  0  0  0  0  0  0  0  0
    6.8654    2.6643   -1.8640 H   0  0  0  0  0  0  0  0  0  0  0  0
    5.5635    2.8570   -0.6863 H   0  0  0  0  0  0  0  0  0  0  0  0
    6.7222    1.5033   -0.5408 H   0  0  0  0  0  0  0  0  0  0  0  0
    4.6164    0.9924    0.4984 H   0  0  0  0  0  0  0  0  0  0  0  0
   -3.8955   -0.6753   -0.3389 H   0  0  0  0  0  0  0  0  0  0  0  0
   -6.0432    0.4330   -0.6297 H   0  0  0  0  0  0  0  0  0  0  0  0
  1  2  1  0
  2  3  2  0
  3  4  1  0
  4  5  2  0
  5  6  1  0
  6  7  1  0
  7  8  2  0
  7  9  1  0
  9 10  1  0
 10 11  1  0
 11 12  2  0
 12 13  1  0
 13 14  2  0
 14 15  1  0
  9 16  1  0
 16 17  1  0
 17 18  2  0
 18 19  1  0
 19 20  2  0
 20 21  1  0
 21 22  2  0
 22 23  1  0
 23 24  1  0
 23 25  2  0
 25 26  1  0
 26 27  1  0
 27 28  2  0
  5 29  1  0
 29 30  2  0
 30  2  1  0
 15 11  1  0
 27 17  1  0
 25 19  1  0
  1 31  1  0
  1 32  1  0
  1 33  1  0
  3 34  1  0
  4 35  1  0
  6 36  1  0
 10 37  1  0
 10 38  1  0
 12 39  1  0
 13 40  1  0
 14 41  1  0
 16 42  1  0
 16 43  1  0
 18 44  1  0
 20 45  1  0
 21 46  1  0
 22 47  1  0
 24 48  1  0
 24 49  1  0
 24 50  1  0
 26 51  1  0
 29 52  1  0
 30 53  1  0
M  END
$$$$
