
     RDKit          3D

 49 52  0  0  0  0  0  0  0  0999 V2000
   -1.6433    5.5749   -0.8289 C   0  0  0  0  0  0  0  0  0  0  0  0
   -1.3501    4.1076   -0.9323 C   0  0  0  0  0  0  0  0  0  0  0  0
   -1.1875    3.3353    0.2220 C   0  0  0  0  0  0  0  0  0  0  0  0
   -0.9415    1.9634    0.1288 C   0  0  0  0  0  0  0  0  0  0  0  0
   -0.8549    1.3322   -1.1213 C   0  0  0  0  0  0  0  0  0  0  0  0
   -0.6133   -0.1636   -1.2575 C   0  0  0  0  0  0  0  0  0  0  0  0
   -1.9172   -0.9450   -1.0850 C   0  0  0  0  0  0  0  0  0  0  0  0
   -1.6526   -1.6283    0.2282 C   0  0  0  0  0  0  0  0  0  0  0  0
   -2.7034   -2.4007    0.9318 C   0  0  0  0  0  0  0  0  0  0  0  0
   -3.9740   -2.5845    0.3748 C   0  0  0  0  0  0  0  0  0  0  0  0
   -4.9415   -3.3184    1.0666 C   0  0  0  0  0  0  0  0  0  0  0  0
   -4.6449   -3.8702    2.3123 C   0  0  0  0  0  0  0  0  0  0  0  0
   -3.3806   -3.6914    2.8706 C   0  0  0  0  0  0  0  0  0  0  0  0
   -2.4113   -2.9590    2.1827 C   0  0  0  0  0  0  0  0  0  0  0  0
   -0.4378   -1.5138    0.6731 N   0  0  0  0  0  0  0  0  0  0  0  0
    0.2424   -0.7198   -0.2060 N   0  0  0  0  0  0  0  0  0  0  0  0
    1.6175   -0.5318   -0.0805 C   0  0  0  0  0  0  0  0  0  0  0  0
    2.3602    0.2397   -0.9904 C   0  0  0  0  0  0  0  0  0  0  0  0
    3.7427    0.4158   -0.8510 C   0  0  0  0  0  0  0  0  0  0  0  0
    4.4097   -0.1908    0.2116 C   0  0  0  0  0  0  0  0  0  0  0  0
    6.1583    0.0252    0.3873 S   0  0  0  0  0  6  0  0  0  0  0  0
    6.7445   -1.2851   -0.4968 N   0  0  0  0  0  0  0  0  0  0  0  0
    6.5481    1.2321   -0.3020 O   0  0  0  0  0  0  0  0  0  0  0  0
    6.5224   -0.2390    1.7604 O   0  0  0  0  0  0  0  0  0  0  0  0
    3.7066   -0.9488    1.1435 C   0  0  0  0  0  0  0  0  0  0  0  0
    2.3266   -1.1155    0.9873 C   0  0  0  0  0  0  0  0  0  0  0  0
   -1.0424    2.1093   -2.2755 C   0  0  0  0  0  0  0  0  0  0  0  0
   -1.2896    3.4815   -2.1812 C   0  0  0  0  0  0  0  0  0  0  0  0
   -1.1706    6.0062    0.0598 H   0  0  0  0  0  0  0  0  0  0  0  0
   -1.2516    6.1137   -1.6982 H   0  0  0  0  0  0  0  0  0  0  0  0
   -2.7238    5.7372   -0.7693 H   0  0  0  0  0  0  0  0  0  0  0  0
   -1.2459    3.7962    1.2057 H   0  0  0  0  0  0  0  0  0  0  0  0
   -0.8087    1.3889    1.0447 H   0  0  0  0  0  0  0  0  0  0  0  0
   -0.1887   -0.3829   -2.2456 H   0  0  0  0  0  0  0  0  0  0  0  0
   -2.8138   -0.3201   -1.0505 H   0  0  0  0  0  0  0  0  0  0  0  0
   -2.0227   -1.7084   -1.8632 H   0  0  0  0  0  0  0  0  0  0  0  0
   -4.2355   -2.1708   -0.5942 H   0  0  0  0  0  0  0  0  0  0  0  0
   -5.9288   -3.4605    0.6334 H   0  0  0  0  0  0  0  0  0  0  0  0
   -5.3994   -4.4405    2.8488 H   0  0  0  0  0  0  0  0  0  0  0  0
   -3.1472   -4.1210    3.8416 H   0  0  0  0  0  0  0  0  0  0  0  0
   -1.4282   -2.8258    2.6298 H   0  0  0  0  0  0  0  0  0  0  0  0
    1.8740    0.7340   -1.8265 H   0  0  0  0  0  0  0  0  0  0  0  0
    4.2813    1.0301   -1.5697 H   0  0  0  0  0  0  0  0  0  0  0  0
    7.2332   -1.9156    0.1411 H   0  0  0  0  0  0  0  0  0  0  0  0
    6.0159   -1.7672   -1.0222 H   0  0  0  0  0  0  0  0  0  0  0  0
    4.2088   -1.4084    1.9913 H   0  0  0  0  0  0  0  0  0  0  0  0
    1.7886   -1.7102    1.7237 H   0  0  0  0  0  0  0  0  0  0  0  0
   -0.9976    1.6528   -3.2620 H   0  0  0  0  0  0  0  0  0  0  0  0
   -1.4324    4.0607   -3.0909 H   0  0  0  0  0  0  0  0  0  0  0  0
  1  2  1  0
  2  3  2  0
  3  4  1  0
  4  5  2  0
  5  6  1  0
  6  7  1  0
  7  8  1  0
  8  9  1  0
  9 10  2  0
 10 11  1  0
 11 12  2  0
 12 13  1  0
 13 14  2  0
  8 15  2  0
 15 16  1  0
 16 17  1  0
 17 18  2  0
 18 19  1  0
 19 20  2  0
 20 21  1  0
 21 22  1  0
 21 23  2  0
 21 24  2  0
 20 25  1  0
 25 26  2  0
  5 27  1  0
 27 28  2  0
 28  2  1  0
 16  6  1  0
 26 17  1  0
 14  9  1  0
  1 29  1  0
  1 30  1  0
  1 31  1  0
  3 32  1  0
  4 33  1  0
  6 34  1  0
  7 35  1  0
  7 36  1  0
 10 37  1  0
 11 38  1  0
 12 39  1  0
 13 40  1  0
 14 41  1  0
 18 42  1  0
 19 43  1  0
 22 44  1  0
 22 45  1  0
 25 46  1  0
 26 47  1  0
 27 48  1  0
 28 49  1  0
M  END
$$$$
