
     RDKit          3D

 48 49  0  0  0  0  0  0  0  0999 V2000
   -5.0314   -1.8219   -3.0326 C   0  0  0  0  0  0  0  0  0  0  0  0
   -4.0443   -1.3301   -2.0164 C   0  0  0  0  0  0  0  0  0  0  0  0
   -3.7439    0.0328   -1.9210 C   0  0  0  0  0  0  0  0  0  0  0  0
   -2.8463    0.4960   -0.9559 C   0  0  0  0  0  0  0  0  0  0  0  0
   -2.2389   -0.3957   -0.0632 C   0  0  0  0  0  0  0  0  0  0  0  0
   -1.2620    0.0998    0.9780 C   0  0  0  0  0  0  0  0  0  0  0  0
    0.0633    0.6058    0.3871 C   0  0  0  0  0  0  0  0  0  0  0  0
    0.8000   -0.4540   -0.2978 N   0  0  0  0  0  0  0  0  0  0  0  0
    1.6198   -0.1468   -1.3639 C   0  0  0  0  0  0  0  0  0  0  0  0
    1.6850    0.9695   -1.8665 O   0  0  0  0  0  0  0  0  0  0  0  0
    2.4785   -1.2536   -1.8677 C   0  0  0  0  0  0  0  0  0  0  0  0
    3.6848   -0.9304   -2.5008 C   0  0  0  0  0  0  0  0  0  0  0  0
    4.5144   -1.9423   -2.9868 C   0  0  0  0  0  0  0  0  0  0  0  0
    4.1372   -3.2782   -2.8512 C   0  0  0  0  0  0  0  0  0  0  0  0
    2.9284   -3.6055   -2.2366 C   0  0  0  0  0  0  0  0  0  0  0  0
    2.0959   -2.5962   -1.7474 C   0  0  0  0  0  0  0  0  0  0  0  0
    0.9400    1.1132    1.5469 C   0  0  0  0  0  0  0  0  0  0  0  0
    1.7297    0.3834    2.1455 O   0  0  0  0  0  0  0  0  0  0  0  0
    0.7155    2.4272    1.9065 N   0  0  0  0  0  0  0  0  0  0  0  0
    1.2894    2.9646    3.1395 C   0  0  0  0  0  0  0  0  0  0  0  0
    1.4895    4.4673    3.0203 C   0  0  0  0  0  0  0  0  0  0  0  0
    0.3344    2.6565    4.2924 C   0  0  0  0  0  0  0  0  0  0  0  0
   -0.8478    2.3594    4.1934 O   0  0  0  0  0  0  0  0  0  0  0  0
    0.9096    2.7787    5.5054 O   0  0  0  0  0  0  0  0  0  0  0  0
   -2.5539   -1.7577   -0.1490 C   0  0  0  0  0  0  0  0  0  0  0  0
   -3.4525   -2.2196   -1.1138 C   0  0  0  0  0  0  0  0  0  0  0  0
   -5.0151   -1.1940   -3.9296 H   0  0  0  0  0  0  0  0  0  0  0  0
   -4.7916   -2.8430   -3.3473 H   0  0  0  0  0  0  0  0  0  0  0  0
   -6.0409   -1.8093   -2.6102 H   0  0  0  0  0  0  0  0  0  0  0  0
   -4.2044    0.7448   -2.6021 H   0  0  0  0  0  0  0  0  0  0  0  0
   -2.6263    1.5598   -0.9112 H   0  0  0  0  0  0  0  0  0  0  0  0
   -1.0625   -0.6995    1.7049 H   0  0  0  0  0  0  0  0  0  0  0  0
   -1.7511    0.8983    1.5517 H   0  0  0  0  0  0  0  0  0  0  0  0
   -0.1147    1.4332   -0.3098 H   0  0  0  0  0  0  0  0  0  0  0  0
    1.0913   -1.2291    0.2858 H   0  0  0  0  0  0  0  0  0  0  0  0
    3.9803    0.1108   -2.6129 H   0  0  0  0  0  0  0  0  0  0  0  0
    5.4519   -1.6871   -3.4745 H   0  0  0  0  0  0  0  0  0  0  0  0
    4.7828   -4.0651   -3.2335 H   0  0  0  0  0  0  0  0  0  0  0  0
    2.6302   -4.6471   -2.1470 H   0  0  0  0  0  0  0  0  0  0  0  0
    1.1430   -2.8681   -1.3019 H   0  0  0  0  0  0  0  0  0  0  0  0
   -0.1422    2.8568    1.5808 H   0  0  0  0  0  0  0  0  0  0  0  0
    2.2435    2.4631    3.3356 H   0  0  0  0  0  0  0  0  0  0  0  0
    1.9337    4.8786    3.9328 H   0  0  0  0  0  0  0  0  0  0  0  0
    0.5372    4.9839    2.8540 H   0  0  0  0  0  0  0  0  0  0  0  0
    2.1500    4.7067    2.1802 H   0  0  0  0  0  0  0  0  0  0  0  0
    0.1994    2.5375    6.1366 H   0  0  0  0  0  0  0  0  0  0  0  0
   -2.1031   -2.4723    0.5355 H   0  0  0  0  0  0  0  0  0  0  0  0
   -3.6860   -3.2809   -1.1573 H   0  0  0  0  0  0  0  0  0  0  0  0
  1  2  1  0
  2  3  2  0
  3  4  1  0
  4  5  2  0
  5  6  1  0
  6  7  1  0
  7  8  1  0
  8  9  1  0
  9 10  2  0
  9 11  1  0
 11 12  2  0
 12 13  1  0
 13 14  2  0
 14 15  1  0
 15 16  2  0
  7 17  1  0
 17 18  2  0
 17 19  1  0
 19 20  1  0
 20 21  1  0
 20 22  1  0
 22 23  2  0
 22 24  1  0
  5 25  1  0
 25 26  2  0
 26  2  1  0
 16 11  1  0
  1 27  1  0
  1 28  1  0
  1 29  1  0
  3 30  1  0
  4 31  1  0
  6 32  1  0
  6 33  1  0
  7 34  1  0
  8 35  1  0
 12 36  1  0
 13 37  1  0
 14 38  1  0
 15 39  1  0
 16 40  1  0
 19 41  1  0
 20 42  1  0
 21 43  1  0
 21 44  1  0
 21 45  1  0
 24 46  1  0
 25 47  1  0
 26 48  1  0
M  END
$$$$
