
     RDKit          3D

 60 64  0  0  0  0  0  0  0  0999 V2000
   -6.9042   -3.5751    1.3592 C   0  0  0  0  0  0  0  0  0  0  0  0
   -5.6432   -2.8223    1.0530 C   0  0  0  0  0  0  0  0  0  0  0  0
   -4.5269   -3.4938    0.5508 C   0  0  0  0  0  0  0  0  0  0  0  0
   -3.3580   -2.7912    0.2398 C   0  0  0  0  0  0  0  0  0  0  0  0
   -3.2677   -1.4016    0.4206 C   0  0  0  0  0  0  0  0  0  0  0  0
   -2.0732   -0.7610    0.0754 N   0  0  0  0  0  0  0  0  0  0  0  0
   -1.6664    0.5710    0.0282 C   0  0  0  0  0  0  0  0  0  0  0  0
   -0.3869    0.7471   -0.2640 N   0  0  0  0  0  0  0  0  0  0  0  0
    0.0024    2.0152   -0.3242 C   0  0  0  0  0  0  0  0  0  0  0  0
    1.3213    2.3176   -0.6240 O   0  0  0  0  0  0  0  0  0  0  0  0
    2.2212    1.2947   -0.4708 C   0  0  0  0  0  0  0  0  0  0  0  0
    2.5300    0.7800    0.7785 C   0  0  0  0  0  0  0  0  0  0  0  0
    3.5137   -0.1987    0.8615 C   0  0  0  0  0  0  0  0  0  0  0  0
    4.1504   -0.5889   -0.3013 C   0  0  0  0  0  0  0  0  0  0  0  0
    5.1250   -1.5565   -0.1851 O   0  0  0  0  0  0  0  0  0  0  0  0
    5.8313   -1.7844   -1.4084 C   0  0  0  0  0  0  0  0  0  0  0  0
    6.8967   -2.8300   -1.1693 C   0  0  0  0  0  0  0  0  0  0  0  0
    7.7991   -2.7006   -0.1022 C   0  0  0  0  0  0  0  0  0  0  0  0
    8.7968   -3.6547    0.1037 C   0  0  0  0  0  0  0  0  0  0  0  0
    8.9092   -4.7442   -0.7585 C   0  0  0  0  0  0  0  0  0  0  0  0
    8.0265   -4.8788   -1.8284 C   0  0  0  0  0  0  0  0  0  0  0  0
    7.0268   -3.9259   -2.0353 C   0  0  0  0  0  0  0  0  0  0  0  0
    3.8425   -0.0572   -1.5032 N   0  0  0  0  0  0  0  0  0  0  0  0
    2.8723    0.9045   -1.5914 N   0  0  0  0  0  0  0  0  0  0  0  0
   -0.7716    3.0742   -0.1309 N   0  0  0  0  0  0  0  0  0  0  0  0
   -2.0380    2.8128    0.1570 C   0  0  0  0  0  0  0  0  0  0  0  0
   -2.8884    3.8692    0.3998 N   0  0  0  0  0  0  0  0  0  0  0  0
   -4.3383    3.6546    0.3909 C   0  0  0  0  0  0  0  0  0  0  0  0
   -5.0372    4.7662   -0.4124 C   0  0  0  0  0  0  0  0  0  0  0  0
   -4.7633    6.0925    0.0638 O   0  0  0  0  0  0  0  0  0  0  0  0
   -3.4548    6.2400    0.6388 C   0  0  0  0  0  0  0  0  0  0  0  0
   -2.4223    5.2272    0.1168 C   0  0  0  0  0  0  0  0  0  0  0  0
   -2.5090    1.5733    0.2515 N   0  0  0  0  0  0  0  0  0  0  0  0
   -4.3974   -0.7403    0.9096 C   0  0  0  0  0  0  0  0  0  0  0  0
   -5.5725   -1.4377    1.2196 C   0  0  0  0  0  0  0  0  0  0  0  0
   -7.4257   -3.8274    0.4295 H   0  0  0  0  0  0  0  0  0  0  0  0
   -7.5797   -2.9826    1.9859 H   0  0  0  0  0  0  0  0  0  0  0  0
   -6.6783   -4.4977    1.9052 H   0  0  0  0  0  0  0  0  0  0  0  0
   -4.5581   -4.5693    0.3951 H   0  0  0  0  0  0  0  0  0  0  0  0
   -2.5112   -3.3487   -0.1543 H   0  0  0  0  0  0  0  0  0  0  0  0
   -1.2948   -1.3575   -0.1647 H   0  0  0  0  0  0  0  0  0  0  0  0
    2.0234    1.1314    1.6687 H   0  0  0  0  0  0  0  0  0  0  0  0
    3.7900   -0.6334    1.8145 H   0  0  0  0  0  0  0  0  0  0  0  0
    6.3247   -0.8640   -1.7478 H   0  0  0  0  0  0  0  0  0  0  0  0
    5.1360   -2.1374   -2.1816 H   0  0  0  0  0  0  0  0  0  0  0  0
    7.7245   -1.8536    0.5774 H   0  0  0  0  0  0  0  0  0  0  0  0
    9.4866   -3.5467    0.9369 H   0  0  0  0  0  0  0  0  0  0  0  0
    9.6864   -5.4868   -0.5979 H   0  0  0  0  0  0  0  0  0  0  0  0
    8.1171   -5.7261   -2.5037 H   0  0  0  0  0  0  0  0  0  0  0  0
    6.3496   -4.0472   -2.8783 H   0  0  0  0  0  0  0  0  0  0  0  0
   -4.6907    3.6754    1.4294 H   0  0  0  0  0  0  0  0  0  0  0  0
   -4.6273    2.6917   -0.0453 H   0  0  0  0  0  0  0  0  0  0  0  0
   -6.1238    4.6274   -0.3801 H   0  0  0  0  0  0  0  0  0  0  0  0
   -4.7341    4.7213   -1.4669 H   0  0  0  0  0  0  0  0  0  0  0  0
   -3.1195    7.2614    0.4320 H   0  0  0  0  0  0  0  0  0  0  0  0
   -3.5619    6.1445    1.7270 H   0  0  0  0  0  0  0  0  0  0  0  0
   -2.2966    5.3551   -0.9662 H   0  0  0  0  0  0  0  0  0  0  0  0
   -1.4621    5.4260    0.6100 H   0  0  0  0  0  0  0  0  0  0  0  0
   -4.3901    0.3329    1.0716 H   0  0  0  0  0  0  0  0  0  0  0  0
   -6.4298   -0.8839    1.5947 H   0  0  0  0  0  0  0  0  0  0  0  0
  1  2  1  0
  2  3  2  0
  3  4  1  0
  4  5  2  0
  5  6  1  0
  6  7  1  0
  7  8  2  0
  8  9  1  0
  9 10  1  0
 10 11  1  0
 11 12  2  0
 12 13  1  0
 13 14  2  0
 14 15  1  0
 15 16  1  0
 16 17  1  0
 17 18  2  0
 18 19  1  0
 19 20  2  0
 20 21  1  0
 21 22  2  0
 14 23  1  0
 23 24  2  0
  9 25  2  0
 25 26  1  0
 26 27  1  0
 27 28  1  0
 28 29  1  0
 29 30  1  0
 30 31  1  0
 31 32  1  0
 26 33  2  0
  5 34  1  0
 34 35  2  0
 35  2  1  0
 33  7  1  0
 24 11  1  0
 32 27  1  0
 22 17  1  0
  1 36  1  0
  1 37  1  0
  1 38  1  0
  3 39  1  0
  4 40  1  0
  6 41  1  0
 12 42  1  0
 13 43  1  0
 16 44  1  0
 16 45  1  0
 18 46  1  0
 19 47  1  0
 20 48  1  0
 21 49  1  0
 22 50  1  0
 28 51  1  0
 28 52  1  0
 29 53  1  0
 29 54  1  0
 31 55  1  0
 31 56  1  0
 32 57  1  0
 32 58  1  0
 34 59  1  0
 35 60  1  0
M  END
$$$$
