
     RDKit          3D

 49 52  0  0  0  0  0  0  0  0999 V2000
   -1.6139    5.3143    1.0831 C   0  0  0  0  0  0  0  0  0  0  0  0
   -1.4701    3.8306    1.2521 C   0  0  0  0  0  0  0  0  0  0  0  0
   -1.8114    3.2208    2.4635 C   0  0  0  0  0  0  0  0  0  0  0  0
   -1.7076    1.8386    2.6107 C   0  0  0  0  0  0  0  0  0  0  0  0
   -1.2708    1.0515    1.5456 C   0  0  0  0  0  0  0  0  0  0  0  0
   -0.9277    1.6363    0.3172 C   0  0  0  0  0  0  0  0  0  0  0  0
   -0.4803    0.8051   -0.8763 C   0  0  0  0  0  0  0  0  0  0  0  0
   -1.6860    0.2357   -1.6263 C   0  0  0  0  0  0  0  0  0  0  0  0
   -1.5286   -1.2286   -1.3232 C   0  0  0  0  0  0  0  0  0  0  0  0
   -2.5599   -2.2207   -1.7083 C   0  0  0  0  0  0  0  0  0  0  0  0
   -3.7028   -1.8484   -2.4250 C   0  0  0  0  0  0  0  0  0  0  0  0
   -4.6557   -2.8105   -2.7711 C   0  0  0  0  0  0  0  0  0  0  0  0
   -4.4712   -4.1432   -2.4052 C   0  0  0  0  0  0  0  0  0  0  0  0
   -3.3339   -4.5194   -1.6929 C   0  0  0  0  0  0  0  0  0  0  0  0
   -2.3798   -3.5614   -1.3453 C   0  0  0  0  0  0  0  0  0  0  0  0
   -0.4181   -1.5523   -0.7329 N   0  0  0  0  0  0  0  0  0  0  0  0
    0.2729   -0.3958   -0.5067 N   0  0  0  0  0  0  0  0  0  0  0  0
    1.5911   -0.4290   -0.0545 C   0  0  0  0  0  0  0  0  0  0  0  0
    2.2219   -1.6556    0.2286 C   0  0  0  0  0  0  0  0  0  0  0  0
    3.5427   -1.7248    0.6851 C   0  0  0  0  0  0  0  0  0  0  0  0
    4.2667   -0.5486    0.8609 C   0  0  0  0  0  0  0  0  0  0  0  0
    5.9242   -0.6219    1.4658 S   0  0  0  0  0  6  0  0  0  0  0  0
    6.8041   -0.8133    0.0482 N   0  0  0  0  0  0  0  0  0  0  0  0
    6.3023    0.6705    1.9893 O   0  0  0  0  0  0  0  0  0  0  0  0
    6.1090   -1.8434    2.2142 O   0  0  0  0  0  0  0  0  0  0  0  0
    3.6726    0.6858    0.6061 C   0  0  0  0  0  0  0  0  0  0  0  0
    2.3491    0.7367    0.1493 C   0  0  0  0  0  0  0  0  0  0  0  0
   -1.0452    3.0314    0.1814 C   0  0  0  0  0  0  0  0  0  0  0  0
   -2.6157    5.5531    0.7130 H   0  0  0  0  0  0  0  0  0  0  0  0
   -1.4547    5.8336    2.0340 H   0  0  0  0  0  0  0  0  0  0  0  0
   -0.8729    5.7000    0.3751 H   0  0  0  0  0  0  0  0  0  0  0  0
   -2.1580    3.8192    3.3029 H   0  0  0  0  0  0  0  0  0  0  0  0
   -1.9661    1.3710    3.5574 H   0  0  0  0  0  0  0  0  0  0  0  0
   -1.1927   -0.0264    1.6822 H   0  0  0  0  0  0  0  0  0  0  0  0
    0.1105    1.4265   -1.5616 H   0  0  0  0  0  0  0  0  0  0  0  0
   -2.6501    0.6239   -1.2867 H   0  0  0  0  0  0  0  0  0  0  0  0
   -1.5821    0.3847   -2.7064 H   0  0  0  0  0  0  0  0  0  0  0  0
   -3.8743   -0.8201   -2.7275 H   0  0  0  0  0  0  0  0  0  0  0  0
   -5.5437   -2.5204   -3.3277 H   0  0  0  0  0  0  0  0  0  0  0  0
   -5.2139   -4.8899   -2.6755 H   0  0  0  0  0  0  0  0  0  0  0  0
   -3.1877   -5.5580   -1.4069 H   0  0  0  0  0  0  0  0  0  0  0  0
   -1.4962   -3.8675   -0.7885 H   0  0  0  0  0  0  0  0  0  0  0  0
    1.6696   -2.5841    0.0952 H   0  0  0  0  0  0  0  0  0  0  0  0
    3.9861   -2.6940    0.8988 H   0  0  0  0  0  0  0  0  0  0  0  0
    7.2858   -1.7123    0.0606 H   0  0  0  0  0  0  0  0  0  0  0  0
    7.4219   -0.0128   -0.0847 H   0  0  0  0  0  0  0  0  0  0  0  0
    4.2215    1.6116    0.7619 H   0  0  0  0  0  0  0  0  0  0  0  0
    1.9196    1.7176   -0.0319 H   0  0  0  0  0  0  0  0  0  0  0  0
   -0.7999    3.5042   -0.7681 H   0  0  0  0  0  0  0  0  0  0  0  0
  1  2  1  0
  2  3  2  0
  3  4  1  0
  4  5  2  0
  5  6  1  0
  6  7  1  0
  7  8  1  0
  8  9  1  0
  9 10  1  0
 10 11  2  0
 11 12  1  0
 12 13  2  0
 13 14  1  0
 14 15  2  0
  9 16  2  0
 16 17  1  0
 17 18  1  0
 18 19  2  0
 19 20  1  0
 20 21  2  0
 21 22  1  0
 22 23  1  0
 22 24  2  0
 22 25  2  0
 21 26  1  0
 26 27  2  0
  6 28  2  0
 28  2  1  0
 17  7  1  0
 27 18  1  0
 15 10  1  0
  1 29  1  0
  1 30  1  0
  1 31  1  0
  3 32  1  0
  4 33  1  0
  5 34  1  0
  7 35  1  0
  8 36  1  0
  8 37  1  0
 11 38  1  0
 12 39  1  0
 13 40  1  0
 14 41  1  0
 15 42  1  0
 19 43  1  0
 20 44  1  0
 23 45  1  0
 23 46  1  0
 26 47  1  0
 27 48  1  0
 28 49  1  0
M  END
$$$$
