
     RDKit          3D

 45 49  0  0  0  0  0  0  0  0999 V2000
    1.7830   -2.6919   -1.3208 O   0  0  0  0  0  0  0  0  0  0  0  0
    0.8747   -1.8676   -1.3921 C   0  0  0  0  0  0  0  0  0  0  0  0
   -0.5406   -2.2391   -1.7433 C   0  0  0  0  0  0  0  0  0  0  0  0
   -1.5356   -1.3679   -1.1399 N   0  0  0  0  0  0  0  0  0  0  0  0
   -2.2922   -0.4267   -1.8236 C   0  0  0  0  0  0  0  0  0  0  0  0
   -2.1480   -0.2275   -3.1257 O   0  0  0  0  0  0  0  0  0  0  0  0
   -3.1004    0.1521   -0.8906 C   0  0  0  0  0  0  0  0  0  0  0  0
   -2.8342   -0.4345    0.3667 C   0  0  0  0  0  0  0  0  0  0  0  0
   -1.8606   -1.3747    0.2104 C   0  0  0  0  0  0  0  0  0  0  0  0
   -1.2519   -2.1845    1.0635 O   0  0  0  0  0  0  0  0  0  0  0  0
   -3.7315    0.2290    1.3625 C   0  0  0  0  0  0  0  0  0  0  0  0
   -5.1877   -0.2078    1.0564 C   0  0  0  0  0  0  0  0  0  0  0  0
   -5.4827    0.4417   -0.3359 C   0  0  0  0  0  0  0  0  0  0  0  0
   -4.1645    1.1821   -0.6807 C   0  0  0  0  0  0  0  0  0  0  0  0
   -3.7728    1.6698    0.7536 C   0  0  0  0  0  0  0  0  0  0  0  0
    1.0181   -0.4897   -1.2645 O   0  0  0  0  0  0  0  0  0  0  0  0
    2.3039   -0.0793   -0.9064 C   0  0  0  0  0  0  0  0  0  0  0  0
    3.0971    0.5309   -1.8716 C   0  0  0  0  0  0  0  0  0  0  0  0
    4.3639    0.9940   -1.5158 C   0  0  0  0  0  0  0  0  0  0  0  0
    4.8325    0.8624   -0.1962 C   0  0  0  0  0  0  0  0  0  0  0  0
    6.1049    1.3250    0.1758 C   0  0  0  0  0  0  0  0  0  0  0  0
    6.5570    1.1922    1.4903 C   0  0  0  0  0  0  0  0  0  0  0  0
    5.7441    0.5951    2.4498 C   0  0  0  0  0  0  0  0  0  0  0  0
    4.4763    0.1290    2.0981 C   0  0  0  0  0  0  0  0  0  0  0  0
    4.0057    0.2545    0.7809 C   0  0  0  0  0  0  0  0  0  0  0  0
    2.7335   -0.2084    0.4140 C   0  0  0  0  0  0  0  0  0  0  0  0
   -0.7480   -3.2531   -1.3846 H   0  0  0  0  0  0  0  0  0  0  0  0
   -0.6549   -2.2234   -2.8307 H   0  0  0  0  0  0  0  0  0  0  0  0
   -2.7702    0.4810   -3.3696 H   0  0  0  0  0  0  0  0  0  0  0  0
   -1.6510   -2.0227    1.9375 H   0  0  0  0  0  0  0  0  0  0  0  0
   -3.4212    0.1630    2.4051 H   0  0  0  0  0  0  0  0  0  0  0  0
   -5.3008   -1.2968    1.0197 H   0  0  0  0  0  0  0  0  0  0  0  0
   -5.8813    0.1896    1.8060 H   0  0  0  0  0  0  0  0  0  0  0  0
   -5.7460   -0.3169   -1.0810 H   0  0  0  0  0  0  0  0  0  0  0  0
   -6.3163    1.1475   -0.2473 H   0  0  0  0  0  0  0  0  0  0  0  0
   -4.2366    1.9581   -1.4426 H   0  0  0  0  0  0  0  0  0  0  0  0
   -2.7939    2.1650    0.7770 H   0  0  0  0  0  0  0  0  0  0  0  0
   -4.5271    2.3167    1.2150 H   0  0  0  0  0  0  0  0  0  0  0  0
    2.7381    0.6438   -2.8897 H   0  0  0  0  0  0  0  0  0  0  0  0
    4.9854    1.4619   -2.2757 H   0  0  0  0  0  0  0  0  0  0  0  0
    6.7557    1.7937   -0.5591 H   0  0  0  0  0  0  0  0  0  0  0  0
    7.5447    1.5542    1.7634 H   0  0  0  0  0  0  0  0  0  0  0  0
    6.0962    0.4898    3.4729 H   0  0  0  0  0  0  0  0  0  0  0  0
    3.8567   -0.3377    2.8607 H   0  0  0  0  0  0  0  0  0  0  0  0
    2.0786   -0.6722    1.1469 H   0  0  0  0  0  0  0  0  0  0  0  0
  1  2  2  0
  2  3  1  0
  3  4  1  0
  4  5  1  0
  5  6  1  0
  5  7  2  0
  7  8  1  0
  8  9  2  0
  9 10  1  0
  8 11  1  0
 11 12  1  0
 12 13  1  0
 13 14  1  0
 14 15  1  0
  2 16  1  0
 16 17  1  0
 17 18  2  0
 18 19  1  0
 19 20  2  0
 20 21  1  0
 21 22  2  0
 22 23  1  0
 23 24  2  0
 24 25  1  0
 25 26  2  0
  9  4  1  0
 15 11  1  0
 26 17  1  0
 14  7  1  0
 25 20  1  0
  3 27  1  0
  3 28  1  0
  6 29  1  0
 10 30  1  0
 11 31  1  0
 12 32  1  0
 12 33  1  0
 13 34  1  0
 13 35  1  0
 14 36  1  0
 15 37  1  0
 15 38  1  0
 18 39  1  0
 19 40  1  0
 21 41  1  0
 22 42  1  0
 23 43  1  0
 24 44  1  0
 26 45  1  0
M  END
$$$$
