
     RDKit          3D

 47 49  0  0  0  0  0  0  0  0999 V2000
   -7.3981    0.6658   -0.3564 C   0  0  0  0  0  0  0  0  0  0  0  0
   -6.4350    0.9288    0.7881 C   0  0  0  0  0  0  0  0  0  0  0  0
   -5.6882   -0.2448    1.1046 O   0  0  0  0  0  0  0  0  0  0  0  0
   -4.5193   -0.4886    0.4408 C   0  0  0  0  0  0  0  0  0  0  0  0
   -3.9874    0.2668   -0.6065 C   0  0  0  0  0  0  0  0  0  0  0  0
   -2.7746   -0.1031   -1.1985 C   0  0  0  0  0  0  0  0  0  0  0  0
   -2.0973   -1.2336   -0.7371 C   0  0  0  0  0  0  0  0  0  0  0  0
   -0.5530   -1.7107   -1.4678 S   0  0  0  0  0  6  0  0  0  0  0  0
   -0.1251   -0.6625   -2.3714 O   0  0  0  0  0  0  0  0  0  0  0  0
   -0.6899   -3.0813   -1.9083 O   0  0  0  0  0  0  0  0  0  0  0  0
    0.5174   -1.6809   -0.1381 N   0  0  0  0  0  0  0  0  0  0  0  0
    0.7748   -0.3287    0.4543 C   0  0  0  0  0  0  0  0  0  0  0  0
    2.1192    0.2588    0.0022 C   0  0  0  0  0  0  0  0  0  0  0  0
    3.2485   -0.6227    0.3300 N   0  0  0  0  0  0  0  0  0  0  0  0
    4.5182   -0.1872    0.6904 C   0  0  0  0  0  0  0  0  0  0  0  0
    5.3437   -0.9090    1.2439 O   0  0  0  0  0  0  0  0  0  0  0  0
    4.9078    1.2096    0.4016 C   0  0  0  0  0  0  0  0  0  0  0  0
    4.7859    1.7377   -0.8822 C   0  0  0  0  0  0  0  0  0  0  0  0
    5.1893    3.0451   -1.0757 C   0  0  0  0  0  0  0  0  0  0  0  0
    5.6973    3.8249   -0.0963 N   0  0  0  0  0  0  0  0  0  0  0  0
    5.8349    3.2693    1.1280 C   0  0  0  0  0  0  0  0  0  0  0  0
    5.4628    1.9730    1.4260 C   0  0  0  0  0  0  0  0  0  0  0  0
    2.9235   -2.0382    0.5197 C   0  0  0  0  0  0  0  0  0  0  0  0
    1.7646   -2.4843   -0.3770 C   0  0  0  0  0  0  0  0  0  0  0  0
   -2.6228   -2.0035    0.3011 C   0  0  0  0  0  0  0  0  0  0  0  0
   -3.8323   -1.6247    0.8852 C   0  0  0  0  0  0  0  0  0  0  0  0
   -8.0195    1.5452   -0.5481 H   0  0  0  0  0  0  0  0  0  0  0  0
   -6.8663    0.4083   -1.2771 H   0  0  0  0  0  0  0  0  0  0  0  0
   -8.0509   -0.1813   -0.1202 H   0  0  0  0  0  0  0  0  0  0  0  0
   -5.7940    1.7981    0.6058 H   0  0  0  0  0  0  0  0  0  0  0  0
   -7.0207    1.1720    1.6820 H   0  0  0  0  0  0  0  0  0  0  0  0
   -4.4939    1.1434   -0.9964 H   0  0  0  0  0  0  0  0  0  0  0  0
   -2.3744    0.4903   -2.0179 H   0  0  0  0  0  0  0  0  0  0  0  0
    0.7630   -0.4450    1.5452 H   0  0  0  0  0  0  0  0  0  0  0  0
   -0.0301    0.3720    0.2127 H   0  0  0  0  0  0  0  0  0  0  0  0
    2.1236    0.3927   -1.0850 H   0  0  0  0  0  0  0  0  0  0  0  0
    2.2625    1.2373    0.4708 H   0  0  0  0  0  0  0  0  0  0  0  0
    4.4071    1.1484   -1.7089 H   0  0  0  0  0  0  0  0  0  0  0  0
    5.1203    3.5160   -2.0526 H   0  0  0  0  0  0  0  0  0  0  0  0
    6.2702    3.9164    1.8845 H   0  0  0  0  0  0  0  0  0  0  0  0
    5.6032    1.5657    2.4212 H   0  0  0  0  0  0  0  0  0  0  0  0
    2.6648   -2.1728    1.5771 H   0  0  0  0  0  0  0  0  0  0  0  0
    3.8106   -2.6482    0.3162 H   0  0  0  0  0  0  0  0  0  0  0  0
    2.0736   -2.3837   -1.4248 H   0  0  0  0  0  0  0  0  0  0  0  0
    1.5378   -3.5380   -0.1820 H   0  0  0  0  0  0  0  0  0  0  0  0
   -2.1025   -2.8913    0.6528 H   0  0  0  0  0  0  0  0  0  0  0  0
   -4.2491   -2.2215    1.6938 H   0  0  0  0  0  0  0  0  0  0  0  0
  1  2  1  0
  2  3  1  0
  3  4  1  0
  4  5  2  0
  5  6  1  0
  6  7  2  0
  7  8  1  0
  8  9  2  0
  8 10  2  0
  8 11  1  0
 11 12  1  0
 12 13  1  0
 13 14  1  0
 14 15  1  0
 15 16  2  0
 15 17  1  0
 17 18  2  0
 18 19  1  0
 19 20  2  0
 20 21  1  0
 21 22  2  0
 14 23  1  0
 23 24  1  0
  7 25  1  0
 25 26  2  0
 26  4  1  0
 24 11  1  0
 22 17  1  0
  1 27  1  0
  1 28  1  0
  1 29  1  0
  2 30  1  0
  2 31  1  0
  5 32  1  0
  6 33  1  0
 12 34  1  0
 12 35  1  0
 13 36  1  0
 13 37  1  0
 18 38  1  0
 19 39  1  0
 21 40  1  0
 22 41  1  0
 23 42  1  0
 23 43  1  0
 24 44  1  0
 24 45  1  0
 25 46  1  0
 26 47  1  0
M  END
$$$$
