
     RDKit          3D

 35 37  0  0  0  0  0  0  0  0999 V2000
   -1.1455   -1.8244   -0.8187 C   0  0  0  0  0  0  0  0  0  0  0  0
   -1.4070   -1.2767    0.5777 C   0  0  0  0  0  0  0  0  0  0  0  0
   -1.4911    0.1799    0.5636 N   0  0  0  0  0  0  0  0  0  0  0  0
   -0.4954    1.1326    0.8870 C   0  0  0  0  0  0  0  0  0  0  0  0
    0.8542    1.0398    1.0357 C   0  0  0  0  0  0  0  0  0  0  0  0
    1.8972    2.3943    1.4837 S   0  0  0  0  0  0  0  0  0  0  0  0
    3.3846    1.4840    1.3930 C   0  0  0  0  0  0  0  0  0  0  0  0
    4.8825    2.1214    1.7538 S   0  0  0  0  0  0  0  0  0  0  0  0
    3.0729    0.1993    1.0261 N   0  0  0  0  0  0  0  0  0  0  0  0
    4.0648   -0.7792    0.7927 N   0  0  0  0  0  0  0  0  0  0  0  0
    4.5126   -0.8823   -0.5127 C   0  0  0  0  0  0  0  0  0  0  0  0
    5.3318   -2.1160   -0.7766 C   0  0  0  0  0  0  0  0  0  0  0  0
    4.2650   -0.0584   -1.3885 O   0  0  0  0  0  0  0  0  0  0  0  0
    1.7444   -0.1537    0.8412 C   0  0  0  0  0  0  0  0  0  0  0  0
    1.4024   -1.3015    0.5921 O   0  0  0  0  0  0  0  0  0  0  0  0
   -1.2390    2.7980    1.0890 S   0  0  0  0  0  0  0  0  0  0  0  0
   -2.8192    2.1475    0.6181 C   0  0  0  0  0  0  0  0  0  0  0  0
   -3.9877    2.8897    0.4903 C   0  0  0  0  0  0  0  0  0  0  0  0
   -5.1565    2.2351    0.1112 C   0  0  0  0  0  0  0  0  0  0  0  0
   -5.1379    0.8595   -0.1347 C   0  0  0  0  0  0  0  0  0  0  0  0
   -3.9519    0.1247   -0.0006 C   0  0  0  0  0  0  0  0  0  0  0  0
   -2.7731    0.7628    0.3849 C   0  0  0  0  0  0  0  0  0  0  0  0
   -0.2722   -1.3589   -1.2852 H   0  0  0  0  0  0  0  0  0  0  0  0
   -1.9974   -1.6428   -1.4818 H   0  0  0  0  0  0  0  0  0  0  0  0
   -0.9800   -2.9053   -0.7759 H   0  0  0  0  0  0  0  0  0  0  0  0
   -2.3263   -1.7277    0.9726 H   0  0  0  0  0  0  0  0  0  0  0  0
   -0.6573   -1.6139    1.2960 H   0  0  0  0  0  0  0  0  0  0  0  0
    3.9248   -1.6418    1.3104 H   0  0  0  0  0  0  0  0  0  0  0  0
    6.2349   -1.8350   -1.3254 H   0  0  0  0  0  0  0  0  0  0  0  0
    4.7406   -2.8176   -1.3707 H   0  0  0  0  0  0  0  0  0  0  0  0
    5.6346   -2.6036    0.1543 H   0  0  0  0  0  0  0  0  0  0  0  0
   -3.9910    3.9584    0.6800 H   0  0  0  0  0  0  0  0  0  0  0  0
   -6.0823    2.7946    0.0025 H   0  0  0  0  0  0  0  0  0  0  0  0
   -6.0526    0.3546   -0.4376 H   0  0  0  0  0  0  0  0  0  0  0  0
   -3.9840   -0.9373   -0.2169 H   0  0  0  0  0  0  0  0  0  0  0  0
  1  2  1  0
  2  3  1  0
  3  4  1  0
  4  5  2  3
  5  6  1  0
  6  7  1  0
  7  8  2  0
  7  9  1  0
  9 10  1  0
 10 11  1  0
 11 12  1  0
 11 13  2  0
  9 14  1  0
 14 15  2  0
  4 16  1  0
 16 17  1  0
 17 18  2  0
 18 19  1  0
 19 20  2  0
 20 21  1  0
 21 22  2  0
 22  3  1  0
 14  5  1  0
 22 17  1  0
  1 23  1  0
  1 24  1  0
  1 25  1  0
  2 26  1  0
  2 27  1  0
 10 28  1  0
 12 29  1  0
 12 30  1  0
 12 31  1  0
 18 32  1  0
 19 33  1  0
 20 34  1  0
 21 35  1  0
M  END
$$$$
