
     RDKit          3D

 39 41  0  0  0  0  0  0  0  0999 V2000
    0.3382    3.7710   -2.5437 C   0  0  0  0  0  0  0  0  0  0  0  0
   -0.4152    4.2256   -1.3052 C   0  0  0  0  0  0  0  0  0  0  0  0
   -1.8911    3.1987   -1.0009 S   0  0  0  0  0  0  0  0  0  0  0  0
   -1.1353    1.6814   -0.4329 C   0  0  0  0  0  0  0  0  0  0  0  0
   -1.7750    0.4882   -0.6920 C   0  0  0  0  0  0  0  0  0  0  0  0
   -1.1785   -0.6681   -0.2359 C   0  0  0  0  0  0  0  0  0  0  0  0
   -1.7391   -1.9064   -0.4436 N   0  0  0  0  0  0  0  0  0  0  0  0
   -1.0259   -3.1042   -0.0153 C   0  0  0  0  0  0  0  0  0  0  0  0
   -1.9373   -4.2356   -0.4830 C   0  0  0  0  0  0  0  0  0  0  0  0
   -2.5076   -3.6894   -1.7814 C   0  0  0  0  0  0  0  0  0  0  0  0
   -2.7116   -2.2024   -1.4881 C   0  0  0  0  0  0  0  0  0  0  0  0
   -0.0340   -0.6040    0.4654 N   0  0  0  0  0  0  0  0  0  0  0  0
    0.5241    0.6028    0.6764 C   0  0  0  0  0  0  0  0  0  0  0  0
    1.7296    0.6360    1.5153 C   0  0  0  0  0  0  0  0  0  0  0  0
    1.7553   -0.1326    2.7008 C   0  0  0  0  0  0  0  0  0  0  0  0
    2.8603   -0.1333    3.5558 C   0  0  0  0  0  0  0  0  0  0  0  0
    3.9758    0.6340    3.2441 C   0  0  0  0  0  0  0  0  0  0  0  0
    3.9862    1.3908    2.0744 C   0  0  0  0  0  0  0  0  0  0  0  0
    2.8773    1.3913    1.2137 C   0  0  0  0  0  0  0  0  0  0  0  0
    3.0382    2.3209   -0.2394 Cl  0  0  0  0  0  0  0  0  0  0  0  0
    0.0087    1.7650    0.2575 N   0  0  0  0  0  0  0  0  0  0  0  0
    1.1870    4.4382   -2.7288 H   0  0  0  0  0  0  0  0  0  0  0  0
   -0.2994    3.7974   -3.4334 H   0  0  0  0  0  0  0  0  0  0  0  0
    0.7349    2.7574   -2.4354 H   0  0  0  0  0  0  0  0  0  0  0  0
   -0.7621    5.2534   -1.4594 H   0  0  0  0  0  0  0  0  0  0  0  0
    0.2367    4.2412   -0.4274 H   0  0  0  0  0  0  0  0  0  0  0  0
   -2.7135    0.4715   -1.2271 H   0  0  0  0  0  0  0  0  0  0  0  0
   -0.8826   -3.1402    1.0702 H   0  0  0  0  0  0  0  0  0  0  0  0
   -0.0510   -3.1757   -0.5136 H   0  0  0  0  0  0  0  0  0  0  0  0
   -2.7443   -4.3983    0.2418 H   0  0  0  0  0  0  0  0  0  0  0  0
   -1.4000   -5.1780   -0.6183 H   0  0  0  0  0  0  0  0  0  0  0  0
   -1.7759   -3.8123   -2.5894 H   0  0  0  0  0  0  0  0  0  0  0  0
   -3.4332   -4.1877   -2.0843 H   0  0  0  0  0  0  0  0  0  0  0  0
   -2.5565   -1.6182   -2.4013 H   0  0  0  0  0  0  0  0  0  0  0  0
   -3.7228   -2.0176   -1.1118 H   0  0  0  0  0  0  0  0  0  0  0  0
    0.8890   -0.7403    2.9645 H   0  0  0  0  0  0  0  0  0  0  0  0
    2.8432   -0.7359    4.4613 H   0  0  0  0  0  0  0  0  0  0  0  0
    4.8386    0.6385    3.9055 H   0  0  0  0  0  0  0  0  0  0  0  0
    4.8687    1.9770    1.8294 H   0  0  0  0  0  0  0  0  0  0  0  0
  1  2  1  0
  2  3  1  0
  3  4  1  0
  4  5  2  0
  5  6  1  0
  6  7  1  0
  7  8  1  0
  8  9  1  0
  9 10  1  0
 10 11  1  0
  6 12  2  0
 12 13  1  0
 13 14  1  0
 14 15  2  0
 15 16  1  0
 16 17  2  0
 17 18  1  0
 18 19  2  0
 19 20  1  0
 13 21  2  0
 21  4  1  0
 11  7  1  0
 19 14  1  0
  1 22  1  0
  1 23  1  0
  1 24  1  0
  2 25  1  0
  2 26  1  0
  5 27  1  0
  8 28  1  0
  8 29  1  0
  9 30  1  0
  9 31  1  0
 10 32  1  0
 10 33  1  0
 11 34  1  0
 11 35  1  0
 15 36  1  0
 16 37  1  0
 17 38  1  0
 18 39  1  0
M  END
$$$$
