
     RDKit          3D

 62 66  0  0  0  0  0  0  0  0999 V2000
   -1.4321   -5.6632   -0.0872 C   0  0  0  0  0  0  0  0  0  0  0  0
   -1.6352   -4.3970    0.5261 O   0  0  0  0  0  0  0  0  0  0  0  0
   -2.4935   -3.5356   -0.1010 C   0  0  0  0  0  0  0  0  0  0  0  0
   -3.2148   -3.8002   -1.2655 C   0  0  0  0  0  0  0  0  0  0  0  0
   -4.0629   -2.8276   -1.8015 C   0  0  0  0  0  0  0  0  0  0  0  0
   -4.1927   -1.5870   -1.1763 C   0  0  0  0  0  0  0  0  0  0  0  0
   -3.4762   -1.3067   -0.0064 C   0  0  0  0  0  0  0  0  0  0  0  0
   -3.5921    0.0012    0.6503 C   0  0  0  0  0  0  0  0  0  0  0  0
   -5.1050    0.4458    1.3159 S   0  0  0  0  0  0  0  0  0  0  0  0
   -4.5138    1.9513    1.8904 C   0  0  0  0  0  0  0  0  0  0  0  0
   -5.2412    2.9327    2.5909 C   0  0  0  0  0  0  0  0  0  0  0  0
   -4.5987    4.1132    2.9814 C   0  0  0  0  0  0  0  0  0  0  0  0
   -3.2594    4.3214    2.6824 C   0  0  0  0  0  0  0  0  0  0  0  0
   -2.5252    5.4297    3.0055 O   0  0  0  0  0  0  0  0  0  0  0  0
   -3.1968    6.4652    3.7116 C   0  0  0  0  0  0  0  0  0  0  0  0
   -2.5478    3.3366    1.9865 C   0  0  0  0  0  0  0  0  0  0  0  0
   -3.1652    2.1244    1.5794 C   0  0  0  0  0  0  0  0  0  0  0  0
   -2.6364    0.9837    0.8626 C   0  0  0  0  0  0  0  0  0  0  0  0
   -1.2628    0.8370    0.3911 C   0  0  0  0  0  0  0  0  0  0  0  0
   -0.9748    0.8552   -0.9777 C   0  0  0  0  0  0  0  0  0  0  0  0
    0.3438    0.7164   -1.4260 C   0  0  0  0  0  0  0  0  0  0  0  0
    1.3835    0.5619   -0.5088 C   0  0  0  0  0  0  0  0  0  0  0  0
    2.7089    0.4171   -0.8108 O   0  0  0  0  0  0  0  0  0  0  0  0
    3.0704    0.4421   -2.1943 C   0  0  0  0  0  0  0  0  0  0  0  0
    4.5964    0.2703   -2.3241 C   0  0  0  0  0  0  0  0  0  0  0  0
    5.0387   -1.1338   -2.4832 N   0  0  0  0  0  0  0  0  0  0  0  0
    6.4996   -1.2041   -2.6567 C   0  0  0  0  0  0  0  0  0  0  0  0
    7.0938   -1.2316   -1.2544 C   0  0  0  0  0  0  0  0  0  0  0  0
    5.9542   -1.6733   -0.3465 C   0  0  0  0  0  0  0  0  0  0  0  0
    4.7955   -1.9579   -1.2888 C   0  0  0  0  0  0  0  0  0  0  0  0
    1.0936    0.5481    0.8581 C   0  0  0  0  0  0  0  0  0  0  0  0
   -0.2207    0.6868    1.3101 C   0  0  0  0  0  0  0  0  0  0  0  0
   -2.6287   -2.2906    0.5213 C   0  0  0  0  0  0  0  0  0  0  0  0
   -0.7096   -6.2168    0.5202 H   0  0  0  0  0  0  0  0  0  0  0  0
   -1.0082   -5.5536   -1.0907 H   0  0  0  0  0  0  0  0  0  0  0  0
   -2.3606   -6.2430   -0.1104 H   0  0  0  0  0  0  0  0  0  0  0  0
   -3.1413   -4.7522   -1.7802 H   0  0  0  0  0  0  0  0  0  0  0  0
   -4.6222   -3.0369   -2.7098 H   0  0  0  0  0  0  0  0  0  0  0  0
   -4.8514   -0.8386   -1.6109 H   0  0  0  0  0  0  0  0  0  0  0  0
   -6.2907    2.7774    2.8261 H   0  0  0  0  0  0  0  0  0  0  0  0
   -5.1853    4.8506    3.5196 H   0  0  0  0  0  0  0  0  0  0  0  0
   -3.5499    6.1132    4.6866 H   0  0  0  0  0  0  0  0  0  0  0  0
   -4.0190    6.8788    3.1182 H   0  0  0  0  0  0  0  0  0  0  0  0
   -2.4770    7.2700    3.8891 H   0  0  0  0  0  0  0  0  0  0  0  0
   -1.4994    3.5094    1.7522 H   0  0  0  0  0  0  0  0  0  0  0  0
   -1.7739    0.9752   -1.7056 H   0  0  0  0  0  0  0  0  0  0  0  0
    0.5203    0.7306   -2.4960 H   0  0  0  0  0  0  0  0  0  0  0  0
    2.5507   -0.3467   -2.7517 H   0  0  0  0  0  0  0  0  0  0  0  0
    2.8005    1.4196   -2.6129 H   0  0  0  0  0  0  0  0  0  0  0  0
    5.1001    0.7618   -1.4827 H   0  0  0  0  0  0  0  0  0  0  0  0
    4.8925    0.8002   -3.2384 H   0  0  0  0  0  0  0  0  0  0  0  0
    6.7426   -2.1406   -3.1743 H   0  0  0  0  0  0  0  0  0  0  0  0
    6.9089   -0.3930   -3.2688 H   0  0  0  0  0  0  0  0  0  0  0  0
    7.9436   -1.9193   -1.1971 H   0  0  0  0  0  0  0  0  0  0  0  0
    7.4447   -0.2372   -0.9566 H   0  0  0  0  0  0  0  0  0  0  0  0
    6.2227   -2.5556    0.2429 H   0  0  0  0  0  0  0  0  0  0  0  0
    5.6988   -0.8672    0.3509 H   0  0  0  0  0  0  0  0  0  0  0  0
    3.8210   -1.8085   -0.8179 H   0  0  0  0  0  0  0  0  0  0  0  0
    4.8262   -3.0132   -1.5903 H   0  0  0  0  0  0  0  0  0  0  0  0
    1.8991    0.4266    1.5780 H   0  0  0  0  0  0  0  0  0  0  0  0
   -0.4230    0.6697    2.3782 H   0  0  0  0  0  0  0  0  0  0  0  0
   -2.0627   -2.0921    1.4286 H   0  0  0  0  0  0  0  0  0  0  0  0
  1  2  1  0
  2  3  1  0
  3  4  2  0
  4  5  1  0
  5  6  2  0
  6  7  1  0
  7  8  1  0
  8  9  1  0
  9 10  1  0
 10 11  2  0
 11 12  1  0
 12 13  2  0
 13 14  1  0
 14 15  1  0
 13 16  1  0
 16 17  2  0
 17 18  1  0
 18 19  1  0
 19 20  2  0
 20 21  1  0
 21 22  2  0
 22 23  1  0
 23 24  1  0
 24 25  1  0
 25 26  1  0
 26 27  1  0
 27 28  1  0
 28 29  1  0
 29 30  1  0
 22 31  1  0
 31 32  2  0
  7 33  2  0
 33  3  1  0
 18  8  2  0
 32 19  1  0
 17 10  1  0
 30 26  1  0
  1 34  1  0
  1 35  1  0
  1 36  1  0
  4 37  1  0
  5 38  1  0
  6 39  1  0
 11 40  1  0
 12 41  1  0
 15 42  1  0
 15 43  1  0
 15 44  1  0
 16 45  1  0
 20 46  1  0
 21 47  1  0
 24 48  1  0
 24 49  1  0
 25 50  1  0
 25 51  1  0
 27 52  1  0
 27 53  1  0
 28 54  1  0
 28 55  1  0
 29 56  1  0
 29 57  1  0
 30 58  1  0
 30 59  1  0
 31 60  1  0
 32 61  1  0
 33 62  1  0
M  END
$$$$
