
     RDKit          3D

 48 50  0  0  0  0  0  0  0  0999 V2000
    6.2835   -0.3757   -0.8810 C   0  0  0  0  0  0  0  0  0  0  0  0
    4.9027   -0.6366   -0.3545 C   0  0  0  0  0  0  0  0  0  0  0  0
    4.6682   -1.6958    0.5256 C   0  0  0  0  0  0  0  0  0  0  0  0
    3.3942   -1.9518    1.0745 C   0  0  0  0  0  0  0  0  0  0  0  0
    3.2232   -3.1287    1.9936 C   0  0  0  0  0  0  0  0  0  0  0  0
    2.3473   -1.0868    0.6843 C   0  0  0  0  0  0  0  0  0  0  0  0
    0.6775   -1.1031    1.1199 S   0  0  0  0  0  0  0  0  0  0  0  0
    0.3892    0.2945    0.1745 C   0  0  0  0  0  0  0  0  0  0  0  0
   -0.9033    0.8267    0.1257 N   0  0  0  0  0  0  0  0  0  0  0  0
   -2.1141    0.0638    0.4503 C   0  0  0  0  0  0  0  0  0  0  0  0
   -2.5345   -0.8832   -0.6792 C   0  0  0  0  0  0  0  0  0  0  0  0
   -3.7012   -1.7956   -0.2801 C   0  0  0  0  0  0  0  0  0  0  0  0
   -4.8879   -1.0871    0.2230 N   0  0  0  0  0  0  0  0  0  0  0  0
   -5.5156   -0.2623   -0.8143 C   0  0  0  0  0  0  0  0  0  0  0  0
   -5.8644   -2.0478    0.7447 C   0  0  0  0  0  0  0  0  0  0  0  0
   -1.0980    2.0422   -0.5646 C   0  0  0  0  0  0  0  0  0  0  0  0
   -2.1488    2.2482   -1.1805 O   0  0  0  0  0  0  0  0  0  0  0  0
   -0.0918    3.0974   -0.4827 C   0  0  0  0  0  0  0  0  0  0  0  0
    0.3400    3.9240   -1.5059 C   0  0  0  0  0  0  0  0  0  0  0  0
    1.3008    4.8816   -1.0635 C   0  0  0  0  0  0  0  0  0  0  0  0
    1.5229    4.7698    0.2851 C   0  0  0  0  0  0  0  0  0  0  0  0
    2.7427    5.8825    1.2477 Br  0  0  0  0  0  0  0  0  0  0  0  0
    0.5921    3.5637    1.0240 S   0  0  0  0  0  0  0  0  0  0  0  0
    1.4368    0.7504   -0.4679 N   0  0  0  0  0  0  0  0  0  0  0  0
    2.5547   -0.0131   -0.1833 C   0  0  0  0  0  0  0  0  0  0  0  0
    3.8464    0.2157   -0.6971 C   0  0  0  0  0  0  0  0  0  0  0  0
    6.8390   -1.3119   -1.0002 H   0  0  0  0  0  0  0  0  0  0  0  0
    6.2430    0.1046   -1.8643 H   0  0  0  0  0  0  0  0  0  0  0  0
    6.8296    0.2755   -0.1916 H   0  0  0  0  0  0  0  0  0  0  0  0
    5.4982   -2.3475    0.8010 H   0  0  0  0  0  0  0  0  0  0  0  0
    4.0496   -3.1749    2.7109 H   0  0  0  0  0  0  0  0  0  0  0  0
    3.2081   -4.0550    1.4108 H   0  0  0  0  0  0  0  0  0  0  0  0
    2.2968   -3.0677    2.5714 H   0  0  0  0  0  0  0  0  0  0  0  0
   -1.9681   -0.4787    1.3904 H   0  0  0  0  0  0  0  0  0  0  0  0
   -2.9205    0.7807    0.6500 H   0  0  0  0  0  0  0  0  0  0  0  0
   -2.7866   -0.3115   -1.5796 H   0  0  0  0  0  0  0  0  0  0  0  0
   -1.6891   -1.5212   -0.9647 H   0  0  0  0  0  0  0  0  0  0  0  0
   -3.9638   -2.4329   -1.1348 H   0  0  0  0  0  0  0  0  0  0  0  0
   -3.3297   -2.4665    0.5061 H   0  0  0  0  0  0  0  0  0  0  0  0
   -5.8079   -0.8529   -1.6900 H   0  0  0  0  0  0  0  0  0  0  0  0
   -4.8481    0.5404   -1.1425 H   0  0  0  0  0  0  0  0  0  0  0  0
   -6.4109    0.2328   -0.4206 H   0  0  0  0  0  0  0  0  0  0  0  0
   -5.4288   -2.6355    1.5605 H   0  0  0  0  0  0  0  0  0  0  0  0
   -6.2186   -2.7389   -0.0289 H   0  0  0  0  0  0  0  0  0  0  0  0
   -6.7312   -1.5262    1.1659 H   0  0  0  0  0  0  0  0  0  0  0  0
   -0.0103    3.8278   -2.5271 H   0  0  0  0  0  0  0  0  0  0  0  0
    1.7854    5.6075   -1.7043 H   0  0  0  0  0  0  0  0  0  0  0  0
    4.0010    1.0592   -1.3637 H   0  0  0  0  0  0  0  0  0  0  0  0
  1  2  1  0
  2  3  2  0
  3  4  1  0
  4  5  1  0
  4  6  2  0
  6  7  1  0
  7  8  1  0
  8  9  1  0
  9 10  1  0
 10 11  1  0
 11 12  1  0
 12 13  1  0
 13 14  1  0
 13 15  1  0
  9 16  1  0
 16 17  2  0
 16 18  1  0
 18 19  2  0
 19 20  1  0
 20 21  2  0
 21 22  1  0
 21 23  1  0
  8 24  2  0
 24 25  1  0
 25 26  2  0
 26  2  1  0
 25  6  1  0
 23 18  1  0
  1 27  1  0
  1 28  1  0
  1 29  1  0
  3 30  1  0
  5 31  1  0
  5 32  1  0
  5 33  1  0
 10 34  1  0
 10 35  1  0
 11 36  1  0
 11 37  1  0
 12 38  1  0
 12 39  1  0
 14 40  1  0
 14 41  1  0
 14 42  1  0
 15 43  1  0
 15 44  1  0
 15 45  1  0
 19 46  1  0
 20 47  1  0
 26 48  1  0
M  END
$$$$
