
     RDKit          3D

 49 52  0  0  0  0  0  0  0  0999 V2000
   -3.2212   -5.0893   -0.8896 C   0  0  0  0  0  0  0  0  0  0  0  0
   -3.0961   -4.1998   -1.9915 O   0  0  0  0  0  0  0  0  0  0  0  0
   -2.4939   -2.9963   -1.7479 C   0  0  0  0  0  0  0  0  0  0  0  0
   -2.3809   -2.1629   -2.8614 C   0  0  0  0  0  0  0  0  0  0  0  0
   -1.7840   -0.9037   -2.7541 C   0  0  0  0  0  0  0  0  0  0  0  0
   -1.2848   -0.4506   -1.5243 C   0  0  0  0  0  0  0  0  0  0  0  0
   -0.6484    0.9385   -1.4144 C   0  0  0  0  0  0  0  0  0  0  0  0
    0.6711    0.8355   -0.7527 N   0  0  0  0  0  0  0  0  0  0  0  0
    0.7679    1.2739    0.4545 C   0  0  0  0  0  0  0  0  0  0  0  0
    1.8847    1.2127    1.2502 N   0  0  0  0  0  0  0  0  0  0  0  0
    3.0972    0.5350    1.0039 C   0  0  0  0  0  0  0  0  0  0  0  0
    3.2338   -0.4985    0.0722 C   0  0  0  0  0  0  0  0  0  0  0  0
    4.4566   -1.1570   -0.1084 C   0  0  0  0  0  0  0  0  0  0  0  0
    5.5772   -0.7973    0.6437 C   0  0  0  0  0  0  0  0  0  0  0  0
    6.8765   -1.5252    0.4709 C   0  0  0  0  0  0  0  0  0  0  0  0
    5.4465    0.2102    1.6012 C   0  0  0  0  0  0  0  0  0  0  0  0
    4.2223    0.8652    1.7776 C   0  0  0  0  0  0  0  0  0  0  0  0
   -0.2784    1.8797    1.0757 N   0  0  0  0  0  0  0  0  0  0  0  0
   -1.4298    2.2708    0.4775 C   0  0  0  0  0  0  0  0  0  0  0  0
   -2.2914    2.9938    1.1279 N   0  0  0  0  0  0  0  0  0  0  0  0
   -3.4095    3.4107    0.4511 C   0  0  0  0  0  0  0  0  0  0  0  0
   -4.3910    4.2096    1.2598 C   0  0  0  0  0  0  0  0  0  0  0  0
   -3.6267    3.1539   -0.8438 C   0  0  0  0  0  0  0  0  0  0  0  0
   -2.6359    2.3544   -1.5820 C   0  0  0  0  0  0  0  0  0  0  0  0
   -2.8021    2.1577   -2.7824 O   0  0  0  0  0  0  0  0  0  0  0  0
   -1.5796    1.8954   -0.8316 N   0  0  0  0  0  0  0  0  0  0  0  0
   -1.4100   -1.2932   -0.4079 C   0  0  0  0  0  0  0  0  0  0  0  0
   -2.0061   -2.5557   -0.5188 C   0  0  0  0  0  0  0  0  0  0  0  0
   -3.7119   -5.9991   -1.2485 H   0  0  0  0  0  0  0  0  0  0  0  0
   -2.2391   -5.3736   -0.4975 H   0  0  0  0  0  0  0  0  0  0  0  0
   -3.8517   -4.6590   -0.1045 H   0  0  0  0  0  0  0  0  0  0  0  0
   -2.7639   -2.4940   -3.8236 H   0  0  0  0  0  0  0  0  0  0  0  0
   -1.7227   -0.2729   -3.6394 H   0  0  0  0  0  0  0  0  0  0  0  0
   -0.4365    1.2910   -2.4324 H   0  0  0  0  0  0  0  0  0  0  0  0
    1.9828    1.9503    1.9326 H   0  0  0  0  0  0  0  0  0  0  0  0
    2.3898   -0.8262   -0.5286 H   0  0  0  0  0  0  0  0  0  0  0  0
    4.5193   -1.9562   -0.8439 H   0  0  0  0  0  0  0  0  0  0  0  0
    6.9981   -1.8673   -0.5623 H   0  0  0  0  0  0  0  0  0  0  0  0
    7.7243   -0.8701    0.6976 H   0  0  0  0  0  0  0  0  0  0  0  0
    6.9114   -2.3924    1.1375 H   0  0  0  0  0  0  0  0  0  0  0  0
    6.2960    0.4943    2.2181 H   0  0  0  0  0  0  0  0  0  0  0  0
    4.1636    1.6449    2.5326 H   0  0  0  0  0  0  0  0  0  0  0  0
   -0.1919    2.1668    2.0373 H   0  0  0  0  0  0  0  0  0  0  0  0
   -3.9111    5.1102    1.6571 H   0  0  0  0  0  0  0  0  0  0  0  0
   -4.7611    3.6147    2.1014 H   0  0  0  0  0  0  0  0  0  0  0  0
   -5.2560    4.5250    0.6669 H   0  0  0  0  0  0  0  0  0  0  0  0
   -4.4976    3.4902   -1.3891 H   0  0  0  0  0  0  0  0  0  0  0  0
   -1.0350   -0.9772    0.5622 H   0  0  0  0  0  0  0  0  0  0  0  0
   -2.0710   -3.1668    0.3748 H   0  0  0  0  0  0  0  0  0  0  0  0
  1  2  1  0
  2  3  1  0
  3  4  2  0
  4  5  1  0
  5  6  2  0
  6  7  1  0
  7  8  1  0
  8  9  2  0
  9 10  1  0
 10 11  1  0
 11 12  2  0
 12 13  1  0
 13 14  2  0
 14 15  1  0
 14 16  1  0
 16 17  2  0
  9 18  1  0
 18 19  1  0
 19 20  2  0
 20 21  1  0
 21 22  1  0
 21 23  2  0
 23 24  1  0
 24 25  2  0
 24 26  1  0
  6 27  1  0
 27 28  2  0
 28  3  1  0
 26  7  1  0
 17 11  1  0
 26 19  1  0
  1 29  1  0
  1 30  1  0
  1 31  1  0
  4 32  1  0
  5 33  1  0
  7 34  1  0
 10 35  1  0
 12 36  1  0
 13 37  1  0
 15 38  1  0
 15 39  1  0
 15 40  1  0
 16 41  1  0
 17 42  1  0
 18 43  1  0
 22 44  1  0
 22 45  1  0
 22 46  1  0
 23 47  1  0
 27 48  1  0
 28 49  1  0
M  END
$$$$
