
     RDKit          3D

 40 41  0  0  0  0  0  0  0  0999 V2000
    6.4891    0.7845    1.6844 C   0  0  0  0  0  0  0  0  0  0  0  0
    5.3626    0.6796    0.6721 C   0  0  0  0  0  0  0  0  0  0  0  0
    4.2974   -0.0540    1.2737 O   0  0  0  0  0  0  0  0  0  0  0  0
    3.1858   -0.2807    0.5100 C   0  0  0  0  0  0  0  0  0  0  0  0
    2.1952   -1.0437    1.1389 C   0  0  0  0  0  0  0  0  0  0  0  0
    1.0058   -1.3516    0.4775 C   0  0  0  0  0  0  0  0  0  0  0  0
    0.8083   -0.8846   -0.8231 C   0  0  0  0  0  0  0  0  0  0  0  0
   -0.7130   -1.2695   -1.6541 S   0  0  0  0  0  6  0  0  0  0  0  0
   -0.7575   -0.5327   -2.9004 O   0  0  0  0  0  0  0  0  0  0  0  0
   -0.8503   -2.7098   -1.6249 O   0  0  0  0  0  0  0  0  0  0  0  0
   -1.9025   -0.5822   -0.6193 N   0  0  0  0  0  0  0  0  0  0  0  0
   -1.8367    0.9010   -0.5133 C   0  0  0  0  0  0  0  0  0  0  0  0
   -2.5706    1.4094    0.7278 C   0  0  0  0  0  0  0  0  0  0  0  0
   -4.0878    1.4028    0.5648 C   0  0  0  0  0  0  0  0  0  0  0  0
   -4.7682    0.0677    0.8571 C   0  0  0  0  0  0  0  0  0  0  0  0
   -4.0436   -1.2020    0.4147 C   0  0  0  0  0  0  0  0  0  0  0  0
   -3.2794   -1.0841   -0.8996 C   0  0  0  0  0  0  0  0  0  0  0  0
    1.7889   -0.1257   -1.4654 C   0  0  0  0  0  0  0  0  0  0  0  0
    2.9786    0.1762   -0.7943 C   0  0  0  0  0  0  0  0  0  0  0  0
    6.1446    1.2881    2.5938 H   0  0  0  0  0  0  0  0  0  0  0  0
    7.3345    1.3415    1.2708 H   0  0  0  0  0  0  0  0  0  0  0  0
    6.8334   -0.2113    1.9826 H   0  0  0  0  0  0  0  0  0  0  0  0
    5.0260    1.6882    0.4059 H   0  0  0  0  0  0  0  0  0  0  0  0
    5.7298    0.1571   -0.2188 H   0  0  0  0  0  0  0  0  0  0  0  0
    2.3567   -1.4038    2.1525 H   0  0  0  0  0  0  0  0  0  0  0  0
    0.2445   -1.9496    0.9731 H   0  0  0  0  0  0  0  0  0  0  0  0
   -2.2325    1.3673   -1.4229 H   0  0  0  0  0  0  0  0  0  0  0  0
   -0.7931    1.2160   -0.4152 H   0  0  0  0  0  0  0  0  0  0  0  0
   -2.2609    2.4503    0.8863 H   0  0  0  0  0  0  0  0  0  0  0  0
   -2.2704    0.8513    1.6224 H   0  0  0  0  0  0  0  0  0  0  0  0
   -4.3533    1.7349   -0.4466 H   0  0  0  0  0  0  0  0  0  0  0  0
   -4.5185    2.1502    1.2433 H   0  0  0  0  0  0  0  0  0  0  0  0
   -5.7621    0.0894    0.3917 H   0  0  0  0  0  0  0  0  0  0  0  0
   -4.9525   -0.0091    1.9365 H   0  0  0  0  0  0  0  0  0  0  0  0
   -3.3648   -1.5286    1.2133 H   0  0  0  0  0  0  0  0  0  0  0  0
   -4.7971   -1.9940    0.3181 H   0  0  0  0  0  0  0  0  0  0  0  0
   -3.2302   -2.0885   -1.3337 H   0  0  0  0  0  0  0  0  0  0  0  0
   -3.7973   -0.4493   -1.6266 H   0  0  0  0  0  0  0  0  0  0  0  0
    1.6388    0.2314   -2.4820 H   0  0  0  0  0  0  0  0  0  0  0  0
    3.7225    0.7677   -1.3180 H   0  0  0  0  0  0  0  0  0  0  0  0
  1  2  1  0
  2  3  1  0
  3  4  1  0
  4  5  2  0
  5  6  1  0
  6  7  2  0
  7  8  1  0
  8  9  2  0
  8 10  2  0
  8 11  1  0
 11 12  1  0
 12 13  1  0
 13 14  1  0
 14 15  1  0
 15 16  1  0
 16 17  1  0
  7 18  1  0
 18 19  2  0
 19  4  1  0
 17 11  1  0
  1 20  1  0
  1 21  1  0
  1 22  1  0
  2 23  1  0
  2 24  1  0
  5 25  1  0
  6 26  1  0
 12 27  1  0
 12 28  1  0
 13 29  1  0
 13 30  1  0
 14 31  1  0
 14 32  1  0
 15 33  1  0
 15 34  1  0
 16 35  1  0
 16 36  1  0
 17 37  1  0
 17 38  1  0
 18 39  1  0
 19 40  1  0
M  END
$$$$
