
     RDKit          3D

 71 76  0  0  0  0  0  0  0  0999 V2000
    7.9941    3.5228   -0.8610 C   0  0  0  0  0  0  0  0  0  0  0  0
    8.9649    2.4847   -0.8618 O   0  0  0  0  0  0  0  0  0  0  0  0
    8.5077    1.2017   -0.7255 C   0  0  0  0  0  0  0  0  0  0  0  0
    9.5090    0.2311   -0.7215 C   0  0  0  0  0  0  0  0  0  0  0  0
    9.1824   -1.1136   -0.5934 C   0  0  0  0  0  0  0  0  0  0  0  0
    7.8462   -1.4907   -0.4618 C   0  0  0  0  0  0  0  0  0  0  0  0
    6.8116   -0.5405   -0.4536 C   0  0  0  0  0  0  0  0  0  0  0  0
    5.4848   -0.9883   -0.3217 N   0  0  0  0  0  0  0  0  0  0  0  0
    5.2114   -1.5967    1.0053 C   0  0  0  0  0  0  0  0  0  0  0  0
    3.8489   -2.3161    1.0108 C   0  0  0  0  0  0  0  0  0  0  0  0
    2.7587   -1.4714    0.5056 N   0  0  0  0  0  0  0  0  0  0  0  0
    1.4833   -1.6808    1.0182 C   0  0  0  0  0  0  0  0  0  0  0  0
    1.2907   -2.4710    1.9464 O   0  0  0  0  0  0  0  0  0  0  0  0
    0.3305   -0.8604    0.4405 C   0  0  0  0  0  0  0  0  0  0  0  0
    0.4840    0.6346    0.7789 C   0  0  0  0  0  0  0  0  0  0  0  0
   -0.7632    1.2368    1.4178 C   0  0  0  0  0  0  0  0  0  0  0  0
   -2.0387    0.8499    0.6686 C   0  0  0  0  0  0  0  0  0  0  0  0
   -2.1038   -0.5931    0.4333 N   0  0  0  0  0  0  0  0  0  0  0  0
   -3.3812   -1.1649    0.4184 C   0  0  0  0  0  0  0  0  0  0  0  0
   -3.5410   -2.4556    0.8415 N   0  0  0  0  0  0  0  0  0  0  0  0
   -4.7657   -3.0213    0.8281 C   0  0  0  0  0  0  0  0  0  0  0  0
   -5.9293   -2.4779    0.4312 N   0  0  0  0  0  0  0  0  0  0  0  0
   -5.7422   -1.2212    0.0024 C   0  0  0  0  0  0  0  0  0  0  0  0
   -4.5536   -0.5055   -0.0398 C   0  0  0  0  0  0  0  0  0  0  0  0
   -4.7776    0.7650   -0.5532 N   0  0  0  0  0  0  0  0  0  0  0  0
   -6.0670    0.8143   -0.8195 C   0  0  0  0  0  0  0  0  0  0  0  0
   -6.6845   -0.3713   -0.4954 N   0  0  0  0  0  0  0  0  0  0  0  0
   -8.0891   -0.6355   -0.6934 C   0  0  0  0  0  0  0  0  0  0  0  0
   -9.0296    0.2633    0.1151 C   0  0  0  0  0  0  0  0  0  0  0  0
   -8.4680    1.5944    0.6230 C   0  0  0  0  0  0  0  0  0  0  0  0
   -7.8692    2.5373   -0.4271 C   0  0  0  0  0  0  0  0  0  0  0  0
   -6.8349    1.9529   -1.3927 C   0  0  0  0  0  0  0  0  0  0  0  0
   -1.0101   -1.4269    0.9400 C   0  0  0  0  0  0  0  0  0  0  0  0
    3.0538   -0.8370   -0.7885 C   0  0  0  0  0  0  0  0  0  0  0  0
    4.4019   -0.0885   -0.7666 C   0  0  0  0  0  0  0  0  0  0  0  0
    7.1691    0.8124   -0.5968 C   0  0  0  0  0  0  0  0  0  0  0  0
    8.5194    4.4727   -0.9951 H   0  0  0  0  0  0  0  0  0  0  0  0
    7.2943    3.4128   -1.6949 H   0  0  0  0  0  0  0  0  0  0  0  0
    7.4677    3.5637    0.0987 H   0  0  0  0  0  0  0  0  0  0  0  0
   10.5495    0.5269   -0.8270 H   0  0  0  0  0  0  0  0  0  0  0  0
    9.9628   -1.8673   -0.6069 H   0  0  0  0  0  0  0  0  0  0  0  0
    7.6075   -2.5488   -0.3923 H   0  0  0  0  0  0  0  0  0  0  0  0
    5.9783   -2.3292    1.2814 H   0  0  0  0  0  0  0  0  0  0  0  0
    5.2096   -0.8083    1.7698 H   0  0  0  0  0  0  0  0  0  0  0  0
    3.8902   -3.1990    0.3612 H   0  0  0  0  0  0  0  0  0  0  0  0
    3.6331   -2.6633    2.0266 H   0  0  0  0  0  0  0  0  0  0  0  0
    0.3396   -0.9864   -0.6504 H   0  0  0  0  0  0  0  0  0  0  0  0
    0.6936    1.1868   -0.1464 H   0  0  0  0  0  0  0  0  0  0  0  0
    1.3401    0.8149    1.4404 H   0  0  0  0  0  0  0  0  0  0  0  0
   -0.6703    2.3278    1.4532 H   0  0  0  0  0  0  0  0  0  0  0  0
   -0.8360    0.8989    2.4601 H   0  0  0  0  0  0  0  0  0  0  0  0
   -2.8867    1.2091    1.2662 H   0  0  0  0  0  0  0  0  0  0  0  0
   -2.0628    1.3678   -0.2973 H   0  0  0  0  0  0  0  0  0  0  0  0
   -4.8125   -4.0478    1.1813 H   0  0  0  0  0  0  0  0  0  0  0  0
   -8.2909   -1.6871   -0.4644 H   0  0  0  0  0  0  0  0  0  0  0  0
   -8.2817   -0.5150   -1.7659 H   0  0  0  0  0  0  0  0  0  0  0  0
   -9.3675   -0.3032    0.9932 H   0  0  0  0  0  0  0  0  0  0  0  0
   -9.9325    0.4488   -0.4785 H   0  0  0  0  0  0  0  0  0  0  0  0
   -7.7142    1.3919    1.3950 H   0  0  0  0  0  0  0  0  0  0  0  0
   -9.2724    2.1308    1.1428 H   0  0  0  0  0  0  0  0  0  0  0  0
   -7.4026    3.3718    0.1117 H   0  0  0  0  0  0  0  0  0  0  0  0
   -8.6785    2.9865   -1.0150 H   0  0  0  0  0  0  0  0  0  0  0  0
   -7.3381    1.6197   -2.3078 H   0  0  0  0  0  0  0  0  0  0  0  0
   -6.1450    2.7448   -1.7054 H   0  0  0  0  0  0  0  0  0  0  0  0
   -1.0504   -1.4718    2.0369 H   0  0  0  0  0  0  0  0  0  0  0  0
   -1.0925   -2.4576    0.5696 H   0  0  0  0  0  0  0  0  0  0  0  0
    2.2671   -0.1444   -1.0910 H   0  0  0  0  0  0  0  0  0  0  0  0
    3.0815   -1.6406   -1.5366 H   0  0  0  0  0  0  0  0  0  0  0  0
    4.3170    0.7685   -0.0853 H   0  0  0  0  0  0  0  0  0  0  0  0
    4.6050    0.2856   -1.7778 H   0  0  0  0  0  0  0  0  0  0  0  0
    6.3937    1.5672   -0.5897 H   0  0  0  0  0  0  0  0  0  0  0  0
  1  2  1  0
  2  3  1  0
  3  4  2  0
  4  5  1  0
  5  6  2  0
  6  7  1  0
  7  8  1  0
  8  9  1  0
  9 10  1  0
 10 11  1  0
 11 12  1  0
 12 13  2  0
 12 14  1  0
 14 15  1  0
 15 16  1  0
 16 17  1  0
 17 18  1  0
 18 19  1  0
 19 20  2  0
 20 21  1  0
 21 22  2  0
 22 23  1  0
 23 24  2  0
 24 25  1  0
 25 26  2  0
 26 27  1  0
 27 28  1  0
 28 29  1  0
 29 30  1  0
 30 31  1  0
 31 32  1  0
 18 33  1  0
 11 34  1  0
 34 35  1  0
  7 36  2  0
 36  3  1  0
 35  8  1  0
 33 14  1  0
 24 19  1  0
 32 26  1  0
 27 23  1  0
  1 37  1  0
  1 38  1  0
  1 39  1  0
  4 40  1  0
  5 41  1  0
  6 42  1  0
  9 43  1  0
  9 44  1  0
 10 45  1  0
 10 46  1  0
 14 47  1  0
 15 48  1  0
 15 49  1  0
 16 50  1  0
 16 51  1  0
 17 52  1  0
 17 53  1  0
 21 54  1  0
 28 55  1  0
 28 56  1  0
 29 57  1  0
 29 58  1  0
 30 59  1  0
 30 60  1  0
 31 61  1  0
 31 62  1  0
 32 63  1  0
 32 64  1  0
 33 65  1  0
 33 66  1  0
 34 67  1  0
 34 68  1  0
 35 69  1  0
 35 70  1  0
 36 71  1  0
M  END
$$$$
