
     RDKit          3D

 43 45  0  0  0  0  0  0  0  0999 V2000
    0.4085   -1.3655   -0.2720 O   0  0  0  0  0  0  0  0  0  0  0  0
    1.2914   -1.8366    0.4427 C   0  0  0  0  0  0  0  0  0  0  0  0
    1.0176   -2.2888    1.8836 C   0  0  0  0  0  0  0  0  0  0  0  0
   -0.1597   -1.6356    2.4220 N   0  0  0  0  0  0  0  0  0  0  0  0
   -0.0590   -0.3516    2.9265 C   0  0  0  0  0  0  0  0  0  0  0  0
    1.0221    0.1967    3.1248 O   0  0  0  0  0  0  0  0  0  0  0  0
   -1.4048    0.2871    3.2786 C   0  0  0  0  0  0  0  0  0  0  0  0
   -1.3111    1.8025    3.1536 C   0  0  0  0  0  0  0  0  0  0  0  0
   -2.5343    2.4232    3.5724 O   0  0  0  0  0  0  0  0  0  0  0  0
   -3.6304    1.7806    3.0569 C   0  0  0  0  0  0  0  0  0  0  0  0
   -4.8447    2.4620    3.1284 C   0  0  0  0  0  0  0  0  0  0  0  0
   -6.0018    1.8769    2.6119 C   0  0  0  0  0  0  0  0  0  0  0  0
   -5.9433    0.6105    2.0238 C   0  0  0  0  0  0  0  0  0  0  0  0
   -4.7284   -0.0751    1.9602 C   0  0  0  0  0  0  0  0  0  0  0  0
   -3.5764    0.5027    2.4908 C   0  0  0  0  0  0  0  0  0  0  0  0
   -2.4267   -0.2388    2.4165 O   0  0  0  0  0  0  0  0  0  0  0  0
    2.6128   -2.0742    0.0674 N   0  0  0  0  0  0  0  0  0  0  0  0
    3.1588   -1.8348   -1.1658 N   0  0  0  0  0  0  0  0  0  0  0  0
    2.7182   -0.8233   -1.8450 C   0  0  0  0  0  0  0  0  0  0  0  0
    3.2552   -0.4955   -3.1830 C   0  0  0  0  0  0  0  0  0  0  0  0
    4.3152   -1.2300   -3.7288 C   0  0  0  0  0  0  0  0  0  0  0  0
    4.8297   -0.8802   -4.9784 C   0  0  0  0  0  0  0  0  0  0  0  0
    4.2847    0.1956   -5.6784 C   0  0  0  0  0  0  0  0  0  0  0  0
    3.2257    0.9139   -5.1295 C   0  0  0  0  0  0  0  0  0  0  0  0
    2.7237    1.9549   -5.8554 O   0  0  0  0  0  0  0  0  0  0  0  0
    2.7049    0.5833   -3.8822 C   0  0  0  0  0  0  0  0  0  0  0  0
    0.8265   -3.3670    1.8764 H   0  0  0  0  0  0  0  0  0  0  0  0
    1.8833   -2.0747    2.5205 H   0  0  0  0  0  0  0  0  0  0  0  0
   -1.0460   -1.8343    1.9632 H   0  0  0  0  0  0  0  0  0  0  0  0
   -1.6450   -0.0063    4.3109 H   0  0  0  0  0  0  0  0  0  0  0  0
   -1.1006    2.1131    2.1233 H   0  0  0  0  0  0  0  0  0  0  0  0
   -0.5128    2.2033    3.7860 H   0  0  0  0  0  0  0  0  0  0  0  0
   -4.8877    3.4504    3.5777 H   0  0  0  0  0  0  0  0  0  0  0  0
   -6.9483    2.4076    2.6649 H   0  0  0  0  0  0  0  0  0  0  0  0
   -6.8453    0.1506    1.6272 H   0  0  0  0  0  0  0  0  0  0  0  0
   -4.6848   -1.0624    1.5060 H   0  0  0  0  0  0  0  0  0  0  0  0
    3.1689   -2.7080    0.6334 H   0  0  0  0  0  0  0  0  0  0  0  0
    1.9566   -0.1275   -1.4554 H   0  0  0  0  0  0  0  0  0  0  0  0
    4.7507   -2.0657   -3.1816 H   0  0  0  0  0  0  0  0  0  0  0  0
    5.6632   -1.4376   -5.3970 H   0  0  0  0  0  0  0  0  0  0  0  0
    4.6824    0.4758   -6.6503 H   0  0  0  0  0  0  0  0  0  0  0  0
    1.9028    2.2674   -5.4386 H   0  0  0  0  0  0  0  0  0  0  0  0
    1.8882    1.1553   -3.4511 H   0  0  0  0  0  0  0  0  0  0  0  0
  1  2  2  0
  2  3  1  0
  3  4  1  0
  4  5  1  0
  5  6  2  0
  5  7  1  0
  7  8  1  0
  8  9  1  0
  9 10  1  0
 10 11  2  0
 11 12  1  0
 12 13  2  0
 13 14  1  0
 14 15  2  0
 15 16  1  0
  2 17  1  0
 17 18  1  0
 18 19  2  3
 19 20  1  0
 20 21  2  0
 21 22  1  0
 22 23  2  0
 23 24  1  0
 24 25  1  0
 24 26  2  0
 16  7  1  0
 26 20  1  0
 15 10  1  0
  3 27  1  0
  3 28  1  0
  4 29  1  0
  7 30  1  0
  8 31  1  0
  8 32  1  0
 11 33  1  0
 12 34  1  0
 13 35  1  0
 14 36  1  0
 17 37  1  0
 19 38  1  0
 21 39  1  0
 22 40  1  0
 23 41  1  0
 25 42  1  0
 26 43  1  0
M  END
$$$$
