
     RDKit          3D

 45 47  0  0  0  0  0  0  0  0999 V2000
   -7.6677   -0.1703   -1.8696 N   0  0  0  0  0  0  0  0  0  0  0  0
   -7.5832    0.1543   -0.2189 S   0  0  0  0  0  6  0  0  0  0  0  0
   -8.1297   -1.0152    0.4305 O   0  0  0  0  0  0  0  0  0  0  0  0
   -8.0995    1.4829    0.0031 O   0  0  0  0  0  0  0  0  0  0  0  0
   -5.8309    0.1796    0.0477 C   0  0  0  0  0  0  0  0  0  0  0  0
   -5.1872   -0.9375    0.5791 C   0  0  0  0  0  0  0  0  0  0  0  0
   -3.8051   -0.8985    0.7861 C   0  0  0  0  0  0  0  0  0  0  0  0
   -3.0645    0.2556    0.4892 C   0  0  0  0  0  0  0  0  0  0  0  0
   -1.6700    0.1947    0.7007 N   0  0  0  0  0  0  0  0  0  0  0  0
   -0.7264    1.1977    0.8941 C   0  0  0  0  0  0  0  0  0  0  0  0
   -1.0683    2.7584    1.4171 S   0  0  0  0  0  0  0  0  0  0  0  0
    0.5853    0.7345    0.6623 N   0  0  0  0  0  0  0  0  0  0  0  0
    0.8664   -0.4332   -0.1957 C   0  0  0  0  0  0  0  0  0  0  0  0
    2.2049   -0.3363   -0.9530 C   0  0  0  0  0  0  0  0  0  0  0  0
    3.3247   -0.1363   -0.0244 N   0  0  0  0  0  0  0  0  0  0  0  0
    4.6265   -0.4695   -0.3695 C   0  0  0  0  0  0  0  0  0  0  0  0
    5.6340   -0.5997    0.6020 C   0  0  0  0  0  0  0  0  0  0  0  0
    6.9504   -0.9423    0.2684 C   0  0  0  0  0  0  0  0  0  0  0  0
    7.2965   -1.1672   -1.0577 C   0  0  0  0  0  0  0  0  0  0  0  0
    6.3248   -1.0514   -2.0434 C   0  0  0  0  0  0  0  0  0  0  0  0
    5.0103   -0.7099   -1.6991 C   0  0  0  0  0  0  0  0  0  0  0  0
    3.0497    0.6403    1.1973 C   0  0  0  0  0  0  0  0  0  0  0  0
    1.7813    1.5053    1.0607 C   0  0  0  0  0  0  0  0  0  0  0  0
   -3.7246    1.3585   -0.0595 C   0  0  0  0  0  0  0  0  0  0  0  0
   -5.1078    1.3305   -0.2685 C   0  0  0  0  0  0  0  0  0  0  0  0
   -6.7657   -0.1148   -2.3401 H   0  0  0  0  0  0  0  0  0  0  0  0
   -8.1174   -1.0773   -2.0045 H   0  0  0  0  0  0  0  0  0  0  0  0
   -5.7458   -1.8339    0.8402 H   0  0  0  0  0  0  0  0  0  0  0  0
   -3.3193   -1.7769    1.2052 H   0  0  0  0  0  0  0  0  0  0  0  0
   -1.3207   -0.7167    0.9665 H   0  0  0  0  0  0  0  0  0  0  0  0
    0.8790   -1.3088    0.4648 H   0  0  0  0  0  0  0  0  0  0  0  0
    0.0562   -0.5662   -0.9207 H   0  0  0  0  0  0  0  0  0  0  0  0
    2.1688    0.4975   -1.6646 H   0  0  0  0  0  0  0  0  0  0  0  0
    2.3276   -1.2674   -1.5189 H   0  0  0  0  0  0  0  0  0  0  0  0
    5.4053   -0.4589    1.6548 H   0  0  0  0  0  0  0  0  0  0  0  0
    7.6989   -1.0368    1.0505 H   0  0  0  0  0  0  0  0  0  0  0  0
    8.3164   -1.4323   -1.3210 H   0  0  0  0  0  0  0  0  0  0  0  0
    6.5835   -1.2213   -3.0851 H   0  0  0  0  0  0  0  0  0  0  0  0
    4.2940   -0.6122   -2.5094 H   0  0  0  0  0  0  0  0  0  0  0  0
    2.9260   -0.0568    2.0349 H   0  0  0  0  0  0  0  0  0  0  0  0
    3.8815    1.3150    1.4335 H   0  0  0  0  0  0  0  0  0  0  0  0
    1.5979    2.0101    2.0144 H   0  0  0  0  0  0  0  0  0  0  0  0
    1.9371    2.2735    0.2929 H   0  0  0  0  0  0  0  0  0  0  0  0
   -3.1860    2.2519   -0.3598 H   0  0  0  0  0  0  0  0  0  0  0  0
   -5.6074    2.2075   -0.6767 H   0  0  0  0  0  0  0  0  0  0  0  0
  1  2  1  0
  2  3  2  0
  2  4  2  0
  2  5  1  0
  5  6  2  0
  6  7  1  0
  7  8  2  0
  8  9  1  0
  9 10  1  0
 10 11  2  0
 10 12  1  0
 12 13  1  0
 13 14  1  0
 14 15  1  0
 15 16  1  0
 16 17  2  0
 17 18  1  0
 18 19  2  0
 19 20  1  0
 20 21  2  0
 15 22  1  0
 22 23  1  0
  8 24  1  0
 24 25  2  0
 25  5  1  0
 23 12  1  0
 21 16  1  0
  1 26  1  0
  1 27  1  0
  6 28  1  0
  7 29  1  0
  9 30  1  0
 13 31  1  0
 13 32  1  0
 14 33  1  0
 14 34  1  0
 17 35  1  0
 18 36  1  0
 19 37  1  0
 20 38  1  0
 21 39  1  0
 22 40  1  0
 22 41  1  0
 23 42  1  0
 23 43  1  0
 24 44  1  0
 25 45  1  0
M  END
$$$$
