
     RDKit          3D

 50 52  0  0  0  0  0  0  0  0999 V2000
    6.0763   -0.4572   -3.7559 C   0  0  0  0  0  0  0  0  0  0  0  0
    5.1365   -0.7958   -2.6370 C   0  0  0  0  0  0  0  0  0  0  0  0
    4.4266   -2.0034   -2.6557 C   0  0  0  0  0  0  0  0  0  0  0  0
    3.5768   -2.3426   -1.5997 C   0  0  0  0  0  0  0  0  0  0  0  0
    3.4244   -1.4762   -0.5144 C   0  0  0  0  0  0  0  0  0  0  0  0
    2.3443   -1.9131    0.8340 S   0  0  0  0  0  0  0  0  0  0  0  0
    0.7886   -1.1931    0.2031 C   0  0  0  0  0  0  0  0  0  0  0  0
    0.7787    0.3383    0.2583 C   0  0  0  0  0  0  0  0  0  0  0  0
    1.4725    0.9504    1.0735 O   0  0  0  0  0  0  0  0  0  0  0  0
   -0.0581    1.0239   -0.6382 N   0  0  0  0  0  0  0  0  0  0  0  0
   -1.1082    0.3564   -1.4249 C   0  0  0  0  0  0  0  0  0  0  0  0
   -2.3246    0.1260   -0.6033 C   0  0  0  0  0  0  0  0  0  0  0  0
   -2.4455   -0.4172    0.5868 N   0  0  0  0  0  0  0  0  0  0  0  0
   -3.8044   -0.3475    0.8137 C   0  0  0  0  0  0  0  0  0  0  0  0
   -4.4100   -0.8235    2.0530 C   0  0  0  0  0  0  0  0  0  0  0  0
   -3.5992   -1.2717    3.1077 C   0  0  0  0  0  0  0  0  0  0  0  0
   -4.1680   -1.7255    4.3005 C   0  0  0  0  0  0  0  0  0  0  0  0
   -5.5527   -1.7370    4.4521 C   0  0  0  0  0  0  0  0  0  0  0  0
   -6.3707   -1.2960    3.4130 C   0  0  0  0  0  0  0  0  0  0  0  0
   -5.8028   -0.8396    2.2203 C   0  0  0  0  0  0  0  0  0  0  0  0
   -4.4942    0.1901   -0.2080 N   0  0  0  0  0  0  0  0  0  0  0  0
   -3.5142    0.5061   -1.1453 O   0  0  0  0  0  0  0  0  0  0  0  0
   -0.1161    2.5025   -0.5940 C   0  0  0  0  0  0  0  0  0  0  0  0
   -0.7063    3.0435    0.7103 C   0  0  0  0  0  0  0  0  0  0  0  0
    1.2339    3.1510   -0.9160 C   0  0  0  0  0  0  0  0  0  0  0  0
    4.1419   -0.2783   -0.4854 C   0  0  0  0  0  0  0  0  0  0  0  0
    4.9942    0.0588   -1.5398 C   0  0  0  0  0  0  0  0  0  0  0  0
    6.3823    0.5941   -3.7163 H   0  0  0  0  0  0  0  0  0  0  0  0
    5.5939   -0.6225   -4.7240 H   0  0  0  0  0  0  0  0  0  0  0  0
    6.9758   -1.0775   -3.6893 H   0  0  0  0  0  0  0  0  0  0  0  0
    4.5418   -2.6944   -3.4880 H   0  0  0  0  0  0  0  0  0  0  0  0
    3.0453   -3.2912   -1.6275 H   0  0  0  0  0  0  0  0  0  0  0  0
    0.6637   -1.5644   -0.8139 H   0  0  0  0  0  0  0  0  0  0  0  0
   -0.0305   -1.5660    0.8237 H   0  0  0  0  0  0  0  0  0  0  0  0
   -1.3340    0.9672   -2.3062 H   0  0  0  0  0  0  0  0  0  0  0  0
   -0.7532   -0.6009   -1.8091 H   0  0  0  0  0  0  0  0  0  0  0  0
   -2.5149   -1.2651    3.0101 H   0  0  0  0  0  0  0  0  0  0  0  0
   -3.5278   -2.0662    5.1111 H   0  0  0  0  0  0  0  0  0  0  0  0
   -5.9951   -2.0893    5.3804 H   0  0  0  0  0  0  0  0  0  0  0  0
   -7.4516   -1.3057    3.5301 H   0  0  0  0  0  0  0  0  0  0  0  0
   -6.4604   -0.4979    1.4227 H   0  0  0  0  0  0  0  0  0  0  0  0
   -0.7920    2.8188   -1.3992 H   0  0  0  0  0  0  0  0  0  0  0  0
   -0.0897    2.8029    1.5790 H   0  0  0  0  0  0  0  0  0  0  0  0
   -1.7024    2.6284    0.8888 H   0  0  0  0  0  0  0  0  0  0  0  0
   -0.8033    4.1323    0.6654 H   0  0  0  0  0  0  0  0  0  0  0  0
    1.6561    2.7299   -1.8351 H   0  0  0  0  0  0  0  0  0  0  0  0
    1.9674    3.0136   -0.1167 H   0  0  0  0  0  0  0  0  0  0  0  0
    1.1129    4.2301   -1.0646 H   0  0  0  0  0  0  0  0  0  0  0  0
    4.0439    0.4027    0.3586 H   0  0  0  0  0  0  0  0  0  0  0  0
    5.5520    0.9917   -1.4886 H   0  0  0  0  0  0  0  0  0  0  0  0
  1  2  1  0
  2  3  2  0
  3  4  1  0
  4  5  2  0
  5  6  1  0
  6  7  1  0
  7  8  1  0
  8  9  2  0
  8 10  1  0
 10 11  1  0
 11 12  1  0
 12 13  2  0
 13 14  1  0
 14 15  1  0
 15 16  2  0
 16 17  1  0
 17 18  2  0
 18 19  1  0
 19 20  2  0
 14 21  2  0
 21 22  1  0
 10 23  1  0
 23 24  1  0
 23 25  1  0
  5 26  1  0
 26 27  2  0
 27  2  1  0
 22 12  1  0
 20 15  1  0
  1 28  1  0
  1 29  1  0
  1 30  1  0
  3 31  1  0
  4 32  1  0
  7 33  1  0
  7 34  1  0
 11 35  1  0
 11 36  1  0
 16 37  1  0
 17 38  1  0
 18 39  1  0
 19 40  1  0
 20 41  1  0
 23 42  1  0
 24 43  1  0
 24 44  1  0
 24 45  1  0
 25 46  1  0
 25 47  1  0
 25 48  1  0
 26 49  1  0
 27 50  1  0
M  END
$$$$
