
     RDKit          3D

 61 64  0  0  0  0  0  0  0  0999 V2000
   -9.8020   -1.5991    1.5276 C   0  0  0  0  0  0  0  0  0  0  0  0
   -8.6392   -1.3738    0.7286 O   0  0  0  0  0  0  0  0  0  0  0  0
   -8.0178   -0.1950    0.9809 C   0  0  0  0  0  0  0  0  0  0  0  0
   -8.3621    0.6315    1.8118 O   0  0  0  0  0  0  0  0  0  0  0  0
   -6.8500   -0.0139    0.0773 C   0  0  0  0  0  0  0  0  0  0  0  0
   -6.2256    1.2392    0.0453 C   0  0  0  0  0  0  0  0  0  0  0  0
   -5.1297    1.4630   -0.7936 C   0  0  0  0  0  0  0  0  0  0  0  0
   -4.6322    0.4348   -1.6066 C   0  0  0  0  0  0  0  0  0  0  0  0
   -3.4541    0.6672   -2.5310 C   0  0  0  0  0  0  0  0  0  0  0  0
   -2.1159    0.5869   -1.9358 N   0  0  0  0  0  0  0  0  0  0  0  0
   -1.7979    1.6524   -0.9952 C   0  0  0  0  0  0  0  0  0  0  0  0
   -0.2808    1.7530   -0.8082 C   0  0  0  0  0  0  0  0  0  0  0  0
    0.4381    0.3992   -0.9449 C   0  0  0  0  0  0  0  0  0  0  0  0
    1.5867    0.4470   -0.0897 O   0  0  0  0  0  0  0  0  0  0  0  0
    2.6239   -0.4162   -0.3045 C   0  0  0  0  0  0  0  0  0  0  0  0
    2.7188   -1.3613   -1.3269 C   0  0  0  0  0  0  0  0  0  0  0  0
    3.8270   -2.2132   -1.4044 C   0  0  0  0  0  0  0  0  0  0  0  0
    4.8522   -2.1172   -0.4658 C   0  0  0  0  0  0  0  0  0  0  0  0
    4.7736   -1.1519    0.5384 C   0  0  0  0  0  0  0  0  0  0  0  0
    5.8580   -1.0711    1.5396 C   0  0  0  0  0  0  0  0  0  0  0  0
    6.1224   -2.0780    2.1962 O   0  0  0  0  0  0  0  0  0  0  0  0
    6.5304    0.1303    1.6769 N   0  0  0  0  0  0  0  0  0  0  0  0
    7.6084    0.2652    2.6403 C   0  0  0  0  0  0  0  0  0  0  0  0
    8.0197    1.7288    2.5432 C   0  0  0  0  0  0  0  0  0  0  0  0
    7.7389    2.0583    1.0829 C   0  0  0  0  0  0  0  0  0  0  0  0
    6.4512    1.2915    0.8034 C   0  0  0  0  0  0  0  0  0  0  0  0
    3.6589   -0.3134    0.6282 C   0  0  0  0  0  0  0  0  0  0  0  0
   -0.5120   -0.7247   -0.5363 C   0  0  0  0  0  0  0  0  0  0  0  0
   -1.7586   -0.7414   -1.4289 C   0  0  0  0  0  0  0  0  0  0  0  0
   -5.2608   -0.8198   -1.5665 C   0  0  0  0  0  0  0  0  0  0  0  0
   -6.3612   -1.0443   -0.7336 C   0  0  0  0  0  0  0  0  0  0  0  0
   -9.5182   -1.7502    2.5714 H   0  0  0  0  0  0  0  0  0  0  0  0
  -10.2909   -2.5062    1.1647 H   0  0  0  0  0  0  0  0  0  0  0  0
  -10.5082   -0.7686    1.4333 H   0  0  0  0  0  0  0  0  0  0  0  0
   -6.5949    2.0507    0.6699 H   0  0  0  0  0  0  0  0  0  0  0  0
   -4.6706    2.4493   -0.8092 H   0  0  0  0  0  0  0  0  0  0  0  0
   -3.5779    1.6450   -3.0158 H   0  0  0  0  0  0  0  0  0  0  0  0
   -3.5096   -0.0484   -3.3629 H   0  0  0  0  0  0  0  0  0  0  0  0
   -2.2792    1.4758   -0.0252 H   0  0  0  0  0  0  0  0  0  0  0  0
   -2.1562    2.6236   -1.3575 H   0  0  0  0  0  0  0  0  0  0  0  0
   -0.0711    2.2114    0.1669 H   0  0  0  0  0  0  0  0  0  0  0  0
    0.1419    2.4388   -1.5545 H   0  0  0  0  0  0  0  0  0  0  0  0
    0.7418    0.2973   -1.9943 H   0  0  0  0  0  0  0  0  0  0  0  0
    1.9400   -1.4788   -2.0725 H   0  0  0  0  0  0  0  0  0  0  0  0
    3.8807   -2.9614   -2.1884 H   0  0  0  0  0  0  0  0  0  0  0  0
    5.7051   -2.7905   -0.5112 H   0  0  0  0  0  0  0  0  0  0  0  0
    7.2695   -0.0194    3.6438 H   0  0  0  0  0  0  0  0  0  0  0  0
    8.4249   -0.4033    2.3365 H   0  0  0  0  0  0  0  0  0  0  0  0
    9.0633    1.8954    2.8282 H   0  0  0  0  0  0  0  0  0  0  0  0
    7.3813    2.3435    3.1911 H   0  0  0  0  0  0  0  0  0  0  0  0
    7.6412    3.1314    0.8961 H   0  0  0  0  0  0  0  0  0  0  0  0
    8.5493    1.6706    0.4537 H   0  0  0  0  0  0  0  0  0  0  0  0
    5.5785    1.8809    1.1009 H   0  0  0  0  0  0  0  0  0  0  0  0
    6.3549    0.9991   -0.2461 H   0  0  0  0  0  0  0  0  0  0  0  0
    3.5805    0.4035    1.4416 H   0  0  0  0  0  0  0  0  0  0  0  0
   -0.0202   -1.7028   -0.5715 H   0  0  0  0  0  0  0  0  0  0  0  0
   -0.8044   -0.5835    0.5130 H   0  0  0  0  0  0  0  0  0  0  0  0
   -2.5660   -1.1964   -0.8447 H   0  0  0  0  0  0  0  0  0  0  0  0
   -1.5733   -1.3984   -2.2879 H   0  0  0  0  0  0  0  0  0  0  0  0
   -4.8956   -1.6339   -2.1899 H   0  0  0  0  0  0  0  0  0  0  0  0
   -6.8249   -2.0279   -0.7282 H   0  0  0  0  0  0  0  0  0  0  0  0
  1  2  1  0
  2  3  1  0
  3  4  2  0
  3  5  1  0
  5  6  2  0
  6  7  1  0
  7  8  2  0
  8  9  1  0
  9 10  1  0
 10 11  1  0
 11 12  1  0
 12 13  1  0
 13 14  1  0
 14 15  1  0
 15 16  2  0
 16 17  1  0
 17 18  2  0
 18 19  1  0
 19 20  1  0
 20 21  2  0
 20 22  1  0
 22 23  1  0
 23 24  1  0
 24 25  1  0
 25 26  1  0
 19 27  2  0
 13 28  1  0
 28 29  1  0
  8 30  1  0
 30 31  2  0
 31  5  1  0
 29 10  1  0
 27 15  1  0
 26 22  1  0
  1 32  1  0
  1 33  1  0
  1 34  1  0
  6 35  1  0
  7 36  1  0
  9 37  1  0
  9 38  1  0
 11 39  1  0
 11 40  1  0
 12 41  1  0
 12 42  1  0
 13 43  1  0
 16 44  1  0
 17 45  1  0
 18 46  1  0
 23 47  1  0
 23 48  1  0
 24 49  1  0
 24 50  1  0
 25 51  1  0
 25 52  1  0
 26 53  1  0
 26 54  1  0
 27 55  1  0
 28 56  1  0
 28 57  1  0
 29 58  1  0
 29 59  1  0
 30 60  1  0
 31 61  1  0
M  END
$$$$
