
     RDKit          3D

 58 61  0  0  0  0  0  0  0  0999 V2000
    5.1808    3.2553   -2.6107 C   0  0  0  0  0  0  0  0  0  0  0  0
    5.2042    1.8886   -2.2263 O   0  0  0  0  0  0  0  0  0  0  0  0
    4.2579    1.4821   -1.3273 C   0  0  0  0  0  0  0  0  0  0  0  0
    3.3299    2.3018   -0.6850 C   0  0  0  0  0  0  0  0  0  0  0  0
    2.4083    1.7521    0.2167 C   0  0  0  0  0  0  0  0  0  0  0  0
    2.3950    0.3735    0.4938 C   0  0  0  0  0  0  0  0  0  0  0  0
    1.4070   -0.1831    1.4201 C   0  0  0  0  0  0  0  0  0  0  0  0
    0.0832   -0.3379    1.0564 C   0  0  0  0  0  0  0  0  0  0  0  0
   -0.7966   -0.8717    1.9974 C   0  0  0  0  0  0  0  0  0  0  0  0
   -2.2123   -1.0141    1.5917 C   0  0  0  0  0  0  0  0  0  0  0  0
   -3.1012   -0.4740    2.2380 O   0  0  0  0  0  0  0  0  0  0  0  0
   -2.4111   -1.7607    0.4502 N   0  0  0  0  0  0  0  0  0  0  0  0
   -3.6653   -1.7132   -0.2815 C   0  0  0  0  0  0  0  0  0  0  0  0
   -3.4982   -1.0466   -1.6656 C   0  0  0  0  0  0  0  0  0  0  0  0
   -2.7264    0.2104   -1.6502 N   0  0  0  0  0  0  0  0  0  0  0  0
   -2.3712    0.6493   -3.0177 C   0  0  0  0  0  0  0  0  0  0  0  0
   -3.5422    1.2557   -3.8075 C   0  0  0  0  0  0  0  0  0  0  0  0
   -4.1455    2.3412   -3.0967 O   0  0  0  0  0  0  0  0  0  0  0  0
   -4.5974    1.9132   -1.8052 C   0  0  0  0  0  0  0  0  0  0  0  0
   -3.4446    1.3185   -0.9790 C   0  0  0  0  0  0  0  0  0  0  0  0
   -0.3540   -1.2314    3.2876 C   0  0  0  0  0  0  0  0  0  0  0  0
   -1.1760   -1.7859    4.3011 C   0  0  0  0  0  0  0  0  0  0  0  0
   -0.6515   -2.1262    5.5463 C   0  0  0  0  0  0  0  0  0  0  0  0
    0.6979   -1.9183    5.7986 C   0  0  0  0  0  0  0  0  0  0  0  0
    1.5116   -1.3739    4.8024 C   0  0  0  0  0  0  0  0  0  0  0  0
    1.0142   -1.0275    3.5528 C   0  0  0  0  0  0  0  0  0  0  0  0
    1.8676   -0.5168    2.6495 N   0  0  0  0  0  0  0  0  0  0  0  0
    3.3464   -0.4328   -0.1514 C   0  0  0  0  0  0  0  0  0  0  0  0
    3.3269   -1.7963    0.0277 O   0  0  0  0  0  0  0  0  0  0  0  0
    4.3867   -2.1903    0.9005 C   0  0  0  0  0  0  0  0  0  0  0  0
    4.2578    0.1124   -1.0609 C   0  0  0  0  0  0  0  0  0  0  0  0
    5.3477    3.9148   -1.7545 H   0  0  0  0  0  0  0  0  0  0  0  0
    4.2470    3.4998   -3.1233 H   0  0  0  0  0  0  0  0  0  0  0  0
    6.0020    3.4122   -3.3148 H   0  0  0  0  0  0  0  0  0  0  0  0
    3.2913    3.3711   -0.8623 H   0  0  0  0  0  0  0  0  0  0  0  0
    1.6929    2.4107    0.7080 H   0  0  0  0  0  0  0  0  0  0  0  0
   -0.2585   -0.0406    0.0695 H   0  0  0  0  0  0  0  0  0  0  0  0
   -1.6034   -2.1157   -0.0459 H   0  0  0  0  0  0  0  0  0  0  0  0
   -3.9939   -2.7492   -0.4177 H   0  0  0  0  0  0  0  0  0  0  0  0
   -4.4303   -1.1938    0.3040 H   0  0  0  0  0  0  0  0  0  0  0  0
   -4.4843   -0.9257   -2.1269 H   0  0  0  0  0  0  0  0  0  0  0  0
   -2.9502   -1.7655   -2.2889 H   0  0  0  0  0  0  0  0  0  0  0  0
   -1.9211   -0.1762   -3.5815 H   0  0  0  0  0  0  0  0  0  0  0  0
   -1.5877    1.4104   -2.9211 H   0  0  0  0  0  0  0  0  0  0  0  0
   -3.1733    1.6509   -4.7594 H   0  0  0  0  0  0  0  0  0  0  0  0
   -4.3071    0.5069   -4.0381 H   0  0  0  0  0  0  0  0  0  0  0  0
   -5.0050    2.7910   -1.2918 H   0  0  0  0  0  0  0  0  0  0  0  0
   -5.4177    1.1973   -1.9301 H   0  0  0  0  0  0  0  0  0  0  0  0
   -2.7087    2.1118   -0.7963 H   0  0  0  0  0  0  0  0  0  0  0  0
   -3.8121    1.0216    0.0064 H   0  0  0  0  0  0  0  0  0  0  0  0
   -2.2381   -1.9527    4.1235 H   0  0  0  0  0  0  0  0  0  0  0  0
   -1.2960   -2.5479    6.3135 H   0  0  0  0  0  0  0  0  0  0  0  0
    1.1218   -2.1764    6.7664 H   0  0  0  0  0  0  0  0  0  0  0  0
    2.5684   -1.2155    5.0069 H   0  0  0  0  0  0  0  0  0  0  0  0
    4.3977   -1.6025    1.8275 H   0  0  0  0  0  0  0  0  0  0  0  0
    4.2285   -3.2395    1.1659 H   0  0  0  0  0  0  0  0  0  0  0  0
    5.3551   -2.1151    0.3915 H   0  0  0  0  0  0  0  0  0  0  0  0
    4.9528   -0.5355   -1.5862 H   0  0  0  0  0  0  0  0  0  0  0  0
  1  2  1  0
  2  3  1  0
  3  4  2  0
  4  5  1  0
  5  6  2  0
  6  7  1  0
  7  8  2  0
  8  9  1  0
  9 10  1  0
 10 11  2  0
 10 12  1  0
 12 13  1  0
 13 14  1  0
 14 15  1  0
 15 16  1  0
 16 17  1  0
 17 18  1  0
 18 19  1  0
 19 20  1  0
  9 21  2  0
 21 22  1  0
 22 23  2  0
 23 24  1  0
 24 25  2  0
 25 26  1  0
 26 27  2  0
  6 28  1  0
 28 29  1  0
 29 30  1  0
 28 31  2  0
 31  3  1  0
 27  7  1  0
 20 15  1  0
 26 21  1  0
  1 32  1  0
  1 33  1  0
  1 34  1  0
  4 35  1  0
  5 36  1  0
  8 37  1  0
 12 38  1  0
 13 39  1  0
 13 40  1  0
 14 41  1  0
 14 42  1  0
 16 43  1  0
 16 44  1  0
 17 45  1  0
 17 46  1  0
 19 47  1  0
 19 48  1  0
 20 49  1  0
 20 50  1  0
 22 51  1  0
 23 52  1  0
 24 53  1  0
 25 54  1  0
 30 55  1  0
 30 56  1  0
 30 57  1  0
 31 58  1  0
M  END
$$$$
