
     RDKit          3D

 47 50  0  0  0  0  0  0  0  0999 V2000
   -7.1622    0.7960    0.3809 C   0  0  0  0  0  0  0  0  0  0  0  0
   -5.6713    1.0051    0.1252 C   0  0  0  0  0  0  0  0  0  0  0  0
   -5.3129    0.6742   -1.3375 C   0  0  0  0  0  0  0  0  0  0  0  0
   -3.8403    0.9932   -1.6410 C   0  0  0  0  0  0  0  0  0  0  0  0
   -2.9120    0.4680   -0.5808 C   0  0  0  0  0  0  0  0  0  0  0  0
   -3.3973    0.1012    0.6615 C   0  0  0  0  0  0  0  0  0  0  0  0
   -2.1912   -0.5110    1.6816 S   0  0  0  0  0  0  0  0  0  0  0  0
   -0.9960   -0.3276    0.4952 C   0  0  0  0  0  0  0  0  0  0  0  0
    0.3101   -0.7303    0.7199 N   0  0  0  0  0  0  0  0  0  0  0  0
    0.8585   -1.2927    1.8571 C   0  0  0  0  0  0  0  0  0  0  0  0
    0.2817   -1.5122    2.9162 O   0  0  0  0  0  0  0  0  0  0  0  0
    2.2664   -1.6132    1.6785 C   0  0  0  0  0  0  0  0  0  0  0  0
    3.1888   -2.1793    2.5380 C   0  0  0  0  0  0  0  0  0  0  0  0
    4.4131   -2.2581    1.8318 C   0  0  0  0  0  0  0  0  0  0  0  0
    4.1747   -1.7327    0.5784 C   0  0  0  0  0  0  0  0  0  0  0  0
    5.0203   -1.5315   -0.6235 C   0  0  0  0  0  0  0  0  0  0  0  0
    5.9986   -0.4781   -0.3897 N   0  0  0  0  0  0  0  0  0  0  0  0
    5.7814    0.8717   -0.4727 C   0  0  0  0  0  0  0  0  0  0  0  0
    6.9869    1.4506   -0.1810 C   0  0  0  0  0  0  0  0  0  0  0  0
    7.4060    3.2657   -0.0901 Br  0  0  0  0  0  0  0  0  0  0  0  0
    7.8767    0.3943    0.0471 C   0  0  0  0  0  0  0  0  0  0  0  0
    7.2812   -0.7963   -0.0898 N   0  0  0  0  0  0  0  0  0  0  0  0
    2.8717   -1.3419    0.4775 O   0  0  0  0  0  0  0  0  0  0  0  0
   -1.4784    0.2568   -0.6731 C   0  0  0  0  0  0  0  0  0  0  0  0
   -0.5828    0.5451   -1.7961 C   0  0  0  0  0  0  0  0  0  0  0  0
   -0.9717    1.5263   -2.6609 N   0  0  0  0  0  0  0  0  0  0  0  0
    0.5084   -0.0004   -1.9444 O   0  0  0  0  0  0  0  0  0  0  0  0
   -4.8304    0.1544    1.1002 C   0  0  0  0  0  0  0  0  0  0  0  0
   -7.4554   -0.2432    0.1959 H   0  0  0  0  0  0  0  0  0  0  0  0
   -7.4166    1.0411    1.4172 H   0  0  0  0  0  0  0  0  0  0  0  0
   -7.7613    1.4381   -0.2724 H   0  0  0  0  0  0  0  0  0  0  0  0
   -5.4420    2.0652    0.3013 H   0  0  0  0  0  0  0  0  0  0  0  0
   -5.9508    1.2423   -2.0254 H   0  0  0  0  0  0  0  0  0  0  0  0
   -5.5045   -0.3898   -1.5306 H   0  0  0  0  0  0  0  0  0  0  0  0
   -3.5823    0.5712   -2.6186 H   0  0  0  0  0  0  0  0  0  0  0  0
   -3.7232    2.0817   -1.7019 H   0  0  0  0  0  0  0  0  0  0  0  0
    0.9427   -0.6289   -0.0748 H   0  0  0  0  0  0  0  0  0  0  0  0
    2.9863   -2.4956    3.5532 H   0  0  0  0  0  0  0  0  0  0  0  0
    5.3590   -2.6431    2.1909 H   0  0  0  0  0  0  0  0  0  0  0  0
    4.4243   -1.2333   -1.4932 H   0  0  0  0  0  0  0  0  0  0  0  0
    5.5625   -2.4482   -0.8808 H   0  0  0  0  0  0  0  0  0  0  0  0
    4.8098    1.2812   -0.7101 H   0  0  0  0  0  0  0  0  0  0  0  0
    8.9274    0.4302    0.3043 H   0  0  0  0  0  0  0  0  0  0  0  0
   -1.6477    2.2197   -2.3778 H   0  0  0  0  0  0  0  0  0  0  0  0
   -0.2741    1.8121   -3.3356 H   0  0  0  0  0  0  0  0  0  0  0  0
   -4.9097    0.5731    2.1111 H   0  0  0  0  0  0  0  0  0  0  0  0
   -5.2226   -0.8711    1.1365 H   0  0  0  0  0  0  0  0  0  0  0  0
  1  2  1  0
  2  3  1  0
  3  4  1  0
  4  5  1  0
  5  6  2  0
  6  7  1  0
  7  8  1  0
  8  9  1  0
  9 10  1  0
 10 11  2  0
 10 12  1  0
 12 13  2  0
 13 14  1  0
 14 15  2  0
 15 16  1  0
 16 17  1  0
 17 18  1  0
 18 19  2  0
 19 20  1  0
 19 21  1  0
 21 22  2  0
 15 23  1  0
  8 24  2  0
 24 25  1  0
 25 26  1  0
 25 27  2  0
  6 28  1  0
 28  2  1  0
 24  5  1  0
 23 12  1  0
 22 17  1  0
  1 29  1  0
  1 30  1  0
  1 31  1  0
  2 32  1  0
  3 33  1  0
  3 34  1  0
  4 35  1  0
  4 36  1  0
  9 37  1  0
 13 38  1  0
 14 39  1  0
 16 40  1  0
 16 41  1  0
 18 42  1  0
 21 43  1  0
 26 44  1  0
 26 45  1  0
 28 46  1  0
 28 47  1  0
M  END
$$$$
