
     RDKit          3D

 57 59  0  0  0  0  0  0  0  0999 V2000
   -4.1945    0.7420    3.0254 C   0  0  0  0  0  0  0  0  0  0  0  0
   -4.3571    1.4383    1.6836 C   0  0  0  0  0  0  0  0  0  0  0  0
   -4.3398    0.4971    0.5551 N   0  0  0  0  0  0  0  0  0  0  0  0
   -3.1827    0.2206   -0.1907 C   0  0  0  0  0  0  0  0  0  0  0  0
   -3.2400   -0.4413   -1.2284 O   0  0  0  0  0  0  0  0  0  0  0  0
   -1.8483    0.7750    0.3210 C   0  0  0  0  0  0  0  0  0  0  0  0
   -0.7587    0.1786   -0.3871 O   0  0  0  0  0  0  0  0  0  0  0  0
    0.4309    0.7744   -0.1723 C   0  0  0  0  0  0  0  0  0  0  0  0
    0.6613    1.7027    0.5831 O   0  0  0  0  0  0  0  0  0  0  0  0
    1.4806    0.0399   -0.8994 C   0  0  0  0  0  0  0  0  0  0  0  0
    2.5712   -0.4179   -0.1455 C   0  0  0  0  0  0  0  0  0  0  0  0
    3.6012   -1.1426   -0.7649 C   0  0  0  0  0  0  0  0  0  0  0  0
    4.9312   -1.7340    0.2468 S   0  0  0  0  0  6  0  0  0  0  0  0
    5.0437   -3.1591    0.0323 O   0  0  0  0  0  0  0  0  0  0  0  0
    4.7415   -1.2096    1.5850 O   0  0  0  0  0  0  0  0  0  0  0  0
    6.3040   -0.9542   -0.3889 N   0  0  0  0  0  0  0  0  0  0  0  0
    6.2875    0.5448   -0.3406 C   0  0  0  0  0  0  0  0  0  0  0  0
    7.7034    1.1000   -0.5215 C   0  0  0  0  0  0  0  0  0  0  0  0
    8.5914    0.7135    0.5351 O   0  0  0  0  0  0  0  0  0  0  0  0
    8.2760   -0.5675    1.1013 C   0  0  0  0  0  0  0  0  0  0  0  0
    7.6074   -1.5181    0.1028 C   0  0  0  0  0  0  0  0  0  0  0  0
    3.5459   -1.4049   -2.1369 C   0  0  0  0  0  0  0  0  0  0  0  0
    4.7598   -2.2697   -3.0049 Cl  0  0  0  0  0  0  0  0  0  0  0  0
    2.4628   -0.9233   -2.8869 C   0  0  0  0  0  0  0  0  0  0  0  0
    1.4343   -0.1967   -2.2765 C   0  0  0  0  0  0  0  0  0  0  0  0
    0.1879    0.4293   -3.2950 Cl  0  0  0  0  0  0  0  0  0  0  0  0
   -5.6147   -0.0054    0.0056 C   0  0  0  0  0  0  0  0  0  0  0  0
   -6.7061   -0.3494    1.0300 C   0  0  0  0  0  0  0  0  0  0  0  0
   -7.9270   -0.7224    0.1981 C   0  0  0  0  0  0  0  0  0  0  0  0
   -7.9383    0.4554   -1.1433 S   0  0  0  0  0  6  0  0  0  0  0  0
   -8.1095   -0.2589   -2.3913 O   0  0  0  0  0  0  0  0  0  0  0  0
   -8.7894    1.5651   -0.7641 O   0  0  0  0  0  0  0  0  0  0  0  0
   -6.2402    0.9769   -0.9905 C   0  0  0  0  0  0  0  0  0  0  0  0
   -5.0101    0.0396    3.2170 H   0  0  0  0  0  0  0  0  0  0  0  0
   -3.2571    0.1786    3.0749 H   0  0  0  0  0  0  0  0  0  0  0  0
   -4.1910    1.4809    3.8325 H   0  0  0  0  0  0  0  0  0  0  0  0
   -3.5520    2.1684    1.5650 H   0  0  0  0  0  0  0  0  0  0  0  0
   -5.2881    2.0140    1.6573 H   0  0  0  0  0  0  0  0  0  0  0  0
   -1.7358    0.5376    1.3834 H   0  0  0  0  0  0  0  0  0  0  0  0
   -1.8497    1.8588    0.1546 H   0  0  0  0  0  0  0  0  0  0  0  0
    2.6019   -0.2153    0.9265 H   0  0  0  0  0  0  0  0  0  0  0  0
    5.6464    0.9160   -1.1462 H   0  0  0  0  0  0  0  0  0  0  0  0
    5.8889    0.8875    0.6204 H   0  0  0  0  0  0  0  0  0  0  0  0
    8.1357    0.7595   -1.4691 H   0  0  0  0  0  0  0  0  0  0  0  0
    7.6803    2.1940   -0.5463 H   0  0  0  0  0  0  0  0  0  0  0  0
    9.2118   -1.0016    1.4668 H   0  0  0  0  0  0  0  0  0  0  0  0
    7.6305   -0.4014    1.9714 H   0  0  0  0  0  0  0  0  0  0  0  0
    7.4716   -2.5022    0.5625 H   0  0  0  0  0  0  0  0  0  0  0  0
    8.2480   -1.6587   -0.7762 H   0  0  0  0  0  0  0  0  0  0  0  0
    2.4223   -1.1122   -3.9606 H   0  0  0  0  0  0  0  0  0  0  0  0
   -5.4008   -0.9364   -0.5387 H   0  0  0  0  0  0  0  0  0  0  0  0
   -6.9485    0.5134    1.6621 H   0  0  0  0  0  0  0  0  0  0  0  0
   -6.4079   -1.1742    1.6855 H   0  0  0  0  0  0  0  0  0  0  0  0
   -7.8227   -1.7241   -0.2322 H   0  0  0  0  0  0  0  0  0  0  0  0
   -8.8588   -0.6518    0.7616 H   0  0  0  0  0  0  0  0  0  0  0  0
   -5.7558    0.9462   -1.9711 H   0  0  0  0  0  0  0  0  0  0  0  0
   -6.2353    2.0050   -0.6120 H   0  0  0  0  0  0  0  0  0  0  0  0
  1  2  1  0
  2  3  1  0
  3  4  1  0
  4  5  2  0
  4  6  1  0
  6  7  1  0
  7  8  1  0
  8  9  2  0
  8 10  1  0
 10 11  2  0
 11 12  1  0
 12 13  1  0
 13 14  2  0
 13 15  2  0
 13 16  1  0
 16 17  1  0
 17 18  1  0
 18 19  1  0
 19 20  1  0
 20 21  1  0
 12 22  2  0
 22 23  1  0
 22 24  1  0
 24 25  2  0
 25 26  1  0
  3 27  1  0
 27 28  1  0
 28 29  1  0
 29 30  1  0
 30 31  2  0
 30 32  2  0
 30 33  1  0
 25 10  1  0
 33 27  1  0
 21 16  1  0
  1 34  1  0
  1 35  1  0
  1 36  1  0
  2 37  1  0
  2 38  1  0
  6 39  1  0
  6 40  1  0
 11 41  1  0
 17 42  1  0
 17 43  1  0
 18 44  1  0
 18 45  1  0
 20 46  1  0
 20 47  1  0
 21 48  1  0
 21 49  1  0
 24 50  1  0
 27 51  1  0
 28 52  1  0
 28 53  1  0
 29 54  1  0
 29 55  1  0
 33 56  1  0
 33 57  1  0
M  END
$$$$
