
     RDKit          3D

 40 42  0  0  0  0  0  0  0  0999 V2000
   -5.5227    1.4365    1.4541 C   0  0  0  0  0  0  0  0  0  0  0  0
   -4.4289    0.8973    0.5348 C   0  0  0  0  0  0  0  0  0  0  0  0
   -3.0327    1.1496    1.1379 C   0  0  0  0  0  0  0  0  0  0  0  0
   -1.9089    0.7092    0.1856 C   0  0  0  0  0  0  0  0  0  0  0  0
   -2.1722   -0.6412   -0.4244 C   0  0  0  0  0  0  0  0  0  0  0  0
   -1.2431   -1.4712   -1.1605 C   0  0  0  0  0  0  0  0  0  0  0  0
    0.1840   -1.2408   -1.4128 C   0  0  0  0  0  0  0  0  0  0  0  0
    0.6583   -1.4017   -2.5301 O   0  0  0  0  0  0  0  0  0  0  0  0
    0.8810   -0.9076   -0.2685 N   0  0  0  0  0  0  0  0  0  0  0  0
    2.2476   -0.5899   -0.1518 C   0  0  0  0  0  0  0  0  0  0  0  0
    3.1184   -0.4687   -1.2346 C   0  0  0  0  0  0  0  0  0  0  0  0
    4.4685   -0.1418   -1.0377 C   0  0  0  0  0  0  0  0  0  0  0  0
    4.9634    0.0699    0.2477 C   0  0  0  0  0  0  0  0  0  0  0  0
    6.2461    0.3903    0.5848 O   0  0  0  0  0  0  0  0  0  0  0  0
    7.1885    0.5357   -0.4638 C   0  0  0  0  0  0  0  0  0  0  0  0
    8.3867    0.8547    0.0745 F   0  0  0  0  0  0  0  0  0  0  0  0
    6.8312    1.5279   -1.3066 F   0  0  0  0  0  0  0  0  0  0  0  0
    7.3330   -0.6152   -1.1540 F   0  0  0  0  0  0  0  0  0  0  0  0
    4.0918   -0.0484    1.3321 C   0  0  0  0  0  0  0  0  0  0  0  0
    2.7458   -0.3730    1.1363 C   0  0  0  0  0  0  0  0  0  0  0  0
   -1.8867   -2.5780   -1.6887 C   0  0  0  0  0  0  0  0  0  0  0  0
   -3.5319   -2.6703   -1.2478 S   0  0  0  0  0  0  0  0  0  0  0  0
   -3.4401   -1.1969   -0.4074 C   0  0  0  0  0  0  0  0  0  0  0  0
   -4.6426   -0.6069    0.2663 C   0  0  0  0  0  0  0  0  0  0  0  0
   -5.4023    2.5137    1.6090 H   0  0  0  0  0  0  0  0  0  0  0  0
   -6.5133    1.2689    1.0185 H   0  0  0  0  0  0  0  0  0  0  0  0
   -5.4956    0.9484    2.4342 H   0  0  0  0  0  0  0  0  0  0  0  0
   -4.4915    1.4371   -0.4203 H   0  0  0  0  0  0  0  0  0  0  0  0
   -2.9047    2.2128    1.3737 H   0  0  0  0  0  0  0  0  0  0  0  0
   -2.9409    0.6011    2.0849 H   0  0  0  0  0  0  0  0  0  0  0  0
   -1.8189    1.4405   -0.6277 H   0  0  0  0  0  0  0  0  0  0  0  0
   -0.9656    0.7208    0.7382 H   0  0  0  0  0  0  0  0  0  0  0  0
    0.3595   -0.9698    0.5957 H   0  0  0  0  0  0  0  0  0  0  0  0
    2.7819   -0.6200   -2.2565 H   0  0  0  0  0  0  0  0  0  0  0  0
    5.0949   -0.0653   -1.9223 H   0  0  0  0  0  0  0  0  0  0  0  0
    4.4602    0.1128    2.3429 H   0  0  0  0  0  0  0  0  0  0  0  0
    2.1007   -0.4552    2.0072 H   0  0  0  0  0  0  0  0  0  0  0  0
   -1.4513   -3.3526   -2.3069 H   0  0  0  0  0  0  0  0  0  0  0  0
   -4.8069   -1.1383    1.2125 H   0  0  0  0  0  0  0  0  0  0  0  0
   -5.5407   -0.7429   -0.3483 H   0  0  0  0  0  0  0  0  0  0  0  0
  1  2  1  0
  2  3  1  0
  3  4  1  0
  4  5  1  0
  5  6  1  0
  6  7  1  0
  7  8  2  0
  7  9  1  0
  9 10  1  0
 10 11  2  0
 11 12  1  0
 12 13  2  0
 13 14  1  0
 14 15  1  0
 15 16  1  0
 15 17  1  0
 15 18  1  0
 13 19  1  0
 19 20  2  0
  6 21  2  0
 21 22  1  0
 22 23  1  0
 23 24  1  0
 24  2  1  0
 23  5  2  0
 20 10  1  0
  1 25  1  0
  1 26  1  0
  1 27  1  0
  2 28  1  0
  3 29  1  0
  3 30  1  0
  4 31  1  0
  4 32  1  0
  9 33  1  0
 11 34  1  0
 12 35  1  0
 19 36  1  0
 20 37  1  0
 21 38  1  0
 24 39  1  0
 24 40  1  0
M  END
$$$$
