
     RDKit          3D

 53 56  0  0  0  0  0  0  0  0999 V2000
   -7.0158    2.3418    3.1088 C   0  0  0  0  0  0  0  0  0  0  0  0
   -5.8280    1.8212    2.3564 C   0  0  0  0  0  0  0  0  0  0  0  0
   -4.8699    1.0342    3.0010 C   0  0  0  0  0  0  0  0  0  0  0  0
   -3.7779    0.5251    2.2911 C   0  0  0  0  0  0  0  0  0  0  0  0
   -3.6184    0.8005    0.9280 C   0  0  0  0  0  0  0  0  0  0  0  0
   -2.5064    0.2215    0.2782 N   0  0  0  0  0  0  0  0  0  0  0  0
   -1.8422    0.5738   -0.8909 C   0  0  0  0  0  0  0  0  0  0  0  0
   -1.8482    2.1249   -1.5460 S   0  0  0  0  0  0  0  0  0  0  0  0
   -1.0882   -0.5009   -1.4234 N   0  0  0  0  0  0  0  0  0  0  0  0
   -1.3738   -1.9058   -1.0729 C   0  0  0  0  0  0  0  0  0  0  0  0
   -0.3181   -2.4584   -0.1610 C   0  0  0  0  0  0  0  0  0  0  0  0
    0.8083   -3.1839   -0.5018 C   0  0  0  0  0  0  0  0  0  0  0  0
    1.5923   -3.5399    0.6328 C   0  0  0  0  0  0  0  0  0  0  0  0
    1.0316   -3.0911    1.8064 C   0  0  0  0  0  0  0  0  0  0  0  0
   -0.4291   -2.2457    1.5379 S   0  0  0  0  0  0  0  0  0  0  0  0
   -0.0732   -0.3123   -2.4876 C   0  0  0  0  0  0  0  0  0  0  0  0
    1.3084   -0.0485   -1.9425 C   0  0  0  0  0  0  0  0  0  0  0  0
    1.6184    0.4100   -0.7164 C   0  0  0  0  0  0  0  0  0  0  0  0
    3.0068    0.5925   -0.2947 C   0  0  0  0  0  0  0  0  0  0  0  0
    3.3105    1.0609    0.9856 C   0  0  0  0  0  0  0  0  0  0  0  0
    4.6402    1.2240    1.3696 C   0  0  0  0  0  0  0  0  0  0  0  0
    5.6700    0.9197    0.4774 C   0  0  0  0  0  0  0  0  0  0  0  0
    5.3871    0.4475   -0.8137 C   0  0  0  0  0  0  0  0  0  0  0  0
    6.5208    0.1303   -1.7467 C   0  0  0  0  0  0  0  0  0  0  0  0
    4.0429    0.2889   -1.1896 C   0  0  0  0  0  0  0  0  0  0  0  0
    3.6998   -0.1794   -2.4659 N   0  0  0  0  0  0  0  0  0  0  0  0
    2.4152   -0.3664   -2.8967 C   0  0  0  0  0  0  0  0  0  0  0  0
    2.1873   -0.7931   -4.0259 O   0  0  0  0  0  0  0  0  0  0  0  0
   -4.5976    1.5505    0.2770 C   0  0  0  0  0  0  0  0  0  0  0  0
   -5.6924    2.0596    0.9856 C   0  0  0  0  0  0  0  0  0  0  0  0
   -7.4057    3.2537    2.6440 H   0  0  0  0  0  0  0  0  0  0  0  0
   -7.8088    1.5877    3.1253 H   0  0  0  0  0  0  0  0  0  0  0  0
   -6.7426    2.5941    4.1390 H   0  0  0  0  0  0  0  0  0  0  0  0
   -4.9654    0.8117    4.0614 H   0  0  0  0  0  0  0  0  0  0  0  0
   -3.0488   -0.0785    2.8257 H   0  0  0  0  0  0  0  0  0  0  0  0
   -1.9740   -0.4195    0.8551 H   0  0  0  0  0  0  0  0  0  0  0  0
   -1.4198   -2.4915   -1.9988 H   0  0  0  0  0  0  0  0  0  0  0  0
   -2.3671   -2.0049   -0.6215 H   0  0  0  0  0  0  0  0  0  0  0  0
    1.0687   -3.4369   -1.5233 H   0  0  0  0  0  0  0  0  0  0  0  0
    2.5198   -4.0984    0.5889 H   0  0  0  0  0  0  0  0  0  0  0  0
    1.4104   -3.2211    2.8109 H   0  0  0  0  0  0  0  0  0  0  0  0
   -0.0774   -1.2192   -3.1038 H   0  0  0  0  0  0  0  0  0  0  0  0
   -0.3574    0.5034   -3.1578 H   0  0  0  0  0  0  0  0  0  0  0  0
    0.8484    0.6529    0.0064 H   0  0  0  0  0  0  0  0  0  0  0  0
    2.5187    1.3050    1.6891 H   0  0  0  0  0  0  0  0  0  0  0  0
    4.8758    1.5909    2.3657 H   0  0  0  0  0  0  0  0  0  0  0  0
    6.7003    1.0561    0.7999 H   0  0  0  0  0  0  0  0  0  0  0  0
    7.4931    0.3047   -1.2739 H   0  0  0  0  0  0  0  0  0  0  0  0
    6.4680    0.7639   -2.6379 H   0  0  0  0  0  0  0  0  0  0  0  0
    6.4839   -0.9226   -2.0435 H   0  0  0  0  0  0  0  0  0  0  0  0
    4.4178   -0.4032   -3.1392 H   0  0  0  0  0  0  0  0  0  0  0  0
   -4.5570    1.7299   -0.7923 H   0  0  0  0  0  0  0  0  0  0  0  0
   -6.4413    2.6404    0.4514 H   0  0  0  0  0  0  0  0  0  0  0  0
  1  2  1  0
  2  3  2  0
  3  4  1  0
  4  5  2  0
  5  6  1  0
  6  7  1  0
  7  8  2  0
  7  9  1  0
  9 10  1  0
 10 11  1  0
 11 12  2  0
 12 13  1  0
 13 14  2  0
 14 15  1  0
  9 16  1  0
 16 17  1  0
 17 18  2  0
 18 19  1  0
 19 20  2  0
 20 21  1  0
 21 22  2  0
 22 23  1  0
 23 24  1  0
 23 25  2  0
 25 26  1  0
 26 27  1  0
 27 28  2  0
  5 29  1  0
 29 30  2  0
 30  2  1  0
 15 11  1  0
 27 17  1  0
 25 19  1  0
  1 31  1  0
  1 32  1  0
  1 33  1  0
  3 34  1  0
  4 35  1  0
  6 36  1  0
 10 37  1  0
 10 38  1  0
 12 39  1  0
 13 40  1  0
 14 41  1  0
 16 42  1  0
 16 43  1  0
 18 44  1  0
 20 45  1  0
 21 46  1  0
 22 47  1  0
 24 48  1  0
 24 49  1  0
 24 50  1  0
 26 51  1  0
 29 52  1  0
 30 53  1  0
M  END
$$$$
