
     RDKit          3D

 90 91  0  0  0  0  0  0  0  0999 V2000
    5.2338   -1.2690   -1.7583 C   0  0  0  0  0  0  0  0  0  0  0  0
    3.8173   -0.9328   -1.4105 C   0  0  0  0  0  0  0  0  0  0  0  0
    2.8603   -1.1286   -2.1481 O   0  0  0  0  0  0  0  0  0  0  0  0
    3.7619   -0.3648   -0.1781 O   0  0  0  0  0  0  0  0  0  0  0  0
    2.4508    0.0215    0.3228 C   0  0  1  0  0  0  0  0  0  0  0  0
    1.8717   -1.0997    1.2270 C   0  0  2  0  0  0  0  0  0  0  0  0
    1.7310   -2.3381    0.4961 O   0  0  0  0  0  0  0  0  0  0  0  0
    2.7386   -3.2433    0.6038 C   0  0  0  0  0  0  0  0  0  0  0  0
    2.3886   -4.4976   -0.1359 C   0  0  0  0  0  0  0  0  0  0  0  0
    3.7805   -3.0835    1.2235 O   0  0  0  0  0  0  0  0  0  0  0  0
    0.4857   -0.8157    1.8072 C   0  0  0  0  0  0  0  0  0  0  0  0
    0.4515   -0.8678    3.3217 C   0  0  0  0  0  0  0  0  0  0  0  0
   -0.6766   -0.6172    1.1421 C   0  0  0  0  0  0  0  0  0  0  0  0
   -0.9824   -0.6447   -0.3434 C   0  0  1  0  0  0  0  0  0  0  0  0
   -1.2178   -2.0858   -0.8784 C   0  0  1  0  0  0  0  0  0  0  0  0
   -2.0639   -2.8151    0.0316 O   0  0  0  0  0  0  0  0  0  0  0  0
   -1.7721   -4.1323    0.2105 C   0  0  0  0  0  0  0  0  0  0  0  0
   -2.6797   -4.7127    1.2521 C   0  0  0  0  0  0  0  0  0  0  0  0
   -0.9223   -4.7690   -0.3932 O   0  0  0  0  0  0  0  0  0  0  0  0
   -1.8869   -1.8878   -2.2583 C   0  0  1  0  0  0  0  0  0  0  0  0
   -3.0626   -2.8110   -2.5603 C   0  0  0  0  0  0  0  0  0  0  0  0
   -2.2864   -0.3966   -2.3249 C   0  0  0  0  0  0  0  0  0  0  0  0
   -2.2412    0.1286   -0.8649 C   0  0  1  0  0  0  0  0  0  0  0  0
   -3.4858   -0.4446   -0.3086 O   0  0  0  0  0  0  0  0  0  0  0  0
   -3.9948   -0.1174    0.9016 C   0  0  0  0  0  0  0  0  0  0  0  0
   -5.2375   -0.9160    1.1571 C   0  0  0  0  0  0  0  0  0  0  0  0
   -3.5323    0.6946    1.6870 O   0  0  0  0  0  0  0  0  0  0  0  0
   -2.2684    1.7013   -0.8023 C   0  0  2  0  0  0  0  0  0  0  0  0
   -3.6116    2.0741   -1.2589 O   0  0  0  0  0  0  0  0  0  0  0  0
   -4.2866    3.0200   -0.5513 C   0  0  0  0  0  0  0  0  0  0  0  0
   -5.6584    3.1961   -1.1270 C   0  0  0  0  0  0  0  0  0  0  0  0
   -3.8522    3.6568    0.3963 O   0  0  0  0  0  0  0  0  0  0  0  0
   -1.2475    2.4851   -1.6976 C   0  0  1  0  0  0  0  0  0  0  0  0
   -1.5563    3.9917   -1.7866 C   0  0  0  0  0  0  0  0  0  0  0  0
    0.2219    2.3588   -1.3647 C   0  0  0  0  0  0  0  0  0  0  0  0
    0.7669    2.5963   -0.1594 C   0  0  0  0  0  0  0  0  0  0  0  0
    2.2589    2.6219    0.1951 C   0  0  0  0  0  0  0  0  0  0  0  0
    2.4932    3.9108    1.0228 C   0  0  0  0  0  0  0  0  0  0  0  0
    3.1896    2.7124   -1.0333 C   0  0  0  0  0  0  0  0  0  0  0  0
    2.5933    1.3751    1.0827 C   0  0  2  0  0  0  0  0  0  0  0  0
    3.9539    1.5024    1.5779 O   0  0  0  0  0  0  0  0  0  0  0  0
    4.1569    1.3375    2.9113 C   0  0  0  0  0  0  0  0  0  0  0  0
    5.6119    1.4635    3.2449 C   0  0  0  0  0  0  0  0  0  0  0  0
    3.2812    1.1338    3.7426 O   0  0  0  0  0  0  0  0  0  0  0  0
    5.6679   -1.9063   -0.9835 H   0  0  0  0  0  0  0  0  0  0  0  0
    5.2545   -1.8207   -2.7026 H   0  0  0  0  0  0  0  0  0  0  0  0
    5.8116   -0.3487   -1.8734 H   0  0  0  0  0  0  0  0  0  0  0  0
    1.7886    0.1509   -0.5305 H   0  0  0  0  0  0  0  0  0  0  0  0
    2.5722   -1.2542    2.0579 H   0  0  0  0  0  0  0  0  0  0  0  0
    1.9433   -4.2549   -1.1057 H   0  0  0  0  0  0  0  0  0  0  0  0
    3.2983   -5.0778   -0.3176 H   0  0  0  0  0  0  0  0  0  0  0  0
    1.6972   -5.0935    0.4646 H   0  0  0  0  0  0  0  0  0  0  0  0
   -0.5643   -0.8010    3.7210 H   0  0  0  0  0  0  0  0  0  0  0  0
    1.0298   -0.0423    3.7456 H   0  0  0  0  0  0  0  0  0  0  0  0
    0.8811   -1.8117    3.6768 H   0  0  0  0  0  0  0  0  0  0  0  0
   -1.5527   -0.4920    1.7719 H   0  0  0  0  0  0  0  0  0  0  0  0
   -0.1259   -0.2493   -0.8897 H   0  0  0  0  0  0  0  0  0  0  0  0
   -0.2539   -2.5895   -1.0059 H   0  0  0  0  0  0  0  0  0  0  0  0
   -2.6267   -4.1132    2.1647 H   0  0  0  0  0  0  0  0  0  0  0  0
   -2.3514   -5.7278    1.4927 H   0  0  0  0  0  0  0  0  0  0  0  0
   -3.7042   -4.7474    0.8746 H   0  0  0  0  0  0  0  0  0  0  0  0
   -1.1279   -2.0531   -3.0361 H   0  0  0  0  0  0  0  0  0  0  0  0
   -2.7476   -3.8595   -2.5448 H   0  0  0  0  0  0  0  0  0  0  0  0
   -3.4645   -2.6028   -3.5587 H   0  0  0  0  0  0  0  0  0  0  0  0
   -3.8831   -2.6813   -1.8473 H   0  0  0  0  0  0  0  0  0  0  0  0
   -3.2712   -0.2570   -2.7860 H   0  0  0  0  0  0  0  0  0  0  0  0
   -1.5476    0.1040   -2.9585 H   0  0  0  0  0  0  0  0  0  0  0  0
   -4.9919   -1.9817    1.1896 H   0  0  0  0  0  0  0  0  0  0  0  0
   -5.9770   -0.7144    0.3774 H   0  0  0  0  0  0  0  0  0  0  0  0
   -5.6626   -0.6252    2.1216 H   0  0  0  0  0  0  0  0  0  0  0  0
   -2.1363    2.0116    0.2385 H   0  0  0  0  0  0  0  0  0  0  0  0
   -6.2010    3.9452   -0.5455 H   0  0  0  0  0  0  0  0  0  0  0  0
   -5.5863    3.5422   -2.1602 H   0  0  0  0  0  0  0  0  0  0  0  0
   -6.2044    2.2509   -1.0721 H   0  0  0  0  0  0  0  0  0  0  0  0
   -1.3708    2.1351   -2.7282 H   0  0  0  0  0  0  0  0  0  0  0  0
   -1.5690    4.4612   -0.7973 H   0  0  0  0  0  0  0  0  0  0  0  0
   -2.5196    4.1727   -2.2723 H   0  0  0  0  0  0  0  0  0  0  0  0
   -0.8043    4.5139   -2.3902 H   0  0  0  0  0  0  0  0  0  0  0  0
    0.8634    2.1383   -2.2179 H   0  0  0  0  0  0  0  0  0  0  0  0
    0.0950    2.8308    0.6709 H   0  0  0  0  0  0  0  0  0  0  0  0
    2.1730    4.8020    0.4698 H   0  0  0  0  0  0  0  0  0  0  0  0
    1.9318    3.8863    1.9647 H   0  0  0  0  0  0  0  0  0  0  0  0
    3.5519    4.0451    1.2745 H   0  0  0  0  0  0  0  0  0  0  0  0
    2.9605    3.5986   -1.6370 H   0  0  0  0  0  0  0  0  0  0  0  0
    3.1001    1.8439   -1.6915 H   0  0  0  0  0  0  0  0  0  0  0  0
    4.2401    2.7878   -0.7321 H   0  0  0  0  0  0  0  0  0  0  0  0
    1.8857    1.4086    1.9198 H   0  0  0  0  0  0  0  0  0  0  0  0
    5.9450    0.5631    3.7667 H   0  0  0  0  0  0  0  0  0  0  0  0
    5.7661    2.3461    3.8702 H   0  0  0  0  0  0  0  0  0  0  0  0
    6.2108    1.5754    2.3370 H   0  0  0  0  0  0  0  0  0  0  0  0
  1  2  1  0
  2  3  2  0
  2  4  1  0
  4  5  1  0
  5  6  1  0
  6  7  1  0
  7  8  1  0
  8  9  1  0
  8 10  2  0
  6 11  1  0
 11 12  1  0
 11 13  2  0
 13 14  1  0
 14 15  1  0
 15 16  1  0
 16 17  1  0
 17 18  1  0
 17 19  2  0
 15 20  1  0
 20 21  1  0
 20 22  1  0
 22 23  1  0
 23 24  1  1
 24 25  1  0
 25 26  1  0
 25 27  2  0
 23 28  1  0
 28 29  1  0
 29 30  1  0
 30 31  1  0
 30 32  2  0
 28 33  1  0
 33 34  1  0
 33 35  1  0
 35 36  2  0
 36 37  1  0
 37 38  1  0
 37 39  1  0
 37 40  1  0
 40 41  1  0
 41 42  1  0
 42 43  1  0
 42 44  2  0
 40  5  1  0
 23 14  1  0
  1 45  1  0
  1 46  1  0
  1 47  1  0
  5 48  1  6
  6 49  1  1
  9 50  1  0
  9 51  1  0
  9 52  1  0
 12 53  1  0
 12 54  1  0
 12 55  1  0
 13 56  1  0
 14 57  1  6
 15 58  1  6
 18 59  1  0
 18 60  1  0
 18 61  1  0
 20 62  1  6
 21 63  1  0
 21 64  1  0
 21 65  1  0
 22 66  1  0
 22 67  1  0
 26 68  1  0
 26 69  1  0
 26 70  1  0
 28 71  1  1
 31 72  1  0
 31 73  1  0
 31 74  1  0
 33 75  1  6
 34 76  1  0
 34 77  1  0
 34 78  1  0
 35 79  1  0
 36 80  1  0
 38 81  1  0
 38 82  1  0
 38 83  1  0
 39 84  1  0
 39 85  1  0
 39 86  1  0
 40 87  1  1
 43 88  1  0
 43 89  1  0
 43 90  1  0
M  END
$$$$
