
     RDKit          3D

 39 40  0  0  0  0  0  0  0  0999 V2000
   -6.3591   -1.3051   -0.8288 C   0  0  0  0  0  0  0  0  0  0  0  0
   -5.4682   -0.2264   -1.0741 O   0  0  0  0  0  0  0  0  0  0  0  0
   -4.3172   -0.1689   -0.3277 C   0  0  0  0  0  0  0  0  0  0  0  0
   -3.9556   -1.1111    0.6397 C   0  0  0  0  0  0  0  0  0  0  0  0
   -2.7599   -0.9699    1.3477 C   0  0  0  0  0  0  0  0  0  0  0  0
   -1.9102    0.1098    1.0920 C   0  0  0  0  0  0  0  0  0  0  0  0
   -0.6285    0.2284    1.8568 C   0  0  0  0  0  0  0  0  0  0  0  0
   -0.5227   -0.3955    2.9909 N   0  0  0  0  0  0  0  0  0  0  0  0
    0.4037    0.9886    1.3464 N   0  0  0  0  0  0  0  0  0  0  0  0
    1.6643    0.5989    1.8592 O   0  0  0  0  0  0  0  0  0  0  0  0
    2.5552    0.2990    0.8564 C   0  0  0  0  0  0  0  0  0  0  0  0
    2.2855    0.4007   -0.3358 O   0  0  0  0  0  0  0  0  0  0  0  0
    3.7433   -0.1075    1.4314 O   0  0  0  0  0  0  0  0  0  0  0  0
    4.7074   -0.4455    0.4831 C   0  0  0  0  0  0  0  0  0  0  0  0
    5.6550    0.5073    0.1132 C   0  0  0  0  0  0  0  0  0  0  0  0
    6.6469    0.1585   -0.8022 C   0  0  0  0  0  0  0  0  0  0  0  0
    6.6912   -1.1359   -1.3256 C   0  0  0  0  0  0  0  0  0  0  0  0
    5.7478   -2.0877   -0.9311 C   0  0  0  0  0  0  0  0  0  0  0  0
    4.7531   -1.7464   -0.0159 C   0  0  0  0  0  0  0  0  0  0  0  0
   -2.2718    1.0659    0.1340 C   0  0  0  0  0  0  0  0  0  0  0  0
   -3.4700    0.9312   -0.5795 C   0  0  0  0  0  0  0  0  0  0  0  0
   -3.9043    1.8147   -1.5377 O   0  0  0  0  0  0  0  0  0  0  0  0
   -3.1097    2.9629   -1.7950 C   0  0  0  0  0  0  0  0  0  0  0  0
   -5.8879   -2.2665   -1.0582 H   0  0  0  0  0  0  0  0  0  0  0  0
   -7.2174   -1.1885   -1.4976 H   0  0  0  0  0  0  0  0  0  0  0  0
   -6.7342   -1.2823    0.1996 H   0  0  0  0  0  0  0  0  0  0  0  0
   -4.5803   -1.9674    0.8703 H   0  0  0  0  0  0  0  0  0  0  0  0
   -2.4926   -1.7094    2.1003 H   0  0  0  0  0  0  0  0  0  0  0  0
    0.4051   -0.1752    3.3705 H   0  0  0  0  0  0  0  0  0  0  0  0
    0.4219    1.0631    0.3243 H   0  0  0  0  0  0  0  0  0  0  0  0
    5.6250    1.5097    0.5290 H   0  0  0  0  0  0  0  0  0  0  0  0
    7.3885    0.8925   -1.1072 H   0  0  0  0  0  0  0  0  0  0  0  0
    7.4659   -1.4052   -2.0397 H   0  0  0  0  0  0  0  0  0  0  0  0
    5.7915   -3.0955   -1.3364 H   0  0  0  0  0  0  0  0  0  0  0  0
    4.0251   -2.4879    0.2988 H   0  0  0  0  0  0  0  0  0  0  0  0
   -1.6280    1.9211   -0.0299 H   0  0  0  0  0  0  0  0  0  0  0  0
   -3.6132    3.5523   -2.5674 H   0  0  0  0  0  0  0  0  0  0  0  0
   -2.1243    2.6822   -2.1811 H   0  0  0  0  0  0  0  0  0  0  0  0
   -3.0217    3.5909   -0.9024 H   0  0  0  0  0  0  0  0  0  0  0  0
  1  2  1  0
  2  3  1  0
  3  4  2  0
  4  5  1  0
  5  6  2  0
  6  7  1  0
  7  8  2  3
  7  9  1  0
  9 10  1  0
 10 11  1  0
 11 12  2  0
 11 13  1  0
 13 14  1  0
 14 15  2  0
 15 16  1  0
 16 17  2  0
 17 18  1  0
 18 19  2  0
  6 20  1  0
 20 21  2  0
 21 22  1  0
 22 23  1  0
 21  3  1  0
 19 14  1  0
  1 24  1  0
  1 25  1  0
  1 26  1  0
  4 27  1  0
  5 28  1  0
  8 29  1  0
  9 30  1  0
 15 31  1  0
 16 32  1  0
 17 33  1  0
 18 34  1  0
 19 35  1  0
 20 36  1  0
 23 37  1  0
 23 38  1  0
 23 39  1  0
M  END
$$$$
