
     RDKit          3D

 61 64  0  0  0  0  0  0  0  0999 V2000
    7.9968   -0.4895   -0.7601 C   0  0  0  0  0  0  0  0  0  0  0  0
    6.5474   -0.8921   -0.6871 C   0  0  0  0  0  0  0  0  0  0  0  0
    6.1624   -2.1217   -1.2415 C   0  0  0  0  0  0  0  0  0  0  0  0
    4.8347   -2.5312   -1.2033 C   0  0  0  0  0  0  0  0  0  0  0  0
    3.8748   -1.7174   -0.6066 C   0  0  0  0  0  0  0  0  0  0  0  0
    4.2170   -0.4735   -0.0504 C   0  0  0  0  0  0  0  0  0  0  0  0
    3.2543    0.3293    0.5893 N   0  0  0  0  0  0  0  0  0  0  0  0
    1.9902    0.5635   -0.1389 C   0  0  0  0  0  0  0  0  0  0  0  0
    0.7739   -0.0944    0.5388 C   0  0  0  0  0  0  0  0  0  0  0  0
    0.6430    0.2666    1.9603 N   0  0  0  0  0  0  0  0  0  0  0  0
   -0.5597    0.4639    2.6258 C   0  0  0  0  0  0  0  0  0  0  0  0
   -0.6448    1.0113    3.7216 O   0  0  0  0  0  0  0  0  0  0  0  0
   -1.8125   -0.0049    1.9923 C   0  0  0  0  0  0  0  0  0  0  0  0
   -1.9633   -1.3401    1.6011 C   0  0  0  0  0  0  0  0  0  0  0  0
   -3.1564   -1.7561    1.0063 C   0  0  0  0  0  0  0  0  0  0  0  0
   -4.1993   -0.8446    0.8261 C   0  0  0  0  0  0  0  0  0  0  0  0
   -5.3900   -1.2484    0.1479 N   0  0  0  0  0  0  0  0  0  0  0  0
   -5.3774   -1.0516   -1.5404 S   0  0  0  0  0  6  0  0  0  0  0  0
   -4.1088   -1.5178   -2.0555 O   0  0  0  0  0  0  0  0  0  0  0  0
   -6.6288   -1.5875   -2.0276 O   0  0  0  0  0  0  0  0  0  0  0  0
   -5.4507    0.6101   -1.9037 C   0  0  0  0  0  0  0  0  0  0  0  0
   -6.5228    1.4836   -1.6192 C   0  0  0  0  0  0  0  0  0  0  0  0
   -7.8259    1.1898   -0.9770 C   0  0  0  0  0  0  0  0  0  0  0  0
   -6.2285    2.7351   -1.9987 N   0  0  0  0  0  0  0  0  0  0  0  0
   -4.9601    2.6772   -2.5495 O   0  0  0  0  0  0  0  0  0  0  0  0
   -4.4926    1.3994   -2.4902 C   0  0  0  0  0  0  0  0  0  0  0  0
   -3.1385    1.1739   -3.0287 C   0  0  0  0  0  0  0  0  0  0  0  0
   -4.0559    0.4830    1.2345 C   0  0  0  0  0  0  0  0  0  0  0  0
   -2.8644    0.9017    1.8298 C   0  0  0  0  0  0  0  0  0  0  0  0
    1.8811    0.6642    2.6396 C   0  0  0  0  0  0  0  0  0  0  0  0
    3.1237   -0.0018    2.0275 C   0  0  0  0  0  0  0  0  0  0  0  0
    5.5673   -0.0481   -0.1088 C   0  0  0  0  0  0  0  0  0  0  0  0
    5.9719    1.2870    0.4708 C   0  0  0  0  0  0  0  0  0  0  0  0
    8.3483   -0.1238    0.2100 H   0  0  0  0  0  0  0  0  0  0  0  0
    8.1325    0.2899   -1.5167 H   0  0  0  0  0  0  0  0  0  0  0  0
    8.6341   -1.3383   -1.0304 H   0  0  0  0  0  0  0  0  0  0  0  0
    6.9005   -2.7721   -1.7053 H   0  0  0  0  0  0  0  0  0  0  0  0
    4.5480   -3.4889   -1.6294 H   0  0  0  0  0  0  0  0  0  0  0  0
    2.8526   -2.0775   -0.5631 H   0  0  0  0  0  0  0  0  0  0  0  0
    1.8297    1.6492   -0.1558 H   0  0  0  0  0  0  0  0  0  0  0  0
    2.0509    0.2509   -1.1891 H   0  0  0  0  0  0  0  0  0  0  0  0
    0.8718   -1.1849    0.5015 H   0  0  0  0  0  0  0  0  0  0  0  0
   -0.1328    0.1850   -0.0060 H   0  0  0  0  0  0  0  0  0  0  0  0
   -1.1601   -2.0546    1.7606 H   0  0  0  0  0  0  0  0  0  0  0  0
   -3.2545   -2.7869    0.6759 H   0  0  0  0  0  0  0  0  0  0  0  0
   -5.6687   -2.2111    0.3481 H   0  0  0  0  0  0  0  0  0  0  0  0
   -8.4426    2.0926   -0.8885 H   0  0  0  0  0  0  0  0  0  0  0  0
   -8.3920    0.4568   -1.5630 H   0  0  0  0  0  0  0  0  0  0  0  0
   -7.6727    0.7880    0.0308 H   0  0  0  0  0  0  0  0  0  0  0  0
   -2.7023    2.1042   -3.4116 H   0  0  0  0  0  0  0  0  0  0  0  0
   -3.1669    0.4519   -3.8520 H   0  0  0  0  0  0  0  0  0  0  0  0
   -2.4719    0.7899   -2.2480 H   0  0  0  0  0  0  0  0  0  0  0  0
   -4.8634    1.1974    1.1040 H   0  0  0  0  0  0  0  0  0  0  0  0
   -2.7536    1.9318    2.1633 H   0  0  0  0  0  0  0  0  0  0  0  0
    1.9564    1.7556    2.5591 H   0  0  0  0  0  0  0  0  0  0  0  0
    1.8058    0.4142    3.7035 H   0  0  0  0  0  0  0  0  0  0  0  0
    3.0418   -1.0885    2.1644 H   0  0  0  0  0  0  0  0  0  0  0  0
    4.0150    0.3387    2.5670 H   0  0  0  0  0  0  0  0  0  0  0  0
    6.7052    1.7874   -0.1710 H   0  0  0  0  0  0  0  0  0  0  0  0
    5.1283    1.9790    0.5522 H   0  0  0  0  0  0  0  0  0  0  0  0
    6.4025    1.1450    1.4673 H   0  0  0  0  0  0  0  0  0  0  0  0
  1  2  1  0
  2  3  2  0
  3  4  1  0
  4  5  2  0
  5  6  1  0
  6  7  1  0
  7  8  1  0
  8  9  1  0
  9 10  1  0
 10 11  1  0
 11 12  2  0
 11 13  1  0
 13 14  2  0
 14 15  1  0
 15 16  2  0
 16 17  1  0
 17 18  1  0
 18 19  2  0
 18 20  2  0
 18 21  1  0
 21 22  1  0
 22 23  1  0
 22 24  2  0
 24 25  1  0
 25 26  1  0
 26 27  1  0
 16 28  1  0
 28 29  2  0
 10 30  1  0
 30 31  1  0
  6 32  2  0
 32 33  1  0
 32  2  1  0
 31  7  1  0
 29 13  1  0
 26 21  2  0
  1 34  1  0
  1 35  1  0
  1 36  1  0
  3 37  1  0
  4 38  1  0
  5 39  1  0
  8 40  1  0
  8 41  1  0
  9 42  1  0
  9 43  1  0
 14 44  1  0
 15 45  1  0
 17 46  1  0
 23 47  1  0
 23 48  1  0
 23 49  1  0
 27 50  1  0
 27 51  1  0
 27 52  1  0
 28 53  1  0
 29 54  1  0
 30 55  1  0
 30 56  1  0
 31 57  1  0
 31 58  1  0
 33 59  1  0
 33 60  1  0
 33 61  1  0
M  END
$$$$
