
     RDKit          3D

 47 50  0  0  0  0  0  0  0  0999 V2000
   -6.4141   -1.7760    0.9112 C   0  0  0  0  0  0  0  0  0  0  0  0
   -5.7535   -0.5583    1.5395 C   0  0  0  0  0  0  0  0  0  0  0  0
   -5.0366    0.2391    0.5350 N   0  0  0  0  0  0  0  0  0  0  0  0
   -5.8276    1.2453   -0.1878 C   0  0  0  0  0  0  0  0  0  0  0  0
   -6.0449    0.8517   -1.6430 C   0  0  0  0  0  0  0  0  0  0  0  0
   -3.6710    0.0784    0.3215 C   0  0  0  0  0  0  0  0  0  0  0  0
   -2.9012    1.0320   -0.3666 C   0  0  0  0  0  0  0  0  0  0  0  0
   -1.5227    0.8780   -0.5819 C   0  0  0  0  0  0  0  0  0  0  0  0
   -0.8575   -0.2485   -0.1065 C   0  0  0  0  0  0  0  0  0  0  0  0
    0.5770   -0.4436   -0.3271 C   0  0  0  0  0  0  0  0  0  0  0  0
    1.5604    0.2858    0.2185 C   0  0  0  0  0  0  0  0  0  0  0  0
    1.3997    1.6330    1.3217 S   0  0  0  0  0  0  0  0  0  0  0  0
    3.1079    1.7724    1.3828 C   0  0  0  0  0  0  0  0  0  0  0  0
    3.9419    2.5952    1.9502 N   0  0  0  0  0  0  0  0  0  0  0  0
    5.2094    2.1700    1.5733 N   0  0  0  0  0  0  0  0  0  0  0  0
    5.0905    1.0889    0.8093 C   0  0  0  0  0  0  0  0  0  0  0  0
    6.1825    0.3220    0.2242 C   0  0  0  0  0  0  0  0  0  0  0  0
    7.0435    0.9689   -0.6770 C   0  0  0  0  0  0  0  0  0  0  0  0
    8.1037    0.2801   -1.2702 C   0  0  0  0  0  0  0  0  0  0  0  0
    8.3230   -1.0605   -0.9625 C   0  0  0  0  0  0  0  0  0  0  0  0
    7.4893   -1.7110   -0.0528 C   0  0  0  0  0  0  0  0  0  0  0  0
    6.4272   -1.0236    0.5444 C   0  0  0  0  0  0  0  0  0  0  0  0
    5.4734   -1.8812    1.7081 Cl  0  0  0  0  0  0  0  0  0  0  0  0
    3.7525    0.8470    0.6385 N   0  0  0  0  0  0  0  0  0  0  0  0
    2.9867   -0.0315   -0.0862 C   0  0  0  0  0  0  0  0  0  0  0  0
    3.4570   -0.8643   -0.8373 O   0  0  0  0  0  0  0  0  0  0  0  0
   -1.5913   -1.2200    0.5672 C   0  0  0  0  0  0  0  0  0  0  0  0
   -2.9689   -1.0517    0.7760 C   0  0  0  0  0  0  0  0  0  0  0  0
   -7.1768   -1.4789    0.1847 H   0  0  0  0  0  0  0  0  0  0  0  0
   -5.6880   -2.4094    0.3929 H   0  0  0  0  0  0  0  0  0  0  0  0
   -6.9041   -2.3789    1.6821 H   0  0  0  0  0  0  0  0  0  0  0  0
   -6.5280    0.0557    2.0163 H   0  0  0  0  0  0  0  0  0  0  0  0
   -5.0974   -0.8603    2.3642 H   0  0  0  0  0  0  0  0  0  0  0  0
   -5.3709    2.2383   -0.1138 H   0  0  0  0  0  0  0  0  0  0  0  0
   -6.8154    1.3537    0.2775 H   0  0  0  0  0  0  0  0  0  0  0  0
   -6.5453   -0.1187   -1.7196 H   0  0  0  0  0  0  0  0  0  0  0  0
   -6.6724    1.5959   -2.1436 H   0  0  0  0  0  0  0  0  0  0  0  0
   -5.1030    0.7829   -2.1949 H   0  0  0  0  0  0  0  0  0  0  0  0
   -3.3535    1.9408   -0.7507 H   0  0  0  0  0  0  0  0  0  0  0  0
   -0.9880    1.6533   -1.1248 H   0  0  0  0  0  0  0  0  0  0  0  0
    0.8208   -1.2787   -0.9833 H   0  0  0  0  0  0  0  0  0  0  0  0
    6.8926    2.0197   -0.9200 H   0  0  0  0  0  0  0  0  0  0  0  0
    8.7605    0.7926   -1.9695 H   0  0  0  0  0  0  0  0  0  0  0  0
    9.1491   -1.5971   -1.4230 H   0  0  0  0  0  0  0  0  0  0  0  0
    7.6769   -2.7533    0.1932 H   0  0  0  0  0  0  0  0  0  0  0  0
   -1.1098   -2.1206    0.9413 H   0  0  0  0  0  0  0  0  0  0  0  0
   -3.4835   -1.8546    1.2948 H   0  0  0  0  0  0  0  0  0  0  0  0
  1  2  1  0
  2  3  1  0
  3  4  1  0
  4  5  1  0
  3  6  1  0
  6  7  2  0
  7  8  1  0
  8  9  2  0
  9 10  1  0
 10 11  2  3
 11 12  1  0
 12 13  1  0
 13 14  2  0
 14 15  1  0
 15 16  2  0
 16 17  1  0
 17 18  2  0
 18 19  1  0
 19 20  2  0
 20 21  1  0
 21 22  2  0
 22 23  1  0
 16 24  1  0
 24 25  1  0
 25 26  2  0
  9 27  1  0
 27 28  2  0
 28  6  1  0
 25 11  1  0
 24 13  1  0
 22 17  1  0
  1 29  1  0
  1 30  1  0
  1 31  1  0
  2 32  1  0
  2 33  1  0
  4 34  1  0
  4 35  1  0
  5 36  1  0
  5 37  1  0
  5 38  1  0
  7 39  1  0
  8 40  1  0
 10 41  1  0
 18 42  1  0
 19 43  1  0
 20 44  1  0
 21 45  1  0
 27 46  1  0
 28 47  1  0
M  END
$$$$
