
     RDKit          3D

 39 41  0  0  0  0  0  0  0  0999 V2000
    0.6654   -3.3526    0.3516 S   0  0  0  0  0  0  0  0  0  0  0  0
    0.6163   -1.7638   -0.1787 C   0  0  0  0  0  0  0  0  0  0  0  0
    1.6614   -0.9660    0.2021 N   0  0  0  0  0  0  0  0  0  0  0  0
    2.4059   -0.1263   -0.7373 C   0  0  0  0  0  0  0  0  0  0  0  0
    3.4161    0.7904   -0.0331 C   0  0  0  0  0  0  0  0  0  0  0  0
    2.7885    1.8270    0.8913 C   0  0  0  0  0  0  0  0  0  0  0  0
    2.9834    1.2392    2.2668 C   0  0  0  0  0  0  0  0  0  0  0  0
    4.2901    0.4973    2.1114 C   0  0  0  0  0  0  0  0  0  0  0  0
    4.3078   -0.0107    0.7712 O   0  0  0  0  0  0  0  0  0  0  0  0
   -0.3740   -1.1920   -0.9548 N   0  0  0  0  0  0  0  0  0  0  0  0
   -1.3471   -1.9844   -1.7142 C   0  0  0  0  0  0  0  0  0  0  0  0
   -2.6711   -2.0951   -0.9598 C   0  0  0  0  0  0  0  0  0  0  0  0
   -3.1634   -0.7364   -0.5226 C   0  0  0  0  0  0  0  0  0  0  0  0
   -4.5137   -0.5585   -0.1916 C   0  0  0  0  0  0  0  0  0  0  0  0
   -4.9770    0.6846    0.2374 C   0  0  0  0  0  0  0  0  0  0  0  0
   -4.0957    1.7571    0.3465 C   0  0  0  0  0  0  0  0  0  0  0  0
   -2.7471    1.5872    0.0322 C   0  0  0  0  0  0  0  0  0  0  0  0
   -2.2640    0.3399   -0.3937 C   0  0  0  0  0  0  0  0  0  0  0  0
   -0.7943    0.1974   -0.7425 C   0  0  0  0  0  0  0  0  0  0  0  0
    2.2986   -1.4881    0.7978 H   0  0  0  0  0  0  0  0  0  0  0  0
    2.9409   -0.8203   -1.3969 H   0  0  0  0  0  0  0  0  0  0  0  0
    1.7269    0.4564   -1.3634 H   0  0  0  0  0  0  0  0  0  0  0  0
    4.0161    1.2927   -0.8007 H   0  0  0  0  0  0  0  0  0  0  0  0
    1.7456    2.0591    0.6589 H   0  0  0  0  0  0  0  0  0  0  0  0
    3.3544    2.7642    0.8184 H   0  0  0  0  0  0  0  0  0  0  0  0
    2.1740    0.5363    2.4926 H   0  0  0  0  0  0  0  0  0  0  0  0
    3.0120    1.9894    3.0615 H   0  0  0  0  0  0  0  0  0  0  0  0
    4.3936   -0.3288    2.8202 H   0  0  0  0  0  0  0  0  0  0  0  0
    5.1461    1.1706    2.2287 H   0  0  0  0  0  0  0  0  0  0  0  0
   -0.9532   -2.9780   -1.9484 H   0  0  0  0  0  0  0  0  0  0  0  0
   -1.4972   -1.4731   -2.6741 H   0  0  0  0  0  0  0  0  0  0  0  0
   -2.5513   -2.7182   -0.0660 H   0  0  0  0  0  0  0  0  0  0  0  0
   -3.4122   -2.5740   -1.6101 H   0  0  0  0  0  0  0  0  0  0  0  0
   -5.2107   -1.3902   -0.2653 H   0  0  0  0  0  0  0  0  0  0  0  0
   -6.0261    0.8149    0.4897 H   0  0  0  0  0  0  0  0  0  0  0  0
   -4.4583    2.7255    0.6810 H   0  0  0  0  0  0  0  0  0  0  0  0
   -2.0711    2.4341    0.1264 H   0  0  0  0  0  0  0  0  0  0  0  0
   -0.2080    0.6567    0.0590 H   0  0  0  0  0  0  0  0  0  0  0  0
   -0.6074    0.7363   -1.6786 H   0  0  0  0  0  0  0  0  0  0  0  0
  1  2  2  0
  2  3  1  0
  3  4  1  0
  4  5  1  0
  5  6  1  0
  6  7  1  0
  7  8  1  0
  8  9  1  0
  2 10  1  0
 10 11  1  0
 11 12  1  0
 12 13  1  0
 13 14  2  0
 14 15  1  0
 15 16  2  0
 16 17  1  0
 17 18  2  0
 18 19  1  0
  9  5  1  0
 19 10  1  0
 18 13  1  0
  3 20  1  0
  4 21  1  0
  4 22  1  0
  5 23  1  0
  6 24  1  0
  6 25  1  0
  7 26  1  0
  7 27  1  0
  8 28  1  0
  8 29  1  0
 11 30  1  0
 11 31  1  0
 12 32  1  0
 12 33  1  0
 14 34  1  0
 15 35  1  0
 16 36  1  0
 17 37  1  0
 19 38  1  0
 19 39  1  0
M  END
$$$$
