
     RDKit          3D

 43 45  0  0  0  0  0  0  0  0999 V2000
   -1.6886   -3.4071   -0.7949 N   0  0  0  0  0  0  0  0  0  0  0  0
   -0.4950   -2.7962   -0.8937 C   0  0  0  0  0  0  0  0  0  0  0  0
    0.6286   -3.4483   -0.9129 N   0  0  0  0  0  0  0  0  0  0  0  0
    1.6662   -2.3878   -1.0860 C   0  0  0  0  0  0  0  0  0  0  0  0
    0.9450   -1.0190   -1.0163 C   0  0  0  0  0  0  0  0  0  0  0  0
    1.3421   -0.2092    0.2279 C   0  0  0  0  0  0  0  0  0  0  0  0
    2.7646    0.3009    0.1873 C   0  0  0  0  0  0  0  0  0  0  0  0
    3.1385    1.2987   -0.7250 C   0  0  0  0  0  0  0  0  0  0  0  0
    4.4534    1.7643   -0.7626 C   0  0  0  0  0  0  0  0  0  0  0  0
    5.3964    1.2398    0.1129 C   0  0  0  0  0  0  0  0  0  0  0  0
    6.6681    1.7250    0.0418 O   0  0  0  0  0  0  0  0  0  0  0  0
    5.0459    0.2538    1.0289 C   0  0  0  0  0  0  0  0  0  0  0  0
    3.7296   -0.2129    1.0663 C   0  0  0  0  0  0  0  0  0  0  0  0
   -0.4487   -1.4468   -0.9729 N   0  0  0  0  0  0  0  0  0  0  0  0
   -1.5418   -0.4968   -0.9625 C   0  0  0  0  0  0  0  0  0  0  0  0
   -2.1782   -0.3772    0.4279 C   0  0  0  0  0  0  0  0  0  0  0  0
   -3.2703    0.6649    0.4525 C   0  0  0  0  0  0  0  0  0  0  0  0
   -2.9660    2.0111    0.7074 C   0  0  0  0  0  0  0  0  0  0  0  0
   -3.9744    2.9788    0.7108 C   0  0  0  0  0  0  0  0  0  0  0  0
   -5.2942    2.6099    0.4559 C   0  0  0  0  0  0  0  0  0  0  0  0
   -5.5950    1.2782    0.1985 C   0  0  0  0  0  0  0  0  0  0  0  0
   -6.8629    0.9242   -0.0515 F   0  0  0  0  0  0  0  0  0  0  0  0
   -4.5998    0.3060    0.1931 C   0  0  0  0  0  0  0  0  0  0  0  0
   -1.5630   -4.4117   -0.8727 H   0  0  0  0  0  0  0  0  0  0  0  0
   -2.3561   -3.0832   -1.4808 H   0  0  0  0  0  0  0  0  0  0  0  0
    2.4357   -2.5115   -0.3184 H   0  0  0  0  0  0  0  0  0  0  0  0
    2.1395   -2.5199   -2.0655 H   0  0  0  0  0  0  0  0  0  0  0  0
    1.1354   -0.4508   -1.9347 H   0  0  0  0  0  0  0  0  0  0  0  0
    1.1791   -0.8062    1.1352 H   0  0  0  0  0  0  0  0  0  0  0  0
    0.6884    0.6663    0.3341 H   0  0  0  0  0  0  0  0  0  0  0  0
    2.4102    1.7243   -1.4115 H   0  0  0  0  0  0  0  0  0  0  0  0
    4.7424    2.5358   -1.4713 H   0  0  0  0  0  0  0  0  0  0  0  0
    7.2123    1.2625    0.7002 H   0  0  0  0  0  0  0  0  0  0  0  0
    5.7754   -0.1606    1.7179 H   0  0  0  0  0  0  0  0  0  0  0  0
    3.4628   -0.9852    1.7858 H   0  0  0  0  0  0  0  0  0  0  0  0
   -2.2972   -0.7959   -1.6997 H   0  0  0  0  0  0  0  0  0  0  0  0
   -1.1817    0.4851   -1.2956 H   0  0  0  0  0  0  0  0  0  0  0  0
   -1.4220   -0.1227    1.1799 H   0  0  0  0  0  0  0  0  0  0  0  0
   -2.5916   -1.3405    0.7503 H   0  0  0  0  0  0  0  0  0  0  0  0
   -1.9403    2.3152    0.9073 H   0  0  0  0  0  0  0  0  0  0  0  0
   -3.7303    4.0193    0.9101 H   0  0  0  0  0  0  0  0  0  0  0  0
   -6.0872    3.3503    0.4559 H   0  0  0  0  0  0  0  0  0  0  0  0
   -4.8750   -0.7251   -0.0121 H   0  0  0  0  0  0  0  0  0  0  0  0
  1  2  1  0
  2  3  2  0
  3  4  1  0
  4  5  1  0
  5  6  1  0
  6  7  1  0
  7  8  2  0
  8  9  1  0
  9 10  2  0
 10 11  1  0
 10 12  1  0
 12 13  2  0
  5 14  1  0
 14 15  1  0
 15 16  1  0
 16 17  1  0
 17 18  2  0
 18 19  1  0
 19 20  2  0
 20 21  1  0
 21 22  1  0
 21 23  2  0
 14  2  1  0
 23 17  1  0
 13  7  1  0
  1 24  1  0
  1 25  1  0
  4 26  1  0
  4 27  1  0
  5 28  1  0
  6 29  1  0
  6 30  1  0
  8 31  1  0
  9 32  1  0
 11 33  1  0
 12 34  1  0
 13 35  1  0
 15 36  1  0
 15 37  1  0
 16 38  1  0
 16 39  1  0
 18 40  1  0
 19 41  1  0
 20 42  1  0
 23 43  1  0
M  END
$$$$
