
     RDKit          3D

 39 41  0  0  0  0  0  0  0  0999 V2000
    0.5987   -1.1462    1.8642 O   0  0  0  0  0  0  0  0  0  0  0  0
    0.1472   -0.6927    0.8149 C   0  0  0  0  0  0  0  0  0  0  0  0
    0.9394   -0.2588   -0.2274 N   0  0  0  0  0  0  0  0  0  0  0  0
    2.3914   -0.2047   -0.1164 C   0  0  0  0  0  0  0  0  0  0  0  0
    2.8399    1.0700    0.6030 C   0  0  0  0  0  0  0  0  0  0  0  0
    4.3542    1.0969    0.8249 C   0  0  0  0  0  0  0  0  0  0  0  0
    5.1411    0.3049   -0.2205 C   0  0  0  0  0  0  0  0  0  0  0  0
    4.4437    0.3078   -1.5732 C   0  0  0  0  0  0  0  0  0  0  0  0
    3.0469   -0.3152   -1.5030 C   0  0  0  0  0  0  0  0  0  0  0  0
   -1.3296   -0.6476    0.6280 C   0  0  0  0  0  0  0  0  0  0  0  0
   -1.9334    0.2417   -0.2733 C   0  0  0  0  0  0  0  0  0  0  0  0
   -3.3296    0.2563   -0.4472 C   0  0  0  0  0  0  0  0  0  0  0  0
   -3.9447    1.1373   -1.3520 C   0  0  0  0  0  0  0  0  0  0  0  0
   -5.3309    1.1392   -1.5169 C   0  0  0  0  0  0  0  0  0  0  0  0
   -6.1208    0.2627   -0.7792 C   0  0  0  0  0  0  0  0  0  0  0  0
   -5.5269   -0.6165    0.1270 C   0  0  0  0  0  0  0  0  0  0  0  0
   -4.1345   -0.6308    0.3049 C   0  0  0  0  0  0  0  0  0  0  0  0
   -3.5271   -1.5009    1.2211 C   0  0  0  0  0  0  0  0  0  0  0  0
   -2.1433   -1.4993    1.3875 C   0  0  0  0  0  0  0  0  0  0  0  0
   -1.6489   -2.3695    2.3246 O   0  0  0  0  0  0  0  0  0  0  0  0
    0.5183    0.0506   -1.0912 H   0  0  0  0  0  0  0  0  0  0  0  0
    2.7066   -1.0668    0.4865 H   0  0  0  0  0  0  0  0  0  0  0  0
    2.5446    1.9447    0.0079 H   0  0  0  0  0  0  0  0  0  0  0  0
    2.3312    1.1794    1.5684 H   0  0  0  0  0  0  0  0  0  0  0  0
    4.5904    0.6966    1.8183 H   0  0  0  0  0  0  0  0  0  0  0  0
    4.6894    2.1412    0.8295 H   0  0  0  0  0  0  0  0  0  0  0  0
    6.1511    0.7200   -0.3121 H   0  0  0  0  0  0  0  0  0  0  0  0
    5.2598   -0.7312    0.1208 H   0  0  0  0  0  0  0  0  0  0  0  0
    4.3601    1.3423   -1.9298 H   0  0  0  0  0  0  0  0  0  0  0  0
    5.0482   -0.2282   -2.3137 H   0  0  0  0  0  0  0  0  0  0  0  0
    3.1034   -1.3768   -1.7762 H   0  0  0  0  0  0  0  0  0  0  0  0
    2.4230    0.1546   -2.2742 H   0  0  0  0  0  0  0  0  0  0  0  0
   -1.3326    0.9528   -0.8321 H   0  0  0  0  0  0  0  0  0  0  0  0
   -3.3487    1.8323   -1.9393 H   0  0  0  0  0  0  0  0  0  0  0  0
   -5.7938    1.8259   -2.2211 H   0  0  0  0  0  0  0  0  0  0  0  0
   -7.2004    0.2635   -0.9060 H   0  0  0  0  0  0  0  0  0  0  0  0
   -6.1611   -1.2918    0.6980 H   0  0  0  0  0  0  0  0  0  0  0  0
   -4.1268   -2.1825    1.8200 H   0  0  0  0  0  0  0  0  0  0  0  0
   -0.6955   -2.1609    2.4538 H   0  0  0  0  0  0  0  0  0  0  0  0
  1  2  2  0
  2  3  1  0
  3  4  1  0
  4  5  1  0
  5  6  1  0
  6  7  1  0
  7  8  1  0
  8  9  1  0
  2 10  1  0
 10 11  2  0
 11 12  1  0
 12 13  2  0
 13 14  1  0
 14 15  2  0
 15 16  1  0
 16 17  2  0
 17 18  1  0
 18 19  2  0
 19 20  1  0
  9  4  1  0
 19 10  1  0
 17 12  1  0
  3 21  1  0
  4 22  1  0
  5 23  1  0
  5 24  1  0
  6 25  1  0
  6 26  1  0
  7 27  1  0
  7 28  1  0
  8 29  1  0
  8 30  1  0
  9 31  1  0
  9 32  1  0
 11 33  1  0
 13 34  1  0
 14 35  1  0
 15 36  1  0
 16 37  1  0
 18 38  1  0
 20 39  1  0
M  END
$$$$
