
     RDKit          3D

 49 52  0  0  0  0  0  0  0  0999 V2000
   -1.0331    4.3719    2.6535 C   0  0  0  0  0  0  0  0  0  0  0  0
   -0.7383    2.9478    2.2111 C   0  0  0  0  0  0  0  0  0  0  0  0
   -0.9154    2.7829    0.7041 C   0  0  0  0  0  0  0  0  0  0  0  0
   -0.6441    1.3652    0.2799 C   0  0  0  0  0  0  0  0  0  0  0  0
    0.6409    1.0053    0.0989 N   0  0  0  0  0  0  0  0  0  0  0  0
    0.9109   -0.2676   -0.2547 C   0  0  0  0  0  0  0  0  0  0  0  0
    2.2546   -0.6620   -0.4269 N   0  0  0  0  0  0  0  0  0  0  0  0
    3.2172    0.2311    0.2584 C   0  0  0  0  0  0  0  0  0  0  0  0
    4.6558   -0.3182    0.0998 C   0  0  0  0  0  0  0  0  0  0  0  0
    5.0419   -0.4814   -1.3212 N   0  0  0  0  0  0  0  0  0  0  0  0
    6.3831   -1.0499   -1.4295 C   0  0  0  0  0  0  0  0  0  0  0  0
    4.0511   -1.3472   -1.9986 C   0  0  0  0  0  0  0  0  0  0  0  0
    2.6044   -0.8137   -1.8597 C   0  0  0  0  0  0  0  0  0  0  0  0
   -0.1235   -1.1750   -0.4071 C   0  0  0  0  0  0  0  0  0  0  0  0
   -0.0909   -2.9052   -0.7373 S   0  0  0  0  0  0  0  0  0  0  0  0
   -1.8628   -3.0038   -0.6679 C   0  0  0  0  0  0  0  0  0  0  0  0
   -2.6399   -4.4339   -1.0527 S   0  0  0  0  0  0  0  0  0  0  0  0
   -2.3916   -1.7465   -0.3517 N   0  0  0  0  0  0  0  0  0  0  0  0
   -3.7646   -1.4369   -0.1245 C   0  0  0  0  0  0  0  0  0  0  0  0
   -4.5756   -2.2818    0.6482 C   0  0  0  0  0  0  0  0  0  0  0  0
   -5.9243   -1.9845    0.8688 C   0  0  0  0  0  0  0  0  0  0  0  0
   -6.4848   -0.8361    0.3188 C   0  0  0  0  0  0  0  0  0  0  0  0
   -5.6967    0.0180   -0.4463 C   0  0  0  0  0  0  0  0  0  0  0  0
   -4.3482   -0.2797   -0.6639 C   0  0  0  0  0  0  0  0  0  0  0  0
   -1.4110   -0.7197   -0.2088 C   0  0  0  0  0  0  0  0  0  0  0  0
   -1.6944    0.5450    0.1406 N   0  0  0  0  0  0  0  0  0  0  0  0
   -2.0916    4.6097    2.5145 H   0  0  0  0  0  0  0  0  0  0  0  0
   -0.4388    5.0959    2.0854 H   0  0  0  0  0  0  0  0  0  0  0  0
   -0.7990    4.4952    3.7165 H   0  0  0  0  0  0  0  0  0  0  0  0
    0.2850    2.6810    2.5041 H   0  0  0  0  0  0  0  0  0  0  0  0
   -1.4071    2.2649    2.7460 H   0  0  0  0  0  0  0  0  0  0  0  0
   -1.9332    3.0618    0.4121 H   0  0  0  0  0  0  0  0  0  0  0  0
   -0.2322    3.4509    0.1668 H   0  0  0  0  0  0  0  0  0  0  0  0
    2.9831    0.2853    1.3300 H   0  0  0  0  0  0  0  0  0  0  0  0
    3.1774    1.2476   -0.1569 H   0  0  0  0  0  0  0  0  0  0  0  0
    4.7304   -1.2789    0.6275 H   0  0  0  0  0  0  0  0  0  0  0  0
    5.3460    0.3808    0.5878 H   0  0  0  0  0  0  0  0  0  0  0  0
    6.6756   -1.1393   -2.4806 H   0  0  0  0  0  0  0  0  0  0  0  0
    7.1167   -0.3907   -0.9533 H   0  0  0  0  0  0  0  0  0  0  0  0
    6.4563   -2.0399   -0.9670 H   0  0  0  0  0  0  0  0  0  0  0  0
    4.0937   -2.3650   -1.5873 H   0  0  0  0  0  0  0  0  0  0  0  0
    4.2936   -1.4125   -3.0663 H   0  0  0  0  0  0  0  0  0  0  0  0
    1.9349   -1.5147   -2.3677 H   0  0  0  0  0  0  0  0  0  0  0  0
    2.5190    0.1529   -2.3745 H   0  0  0  0  0  0  0  0  0  0  0  0
   -4.1684   -3.1668    1.1291 H   0  0  0  0  0  0  0  0  0  0  0  0
   -6.5322   -2.6499    1.4783 H   0  0  0  0  0  0  0  0  0  0  0  0
   -7.5327   -0.6053    0.4899 H   0  0  0  0  0  0  0  0  0  0  0  0
   -6.1287    0.9154   -0.8796 H   0  0  0  0  0  0  0  0  0  0  0  0
   -3.7688    0.3973   -1.2861 H   0  0  0  0  0  0  0  0  0  0  0  0
  1  2  1  0
  2  3  1  0
  3  4  1  0
  4  5  2  0
  5  6  1  0
  6  7  1  0
  7  8  1  0
  8  9  1  0
  9 10  1  0
 10 11  1  0
 10 12  1  0
 12 13  1  0
  6 14  2  0
 14 15  1  0
 15 16  1  0
 16 17  2  0
 16 18  1  0
 18 19  1  0
 19 20  2  0
 20 21  1  0
 21 22  2  0
 22 23  1  0
 23 24  2  0
 18 25  1  0
 25 26  2  0
 26  4  1  0
 13  7  1  0
 25 14  1  0
 24 19  1  0
  1 27  1  0
  1 28  1  0
  1 29  1  0
  2 30  1  0
  2 31  1  0
  3 32  1  0
  3 33  1  0
  8 34  1  0
  8 35  1  0
  9 36  1  0
  9 37  1  0
 11 38  1  0
 11 39  1  0
 11 40  1  0
 12 41  1  0
 12 42  1  0
 13 43  1  0
 13 44  1  0
 20 45  1  0
 21 46  1  0
 22 47  1  0
 23 48  1  0
 24 49  1  0
M  END
$$$$
