
     RDKit          3D

 50 52  0  0  0  0  0  0  0  0999 V2000
    5.7317   -0.9351   -5.0680 C   0  0  0  0  0  0  0  0  0  0  0  0
    5.1594   -0.8998   -3.6815 C   0  0  0  0  0  0  0  0  0  0  0  0
    4.3258   -1.9248   -3.2203 C   0  0  0  0  0  0  0  0  0  0  0  0
    3.8000   -1.8814   -1.9257 C   0  0  0  0  0  0  0  0  0  0  0  0
    4.0916   -0.8076   -1.0798 C   0  0  0  0  0  0  0  0  0  0  0  0
    3.4395   -0.7251    0.5768 S   0  0  0  0  0  0  0  0  0  0  0  0
    1.6528   -0.7160    0.1965 C   0  0  0  0  0  0  0  0  0  0  0  0
    0.8670   -0.5504    1.4859 C   0  0  0  0  0  0  0  0  0  0  0  0
    0.7251   -1.5386    2.2180 O   0  0  0  0  0  0  0  0  0  0  0  0
    0.3489    0.6897    1.8542 N   0  0  0  0  0  0  0  0  0  0  0  0
   -0.3639    0.7225    3.1438 C   0  0  0  0  0  0  0  0  0  0  0  0
   -1.8357    0.6056    2.9554 C   0  0  0  0  0  0  0  0  0  0  0  0
   -2.5399   -0.1236    2.1177 N   0  0  0  0  0  0  0  0  0  0  0  0
   -3.8370    0.2278    2.4253 C   0  0  0  0  0  0  0  0  0  0  0  0
   -4.9840   -0.3550    1.7372 C   0  0  0  0  0  0  0  0  0  0  0  0
   -6.2883    0.0975    1.9877 C   0  0  0  0  0  0  0  0  0  0  0  0
   -7.3785   -0.4704    1.3225 C   0  0  0  0  0  0  0  0  0  0  0  0
   -7.1775   -1.4981    0.4024 C   0  0  0  0  0  0  0  0  0  0  0  0
   -5.8879   -1.9586    0.1443 C   0  0  0  0  0  0  0  0  0  0  0  0
   -4.7971   -1.3898    0.8074 C   0  0  0  0  0  0  0  0  0  0  0  0
   -3.9303    1.1513    3.3975 N   0  0  0  0  0  0  0  0  0  0  0  0
   -2.6075    1.3965    3.7536 O   0  0  0  0  0  0  0  0  0  0  0  0
    0.2938    1.9363    1.0542 C   0  0  0  0  0  0  0  0  0  0  0  0
    1.6675    2.5199    0.7241 C   0  0  0  0  0  0  0  0  0  0  0  0
   -0.6159    1.8420   -0.1724 C   0  0  0  0  0  0  0  0  0  0  0  0
    4.9327    0.2110   -1.5339 C   0  0  0  0  0  0  0  0  0  0  0  0
    5.4584    0.1691   -2.8282 C   0  0  0  0  0  0  0  0  0  0  0  0
    6.8258   -0.9077   -5.0257 H   0  0  0  0  0  0  0  0  0  0  0  0
    5.3702   -0.0798   -5.6467 H   0  0  0  0  0  0  0  0  0  0  0  0
    5.4416   -1.8475   -5.5988 H   0  0  0  0  0  0  0  0  0  0  0  0
    4.0866   -2.7718   -3.8601 H   0  0  0  0  0  0  0  0  0  0  0  0
    3.1733   -2.7021   -1.5849 H   0  0  0  0  0  0  0  0  0  0  0  0
    1.3607   -1.6758   -0.2434 H   0  0  0  0  0  0  0  0  0  0  0  0
    1.4332    0.0486   -0.5412 H   0  0  0  0  0  0  0  0  0  0  0  0
   -0.1057    1.6603    3.6498 H   0  0  0  0  0  0  0  0  0  0  0  0
   -0.0270   -0.0830    3.8047 H   0  0  0  0  0  0  0  0  0  0  0  0
   -6.4678    0.8964    2.7049 H   0  0  0  0  0  0  0  0  0  0  0  0
   -8.3841   -0.1118    1.5257 H   0  0  0  0  0  0  0  0  0  0  0  0
   -8.0264   -1.9424   -0.1110 H   0  0  0  0  0  0  0  0  0  0  0  0
   -5.7286   -2.7637   -0.5693 H   0  0  0  0  0  0  0  0  0  0  0  0
   -3.7965   -1.7649    0.5975 H   0  0  0  0  0  0  0  0  0  0  0  0
   -0.1742    2.6886    1.7046 H   0  0  0  0  0  0  0  0  0  0  0  0
    1.5658    3.5654    0.4121 H   0  0  0  0  0  0  0  0  0  0  0  0
    2.3244    2.4959    1.5997 H   0  0  0  0  0  0  0  0  0  0  0  0
    2.1675    1.9998   -0.0942 H   0  0  0  0  0  0  0  0  0  0  0  0
   -0.6841    2.8143   -0.6718 H   0  0  0  0  0  0  0  0  0  0  0  0
   -0.2710    1.1176   -0.9116 H   0  0  0  0  0  0  0  0  0  0  0  0
   -1.6304    1.5496    0.1153 H   0  0  0  0  0  0  0  0  0  0  0  0
    5.1866    1.0461   -0.8857 H   0  0  0  0  0  0  0  0  0  0  0  0
    6.1093    0.9732   -3.1645 H   0  0  0  0  0  0  0  0  0  0  0  0
  1  2  1  0
  2  3  2  0
  3  4  1  0
  4  5  2  0
  5  6  1  0
  6  7  1  0
  7  8  1  0
  8  9  2  0
  8 10  1  0
 10 11  1  0
 11 12  1  0
 12 13  2  0
 13 14  1  0
 14 15  1  0
 15 16  2  0
 16 17  1  0
 17 18  2  0
 18 19  1  0
 19 20  2  0
 14 21  2  0
 21 22  1  0
 10 23  1  0
 23 24  1  0
 23 25  1  0
  5 26  1  0
 26 27  2  0
 27  2  1  0
 22 12  1  0
 20 15  1  0
  1 28  1  0
  1 29  1  0
  1 30  1  0
  3 31  1  0
  4 32  1  0
  7 33  1  0
  7 34  1  0
 11 35  1  0
 11 36  1  0
 16 37  1  0
 17 38  1  0
 18 39  1  0
 19 40  1  0
 20 41  1  0
 23 42  1  0
 24 43  1  0
 24 44  1  0
 24 45  1  0
 25 46  1  0
 25 47  1  0
 25 48  1  0
 26 49  1  0
 27 50  1  0
M  END
$$$$
