
     RDKit          3D

 61 65  0  0  0  0  0  0  0  0999 V2000
    3.8140    0.7538   -1.9163 C   0  0  0  0  0  0  0  0  0  0  0  0
    2.6949   -0.1800   -2.2019 C   0  0  0  0  0  0  0  0  0  0  0  0
    1.4765    0.1067   -2.7935 C   0  0  0  0  0  0  0  0  0  0  0  0
    0.9147    1.4170   -3.2819 C   0  0  0  0  0  0  0  0  0  0  0  0
    0.6309    2.3975   -2.1384 C   0  0  0  0  0  0  0  0  0  0  0  0
   -0.2080    1.8196   -1.1245 O   0  0  0  0  0  0  0  0  0  0  0  0
   -1.5434    1.7893   -1.4070 C   0  0  0  0  0  0  0  0  0  0  0  0
   -2.0224    2.1573   -2.4700 O   0  0  0  0  0  0  0  0  0  0  0  0
   -2.3335    1.2092   -0.2367 C   0  0  0  0  0  0  0  0  0  0  0  0
   -3.8455    1.1991   -0.5649 C   0  0  0  0  0  0  0  0  0  0  0  0
   -4.6489    0.6135    0.6074 C   0  0  0  0  0  0  0  0  0  0  0  0
   -4.4077    1.4663    1.8624 C   0  0  0  0  0  0  0  0  0  0  0  0
   -2.9119    1.4731    2.2128 C   0  0  0  0  0  0  0  0  0  0  0  0
   -2.4439    0.0309    2.4735 C   0  0  0  0  0  0  0  0  0  0  0  0
   -2.6756   -0.8487    1.2227 C   0  0  0  0  0  0  0  0  0  0  0  0
   -2.2123   -2.2837    1.4896 C   0  0  0  0  0  0  0  0  0  0  0  0
   -4.1812   -0.8271    0.8733 C   0  0  0  0  0  0  0  0  0  0  0  0
   -1.8848   -0.2445    0.0394 C   0  0  0  0  0  0  0  0  0  0  0  0
   -2.1152    2.0588    1.0352 C   0  0  0  0  0  0  0  0  0  0  0  0
    0.5439   -1.3315   -2.9439 S   0  0  0  0  0  0  0  0  0  0  0  0
    1.7487   -2.2645   -2.1789 C   0  0  0  0  0  0  0  0  0  0  0  0
    2.7884   -1.5224   -1.8356 N   0  0  0  0  0  4  0  0  0  0  0  0
    3.9307   -2.1307   -1.1381 C   0  0  0  0  0  0  0  0  0  0  0  0
    4.0088   -1.6516    0.2922 C   0  0  0  0  0  0  0  0  0  0  0  0
    5.2372   -1.2122    0.8133 C   0  0  0  0  0  0  0  0  0  0  0  0
    5.3323   -0.7757    2.1352 C   0  0  0  0  0  0  0  0  0  0  0  0
    4.2072   -0.7827    2.9552 C   0  0  0  0  0  0  0  0  0  0  0  0
    2.9870   -1.2331    2.4587 C   0  0  0  0  0  0  0  0  0  0  0  0
    2.8864   -1.6726    1.1378 C   0  0  0  0  0  0  0  0  0  0  0  0
    4.7826    0.3147   -2.1708 H   0  0  0  0  0  0  0  0  0  0  0  0
    3.7211    1.6701   -2.5085 H   0  0  0  0  0  0  0  0  0  0  0  0
    3.8157    1.0420   -0.8610 H   0  0  0  0  0  0  0  0  0  0  0  0
    1.6266    1.8741   -3.9798 H   0  0  0  0  0  0  0  0  0  0  0  0
   -0.0052    1.2398   -3.8514 H   0  0  0  0  0  0  0  0  0  0  0  0
    1.5644    2.6822   -1.6412 H   0  0  0  0  0  0  0  0  0  0  0  0
    0.1872    3.3255   -2.5196 H   0  0  0  0  0  0  0  0  0  0  0  0
   -4.0345    0.6106   -1.4727 H   0  0  0  0  0  0  0  0  0  0  0  0
   -4.1944    2.2179   -0.7807 H   0  0  0  0  0  0  0  0  0  0  0  0
   -5.7165    0.6142    0.3606 H   0  0  0  0  0  0  0  0  0  0  0  0
   -4.7570    2.4924    1.6922 H   0  0  0  0  0  0  0  0  0  0  0  0
   -4.9888    1.0680    2.7033 H   0  0  0  0  0  0  0  0  0  0  0  0
   -2.7458    2.0817    3.1087 H   0  0  0  0  0  0  0  0  0  0  0  0
   -1.3802    0.0321    2.7448 H   0  0  0  0  0  0  0  0  0  0  0  0
   -2.9876   -0.3818    3.3332 H   0  0  0  0  0  0  0  0  0  0  0  0
   -2.3654   -2.9190    0.6105 H   0  0  0  0  0  0  0  0  0  0  0  0
   -2.7666   -2.7278    2.3234 H   0  0  0  0  0  0  0  0  0  0  0  0
   -1.1466   -2.3151    1.7422 H   0  0  0  0  0  0  0  0  0  0  0  0
   -4.3750   -1.4470   -0.0118 H   0  0  0  0  0  0  0  0  0  0  0  0
   -4.7681   -1.2594    1.6940 H   0  0  0  0  0  0  0  0  0  0  0  0
   -2.0294   -0.8557   -0.8616 H   0  0  0  0  0  0  0  0  0  0  0  0
   -0.8092   -0.2769    0.2598 H   0  0  0  0  0  0  0  0  0  0  0  0
   -2.4205    3.0978    0.8539 H   0  0  0  0  0  0  0  0  0  0  0  0
   -1.0505    2.0950    1.3000 H   0  0  0  0  0  0  0  0  0  0  0  0
    1.6506   -3.3279   -1.9954 H   0  0  0  0  0  0  0  0  0  0  0  0
    3.8390   -3.2239   -1.1393 H   0  0  0  0  0  0  0  0  0  0  0  0
    4.8423   -1.8923   -1.6978 H   0  0  0  0  0  0  0  0  0  0  0  0
    6.1400   -1.2044    0.2042 H   0  0  0  0  0  0  0  0  0  0  0  0
    6.2873   -0.4362    2.5336 H   0  0  0  0  0  0  0  0  0  0  0  0
    4.2848   -0.4458    3.9872 H   0  0  0  0  0  0  0  0  0  0  0  0
    2.1148   -1.2472    3.1093 H   0  0  0  0  0  0  0  0  0  0  0  0
    1.9177   -2.0290    0.7945 H   0  0  0  0  0  0  0  0  0  0  0  0
  1  2  1  0
  2  3  2  0
  3  4  1  0
  4  5  1  0
  5  6  1  0
  6  7  1  0
  7  8  2  0
  7  9  1  0
  9 10  1  0
 10 11  1  0
 11 12  1  0
 12 13  1  0
 13 14  1  0
 14 15  1  0
 15 16  1  0
 15 17  1  0
 15 18  1  0
 13 19  1  0
  3 20  1  0
 20 21  1  0
 21 22  2  0
 22 23  1  0
 23 24  1  0
 24 25  2  0
 25 26  1  0
 26 27  2  0
 27 28  1  0
 28 29  2  0
 22  2  1  0
 29 24  1  0
 18  9  1  0
 19  9  1  0
 17 11  1  0
  1 30  1  0
  1 31  1  0
  1 32  1  0
  4 33  1  0
  4 34  1  0
  5 35  1  0
  5 36  1  0
 10 37  1  0
 10 38  1  0
 11 39  1  0
 12 40  1  0
 12 41  1  0
 13 42  1  0
 14 43  1  0
 14 44  1  0
 16 45  1  0
 16 46  1  0
 16 47  1  0
 17 48  1  0
 17 49  1  0
 18 50  1  0
 18 51  1  0
 19 52  1  0
 19 53  1  0
 21 54  1  0
 23 55  1  0
 23 56  1  0
 25 57  1  0
 26 58  1  0
 27 59  1  0
 28 60  1  0
 29 61  1  0
M  CHG  1  22   1
M  END
$$$$
