
     RDKit          3D

 42 45  0  0  0  0  0  0  0  0999 V2000
    4.7094    0.3511    3.7028 O   0  0  0  0  0  0  0  0  0  0  0  0
    5.8685    0.3872    3.3323 C   0  0  0  0  0  0  0  0  0  0  0  0
    6.8495    0.7516    4.1799 O   0  0  0  0  0  0  0  0  0  0  0  0
    6.4060    0.0326    1.9728 C   0  0  0  0  0  0  0  0  0  0  0  0
    5.3162   -0.1569    0.9183 C   0  0  0  0  0  0  0  0  0  0  0  0
    4.4748   -1.4198    1.1426 C   0  0  0  0  0  0  0  0  0  0  0  0
    3.6863   -1.7546   -0.0481 N   0  0  0  0  0  0  0  0  0  0  0  0
    2.4508   -1.1465   -0.2208 C   0  0  0  0  0  0  0  0  0  0  0  0
    1.9543   -0.3507    0.5616 O   0  0  0  0  0  0  0  0  0  0  0  0
    1.8169   -1.5945   -1.4959 C   0  0  0  0  0  0  0  0  0  0  0  0
    0.6308   -1.2793   -2.0351 C   0  0  0  0  0  0  0  0  0  0  0  0
   -0.3343   -0.3741   -1.5191 C   0  0  0  0  0  0  0  0  0  0  0  0
   -0.2171    0.8659   -0.9083 C   0  0  0  0  0  0  0  0  0  0  0  0
   -1.5204    1.3431   -0.6342 C   0  0  0  0  0  0  0  0  0  0  0  0
   -2.4068    0.3957   -1.1068 C   0  0  0  0  0  0  0  0  0  0  0  0
   -3.8435    0.4290   -1.0672 C   0  0  0  0  0  0  0  0  0  0  0  0
   -4.5091    1.4434   -0.5559 N   0  0  0  0  0  0  0  0  0  0  0  0
   -5.8703    1.2072   -0.6498 C   0  0  0  0  0  0  0  0  0  0  0  0
   -6.8913    2.0715   -0.2048 C   0  0  0  0  0  0  0  0  0  0  0  0
   -8.2320    1.7053   -0.3636 C   0  0  0  0  0  0  0  0  0  0  0  0
   -8.5653    0.4926   -0.9586 C   0  0  0  0  0  0  0  0  0  0  0  0
   -7.5716   -0.3825   -1.4085 C   0  0  0  0  0  0  0  0  0  0  0  0
   -6.2286   -0.0045   -1.2437 C   0  0  0  0  0  0  0  0  0  0  0  0
   -4.7985   -0.8529   -1.6876 S   0  0  0  0  0  0  0  0  0  0  0  0
   -1.6814   -0.6292   -1.6553 O   0  0  0  0  0  0  0  0  0  0  0  0
    2.8722   -2.7215   -2.2860 S   0  0  0  0  0  0  0  0  0  0  0  0
    4.1098   -2.6016   -1.0486 C   0  0  0  0  0  0  0  0  0  0  0  0
    5.5558   -3.4264   -1.1625 S   0  0  0  0  0  0  0  0  0  0  0  0
    6.3823    0.9514    5.0187 H   0  0  0  0  0  0  0  0  0  0  0  0
    7.0130   -0.8746    2.0627 H   0  0  0  0  0  0  0  0  0  0  0  0
    7.0555    0.8547    1.6501 H   0  0  0  0  0  0  0  0  0  0  0  0
    4.6591    0.7210    0.8880 H   0  0  0  0  0  0  0  0  0  0  0  0
    5.8028   -0.2123   -0.0635 H   0  0  0  0  0  0  0  0  0  0  0  0
    3.7872   -1.2734    1.9824 H   0  0  0  0  0  0  0  0  0  0  0  0
    5.1177   -2.2660    1.4042 H   0  0  0  0  0  0  0  0  0  0  0  0
    0.3240   -1.7795   -2.9518 H   0  0  0  0  0  0  0  0  0  0  0  0
    0.7077    1.3784   -0.6805 H   0  0  0  0  0  0  0  0  0  0  0  0
   -1.7926    2.2728   -0.1529 H   0  0  0  0  0  0  0  0  0  0  0  0
   -6.6269    3.0166    0.2592 H   0  0  0  0  0  0  0  0  0  0  0  0
   -9.0162    2.3751   -0.0185 H   0  0  0  0  0  0  0  0  0  0  0  0
   -9.6121    0.2197   -1.0759 H   0  0  0  0  0  0  0  0  0  0  0  0
   -7.8329   -1.3288   -1.8723 H   0  0  0  0  0  0  0  0  0  0  0  0
  1  2  2  0
  2  3  1  0
  2  4  1  0
  4  5  1  0
  5  6  1  0
  6  7  1  0
  7  8  1  0
  8  9  2  0
  8 10  1  0
 10 11  2  3
 11 12  1  0
 12 13  2  0
 13 14  1  0
 14 15  2  0
 15 16  1  0
 16 17  2  0
 17 18  1  0
 18 19  2  0
 19 20  1  0
 20 21  2  0
 21 22  1  0
 22 23  2  0
 23 24  1  0
 15 25  1  0
 10 26  1  0
 26 27  1  0
 27 28  2  0
 27  7  1  0
 25 12  1  0
 24 16  1  0
 23 18  1  0
  3 29  1  0
  4 30  1  0
  4 31  1  0
  5 32  1  0
  5 33  1  0
  6 34  1  0
  6 35  1  0
 11 36  1  0
 13 37  1  0
 14 38  1  0
 19 39  1  0
 20 40  1  0
 21 41  1  0
 22 42  1  0
M  END
$$$$
