
     RDKit          3D

 57 60  0  0  0  0  0  0  0  0999 V2000
   -3.9139   -1.7770    1.8460 C   0  0  0  0  0  0  0  0  0  0  0  0
   -4.9632   -1.0579    1.0833 C   0  0  0  0  0  0  0  0  0  0  0  0
   -6.2301   -1.4873    1.1345 N   0  0  0  0  0  0  0  0  0  0  0  0
   -6.9527   -0.6336    0.3284 O   0  0  0  0  0  0  0  0  0  0  0  0
   -6.1244    0.3026   -0.2001 C   0  0  0  0  0  0  0  0  0  0  0  0
   -6.7521    1.2990   -1.0882 C   0  0  0  0  0  0  0  0  0  0  0  0
   -4.8355    0.0826    0.2402 C   0  0  0  0  0  0  0  0  0  0  0  0
   -3.6185    0.8739   -0.0839 C   0  0  0  0  0  0  0  0  0  0  0  0
   -2.4259    0.0946   -0.2213 O   0  0  0  0  0  0  0  0  0  0  0  0
   -2.2753   -0.7159   -1.3130 C   0  0  0  0  0  0  0  0  0  0  0  0
   -3.0361   -0.6340   -2.4823 C   0  0  0  0  0  0  0  0  0  0  0  0
   -2.8133   -1.5276   -3.5374 C   0  0  0  0  0  0  0  0  0  0  0  0
   -1.8333   -2.5136   -3.4363 C   0  0  0  0  0  0  0  0  0  0  0  0
   -1.0619   -2.6034   -2.2812 C   0  0  0  0  0  0  0  0  0  0  0  0
   -1.2713   -1.6954   -1.2358 C   0  0  0  0  0  0  0  0  0  0  0  0
   -0.4390   -1.8504   -0.0249 C   0  0  0  0  0  0  0  0  0  0  0  0
   -0.6061   -2.8564    0.6611 O   0  0  0  0  0  0  0  0  0  0  0  0
    0.5071   -0.8766    0.2654 N   0  0  0  0  0  0  0  0  0  0  0  0
    1.2673   -0.9936    1.5127 C   0  0  0  0  0  0  0  0  0  0  0  0
    1.8475    0.3526    1.9694 C   0  0  0  0  0  0  0  0  0  0  0  0
    2.7134    0.9614    0.9354 N   0  0  0  0  0  0  0  0  0  0  0  0
    4.1035    0.9621    1.1103 C   0  0  0  0  0  0  0  0  0  0  0  0
    4.7847    0.0404    1.9154 C   0  0  0  0  0  0  0  0  0  0  0  0
    6.1770    0.0736    2.0454 C   0  0  0  0  0  0  0  0  0  0  0  0
    6.9209    1.0382    1.3723 C   0  0  0  0  0  0  0  0  0  0  0  0
    6.2763    1.9840    0.5685 C   0  0  0  0  0  0  0  0  0  0  0  0
    7.0622    3.0272   -0.1821 C   0  0  0  0  0  0  0  0  0  0  0  0
    8.2690    3.3056    0.3863 F   0  0  0  0  0  0  0  0  0  0  0  0
    7.3324    2.6482   -1.4623 F   0  0  0  0  0  0  0  0  0  0  0  0
    6.4140    4.2221   -0.2767 F   0  0  0  0  0  0  0  0  0  0  0  0
    4.8766    1.9269    0.4420 C   0  0  0  0  0  0  0  0  0  0  0  0
    2.3071    0.6993   -0.4700 C   0  0  0  0  0  0  0  0  0  0  0  0
    0.8301    0.2763   -0.5879 C   0  0  0  0  0  0  0  0  0  0  0  0
   -3.4686   -2.5625    1.2271 H   0  0  0  0  0  0  0  0  0  0  0  0
   -4.3293   -2.2449    2.7446 H   0  0  0  0  0  0  0  0  0  0  0  0
   -3.1204   -1.0953    2.1671 H   0  0  0  0  0  0  0  0  0  0  0  0
   -6.4605    1.1182   -2.1271 H   0  0  0  0  0  0  0  0  0  0  0  0
   -7.8440    1.2561   -1.0284 H   0  0  0  0  0  0  0  0  0  0  0  0
   -6.4388    2.3109   -0.8133 H   0  0  0  0  0  0  0  0  0  0  0  0
   -3.7570    1.5210   -0.9576 H   0  0  0  0  0  0  0  0  0  0  0  0
   -3.4354    1.5566    0.7550 H   0  0  0  0  0  0  0  0  0  0  0  0
   -3.8172    0.1069   -2.6113 H   0  0  0  0  0  0  0  0  0  0  0  0
   -3.4193   -1.4608   -4.4387 H   0  0  0  0  0  0  0  0  0  0  0  0
   -1.6784   -3.2160   -4.2516 H   0  0  0  0  0  0  0  0  0  0  0  0
   -0.3058   -3.3795   -2.1870 H   0  0  0  0  0  0  0  0  0  0  0  0
    2.0713   -1.7158    1.3298 H   0  0  0  0  0  0  0  0  0  0  0  0
    0.6205   -1.4060    2.2948 H   0  0  0  0  0  0  0  0  0  0  0  0
    2.3505    0.2524    2.9374 H   0  0  0  0  0  0  0  0  0  0  0  0
    1.0178    1.0496    2.1454 H   0  0  0  0  0  0  0  0  0  0  0  0
    4.2514   -0.7470    2.4393 H   0  0  0  0  0  0  0  0  0  0  0  0
    6.6782   -0.6622    2.6698 H   0  0  0  0  0  0  0  0  0  0  0  0
    8.0046    1.0500    1.4788 H   0  0  0  0  0  0  0  0  0  0  0  0
    4.3747    2.6723   -0.1738 H   0  0  0  0  0  0  0  0  0  0  0  0
    2.4622    1.5993   -1.0762 H   0  0  0  0  0  0  0  0  0  0  0  0
    2.9255   -0.1052   -0.8916 H   0  0  0  0  0  0  0  0  0  0  0  0
    0.5995    0.0530   -1.6335 H   0  0  0  0  0  0  0  0  0  0  0  0
    0.1821    1.1009   -0.2683 H   0  0  0  0  0  0  0  0  0  0  0  0
  1  2  1  0
  2  3  2  0
  3  4  1  0
  4  5  1  0
  5  6  1  0
  5  7  2  0
  7  8  1  0
  8  9  1  0
  9 10  1  0
 10 11  2  0
 11 12  1  0
 12 13  2  0
 13 14  1  0
 14 15  2  0
 15 16  1  0
 16 17  2  0
 16 18  1  0
 18 19  1  0
 19 20  1  0
 20 21  1  0
 21 22  1  0
 22 23  2  0
 23 24  1  0
 24 25  2  0
 25 26  1  0
 26 27  1  0
 27 28  1  0
 27 29  1  0
 27 30  1  0
 26 31  2  0
 21 32  1  0
 32 33  1  0
  7  2  1  0
 15 10  1  0
 33 18  1  0
 31 22  1  0
  1 34  1  0
  1 35  1  0
  1 36  1  0
  6 37  1  0
  6 38  1  0
  6 39  1  0
  8 40  1  0
  8 41  1  0
 11 42  1  0
 12 43  1  0
 13 44  1  0
 14 45  1  0
 19 46  1  0
 19 47  1  0
 20 48  1  0
 20 49  1  0
 23 50  1  0
 24 51  1  0
 25 52  1  0
 31 53  1  0
 32 54  1  0
 32 55  1  0
 33 56  1  0
 33 57  1  0
M  END
$$$$
