
     RDKit          3D

 45 47  0  0  0  0  0  0  0  0999 V2000
   -2.0267    1.9434    2.0114 C   0  0  0  0  0  0  0  0  0  0  0  0
   -1.9049    0.9322    1.0184 O   0  0  0  0  0  0  0  0  0  0  0  0
   -3.0737    0.4621    0.4650 C   0  0  0  0  0  0  0  0  0  0  0  0
   -4.3278    1.0620    0.6210 C   0  0  0  0  0  0  0  0  0  0  0  0
   -5.4539    0.4973    0.0181 C   0  0  0  0  0  0  0  0  0  0  0  0
   -5.3313   -0.6640   -0.7408 C   0  0  0  0  0  0  0  0  0  0  0  0
   -4.0807   -1.2607   -0.9138 C   0  0  0  0  0  0  0  0  0  0  0  0
   -2.9446   -0.7028   -0.3218 C   0  0  0  0  0  0  0  0  0  0  0  0
   -1.6457   -1.2474   -0.4533 N   0  0  0  0  0  0  0  0  0  0  0  0
   -1.2530   -2.3503   -1.1755 C   0  0  0  0  0  0  0  0  0  0  0  0
   -1.9771   -3.0360   -1.8918 O   0  0  0  0  0  0  0  0  0  0  0  0
    0.2392   -2.6777   -1.0841 C   0  0  0  0  0  0  0  0  0  0  0  0
    0.7506   -2.7537    0.3633 C   0  0  0  0  0  0  0  0  0  0  0  0
    1.7262   -1.6318    0.7072 C   0  0  0  0  0  0  0  0  0  0  0  0
    1.2201   -0.3705    0.1325 N   0  0  0  0  0  0  0  0  0  0  0  0
    1.7034    1.0761    0.9056 S   0  0  0  0  0  6  0  0  0  0  0  0
    1.0710    2.1759    0.2092 O   0  0  0  0  0  0  0  0  0  0  0  0
    1.5582    0.9076    2.3358 O   0  0  0  0  0  0  0  0  0  0  0  0
    3.4465    1.3294    0.6076 C   0  0  0  0  0  0  0  0  0  0  0  0
    4.1144    2.2018   -0.2322 C   0  0  0  0  0  0  0  0  0  0  0  0
    5.5294    2.0627   -0.1507 C   0  0  0  0  0  0  0  0  0  0  0  0
    5.8976    1.0823    0.7433 C   0  0  0  0  0  0  0  0  0  0  0  0
    4.5430    0.3489    1.4841 S   0  0  0  0  0  0  0  0  0  0  0  0
    1.2379   -0.3292   -1.3513 C   0  0  0  0  0  0  0  0  0  0  0  0
    1.0629   -1.7237   -1.9532 C   0  0  0  0  0  0  0  0  0  0  0  0
   -1.0377    2.1149    2.4437 H   0  0  0  0  0  0  0  0  0  0  0  0
   -2.6925    1.6283    2.8217 H   0  0  0  0  0  0  0  0  0  0  0  0
   -2.3623    2.8857    1.5660 H   0  0  0  0  0  0  0  0  0  0  0  0
   -4.4613    1.9756    1.1912 H   0  0  0  0  0  0  0  0  0  0  0  0
   -6.4288    0.9642    0.1394 H   0  0  0  0  0  0  0  0  0  0  0  0
   -6.2077   -1.1048   -1.2089 H   0  0  0  0  0  0  0  0  0  0  0  0
   -4.0268   -2.1607   -1.5154 H   0  0  0  0  0  0  0  0  0  0  0  0
   -0.9349   -0.7214    0.0573 H   0  0  0  0  0  0  0  0  0  0  0  0
    0.3346   -3.6861   -1.5098 H   0  0  0  0  0  0  0  0  0  0  0  0
    1.2622   -3.7116    0.5193 H   0  0  0  0  0  0  0  0  0  0  0  0
   -0.0850   -2.7465    1.0754 H   0  0  0  0  0  0  0  0  0  0  0  0
    2.7174   -1.8593    0.2983 H   0  0  0  0  0  0  0  0  0  0  0  0
    1.8163   -1.5736    1.7962 H   0  0  0  0  0  0  0  0  0  0  0  0
    3.5970    2.9171   -0.8633 H   0  0  0  0  0  0  0  0  0  0  0  0
    6.2414    2.6542   -0.7141 H   0  0  0  0  0  0  0  0  0  0  0  0
    6.8989    0.7675    1.0066 H   0  0  0  0  0  0  0  0  0  0  0  0
    2.1775    0.0963   -1.7164 H   0  0  0  0  0  0  0  0  0  0  0  0
    0.4220    0.3152   -1.6906 H   0  0  0  0  0  0  0  0  0  0  0  0
    0.6292   -1.6337   -2.9555 H   0  0  0  0  0  0  0  0  0  0  0  0
    2.0593   -2.1649   -2.0953 H   0  0  0  0  0  0  0  0  0  0  0  0
  1  2  1  0
  2  3  1  0
  3  4  2  0
  4  5  1  0
  5  6  2  0
  6  7  1  0
  7  8  2  0
  8  9  1  0
  9 10  1  0
 10 11  2  0
 10 12  1  0
 12 13  1  0
 13 14  1  0
 14 15  1  0
 15 16  1  0
 16 17  2  0
 16 18  2  0
 16 19  1  0
 19 20  2  0
 20 21  1  0
 21 22  2  0
 22 23  1  0
 15 24  1  0
 24 25  1  0
  8  3  1  0
 25 12  1  0
 23 19  1  0
  1 26  1  0
  1 27  1  0
  1 28  1  0
  4 29  1  0
  5 30  1  0
  6 31  1  0
  7 32  1  0
  9 33  1  0
 12 34  1  0
 13 35  1  0
 13 36  1  0
 14 37  1  0
 14 38  1  0
 20 39  1  0
 21 40  1  0
 22 41  1  0
 24 42  1  0
 24 43  1  0
 25 44  1  0
 25 45  1  0
M  END
$$$$
