
     RDKit          3D

 53 56  0  0  0  0  0  0  0  0999 V2000
    7.1296    0.2055   -1.0978 C   0  0  0  0  0  0  0  0  0  0  0  0
    5.8541   -0.3283   -0.5185 C   0  0  0  0  0  0  0  0  0  0  0  0
    4.6965   -0.3374   -1.2712 C   0  0  0  0  0  0  0  0  0  0  0  0
    3.5378   -0.8403   -0.6814 C   0  0  0  0  0  0  0  0  0  0  0  0
    2.3043   -0.7716   -1.4973 C   0  0  0  0  0  0  0  0  0  0  0  0
    2.2910   -1.3507   -2.5743 O   0  0  0  0  0  0  0  0  0  0  0  0
    1.3084    0.0073   -0.9385 N   0  0  0  0  0  0  0  0  0  0  0  0
    0.0296    0.2689   -1.4696 C   0  0  0  0  0  0  0  0  0  0  0  0
   -0.4365   -0.2534   -2.6712 C   0  0  0  0  0  0  0  0  0  0  0  0
   -1.7148    0.0727   -3.1390 C   0  0  0  0  0  0  0  0  0  0  0  0
   -2.5737    0.9136   -2.4112 C   0  0  0  0  0  0  0  0  0  0  0  0
   -3.9020    1.2537   -3.0250 C   0  0  0  0  0  0  0  0  0  0  0  0
   -2.1132    1.4128   -1.1802 C   0  0  0  0  0  0  0  0  0  0  0  0
   -3.0678    2.5176   -0.1382 S   0  0  0  0  0  6  0  0  0  0  0  0
   -2.1185    3.3335    0.5924 O   0  0  0  0  0  0  0  0  0  0  0  0
   -4.1062    3.1399   -0.9290 O   0  0  0  0  0  0  0  0  0  0  0  0
   -3.8119    1.4834    0.9821 N   0  0  0  0  0  0  0  0  0  0  0  0
   -2.9322    0.7858    1.9602 C   0  0  0  0  0  0  0  0  0  0  0  0
   -3.7888    0.1932    3.0849 C   0  0  0  0  0  0  0  0  0  0  0  0
   -4.7713   -0.7113    2.5575 O   0  0  0  0  0  0  0  0  0  0  0  0
   -5.6527   -0.0165    1.6613 C   0  0  0  0  0  0  0  0  0  0  0  0
   -4.8828    0.5816    0.4767 C   0  0  0  0  0  0  0  0  0  0  0  0
   -0.8118    1.1063   -0.7327 C   0  0  0  0  0  0  0  0  0  0  0  0
    3.5501   -1.3698    0.6281 C   0  0  0  0  0  0  0  0  0  0  0  0
    2.4383   -1.9678    1.2769 C   0  0  0  0  0  0  0  0  0  0  0  0
    2.5422   -2.4544    2.5784 C   0  0  0  0  0  0  0  0  0  0  0  0
    3.7538   -2.3590    3.2470 C   0  0  0  0  0  0  0  0  0  0  0  0
    4.8556   -1.7893    2.6049 C   0  0  0  0  0  0  0  0  0  0  0  0
    4.7810   -1.3010    1.3072 C   0  0  0  0  0  0  0  0  0  0  0  0
    5.8927   -0.7853    0.7541 N   0  0  0  0  0  0  0  0  0  0  0  0
    7.9436    0.1467   -0.3680 H   0  0  0  0  0  0  0  0  0  0  0  0
    7.0049    1.2541   -1.3853 H   0  0  0  0  0  0  0  0  0  0  0  0
    7.4180   -0.3775   -1.9780 H   0  0  0  0  0  0  0  0  0  0  0  0
    4.6847    0.0416   -2.2886 H   0  0  0  0  0  0  0  0  0  0  0  0
    1.5343    0.4703   -0.0650 H   0  0  0  0  0  0  0  0  0  0  0  0
    0.1747   -0.9081   -3.2856 H   0  0  0  0  0  0  0  0  0  0  0  0
   -2.0279   -0.3362   -4.0994 H   0  0  0  0  0  0  0  0  0  0  0  0
   -4.0954    0.6480   -3.9177 H   0  0  0  0  0  0  0  0  0  0  0  0
   -4.7224    1.0488   -2.3346 H   0  0  0  0  0  0  0  0  0  0  0  0
   -3.9199    2.3018   -3.3381 H   0  0  0  0  0  0  0  0  0  0  0  0
   -2.3971   -0.0228    1.4505 H   0  0  0  0  0  0  0  0  0  0  0  0
   -2.2082    1.4809    2.3951 H   0  0  0  0  0  0  0  0  0  0  0  0
   -4.2944    0.9797    3.6579 H   0  0  0  0  0  0  0  0  0  0  0  0
   -3.1558   -0.3717    3.7763 H   0  0  0  0  0  0  0  0  0  0  0  0
   -6.3919   -0.7373    1.2980 H   0  0  0  0  0  0  0  0  0  0  0  0
   -6.1887    0.7611    2.2187 H   0  0  0  0  0  0  0  0  0  0  0  0
   -5.5872    1.1348   -0.1505 H   0  0  0  0  0  0  0  0  0  0  0  0
   -4.4268   -0.2248   -0.1081 H   0  0  0  0  0  0  0  0  0  0  0  0
   -0.4556    1.5362    0.2017 H   0  0  0  0  0  0  0  0  0  0  0  0
    1.4857   -2.0809    0.7625 H   0  0  0  0  0  0  0  0  0  0  0  0
    1.6846   -2.9155    3.0622 H   0  0  0  0  0  0  0  0  0  0  0  0
    3.8535   -2.7373    4.2613 H   0  0  0  0  0  0  0  0  0  0  0  0
    5.8066   -1.7317    3.1308 H   0  0  0  0  0  0  0  0  0  0  0  0
  1  2  1  0
  2  3  2  0
  3  4  1  0
  4  5  1  0
  5  6  2  0
  5  7  1  0
  7  8  1  0
  8  9  2  0
  9 10  1  0
 10 11  2  0
 11 12  1  0
 11 13  1  0
 13 14  1  0
 14 15  2  0
 14 16  2  0
 14 17  1  0
 17 18  1  0
 18 19  1  0
 19 20  1  0
 20 21  1  0
 21 22  1  0
 13 23  2  0
  4 24  2  0
 24 25  1  0
 25 26  2  0
 26 27  1  0
 27 28  2  0
 28 29  1  0
 29 30  2  0
 30  2  1  0
 23  8  1  0
 29 24  1  0
 22 17  1  0
  1 31  1  0
  1 32  1  0
  1 33  1  0
  3 34  1  0
  7 35  1  0
  9 36  1  0
 10 37  1  0
 12 38  1  0
 12 39  1  0
 12 40  1  0
 18 41  1  0
 18 42  1  0
 19 43  1  0
 19 44  1  0
 21 45  1  0
 21 46  1  0
 22 47  1  0
 22 48  1  0
 23 49  1  0
 25 50  1  0
 26 51  1  0
 27 52  1  0
 28 53  1  0
M  END
$$$$
