
     RDKit          3D

 47 49  0  0  0  0  0  0  0  0999 V2000
    2.2099   -1.2430    0.4711 O   0  0  0  0  0  0  0  0  0  0  0  0
    1.4945   -0.5387   -0.2325 C   0  0  0  0  0  0  0  0  0  0  0  0
    0.0787   -0.9041   -0.6146 C   0  0  0  0  0  0  0  0  0  0  0  0
   -0.3517   -2.2021    0.0642 C   0  0  0  0  0  0  0  0  0  0  0  0
   -1.7225   -2.5768   -0.3002 N   0  0  0  0  0  0  0  0  0  0  0  0
   -2.7705   -2.0055    0.4064 C   0  0  0  0  0  0  0  0  0  0  0  0
   -2.6435   -1.1832    1.3021 O   0  0  0  0  0  0  0  0  0  0  0  0
   -4.0769   -2.5062   -0.1093 C   0  0  0  0  0  0  0  0  0  0  0  0
   -5.3075   -2.2059    0.3297 C   0  0  0  0  0  0  0  0  0  0  0  0
   -5.6262   -1.3139    1.4462 C   0  0  0  0  0  0  0  0  0  0  0  0
   -5.4159   -1.7198    2.7722 C   0  0  0  0  0  0  0  0  0  0  0  0
   -5.7337   -0.8608    3.8261 C   0  0  0  0  0  0  0  0  0  0  0  0
   -6.2633    0.3956    3.5510 C   0  0  0  0  0  0  0  0  0  0  0  0
   -6.5685    1.2188    4.5627 F   0  0  0  0  0  0  0  0  0  0  0  0
   -6.4854    0.8095    2.2416 C   0  0  0  0  0  0  0  0  0  0  0  0
   -6.1687   -0.0476    1.1857 C   0  0  0  0  0  0  0  0  0  0  0  0
   -3.8060   -3.5693   -1.4415 S   0  0  0  0  0  0  0  0  0  0  0  0
   -2.0586   -3.4008   -1.3529 C   0  0  0  0  0  0  0  0  0  0  0  0
   -1.0417   -4.1556   -2.4383 S   0  0  0  0  0  0  0  0  0  0  0  0
    1.9083    0.6606   -0.7712 N   0  0  0  0  0  0  0  0  0  0  0  0
    3.2285    1.1991   -0.5129 C   0  0  0  0  0  0  0  0  0  0  0  0
    4.2917    0.5317   -1.3842 C   0  0  0  0  0  0  0  0  0  0  0  0
    5.7042    1.0069   -1.0491 C   0  0  0  0  0  0  0  0  0  0  0  0
    5.9309    2.4014   -1.3659 N   0  0  0  0  0  0  0  0  0  0  0  0
    6.1265    2.9246   -2.6129 C   0  0  0  0  0  0  0  0  0  0  0  0
    6.2886    4.2749   -2.4075 C   0  0  0  0  0  0  0  0  0  0  0  0
    6.2020    4.5773   -1.0733 N   0  0  0  0  0  0  0  0  0  0  0  0
    6.0022    3.4279   -0.4687 C   0  0  0  0  0  0  0  0  0  0  0  0
   -0.5864   -0.0825   -0.3233 H   0  0  0  0  0  0  0  0  0  0  0  0
    0.0281   -1.0064   -1.7049 H   0  0  0  0  0  0  0  0  0  0  0  0
    0.3343   -3.0170   -0.1906 H   0  0  0  0  0  0  0  0  0  0  0  0
   -0.3023   -2.0829    1.1543 H   0  0  0  0  0  0  0  0  0  0  0  0
   -6.1820   -2.6302   -0.1602 H   0  0  0  0  0  0  0  0  0  0  0  0
   -4.9968   -2.6991    2.9938 H   0  0  0  0  0  0  0  0  0  0  0  0
   -5.5675   -1.1615    4.8559 H   0  0  0  0  0  0  0  0  0  0  0  0
   -6.8987    1.7961    2.0522 H   0  0  0  0  0  0  0  0  0  0  0  0
   -6.3410    0.2829    0.1635 H   0  0  0  0  0  0  0  0  0  0  0  0
    1.2714    1.1971   -1.3481 H   0  0  0  0  0  0  0  0  0  0  0  0
    3.4596    1.0582    0.5493 H   0  0  0  0  0  0  0  0  0  0  0  0
    3.1749    2.2741   -0.7121 H   0  0  0  0  0  0  0  0  0  0  0  0
    4.2532   -0.5557   -1.2461 H   0  0  0  0  0  0  0  0  0  0  0  0
    4.0654    0.7164   -2.4418 H   0  0  0  0  0  0  0  0  0  0  0  0
    5.9261    0.8573    0.0140 H   0  0  0  0  0  0  0  0  0  0  0  0
    6.4394    0.4291   -1.6216 H   0  0  0  0  0  0  0  0  0  0  0  0
    6.1343    2.3208   -3.5096 H   0  0  0  0  0  0  0  0  0  0  0  0
    6.4655    5.0439   -3.1486 H   0  0  0  0  0  0  0  0  0  0  0  0
    5.8974    3.2904    0.5998 H   0  0  0  0  0  0  0  0  0  0  0  0
  1  2  2  0
  2  3  1  0
  3  4  1  0
  4  5  1  0
  5  6  1  0
  6  7  2  0
  6  8  1  0
  8  9  2  3
  9 10  1  0
 10 11  2  0
 11 12  1  0
 12 13  2  0
 13 14  1  0
 13 15  1  0
 15 16  2  0
  8 17  1  0
 17 18  1  0
 18 19  2  0
  2 20  1  0
 20 21  1  0
 21 22  1  0
 22 23  1  0
 23 24  1  0
 24 25  1  0
 25 26  2  0
 26 27  1  0
 27 28  2  0
 18  5  1  0
 28 24  1  0
 16 10  1  0
  3 29  1  0
  3 30  1  0
  4 31  1  0
  4 32  1  0
  9 33  1  0
 11 34  1  0
 12 35  1  0
 15 36  1  0
 16 37  1  0
 20 38  1  0
 21 39  1  0
 21 40  1  0
 22 41  1  0
 22 42  1  0
 23 43  1  0
 23 44  1  0
 25 45  1  0
 26 46  1  0
 28 47  1  0
M  END
$$$$
