
     RDKit          3D

 35 37  0  0  0  0  0  0  0  0999 V2000
    0.1252    2.2188    0.0182 C   0  0  0  0  0  0  0  0  0  0  0  0
   -0.6447    0.9444   -0.1135 C   0  0  0  0  0  0  0  0  0  0  0  0
   -1.9646    0.7065    0.4034 C   0  0  0  0  0  0  0  0  0  0  0  0
   -2.8146    1.5783    1.1961 C   0  0  0  0  0  0  0  0  0  0  0  0
   -2.3608    2.7089    1.6334 N   0  0  0  0  0  0  0  0  0  0  0  0
   -3.3645    3.3510    2.3710 O   0  0  0  0  0  0  0  0  0  0  0  0
   -2.3302   -0.5640   -0.0096 C   0  0  0  0  0  0  0  0  0  0  0  0
   -3.5034   -1.3647    0.1640 C   0  0  0  0  0  0  0  0  0  0  0  0
   -3.5672   -2.5928   -0.3828 C   0  0  0  0  0  0  0  0  0  0  0  0
   -2.4667   -3.1366   -1.1530 C   0  0  0  0  0  0  0  0  0  0  0  0
   -1.3606   -2.3938   -1.3147 C   0  0  0  0  0  0  0  0  0  0  0  0
   -1.2857   -1.1144   -0.7493 N   0  0  0  0  0  0  0  0  0  0  0  0
   -0.2301   -0.2179   -0.7672 C   0  0  0  0  0  0  0  0  0  0  0  0
    1.0408   -0.5022   -1.4116 C   0  0  0  0  0  0  0  0  0  0  0  0
    1.1221   -0.9438   -2.5556 O   0  0  0  0  0  0  0  0  0  0  0  0
    2.3133   -0.2839   -0.6583 C   0  0  0  0  0  0  0  0  0  0  0  0
    2.3639   -0.3374    0.7436 C   0  0  0  0  0  0  0  0  0  0  0  0
    3.5773   -0.1390    1.4073 C   0  0  0  0  0  0  0  0  0  0  0  0
    4.7332    0.1007    0.6721 C   0  0  0  0  0  0  0  0  0  0  0  0
    5.8939    0.2892    1.3126 F   0  0  0  0  0  0  0  0  0  0  0  0
    4.7030    0.1419   -0.7169 C   0  0  0  0  0  0  0  0  0  0  0  0
    3.4928   -0.0552   -1.3850 C   0  0  0  0  0  0  0  0  0  0  0  0
   -0.5024    3.0781   -0.2388 H   0  0  0  0  0  0  0  0  0  0  0  0
    0.4891    2.3403    1.0431 H   0  0  0  0  0  0  0  0  0  0  0  0
    0.9849    2.2480   -0.6573 H   0  0  0  0  0  0  0  0  0  0  0  0
   -3.8423    1.2458    1.4219 H   0  0  0  0  0  0  0  0  0  0  0  0
   -2.9282    4.1818    2.6387 H   0  0  0  0  0  0  0  0  0  0  0  0
   -4.3439   -0.9824    0.7342 H   0  0  0  0  0  0  0  0  0  0  0  0
   -4.4526   -3.2095   -0.2610 H   0  0  0  0  0  0  0  0  0  0  0  0
   -2.5588   -4.1277   -1.5829 H   0  0  0  0  0  0  0  0  0  0  0  0
   -0.5086   -2.7480   -1.8819 H   0  0  0  0  0  0  0  0  0  0  0  0
    1.4723   -0.5404    1.3320 H   0  0  0  0  0  0  0  0  0  0  0  0
    3.6289   -0.1748    2.4913 H   0  0  0  0  0  0  0  0  0  0  0  0
    5.6190    0.3232   -1.2707 H   0  0  0  0  0  0  0  0  0  0  0  0
    3.4701   -0.0285   -2.4731 H   0  0  0  0  0  0  0  0  0  0  0  0
  1  2  1  0
  2  3  1  0
  3  4  1  0
  4  5  2  3
  5  6  1  0
  3  7  2  0
  7  8  1  0
  8  9  2  0
  9 10  1  0
 10 11  2  0
 11 12  1  0
 12 13  1  0
 13 14  1  0
 14 15  2  0
 14 16  1  0
 16 17  2  0
 17 18  1  0
 18 19  2  0
 19 20  1  0
 19 21  1  0
 21 22  2  0
 13  2  2  0
 22 16  1  0
 12  7  1  0
  1 23  1  0
  1 24  1  0
  1 25  1  0
  4 26  1  0
  6 27  1  0
  8 28  1  0
  9 29  1  0
 10 30  1  0
 11 31  1  0
 17 32  1  0
 18 33  1  0
 21 34  1  0
 22 35  1  0
M  END
$$$$
