
     RDKit          3D

 69 73  0  0  0  0  0  0  0  0999 V2000
   -3.6065    0.8568    5.8870 C   0  0  0  0  0  0  0  0  0  0  0  0
   -2.7977    1.1402    4.6565 C   0  0  0  0  0  0  0  0  0  0  0  0
   -1.6227    0.4269    4.3993 C   0  0  0  0  0  0  0  0  0  0  0  0
   -0.8896    0.6643    3.2337 C   0  0  0  0  0  0  0  0  0  0  0  0
   -1.3216    1.6134    2.2981 C   0  0  0  0  0  0  0  0  0  0  0  0
   -0.5436    1.8515    1.0185 C   0  0  0  0  0  0  0  0  0  0  0  0
   -1.0467    1.0527   -0.0996 N   0  0  0  0  0  0  0  0  0  0  0  0
   -2.1094    1.5906   -0.8457 C   0  0  0  0  0  0  0  0  0  0  0  0
   -2.4436    2.7747   -0.7662 O   0  0  0  0  0  0  0  0  0  0  0  0
   -2.7611    0.6112   -1.8603 C   0  0  0  0  0  0  0  0  0  0  0  0
   -4.1263    1.1212   -2.3637 C   0  0  0  0  0  0  0  0  0  0  0  0
   -4.4383    0.7576   -3.8331 C   0  0  0  0  0  0  0  0  0  0  0  0
   -5.7740    1.3848   -4.2456 C   0  0  0  0  0  0  0  0  0  0  0  0
   -4.4774   -0.7476   -4.0954 C   0  0  0  0  0  0  0  0  0  0  0  0
   -2.9306   -0.6982   -1.2301 N   0  0  0  0  0  0  0  0  0  0  0  0
   -1.7243   -1.2067   -0.7385 C   0  0  0  0  0  0  0  0  0  0  0  0
   -1.6018   -2.5380   -0.8057 N   0  0  0  0  0  0  0  0  0  0  0  0
   -0.4784   -3.0376   -0.2914 C   0  0  0  0  0  0  0  0  0  0  0  0
    0.5438   -2.3327    0.2068 N   0  0  0  0  0  0  0  0  0  0  0  0
    0.4294   -0.9879    0.2225 C   0  0  0  0  0  0  0  0  0  0  0  0
    1.5855   -0.2555    0.5505 N   0  0  0  0  0  0  0  0  0  0  0  0
    2.1791    0.4457   -0.6243 C   0  0  0  0  0  0  0  0  0  0  0  0
    3.5568   -0.1257   -1.0313 C   0  0  0  0  0  0  0  0  0  0  0  0
    4.5273   -0.0874    0.0962 N   0  0  0  0  0  0  0  0  0  0  0  0
    5.6855   -0.8255   -0.1907 C   0  0  0  0  0  0  0  0  0  0  0  0
    6.0018   -2.0464    0.4208 C   0  0  0  0  0  0  0  0  0  0  0  0
    7.1658   -2.7472    0.0834 C   0  0  0  0  0  0  0  0  0  0  0  0
    8.0369   -2.2392   -0.8754 C   0  0  0  0  0  0  0  0  0  0  0  0
    7.7430   -1.0314   -1.4990 C   0  0  0  0  0  0  0  0  0  0  0  0
    6.5784   -0.3369   -1.1590 C   0  0  0  0  0  0  0  0  0  0  0  0
    3.9086   -0.2141    1.4382 C   0  0  0  0  0  0  0  0  0  0  0  0
    2.5763   -0.9899    1.3776 C   0  0  0  0  0  0  0  0  0  0  0  0
   -0.7576   -0.3575   -0.1856 C   0  0  0  0  0  0  0  0  0  0  0  0
   -2.5081    2.3151    2.5525 C   0  0  0  0  0  0  0  0  0  0  0  0
   -3.2405    2.0781    3.7181 C   0  0  0  0  0  0  0  0  0  0  0  0
   -4.1315    1.7565    6.2246 H   0  0  0  0  0  0  0  0  0  0  0  0
   -4.3428    0.0741    5.6789 H   0  0  0  0  0  0  0  0  0  0  0  0
   -2.9638    0.5285    6.7108 H   0  0  0  0  0  0  0  0  0  0  0  0
   -1.2717   -0.3240    5.1034 H   0  0  0  0  0  0  0  0  0  0  0  0
    0.0196    0.0955    3.0573 H   0  0  0  0  0  0  0  0  0  0  0  0
    0.5201    1.7036    1.1968 H   0  0  0  0  0  0  0  0  0  0  0  0
   -0.6207    2.9162    0.7623 H   0  0  0  0  0  0  0  0  0  0  0  0
   -2.0658    0.5422   -2.7087 H   0  0  0  0  0  0  0  0  0  0  0  0
   -4.9305    0.7503   -1.7136 H   0  0  0  0  0  0  0  0  0  0  0  0
   -4.1674    2.2151   -2.2958 H   0  0  0  0  0  0  0  0  0  0  0  0
   -3.6563    1.1925   -4.4698 H   0  0  0  0  0  0  0  0  0  0  0  0
   -5.9920    1.1804   -5.2993 H   0  0  0  0  0  0  0  0  0  0  0  0
   -5.7507    2.4721   -4.1172 H   0  0  0  0  0  0  0  0  0  0  0  0
   -6.6007    0.9899   -3.6451 H   0  0  0  0  0  0  0  0  0  0  0  0
   -3.4896   -1.1987   -3.9650 H   0  0  0  0  0  0  0  0  0  0  0  0
   -5.1822   -1.2503   -3.4248 H   0  0  0  0  0  0  0  0  0  0  0  0
   -4.7873   -0.9549   -5.1253 H   0  0  0  0  0  0  0  0  0  0  0  0
   -3.3941   -1.4285   -1.7590 H   0  0  0  0  0  0  0  0  0  0  0  0
   -0.3762   -4.1168   -0.2906 H   0  0  0  0  0  0  0  0  0  0  0  0
    2.3069    1.5002   -0.3498 H   0  0  0  0  0  0  0  0  0  0  0  0
    1.5186    0.4264   -1.5002 H   0  0  0  0  0  0  0  0  0  0  0  0
    3.9410    0.4635   -1.8723 H   0  0  0  0  0  0  0  0  0  0  0  0
    3.4201   -1.1592   -1.3783 H   0  0  0  0  0  0  0  0  0  0  0  0
    5.3383   -2.4933    1.1539 H   0  0  0  0  0  0  0  0  0  0  0  0
    7.3870   -3.6936    0.5705 H   0  0  0  0  0  0  0  0  0  0  0  0
    8.9414   -2.7830   -1.1346 H   0  0  0  0  0  0  0  0  0  0  0  0
    8.4184   -0.6231   -2.2458 H   0  0  0  0  0  0  0  0  0  0  0  0
    6.3758    0.6158   -1.6434 H   0  0  0  0  0  0  0  0  0  0  0  0
    3.7105    0.8027    1.8017 H   0  0  0  0  0  0  0  0  0  0  0  0
    4.5846   -0.6632    2.1741 H   0  0  0  0  0  0  0  0  0  0  0  0
    2.1784   -1.1017    2.3930 H   0  0  0  0  0  0  0  0  0  0  0  0
    2.7827   -1.9916    0.9792 H   0  0  0  0  0  0  0  0  0  0  0  0
   -2.8760    3.0485    1.8366 H   0  0  0  0  0  0  0  0  0  0  0  0
   -4.1632    2.6284    3.8839 H   0  0  0  0  0  0  0  0  0  0  0  0
  1  2  1  0
  2  3  2  0
  3  4  1  0
  4  5  2  0
  5  6  1  0
  6  7  1  0
  7  8  1  0
  8  9  2  0
  8 10  1  0
 10 11  1  0
 11 12  1  0
 12 13  1  0
 12 14  1  0
 10 15  1  0
 15 16  1  0
 16 17  2  0
 17 18  1  0
 18 19  2  0
 19 20  1  0
 20 21  1  0
 21 22  1  0
 22 23  1  0
 23 24  1  0
 24 25  1  0
 25 26  2  0
 26 27  1  0
 27 28  2  0
 28 29  1  0
 29 30  2  0
 24 31  1  0
 31 32  1  0
 20 33  2  0
  5 34  1  0
 34 35  2  0
 35  2  1  0
 33  7  1  0
 33 16  1  0
 32 21  1  0
 30 25  1  0
  1 36  1  0
  1 37  1  0
  1 38  1  0
  3 39  1  0
  4 40  1  0
  6 41  1  0
  6 42  1  0
 10 43  1  0
 11 44  1  0
 11 45  1  0
 12 46  1  0
 13 47  1  0
 13 48  1  0
 13 49  1  0
 14 50  1  0
 14 51  1  0
 14 52  1  0
 15 53  1  0
 18 54  1  0
 22 55  1  0
 22 56  1  0
 23 57  1  0
 23 58  1  0
 26 59  1  0
 27 60  1  0
 28 61  1  0
 29 62  1  0
 30 63  1  0
 31 64  1  0
 31 65  1  0
 32 66  1  0
 32 67  1  0
 34 68  1  0
 35 69  1  0
M  END
$$$$
