
     RDKit          3D

 31 32  0  0  0  0  0  0  0  0999 V2000
   -6.0638    0.7136   -1.6137 N   0  0  0  0  0  0  0  0  0  0  0  0
   -4.8396    0.5070   -0.9431 N   0  0  0  0  0  0  0  0  0  0  0  0
   -4.7752   -0.3835    0.1205 C   0  0  0  0  0  0  0  0  0  0  0  0
   -5.7685   -0.9288    0.6017 O   0  0  0  0  0  0  0  0  0  0  0  0
   -3.3671   -0.6140    0.6643 C   0  0  0  0  0  0  0  0  0  0  0  0
   -2.3854   -0.0144   -0.1767 O   0  0  0  0  0  0  0  0  0  0  0  0
   -1.0794   -0.1453    0.2065 C   0  0  0  0  0  0  0  0  0  0  0  0
   -0.6181   -0.8144    1.3386 C   0  0  0  0  0  0  0  0  0  0  0  0
    0.7544   -0.8714    1.6136 C   0  0  0  0  0  0  0  0  0  0  0  0
    1.6920   -0.2615    0.7642 C   0  0  0  0  0  0  0  0  0  0  0  0
    3.1702   -0.3447    1.0897 C   0  0  0  0  0  0  0  0  0  0  0  0
    4.1070   -1.2709   -0.1732 S   0  0  0  0  0  0  0  0  0  0  0  0
    5.1528    0.1027   -0.7182 C   0  0  0  0  0  0  0  0  0  0  0  0
    5.4764    0.9495    0.4953 C   0  0  0  0  0  0  0  0  0  0  0  0
    3.9191    1.2981    1.3471 S   0  0  0  0  0  0  0  0  0  0  0  0
    1.2124    0.4074   -0.3734 C   0  0  0  0  0  0  0  0  0  0  0  0
   -0.1574    0.4632   -0.6458 C   0  0  0  0  0  0  0  0  0  0  0  0
   -6.5766    1.4351   -1.0980 H   0  0  0  0  0  0  0  0  0  0  0  0
   -6.6332   -0.1311   -1.4689 H   0  0  0  0  0  0  0  0  0  0  0  0
   -3.9637    0.7818   -1.3915 H   0  0  0  0  0  0  0  0  0  0  0  0
   -3.2137   -1.6985    0.7063 H   0  0  0  0  0  0  0  0  0  0  0  0
   -3.3344   -0.1698    1.6658 H   0  0  0  0  0  0  0  0  0  0  0  0
   -1.2925   -1.3057    2.0323 H   0  0  0  0  0  0  0  0  0  0  0  0
    1.0851   -1.4022    2.5048 H   0  0  0  0  0  0  0  0  0  0  0  0
    3.3046   -0.8923    2.0287 H   0  0  0  0  0  0  0  0  0  0  0  0
    6.0662   -0.2881   -1.1766 H   0  0  0  0  0  0  0  0  0  0  0  0
    4.6194    0.6811   -1.4806 H   0  0  0  0  0  0  0  0  0  0  0  0
    6.1541    0.4283    1.1803 H   0  0  0  0  0  0  0  0  0  0  0  0
    5.9561    1.8877    0.2010 H   0  0  0  0  0  0  0  0  0  0  0  0
    1.9020    0.8934   -1.0602 H   0  0  0  0  0  0  0  0  0  0  0  0
   -0.5033    0.9875   -1.5333 H   0  0  0  0  0  0  0  0  0  0  0  0
  1  2  1  0
  2  3  1  0
  3  4  2  0
  3  5  1  0
  5  6  1  0
  6  7  1  0
  7  8  2  0
  8  9  1  0
  9 10  2  0
 10 11  1  0
 11 12  1  0
 12 13  1  0
 13 14  1  0
 14 15  1  0
 10 16  1  0
 16 17  2  0
 17  7  1  0
 15 11  1  0
  1 18  1  0
  1 19  1  0
  2 20  1  0
  5 21  1  0
  5 22  1  0
  8 23  1  0
  9 24  1  0
 11 25  1  0
 13 26  1  0
 13 27  1  0
 14 28  1  0
 14 29  1  0
 16 30  1  0
 17 31  1  0
M  END
$$$$
