
     RDKit          3D

 35 37  0  0  0  0  0  0  0  0999 V2000
    0.0958   -1.8795    0.1305 O   0  0  0  0  0  0  0  0  0  0  0  0
    0.1010   -0.8067    0.7278 C   0  0  0  0  0  0  0  0  0  0  0  0
    1.1532   -0.3777    1.5067 N   0  0  0  0  0  0  0  0  0  0  0  0
    2.4073   -1.0807    1.5729 C   0  0  0  0  0  0  0  0  0  0  0  0
    3.3990   -0.5043    0.5946 C   0  0  0  0  0  0  0  0  0  0  0  0
    4.2828    0.5135    0.9875 C   0  0  0  0  0  0  0  0  0  0  0  0
    5.1823    1.0586    0.0697 C   0  0  0  0  0  0  0  0  0  0  0  0
    5.1936    0.5933   -1.2399 C   0  0  0  0  0  0  0  0  0  0  0  0
    6.0570    1.1191   -2.1188 F   0  0  0  0  0  0  0  0  0  0  0  0
    4.3203   -0.4055   -1.6519 C   0  0  0  0  0  0  0  0  0  0  0  0
    3.4203   -0.9524   -0.7365 C   0  0  0  0  0  0  0  0  0  0  0  0
   -1.0178    0.1393    0.6678 C   0  0  0  0  0  0  0  0  0  0  0  0
   -0.9850    1.3144    1.3355 N   0  0  0  0  0  0  0  0  0  0  0  0
   -2.1924    1.9474    1.0662 O   0  0  0  0  0  0  0  0  0  0  0  0
   -2.9214    1.1554    0.2547 C   0  0  0  0  0  0  0  0  0  0  0  0
   -2.2368    0.0071   -0.0416 C   0  0  0  0  0  0  0  0  0  0  0  0
   -2.8001   -1.0551   -0.9098 C   0  0  0  0  0  0  0  0  0  0  0  0
   -4.0177   -0.5197   -1.7001 C   0  0  0  0  0  0  0  0  0  0  0  0
   -4.9635    0.3430   -0.8328 C   0  0  0  0  0  0  0  0  0  0  0  0
   -4.2544    1.5713   -0.2216 C   0  0  0  0  0  0  0  0  0  0  0  0
    1.0926    0.5715    1.8602 H   0  0  0  0  0  0  0  0  0  0  0  0
    2.2599   -2.1494    1.3802 H   0  0  0  0  0  0  0  0  0  0  0  0
    2.7843   -0.9856    2.5972 H   0  0  0  0  0  0  0  0  0  0  0  0
    4.2747    0.8873    2.0090 H   0  0  0  0  0  0  0  0  0  0  0  0
    5.8707    1.8436    0.3657 H   0  0  0  0  0  0  0  0  0  0  0  0
    4.3417   -0.7490   -2.6810 H   0  0  0  0  0  0  0  0  0  0  0  0
    2.7287   -1.7276   -1.0639 H   0  0  0  0  0  0  0  0  0  0  0  0
   -2.0468   -1.4285   -1.6116 H   0  0  0  0  0  0  0  0  0  0  0  0
   -3.1174   -1.8968   -0.2829 H   0  0  0  0  0  0  0  0  0  0  0  0
   -3.6620    0.0894   -2.5414 H   0  0  0  0  0  0  0  0  0  0  0  0
   -4.5712   -1.3629   -2.1287 H   0  0  0  0  0  0  0  0  0  0  0  0
   -5.3639   -0.2830   -0.0246 H   0  0  0  0  0  0  0  0  0  0  0  0
   -5.8190    0.6765   -1.4310 H   0  0  0  0  0  0  0  0  0  0  0  0
   -4.8563    1.9862    0.5931 H   0  0  0  0  0  0  0  0  0  0  0  0
   -4.1395    2.3475   -0.9864 H   0  0  0  0  0  0  0  0  0  0  0  0
  1  2  2  0
  2  3  1  0
  3  4  1  0
  4  5  1  0
  5  6  2  0
  6  7  1  0
  7  8  2  0
  8  9  1  0
  8 10  1  0
 10 11  2  0
  2 12  1  0
 12 13  2  0
 13 14  1  0
 14 15  1  0
 15 16  2  0
 16 17  1  0
 17 18  1  0
 18 19  1  0
 19 20  1  0
 11  5  1  0
 16 12  1  0
 20 15  1  0
  3 21  1  0
  4 22  1  0
  4 23  1  0
  6 24  1  0
  7 25  1  0
 10 26  1  0
 11 27  1  0
 17 28  1  0
 17 29  1  0
 18 30  1  0
 18 31  1  0
 19 32  1  0
 19 33  1  0
 20 34  1  0
 20 35  1  0
M  END
$$$$
