
     RDKit          3D

 52 55  0  0  0  0  0  0  0  0999 V2000
    7.3365    0.6132   -1.1265 C   0  0  0  0  0  0  0  0  0  0  0  0
    6.5330    1.8823   -0.8872 C   0  0  0  0  0  0  0  0  0  0  0  0
    5.0510    1.6077   -0.8448 C   0  0  0  0  0  0  0  0  0  0  0  0
    4.2870    1.6445   -2.0183 C   0  0  0  0  0  0  0  0  0  0  0  0
    2.9154    1.3736   -1.9843 C   0  0  0  0  0  0  0  0  0  0  0  0
    2.2934    1.0565   -0.7728 C   0  0  0  0  0  0  0  0  0  0  0  0
    0.8433    0.7618   -0.6992 C   0  0  0  0  0  0  0  0  0  0  0  0
    0.2160    0.5549    0.4192 N   0  0  0  0  0  0  0  0  0  0  0  0
   -1.0883    0.2923    0.1102 N   0  0  0  0  0  0  0  0  0  0  0  0
   -2.0476    0.1689    1.1132 C   0  0  0  0  0  0  0  0  0  0  0  0
   -3.4070   -0.0542    0.8344 C   0  0  0  0  0  0  0  0  0  0  0  0
   -4.3596   -0.1732    1.8546 C   0  0  0  0  0  0  0  0  0  0  0  0
   -3.9591   -0.0630    3.1843 C   0  0  0  0  0  0  0  0  0  0  0  0
   -5.1481   -0.2029    4.4888 S   0  0  0  0  0  6  0  0  0  0  0  0
   -5.4014    1.4153    4.8862 N   0  0  0  0  0  0  0  0  0  0  0  0
   -6.3996   -0.6589    3.9278 O   0  0  0  0  0  0  0  0  0  0  0  0
   -4.5199   -0.8471    5.6168 O   0  0  0  0  0  0  0  0  0  0  0  0
   -2.6191    0.1430    3.5017 C   0  0  0  0  0  0  0  0  0  0  0  0
   -1.6822    0.2615    2.4701 C   0  0  0  0  0  0  0  0  0  0  0  0
   -1.3242    0.1852   -1.3312 C   0  0  0  0  0  0  0  0  0  0  0  0
   -1.5983   -1.2394   -1.7968 C   0  0  0  0  0  0  0  0  0  0  0  0
   -0.9876   -2.3526   -1.1906 C   0  0  0  0  0  0  0  0  0  0  0  0
   -1.2406   -3.6444   -1.6546 C   0  0  0  0  0  0  0  0  0  0  0  0
   -2.0979   -3.8299   -2.7307 C   0  0  0  0  0  0  0  0  0  0  0  0
   -2.3390   -5.0690   -3.1783 F   0  0  0  0  0  0  0  0  0  0  0  0
   -2.7074   -2.7478   -3.3532 C   0  0  0  0  0  0  0  0  0  0  0  0
   -2.4571   -1.4544   -2.8905 C   0  0  0  0  0  0  0  0  0  0  0  0
   -0.0198    0.7149   -1.9299 C   0  0  0  0  0  0  0  0  0  0  0  0
    3.0539    1.0142    0.4010 C   0  0  0  0  0  0  0  0  0  0  0  0
    4.4238    1.2851    0.3645 C   0  0  0  0  0  0  0  0  0  0  0  0
    8.4065    0.8421   -1.1525 H   0  0  0  0  0  0  0  0  0  0  0  0
    7.0663    0.1456   -2.0794 H   0  0  0  0  0  0  0  0  0  0  0  0
    7.1657   -0.1210   -0.3319 H   0  0  0  0  0  0  0  0  0  0  0  0
    6.7501    2.6130   -1.6759 H   0  0  0  0  0  0  0  0  0  0  0  0
    6.8488    2.3493    0.0536 H   0  0  0  0  0  0  0  0  0  0  0  0
    4.7583    1.8851   -2.9693 H   0  0  0  0  0  0  0  0  0  0  0  0
    2.3588    1.4187   -2.9151 H   0  0  0  0  0  0  0  0  0  0  0  0
   -3.7555   -0.1503   -0.1898 H   0  0  0  0  0  0  0  0  0  0  0  0
   -5.4003   -0.3566    1.5967 H   0  0  0  0  0  0  0  0  0  0  0  0
   -4.7377    2.0457    4.4375 H   0  0  0  0  0  0  0  0  0  0  0  0
   -6.3686    1.6587    4.6665 H   0  0  0  0  0  0  0  0  0  0  0  0
   -2.2911    0.2061    4.5370 H   0  0  0  0  0  0  0  0  0  0  0  0
   -0.6378    0.4212    2.7333 H   0  0  0  0  0  0  0  0  0  0  0  0
   -2.1523    0.8401   -1.6307 H   0  0  0  0  0  0  0  0  0  0  0  0
   -0.3168   -2.2184   -0.3426 H   0  0  0  0  0  0  0  0  0  0  0  0
   -0.7759   -4.5031   -1.1806 H   0  0  0  0  0  0  0  0  0  0  0  0
   -3.3725   -2.9193   -4.1937 H   0  0  0  0  0  0  0  0  0  0  0  0
   -2.9392   -0.6160   -3.3892 H   0  0  0  0  0  0  0  0  0  0  0  0
   -0.1473    1.7351   -2.3074 H   0  0  0  0  0  0  0  0  0  0  0  0
    0.4070    0.0781   -2.7096 H   0  0  0  0  0  0  0  0  0  0  0  0
    2.5867    0.7669    1.3523 H   0  0  0  0  0  0  0  0  0  0  0  0
    4.9976    1.2411    1.2879 H   0  0  0  0  0  0  0  0  0  0  0  0
  1  2  1  0
  2  3  1  0
  3  4  2  0
  4  5  1  0
  5  6  2  0
  6  7  1  0
  7  8  2  0
  8  9  1  0
  9 10  1  0
 10 11  2  0
 11 12  1  0
 12 13  2  0
 13 14  1  0
 14 15  1  0
 14 16  2  0
 14 17  2  0
 13 18  1  0
 18 19  2  0
  9 20  1  0
 20 21  1  0
 21 22  2  0
 22 23  1  0
 23 24  2  0
 24 25  1  0
 24 26  1  0
 26 27  2  0
 20 28  1  0
  6 29  1  0
 29 30  2  0
 30  3  1  0
 28  7  1  0
 19 10  1  0
 27 21  1  0
  1 31  1  0
  1 32  1  0
  1 33  1  0
  2 34  1  0
  2 35  1  0
  4 36  1  0
  5 37  1  0
 11 38  1  0
 12 39  1  0
 15 40  1  0
 15 41  1  0
 18 42  1  0
 19 43  1  0
 20 44  1  0
 22 45  1  0
 23 46  1  0
 26 47  1  0
 27 48  1  0
 28 49  1  0
 28 50  1  0
 29 51  1  0
 30 52  1  0
M  END
$$$$
