
     RDKit          3D

 44 46  0  0  0  0  0  0  0  0999 V2000
   -4.6432   -0.6186    2.0427 C   0  0  0  0  0  0  0  0  0  0  0  0
   -5.4470   -0.2013    0.8417 C   0  0  0  0  0  0  0  0  0  0  0  0
   -6.8482   -0.1918    0.9148 C   0  0  0  0  0  0  0  0  0  0  0  0
   -7.6120    0.1920   -0.1857 C   0  0  0  0  0  0  0  0  0  0  0  0
   -6.9829    0.5700   -1.3678 C   0  0  0  0  0  0  0  0  0  0  0  0
   -5.5885    0.5651   -1.4542 C   0  0  0  0  0  0  0  0  0  0  0  0
   -4.8135    0.1812   -0.3552 C   0  0  0  0  0  0  0  0  0  0  0  0
   -3.4440    0.1428   -0.3370 O   0  0  0  0  0  0  0  0  0  0  0  0
   -2.7598    0.5140   -1.5306 C   0  0  0  0  0  0  0  0  0  0  0  0
   -1.2428    0.4115   -1.3436 C   0  0  0  0  0  0  0  0  0  0  0  0
   -0.4853    0.6848   -2.2704 O   0  0  0  0  0  0  0  0  0  0  0  0
   -0.8907   -0.0002   -0.0797 N   0  0  0  0  0  0  0  0  0  0  0  0
    0.3695   -0.1934    0.4185 C   0  0  0  0  0  0  0  0  0  0  0  0
    0.5816   -0.5941    1.6517 N   0  0  0  0  0  0  0  0  0  0  0  0
    1.9262   -0.7208    1.9350 N   0  0  0  0  0  0  0  0  0  0  0  0
    2.6844   -0.4101    0.9019 C   0  0  0  0  0  0  0  0  0  0  0  0
    4.1912   -0.4557    0.9267 C   0  0  0  0  0  0  0  0  0  0  0  0
    4.8037    0.9558    0.8760 C   0  0  0  0  0  0  0  0  0  0  0  0
    6.2853    0.8968    0.5248 C   0  0  0  0  0  0  0  0  0  0  0  0
    6.5219    0.2840   -0.8564 C   0  0  0  0  0  0  0  0  0  0  0  0
    5.4176   -0.6757   -1.3026 C   0  0  0  0  0  0  0  0  0  0  0  0
    4.7856   -1.4136   -0.1257 C   0  0  0  0  0  0  0  0  0  0  0  0
    1.7861    0.0611   -0.4884 S   0  0  0  0  0  0  0  0  0  0  0  0
   -4.0274   -1.4912    1.8020 H   0  0  0  0  0  0  0  0  0  0  0  0
   -5.2884   -0.8901    2.8848 H   0  0  0  0  0  0  0  0  0  0  0  0
   -3.9976    0.2029    2.3700 H   0  0  0  0  0  0  0  0  0  0  0  0
   -7.3535   -0.4846    1.8326 H   0  0  0  0  0  0  0  0  0  0  0  0
   -8.6970    0.1962   -0.1198 H   0  0  0  0  0  0  0  0  0  0  0  0
   -7.5788    0.8698   -2.2263 H   0  0  0  0  0  0  0  0  0  0  0  0
   -5.1439    0.8680   -2.3964 H   0  0  0  0  0  0  0  0  0  0  0  0
   -2.9821    1.5563   -1.7864 H   0  0  0  0  0  0  0  0  0  0  0  0
   -3.0292   -0.1643   -2.3482 H   0  0  0  0  0  0  0  0  0  0  0  0
   -1.6403   -0.1901    0.5768 H   0  0  0  0  0  0  0  0  0  0  0  0
    4.4585   -0.8836    1.9048 H   0  0  0  0  0  0  0  0  0  0  0  0
    4.2926    1.5904    0.1413 H   0  0  0  0  0  0  0  0  0  0  0  0
    4.6707    1.4477    1.8477 H   0  0  0  0  0  0  0  0  0  0  0  0
    6.7250    1.8999    0.5625 H   0  0  0  0  0  0  0  0  0  0  0  0
    6.8101    0.2992    1.2811 H   0  0  0  0  0  0  0  0  0  0  0  0
    7.4863   -0.2384   -0.8480 H   0  0  0  0  0  0  0  0  0  0  0  0
    6.6153    1.0813   -1.6040 H   0  0  0  0  0  0  0  0  0  0  0  0
    5.8280   -1.3951   -2.0205 H   0  0  0  0  0  0  0  0  0  0  0  0
    4.6452   -0.1126   -1.8396 H   0  0  0  0  0  0  0  0  0  0  0  0
    5.5708   -2.0138    0.3542 H   0  0  0  0  0  0  0  0  0  0  0  0
    4.0404   -2.1317   -0.4883 H   0  0  0  0  0  0  0  0  0  0  0  0
  1  2  1  0
  2  3  2  0
  3  4  1  0
  4  5  2  0
  5  6  1  0
  6  7  2  0
  7  8  1  0
  8  9  1  0
  9 10  1  0
 10 11  2  0
 10 12  1  0
 12 13  1  0
 13 14  2  0
 14 15  1  0
 15 16  2  0
 16 17  1  0
 17 18  1  0
 18 19  1  0
 19 20  1  0
 20 21  1  0
 21 22  1  0
 16 23  1  0
  7  2  1  0
 23 13  1  0
 22 17  1  0
  1 24  1  0
  1 25  1  0
  1 26  1  0
  3 27  1  0
  4 28  1  0
  5 29  1  0
  6 30  1  0
  9 31  1  0
  9 32  1  0
 12 33  1  0
 17 34  1  0
 18 35  1  0
 18 36  1  0
 19 37  1  0
 19 38  1  0
 20 39  1  0
 20 40  1  0
 21 41  1  0
 21 42  1  0
 22 43  1  0
 22 44  1  0
M  END
$$$$
