
     RDKit          3D

 59 62  0  0  0  0  0  0  0  0999 V2000
    2.6850   -0.9040   -2.4936 O   0  0  0  0  0  0  0  0  0  0  0  0
    1.6977   -0.6956   -1.7921 C   0  0  0  0  0  0  0  0  0  0  0  0
    0.4707   -0.9131   -2.3443 N   0  0  0  0  0  0  0  0  0  0  0  0
   -0.6781   -0.3156   -1.9253 C   0  0  0  0  0  0  0  0  0  0  0  0
   -1.5966   -0.1050   -2.7118 O   0  0  0  0  0  0  0  0  0  0  0  0
   -0.7419   -0.0136   -0.4472 C   0  0  0  0  0  0  0  0  0  0  0  0
   -1.8215    1.0594   -0.1483 C   0  0  0  0  0  0  0  0  0  0  0  0
   -1.5457    2.4357   -0.7802 C   0  0  0  0  0  0  0  0  0  0  0  0
   -2.6434    3.4143   -0.4484 C   0  0  0  0  0  0  0  0  0  0  0  0
   -3.7646    3.5368   -1.2724 C   0  0  0  0  0  0  0  0  0  0  0  0
   -4.7568    4.4360   -0.9131 C   0  0  0  0  0  0  0  0  0  0  0  0
   -4.7100    5.2049    0.1958 N   0  0  0  0  0  0  0  0  0  0  0  0
   -3.6200    5.0668    0.9806 C   0  0  0  0  0  0  0  0  0  0  0  0
   -2.5764    4.1961    0.7072 C   0  0  0  0  0  0  0  0  0  0  0  0
   -1.0555   -1.3427    0.3076 C   0  0  0  0  0  0  0  0  0  0  0  0
   -2.4472   -1.9362    0.0443 C   0  0  0  0  0  0  0  0  0  0  0  0
   -2.5939   -3.2869    0.6992 C   0  0  0  0  0  0  0  0  0  0  0  0
   -2.3727   -4.4609   -0.0251 C   0  0  0  0  0  0  0  0  0  0  0  0
   -2.4993   -5.6779    0.6274 C   0  0  0  0  0  0  0  0  0  0  0  0
   -2.8209   -5.8014    1.9324 N   0  0  0  0  0  0  0  0  0  0  0  0
   -3.0303   -4.6557    2.6145 C   0  0  0  0  0  0  0  0  0  0  0  0
   -2.9283   -3.3926    2.0518 C   0  0  0  0  0  0  0  0  0  0  0  0
    0.6221    0.4304    0.0709 C   0  0  0  0  0  0  0  0  0  0  0  0
    0.7118    1.2349    1.0007 O   0  0  0  0  0  0  0  0  0  0  0  0
    1.7344   -0.1788   -0.5088 N   0  0  0  0  0  0  0  0  0  0  0  0
    3.0441    0.0970    0.1196 C   0  0  0  0  0  0  0  0  0  0  0  0
    3.7720    1.2834   -0.5363 C   0  0  0  0  0  0  0  0  0  0  0  0
    5.0888    1.5915    0.1744 C   0  0  0  0  0  0  0  0  0  0  0  0
    5.9834    0.3587    0.2705 C   0  0  0  0  0  0  0  0  0  0  0  0
    5.2624   -0.8129    0.9318 C   0  0  0  0  0  0  0  0  0  0  0  0
    3.9534   -1.1425    0.2153 C   0  0  0  0  0  0  0  0  0  0  0  0
    0.5082   -1.1257   -3.3331 H   0  0  0  0  0  0  0  0  0  0  0  0
   -2.7991    0.7150   -0.5097 H   0  0  0  0  0  0  0  0  0  0  0  0
   -1.9258    1.1786    0.9391 H   0  0  0  0  0  0  0  0  0  0  0  0
   -1.4588    2.3565   -1.8699 H   0  0  0  0  0  0  0  0  0  0  0  0
   -0.5910    2.8490   -0.4367 H   0  0  0  0  0  0  0  0  0  0  0  0
   -3.8689    2.9452   -2.1763 H   0  0  0  0  0  0  0  0  0  0  0  0
   -5.6437    4.5634   -1.5270 H   0  0  0  0  0  0  0  0  0  0  0  0
   -3.6060    5.6942    1.8671 H   0  0  0  0  0  0  0  0  0  0  0  0
   -1.7310    4.1312    1.3847 H   0  0  0  0  0  0  0  0  0  0  0  0
   -0.2976   -2.0987    0.0566 H   0  0  0  0  0  0  0  0  0  0  0  0
   -0.9443   -1.1739    1.3886 H   0  0  0  0  0  0  0  0  0  0  0  0
   -2.6315   -2.0372   -1.0313 H   0  0  0  0  0  0  0  0  0  0  0  0
   -3.2318   -1.2760    0.4316 H   0  0  0  0  0  0  0  0  0  0  0  0
   -2.1099   -4.4377   -1.0773 H   0  0  0  0  0  0  0  0  0  0  0  0
   -2.3396   -6.6142    0.1005 H   0  0  0  0  0  0  0  0  0  0  0  0
   -3.2904   -4.7820    3.6616 H   0  0  0  0  0  0  0  0  0  0  0  0
   -3.1086   -2.5132    2.6613 H   0  0  0  0  0  0  0  0  0  0  0  0
    2.8467    0.3882    1.1606 H   0  0  0  0  0  0  0  0  0  0  0  0
    3.9798    1.0746   -1.5920 H   0  0  0  0  0  0  0  0  0  0  0  0
    3.1318    2.1736   -0.5169 H   0  0  0  0  0  0  0  0  0  0  0  0
    4.8785    1.9684    1.1830 H   0  0  0  0  0  0  0  0  0  0  0  0
    5.6170    2.3895   -0.3597 H   0  0  0  0  0  0  0  0  0  0  0  0
    6.3094    0.0656   -0.7351 H   0  0  0  0  0  0  0  0  0  0  0  0
    6.8868    0.6035    0.8404 H   0  0  0  0  0  0  0  0  0  0  0  0
    5.0546   -0.5699    1.9811 H   0  0  0  0  0  0  0  0  0  0  0  0
    5.9139   -1.6942    0.9317 H   0  0  0  0  0  0  0  0  0  0  0  0
    3.4322   -1.9431    0.7540 H   0  0  0  0  0  0  0  0  0  0  0  0
    4.1962   -1.5411   -0.7747 H   0  0  0  0  0  0  0  0  0  0  0  0
  1  2  2  0
  2  3  1  0
  3  4  1  0
  4  5  2  0
  4  6  1  0
  6  7  1  0
  7  8  1  0
  8  9  1  0
  9 10  2  0
 10 11  1  0
 11 12  2  0
 12 13  1  0
 13 14  2  0
  6 15  1  0
 15 16  1  0
 16 17  1  0
 17 18  2  0
 18 19  1  0
 19 20  2  0
 20 21  1  0
 21 22  2  0
  6 23  1  0
 23 24  2  0
 23 25  1  0
 25 26  1  0
 26 27  1  0
 27 28  1  0
 28 29  1  0
 29 30  1  0
 30 31  1  0
 25  2  1  0
 31 26  1  0
 14  9  1  0
 22 17  1  0
  3 32  1  0
  7 33  1  0
  7 34  1  0
  8 35  1  0
  8 36  1  0
 10 37  1  0
 11 38  1  0
 13 39  1  0
 14 40  1  0
 15 41  1  0
 15 42  1  0
 16 43  1  0
 16 44  1  0
 18 45  1  0
 19 46  1  0
 21 47  1  0
 22 48  1  0
 26 49  1  0
 27 50  1  0
 27 51  1  0
 28 52  1  0
 28 53  1  0
 29 54  1  0
 29 55  1  0
 30 56  1  0
 30 57  1  0
 31 58  1  0
 31 59  1  0
M  END
$$$$
