
     RDKit          3D

 60 64  0  0  0  0  0  0  0  0999 V2000
   -2.2993   -0.7410   -0.8901 O   0  0  0  0  0  0  0  0  0  0  0  0
   -2.4167    0.3238   -0.2841 C   0  0  0  0  0  0  0  0  0  0  0  0
   -1.4885    1.4965   -0.5453 C   0  0  0  0  0  0  0  0  0  0  0  0
   -0.5419    1.2781   -1.7312 C   0  0  0  0  0  0  0  0  0  0  0  0
    0.4324    0.1987   -1.5537 N   0  0  0  0  0  0  0  0  0  0  0  0
    0.4859   -0.7763   -2.5409 C   0  0  0  0  0  0  0  0  0  0  0  0
   -0.1307   -0.7274   -3.6033 O   0  0  0  0  0  0  0  0  0  0  0  0
    1.3844   -1.9127   -2.2949 C   0  0  0  0  0  0  0  0  0  0  0  0
    1.3487   -3.0165   -3.1621 C   0  0  0  0  0  0  0  0  0  0  0  0
    2.1959   -4.0989   -2.9496 C   0  0  0  0  0  0  0  0  0  0  0  0
    3.0765   -4.0750   -1.8747 C   0  0  0  0  0  0  0  0  0  0  0  0
    3.1101   -2.9703   -1.0148 C   0  0  0  0  0  0  0  0  0  0  0  0
    2.2616   -1.8690   -1.2132 C   0  0  0  0  0  0  0  0  0  0  0  0
    2.2779   -0.7181   -0.3756 N   0  0  0  0  0  0  0  0  0  0  0  0
    3.2523   -0.5955    0.7126 C   0  0  0  0  0  0  0  0  0  0  0  0
    4.6546   -0.2495    0.2472 C   0  0  0  0  0  0  0  0  0  0  0  0
    5.7583   -0.9534    0.7576 C   0  0  0  0  0  0  0  0  0  0  0  0
    7.0596   -0.6376    0.3581 C   0  0  0  0  0  0  0  0  0  0  0  0
    7.2818    0.3962   -0.5504 C   0  0  0  0  0  0  0  0  0  0  0  0
    6.1914    1.1178   -1.0508 C   0  0  0  0  0  0  0  0  0  0  0  0
    6.4216    2.2146   -2.0000 N   0  0  0  0  0  4  0  0  0  0  0  0
    7.5961    2.5008   -2.2753 O   0  0  0  0  0  0  0  0  0  0  0  0
    5.4304    2.7895   -2.4714 O   0  0  0  0  0  1  0  0  0  0  0  0
    4.8837    0.8056   -0.6516 C   0  0  0  0  0  0  0  0  0  0  0  0
    1.3883    0.3374   -0.5585 C   0  0  0  0  0  0  0  0  0  0  0  0
    1.4568    1.3605    0.1290 O   0  0  0  0  0  0  0  0  0  0  0  0
   -3.4081    0.5092    0.6774 N   0  0  0  0  0  0  0  0  0  0  0  0
   -3.3968    1.5780    1.6761 C   0  0  0  0  0  0  0  0  0  0  0  0
   -4.8104    2.0631    1.9891 C   0  0  0  0  0  0  0  0  0  0  0  0
   -5.7267    0.9182    2.3268 C   0  0  0  0  0  0  0  0  0  0  0  0
   -6.8825    1.1427    3.0874 C   0  0  0  0  0  0  0  0  0  0  0  0
   -7.7512    0.0913    3.3769 C   0  0  0  0  0  0  0  0  0  0  0  0
   -7.4779   -1.1884    2.9014 C   0  0  0  0  0  0  0  0  0  0  0  0
   -6.3372   -1.4174    2.1319 C   0  0  0  0  0  0  0  0  0  0  0  0
   -5.4546   -0.3683    1.8305 C   0  0  0  0  0  0  0  0  0  0  0  0
   -4.2282   -0.6582    0.9953 C   0  0  0  0  0  0  0  0  0  0  0  0
   -0.9261    1.6978    0.3705 H   0  0  0  0  0  0  0  0  0  0  0  0
   -2.1069    2.3731   -0.7719 H   0  0  0  0  0  0  0  0  0  0  0  0
    0.0276    2.2015   -1.8971 H   0  0  0  0  0  0  0  0  0  0  0  0
   -1.1427    1.1135   -2.6325 H   0  0  0  0  0  0  0  0  0  0  0  0
    0.6563   -3.0309   -4.0021 H   0  0  0  0  0  0  0  0  0  0  0  0
    2.1675   -4.9542   -3.6200 H   0  0  0  0  0  0  0  0  0  0  0  0
    3.7432   -4.9171   -1.7023 H   0  0  0  0  0  0  0  0  0  0  0  0
    3.8196   -3.0110   -0.1959 H   0  0  0  0  0  0  0  0  0  0  0  0
    2.9447    0.1811    1.4235 H   0  0  0  0  0  0  0  0  0  0  0  0
    3.2412   -1.5249    1.2948 H   0  0  0  0  0  0  0  0  0  0  0  0
    5.6132   -1.7592    1.4757 H   0  0  0  0  0  0  0  0  0  0  0  0
    7.9020   -1.1973    0.7592 H   0  0  0  0  0  0  0  0  0  0  0  0
    8.3011    0.6292   -0.8513 H   0  0  0  0  0  0  0  0  0  0  0  0
    4.0418    1.3825   -1.0316 H   0  0  0  0  0  0  0  0  0  0  0  0
   -2.9146    1.1724    2.5746 H   0  0  0  0  0  0  0  0  0  0  0  0
   -2.7977    2.4303    1.3487 H   0  0  0  0  0  0  0  0  0  0  0  0
   -5.2240    2.5862    1.1181 H   0  0  0  0  0  0  0  0  0  0  0  0
   -4.7665    2.7743    2.8220 H   0  0  0  0  0  0  0  0  0  0  0  0
   -7.1126    2.1393    3.4571 H   0  0  0  0  0  0  0  0  0  0  0  0
   -8.6441    0.2716    3.9697 H   0  0  0  0  0  0  0  0  0  0  0  0
   -8.1561   -2.0079    3.1249 H   0  0  0  0  0  0  0  0  0  0  0  0
   -6.1400   -2.4214    1.7612 H   0  0  0  0  0  0  0  0  0  0  0  0
   -3.5868   -1.3613    1.5417 H   0  0  0  0  0  0  0  0  0  0  0  0
   -4.5377   -1.1344    0.0570 H   0  0  0  0  0  0  0  0  0  0  0  0
  1  2  2  0
  2  3  1  0
  3  4  1  0
  4  5  1  0
  5  6  1  0
  6  7  2  0
  6  8  1  0
  8  9  2  0
  9 10  1  0
 10 11  2  0
 11 12  1  0
 12 13  2  0
 13 14  1  0
 14 15  1  0
 15 16  1  0
 16 17  2  0
 17 18  1  0
 18 19  2  0
 19 20  1  0
 20 21  1  0
 21 22  2  0
 21 23  1  0
 20 24  2  0
 14 25  1  0
 25 26  2  0
  2 27  1  0
 27 28  1  0
 28 29  1  0
 29 30  1  0
 30 31  2  0
 31 32  1  0
 32 33  2  0
 33 34  1  0
 34 35  2  0
 35 36  1  0
 25  5  1  0
 36 27  1  0
 13  8  1  0
 24 16  1  0
 35 30  1  0
  3 37  1  0
  3 38  1  0
  4 39  1  0
  4 40  1  0
  9 41  1  0
 10 42  1  0
 11 43  1  0
 12 44  1  0
 15 45  1  0
 15 46  1  0
 17 47  1  0
 18 48  1  0
 19 49  1  0
 24 50  1  0
 28 51  1  0
 28 52  1  0
 29 53  1  0
 29 54  1  0
 31 55  1  0
 32 56  1  0
 33 57  1  0
 34 58  1  0
 36 59  1  0
 36 60  1  0
M  CHG  2  21   1  23  -1
M  END
$$$$
