
     RDKit          3D

 46 48  0  0  0  0  0  0  0  0999 V2000
    4.5933   -2.5529   -2.9542 C   0  0  0  0  0  0  0  0  0  0  0  0
    4.7854   -1.9903   -1.6621 O   0  0  0  0  0  0  0  0  0  0  0  0
    3.7971   -1.1705   -1.1930 C   0  0  0  0  0  0  0  0  0  0  0  0
    2.6256   -0.8287   -1.8628 C   0  0  0  0  0  0  0  0  0  0  0  0
    1.6940    0.0246   -1.2592 C   0  0  0  0  0  0  0  0  0  0  0  0
    1.9055    0.5469    0.0308 C   0  0  0  0  0  0  0  0  0  0  0  0
    0.8672    1.4878    0.6383 C   0  0  0  0  0  0  0  0  0  0  0  0
    1.1801    2.0930    2.0124 C   0  0  0  0  0  0  0  0  0  0  0  0
   -0.5045    0.9162    0.6241 N   0  0  0  0  0  0  0  0  0  0  0  0
   -1.6180    1.5927    0.1073 C   0  0  0  0  0  0  0  0  0  0  0  0
   -1.5607    3.0190   -0.3305 C   0  0  0  0  0  0  0  0  0  0  0  0
   -2.6574    0.6819    0.0844 C   0  0  0  0  0  0  0  0  0  0  0  0
   -3.9565    0.8575   -0.4354 C   0  0  0  0  0  0  0  0  0  0  0  0
   -4.5716    2.0293   -1.1143 C   0  0  0  0  0  0  0  0  0  0  0  0
   -4.7266   -0.2625   -0.2597 N   0  0  0  0  0  0  0  0  0  0  0  0
   -4.2593   -1.4964    0.3766 N   0  0  0  0  0  0  0  0  0  0  0  0
   -2.9951   -1.6798    0.8727 C   0  0  0  0  0  0  0  0  0  0  0  0
   -2.6635   -2.9965    1.4807 C   0  0  0  0  0  0  0  0  0  0  0  0
   -2.1994   -0.5274    0.7069 C   0  0  0  0  0  0  0  0  0  0  0  0
   -0.8845   -0.3434    1.0950 C   0  0  0  0  0  0  0  0  0  0  0  0
    0.0333   -1.2683    1.8229 C   0  0  0  0  0  0  0  0  0  0  0  0
    3.0969    0.2047    0.6856 C   0  0  0  0  0  0  0  0  0  0  0  0
    4.0264   -0.6475    0.0797 C   0  0  0  0  0  0  0  0  0  0  0  0
    5.4607   -3.1816   -3.1771 H   0  0  0  0  0  0  0  0  0  0  0  0
    3.7040   -3.1916   -2.9793 H   0  0  0  0  0  0  0  0  0  0  0  0
    4.5423   -1.7723   -3.7205 H   0  0  0  0  0  0  0  0  0  0  0  0
    2.4009   -1.2066   -2.8546 H   0  0  0  0  0  0  0  0  0  0  0  0
    0.7858    0.2724   -1.8079 H   0  0  0  0  0  0  0  0  0  0  0  0
    0.8510    2.3308   -0.0638 H   0  0  0  0  0  0  0  0  0  0  0  0
    0.3896    2.7851    2.3242 H   0  0  0  0  0  0  0  0  0  0  0  0
    1.2705    1.3341    2.7948 H   0  0  0  0  0  0  0  0  0  0  0  0
    2.1183    2.6580    1.9852 H   0  0  0  0  0  0  0  0  0  0  0  0
   -0.8859    3.6103    0.2959 H   0  0  0  0  0  0  0  0  0  0  0  0
   -1.2239    3.0837   -1.3700 H   0  0  0  0  0  0  0  0  0  0  0  0
   -2.5347    3.5064   -0.2502 H   0  0  0  0  0  0  0  0  0  0  0  0
   -5.5309    1.7550   -1.5652 H   0  0  0  0  0  0  0  0  0  0  0  0
   -3.9233    2.3970   -1.9145 H   0  0  0  0  0  0  0  0  0  0  0  0
   -4.7549    2.8308   -0.3934 H   0  0  0  0  0  0  0  0  0  0  0  0
   -1.7489   -3.4052    1.0421 H   0  0  0  0  0  0  0  0  0  0  0  0
   -2.5363   -2.8935    2.5619 H   0  0  0  0  0  0  0  0  0  0  0  0
   -3.4683   -3.7176    1.3038 H   0  0  0  0  0  0  0  0  0  0  0  0
   -0.4936   -1.7744    2.6367 H   0  0  0  0  0  0  0  0  0  0  0  0
    0.4274   -2.0281    1.1407 H   0  0  0  0  0  0  0  0  0  0  0  0
    0.8735   -0.7584    2.2940 H   0  0  0  0  0  0  0  0  0  0  0  0
    3.3277    0.5827    1.6781 H   0  0  0  0  0  0  0  0  0  0  0  0
    4.9414   -0.9065    0.6078 H   0  0  0  0  0  0  0  0  0  0  0  0
  1  2  1  0
  2  3  1  0
  3  4  2  0
  4  5  1  0
  5  6  2  0
  6  7  1  0
  7  8  1  0
  7  9  1  0
  9 10  1  0
 10 11  1  0
 10 12  2  0
 12 13  1  0
 13 14  1  0
 13 15  2  0
 15 16  1  0
 16 17  2  0
 17 18  1  0
 17 19  1  0
 19 20  2  0
 20 21  1  0
  6 22  1  0
 22 23  2  0
 23  3  1  0
 20  9  1  0
 19 12  1  0
  1 24  1  0
  1 25  1  0
  1 26  1  0
  4 27  1  0
  5 28  1  0
  7 29  1  0
  8 30  1  0
  8 31  1  0
  8 32  1  0
 11 33  1  0
 11 34  1  0
 11 35  1  0
 14 36  1  0
 14 37  1  0
 14 38  1  0
 18 39  1  0
 18 40  1  0
 18 41  1  0
 21 42  1  0
 21 43  1  0
 21 44  1  0
 22 45  1  0
 23 46  1  0
M  END
$$$$
