
     RDKit          3D

 52 55  0  0  0  0  0  0  0  0999 V2000
   -4.1328    2.1229    0.1039 C   0  0  0  0  0  0  0  0  0  0  0  0
   -5.3080    1.1837    0.1247 C   0  0  0  0  0  0  0  0  0  0  0  0
   -6.4740    1.5724   -0.5620 C   0  0  0  0  0  0  0  0  0  0  0  0
   -7.6204    0.7780   -0.5460 C   0  0  0  0  0  0  0  0  0  0  0  0
   -7.6234   -0.4158    0.1638 C   0  0  0  0  0  0  0  0  0  0  0  0
   -6.4710   -0.8217    0.8353 C   0  0  0  0  0  0  0  0  0  0  0  0
   -5.2901   -0.0588    0.7893 C   0  0  0  0  0  0  0  0  0  0  0  0
   -4.1953   -0.5505    1.5477 N   0  0  0  0  0  0  0  0  0  0  0  0
   -2.8281   -0.4892    1.1976 C   0  0  0  0  0  0  0  0  0  0  0  0
   -2.0239    0.0680    2.1293 N   0  0  0  0  0  0  0  0  0  0  0  0
   -0.6891    0.2156    1.9005 N   0  0  0  0  0  0  0  0  0  0  0  0
   -0.1478   -0.2103    0.7368 C   0  0  0  0  0  0  0  0  0  0  0  0
    1.2981    0.0420    0.6343 C   0  0  0  0  0  0  0  0  0  0  0  0
    1.8196    0.9324   -0.3195 C   0  0  0  0  0  0  0  0  0  0  0  0
    3.1958    1.1679   -0.4040 C   0  0  0  0  0  0  0  0  0  0  0  0
    4.0777    0.5157    0.4651 C   0  0  0  0  0  0  0  0  0  0  0  0
    5.5340    0.7938    0.3369 C   0  0  0  0  0  0  0  0  0  0  0  0
    5.9267    1.8554   -0.1354 O   0  0  0  0  0  0  0  0  0  0  0  0
    6.3919   -0.2152    0.7175 N   0  0  0  0  0  0  0  0  0  0  0  0
    7.8406   -0.0771    0.6397 C   0  0  0  0  0  0  0  0  0  0  0  0
    8.3681   -0.0308   -0.7995 C   0  0  0  0  0  0  0  0  0  0  0  0
    8.2557    1.2701   -1.3685 O   0  0  0  0  0  0  0  0  0  0  0  0
    3.5711   -0.3489    1.4410 C   0  0  0  0  0  0  0  0  0  0  0  0
    2.1933   -0.5808    1.5216 C   0  0  0  0  0  0  0  0  0  0  0  0
   -0.9203   -0.8479   -0.2540 C   0  0  0  0  0  0  0  0  0  0  0  0
   -0.3777   -1.3638   -1.4598 C   0  0  0  0  0  0  0  0  0  0  0  0
   -1.1731   -2.0040   -2.4094 C   0  0  0  0  0  0  0  0  0  0  0  0
   -2.5291   -2.1573   -2.1744 C   0  0  0  0  0  0  0  0  0  0  0  0
   -3.0854   -1.6673   -0.9925 C   0  0  0  0  0  0  0  0  0  0  0  0
   -2.3071   -0.9974   -0.0139 C   0  0  0  0  0  0  0  0  0  0  0  0
   -3.7072    2.2378    1.1049 H   0  0  0  0  0  0  0  0  0  0  0  0
   -3.3684    1.7654   -0.5913 H   0  0  0  0  0  0  0  0  0  0  0  0
   -4.4321    3.1254   -0.2204 H   0  0  0  0  0  0  0  0  0  0  0  0
   -6.4999    2.5152   -1.1059 H   0  0  0  0  0  0  0  0  0  0  0  0
   -8.5131    1.1007   -1.0755 H   0  0  0  0  0  0  0  0  0  0  0  0
   -8.5183   -1.0312    0.1968 H   0  0  0  0  0  0  0  0  0  0  0  0
   -6.4831   -1.7592    1.3881 H   0  0  0  0  0  0  0  0  0  0  0  0
   -4.2349   -0.1101    2.4688 H   0  0  0  0  0  0  0  0  0  0  0  0
    1.1521    1.4600   -0.9994 H   0  0  0  0  0  0  0  0  0  0  0  0
    3.5763    1.8655   -1.1481 H   0  0  0  0  0  0  0  0  0  0  0  0
    6.0184   -1.1334    0.9185 H   0  0  0  0  0  0  0  0  0  0  0  0
    8.1204    0.8329    1.1817 H   0  0  0  0  0  0  0  0  0  0  0  0
    8.2567   -0.9463    1.1593 H   0  0  0  0  0  0  0  0  0  0  0  0
    7.8369   -0.7391   -1.4435 H   0  0  0  0  0  0  0  0  0  0  0  0
    9.4315   -0.2884   -0.8092 H   0  0  0  0  0  0  0  0  0  0  0  0
    7.4045    1.6533   -1.0585 H   0  0  0  0  0  0  0  0  0  0  0  0
    4.2236   -0.8235    2.1690 H   0  0  0  0  0  0  0  0  0  0  0  0
    1.8110   -1.2452    2.2965 H   0  0  0  0  0  0  0  0  0  0  0  0
    0.6873   -1.2823   -1.6694 H   0  0  0  0  0  0  0  0  0  0  0  0
   -0.7295   -2.3893   -3.3241 H   0  0  0  0  0  0  0  0  0  0  0  0
   -3.1591   -2.6631   -2.9019 H   0  0  0  0  0  0  0  0  0  0  0  0
   -4.1495   -1.8263   -0.8342 H   0  0  0  0  0  0  0  0  0  0  0  0
  1  2  1  0
  2  3  2  0
  3  4  1  0
  4  5  2  0
  5  6  1  0
  6  7  2  0
  7  8  1  0
  8  9  1  0
  9 10  2  0
 10 11  1  0
 11 12  2  0
 12 13  1  0
 13 14  2  0
 14 15  1  0
 15 16  2  0
 16 17  1  0
 17 18  2  0
 17 19  1  0
 19 20  1  0
 20 21  1  0
 21 22  1  0
 16 23  1  0
 23 24  2  0
 12 25  1  0
 25 26  2  0
 26 27  1  0
 27 28  2  0
 28 29  1  0
 29 30  2  0
  7  2  1  0
 30  9  1  0
 24 13  1  0
 30 25  1  0
  1 31  1  0
  1 32  1  0
  1 33  1  0
  3 34  1  0
  4 35  1  0
  5 36  1  0
  6 37  1  0
  8 38  1  0
 14 39  1  0
 15 40  1  0
 19 41  1  0
 20 42  1  0
 20 43  1  0
 21 44  1  0
 21 45  1  0
 22 46  1  0
 23 47  1  0
 24 48  1  0
 26 49  1  0
 27 50  1  0
 28 51  1  0
 29 52  1  0
M  END
$$$$
