
     RDKit          3D

 67 72  0  0  0  0  0  0  0  0999 V2000
   -2.5131    1.7732    2.0061 O   0  0  0  0  0  0  0  0  0  0  0  0
   -2.2234    1.0394    1.0569 C   0  0  0  0  0  0  0  0  0  0  0  0
   -3.3126    0.4293    0.1537 C   0  0  0  0  0  0  0  0  0  0  0  0
   -4.6042    1.2638    0.2342 C   0  0  0  0  0  0  0  0  0  0  0  0
   -5.7743    0.6156   -0.4744 C   0  0  0  0  0  0  0  0  0  0  0  0
   -6.4837   -0.4286    0.1346 C   0  0  0  0  0  0  0  0  0  0  0  0
   -7.5466   -1.0417   -0.5301 C   0  0  0  0  0  0  0  0  0  0  0  0
   -7.9093   -0.6182   -1.8073 C   0  0  0  0  0  0  0  0  0  0  0  0
   -7.2110    0.4199   -2.4209 C   0  0  0  0  0  0  0  0  0  0  0  0
   -6.1482    1.0350   -1.7584 C   0  0  0  0  0  0  0  0  0  0  0  0
   -2.8541    0.3354   -1.2289 N   0  0  0  0  0  0  0  0  0  0  0  0
   -1.6282   -0.3240   -1.3409 C   0  0  0  0  0  0  0  0  0  0  0  0
   -1.5183   -1.0920   -2.4334 N   0  0  0  0  0  0  0  0  0  0  0  0
   -0.3289   -1.6540   -2.6253 C   0  0  0  0  0  0  0  0  0  0  0  0
    0.7574   -1.4556   -1.8749 N   0  0  0  0  0  0  0  0  0  0  0  0
    0.6462   -0.6345   -0.8078 C   0  0  0  0  0  0  0  0  0  0  0  0
    1.8528   -0.2568   -0.1907 N   0  0  0  0  0  0  0  0  0  0  0  0
    2.2649    1.1233   -0.5884 C   0  0  0  0  0  0  0  0  0  0  0  0
    2.9968    1.1669   -1.9506 C   0  0  0  0  0  0  0  0  0  0  0  0
    4.1752    0.2649   -1.9432 N   0  0  0  0  0  0  0  0  0  0  0  0
    5.3728    0.7963   -1.4588 C   0  0  0  0  0  0  0  0  0  0  0  0
    5.8544    2.0197   -1.9594 C   0  0  0  0  0  0  0  0  0  0  0  0
    7.0517    2.5904   -1.5118 C   0  0  0  0  0  0  0  0  0  0  0  0
    7.8141    1.9392   -0.5516 C   0  0  0  0  0  0  0  0  0  0  0  0
    7.3819    0.7157   -0.0552 C   0  0  0  0  0  0  0  0  0  0  0  0
    6.1825    0.1517   -0.5115 C   0  0  0  0  0  0  0  0  0  0  0  0
    3.7789   -1.1279   -1.6328 C   0  0  0  0  0  0  0  0  0  0  0  0
    2.9703   -1.2329   -0.3147 C   0  0  0  0  0  0  0  0  0  0  0  0
   -0.5986   -0.1113   -0.4125 C   0  0  0  0  0  0  0  0  0  0  0  0
   -0.9082    0.6041    0.8085 N   0  0  0  0  0  0  0  0  0  0  0  0
    0.0022    0.6835    1.9468 C   0  0  0  0  0  0  0  0  0  0  0  0
   -0.2049   -0.4540    2.9317 C   0  0  0  0  0  0  0  0  0  0  0  0
   -1.0358   -0.2833    4.0503 C   0  0  0  0  0  0  0  0  0  0  0  0
   -1.2461   -1.3300    4.9499 C   0  0  0  0  0  0  0  0  0  0  0  0
   -0.6303   -2.5617    4.7426 C   0  0  0  0  0  0  0  0  0  0  0  0
    0.1949   -2.7469    3.6358 C   0  0  0  0  0  0  0  0  0  0  0  0
    0.4054   -1.7000    2.7359 C   0  0  0  0  0  0  0  0  0  0  0  0
   -3.5113   -0.5799    0.5423 H   0  0  0  0  0  0  0  0  0  0  0  0
   -4.8940    1.4256    1.2809 H   0  0  0  0  0  0  0  0  0  0  0  0
   -4.4319    2.2663   -0.1802 H   0  0  0  0  0  0  0  0  0  0  0  0
   -6.2156   -0.7699    1.1322 H   0  0  0  0  0  0  0  0  0  0  0  0
   -8.0932   -1.8498   -0.0509 H   0  0  0  0  0  0  0  0  0  0  0  0
   -8.7375   -1.0959   -2.3240 H   0  0  0  0  0  0  0  0  0  0  0  0
   -7.4942    0.7511   -3.4166 H   0  0  0  0  0  0  0  0  0  0  0  0
   -5.6099    1.8418   -2.2520 H   0  0  0  0  0  0  0  0  0  0  0  0
   -3.5051   -0.1079   -1.8743 H   0  0  0  0  0  0  0  0  0  0  0  0
   -0.2247   -2.3128   -3.4802 H   0  0  0  0  0  0  0  0  0  0  0  0
    2.9382    1.5023    0.1910 H   0  0  0  0  0  0  0  0  0  0  0  0
    1.4085    1.8084   -0.6119 H   0  0  0  0  0  0  0  0  0  0  0  0
    3.2538    2.2039   -2.1881 H   0  0  0  0  0  0  0  0  0  0  0  0
    2.3174    0.8378   -2.7467 H   0  0  0  0  0  0  0  0  0  0  0  0
    5.3122    2.5371   -2.7468 H   0  0  0  0  0  0  0  0  0  0  0  0
    7.3887    3.5359   -1.9279 H   0  0  0  0  0  0  0  0  0  0  0  0
    8.7459    2.3749   -0.2025 H   0  0  0  0  0  0  0  0  0  0  0  0
    7.9769    0.1905    0.6874 H   0  0  0  0  0  0  0  0  0  0  0  0
    5.9009   -0.8053   -0.0867 H   0  0  0  0  0  0  0  0  0  0  0  0
    4.6448   -1.7997   -1.6061 H   0  0  0  0  0  0  0  0  0  0  0  0
    3.1737   -1.4899   -2.4714 H   0  0  0  0  0  0  0  0  0  0  0  0
    3.6432   -1.0423    0.5297 H   0  0  0  0  0  0  0  0  0  0  0  0
    2.6087   -2.2598   -0.1763 H   0  0  0  0  0  0  0  0  0  0  0  0
   -0.1809    1.6312    2.4715 H   0  0  0  0  0  0  0  0  0  0  0  0
    1.0504    0.7533    1.6738 H   0  0  0  0  0  0  0  0  0  0  0  0
   -1.5303    0.6710    4.2254 H   0  0  0  0  0  0  0  0  0  0  0  0
   -1.8919   -1.1818    5.8115 H   0  0  0  0  0  0  0  0  0  0  0  0
   -0.7937   -3.3765    5.4427 H   0  0  0  0  0  0  0  0  0  0  0  0
    0.6756   -3.7077    3.4712 H   0  0  0  0  0  0  0  0  0  0  0  0
    1.0528   -1.8659    1.8801 H   0  0  0  0  0  0  0  0  0  0  0  0
  1  2  2  0
  2  3  1  0
  3  4  1  0
  4  5  1  0
  5  6  2  0
  6  7  1  0
  7  8  2  0
  8  9  1  0
  9 10  2  0
  3 11  1  0
 11 12  1  0
 12 13  2  0
 13 14  1  0
 14 15  2  0
 15 16  1  0
 16 17  1  0
 17 18  1  0
 18 19  1  0
 19 20  1  0
 20 21  1  0
 21 22  2  0
 22 23  1  0
 23 24  2  0
 24 25  1  0
 25 26  2  0
 20 27  1  0
 27 28  1  0
 16 29  2  0
 29 30  1  0
 30 31  1  0
 31 32  1  0
 32 33  2  0
 33 34  1  0
 34 35  2  0
 35 36  1  0
 36 37  2  0
 30  2  1  0
 37 32  1  0
 10  5  1  0
 29 12  1  0
 28 17  1  0
 26 21  1  0
  3 38  1  0
  4 39  1  0
  4 40  1  0
  6 41  1  0
  7 42  1  0
  8 43  1  0
  9 44  1  0
 10 45  1  0
 11 46  1  0
 14 47  1  0
 18 48  1  0
 18 49  1  0
 19 50  1  0
 19 51  1  0
 22 52  1  0
 23 53  1  0
 24 54  1  0
 25 55  1  0
 26 56  1  0
 27 57  1  0
 27 58  1  0
 28 59  1  0
 28 60  1  0
 31 61  1  0
 31 62  1  0
 33 63  1  0
 34 64  1  0
 35 65  1  0
 36 66  1  0
 37 67  1  0
M  END
$$$$
