
     RDKit          3D

 39 41  0  0  0  0  0  0  0  0999 V2000
    3.7779    2.1595   -0.0054 C   0  0  0  0  0  0  0  0  0  0  0  0
    4.2199    0.7454    0.0905 C   0  0  0  0  0  0  0  0  0  0  0  0
    5.5169    0.4646    0.2834 N   0  0  0  0  0  0  0  0  0  0  0  0
    5.5611   -0.8762    0.3103 N   0  0  0  0  0  0  0  0  0  0  0  0
    6.8291   -1.5391    0.4937 C   0  0  0  0  0  0  0  0  0  0  0  0
    4.3424   -1.4632    0.1534 C   0  0  0  0  0  0  0  0  0  0  0  0
    3.4313   -0.4356    0.0049 C   0  0  0  0  0  0  0  0  0  0  0  0
    2.0107   -0.6127   -0.1918 C   0  0  0  0  0  0  0  0  0  0  0  0
    1.2544    0.4314   -0.3048 N   0  0  0  0  0  0  0  0  0  0  0  0
   -0.0910    0.2467   -0.5230 N   0  0  0  0  0  0  0  0  0  0  0  0
   -0.6612   -0.7812   -1.2662 C   0  0  0  0  0  0  0  0  0  0  0  0
   -0.0382   -1.7092   -1.7739 O   0  0  0  0  0  0  0  0  0  0  0  0
   -2.1108   -0.6383   -1.4589 C   0  0  0  0  0  0  0  0  0  0  0  0
   -2.7153   -1.0990   -2.6183 C   0  0  0  0  0  0  0  0  0  0  0  0
   -4.3955   -0.8117   -2.6657 S   0  0  0  0  0  0  0  0  0  0  0  0
   -4.3691   -0.1155   -1.1170 C   0  0  0  0  0  0  0  0  0  0  0  0
   -3.1019   -0.0854   -0.5586 C   0  0  0  0  0  0  0  0  0  0  0  0
   -2.8839    0.4539    0.8303 C   0  0  0  0  0  0  0  0  0  0  0  0
   -4.1924    0.5355    1.6313 C   0  0  0  0  0  0  0  0  0  0  0  0
   -5.3151    1.1715    0.8026 C   0  0  0  0  0  0  0  0  0  0  0  0
   -5.6313    0.3417   -0.4490 C   0  0  0  0  0  0  0  0  0  0  0  0
    4.6216    2.8511    0.0910 H   0  0  0  0  0  0  0  0  0  0  0  0
    3.3013    2.3479   -0.9726 H   0  0  0  0  0  0  0  0  0  0  0  0
    3.0630    2.3927    0.7899 H   0  0  0  0  0  0  0  0  0  0  0  0
    7.4904   -1.2518   -0.3276 H   0  0  0  0  0  0  0  0  0  0  0  0
    6.6779   -2.6214    0.4898 H   0  0  0  0  0  0  0  0  0  0  0  0
    7.2472   -1.2243    1.4531 H   0  0  0  0  0  0  0  0  0  0  0  0
    4.2220   -2.5375    0.1542 H   0  0  0  0  0  0  0  0  0  0  0  0
    1.6410   -1.6513   -0.2002 H   0  0  0  0  0  0  0  0  0  0  0  0
   -0.6264    1.1057   -0.4567 H   0  0  0  0  0  0  0  0  0  0  0  0
   -2.2315   -1.5831   -3.4574 H   0  0  0  0  0  0  0  0  0  0  0  0
   -2.4554    1.4604    0.7522 H   0  0  0  0  0  0  0  0  0  0  0  0
   -2.1697   -0.1731    1.3755 H   0  0  0  0  0  0  0  0  0  0  0  0
   -4.0253    1.1176    2.5445 H   0  0  0  0  0  0  0  0  0  0  0  0
   -4.4987   -0.4713    1.9430 H   0  0  0  0  0  0  0  0  0  0  0  0
   -6.2203    1.2744    1.4115 H   0  0  0  0  0  0  0  0  0  0  0  0
   -5.0126    2.1841    0.5058 H   0  0  0  0  0  0  0  0  0  0  0  0
   -6.2168   -0.5396   -0.1586 H   0  0  0  0  0  0  0  0  0  0  0  0
   -6.2458    0.9364   -1.1345 H   0  0  0  0  0  0  0  0  0  0  0  0
  1  2  1  0
  2  3  2  0
  3  4  1  0
  4  5  1  0
  4  6  1  0
  6  7  2  0
  7  8  1  0
  8  9  2  3
  9 10  1  0
 10 11  1  0
 11 12  2  0
 11 13  1  0
 13 14  2  0
 14 15  1  0
 15 16  1  0
 16 17  2  0
 17 18  1  0
 18 19  1  0
 19 20  1  0
 20 21  1  0
  7  2  1  0
 17 13  1  0
 21 16  1  0
  1 22  1  0
  1 23  1  0
  1 24  1  0
  5 25  1  0
  5 26  1  0
  5 27  1  0
  6 28  1  0
  8 29  1  0
 10 30  1  0
 14 31  1  0
 18 32  1  0
 18 33  1  0
 19 34  1  0
 19 35  1  0
 20 36  1  0
 20 37  1  0
 21 38  1  0
 21 39  1  0
M  END
$$$$
