
     RDKit          3D

 45 47  0  0  0  0  0  0  0  0999 V2000
   -7.7325   -1.5268   -0.3855 N   0  0  0  0  0  0  0  0  0  0  0  0
   -7.5268   -0.1251    0.5187 S   0  0  0  0  0  6  0  0  0  0  0  0
   -8.1818    0.9298   -0.2161 O   0  0  0  0  0  0  0  0  0  0  0  0
   -7.8987   -0.4828    1.8684 O   0  0  0  0  0  0  0  0  0  0  0  0
   -5.7783    0.1190    0.4378 C   0  0  0  0  0  0  0  0  0  0  0  0
   -4.9964   -0.0204    1.5845 C   0  0  0  0  0  0  0  0  0  0  0  0
   -3.6157    0.1882    1.5050 C   0  0  0  0  0  0  0  0  0  0  0  0
   -3.0119    0.5547    0.2924 C   0  0  0  0  0  0  0  0  0  0  0  0
   -1.6089    0.7149    0.2977 N   0  0  0  0  0  0  0  0  0  0  0  0
   -0.7615    1.4196   -0.5498 C   0  0  0  0  0  0  0  0  0  0  0  0
   -1.2330    2.6763   -1.5634 S   0  0  0  0  0  0  0  0  0  0  0  0
    0.5796    1.0023   -0.4170 N   0  0  0  0  0  0  0  0  0  0  0  0
    0.9429   -0.3290    0.1072 C   0  0  0  0  0  0  0  0  0  0  0  0
    2.2381   -0.9042   -0.4985 C   0  0  0  0  0  0  0  0  0  0  0  0
    3.3664    0.0201   -0.3206 N   0  0  0  0  0  0  0  0  0  0  0  0
    4.6769   -0.4294   -0.2596 C   0  0  0  0  0  0  0  0  0  0  0  0
    5.7059    0.3646    0.2758 C   0  0  0  0  0  0  0  0  0  0  0  0
    7.0309   -0.0834    0.3503 C   0  0  0  0  0  0  0  0  0  0  0  0
    7.3657   -1.3490   -0.1145 C   0  0  0  0  0  0  0  0  0  0  0  0
    6.3747   -2.1593   -0.6529 C   0  0  0  0  0  0  0  0  0  0  0  0
    5.0517   -1.7024   -0.7207 C   0  0  0  0  0  0  0  0  0  0  0  0
    3.0572    1.4594   -0.3064 C   0  0  0  0  0  0  0  0  0  0  0  0
    1.7086    1.7668   -0.9857 C   0  0  0  0  0  0  0  0  0  0  0  0
   -3.8079    0.6660   -0.8508 C   0  0  0  0  0  0  0  0  0  0  0  0
   -5.1910    0.4620   -0.7809 C   0  0  0  0  0  0  0  0  0  0  0  0
   -8.0986   -2.2682    0.2120 H   0  0  0  0  0  0  0  0  0  0  0  0
   -8.3202   -1.3265   -1.1970 H   0  0  0  0  0  0  0  0  0  0  0  0
   -5.4462   -0.2870    2.5377 H   0  0  0  0  0  0  0  0  0  0  0  0
   -3.0221    0.0785    2.4106 H   0  0  0  0  0  0  0  0  0  0  0  0
   -1.1584    0.4527    1.1651 H   0  0  0  0  0  0  0  0  0  0  0  0
    0.1240   -1.0353   -0.0688 H   0  0  0  0  0  0  0  0  0  0  0  0
    1.0647   -0.2132    1.1914 H   0  0  0  0  0  0  0  0  0  0  0  0
    2.4296   -1.8611   -0.0004 H   0  0  0  0  0  0  0  0  0  0  0  0
    2.0946   -1.0964   -1.5679 H   0  0  0  0  0  0  0  0  0  0  0  0
    5.4903    1.3531    0.6724 H   0  0  0  0  0  0  0  0  0  0  0  0
    7.7951    0.5595    0.7776 H   0  0  0  0  0  0  0  0  0  0  0  0
    8.3920   -1.7004   -0.0589 H   0  0  0  0  0  0  0  0  0  0  0  0
    6.6247   -3.1486   -1.0261 H   0  0  0  0  0  0  0  0  0  0  0  0
    4.3196   -2.3654   -1.1705 H   0  0  0  0  0  0  0  0  0  0  0  0
    3.0265    1.8040    0.7343 H   0  0  0  0  0  0  0  0  0  0  0  0
    3.8291    2.0317   -0.8351 H   0  0  0  0  0  0  0  0  0  0  0  0
    1.7622    1.5125   -2.0514 H   0  0  0  0  0  0  0  0  0  0  0  0
    1.5123    2.8397   -0.9013 H   0  0  0  0  0  0  0  0  0  0  0  0
   -3.3778    0.8774   -1.8236 H   0  0  0  0  0  0  0  0  0  0  0  0
   -5.7956    0.5612   -1.6797 H   0  0  0  0  0  0  0  0  0  0  0  0
  1  2  1  0
  2  3  2  0
  2  4  2  0
  2  5  1  0
  5  6  2  0
  6  7  1  0
  7  8  2  0
  8  9  1  0
  9 10  1  0
 10 11  2  0
 10 12  1  0
 12 13  1  0
 13 14  1  0
 14 15  1  0
 15 16  1  0
 16 17  2  0
 17 18  1  0
 18 19  2  0
 19 20  1  0
 20 21  2  0
 15 22  1  0
 22 23  1  0
  8 24  1  0
 24 25  2  0
 25  5  1  0
 23 12  1  0
 21 16  1  0
  1 26  1  0
  1 27  1  0
  6 28  1  0
  7 29  1  0
  9 30  1  0
 13 31  1  0
 13 32  1  0
 14 33  1  0
 14 34  1  0
 17 35  1  0
 18 36  1  0
 19 37  1  0
 20 38  1  0
 21 39  1  0
 22 40  1  0
 22 41  1  0
 23 42  1  0
 23 43  1  0
 24 44  1  0
 25 45  1  0
M  END
$$$$
