
     RDKit          3D

 57 60  0  0  0  0  0  0  0  0999 V2000
    6.3578    0.2315   -2.6454 C   0  0  0  0  0  0  0  0  0  0  0  0
    5.0648    0.1796   -2.0573 O   0  0  0  0  0  0  0  0  0  0  0  0
    4.9903    0.1875   -0.6880 C   0  0  0  0  0  0  0  0  0  0  0  0
    6.0875    0.3395    0.1650 C   0  0  0  0  0  0  0  0  0  0  0  0
    5.9147    0.3169    1.5504 C   0  0  0  0  0  0  0  0  0  0  0  0
    4.6458    0.1267    2.0955 C   0  0  0  0  0  0  0  0  0  0  0  0
    3.5312   -0.0378    1.2615 C   0  0  0  0  0  0  0  0  0  0  0  0
    2.2121   -0.2548    1.9270 C   0  0  0  0  0  0  0  0  0  0  0  0
    2.0410    0.1110    3.0853 O   0  0  0  0  0  0  0  0  0  0  0  0
    1.2376   -0.8783    1.1842 N   0  0  0  0  0  0  0  0  0  0  0  0
   -0.1423   -0.9585    1.6175 C   0  0  0  0  0  0  0  0  0  0  0  0
   -0.7510   -2.3098    1.1759 C   0  0  0  0  0  0  0  0  0  0  0  0
   -2.3070   -2.3187    1.1246 C   0  0  0  0  0  0  0  0  0  0  0  0
   -2.8981   -2.0967    2.5317 C   0  0  0  0  0  0  0  0  0  0  0  0
   -2.7791   -3.6972    0.6239 C   0  0  0  0  0  0  0  0  0  0  0  0
   -2.8219   -1.2247    0.1355 C   0  0  0  0  0  0  0  0  0  0  0  0
   -2.0842    0.0607    0.3175 C   0  0  0  0  0  0  0  0  0  0  0  0
   -0.8888    0.1795    1.0046 C   0  0  0  0  0  0  0  0  0  0  0  0
   -0.6484    1.5563    1.0606 C   0  0  0  0  0  0  0  0  0  0  0  0
   -1.5723    2.2588    0.4099 N   0  0  0  0  0  0  0  0  0  0  0  0
   -2.4432    1.3371   -0.0966 N   0  0  0  0  0  0  0  0  0  0  0  0
   -3.5164    1.7902   -0.9249 C   0  0  0  0  0  0  0  0  0  0  0  0
   -3.7776    3.1734   -0.9991 C   0  0  0  0  0  0  0  0  0  0  0  0
   -4.8146    3.6702   -1.7954 C   0  0  0  0  0  0  0  0  0  0  0  0
   -5.5982    2.7923   -2.5357 C   0  0  0  0  0  0  0  0  0  0  0  0
   -5.3314    1.4307   -2.4768 C   0  0  0  0  0  0  0  0  0  0  0  0
   -6.0745    0.5852   -3.2036 F   0  0  0  0  0  0  0  0  0  0  0  0
   -4.3020    0.9211   -1.6861 C   0  0  0  0  0  0  0  0  0  0  0  0
    3.7049    0.0295   -0.1323 C   0  0  0  0  0  0  0  0  0  0  0  0
    2.6151   -0.1115   -0.9651 O   0  0  0  0  0  0  0  0  0  0  0  0
    2.2025    1.1659   -1.4646 C   0  0  0  0  0  0  0  0  0  0  0  0
    6.8511    1.1840   -2.4260 H   0  0  0  0  0  0  0  0  0  0  0  0
    6.2341    0.1637   -3.7305 H   0  0  0  0  0  0  0  0  0  0  0  0
    6.9727   -0.6169   -2.3272 H   0  0  0  0  0  0  0  0  0  0  0  0
    7.0941    0.4794   -0.2156 H   0  0  0  0  0  0  0  0  0  0  0  0
    6.7723    0.4397    2.2082 H   0  0  0  0  0  0  0  0  0  0  0  0
    4.5278    0.0992    3.1777 H   0  0  0  0  0  0  0  0  0  0  0  0
    1.4256   -1.0092    0.1947 H   0  0  0  0  0  0  0  0  0  0  0  0
   -0.1939   -0.8732    2.7093 H   0  0  0  0  0  0  0  0  0  0  0  0
   -0.3824   -3.1012    1.8422 H   0  0  0  0  0  0  0  0  0  0  0  0
   -0.3743   -2.5677    0.1748 H   0  0  0  0  0  0  0  0  0  0  0  0
   -2.5261   -2.8500    3.2353 H   0  0  0  0  0  0  0  0  0  0  0  0
   -2.6491   -1.1123    2.9395 H   0  0  0  0  0  0  0  0  0  0  0  0
   -3.9915   -2.1726    2.5136 H   0  0  0  0  0  0  0  0  0  0  0  0
   -3.8721   -3.7404    0.5578 H   0  0  0  0  0  0  0  0  0  0  0  0
   -2.3767   -3.9177   -0.3712 H   0  0  0  0  0  0  0  0  0  0  0  0
   -2.4522   -4.4965    1.2986 H   0  0  0  0  0  0  0  0  0  0  0  0
   -2.6591   -1.5682   -0.8937 H   0  0  0  0  0  0  0  0  0  0  0  0
   -3.8979   -1.0836    0.2871 H   0  0  0  0  0  0  0  0  0  0  0  0
    0.1613    2.0786    1.5558 H   0  0  0  0  0  0  0  0  0  0  0  0
   -3.1813    3.8846   -0.4275 H   0  0  0  0  0  0  0  0  0  0  0  0
   -5.0044    4.7400   -1.8332 H   0  0  0  0  0  0  0  0  0  0  0  0
   -6.4060    3.1580   -3.1610 H   0  0  0  0  0  0  0  0  0  0  0  0
   -4.1410   -0.1456   -1.7319 H   0  0  0  0  0  0  0  0  0  0  0  0
    1.2090    1.0431   -1.9062 H   0  0  0  0  0  0  0  0  0  0  0  0
    2.1268    1.9095   -0.6631 H   0  0  0  0  0  0  0  0  0  0  0  0
    2.8781    1.5197   -2.2489 H   0  0  0  0  0  0  0  0  0  0  0  0
  1  2  1  0
  2  3  1  0
  3  4  2  0
  4  5  1  0
  5  6  2  0
  6  7  1  0
  7  8  1  0
  8  9  2  0
  8 10  1  0
 10 11  1  0
 11 12  1  0
 12 13  1  0
 13 14  1  0
 13 15  1  0
 13 16  1  0
 16 17  1  0
 17 18  2  0
 18 19  1  0
 19 20  2  0
 20 21  1  0
 21 22  1  0
 22 23  2  0
 23 24  1  0
 24 25  2  0
 25 26  1  0
 26 27  1  0
 26 28  2  0
  7 29  2  0
 29 30  1  0
 30 31  1  0
 29  3  1  0
 18 11  1  0
 28 22  1  0
 21 17  1  0
  1 32  1  0
  1 33  1  0
  1 34  1  0
  4 35  1  0
  5 36  1  0
  6 37  1  0
 10 38  1  0
 11 39  1  0
 12 40  1  0
 12 41  1  0
 14 42  1  0
 14 43  1  0
 14 44  1  0
 15 45  1  0
 15 46  1  0
 15 47  1  0
 16 48  1  0
 16 49  1  0
 19 50  1  0
 23 51  1  0
 24 52  1  0
 25 53  1  0
 28 54  1  0
 31 55  1  0
 31 56  1  0
 31 57  1  0
M  END
$$$$
