
     RDKit          3D

 47 48  0  0  0  0  0  0  0  0999 V2000
    3.6562   -2.7531    0.5559 C   0  0  0  0  0  0  0  0  0  0  0  0
    3.6150   -1.2556    0.5139 C   0  0  0  0  0  0  0  0  0  0  0  0
    2.4721   -0.5642    0.9259 C   0  0  0  0  0  0  0  0  0  0  0  0
    2.4516    0.8333    0.9266 C   0  0  0  0  0  0  0  0  0  0  0  0
    3.5747    1.5675    0.5178 C   0  0  0  0  0  0  0  0  0  0  0  0
    3.5469    3.0780    0.5345 C   0  0  0  0  0  0  0  0  0  0  0  0
    3.7531    3.8494   -1.0947 S   0  0  0  0  0  0  0  0  0  0  0  0
    2.2744    3.3945   -1.8798 C   0  0  0  0  0  0  0  0  0  0  0  0
    2.0273    3.5919   -3.1605 N   0  0  0  0  0  0  0  0  0  0  0  0
    0.7755    3.0642   -3.4148 N   0  0  0  0  0  0  0  0  0  0  0  0
    0.3436    2.5923   -2.2671 C   0  0  0  0  0  0  0  0  0  0  0  0
   -0.9024    1.8677   -1.9455 C   0  0  0  0  0  0  0  0  0  0  0  0
   -0.6768    0.3600   -2.0291 C   0  0  0  0  0  0  0  0  0  0  0  0
   -1.8439   -0.3966   -1.6295 N   0  0  0  0  0  0  0  0  0  0  0  0
   -2.1997   -0.5542   -0.3236 C   0  0  0  0  0  0  0  0  0  0  0  0
   -1.5761   -0.1053    0.6241 O   0  0  0  0  0  0  0  0  0  0  0  0
   -3.3477   -1.2630   -0.2678 O   0  0  0  0  0  0  0  0  0  0  0  0
   -3.9723   -1.5612    1.0070 C   0  0  0  0  0  0  0  0  0  0  0  0
   -3.0671   -2.4347    1.8816 C   0  0  0  0  0  0  0  0  0  0  0  0
   -5.2307   -2.3646    0.6468 C   0  0  0  0  0  0  0  0  0  0  0  0
   -4.3995   -0.2765    1.7258 C   0  0  0  0  0  0  0  0  0  0  0  0
    1.2234    2.7919   -1.2429 O   0  0  0  0  0  0  0  0  0  0  0  0
    4.7250    0.8694    0.1226 C   0  0  0  0  0  0  0  0  0  0  0  0
    4.7448   -0.5284    0.1229 C   0  0  0  0  0  0  0  0  0  0  0  0
    2.6488   -3.1785    0.4976 H   0  0  0  0  0  0  0  0  0  0  0  0
    4.1238   -3.0867    1.4873 H   0  0  0  0  0  0  0  0  0  0  0  0
    4.2249   -3.1496   -0.2901 H   0  0  0  0  0  0  0  0  0  0  0  0
    1.5860   -1.1054    1.2519 H   0  0  0  0  0  0  0  0  0  0  0  0
    1.5437    1.3393    1.2511 H   0  0  0  0  0  0  0  0  0  0  0  0
    4.3619    3.4283    1.1785 H   0  0  0  0  0  0  0  0  0  0  0  0
    2.6211    3.4480    0.9920 H   0  0  0  0  0  0  0  0  0  0  0  0
   -1.6961    2.1648   -2.6408 H   0  0  0  0  0  0  0  0  0  0  0  0
   -1.2449    2.1534   -0.9441 H   0  0  0  0  0  0  0  0  0  0  0  0
   -0.4318    0.0595   -3.0545 H   0  0  0  0  0  0  0  0  0  0  0  0
    0.1596    0.0592   -1.3867 H   0  0  0  0  0  0  0  0  0  0  0  0
   -2.4751   -0.7843   -2.3174 H   0  0  0  0  0  0  0  0  0  0  0  0
   -2.6900   -3.2931    1.3160 H   0  0  0  0  0  0  0  0  0  0  0  0
   -3.6024   -2.8046    2.7619 H   0  0  0  0  0  0  0  0  0  0  0  0
   -2.1907   -1.8847    2.2397 H   0  0  0  0  0  0  0  0  0  0  0  0
   -4.9680   -3.2698    0.0867 H   0  0  0  0  0  0  0  0  0  0  0  0
   -5.8937   -1.7808   -0.0021 H   0  0  0  0  0  0  0  0  0  0  0  0
   -5.7921   -2.6613    1.5395 H   0  0  0  0  0  0  0  0  0  0  0  0
   -4.9433    0.3858    1.0417 H   0  0  0  0  0  0  0  0  0  0  0  0
   -5.0421   -0.4932    2.5859 H   0  0  0  0  0  0  0  0  0  0  0  0
   -3.5382    0.2893    2.0946 H   0  0  0  0  0  0  0  0  0  0  0  0
    5.6183    1.4091   -0.1868 H   0  0  0  0  0  0  0  0  0  0  0  0
    5.6528   -1.0472   -0.1817 H   0  0  0  0  0  0  0  0  0  0  0  0
  1  2  1  0
  2  3  2  0
  3  4  1  0
  4  5  2  0
  5  6  1  0
  6  7  1  0
  7  8  1  0
  8  9  2  0
  9 10  1  0
 10 11  2  0
 11 12  1  0
 12 13  1  0
 13 14  1  0
 14 15  1  0
 15 16  2  0
 15 17  1  0
 17 18  1  0
 18 19  1  0
 18 20  1  0
 18 21  1  0
 11 22  1  0
  5 23  1  0
 23 24  2  0
 24  2  1  0
 22  8  1  0
  1 25  1  0
  1 26  1  0
  1 27  1  0
  3 28  1  0
  4 29  1  0
  6 30  1  0
  6 31  1  0
 12 32  1  0
 12 33  1  0
 13 34  1  0
 13 35  1  0
 14 36  1  0
 19 37  1  0
 19 38  1  0
 19 39  1  0
 20 40  1  0
 20 41  1  0
 20 42  1  0
 21 43  1  0
 21 44  1  0
 21 45  1  0
 23 46  1  0
 24 47  1  0
M  END
$$$$
