
     RDKit          3D

 46 49  0  0  0  0  0  0  0  0999 V2000
   -1.0003   -0.7100    4.9219 C   0  0  0  0  0  0  0  0  0  0  0  0
   -1.5942   -0.4545    3.6505 O   0  0  0  0  0  0  0  0  0  0  0  0
   -0.7014   -0.3643    2.6189 C   0  0  0  0  0  0  0  0  0  0  0  0
    0.5128   -0.4792    2.7566 O   0  0  0  0  0  0  0  0  0  0  0  0
   -1.3385   -0.1114    1.3291 C   0  0  0  0  0  0  0  0  0  0  0  0
   -2.6697    0.0322    1.1688 N   0  0  0  0  0  0  0  0  0  0  0  0
   -2.7917    0.2612   -0.1640 N   0  0  0  0  0  0  0  0  0  0  0  0
   -4.0550    0.4704   -0.7770 C   0  0  0  0  0  0  0  0  0  0  0  0
   -5.2260    0.4359   -0.0057 C   0  0  0  0  0  0  0  0  0  0  0  0
   -6.4665    0.6420   -0.6129 C   0  0  0  0  0  0  0  0  0  0  0  0
   -6.5430    0.8822   -1.9847 C   0  0  0  0  0  0  0  0  0  0  0  0
   -5.3809    0.9177   -2.7553 C   0  0  0  0  0  0  0  0  0  0  0  0
   -4.1363    0.7125   -2.1562 C   0  0  0  0  0  0  0  0  0  0  0  0
   -1.6374    0.2818   -0.8744 N   0  0  0  0  0  0  0  0  0  0  0  0
   -0.7195    0.0402    0.0689 C   0  0  0  0  0  0  0  0  0  0  0  0
    0.7136   -0.0068   -0.2133 C   0  0  0  0  0  0  0  0  0  0  0  0
    1.4006    1.0513   -0.6596 N   0  0  0  0  0  0  0  0  0  0  0  0
    2.6488    0.5431   -0.8046 N   0  0  0  0  0  0  0  0  0  0  0  0
    3.7341    1.3355   -1.2626 C   0  0  0  0  0  0  0  0  0  0  0  0
    5.0115    0.7711   -1.3938 C   0  0  0  0  0  0  0  0  0  0  0  0
    6.0761    1.5544   -1.8444 C   0  0  0  0  0  0  0  0  0  0  0  0
    5.8715    2.8964   -2.1643 C   0  0  0  0  0  0  0  0  0  0  0  0
    4.6027    3.4614   -2.0356 C   0  0  0  0  0  0  0  0  0  0  0  0
    3.5325    2.6855   -1.5855 C   0  0  0  0  0  0  0  0  0  0  0  0
    2.8007   -0.7690   -0.4897 N   0  0  0  0  0  0  0  0  0  0  0  0
    1.5595   -1.1326   -0.1077 C   0  0  0  0  0  0  0  0  0  0  0  0
    1.2077   -2.4846    0.3185 C   0  0  0  0  0  0  0  0  0  0  0  0
    0.0716   -2.8092    0.6507 O   0  0  0  0  0  0  0  0  0  0  0  0
    2.2696   -3.3459    0.3042 O   0  0  0  0  0  0  0  0  0  0  0  0
    1.9568   -4.6725    0.7245 C   0  0  0  0  0  0  0  0  0  0  0  0
   -0.4667   -1.6657    4.9115 H   0  0  0  0  0  0  0  0  0  0  0  0
   -0.3281    0.1069    5.2024 H   0  0  0  0  0  0  0  0  0  0  0  0
   -1.8007   -0.7694    5.6646 H   0  0  0  0  0  0  0  0  0  0  0  0
   -5.1887    0.2495    1.0660 H   0  0  0  0  0  0  0  0  0  0  0  0
   -7.3740    0.6148   -0.0147 H   0  0  0  0  0  0  0  0  0  0  0  0
   -7.5104    1.0425   -2.4544 H   0  0  0  0  0  0  0  0  0  0  0  0
   -5.4433    1.1058   -3.8243 H   0  0  0  0  0  0  0  0  0  0  0  0
   -3.2417    0.7455   -2.7754 H   0  0  0  0  0  0  0  0  0  0  0  0
    5.1929   -0.2738   -1.1491 H   0  0  0  0  0  0  0  0  0  0  0  0
    7.0662    1.1167   -1.9457 H   0  0  0  0  0  0  0  0  0  0  0  0
    6.7025    3.5035   -2.5151 H   0  0  0  0  0  0  0  0  0  0  0  0
    4.4458    4.5076   -2.2862 H   0  0  0  0  0  0  0  0  0  0  0  0
    2.5503    3.1455   -1.4934 H   0  0  0  0  0  0  0  0  0  0  0  0
    1.5933   -4.6726    1.7569 H   0  0  0  0  0  0  0  0  0  0  0  0
    1.2196   -5.1238    0.0531 H   0  0  0  0  0  0  0  0  0  0  0  0
    2.8735   -5.2672    0.6810 H   0  0  0  0  0  0  0  0  0  0  0  0
  1  2  1  0
  2  3  1  0
  3  4  2  0
  3  5  1  0
  5  6  2  0
  6  7  1  0
  7  8  1  0
  8  9  2  0
  9 10  1  0
 10 11  2  0
 11 12  1  0
 12 13  2  0
  7 14  1  0
 14 15  2  0
 15 16  1  0
 16 17  2  0
 17 18  1  0
 18 19  1  0
 19 20  2  0
 20 21  1  0
 21 22  2  0
 22 23  1  0
 23 24  2  0
 18 25  1  0
 25 26  2  0
 26 27  1  0
 27 28  2  0
 27 29  1  0
 29 30  1  0
 15  5  1  0
 26 16  1  0
 13  8  1  0
 24 19  1  0
  1 31  1  0
  1 32  1  0
  1 33  1  0
  9 34  1  0
 10 35  1  0
 11 36  1  0
 12 37  1  0
 13 38  1  0
 20 39  1  0
 21 40  1  0
 22 41  1  0
 23 42  1  0
 24 43  1  0
 30 44  1  0
 30 45  1  0
 30 46  1  0
M  END
$$$$
