
     RDKit          3D

 52 55  0  0  0  0  0  0  0  0999 V2000
   -6.8692   -4.4984    0.1701 C   0  0  0  0  0  0  0  0  0  0  0  0
   -6.6837   -3.3212   -0.6058 O   0  0  0  0  0  0  0  0  0  0  0  0
   -5.3933   -2.9214   -0.8190 C   0  0  0  0  0  0  0  0  0  0  0  0
   -4.2443   -3.6125   -0.4341 C   0  0  0  0  0  0  0  0  0  0  0  0
   -2.9776   -3.0862   -0.7166 C   0  0  0  0  0  0  0  0  0  0  0  0
   -2.8486   -1.8603   -1.3775 C   0  0  0  0  0  0  0  0  0  0  0  0
   -1.5340   -1.3039   -1.7073 C   0  0  0  0  0  0  0  0  0  0  0  0
   -0.5997   -0.8740   -0.8445 C   0  0  0  0  0  0  0  0  0  0  0  0
    0.9012   -0.2251   -1.3986 S   0  0  0  0  0  0  0  0  0  0  0  0
    1.5584   -0.1767    0.2264 C   0  0  0  0  0  0  0  0  0  0  0  0
    2.8903   -0.0679    0.4421 C   0  0  0  0  0  0  0  0  0  0  0  0
    3.5299   -0.3447    1.6835 C   0  0  0  0  0  0  0  0  0  0  0  0
    4.0677   -0.5560    2.6909 N   0  0  0  0  0  0  0  0  0  0  0  0
    3.8456    0.2000   -0.6704 C   0  0  0  0  0  0  0  0  0  0  0  0
    4.7391   -0.5905   -0.9490 O   0  0  0  0  0  0  0  0  0  0  0  0
    3.6759    1.4082   -1.2990 N   0  0  0  0  0  0  0  0  0  0  0  0
    4.4782    1.7620   -2.4485 C   0  0  0  0  0  0  0  0  0  0  0  0
    4.2204    3.1837   -2.7734 C   0  0  0  0  0  0  0  0  0  0  0  0
    5.0052    4.3186   -2.7730 C   0  0  0  0  0  0  0  0  0  0  0  0
    4.1643    5.3863   -3.1698 C   0  0  0  0  0  0  0  0  0  0  0  0
    2.9220    4.8374   -3.3837 C   0  0  0  0  0  0  0  0  0  0  0  0
    2.9424    3.5021   -3.1400 O   0  0  0  0  0  0  0  0  0  0  0  0
    0.5498   -0.3943    1.1721 N   0  0  0  0  0  0  0  0  0  0  0  0
    0.6027   -0.0483    2.5624 C   0  0  0  0  0  0  0  0  0  0  0  0
    1.1803    1.1623    2.9772 C   0  0  0  0  0  0  0  0  0  0  0  0
    1.2205    1.5071    4.3314 C   0  0  0  0  0  0  0  0  0  0  0  0
    0.6739    0.6539    5.2857 C   0  0  0  0  0  0  0  0  0  0  0  0
    0.0778   -0.5388    4.8876 C   0  0  0  0  0  0  0  0  0  0  0  0
    0.0373   -0.8859    3.5345 C   0  0  0  0  0  0  0  0  0  0  0  0
   -0.6860   -0.8265    0.6443 C   0  0  0  0  0  0  0  0  0  0  0  0
   -1.7075   -1.0825    1.2665 O   0  0  0  0  0  0  0  0  0  0  0  0
   -4.0009   -1.1766   -1.7746 C   0  0  0  0  0  0  0  0  0  0  0  0
   -5.2635   -1.7059   -1.4942 C   0  0  0  0  0  0  0  0  0  0  0  0
   -6.4611   -5.3756   -0.3429 H   0  0  0  0  0  0  0  0  0  0  0  0
   -7.9462   -4.6535    0.2894 H   0  0  0  0  0  0  0  0  0  0  0  0
   -6.4357   -4.3874    1.1700 H   0  0  0  0  0  0  0  0  0  0  0  0
   -4.2950   -4.5611    0.0894 H   0  0  0  0  0  0  0  0  0  0  0  0
   -2.0955   -3.6404   -0.4045 H   0  0  0  0  0  0  0  0  0  0  0  0
   -1.3497   -1.2428   -2.7787 H   0  0  0  0  0  0  0  0  0  0  0  0
    2.8370    1.9553   -1.1492 H   0  0  0  0  0  0  0  0  0  0  0  0
    4.1945    1.1113   -3.2826 H   0  0  0  0  0  0  0  0  0  0  0  0
    5.5340    1.5869   -2.2191 H   0  0  0  0  0  0  0  0  0  0  0  0
    6.0551    4.3686   -2.5163 H   0  0  0  0  0  0  0  0  0  0  0  0
    4.4303    6.4278   -3.2862 H   0  0  0  0  0  0  0  0  0  0  0  0
    1.9687    5.2413   -3.6948 H   0  0  0  0  0  0  0  0  0  0  0  0
    1.5789    1.8731    2.2590 H   0  0  0  0  0  0  0  0  0  0  0  0
    1.6744    2.4448    4.6407 H   0  0  0  0  0  0  0  0  0  0  0  0
    0.7066    0.9208    6.3391 H   0  0  0  0  0  0  0  0  0  0  0  0
   -0.3559   -1.2048    5.6294 H   0  0  0  0  0  0  0  0  0  0  0  0
   -0.4297   -1.8279    3.2567 H   0  0  0  0  0  0  0  0  0  0  0  0
   -3.9309   -0.2256   -2.2963 H   0  0  0  0  0  0  0  0  0  0  0  0
   -6.1547   -1.1629   -1.7987 H   0  0  0  0  0  0  0  0  0  0  0  0
  1  2  1  0
  2  3  1  0
  3  4  2  0
  4  5  1  0
  5  6  2  0
  6  7  1  0
  7  8  2  3
  8  9  1  0
  9 10  1  0
 10 11  2  3
 11 12  1  0
 12 13  3  0
 11 14  1  0
 14 15  2  0
 14 16  1  0
 16 17  1  0
 17 18  1  0
 18 19  2  0
 19 20  1  0
 20 21  2  0
 21 22  1  0
 10 23  1  0
 23 24  1  0
 24 25  2  0
 25 26  1  0
 26 27  2  0
 27 28  1  0
 28 29  2  0
 23 30  1  0
 30 31  2  0
  6 32  1  0
 32 33  2  0
 33  3  1  0
 30  8  1  0
 22 18  1  0
 29 24  1  0
  1 34  1  0
  1 35  1  0
  1 36  1  0
  4 37  1  0
  5 38  1  0
  7 39  1  0
 16 40  1  0
 17 41  1  0
 17 42  1  0
 19 43  1  0
 20 44  1  0
 21 45  1  0
 25 46  1  0
 26 47  1  0
 27 48  1  0
 28 49  1  0
 29 50  1  0
 32 51  1  0
 33 52  1  0
M  END
$$$$
