
     RDKit          3D

 56 58  0  0  0  0  0  0  0  0999 V2000
   -6.4649    1.8881    0.3946 C   0  0  0  0  0  0  0  0  0  0  0  0
   -5.3230    1.9223   -0.6009 C   0  0  0  0  0  0  0  0  0  0  0  0
   -4.1237    1.5486    0.0860 O   0  0  0  0  0  0  0  0  0  0  0  0
   -3.0174    1.4737   -0.7056 C   0  0  0  0  0  0  0  0  0  0  0  0
   -3.0016    1.7031   -1.9083 O   0  0  0  0  0  0  0  0  0  0  0  0
   -1.8245    1.0183    0.0959 C   0  0  0  0  0  0  0  0  0  0  0  0
   -0.6328    1.9014   -0.1933 C   0  0  0  0  0  0  0  0  0  0  0  0
   -0.4990    3.0007    0.3431 O   0  0  0  0  0  0  0  0  0  0  0  0
    0.3783    1.4587   -1.1843 C   0  0  0  0  0  0  0  0  0  0  0  0
    0.2585    0.2835   -1.8226 C   0  0  0  0  0  0  0  0  0  0  0  0
    1.2127   -0.1370   -2.8335 C   0  0  0  0  0  0  0  0  0  0  0  0
    2.5369   -0.3031   -2.6797 C   0  0  0  0  0  0  0  0  0  0  0  0
    3.2946   -0.1359   -1.4364 C   0  0  0  0  0  0  0  0  0  0  0  0
    3.0300   -0.9115   -0.3101 C   0  0  0  0  0  0  0  0  0  0  0  0
    3.7804   -0.7417    0.8637 C   0  0  0  0  0  0  0  0  0  0  0  0
    4.8309    0.1887    0.9586 C   0  0  0  0  0  0  0  0  0  0  0  0
    5.5614    0.3647    2.1398 N   0  0  0  0  0  0  0  0  0  0  0  0
    5.5136   -0.6795    3.1615 C   0  0  0  0  0  0  0  0  0  0  0  0
    6.7901    1.1561    2.1054 C   0  0  0  0  0  0  0  0  0  0  0  0
    5.0689    0.9589   -0.1938 C   0  0  0  0  0  0  0  0  0  0  0  0
    4.3254    0.7971   -1.3737 C   0  0  0  0  0  0  0  0  0  0  0  0
   -0.8783   -0.6736   -1.5615 C   0  0  0  0  0  0  0  0  0  0  0  0
   -1.4802   -0.4595   -0.1576 C   0  0  0  0  0  0  0  0  0  0  0  0
   -2.6278   -1.3967    0.1914 C   0  0  0  0  0  0  0  0  0  0  0  0
   -2.7645   -1.8402    1.5177 C   0  0  0  0  0  0  0  0  0  0  0  0
   -3.8178   -2.6784    1.8883 C   0  0  0  0  0  0  0  0  0  0  0  0
   -4.7539   -3.0819    0.9409 C   0  0  0  0  0  0  0  0  0  0  0  0
   -4.6382   -2.6449   -0.3761 C   0  0  0  0  0  0  0  0  0  0  0  0
   -3.5847   -1.8066   -0.7492 C   0  0  0  0  0  0  0  0  0  0  0  0
   -6.5703    0.8860    0.8240 H   0  0  0  0  0  0  0  0  0  0  0  0
   -7.4076    2.1692   -0.0823 H   0  0  0  0  0  0  0  0  0  0  0  0
   -6.2717    2.5723    1.2269 H   0  0  0  0  0  0  0  0  0  0  0  0
   -5.5211    1.2166   -1.4155 H   0  0  0  0  0  0  0  0  0  0  0  0
   -5.2135    2.9340   -1.0071 H   0  0  0  0  0  0  0  0  0  0  0  0
   -2.0465    1.1492    1.1646 H   0  0  0  0  0  0  0  0  0  0  0  0
    1.1888    2.1539   -1.3730 H   0  0  0  0  0  0  0  0  0  0  0  0
    0.7803   -0.3448   -3.8125 H   0  0  0  0  0  0  0  0  0  0  0  0
    3.1346   -0.5999   -3.5390 H   0  0  0  0  0  0  0  0  0  0  0  0
    2.2389   -1.6568   -0.3264 H   0  0  0  0  0  0  0  0  0  0  0  0
    3.5097   -1.3668    1.7084 H   0  0  0  0  0  0  0  0  0  0  0  0
    5.8582   -1.6387    2.7591 H   0  0  0  0  0  0  0  0  0  0  0  0
    6.1546   -0.4310    4.0153 H   0  0  0  0  0  0  0  0  0  0  0  0
    4.5028   -0.7913    3.5676 H   0  0  0  0  0  0  0  0  0  0  0  0
    6.5940    2.1848    1.7838 H   0  0  0  0  0  0  0  0  0  0  0  0
    7.2376    1.2350    3.1028 H   0  0  0  0  0  0  0  0  0  0  0  0
    7.5329    0.6967    1.4439 H   0  0  0  0  0  0  0  0  0  0  0  0
    5.8455    1.7171   -0.2100 H   0  0  0  0  0  0  0  0  0  0  0  0
    4.5579    1.4215   -2.2326 H   0  0  0  0  0  0  0  0  0  0  0  0
   -0.5189   -1.7096   -1.6282 H   0  0  0  0  0  0  0  0  0  0  0  0
   -1.6231   -0.5483   -2.3556 H   0  0  0  0  0  0  0  0  0  0  0  0
   -0.6647   -0.7157    0.5392 H   0  0  0  0  0  0  0  0  0  0  0  0
   -2.0501   -1.5335    2.2792 H   0  0  0  0  0  0  0  0  0  0  0  0
   -3.9085   -3.0133    2.9186 H   0  0  0  0  0  0  0  0  0  0  0  0
   -5.5752   -3.7330    1.2289 H   0  0  0  0  0  0  0  0  0  0  0  0
   -5.3731   -2.9535   -1.1156 H   0  0  0  0  0  0  0  0  0  0  0  0
   -3.5410   -1.4733   -1.7833 H   0  0  0  0  0  0  0  0  0  0  0  0
  1  2  1  0
  2  3  1  0
  3  4  1  0
  4  5  2  0
  4  6  1  0
  6  7  1  0
  7  8  2  0
  7  9  1  0
  9 10  2  0
 10 11  1  0
 11 12  2  3
 12 13  1  0
 13 14  2  0
 14 15  1  0
 15 16  2  0
 16 17  1  0
 17 18  1  0
 17 19  1  0
 16 20  1  0
 20 21  2  0
 10 22  1  0
 22 23  1  0
 23 24  1  0
 24 25  2  0
 25 26  1  0
 26 27  2  0
 27 28  1  0
 28 29  2  0
 23  6  1  0
 29 24  1  0
 21 13  1  0
  1 30  1  0
  1 31  1  0
  1 32  1  0
  2 33  1  0
  2 34  1  0
  6 35  1  0
  9 36  1  0
 11 37  1  0
 12 38  1  0
 14 39  1  0
 15 40  1  0
 18 41  1  0
 18 42  1  0
 18 43  1  0
 19 44  1  0
 19 45  1  0
 19 46  1  0
 20 47  1  0
 21 48  1  0
 22 49  1  0
 22 50  1  0
 23 51  1  0
 25 52  1  0
 26 53  1  0
 27 54  1  0
 28 55  1  0
 29 56  1  0
M  END
$$$$
