
     RDKit          3D

 38 40  0  0  0  0  0  0  0  0999 V2000
   -1.0452   -1.0650   -3.8606 C   0  0  0  0  0  0  0  0  0  0  0  0
   -0.4454   -0.6258   -2.5501 C   0  0  0  0  0  0  0  0  0  0  0  0
    0.7707   -0.6037   -2.3749 O   0  0  0  0  0  0  0  0  0  0  0  0
   -1.3382   -0.2681   -1.4356 C   0  0  0  0  0  0  0  0  0  0  0  0
   -1.1573   -0.7394   -0.1401 C   0  0  0  0  0  0  0  0  0  0  0  0
   -0.0190   -1.6558    0.2396 C   0  0  0  0  0  0  0  0  0  0  0  0
    1.1541   -0.8672    0.4445 O   0  0  0  0  0  0  0  0  0  0  0  0
    2.2551   -1.6062    0.7194 C   0  0  0  0  0  0  0  0  0  0  0  0
    2.2771   -2.8154    0.8872 O   0  0  0  0  0  0  0  0  0  0  0  0
    3.4530   -0.7341    0.8268 C   0  0  0  0  0  0  0  0  0  0  0  0
    4.6018   -1.2558    1.4363 C   0  0  0  0  0  0  0  0  0  0  0  0
    5.7514   -0.4723    1.5542 C   0  0  0  0  0  0  0  0  0  0  0  0
    5.7601    0.8314    1.0590 C   0  0  0  0  0  0  0  0  0  0  0  0
    4.6230    1.3535    0.4425 C   0  0  0  0  0  0  0  0  0  0  0  0
    3.4704    0.5736    0.3235 C   0  0  0  0  0  0  0  0  0  0  0  0
   -1.9993   -0.3949    0.8691 N   0  0  0  0  0  0  0  0  0  0  0  0
   -3.0226    0.4316    0.6243 C   0  0  0  0  0  0  0  0  0  0  0  0
   -3.8768    0.7859    1.6606 C   0  0  0  0  0  0  0  0  0  0  0  0
   -4.9607    1.6462    1.4593 C   0  0  0  0  0  0  0  0  0  0  0  0
   -5.2042    2.1705    0.1960 C   0  0  0  0  0  0  0  0  0  0  0  0
   -4.3610    1.8301   -0.8580 C   0  0  0  0  0  0  0  0  0  0  0  0
   -3.2660    0.9584   -0.6523 C   0  0  0  0  0  0  0  0  0  0  0  0
   -2.3916    0.5906   -1.6979 N   0  0  0  0  0  4  0  0  0  0  0  0
   -2.5848    1.0677   -2.8736 O   0  0  0  0  0  1  0  0  0  0  0  0
   -0.4867   -1.9307   -4.2295 H   0  0  0  0  0  0  0  0  0  0  0  0
   -0.9800   -0.2529   -4.5887 H   0  0  0  0  0  0  0  0  0  0  0  0
   -2.0855   -1.3787   -3.7384 H   0  0  0  0  0  0  0  0  0  0  0  0
    0.1392   -2.4143   -0.5366 H   0  0  0  0  0  0  0  0  0  0  0  0
   -0.2735   -2.1720    1.1741 H   0  0  0  0  0  0  0  0  0  0  0  0
    4.6046   -2.2740    1.8204 H   0  0  0  0  0  0  0  0  0  0  0  0
    6.6402   -0.8806    2.0285 H   0  0  0  0  0  0  0  0  0  0  0  0
    6.6570    1.4398    1.1477 H   0  0  0  0  0  0  0  0  0  0  0  0
    4.6351    2.3665    0.0475 H   0  0  0  0  0  0  0  0  0  0  0  0
    2.5991    0.9903   -0.1763 H   0  0  0  0  0  0  0  0  0  0  0  0
   -3.6950    0.3836    2.6556 H   0  0  0  0  0  0  0  0  0  0  0  0
   -5.6099    1.9051    2.2927 H   0  0  0  0  0  0  0  0  0  0  0  0
   -6.0436    2.8419    0.0308 H   0  0  0  0  0  0  0  0  0  0  0  0
   -4.5458    2.2402   -1.8504 H   0  0  0  0  0  0  0  0  0  0  0  0
  1  2  1  0
  2  3  2  0
  2  4  1  0
  4  5  2  0
  5  6  1  0
  6  7  1  0
  7  8  1  0
  8  9  2  0
  8 10  1  0
 10 11  2  0
 11 12  1  0
 12 13  2  0
 13 14  1  0
 14 15  2  0
  5 16  1  0
 16 17  2  0
 17 18  1  0
 18 19  2  0
 19 20  1  0
 20 21  2  0
 21 22  1  0
 22 23  2  0
 23 24  1  0
 23  4  1  0
 15 10  1  0
 22 17  1  0
  1 25  1  0
  1 26  1  0
  1 27  1  0
  6 28  1  0
  6 29  1  0
 11 30  1  0
 12 31  1  0
 13 32  1  0
 14 33  1  0
 15 34  1  0
 18 35  1  0
 19 36  1  0
 20 37  1  0
 21 38  1  0
M  CHG  2  23   1  24  -1
M  END
$$$$
