
     RDKit          3D

 39 41  0  0  0  0  0  0  0  0999 V2000
    6.4606    0.9457    0.3397 C   0  0  0  0  0  0  0  0  0  0  0  0
    5.0763    1.3630   -0.0767 C   0  0  0  0  0  0  0  0  0  0  0  0
    4.3136    2.1670    0.7843 C   0  0  0  0  0  0  0  0  0  0  0  0
    3.0293    2.5782    0.4249 C   0  0  0  0  0  0  0  0  0  0  0  0
    2.4812    2.1862   -0.7945 C   0  0  0  0  0  0  0  0  0  0  0  0
    1.1857    2.5839   -1.1477 N   0  0  0  0  0  0  0  0  0  0  0  0
    0.1957    1.8201   -0.8377 C   0  0  0  0  0  0  0  0  0  0  0  0
    0.2401    0.6298   -0.1862 N   0  0  0  0  0  0  0  0  0  0  0  0
   -0.9394   -0.0194    0.0405 C   0  0  0  0  0  0  0  0  0  0  0  0
   -1.0206   -1.0934    0.6145 O   0  0  0  0  0  0  0  0  0  0  0  0
   -2.0742    0.7780   -0.5132 C   0  0  0  0  0  0  0  0  0  0  0  0
   -3.3843    0.4903   -0.4964 C   0  0  0  0  0  0  0  0  0  0  0  0
   -4.0126   -0.6851    0.0751 C   0  0  0  0  0  0  0  0  0  0  0  0
   -5.3399   -0.8818    0.0405 C   0  0  0  0  0  0  0  0  0  0  0  0
   -5.9676   -2.0314    0.5980 C   0  0  0  0  0  0  0  0  0  0  0  0
   -5.4497   -3.1430    1.2573 C   0  0  0  0  0  0  0  0  0  0  0  0
   -6.5277   -3.9925    1.6038 C   0  0  0  0  0  0  0  0  0  0  0  0
   -7.6565   -3.3676    1.1437 C   0  0  0  0  0  0  0  0  0  0  0  0
   -7.3363   -2.1978    0.5422 O   0  0  0  0  0  0  0  0  0  0  0  0
   -1.4508    2.2301   -1.2355 S   0  0  0  0  0  0  0  0  0  0  0  0
    3.2433    1.4063   -1.6678 C   0  0  0  0  0  0  0  0  0  0  0  0
    4.5378    0.9837   -1.3226 C   0  0  0  0  0  0  0  0  0  0  0  0
    5.3208    0.1433   -2.2940 C   0  0  0  0  0  0  0  0  0  0  0  0
    6.6946    1.2854    1.3543 H   0  0  0  0  0  0  0  0  0  0  0  0
    7.2058    1.3779   -0.3355 H   0  0  0  0  0  0  0  0  0  0  0  0
    6.5489   -0.1453    0.3324 H   0  0  0  0  0  0  0  0  0  0  0  0
    4.7188    2.4871    1.7421 H   0  0  0  0  0  0  0  0  0  0  0  0
    2.4562    3.2111    1.0971 H   0  0  0  0  0  0  0  0  0  0  0  0
    1.1061    0.2215    0.1274 H   0  0  0  0  0  0  0  0  0  0  0  0
   -4.0694    1.2032   -0.9564 H   0  0  0  0  0  0  0  0  0  0  0  0
   -3.3659   -1.4214    0.5440 H   0  0  0  0  0  0  0  0  0  0  0  0
   -6.0001   -0.1550   -0.4247 H   0  0  0  0  0  0  0  0  0  0  0  0
   -4.4039   -3.3224    1.4665 H   0  0  0  0  0  0  0  0  0  0  0  0
   -6.4836   -4.9392    2.1229 H   0  0  0  0  0  0  0  0  0  0  0  0
   -8.7096   -3.6104    1.1631 H   0  0  0  0  0  0  0  0  0  0  0  0
    2.8177    1.1331   -2.6309 H   0  0  0  0  0  0  0  0  0  0  0  0
    6.2499    0.6502   -2.5731 H   0  0  0  0  0  0  0  0  0  0  0  0
    4.7561   -0.0388   -3.2145 H   0  0  0  0  0  0  0  0  0  0  0  0
    5.5535   -0.8305   -1.8519 H   0  0  0  0  0  0  0  0  0  0  0  0
  1  2  1  0
  2  3  2  0
  3  4  1  0
  4  5  2  0
  5  6  1  0
  6  7  2  3
  7  8  1  0
  8  9  1  0
  9 10  2  0
  9 11  1  0
 11 12  2  3
 12 13  1  0
 13 14  2  3
 14 15  1  0
 15 16  2  0
 16 17  1  0
 17 18  2  0
 18 19  1  0
 11 20  1  0
  5 21  1  0
 21 22  2  0
 22 23  1  0
 22  2  1  0
 20  7  1  0
 19 15  1  0
  1 24  1  0
  1 25  1  0
  1 26  1  0
  3 27  1  0
  4 28  1  0
  8 29  1  0
 12 30  1  0
 13 31  1  0
 14 32  1  0
 16 33  1  0
 17 34  1  0
 18 35  1  0
 21 36  1  0
 23 37  1  0
 23 38  1  0
 23 39  1  0
M  END
$$$$
