
     RDKit          3D

 68 71  0  0  0  0  0  0  0  0999 V2000
   -0.5104    4.2342    0.3695 C   0  0  0  0  0  0  0  0  0  0  0  0
   -1.3268    3.2821   -0.5070 C   0  0  0  0  0  0  0  0  0  0  0  0
   -2.5390    3.9919   -0.7954 O   0  0  0  0  0  0  0  0  0  0  0  0
   -3.0304    3.8350   -2.0611 C   0  0  0  0  0  0  0  0  0  0  0  0
   -3.5668    4.9800   -2.6514 C   0  0  0  0  0  0  0  0  0  0  0  0
   -4.1015    4.9246   -3.9392 C   0  0  0  0  0  0  0  0  0  0  0  0
   -4.1149    3.7170   -4.6343 C   0  0  0  0  0  0  0  0  0  0  0  0
   -3.6062    2.5657   -4.0351 C   0  0  0  0  0  0  0  0  0  0  0  0
   -3.0724    2.6216   -2.7454 C   0  0  0  0  0  0  0  0  0  0  0  0
   -1.5851    1.9605    0.2691 C   0  0  0  0  0  0  0  0  0  0  0  0
   -2.7211    1.6667    0.6552 O   0  0  0  0  0  0  0  0  0  0  0  0
   -0.4745    1.1656    0.6149 N   0  0  0  0  0  0  0  0  0  0  0  0
   -0.7592   -0.0310    1.4424 C   0  0  0  0  0  0  0  0  0  0  0  0
   -1.3090   -1.2145    0.6242 C   0  0  0  0  0  0  0  0  0  0  0  0
   -1.6065   -2.5006    1.3775 C   0  0  0  0  0  0  0  0  0  0  0  0
   -1.4230   -2.6864    2.6989 C   0  0  0  0  0  0  0  0  0  0  0  0
   -1.7651   -3.9571    3.4251 C   0  0  0  0  0  0  0  0  0  0  0  0
   -2.6372   -4.9065    2.6064 C   0  0  0  0  0  0  0  0  0  0  0  0
   -2.1443   -4.9898    1.1687 C   0  0  0  0  0  0  0  0  0  0  0  0
   -2.1528   -3.6119    0.5027 C   0  0  0  0  0  0  0  0  0  0  0  0
    0.7262    1.1477   -0.1089 C   0  0  0  0  0  0  0  0  0  0  0  0
    1.9453    1.1855    0.4873 C   0  0  0  0  0  0  0  0  0  0  0  0
    2.0447    1.4109    1.8596 N   0  0  0  0  0  0  0  0  0  0  0  0
    3.0950    1.0309   -0.2862 N   0  0  0  0  0  0  0  0  0  0  0  0
    4.3815    0.7030    0.3405 C   0  0  0  0  0  0  0  0  0  0  0  0
    4.5405   -0.7852    0.5766 C   0  0  0  0  0  0  0  0  0  0  0  0
    5.1289   -1.6021   -0.3999 C   0  0  0  0  0  0  0  0  0  0  0  0
    5.2469   -2.9781   -0.1989 C   0  0  0  0  0  0  0  0  0  0  0  0
    4.7757   -3.5544    0.9785 C   0  0  0  0  0  0  0  0  0  0  0  0
    4.1864   -2.7558    1.9556 C   0  0  0  0  0  0  0  0  0  0  0  0
    4.0678   -1.3793    1.7558 C   0  0  0  0  0  0  0  0  0  0  0  0
    3.0622    0.9883   -1.6759 C   0  0  0  0  0  0  0  0  0  0  0  0
    4.0411    0.7991   -2.3953 O   0  0  0  0  0  0  0  0  0  0  0  0
    1.8416    1.1600   -2.2529 N   0  0  0  0  0  0  0  0  0  0  0  0
    0.6744    0.9642   -1.5896 C   0  0  0  0  0  0  0  0  0  0  0  0
   -0.3583    0.6575   -2.1764 O   0  0  0  0  0  0  0  0  0  0  0  0
   -1.0017    4.3912    1.3369 H   0  0  0  0  0  0  0  0  0  0  0  0
    0.4988    3.8613    0.5614 H   0  0  0  0  0  0  0  0  0  0  0  0
   -0.4247    5.2174   -0.1068 H   0  0  0  0  0  0  0  0  0  0  0  0
   -0.7652    3.1010   -1.4269 H   0  0  0  0  0  0  0  0  0  0  0  0
   -3.5643    5.9198   -2.1068 H   0  0  0  0  0  0  0  0  0  0  0  0
   -4.5124    5.8209   -4.3953 H   0  0  0  0  0  0  0  0  0  0  0  0
   -4.5351    3.6691   -5.6354 H   0  0  0  0  0  0  0  0  0  0  0  0
   -3.6347    1.6178   -4.5663 H   0  0  0  0  0  0  0  0  0  0  0  0
   -2.7213    1.7018   -2.2891 H   0  0  0  0  0  0  0  0  0  0  0  0
    0.1517   -0.3364    1.9678 H   0  0  0  0  0  0  0  0  0  0  0  0
   -1.4841    0.2557    2.2143 H   0  0  0  0  0  0  0  0  0  0  0  0
   -0.5858   -1.4546   -0.1653 H   0  0  0  0  0  0  0  0  0  0  0  0
   -2.2278   -0.8994    0.1146 H   0  0  0  0  0  0  0  0  0  0  0  0
   -1.0163   -1.8991    3.3263 H   0  0  0  0  0  0  0  0  0  0  0  0
   -0.8294   -4.4580    3.7015 H   0  0  0  0  0  0  0  0  0  0  0  0
   -2.2857   -3.7131    4.3584 H   0  0  0  0  0  0  0  0  0  0  0  0
   -2.6342   -5.9010    3.0670 H   0  0  0  0  0  0  0  0  0  0  0  0
   -3.6767   -4.5538    2.6157 H   0  0  0  0  0  0  0  0  0  0  0  0
   -1.1259   -5.3991    1.1555 H   0  0  0  0  0  0  0  0  0  0  0  0
   -2.7719   -5.6800    0.5938 H   0  0  0  0  0  0  0  0  0  0  0  0
   -1.5705   -3.6764   -0.4241 H   0  0  0  0  0  0  0  0  0  0  0  0
   -3.1806   -3.3529    0.2189 H   0  0  0  0  0  0  0  0  0  0  0  0
    1.1613    1.7370    2.2527 H   0  0  0  0  0  0  0  0  0  0  0  0
    2.7846    2.0723    2.0796 H   0  0  0  0  0  0  0  0  0  0  0  0
    4.5117    1.2516    1.2795 H   0  0  0  0  0  0  0  0  0  0  0  0
    5.2011    1.0540   -0.3003 H   0  0  0  0  0  0  0  0  0  0  0  0
    5.4933   -1.1702   -1.3304 H   0  0  0  0  0  0  0  0  0  0  0  0
    5.7016   -3.6002   -0.9655 H   0  0  0  0  0  0  0  0  0  0  0  0
    4.8641   -4.6261    1.1325 H   0  0  0  0  0  0  0  0  0  0  0  0
    3.8135   -3.2056    2.8722 H   0  0  0  0  0  0  0  0  0  0  0  0
    3.5947   -0.7735    2.5248 H   0  0  0  0  0  0  0  0  0  0  0  0
    1.8181    0.9895   -3.2476 H   0  0  0  0  0  0  0  0  0  0  0  0
  1  2  1  0
  2  3  1  0
  3  4  1  0
  4  5  2  0
  5  6  1  0
  6  7  2  0
  7  8  1  0
  8  9  2  0
  2 10  1  0
 10 11  2  0
 10 12  1  0
 12 13  1  0
 13 14  1  0
 14 15  1  0
 15 16  2  0
 16 17  1  0
 17 18  1  0
 18 19  1  0
 19 20  1  0
 12 21  1  0
 21 22  2  0
 22 23  1  0
 22 24  1  0
 24 25  1  0
 25 26  1  0
 26 27  2  0
 27 28  1  0
 28 29  2  0
 29 30  1  0
 30 31  2  0
 24 32  1  0
 32 33  2  0
 32 34  1  0
 34 35  1  0
 35 36  2  0
  9  4  1  0
 20 15  1  0
 35 21  1  0
 31 26  1  0
  1 37  1  0
  1 38  1  0
  1 39  1  0
  2 40  1  0
  5 41  1  0
  6 42  1  0
  7 43  1  0
  8 44  1  0
  9 45  1  0
 13 46  1  0
 13 47  1  0
 14 48  1  0
 14 49  1  0
 16 50  1  0
 17 51  1  0
 17 52  1  0
 18 53  1  0
 18 54  1  0
 19 55  1  0
 19 56  1  0
 20 57  1  0
 20 58  1  0
 23 59  1  0
 23 60  1  0
 25 61  1  0
 25 62  1  0
 27 63  1  0
 28 64  1  0
 29 65  1  0
 30 66  1  0
 31 67  1  0
 34 68  1  0
M  END
$$$$
