
     RDKit          3D

 46 48  0  0  0  0  0  0  0  0999 V2000
   -4.3704   -0.5389    2.4695 C   0  0  0  0  0  0  0  0  0  0  0  0
   -5.7409   -0.8367    1.8827 C   0  0  0  0  0  0  0  0  0  0  0  0
   -5.9022   -0.4651    0.4067 C   0  0  0  0  0  0  0  0  0  0  0  0
   -4.9724   -1.5554   -0.7323 S   0  0  0  0  0  0  0  0  0  0  0  0
   -3.3800   -0.7429   -0.8225 C   0  0  0  0  0  0  0  0  0  0  0  0
   -3.3684    0.5893   -0.5648 N   0  0  0  0  0  0  0  0  0  0  0  0
   -2.1919    1.2710   -0.6209 C   0  0  0  0  0  0  0  0  0  0  0  0
   -2.2819    2.7216   -0.2407 C   0  0  0  0  0  0  0  0  0  0  0  0
   -0.9917    0.6539   -0.9823 C   0  0  0  0  0  0  0  0  0  0  0  0
    0.2827    1.3443   -1.0765 C   0  0  0  0  0  0  0  0  0  0  0  0
    0.5111    2.4531   -1.8620 C   0  0  0  0  0  0  0  0  0  0  0  0
    2.1465    2.9343   -1.7250 S   0  0  0  0  0  0  0  0  0  0  0  0
    2.4620    1.6030   -0.6468 C   0  0  0  0  0  0  0  0  0  0  0  0
    3.7838    1.3958   -0.1275 C   0  0  0  0  0  0  0  0  0  0  0  0
    4.5300    2.5238    0.3408 C   0  0  0  0  0  0  0  0  0  0  0  0
    5.1432    3.4360    0.7155 N   0  0  0  0  0  0  0  0  0  0  0  0
    4.3138    0.1506   -0.0684 C   0  0  0  0  0  0  0  0  0  0  0  0
    3.6587   -1.1266   -0.5514 C   0  0  0  0  0  0  0  0  0  0  0  0
    4.6644   -2.2245   -0.2157 C   0  0  0  0  0  0  0  0  0  0  0  0
    6.0078   -1.5171   -0.2155 C   0  0  0  0  0  0  0  0  0  0  0  0
    5.7058   -0.1721    0.4307 C   0  0  0  0  0  0  0  0  0  0  0  0
    1.3967    0.8503   -0.4235 N   0  0  0  0  0  0  0  0  0  0  0  0
   -1.0201   -0.7218   -1.2390 C   0  0  0  0  0  0  0  0  0  0  0  0
   -2.2211   -1.4354   -1.1630 C   0  0  0  0  0  0  0  0  0  0  0  0
   -2.2069   -2.8419   -1.4286 C   0  0  0  0  0  0  0  0  0  0  0  0
   -2.1448   -3.9804   -1.6479 N   0  0  0  0  0  0  0  0  0  0  0  0
   -4.0934    0.5075    2.3066 H   0  0  0  0  0  0  0  0  0  0  0  0
   -3.5962   -1.1792    2.0376 H   0  0  0  0  0  0  0  0  0  0  0  0
   -4.3780   -0.7169    3.5507 H   0  0  0  0  0  0  0  0  0  0  0  0
   -6.4820   -0.2606    2.4545 H   0  0  0  0  0  0  0  0  0  0  0  0
   -5.9851   -1.8939    2.0409 H   0  0  0  0  0  0  0  0  0  0  0  0
   -5.6808    0.5924    0.2339 H   0  0  0  0  0  0  0  0  0  0  0  0
   -6.9581   -0.5960    0.1440 H   0  0  0  0  0  0  0  0  0  0  0  0
   -2.1663    3.3598   -1.1224 H   0  0  0  0  0  0  0  0  0  0  0  0
   -3.2588    2.9424    0.2020 H   0  0  0  0  0  0  0  0  0  0  0  0
   -1.5229    2.9757    0.5060 H   0  0  0  0  0  0  0  0  0  0  0  0
   -0.1740    2.9934   -2.5002 H   0  0  0  0  0  0  0  0  0  0  0  0
    2.7075   -1.3350   -0.0543 H   0  0  0  0  0  0  0  0  0  0  0  0
    3.5032   -1.0823   -1.6362 H   0  0  0  0  0  0  0  0  0  0  0  0
    4.6311   -3.0464   -0.9378 H   0  0  0  0  0  0  0  0  0  0  0  0
    4.4545   -2.6397    0.7788 H   0  0  0  0  0  0  0  0  0  0  0  0
    6.3641   -1.3741   -1.2451 H   0  0  0  0  0  0  0  0  0  0  0  0
    6.7701   -2.0775    0.3331 H   0  0  0  0  0  0  0  0  0  0  0  0
    6.4574    0.5708    0.1477 H   0  0  0  0  0  0  0  0  0  0  0  0
    5.6900   -0.2695    1.5224 H   0  0  0  0  0  0  0  0  0  0  0  0
   -0.0964   -1.2393   -1.4980 H   0  0  0  0  0  0  0  0  0  0  0  0
  1  2  1  0
  2  3  1  0
  3  4  1  0
  4  5  1  0
  5  6  2  0
  6  7  1  0
  7  8  1  0
  7  9  2  0
  9 10  1  0
 10 11  2  0
 11 12  1  0
 12 13  1  0
 13 14  1  0
 14 15  1  0
 15 16  3  0
 14 17  2  3
 17 18  1  0
 18 19  1  0
 19 20  1  0
 20 21  1  0
 13 22  2  0
  9 23  1  0
 23 24  2  0
 24 25  1  0
 25 26  3  0
 24  5  1  0
 22 10  1  0
 21 17  1  0
  1 27  1  0
  1 28  1  0
  1 29  1  0
  2 30  1  0
  2 31  1  0
  3 32  1  0
  3 33  1  0
  8 34  1  0
  8 35  1  0
  8 36  1  0
 11 37  1  0
 18 38  1  0
 18 39  1  0
 19 40  1  0
 19 41  1  0
 20 42  1  0
 20 43  1  0
 21 44  1  0
 21 45  1  0
 23 46  1  0
M  END
$$$$
