
     RDKit          3D

 45 47  0  0  0  0  0  0  0  0999 V2000
    9.7057    1.4733   -1.6601 N   0  0  0  0  0  0  0  0  0  0  0  0
    8.7017    1.1931   -1.1509 C   0  0  0  0  0  0  0  0  0  0  0  0
    7.4561    0.8423   -0.5333 C   0  0  0  0  0  0  0  0  0  0  0  0
    7.4296    0.3795    0.7837 C   0  0  0  0  0  0  0  0  0  0  0  0
    6.2106    0.0411    1.3785 C   0  0  0  0  0  0  0  0  0  0  0  0
    5.0114    0.1559    0.6684 C   0  0  0  0  0  0  0  0  0  0  0  0
    3.9003   -0.2120    1.3711 O   0  0  0  0  0  0  0  0  0  0  0  0
    2.6520   -0.1870    0.6895 C   0  0  0  0  0  0  0  0  0  0  0  0
    1.5216   -0.6883    1.5985 C   0  0  0  0  0  0  0  0  0  0  0  0
    1.7456   -1.1803    2.7062 O   0  0  0  0  0  0  0  0  0  0  0  0
    0.2233   -0.5627    1.1143 N   0  0  0  0  0  0  0  0  0  0  0  0
   -0.1497   -0.0363   -0.2029 C   0  0  0  0  0  0  0  0  0  0  0  0
   -1.4472   -0.6574   -0.7634 C   0  0  0  0  0  0  0  0  0  0  0  0
   -2.5553   -0.6120    0.2012 N   0  0  0  0  0  0  0  0  0  0  0  0
   -3.8203   -0.2337   -0.2280 C   0  0  0  0  0  0  0  0  0  0  0  0
   -4.3205   -0.6511   -1.4615 C   0  0  0  0  0  0  0  0  0  0  0  0
   -5.6083   -0.2852   -1.8594 C   0  0  0  0  0  0  0  0  0  0  0  0
   -6.3907    0.5027   -1.0188 C   0  0  0  0  0  0  0  0  0  0  0  0
   -7.7897    0.9024   -1.3677 C   0  0  0  0  0  0  0  0  0  0  0  0
   -7.9581    1.1326   -2.6999 F   0  0  0  0  0  0  0  0  0  0  0  0
   -8.7002   -0.0538   -1.0364 F   0  0  0  0  0  0  0  0  0  0  0  0
   -8.1979    2.0416   -0.7418 F   0  0  0  0  0  0  0  0  0  0  0  0
   -5.8348    0.8654    0.1938 C   0  0  0  0  0  0  0  0  0  0  0  0
   -4.5892    0.5139    0.5938 N   0  0  0  0  0  0  0  0  0  0  0  0
   -2.2211   -0.2963    1.5991 C   0  0  0  0  0  0  0  0  0  0  0  0
   -0.8864   -0.9483    1.9946 C   0  0  0  0  0  0  0  0  0  0  0  0
    5.0383    0.6215   -0.6464 C   0  0  0  0  0  0  0  0  0  0  0  0
    6.2579    0.9635   -1.2456 C   0  0  0  0  0  0  0  0  0  0  0  0
    8.3494    0.2811    1.3576 H   0  0  0  0  0  0  0  0  0  0  0  0
    6.1927   -0.3178    2.4057 H   0  0  0  0  0  0  0  0  0  0  0  0
    2.4185    0.8418    0.3924 H   0  0  0  0  0  0  0  0  0  0  0  0
    2.6942   -0.8557   -0.1777 H   0  0  0  0  0  0  0  0  0  0  0  0
   -0.2822    1.0461   -0.0770 H   0  0  0  0  0  0  0  0  0  0  0  0
    0.6632   -0.1857   -0.9195 H   0  0  0  0  0  0  0  0  0  0  0  0
   -1.6889   -0.1299   -1.6942 H   0  0  0  0  0  0  0  0  0  0  0  0
   -1.2620   -1.7085   -1.0158 H   0  0  0  0  0  0  0  0  0  0  0  0
   -3.7321   -1.2921   -2.1092 H   0  0  0  0  0  0  0  0  0  0  0  0
   -5.9948   -0.6265   -2.8178 H   0  0  0  0  0  0  0  0  0  0  0  0
   -6.3838    1.4683    0.9142 H   0  0  0  0  0  0  0  0  0  0  0  0
   -2.9979   -0.6742    2.2757 H   0  0  0  0  0  0  0  0  0  0  0  0
   -2.1474    0.7912    1.7303 H   0  0  0  0  0  0  0  0  0  0  0  0
   -0.6412   -0.6906    3.0311 H   0  0  0  0  0  0  0  0  0  0  0  0
   -0.9695   -2.0406    1.9342 H   0  0  0  0  0  0  0  0  0  0  0  0
    4.1329    0.7332   -1.2339 H   0  0  0  0  0  0  0  0  0  0  0  0
    6.2643    1.3244   -2.2724 H   0  0  0  0  0  0  0  0  0  0  0  0
  1  2  3  0
  2  3  1  0
  3  4  2  0
  4  5  1  0
  5  6  2  0
  6  7  1  0
  7  8  1  0
  8  9  1  0
  9 10  2  0
  9 11  1  0
 11 12  1  0
 12 13  1  0
 13 14  1  0
 14 15  1  0
 15 16  2  0
 16 17  1  0
 17 18  2  0
 18 19  1  0
 19 20  1  0
 19 21  1  0
 19 22  1  0
 18 23  1  0
 23 24  2  0
 14 25  1  0
 25 26  1  0
  6 27  1  0
 27 28  2  0
 28  3  1  0
 26 11  1  0
 24 15  1  0
  4 29  1  0
  5 30  1  0
  8 31  1  0
  8 32  1  0
 12 33  1  0
 12 34  1  0
 13 35  1  0
 13 36  1  0
 16 37  1  0
 17 38  1  0
 23 39  1  0
 25 40  1  0
 25 41  1  0
 26 42  1  0
 26 43  1  0
 27 44  1  0
 28 45  1  0
M  END
$$$$
