
     RDKit          3D

 30 31  0  0  0  0  0  0  0  0999 V2000
   -1.2298    2.1573    1.3353 N   0  0  0  0  0  0  0  0  0  0  0  0
   -1.5377    1.2745    0.4352 C   0  0  0  0  0  0  0  0  0  0  0  0
   -0.7226    1.0035   -0.6488 N   0  0  0  0  0  0  0  0  0  0  0  0
    0.6002    1.4428   -0.4366 O   0  0  0  0  0  0  0  0  0  0  0  0
    1.4545    0.3934   -0.1995 C   0  0  0  0  0  0  0  0  0  0  0  0
    1.1169   -0.7824   -0.2919 O   0  0  0  0  0  0  0  0  0  0  0  0
    2.8088    0.9290    0.2031 C   0  0  0  0  0  0  0  0  0  0  0  0
    3.9038    0.0039   -0.2358 C   0  0  0  0  0  0  0  0  0  0  0  0
    4.4979   -0.0859   -1.4798 C   0  0  0  0  0  0  0  0  0  0  0  0
    5.5200   -1.0776   -1.5233 C   0  0  0  0  0  0  0  0  0  0  0  0
    5.6763   -1.7077   -0.3091 C   0  0  0  0  0  0  0  0  0  0  0  0
    4.5929   -1.1103    0.8705 S   0  0  0  0  0  0  0  0  0  0  0  0
   -2.8083    0.4972    0.5523 C   0  0  0  0  0  0  0  0  0  0  0  0
   -3.2027   -0.0148    1.7943 C   0  0  0  0  0  0  0  0  0  0  0  0
   -4.3807   -0.7583    1.8957 C   0  0  0  0  0  0  0  0  0  0  0  0
   -5.1557   -0.9885    0.7586 C   0  0  0  0  0  0  0  0  0  0  0  0
   -6.6075   -1.9031    0.8859 Cl  0  0  0  0  0  0  0  0  0  0  0  0
   -4.7627   -0.4847   -0.4814 C   0  0  0  0  0  0  0  0  0  0  0  0
   -3.5857    0.2597   -0.5874 C   0  0  0  0  0  0  0  0  0  0  0  0
   -1.9687    2.2492    2.0379 H   0  0  0  0  0  0  0  0  0  0  0  0
   -0.7480    0.0275   -0.9589 H   0  0  0  0  0  0  0  0  0  0  0  0
    2.8100    1.0864    1.2879 H   0  0  0  0  0  0  0  0  0  0  0  0
    2.9663    1.9012   -0.2792 H   0  0  0  0  0  0  0  0  0  0  0  0
    4.2141    0.5276   -2.3259 H   0  0  0  0  0  0  0  0  0  0  0  0
    6.1101   -1.3198   -2.3985 H   0  0  0  0  0  0  0  0  0  0  0  0
    6.3734   -2.4951   -0.0582 H   0  0  0  0  0  0  0  0  0  0  0  0
   -2.5895    0.1415    2.6796 H   0  0  0  0  0  0  0  0  0  0  0  0
   -4.6834   -1.1606    2.8594 H   0  0  0  0  0  0  0  0  0  0  0  0
   -5.3683   -0.6697   -1.3664 H   0  0  0  0  0  0  0  0  0  0  0  0
   -3.2937    0.6638   -1.5536 H   0  0  0  0  0  0  0  0  0  0  0  0
  1  2  2  3
  2  3  1  0
  3  4  1  0
  4  5  1  0
  5  6  2  0
  5  7  1  0
  7  8  1  0
  8  9  2  0
  9 10  1  0
 10 11  2  0
 11 12  1  0
  2 13  1  0
 13 14  2  0
 14 15  1  0
 15 16  2  0
 16 17  1  0
 16 18  1  0
 18 19  2  0
 12  8  1  0
 19 13  1  0
  1 20  1  0
  3 21  1  0
  7 22  1  0
  7 23  1  0
  9 24  1  0
 10 25  1  0
 11 26  1  0
 14 27  1  0
 15 28  1  0
 18 29  1  0
 19 30  1  0
M  END
$$$$
