
     RDKit          3D

 62 63  0  0  0  0  0  0  0  0999 V2000
   -7.5735   -0.5669   -1.1838 C   0  0  0  0  0  0  0  0  0  0  0  0
   -6.8802   -0.8174    0.1741 C   0  0  0  0  0  0  0  0  0  0  0  0
   -7.0925   -2.3102    0.5214 C   0  0  0  0  0  0  0  0  0  0  0  0
   -7.5885    0.0149    1.2663 C   0  0  0  0  0  0  0  0  0  0  0  0
   -5.3986   -0.4061    0.0870 C   0  0  0  0  0  0  0  0  0  0  0  0
   -4.3441   -1.3002    0.3298 C   0  0  0  0  0  0  0  0  0  0  0  0
   -3.0048   -0.8992    0.2308 C   0  0  0  0  0  0  0  0  0  0  0  0
   -2.6855    0.4111   -0.1219 C   0  0  0  0  0  0  0  0  0  0  0  0
   -1.4074    0.9063   -0.2436 O   0  0  0  0  0  0  0  0  0  0  0  0
   -0.3453   -0.0352   -0.4489 C   0  0  0  0  0  0  0  0  0  0  0  0
    0.3996   -0.3081    0.8601 C   0  0  0  0  0  0  0  0  0  0  0  0
    1.5172   -1.1730    0.6373 O   0  0  0  0  0  0  0  0  0  0  0  0
    2.7483   -0.6008    0.4114 C   0  0  0  0  0  0  0  0  0  0  0  0
    2.9725    0.7498    0.1537 C   0  0  0  0  0  0  0  0  0  0  0  0
    4.2716    1.2182   -0.0698 C   0  0  0  0  0  0  0  0  0  0  0  0
    5.3819    0.3574   -0.0404 C   0  0  0  0  0  0  0  0  0  0  0  0
    6.7964    0.9147   -0.2855 C   0  0  0  0  0  0  0  0  0  0  0  0
    7.9254   -0.1274   -0.0995 C   0  0  0  0  0  0  0  0  0  0  0  0
    6.8888    1.4424   -1.7306 C   0  0  0  0  0  0  0  0  0  0  0  0
    7.0878    2.0680    0.6965 C   0  0  0  0  0  0  0  0  0  0  0  0
    5.1366   -1.0059    0.2060 C   0  0  0  0  0  0  0  0  0  0  0  0
    3.8399   -1.4900    0.4260 C   0  0  0  0  0  0  0  0  0  0  0  0
    3.5511   -2.8527    0.6725 N   0  0  0  0  0  0  0  0  0  0  0  0
    4.4193   -3.9129    0.7067 C   0  0  0  0  0  0  0  0  0  0  0  0
    5.6279   -3.9273    0.5440 O   0  0  0  0  0  0  0  0  0  0  0  0
   -3.7228    1.3350   -0.3508 C   0  0  0  0  0  0  0  0  0  0  0  0
   -3.3448    2.6533   -0.6858 N   0  0  0  0  0  0  0  0  0  0  0  0
   -4.1509    3.7252   -0.9717 C   0  0  0  0  0  0  0  0  0  0  0  0
   -5.3689    3.7865   -1.0073 O   0  0  0  0  0  0  0  0  0  0  0  0
   -5.0560    0.9203   -0.2487 C   0  0  0  0  0  0  0  0  0  0  0  0
   -7.0688   -1.1130   -1.9896 H   0  0  0  0  0  0  0  0  0  0  0  0
   -8.6184   -0.8966   -1.1612 H   0  0  0  0  0  0  0  0  0  0  0  0
   -7.5809    0.4937   -1.4598 H   0  0  0  0  0  0  0  0  0  0  0  0
   -6.6654   -2.5652    1.4988 H   0  0  0  0  0  0  0  0  0  0  0  0
   -6.6394   -2.9672   -0.2314 H   0  0  0  0  0  0  0  0  0  0  0  0
   -8.1591   -2.5563    0.5630 H   0  0  0  0  0  0  0  0  0  0  0  0
   -7.5719    1.0865    1.0455 H   0  0  0  0  0  0  0  0  0  0  0  0
   -8.6405   -0.2733    1.3655 H   0  0  0  0  0  0  0  0  0  0  0  0
   -7.1121   -0.1283    2.2418 H   0  0  0  0  0  0  0  0  0  0  0  0
   -4.5343   -2.3342    0.6054 H   0  0  0  0  0  0  0  0  0  0  0  0
   -2.2405   -1.6406    0.4450 H   0  0  0  0  0  0  0  0  0  0  0  0
   -0.6639   -0.9661   -0.9398 H   0  0  0  0  0  0  0  0  0  0  0  0
    0.3367    0.4276   -1.1727 H   0  0  0  0  0  0  0  0  0  0  0  0
   -0.2644   -0.8366    1.5527 H   0  0  0  0  0  0  0  0  0  0  0  0
    0.6621    0.6172    1.3934 H   0  0  0  0  0  0  0  0  0  0  0  0
    2.1690    1.4740    0.1058 H   0  0  0  0  0  0  0  0  0  0  0  0
    4.4040    2.2795   -0.2754 H   0  0  0  0  0  0  0  0  0  0  0  0
    7.9232   -0.5502    0.9144 H   0  0  0  0  0  0  0  0  0  0  0  0
    7.8327   -0.9552   -0.8136 H   0  0  0  0  0  0  0  0  0  0  0  0
    8.9131    0.3232   -0.2602 H   0  0  0  0  0  0  0  0  0  0  0  0
    6.1563    2.2284   -1.9272 H   0  0  0  0  0  0  0  0  0  0  0  0
    7.8802    1.8616   -1.9397 H   0  0  0  0  0  0  0  0  0  0  0  0
    6.7101    0.6411   -2.4513 H   0  0  0  0  0  0  0  0  0  0  0  0
    6.9711    1.7379    1.7330 H   0  0  0  0  0  0  0  0  0  0  0  0
    6.4210    2.9234    0.5417 H   0  0  0  0  0  0  0  0  0  0  0  0
    8.1130    2.4373    0.5758 H   0  0  0  0  0  0  0  0  0  0  0  0
    5.9649   -1.7025    0.2276 H   0  0  0  0  0  0  0  0  0  0  0  0
    2.5638   -3.0513    0.8113 H   0  0  0  0  0  0  0  0  0  0  0  0
    3.8701   -4.8500    0.9051 H   0  0  0  0  0  0  0  0  0  0  0  0
   -2.3406    2.8029   -0.7132 H   0  0  0  0  0  0  0  0  0  0  0  0
   -3.5378    4.6156   -1.1928 H   0  0  0  0  0  0  0  0  0  0  0  0
   -5.8540    1.6346   -0.4330 H   0  0  0  0  0  0  0  0  0  0  0  0
  1  2  1  0
  2  3  1  0
  2  4  1  0
  2  5  1  0
  5  6  2  0
  6  7  1  0
  7  8  2  0
  8  9  1  0
  9 10  1  0
 10 11  1  0
 11 12  1  0
 12 13  1  0
 13 14  2  0
 14 15  1  0
 15 16  2  0
 16 17  1  0
 17 18  1  0
 17 19  1  0
 17 20  1  0
 16 21  1  0
 21 22  2  0
 22 23  1  0
 23 24  1  0
 24 25  2  0
  8 26  1  0
 26 27  1  0
 27 28  1  0
 28 29  2  0
 26 30  2  0
 30  5  1  0
 22 13  1  0
  1 31  1  0
  1 32  1  0
  1 33  1  0
  3 34  1  0
  3 35  1  0
  3 36  1  0
  4 37  1  0
  4 38  1  0
  4 39  1  0
  6 40  1  0
  7 41  1  0
 10 42  1  0
 10 43  1  0
 11 44  1  0
 11 45  1  0
 14 46  1  0
 15 47  1  0
 18 48  1  0
 18 49  1  0
 18 50  1  0
 19 51  1  0
 19 52  1  0
 19 53  1  0
 20 54  1  0
 20 55  1  0
 20 56  1  0
 21 57  1  0
 23 58  1  0
 24 59  1  0
 27 60  1  0
 28 61  1  0
 30 62  1  0
M  END
$$$$
