
     RDKit          3D

 43 44  0  0  0  0  0  0  0  0999 V2000
   -5.5735    2.6314   -0.0881 C   0  0  0  0  0  0  0  0  0  0  0  0
   -5.6142    1.2749    0.5899 C   0  0  0  0  0  0  0  0  0  0  0  0
   -4.4420    0.5173    0.2537 O   0  0  0  0  0  0  0  0  0  0  0  0
   -3.3438    0.7354    1.0390 C   0  0  0  0  0  0  0  0  0  0  0  0
   -3.3337    1.5070    1.9917 O   0  0  0  0  0  0  0  0  0  0  0  0
   -2.1758   -0.0395    0.5872 C   0  0  0  0  0  0  0  0  0  0  0  0
   -0.9370    0.3419    0.9326 N   0  0  0  0  0  0  0  0  0  0  0  0
   -0.0852   -0.4203    0.2039 N   0  0  0  0  0  0  0  0  0  0  0  0
    1.3017   -0.0713    0.1908 C   0  0  0  0  0  0  0  0  0  0  0  0
    2.1920   -0.5521   -0.7752 C   0  0  0  0  0  0  0  0  0  0  0  0
    3.5446   -0.1766   -0.7519 C   0  0  0  0  0  0  0  0  0  0  0  0
    4.0222    0.6912    0.2284 C   0  0  0  0  0  0  0  0  0  0  0  0
    5.3096    1.1302    0.3602 O   0  0  0  0  0  0  0  0  0  0  0  0
    6.2619    0.6498   -0.5866 C   0  0  0  0  0  0  0  0  0  0  0  0
    7.6109    1.2551   -0.2423 C   0  0  0  0  0  0  0  0  0  0  0  0
    3.1337    1.1916    1.1790 C   0  0  0  0  0  0  0  0  0  0  0  0
    1.7849    0.8231    1.1596 C   0  0  0  0  0  0  0  0  0  0  0  0
   -0.7690   -1.4556   -0.4196 C   0  0  0  0  0  0  0  0  0  0  0  0
   -0.1415   -2.6246   -1.0954 C   0  0  0  0  0  0  0  0  0  0  0  0
   -2.1250   -1.2079   -0.2207 C   0  0  0  0  0  0  0  0  0  0  0  0
   -3.2051   -2.0401   -0.7400 C   0  0  0  0  0  0  0  0  0  0  0  0
   -4.3534   -2.4123    0.1644 C   0  0  0  0  0  0  0  0  0  0  0  0
   -3.1623   -2.4846   -1.8874 O   0  0  0  0  0  0  0  0  0  0  0  0
   -4.7200    3.2207    0.2615 H   0  0  0  0  0  0  0  0  0  0  0  0
   -5.4587    2.5163   -1.1710 H   0  0  0  0  0  0  0  0  0  0  0  0
   -6.4905    3.1926    0.1120 H   0  0  0  0  0  0  0  0  0  0  0  0
   -6.4756    0.7071    0.2232 H   0  0  0  0  0  0  0  0  0  0  0  0
   -5.7318    1.3694    1.6754 H   0  0  0  0  0  0  0  0  0  0  0  0
    1.8733   -1.1842   -1.5949 H   0  0  0  0  0  0  0  0  0  0  0  0
    4.1941   -0.5728   -1.5258 H   0  0  0  0  0  0  0  0  0  0  0  0
    6.3355   -0.4425   -0.5320 H   0  0  0  0  0  0  0  0  0  0  0  0
    5.9796    0.9584   -1.5998 H   0  0  0  0  0  0  0  0  0  0  0  0
    7.5618    2.3486   -0.2721 H   0  0  0  0  0  0  0  0  0  0  0  0
    8.3801    0.9168   -0.9422 H   0  0  0  0  0  0  0  0  0  0  0  0
    7.9102    0.9770    0.7737 H   0  0  0  0  0  0  0  0  0  0  0  0
    3.4905    1.8778    1.9435 H   0  0  0  0  0  0  0  0  0  0  0  0
    1.1259    1.2382    1.9211 H   0  0  0  0  0  0  0  0  0  0  0  0
    0.7759   -2.9409   -0.5904 H   0  0  0  0  0  0  0  0  0  0  0  0
    0.0718   -2.3973   -2.1441 H   0  0  0  0  0  0  0  0  0  0  0  0
   -0.8092   -3.4925   -1.0762 H   0  0  0  0  0  0  0  0  0  0  0  0
   -5.2724   -1.9444   -0.1966 H   0  0  0  0  0  0  0  0  0  0  0  0
   -4.1676   -2.1121    1.1986 H   0  0  0  0  0  0  0  0  0  0  0  0
   -4.4731   -3.4998    0.1499 H   0  0  0  0  0  0  0  0  0  0  0  0
  1  2  1  0
  2  3  1  0
  3  4  1  0
  4  5  2  0
  4  6  1  0
  6  7  2  0
  7  8  1  0
  8  9  1  0
  9 10  2  0
 10 11  1  0
 11 12  2  0
 12 13  1  0
 13 14  1  0
 14 15  1  0
 12 16  1  0
 16 17  2  0
  8 18  1  0
 18 19  1  0
 18 20  2  0
 20 21  1  0
 21 22  1  0
 21 23  2  0
 20  6  1  0
 17  9  1  0
  1 24  1  0
  1 25  1  0
  1 26  1  0
  2 27  1  0
  2 28  1  0
 10 29  1  0
 11 30  1  0
 14 31  1  0
 14 32  1  0
 15 33  1  0
 15 34  1  0
 15 35  1  0
 16 36  1  0
 17 37  1  0
 19 38  1  0
 19 39  1  0
 19 40  1  0
 22 41  1  0
 22 42  1  0
 22 43  1  0
M  END
$$$$
