
     RDKit          3D

 80 86  0  0  0  0  0  0  0  0999 V2000
   -5.1547   -2.6398    1.2918 C   0  0  0  0  0  0  0  0  0  0  0  0
   -3.9403   -1.7890    1.5246 C   0  0  0  0  0  0  0  0  0  0  0  0
   -3.7939   -1.0791    2.7395 C   0  0  0  0  0  0  0  0  0  0  0  0
   -5.0108   -1.0916    3.9754 Cl  0  0  0  0  0  0  0  0  0  0  0  0
   -2.6574   -0.3039    3.0113 C   0  0  0  0  0  0  0  0  0  0  0  0
   -1.6250   -0.2189    2.0870 C   0  0  0  0  0  0  0  0  0  0  0  0
   -1.7443   -0.9045    0.8820 C   0  0  0  0  0  0  0  0  0  0  0  0
   -2.9134   -1.6383    0.5770 C   0  0  0  0  0  0  0  0  0  0  0  0
   -2.8240   -2.0830   -0.7664 N   0  0  0  0  0  0  0  0  0  0  0  0
   -3.8657   -2.6643   -1.5827 C   0  0  0  0  0  0  0  0  0  0  0  0
   -4.9859   -1.7228   -1.9774 C   0  0  0  0  0  0  0  0  0  0  0  0
   -6.2533   -2.2558   -2.2681 C   0  0  0  0  0  0  0  0  0  0  0  0
   -7.3053   -1.4262   -2.6621 C   0  0  0  0  0  0  0  0  0  0  0  0
   -7.1020   -0.0542   -2.7861 C   0  0  0  0  0  0  0  0  0  0  0  0
   -5.8458    0.4873   -2.5248 C   0  0  0  0  0  0  0  0  0  0  0  0
   -4.7924   -0.3410   -2.1310 C   0  0  0  0  0  0  0  0  0  0  0  0
   -1.6166   -1.6776   -1.3663 C   0  0  0  0  0  0  0  0  0  0  0  0
   -1.2984   -1.8689   -2.5353 O   0  0  0  0  0  0  0  0  0  0  0  0
   -0.7806   -0.9500   -0.2772 C   0  0  1  0  0  0  0  0  0  0  0  0
   -0.3898    0.4139   -0.7029 C   0  0  0  0  0  0  0  0  0  0  0  0
    0.9338    0.4100   -1.1545 C   0  0  0  0  0  0  0  0  0  0  0  0
    1.2624    1.6669   -1.5796 C   0  0  0  0  0  0  0  0  0  0  0  0
    2.3769    2.0612   -2.1922 O   0  0  0  0  0  0  0  0  0  0  0  0
    0.1413    2.4848   -1.3438 N   0  0  0  0  0  0  0  0  0  0  0  0
    0.0576    3.8804   -1.6203 C   0  0  0  0  0  0  0  0  0  0  0  0
    1.1513    4.7139   -1.3504 C   0  0  0  0  0  0  0  0  0  0  0  0
    1.0653    6.0813   -1.6168 C   0  0  0  0  0  0  0  0  0  0  0  0
   -0.1040    6.6173   -2.1551 C   0  0  0  0  0  0  0  0  0  0  0  0
   -1.1919    5.7890   -2.4292 C   0  0  0  0  0  0  0  0  0  0  0  0
   -1.1157    4.4212   -2.1625 C   0  0  0  0  0  0  0  0  0  0  0  0
   -0.8856    1.6869   -0.8021 C   0  0  0  0  0  0  0  0  0  0  0  0
   -2.0765    2.1400   -0.4127 O   0  0  0  0  0  0  0  0  0  0  0  0
    1.4954   -0.9675   -1.1302 C   0  0  1  0  0  0  0  0  0  0  0  0
    3.0163   -1.0950   -0.9023 C   0  0  0  0  0  0  0  0  0  0  0  0
    3.4296   -1.2089    0.4921 N   0  0  0  0  0  0  0  0  0  0  0  0
    4.7471   -0.9319    0.8105 C   0  0  0  0  0  0  0  0  0  0  0  0
    5.5481   -0.4460    0.0227 O   0  0  0  0  0  0  0  0  0  0  0  0
    5.0426   -1.2590    2.0952 O   0  0  0  0  0  0  0  0  0  0  0  0
    6.3674   -1.0315    2.6401 C   0  0  0  0  0  0  0  0  0  0  0  0
    6.7152    0.4611    2.6549 C   0  0  0  0  0  0  0  0  0  0  0  0
    7.4260   -1.8618    1.9059 C   0  0  0  0  0  0  0  0  0  0  0  0
    6.2785   -1.5268    4.0921 C   0  0  0  0  0  0  0  0  0  0  0  0
    2.5742   -2.0421    1.3267 C   0  0  0  0  0  0  0  0  0  0  0  0
    1.1160   -1.5833    1.2247 C   0  0  0  0  0  0  0  0  0  0  0  0
    0.5611   -1.6704   -0.1411 N   0  0  0  0  0  0  0  0  0  0  0  0
   -5.8739   -2.1181    0.6579 H   0  0  0  0  0  0  0  0  0  0  0  0
   -4.8761   -3.6012    0.8556 H   0  0  0  0  0  0  0  0  0  0  0  0
   -5.6719   -2.9106    2.2163 H   0  0  0  0  0  0  0  0  0  0  0  0
   -2.5787    0.2426    3.9486 H   0  0  0  0  0  0  0  0  0  0  0  0
   -0.7639    0.4067    2.3002 H   0  0  0  0  0  0  0  0  0  0  0  0
   -3.4227   -3.0319   -2.5172 H   0  0  0  0  0  0  0  0  0  0  0  0
   -4.2511   -3.5539   -1.0798 H   0  0  0  0  0  0  0  0  0  0  0  0
   -6.4308   -3.3265   -2.1867 H   0  0  0  0  0  0  0  0  0  0  0  0
   -8.2823   -1.8522   -2.8761 H   0  0  0  0  0  0  0  0  0  0  0  0
   -7.9191    0.5921   -3.0943 H   0  0  0  0  0  0  0  0  0  0  0  0
   -5.6804    1.5560   -2.6303 H   0  0  0  0  0  0  0  0  0  0  0  0
   -3.8204    0.1114   -1.9465 H   0  0  0  0  0  0  0  0  0  0  0  0
    2.1968    2.8728   -2.6991 H   0  0  0  0  0  0  0  0  0  0  0  0
    2.0611    4.3272   -0.8937 H   0  0  0  0  0  0  0  0  0  0  0  0
    1.9088    6.7320   -1.3969 H   0  0  0  0  0  0  0  0  0  0  0  0
   -0.1669    7.6829   -2.3640 H   0  0  0  0  0  0  0  0  0  0  0  0
   -2.0968    6.2085   -2.8628 H   0  0  0  0  0  0  0  0  0  0  0  0
   -1.9615    3.7901   -2.4298 H   0  0  0  0  0  0  0  0  0  0  0  0
   -2.0178    3.0994   -0.2563 H   0  0  0  0  0  0  0  0  0  0  0  0
    1.2963   -1.4011   -2.1206 H   0  0  0  0  0  0  0  0  0  0  0  0
    3.3581   -2.0244   -1.3778 H   0  0  0  0  0  0  0  0  0  0  0  0
    3.5596   -0.2764   -1.3863 H   0  0  0  0  0  0  0  0  0  0  0  0
    6.8616    0.8574    1.6457 H   0  0  0  0  0  0  0  0  0  0  0  0
    5.9045    1.0443    3.1061 H   0  0  0  0  0  0  0  0  0  0  0  0
    7.6360    0.6500    3.2176 H   0  0  0  0  0  0  0  0  0  0  0  0
    8.3921   -1.8194    2.4210 H   0  0  0  0  0  0  0  0  0  0  0  0
    7.1160   -2.9107    1.8335 H   0  0  0  0  0  0  0  0  0  0  0  0
    7.5862   -1.5100    0.8822 H   0  0  0  0  0  0  0  0  0  0  0  0
    5.9967   -2.5860    4.1261 H   0  0  0  0  0  0  0  0  0  0  0  0
    5.5015   -0.9832    4.6424 H   0  0  0  0  0  0  0  0  0  0  0  0
    7.2285   -1.4039    4.6230 H   0  0  0  0  0  0  0  0  0  0  0  0
    2.6855   -3.0811    0.9935 H   0  0  0  0  0  0  0  0  0  0  0  0
    2.8874   -1.9984    2.3743 H   0  0  0  0  0  0  0  0  0  0  0  0
    1.0855   -0.5538    1.5994 H   0  0  0  0  0  0  0  0  0  0  0  0
    0.5192   -2.2129    1.8943 H   0  0  0  0  0  0  0  0  0  0  0  0
  1  2  1  0
  2  3  2  0
  3  4  1  0
  3  5  1  0
  5  6  2  0
  6  7  1  0
  7  8  2  0
  8  9  1  0
  9 10  1  0
 10 11  1  0
 11 12  2  0
 12 13  1  0
 13 14  2  0
 14 15  1  0
 15 16  2  0
  9 17  1  0
 17 18  2  0
 17 19  1  0
 19 20  1  0
 20 21  1  0
 21 22  2  0
 22 23  1  0
 22 24  1  0
 24 25  1  0
 25 26  2  0
 26 27  1  0
 27 28  2  0
 28 29  1  0
 29 30  2  0
 24 31  1  0
 31 32  1  0
 21 33  1  0
 33 34  1  0
 34 35  1  0
 35 36  1  0
 36 37  2  0
 36 38  1  0
 38 39  1  0
 39 40  1  0
 39 41  1  0
 39 42  1  0
 35 43  1  0
 43 44  1  0
 44 45  1  0
  8  2  1  0
 16 11  1  0
 19 45  1  1
 19  7  1  0
 31 20  2  0
 45 33  1  0
 30 25  1  0
  1 46  1  0
  1 47  1  0
  1 48  1  0
  5 49  1  0
  6 50  1  0
 10 51  1  0
 10 52  1  0
 12 53  1  0
 13 54  1  0
 14 55  1  0
 15 56  1  0
 16 57  1  0
 23 58  1  0
 26 59  1  0
 27 60  1  0
 28 61  1  0
 29 62  1  0
 30 63  1  0
 32 64  1  0
 33 65  1  6
 34 66  1  0
 34 67  1  0
 40 68  1  0
 40 69  1  0
 40 70  1  0
 41 71  1  0
 41 72  1  0
 41 73  1  0
 42 74  1  0
 42 75  1  0
 42 76  1  0
 43 77  1  0
 43 78  1  0
 44 79  1  0
 44 80  1  0
M  END
$$$$
