
     RDKit          3D

 35 37  0  0  0  0  0  0  0  0999 V2000
    5.3840    0.7071    1.3020 C   0  0  0  0  0  0  0  0  0  0  0  0
    4.5534    1.3229    0.1841 C   0  0  0  0  0  0  0  0  0  0  0  0
    4.3616    0.4039   -1.0239 C   0  0  0  0  0  0  0  0  0  0  0  0
    3.4127   -1.1087   -0.6629 S   0  0  0  0  0  0  0  0  0  0  0  0
    1.7978   -0.4930   -0.5794 C   0  0  0  0  0  0  0  0  0  0  0  0
    1.4251    0.7289   -0.8719 N   0  0  0  0  0  0  0  0  0  0  0  0
    0.0707    0.8058   -0.6757 N   0  0  0  0  0  0  0  0  0  0  0  0
   -0.3651   -0.3728   -0.2703 C   0  0  0  0  0  0  0  0  0  0  0  0
   -1.8758   -0.6474    0.0510 C   0  0  0  0  0  0  0  0  0  0  0  0
   -2.4311   -1.8338    0.4784 C   0  0  0  0  0  0  0  0  0  0  0  0
   -3.7798   -1.6355    0.6390 N   0  0  0  0  0  0  0  0  0  0  0  0
   -4.1145   -0.3403    0.3240 C   0  0  0  0  0  0  0  0  0  0  0  0
   -5.3616    0.2968    0.3434 C   0  0  0  0  0  0  0  0  0  0  0  0
   -5.4089    1.6421   -0.0322 C   0  0  0  0  0  0  0  0  0  0  0  0
   -4.2541    2.3202   -0.4114 C   0  0  0  0  0  0  0  0  0  0  0  0
   -3.0161    1.6673   -0.4248 C   0  0  0  0  0  0  0  0  0  0  0  0
   -2.9362    0.3086   -0.0506 C   0  0  0  0  0  0  0  0  0  0  0  0
    0.7096   -1.2319   -0.1988 N   0  0  0  0  0  0  0  0  0  0  0  0
    0.6755   -2.6129    0.1974 C   0  0  0  0  0  0  0  0  0  0  0  0
    4.8731   -0.1412    1.7667 H   0  0  0  0  0  0  0  0  0  0  0  0
    6.3541    0.3652    0.9276 H   0  0  0  0  0  0  0  0  0  0  0  0
    5.5677    1.4507    2.0844 H   0  0  0  0  0  0  0  0  0  0  0  0
    3.5870    1.6489    0.5849 H   0  0  0  0  0  0  0  0  0  0  0  0
    5.0655    2.2305   -0.1589 H   0  0  0  0  0  0  0  0  0  0  0  0
    5.3425    0.0891   -1.3972 H   0  0  0  0  0  0  0  0  0  0  0  0
    3.8798    0.9515   -1.8412 H   0  0  0  0  0  0  0  0  0  0  0  0
   -2.0155   -2.8069    0.6888 H   0  0  0  0  0  0  0  0  0  0  0  0
   -4.4412   -2.3359    0.9450 H   0  0  0  0  0  0  0  0  0  0  0  0
   -6.2643   -0.2280    0.6383 H   0  0  0  0  0  0  0  0  0  0  0  0
   -6.3616    2.1666   -0.0282 H   0  0  0  0  0  0  0  0  0  0  0  0
   -4.3085    3.3667   -0.7009 H   0  0  0  0  0  0  0  0  0  0  0  0
   -2.1216    2.2085   -0.7232 H   0  0  0  0  0  0  0  0  0  0  0  0
    0.3034   -2.6722    1.2233 H   0  0  0  0  0  0  0  0  0  0  0  0
    1.6680   -3.0637    0.1631 H   0  0  0  0  0  0  0  0  0  0  0  0
    0.0243   -3.1572   -0.4910 H   0  0  0  0  0  0  0  0  0  0  0  0
  1  2  1  0
  2  3  1  0
  3  4  1  0
  4  5  1  0
  5  6  2  0
  6  7  1  0
  7  8  2  0
  8  9  1  0
  9 10  2  0
 10 11  1  0
 11 12  1  0
 12 13  2  0
 13 14  1  0
 14 15  2  0
 15 16  1  0
 16 17  2  0
  8 18  1  0
 18 19  1  0
 18  5  1  0
 17  9  1  0
 17 12  1  0
  1 20  1  0
  1 21  1  0
  1 22  1  0
  2 23  1  0
  2 24  1  0
  3 25  1  0
  3 26  1  0
 10 27  1  0
 11 28  1  0
 13 29  1  0
 14 30  1  0
 15 31  1  0
 16 32  1  0
 19 33  1  0
 19 34  1  0
 19 35  1  0
M  END
$$$$
