
     RDKit          3D

 41 42  0  0  0  0  0  0  0  0999 V2000
   -6.2835    0.3121   -2.8155 C   0  0  0  0  0  0  0  0  0  0  0  0
   -4.8508    1.1106   -3.5859 S   0  0  0  0  0  0  0  0  0  0  0  0
   -3.6594    0.9142   -2.2744 C   0  0  0  0  0  0  0  0  0  0  0  0
   -3.8527    1.5016   -1.0219 C   0  0  0  0  0  0  0  0  0  0  0  0
   -2.8983    1.3447   -0.0123 C   0  0  0  0  0  0  0  0  0  0  0  0
   -1.7282    0.6067   -0.2417 C   0  0  0  0  0  0  0  0  0  0  0  0
   -0.6938    0.4354    0.8511 C   0  0  0  0  0  0  0  0  0  0  0  0
    0.3725    1.4575    0.9470 N   0  0  0  0  0  0  0  0  0  0  0  0
   -0.1583    2.7828    1.2647 C   0  0  0  0  0  0  0  0  0  0  0  0
    1.2281    1.5317   -0.2629 C   0  0  0  0  0  0  0  0  0  0  0  0
    2.0669    0.2577   -0.4367 C   0  0  0  0  0  0  0  0  0  0  0  0
    2.2908   -0.2110   -1.5480 O   0  0  0  0  0  0  0  0  0  0  0  0
    2.5391   -0.2184    0.7751 N   0  0  0  0  0  0  0  0  0  0  0  0
    3.3619   -1.3318    1.0156 C   0  0  0  0  0  0  0  0  0  0  0  0
    3.6318   -1.6466    2.3545 C   0  0  0  0  0  0  0  0  0  0  0  0
    4.4412   -2.7369    2.6829 C   0  0  0  0  0  0  0  0  0  0  0  0
    4.9902   -3.5229    1.6731 C   0  0  0  0  0  0  0  0  0  0  0  0
    4.7259   -3.2108    0.3412 C   0  0  0  0  0  0  0  0  0  0  0  0
    5.4751   -4.2780   -1.0300 Br  0  0  0  0  0  0  0  0  0  0  0  0
    3.9173   -2.1214    0.0073 C   0  0  0  0  0  0  0  0  0  0  0  0
   -1.5409    0.0215   -1.5024 C   0  0  0  0  0  0  0  0  0  0  0  0
   -2.4947    0.1817   -2.5118 C   0  0  0  0  0  0  0  0  0  0  0  0
   -6.0353   -0.7076   -2.5083 H   0  0  0  0  0  0  0  0  0  0  0  0
   -6.6269    0.8805   -1.9472 H   0  0  0  0  0  0  0  0  0  0  0  0
   -7.0998    0.2667   -3.5414 H   0  0  0  0  0  0  0  0  0  0  0  0
   -4.7408    2.0955   -0.8215 H   0  0  0  0  0  0  0  0  0  0  0  0
   -3.0739    1.8081    0.9560 H   0  0  0  0  0  0  0  0  0  0  0  0
   -0.2435   -0.5607    0.7511 H   0  0  0  0  0  0  0  0  0  0  0  0
   -1.2133    0.3844    1.8181 H   0  0  0  0  0  0  0  0  0  0  0  0
    0.6618    3.4696    1.5033 H   0  0  0  0  0  0  0  0  0  0  0  0
   -0.7962    2.7449    2.1547 H   0  0  0  0  0  0  0  0  0  0  0  0
   -0.7307    3.2199    0.4396 H   0  0  0  0  0  0  0  0  0  0  0  0
    1.9531    2.3493   -0.1570 H   0  0  0  0  0  0  0  0  0  0  0  0
    0.6512    1.7228   -1.1732 H   0  0  0  0  0  0  0  0  0  0  0  0
    2.1639    0.2771    1.5802 H   0  0  0  0  0  0  0  0  0  0  0  0
    3.2147   -1.0469    3.1600 H   0  0  0  0  0  0  0  0  0  0  0  0
    4.6426   -2.9714    3.7251 H   0  0  0  0  0  0  0  0  0  0  0  0
    5.6196   -4.3704    1.9309 H   0  0  0  0  0  0  0  0  0  0  0  0
    3.7371   -1.9065   -1.0408 H   0  0  0  0  0  0  0  0  0  0  0  0
   -0.6457   -0.5616   -1.7145 H   0  0  0  0  0  0  0  0  0  0  0  0
   -2.3181   -0.2741   -3.4836 H   0  0  0  0  0  0  0  0  0  0  0  0
  1  2  1  0
  2  3  1  0
  3  4  2  0
  4  5  1  0
  5  6  2  0
  6  7  1  0
  7  8  1  0
  8  9  1  0
  8 10  1  0
 10 11  1  0
 11 12  2  0
 11 13  1  0
 13 14  1  0
 14 15  2  0
 15 16  1  0
 16 17  2  0
 17 18  1  0
 18 19  1  0
 18 20  2  0
  6 21  1  0
 21 22  2  0
 22  3  1  0
 20 14  1  0
  1 23  1  0
  1 24  1  0
  1 25  1  0
  4 26  1  0
  5 27  1  0
  7 28  1  0
  7 29  1  0
  9 30  1  0
  9 31  1  0
  9 32  1  0
 10 33  1  0
 10 34  1  0
 13 35  1  0
 15 36  1  0
 16 37  1  0
 17 38  1  0
 20 39  1  0
 21 40  1  0
 22 41  1  0
M  END
$$$$
