
     RDKit          3D

 47 49  0  0  0  0  0  0  0  0999 V2000
   -2.9665    5.8423    0.1538 C   0  0  0  0  0  0  0  0  0  0  0  0
   -2.3302    4.8685   -0.6736 O   0  0  0  0  0  0  0  0  0  0  0  0
   -2.0786    3.6819   -0.0434 C   0  0  0  0  0  0  0  0  0  0  0  0
   -2.3457    3.4446    1.1283 O   0  0  0  0  0  0  0  0  0  0  0  0
   -1.3470    2.7395   -0.9929 C   0  0  0  0  0  0  0  0  0  0  0  0
   -1.3541    1.3616   -0.4974 N   0  0  0  0  0  0  0  0  0  0  0  0
   -0.4550    0.8499    0.4262 C   0  0  0  0  0  0  0  0  0  0  0  0
    0.6428    1.6205    1.0730 C   0  0  0  0  0  0  0  0  0  0  0  0
    1.9359    1.3589    0.3165 C   0  0  0  0  0  0  0  0  0  0  0  0
    2.2993    2.1139   -0.5808 O   0  0  0  0  0  0  0  0  0  0  0  0
    2.5864    0.2157    0.7539 N   0  0  0  0  0  0  0  0  0  0  0  0
    3.7845   -0.3387    0.2633 C   0  0  0  0  0  0  0  0  0  0  0  0
    4.2537   -1.5022    0.8906 C   0  0  0  0  0  0  0  0  0  0  0  0
    5.4345   -2.1171    0.4631 C   0  0  0  0  0  0  0  0  0  0  0  0
    6.1492   -1.5748   -0.6007 C   0  0  0  0  0  0  0  0  0  0  0  0
    7.5993   -2.3344   -1.1321 Cl  0  0  0  0  0  0  0  0  0  0  0  0
    5.6933   -0.4213   -1.2339 C   0  0  0  0  0  0  0  0  0  0  0  0
    4.5145    0.1982   -0.8004 C   0  0  0  0  0  0  0  0  0  0  0  0
   -0.7810   -0.4259    0.6744 C   0  0  0  0  0  0  0  0  0  0  0  0
   -0.1741   -1.2297    1.5943 O   0  0  0  0  0  0  0  0  0  0  0  0
   -1.8994   -0.8080   -0.0470 N   0  0  0  0  0  0  0  0  0  0  0  0
   -2.4605   -2.1124   -0.1258 C   0  0  0  0  0  0  0  0  0  0  0  0
   -3.8455   -2.3176   -0.1453 C   0  0  0  0  0  0  0  0  0  0  0  0
   -4.3785   -3.6102   -0.2110 C   0  0  0  0  0  0  0  0  0  0  0  0
   -3.5281   -4.7104   -0.2499 C   0  0  0  0  0  0  0  0  0  0  0  0
   -4.1828   -6.2977   -0.3296 Cl  0  0  0  0  0  0  0  0  0  0  0  0
   -2.1490   -4.5301   -0.2223 C   0  0  0  0  0  0  0  0  0  0  0  0
   -1.6192   -3.2375   -0.1595 C   0  0  0  0  0  0  0  0  0  0  0  0
   -2.3123    0.3461   -0.8287 C   0  0  0  0  0  0  0  0  0  0  0  0
   -3.5515    0.5040   -1.9353 S   0  0  0  0  0  0  0  0  0  0  0  0
   -3.9741    5.5100    0.4337 H   0  0  0  0  0  0  0  0  0  0  0  0
   -2.3593    6.0519    1.0412 H   0  0  0  0  0  0  0  0  0  0  0  0
   -3.0549    6.7692   -0.4245 H   0  0  0  0  0  0  0  0  0  0  0  0
   -0.3144    3.0805   -1.1141 H   0  0  0  0  0  0  0  0  0  0  0  0
   -1.8374    2.7786   -1.9701 H   0  0  0  0  0  0  0  0  0  0  0  0
    0.7650    1.3247    2.1221 H   0  0  0  0  0  0  0  0  0  0  0  0
    0.4524    2.6977    1.0922 H   0  0  0  0  0  0  0  0  0  0  0  0
    2.1164   -0.3152    1.4840 H   0  0  0  0  0  0  0  0  0  0  0  0
    3.7109   -1.9433    1.7244 H   0  0  0  0  0  0  0  0  0  0  0  0
    5.7869   -3.0170    0.9625 H   0  0  0  0  0  0  0  0  0  0  0  0
    6.2449    0.0055   -2.0669 H   0  0  0  0  0  0  0  0  0  0  0  0
    4.1930    1.0952   -1.3210 H   0  0  0  0  0  0  0  0  0  0  0  0
   -0.8529   -1.8780    1.8584 H   0  0  0  0  0  0  0  0  0  0  0  0
   -4.5372   -1.4836   -0.0691 H   0  0  0  0  0  0  0  0  0  0  0  0
   -5.4561   -3.7459   -0.2273 H   0  0  0  0  0  0  0  0  0  0  0  0
   -1.4808   -5.3864   -0.2657 H   0  0  0  0  0  0  0  0  0  0  0  0
   -0.5370   -3.1215   -0.1877 H   0  0  0  0  0  0  0  0  0  0  0  0
  1  2  1  0
  2  3  1  0
  3  4  2  0
  3  5  1  0
  5  6  1  0
  6  7  1  0
  7  8  1  0
  8  9  1  0
  9 10  2  0
  9 11  1  0
 11 12  1  0
 12 13  2  0
 13 14  1  0
 14 15  2  0
 15 16  1  0
 15 17  1  0
 17 18  2  0
  7 19  2  0
 19 20  1  0
 19 21  1  0
 21 22  1  0
 22 23  2  0
 23 24  1  0
 24 25  2  0
 25 26  1  0
 25 27  1  0
 27 28  2  0
 21 29  1  0
 29 30  2  0
 29  6  1  0
 18 12  1  0
 28 22  1  0
  1 31  1  0
  1 32  1  0
  1 33  1  0
  5 34  1  0
  5 35  1  0
  8 36  1  0
  8 37  1  0
 11 38  1  0
 13 39  1  0
 14 40  1  0
 17 41  1  0
 18 42  1  0
 20 43  1  0
 23 44  1  0
 24 45  1  0
 27 46  1  0
 28 47  1  0
M  END
$$$$
