
     RDKit          3D

 46 48  0  0  0  0  0  0  0  0999 V2000
   -2.9113    1.1268    0.3387 C   0  0  0  0  0  0  0  0  0  0  0  0
   -3.4311    0.2819   -0.7977 C   0  0  0  0  0  0  0  0  0  0  0  0
   -4.7440    0.0106   -0.9588 C   0  0  0  0  0  0  0  0  0  0  0  0
   -5.8171    0.3838   -0.0296 C   0  0  0  0  0  0  0  0  0  0  0  0
   -5.8505   -0.1171    1.2772 C   0  0  0  0  0  0  0  0  0  0  0  0
   -6.8903    0.2341    2.1404 C   0  0  0  0  0  0  0  0  0  0  0  0
   -7.9061    1.0811    1.7003 C   0  0  0  0  0  0  0  0  0  0  0  0
   -7.8850    1.5756    0.3969 C   0  0  0  0  0  0  0  0  0  0  0  0
   -6.8455    1.2252   -0.4674 C   0  0  0  0  0  0  0  0  0  0  0  0
   -2.5067   -0.1442   -1.8452 C   0  0  0  0  0  0  0  0  0  0  0  0
   -1.2190   -0.5189   -1.7817 C   0  0  0  0  0  0  0  0  0  0  0  0
   -0.3276   -0.9096   -3.2295 S   0  0  0  0  0  0  0  0  0  0  0  0
    1.1756   -1.2023   -2.3661 C   0  0  0  0  0  0  0  0  0  0  0  0
    2.5971   -1.6434   -3.1137 S   0  0  0  0  0  0  0  0  0  0  0  0
    0.9409   -1.0333   -1.0220 N   0  0  0  0  0  0  0  0  0  0  0  0
    2.0366   -1.1602    0.0268 N   0  0  0  0  0  0  0  0  0  0  0  0
    2.7235    0.3528    0.4412 S   0  0  0  0  0  6  0  0  0  0  0  0
    2.3763    0.5960    1.8238 O   0  0  0  0  0  0  0  0  0  0  0  0
    2.3989    1.3004   -0.6046 O   0  0  0  0  0  0  0  0  0  0  0  0
    4.4547   -0.0165    0.3644 C   0  0  0  0  0  0  0  0  0  0  0  0
    5.0923   -0.5566    1.4845 C   0  0  0  0  0  0  0  0  0  0  0  0
    6.4612   -0.8254    1.4342 C   0  0  0  0  0  0  0  0  0  0  0  0
    7.1953   -0.5582    0.2706 C   0  0  0  0  0  0  0  0  0  0  0  0
    8.6732   -0.8169    0.2308 C   0  0  0  0  0  0  0  0  0  0  0  0
    6.5480    0.0118   -0.8340 C   0  0  0  0  0  0  0  0  0  0  0  0
    5.1798    0.2853   -0.7899 C   0  0  0  0  0  0  0  0  0  0  0  0
   -0.3365   -0.7139   -0.5944 C   0  0  0  0  0  0  0  0  0  0  0  0
   -0.6727   -0.6753    0.5799 O   0  0  0  0  0  0  0  0  0  0  0  0
   -2.7125    0.5140    1.2223 H   0  0  0  0  0  0  0  0  0  0  0  0
   -1.9968    1.6613    0.0595 H   0  0  0  0  0  0  0  0  0  0  0  0
   -3.6303    1.9025    0.6251 H   0  0  0  0  0  0  0  0  0  0  0  0
   -5.0964   -0.5427   -1.8279 H   0  0  0  0  0  0  0  0  0  0  0  0
   -5.0677   -0.7843    1.6307 H   0  0  0  0  0  0  0  0  0  0  0  0
   -6.9070   -0.1548    3.1551 H   0  0  0  0  0  0  0  0  0  0  0  0
   -8.7149    1.3546    2.3729 H   0  0  0  0  0  0  0  0  0  0  0  0
   -8.6776    2.2350    0.0530 H   0  0  0  0  0  0  0  0  0  0  0  0
   -6.8407    1.6196   -1.4806 H   0  0  0  0  0  0  0  0  0  0  0  0
   -2.9691   -0.1473   -2.8358 H   0  0  0  0  0  0  0  0  0  0  0  0
    1.6508   -1.5472    0.8985 H   0  0  0  0  0  0  0  0  0  0  0  0
    4.5389   -0.7628    2.3977 H   0  0  0  0  0  0  0  0  0  0  0  0
    6.9552   -1.2414    2.3101 H   0  0  0  0  0  0  0  0  0  0  0  0
    8.9988   -1.0646   -0.7849 H   0  0  0  0  0  0  0  0  0  0  0  0
    8.9389   -1.6639    0.8721 H   0  0  0  0  0  0  0  0  0  0  0  0
    9.2172    0.0694    0.5713 H   0  0  0  0  0  0  0  0  0  0  0  0
    7.1079    0.2484   -1.7369 H   0  0  0  0  0  0  0  0  0  0  0  0
    4.6953    0.7308   -1.6557 H   0  0  0  0  0  0  0  0  0  0  0  0
  1  2  1  0
  2  3  2  3
  3  4  1  0
  4  5  2  0
  5  6  1  0
  6  7  2  0
  7  8  1  0
  8  9  2  0
  2 10  1  0
 10 11  2  3
 11 12  1  0
 12 13  1  0
 13 14  2  0
 13 15  1  0
 15 16  1  0
 16 17  1  0
 17 18  2  0
 17 19  2  0
 17 20  1  0
 20 21  2  0
 21 22  1  0
 22 23  2  0
 23 24  1  0
 23 25  1  0
 25 26  2  0
 15 27  1  0
 27 28  2  0
  9  4  1  0
 27 11  1  0
 26 20  1  0
  1 29  1  0
  1 30  1  0
  1 31  1  0
  3 32  1  0
  5 33  1  0
  6 34  1  0
  7 35  1  0
  8 36  1  0
  9 37  1  0
 10 38  1  0
 16 39  1  0
 21 40  1  0
 22 41  1  0
 24 42  1  0
 24 43  1  0
 24 44  1  0
 25 45  1  0
 26 46  1  0
M  END
$$$$
