
     RDKit          3D

 43 44  0  0  0  0  0  0  0  0999 V2000
   -4.9197    3.2047   -0.6219 C   0  0  0  0  0  0  0  0  0  0  0  0
   -4.7300    2.0642   -1.6042 C   0  0  0  0  0  0  0  0  0  0  0  0
   -3.5381    1.3333   -1.2898 O   0  0  0  0  0  0  0  0  0  0  0  0
   -3.6651    0.3367   -0.3625 C   0  0  0  0  0  0  0  0  0  0  0  0
   -4.7220    0.0470    0.1872 O   0  0  0  0  0  0  0  0  0  0  0  0
   -2.3962   -0.3546   -0.0785 C   0  0  0  0  0  0  0  0  0  0  0  0
   -1.2323    0.0936   -0.5747 N   0  0  0  0  0  0  0  0  0  0  0  0
   -0.2574   -0.6256    0.0336 N   0  0  0  0  0  0  0  0  0  0  0  0
    1.1004   -0.2059   -0.1264 C   0  0  0  0  0  0  0  0  0  0  0  0
    1.4122    0.7084   -1.1456 C   0  0  0  0  0  0  0  0  0  0  0  0
    2.7273    1.1454   -1.3321 C   0  0  0  0  0  0  0  0  0  0  0  0
    3.7519    0.6950   -0.5008 C   0  0  0  0  0  0  0  0  0  0  0  0
    4.9885    1.1991   -0.7911 O   0  0  0  0  0  0  0  0  0  0  0  0
    6.0749    0.7712    0.0281 C   0  0  0  0  0  0  0  0  0  0  0  0
    7.3377    1.4433   -0.4804 C   0  0  0  0  0  0  0  0  0  0  0  0
    3.4455   -0.1922    0.5293 C   0  0  0  0  0  0  0  0  0  0  0  0
    2.1275   -0.6365    0.7200 C   0  0  0  0  0  0  0  0  0  0  0  0
   -0.8023   -1.6942    0.7316 C   0  0  0  0  0  0  0  0  0  0  0  0
   -0.0342   -2.8311    1.3107 C   0  0  0  0  0  0  0  0  0  0  0  0
   -2.1837   -1.5116    0.7194 C   0  0  0  0  0  0  0  0  0  0  0  0
   -3.1398   -2.3824    1.3994 C   0  0  0  0  0  0  0  0  0  0  0  0
   -4.4266   -2.7662    0.7160 C   0  0  0  0  0  0  0  0  0  0  0  0
   -2.8801   -2.8477    2.5103 O   0  0  0  0  0  0  0  0  0  0  0  0
   -5.7944    3.8046   -0.8884 H   0  0  0  0  0  0  0  0  0  0  0  0
   -4.0371    3.8526   -0.6100 H   0  0  0  0  0  0  0  0  0  0  0  0
   -5.0518    2.8281    0.3973 H   0  0  0  0  0  0  0  0  0  0  0  0
   -5.6064    1.4065   -1.6304 H   0  0  0  0  0  0  0  0  0  0  0  0
   -4.6014    2.4670   -2.6142 H   0  0  0  0  0  0  0  0  0  0  0  0
    0.6431    1.0858   -1.8177 H   0  0  0  0  0  0  0  0  0  0  0  0
    2.9510    1.8459   -2.1333 H   0  0  0  0  0  0  0  0  0  0  0  0
    5.9060    1.0687    1.0694 H   0  0  0  0  0  0  0  0  0  0  0  0
    6.1968   -0.3161   -0.0384 H   0  0  0  0  0  0  0  0  0  0  0  0
    7.5215    1.1772   -1.5266 H   0  0  0  0  0  0  0  0  0  0  0  0
    8.2046    1.1472    0.1170 H   0  0  0  0  0  0  0  0  0  0  0  0
    7.2369    2.5330   -0.4416 H   0  0  0  0  0  0  0  0  0  0  0  0
    4.2057   -0.5514    1.2155 H   0  0  0  0  0  0  0  0  0  0  0  0
    1.9457   -1.2805    1.5719 H   0  0  0  0  0  0  0  0  0  0  0  0
    0.2929   -2.5994    2.3286 H   0  0  0  0  0  0  0  0  0  0  0  0
   -0.6510   -3.7348    1.3598 H   0  0  0  0  0  0  0  0  0  0  0  0
    0.8307   -3.0928    0.6940 H   0  0  0  0  0  0  0  0  0  0  0  0
   -4.3865   -2.5623   -0.3570 H   0  0  0  0  0  0  0  0  0  0  0  0
   -4.5827   -3.8423    0.8402 H   0  0  0  0  0  0  0  0  0  0  0  0
   -5.2618   -2.2311    1.1732 H   0  0  0  0  0  0  0  0  0  0  0  0
  1  2  1  0
  2  3  1  0
  3  4  1  0
  4  5  2  0
  4  6  1  0
  6  7  2  0
  7  8  1  0
  8  9  1  0
  9 10  2  0
 10 11  1  0
 11 12  2  0
 12 13  1  0
 13 14  1  0
 14 15  1  0
 12 16  1  0
 16 17  2  0
  8 18  1  0
 18 19  1  0
 18 20  2  0
 20 21  1  0
 21 22  1  0
 21 23  2  0
 20  6  1  0
 17  9  1  0
  1 24  1  0
  1 25  1  0
  1 26  1  0
  2 27  1  0
  2 28  1  0
 10 29  1  0
 11 30  1  0
 14 31  1  0
 14 32  1  0
 15 33  1  0
 15 34  1  0
 15 35  1  0
 16 36  1  0
 17 37  1  0
 19 38  1  0
 19 39  1  0
 19 40  1  0
 22 41  1  0
 22 42  1  0
 22 43  1  0
M  END
$$$$
