
     RDKit          3D

 46 49  0  0  0  0  0  0  0  0999 V2000
    5.5712   -0.1223   -0.8112 C   0  0  0  0  0  0  0  0  0  0  0  0
    4.2576    0.0065   -0.5836 C   0  0  0  0  0  0  0  0  0  0  0  0
    3.2074   -0.9130   -1.1626 C   0  0  0  0  0  0  0  0  0  0  0  0
    2.1104   -0.1384   -1.9414 C   0  0  0  0  0  0  0  0  0  0  0  0
    0.7586   -0.3792   -1.3780 N   0  0  0  0  0  0  0  0  0  0  0  0
    0.4471   -1.8218   -1.4869 C   0  0  0  0  0  0  0  0  0  0  0  0
    1.5132   -2.6919   -0.8044 C   0  0  0  0  0  0  0  0  0  0  0  0
    2.5155   -1.7767   -0.0787 C   0  0  0  0  0  0  0  0  0  0  0  0
    1.6779   -0.8971    0.8717 C   0  0  0  0  0  0  0  0  0  0  0  0
    0.7685    0.0479    0.0437 C   0  0  0  0  0  0  0  0  0  0  0  0
   -0.6303    0.2245    0.6017 C   0  0  0  0  0  0  0  0  0  0  0  0
   -0.8959    0.0494    1.9429 N   0  0  0  0  0  0  0  0  0  0  0  0
   -2.2155    0.2902    2.2293 C   0  0  0  0  0  0  0  0  0  0  0  0
   -2.9018    0.2074    3.4472 C   0  0  0  0  0  0  0  0  0  0  0  0
   -4.2617    0.5286    3.4477 C   0  0  0  0  0  0  0  0  0  0  0  0
   -4.9039    0.9197    2.2764 C   0  0  0  0  0  0  0  0  0  0  0  0
   -4.1986    0.9986    1.0696 C   0  0  0  0  0  0  0  0  0  0  0  0
   -2.8254    0.6740    1.0403 C   0  0  0  0  0  0  0  0  0  0  0  0
   -1.8216    0.6533    0.0134 C   0  0  0  0  0  0  0  0  0  0  0  0
   -2.0478    1.0495   -1.4163 C   0  0  0  0  0  0  0  0  0  0  0  0
   -1.4636    2.4211   -1.7485 C   0  0  0  0  0  0  0  0  0  0  0  0
   -1.8435    2.8305   -3.0617 O   0  0  0  0  0  0  0  0  0  0  0  0
    5.9702   -0.9169   -1.4342 H   0  0  0  0  0  0  0  0  0  0  0  0
    6.2815    0.5733   -0.3740 H   0  0  0  0  0  0  0  0  0  0  0  0
    3.9193    0.8276    0.0455 H   0  0  0  0  0  0  0  0  0  0  0  0
    3.6964   -1.5953   -1.8726 H   0  0  0  0  0  0  0  0  0  0  0  0
    2.3105    0.9408   -1.9635 H   0  0  0  0  0  0  0  0  0  0  0  0
    2.1190   -0.4510   -2.9941 H   0  0  0  0  0  0  0  0  0  0  0  0
   -0.5400   -2.0347   -1.0592 H   0  0  0  0  0  0  0  0  0  0  0  0
    0.3667   -2.0996   -2.5454 H   0  0  0  0  0  0  0  0  0  0  0  0
    1.0366   -3.3754   -0.0917 H   0  0  0  0  0  0  0  0  0  0  0  0
    2.0320   -3.3094   -1.5473 H   0  0  0  0  0  0  0  0  0  0  0  0
    3.2426   -2.3743    0.4823 H   0  0  0  0  0  0  0  0  0  0  0  0
    2.3323   -0.3040    1.5215 H   0  0  0  0  0  0  0  0  0  0  0  0
    1.1030   -1.5618    1.5279 H   0  0  0  0  0  0  0  0  0  0  0  0
    1.2041    1.0575    0.0901 H   0  0  0  0  0  0  0  0  0  0  0  0
   -0.2177   -0.2199    2.6403 H   0  0  0  0  0  0  0  0  0  0  0  0
   -2.4019   -0.0937    4.3618 H   0  0  0  0  0  0  0  0  0  0  0  0
   -4.8244    0.4735    4.3766 H   0  0  0  0  0  0  0  0  0  0  0  0
   -5.9622    1.1671    2.2964 H   0  0  0  0  0  0  0  0  0  0  0  0
   -4.7132    1.3060    0.1647 H   0  0  0  0  0  0  0  0  0  0  0  0
   -1.6514    0.2951   -2.1037 H   0  0  0  0  0  0  0  0  0  0  0  0
   -3.1236    1.0637   -1.6323 H   0  0  0  0  0  0  0  0  0  0  0  0
   -1.8135    3.1834   -1.0435 H   0  0  0  0  0  0  0  0  0  0  0  0
   -0.3702    2.4071   -1.7051 H   0  0  0  0  0  0  0  0  0  0  0  0
   -2.8141    2.8801   -3.0777 H   0  0  0  0  0  0  0  0  0  0  0  0
  1  2  2  0
  2  3  1  0
  3  4  1  0
  4  5  1  0
  5  6  1  0
  6  7  1  0
  7  8  1  0
  8  9  1  0
  9 10  1  0
 10 11  1  0
 11 12  1  0
 12 13  1  0
 13 14  2  0
 14 15  1  0
 15 16  2  0
 16 17  1  0
 17 18  2  0
 18 19  1  0
 19 20  1  0
 20 21  1  0
 21 22  1  0
  8  3  1  0
 19 11  2  0
 10  5  1  0
 18 13  1  0
  1 23  1  0
  1 24  1  0
  2 25  1  0
  3 26  1  0
  4 27  1  0
  4 28  1  0
  6 29  1  0
  6 30  1  0
  7 31  1  0
  7 32  1  0
  8 33  1  0
  9 34  1  0
  9 35  1  0
 10 36  1  0
 12 37  1  0
 14 38  1  0
 15 39  1  0
 16 40  1  0
 17 41  1  0
 20 42  1  0
 20 43  1  0
 21 44  1  0
 21 45  1  0
 22 46  1  0
M  END
$$$$
