
     RDKit          3D

 69 72  0  0  0  0  0  0  0  0999 V2000
    8.3957    1.1369    1.1162 C   0  0  0  0  0  0  0  0  0  0  0  0
    7.1965    1.7790    0.4841 C   0  0  0  0  0  0  0  0  0  0  0  0
    7.0967    3.1748    0.4040 C   0  0  0  0  0  0  0  0  0  0  0  0
    5.9743    3.7774   -0.1694 C   0  0  0  0  0  0  0  0  0  0  0  0
    4.9288    2.9909   -0.6498 C   0  0  0  0  0  0  0  0  0  0  0  0
    5.0025    1.6003   -0.5369 C   0  0  0  0  0  0  0  0  0  0  0  0
    3.8868    0.7830   -1.0626 C   0  0  0  0  0  0  0  0  0  0  0  0
    3.5121    0.9946   -2.2143 O   0  0  0  0  0  0  0  0  0  0  0  0
    3.2995   -0.1874   -0.2378 N   0  0  0  0  0  0  0  0  0  0  0  0
    3.2446   -0.0506    1.2210 C   0  0  0  0  0  0  0  0  0  0  0  0
    2.0782    0.8233    1.6583 C   0  0  0  0  0  0  0  0  0  0  0  0
    0.8044    0.0136    1.7602 C   0  0  0  0  0  0  0  0  0  0  0  0
    0.3311   -0.2278    2.8718 O   0  0  0  0  0  0  0  0  0  0  0  0
    0.2218   -0.4392    0.5805 N   0  0  0  0  0  0  0  0  0  0  0  0
   -1.0319   -1.2414    0.6782 C   0  0  0  0  0  0  0  0  0  0  0  0
   -2.1297   -0.7221   -0.2808 C   0  0  0  0  0  0  0  0  0  0  0  0
   -3.4235   -1.0487    0.2302 O   0  0  0  0  0  0  0  0  0  0  0  0
   -4.4859   -0.6895   -0.6510 C   0  0  0  0  0  0  0  0  0  0  0  0
   -4.7586    0.7954   -0.6321 C   0  0  0  0  0  0  0  0  0  0  0  0
   -4.9152    1.4717    0.5853 C   0  0  0  0  0  0  0  0  0  0  0  0
   -5.1779    2.8408    0.6093 C   0  0  0  0  0  0  0  0  0  0  0  0
   -5.2904    3.5512   -0.5857 C   0  0  0  0  0  0  0  0  0  0  0  0
   -5.1386    2.8983   -1.8175 C   0  0  0  0  0  0  0  0  0  0  0  0
   -5.2832    3.6591   -3.1126 C   0  0  0  0  0  0  0  0  0  0  0  0
   -4.9561    4.9770   -3.0029 F   0  0  0  0  0  0  0  0  0  0  0  0
   -4.4956    3.1643   -4.1094 F   0  0  0  0  0  0  0  0  0  0  0  0
   -6.5568    3.6280   -3.5939 F   0  0  0  0  0  0  0  0  0  0  0  0
   -4.8835    1.5157   -1.8290 C   0  0  0  0  0  0  0  0  0  0  0  0
   -0.7172   -2.7437    0.4796 C   0  0  0  0  0  0  0  0  0  0  0  0
   -1.8461   -3.6908    0.8037 C   0  0  0  0  0  0  0  0  0  0  0  0
   -2.4853   -4.4153   -0.2119 C   0  0  0  0  0  0  0  0  0  0  0  0
   -3.5283   -5.2913    0.0929 C   0  0  0  0  0  0  0  0  0  0  0  0
   -3.9405   -5.4535    1.4142 C   0  0  0  0  0  0  0  0  0  0  0  0
   -3.3100   -4.7404    2.4320 C   0  0  0  0  0  0  0  0  0  0  0  0
   -2.2674   -3.8636    2.1293 C   0  0  0  0  0  0  0  0  0  0  0  0
    0.8611   -0.2821   -0.7398 C   0  0  0  0  0  0  0  0  0  0  0  0
    2.2265   -0.9805   -0.8367 C   0  0  0  0  0  0  0  0  0  0  0  0
    6.1381    0.9922    0.0117 C   0  0  0  0  0  0  0  0  0  0  0  0
    8.6217    0.1779    0.6376 H   0  0  0  0  0  0  0  0  0  0  0  0
    9.2821    1.7715    1.0085 H   0  0  0  0  0  0  0  0  0  0  0  0
    8.2100    0.9681    2.1811 H   0  0  0  0  0  0  0  0  0  0  0  0
    7.9017    3.8045    0.7785 H   0  0  0  0  0  0  0  0  0  0  0  0
    5.9176    4.8609   -0.2441 H   0  0  0  0  0  0  0  0  0  0  0  0
    4.0607    3.4581   -1.1089 H   0  0  0  0  0  0  0  0  0  0  0  0
    3.1834   -1.0572    1.6518 H   0  0  0  0  0  0  0  0  0  0  0  0
    4.1676    0.3983    1.5920 H   0  0  0  0  0  0  0  0  0  0  0  0
    2.2860    1.2195    2.6604 H   0  0  0  0  0  0  0  0  0  0  0  0
    1.9232    1.6880    1.0050 H   0  0  0  0  0  0  0  0  0  0  0  0
   -1.4273   -1.1230    1.6945 H   0  0  0  0  0  0  0  0  0  0  0  0
   -2.0074   -1.1544   -1.2804 H   0  0  0  0  0  0  0  0  0  0  0  0
   -2.0525    0.3680   -0.3639 H   0  0  0  0  0  0  0  0  0  0  0  0
   -5.3884   -1.2083   -0.3089 H   0  0  0  0  0  0  0  0  0  0  0  0
   -4.2708   -1.0539   -1.6625 H   0  0  0  0  0  0  0  0  0  0  0  0
   -4.8249    0.9264    1.5238 H   0  0  0  0  0  0  0  0  0  0  0  0
   -5.2925    3.3524    1.5615 H   0  0  0  0  0  0  0  0  0  0  0  0
   -5.4982    4.6198   -0.5516 H   0  0  0  0  0  0  0  0  0  0  0  0
   -4.7788    1.0003   -2.7833 H   0  0  0  0  0  0  0  0  0  0  0  0
    0.1376   -3.0216    1.1116 H   0  0  0  0  0  0  0  0  0  0  0  0
   -0.3773   -2.9168   -0.5500 H   0  0  0  0  0  0  0  0  0  0  0  0
   -2.1779   -4.3018   -1.2483 H   0  0  0  0  0  0  0  0  0  0  0  0
   -4.0207   -5.8472   -0.7007 H   0  0  0  0  0  0  0  0  0  0  0  0
   -4.7533   -6.1345    1.6515 H   0  0  0  0  0  0  0  0  0  0  0  0
   -3.6311   -4.8630    3.4630 H   0  0  0  0  0  0  0  0  0  0  0  0
   -1.7881   -3.3107    2.9353 H   0  0  0  0  0  0  0  0  0  0  0  0
    0.9465    0.7908   -0.9439 H   0  0  0  0  0  0  0  0  0  0  0  0
    0.2030   -0.7059   -1.5034 H   0  0  0  0  0  0  0  0  0  0  0  0
    2.4659   -1.1525   -1.8926 H   0  0  0  0  0  0  0  0  0  0  0  0
    2.2088   -1.9608   -0.3472 H   0  0  0  0  0  0  0  0  0  0  0  0
    6.1965   -0.0924    0.0650 H   0  0  0  0  0  0  0  0  0  0  0  0
  1  2  1  0
  2  3  2  0
  3  4  1  0
  4  5  2  0
  5  6  1  0
  6  7  1  0
  7  8  2  0
  7  9  1  0
  9 10  1  0
 10 11  1  0
 11 12  1  0
 12 13  2  0
 12 14  1  0
 14 15  1  0
 15 16  1  0
 16 17  1  0
 17 18  1  0
 18 19  1  0
 19 20  2  0
 20 21  1  0
 21 22  2  0
 22 23  1  0
 23 24  1  0
 24 25  1  0
 24 26  1  0
 24 27  1  0
 23 28  2  0
 15 29  1  0
 29 30  1  0
 30 31  2  0
 31 32  1  0
 32 33  2  0
 33 34  1  0
 34 35  2  0
 14 36  1  0
 36 37  1  0
  6 38  2  0
 38  2  1  0
 37  9  1  0
 28 19  1  0
 35 30  1  0
  1 39  1  0
  1 40  1  0
  1 41  1  0
  3 42  1  0
  4 43  1  0
  5 44  1  0
 10 45  1  0
 10 46  1  0
 11 47  1  0
 11 48  1  0
 15 49  1  0
 16 50  1  0
 16 51  1  0
 18 52  1  0
 18 53  1  0
 20 54  1  0
 21 55  1  0
 22 56  1  0
 28 57  1  0
 29 58  1  0
 29 59  1  0
 31 60  1  0
 32 61  1  0
 33 62  1  0
 34 63  1  0
 35 64  1  0
 36 65  1  0
 36 66  1  0
 37 67  1  0
 37 68  1  0
 38 69  1  0
M  END
$$$$
