
     RDKit          3D

 47 50  0  0  0  0  0  0  0  0999 V2000
    2.7444    0.7431   -2.7133 C   0  0  0  0  0  0  0  0  0  0  0  0
    3.0585    0.5803   -1.3358 O   0  0  0  0  0  0  0  0  0  0  0  0
    2.0880    0.9424   -0.4355 C   0  0  0  0  0  0  0  0  0  0  0  0
    0.7375    1.1263   -0.7459 C   0  0  0  0  0  0  0  0  0  0  0  0
   -0.1789    1.4864    0.2562 C   0  0  0  0  0  0  0  0  0  0  0  0
   -1.5916    1.6591   -0.0793 C   0  0  0  0  0  0  0  0  0  0  0  0
   -2.5169    0.6923   -0.0400 C   0  0  0  0  0  0  0  0  0  0  0  0
   -3.8306    0.8925   -0.3811 N   0  0  0  0  0  0  0  0  0  0  0  0
   -4.3576   -0.2755   -0.1962 C   0  0  0  0  0  0  0  0  0  0  0  0
   -5.7628   -0.6530   -0.4144 C   0  0  0  0  0  0  0  0  0  0  0  0
   -6.6497    0.3079   -0.9167 C   0  0  0  0  0  0  0  0  0  0  0  0
   -7.9882   -0.0214   -1.1362 C   0  0  0  0  0  0  0  0  0  0  0  0
   -8.4455   -1.3083   -0.8518 C   0  0  0  0  0  0  0  0  0  0  0  0
   -7.5654   -2.2681   -0.3534 C   0  0  0  0  0  0  0  0  0  0  0  0
   -6.2245   -1.9442   -0.1347 C   0  0  0  0  0  0  0  0  0  0  0  0
   -3.5488   -1.2697    0.2383 O   0  0  0  0  0  0  0  0  0  0  0  0
   -2.3043   -0.7285    0.3675 C   0  0  0  0  0  0  0  0  0  0  0  0
   -1.3000   -1.3047    0.7314 O   0  0  0  0  0  0  0  0  0  0  0  0
    0.2572    1.6733    1.5729 C   0  0  0  0  0  0  0  0  0  0  0  0
    1.6011    1.4881    1.8927 C   0  0  0  0  0  0  0  0  0  0  0  0
    2.5011    1.1016    0.8959 C   0  0  0  0  0  0  0  0  0  0  0  0
    3.8274    0.9467    1.2127 O   0  0  0  0  0  0  0  0  0  0  0  0
    4.0389   -0.3017    1.8874 C   0  0  0  0  0  0  0  0  0  0  0  0
    5.4757   -0.5950    1.9510 C   0  0  0  0  0  0  0  0  0  0  0  0
    6.4930   -0.5978    0.9772 C   0  0  0  0  0  0  0  0  0  0  0  0
    6.3821   -0.2909   -0.4683 C   0  0  0  0  0  0  0  0  0  0  0  0
    7.6744   -0.9226    1.5133 N   0  0  0  0  0  0  0  0  0  0  0  0
    7.4310   -1.1682    2.8664 O   0  0  0  0  0  0  0  0  0  0  0  0
    6.0345   -0.9464    3.1050 N   0  0  0  0  0  4  0  0  0  0  0  0
    5.6190   -1.1431    4.2687 O   0  0  0  0  0  1  0  0  0  0  0  0
    2.0011    0.0066   -3.0342 H   0  0  0  0  0  0  0  0  0  0  0  0
    2.4109    1.7641   -2.9243 H   0  0  0  0  0  0  0  0  0  0  0  0
    3.6595    0.5668   -3.2899 H   0  0  0  0  0  0  0  0  0  0  0  0
    0.3713    0.9813   -1.7579 H   0  0  0  0  0  0  0  0  0  0  0  0
   -1.8777    2.6598   -0.3921 H   0  0  0  0  0  0  0  0  0  0  0  0
   -6.3048    1.3149   -1.1423 H   0  0  0  0  0  0  0  0  0  0  0  0
   -8.6755    0.7263   -1.5261 H   0  0  0  0  0  0  0  0  0  0  0  0
   -9.4892   -1.5637   -1.0213 H   0  0  0  0  0  0  0  0  0  0  0  0
   -7.9249   -3.2704   -0.1327 H   0  0  0  0  0  0  0  0  0  0  0  0
   -5.5571   -2.7088    0.2555 H   0  0  0  0  0  0  0  0  0  0  0  0
   -0.4435    1.9593    2.3559 H   0  0  0  0  0  0  0  0  0  0  0  0
    1.9420    1.6478    2.9126 H   0  0  0  0  0  0  0  0  0  0  0  0
    3.5301   -1.1251    1.3626 H   0  0  0  0  0  0  0  0  0  0  0  0
    3.6090   -0.2258    2.8968 H   0  0  0  0  0  0  0  0  0  0  0  0
    5.5105   -0.7935   -0.8965 H   0  0  0  0  0  0  0  0  0  0  0  0
    6.2729    0.7873   -0.6239 H   0  0  0  0  0  0  0  0  0  0  0  0
    7.2663   -0.6276   -1.0188 H   0  0  0  0  0  0  0  0  0  0  0  0
  1  2  1  0
  2  3  1  0
  3  4  2  0
  4  5  1  0
  5  6  1  0
  6  7  2  3
  7  8  1  0
  8  9  2  0
  9 10  1  0
 10 11  2  0
 11 12  1  0
 12 13  2  0
 13 14  1  0
 14 15  2  0
  9 16  1  0
 16 17  1  0
 17 18  2  0
  5 19  2  0
 19 20  1  0
 20 21  2  0
 21 22  1  0
 22 23  1  0
 23 24  1  0
 24 25  1  0
 25 26  1  0
 25 27  2  0
 27 28  1  0
 28 29  1  0
 29 30  1  0
 21  3  1  0
 29 24  2  0
 17  7  1  0
 15 10  1  0
  1 31  1  0
  1 32  1  0
  1 33  1  0
  4 34  1  0
  6 35  1  0
 11 36  1  0
 12 37  1  0
 13 38  1  0
 14 39  1  0
 15 40  1  0
 19 41  1  0
 20 42  1  0
 23 43  1  0
 23 44  1  0
 26 45  1  0
 26 46  1  0
 26 47  1  0
M  CHG  2  29   1  30  -1
M  END
$$$$
