
     RDKit          3D

 38 40  0  0  0  0  0  0  0  0999 V2000
   -1.3435    1.5258    0.6865 O   0  0  0  0  0  0  0  0  0  0  0  0
   -0.9286    0.4091    0.4093 C   0  0  0  0  0  0  0  0  0  0  0  0
   -1.7749   -0.8249    0.1783 C   0  0  0  0  0  0  0  0  0  0  0  0
   -3.2018   -0.5249   -0.2250 C   0  0  0  0  0  0  0  0  0  0  0  0
   -3.6030   -0.6398   -1.5634 C   0  0  0  0  0  0  0  0  0  0  0  0
   -4.9155   -0.3562   -1.9353 C   0  0  0  0  0  0  0  0  0  0  0  0
   -5.8416    0.0506   -0.9758 C   0  0  0  0  0  0  0  0  0  0  0  0
   -5.4615    0.1861    0.3681 C   0  0  0  0  0  0  0  0  0  0  0  0
   -6.4735    0.6256    1.3989 C   0  0  0  0  0  0  0  0  0  0  0  0
   -5.9179    0.9859    2.5917 F   0  0  0  0  0  0  0  0  0  0  0  0
   -7.2119    1.6973    0.9918 F   0  0  0  0  0  0  0  0  0  0  0  0
   -7.3732   -0.3562    1.6900 F   0  0  0  0  0  0  0  0  0  0  0  0
   -4.1391   -0.1107    0.7330 C   0  0  0  0  0  0  0  0  0  0  0  0
    0.3914    0.0802    0.3163 O   0  0  0  0  0  0  0  0  0  0  0  0
    1.2591    1.1851    0.5681 C   0  0  0  0  0  0  0  0  0  0  0  0
    2.6122    0.7187    0.4208 N   0  0  0  0  0  0  0  0  0  0  0  0
    3.3178    0.1091    1.4162 C   0  0  0  0  0  0  0  0  0  0  0  0
    2.9906   -0.1162    2.5660 O   0  0  0  0  0  0  0  0  0  0  0  0
    4.6122   -0.2553    0.8403 C   0  0  0  0  0  0  0  0  0  0  0  0
    5.7007   -0.8864    1.4101 C   0  0  0  0  0  0  0  0  0  0  0  0
    6.8171   -1.0949    0.5928 C   0  0  0  0  0  0  0  0  0  0  0  0
    6.8166   -0.6761   -0.7551 C   0  0  0  0  0  0  0  0  0  0  0  0
    5.6995   -0.0425   -1.3097 C   0  0  0  0  0  0  0  0  0  0  0  0
    4.6108    0.1526   -0.4816 C   0  0  0  0  0  0  0  0  0  0  0  0
    3.3116    0.7669   -0.7511 C   0  0  0  0  0  0  0  0  0  0  0  0
    2.9756    1.2116   -1.8321 O   0  0  0  0  0  0  0  0  0  0  0  0
   -1.3009   -1.4362   -0.6008 H   0  0  0  0  0  0  0  0  0  0  0  0
   -1.7755   -1.4176    1.1026 H   0  0  0  0  0  0  0  0  0  0  0  0
   -2.8943   -0.9522   -2.3295 H   0  0  0  0  0  0  0  0  0  0  0  0
   -5.2149   -0.4498   -2.9741 H   0  0  0  0  0  0  0  0  0  0  0  0
   -6.8665    0.2703   -1.2766 H   0  0  0  0  0  0  0  0  0  0  0  0
   -3.8343   -0.0027    1.7741 H   0  0  0  0  0  0  0  0  0  0  0  0
    1.1169    1.5449    1.5943 H   0  0  0  0  0  0  0  0  0  0  0  0
    1.0720    1.9856   -0.1576 H   0  0  0  0  0  0  0  0  0  0  0  0
    5.6868   -1.2048    2.4470 H   0  0  0  0  0  0  0  0  0  0  0  0
    7.6990   -1.5886    1.0006 H   0  0  0  0  0  0  0  0  0  0  0  0
    7.6981   -0.8517   -1.3693 H   0  0  0  0  0  0  0  0  0  0  0  0
    5.6846    0.2821   -2.3454 H   0  0  0  0  0  0  0  0  0  0  0  0
  1  2  2  0
  2  3  1  0
  3  4  1  0
  4  5  2  0
  5  6  1  0
  6  7  2  0
  7  8  1  0
  8  9  1  0
  9 10  1  0
  9 11  1  0
  9 12  1  0
  8 13  2  0
  2 14  1  0
 14 15  1  0
 15 16  1  0
 16 17  1  0
 17 18  2  0
 17 19  1  0
 19 20  2  0
 20 21  1  0
 21 22  2  0
 22 23  1  0
 23 24  2  0
 24 25  1  0
 25 26  2  0
 13  4  1  0
 25 16  1  0
 24 19  1  0
  3 27  1  0
  3 28  1  0
  5 29  1  0
  6 30  1  0
  7 31  1  0
 13 32  1  0
 15 33  1  0
 15 34  1  0
 20 35  1  0
 21 36  1  0
 22 37  1  0
 23 38  1  0
M  END
$$$$
