
     RDKit          3D

 40 43  0  0  0  0  0  0  0  0999 V2000
    6.7764    2.1740    0.8784 O   0  0  0  0  0  0  0  0  0  0  0  0
    6.1941    1.3794    1.6307 N   0  0  0  0  0  4  0  0  0  0  0  0
    6.6533    0.9625    2.7034 O   0  0  0  0  0  1  0  0  0  0  0  0
    4.8713    0.8941    1.2172 C   0  0  0  0  0  0  0  0  0  0  0  0
    4.3019    1.3609    0.0247 C   0  0  0  0  0  0  0  0  0  0  0  0
    3.0414    0.8968   -0.3665 C   0  0  0  0  0  0  0  0  0  0  0  0
    2.3493   -0.0340    0.4225 C   0  0  0  0  0  0  0  0  0  0  0  0
    1.0317   -0.5204    0.0177 C   0  0  0  0  0  0  0  0  0  0  0  0
    0.0355   -0.7108    0.9617 N   0  0  0  0  0  0  0  0  0  0  0  0
   -1.0648   -1.1147    0.2257 N   0  0  0  0  0  0  0  0  0  0  0  0
   -2.3440   -1.4120    0.8326 C   0  0  0  0  0  0  0  0  0  0  0  0
   -3.2551   -0.2092    0.8335 C   0  0  0  0  0  0  0  0  0  0  0  0
   -3.0180    0.8631    1.7070 C   0  0  0  0  0  0  0  0  0  0  0  0
   -3.8599    1.9759    1.7096 C   0  0  0  0  0  0  0  0  0  0  0  0
   -4.9463    2.0304    0.8388 C   0  0  0  0  0  0  0  0  0  0  0  0
   -5.1897    0.9745   -0.0375 C   0  0  0  0  0  0  0  0  0  0  0  0
   -4.3482   -0.1394   -0.0420 C   0  0  0  0  0  0  0  0  0  0  0  0
   -0.7150   -1.2078   -1.0755 C   0  0  0  0  0  0  0  0  0  0  0  0
   -1.2649   -1.5536   -2.2492 C   0  0  0  0  0  0  0  0  0  0  0  0
   -2.5106   -1.9667   -2.4296 O   0  0  0  0  0  0  0  0  0  0  0  0
   -0.3265   -1.4258   -3.2657 N   0  0  0  0  0  0  0  0  0  0  0  0
    0.8703   -0.9994   -2.6633 C   0  0  0  0  0  0  0  0  0  0  0  0
    1.9584   -0.8390   -3.4018 O   0  0  0  0  0  0  0  0  0  0  0  0
    0.5965   -0.8604   -1.3318 C   0  0  0  0  0  0  0  0  0  0  0  0
    2.9275   -0.4831    1.6197 C   0  0  0  0  0  0  0  0  0  0  0  0
    4.1871   -0.0266    2.0197 C   0  0  0  0  0  0  0  0  0  0  0  0
    4.8155    2.0896   -0.5995 H   0  0  0  0  0  0  0  0  0  0  0  0
    2.5921    1.2931   -1.2753 H   0  0  0  0  0  0  0  0  0  0  0  0
   -2.1597   -1.7459    1.8606 H   0  0  0  0  0  0  0  0  0  0  0  0
   -2.7892   -2.2586    0.2987 H   0  0  0  0  0  0  0  0  0  0  0  0
   -2.1651    0.8374    2.3840 H   0  0  0  0  0  0  0  0  0  0  0  0
   -3.6637    2.8016    2.3884 H   0  0  0  0  0  0  0  0  0  0  0  0
   -5.6003    2.8983    0.8401 H   0  0  0  0  0  0  0  0  0  0  0  0
   -6.0335    1.0196   -0.7207 H   0  0  0  0  0  0  0  0  0  0  0  0
   -4.5467   -0.9513   -0.7384 H   0  0  0  0  0  0  0  0  0  0  0  0
   -2.6630   -2.1279   -3.3770 H   0  0  0  0  0  0  0  0  0  0  0  0
   -0.4352   -1.6200   -4.2510 H   0  0  0  0  0  0  0  0  0  0  0  0
    2.6968   -0.6593   -2.7913 H   0  0  0  0  0  0  0  0  0  0  0  0
    2.3901   -1.1924    2.2485 H   0  0  0  0  0  0  0  0  0  0  0  0
    4.6100   -0.3929    2.9529 H   0  0  0  0  0  0  0  0  0  0  0  0
  1  2  2  0
  2  3  1  0
  2  4  1  0
  4  5  2  0
  5  6  1  0
  6  7  2  0
  7  8  1  0
  8  9  2  0
  9 10  1  0
 10 11  1  0
 11 12  1  0
 12 13  2  0
 13 14  1  0
 14 15  2  0
 15 16  1  0
 16 17  2  0
 10 18  1  0
 18 19  2  0
 19 20  1  0
 19 21  1  0
 21 22  1  0
 22 23  1  0
 22 24  2  0
  7 25  1  0
 25 26  2  0
 26  4  1  0
 24  8  1  0
 17 12  1  0
 24 18  1  0
  5 27  1  0
  6 28  1  0
 11 29  1  0
 11 30  1  0
 13 31  1  0
 14 32  1  0
 15 33  1  0
 16 34  1  0
 17 35  1  0
 20 36  1  0
 21 37  1  0
 23 38  1  0
 25 39  1  0
 26 40  1  0
M  CHG  2   2   1   3  -1
M  END
$$$$
