
     RDKit          3D

 55 57  0  0  0  0  0  0  0  0999 V2000
   -7.7301    0.1825   -1.5367 C   0  0  0  0  0  0  0  0  0  0  0  0
   -6.7028   -0.3283   -0.5694 C   0  0  0  0  0  0  0  0  0  0  0  0
   -7.0941   -1.0585    0.5554 C   0  0  0  0  0  0  0  0  0  0  0  0
   -6.1388   -1.5718    1.4354 C   0  0  0  0  0  0  0  0  0  0  0  0
   -4.7681   -1.3674    1.2129 C   0  0  0  0  0  0  0  0  0  0  0  0
   -3.7810   -1.9426    2.1915 C   0  0  0  0  0  0  0  0  0  0  0  0
   -4.3708   -0.6497    0.0685 C   0  0  0  0  0  0  0  0  0  0  0  0
   -2.9285   -0.4261   -0.2369 C   0  0  0  0  0  0  0  0  0  0  0  0
   -2.1207   -1.3398   -0.0793 O   0  0  0  0  0  0  0  0  0  0  0  0
   -2.5327    0.9557   -0.7400 C   0  0  0  0  0  0  0  0  0  0  0  0
   -1.1297    1.1396   -0.5382 O   0  0  0  0  0  0  0  0  0  0  0  0
   -0.6062    2.2114   -1.1744 C   0  0  0  0  0  0  0  0  0  0  0  0
   -1.2263    3.0122   -1.8545 O   0  0  0  0  0  0  0  0  0  0  0  0
    0.8653    2.2601   -0.9632 C   0  0  0  0  0  0  0  0  0  0  0  0
    1.6209    3.1240   -1.7609 C   0  0  0  0  0  0  0  0  0  0  0  0
    3.0096    3.1849   -1.6159 C   0  0  0  0  0  0  0  0  0  0  0  0
    3.6765    2.3808   -0.6760 C   0  0  0  0  0  0  0  0  0  0  0  0
    5.1710    2.5054   -0.5631 C   0  0  0  0  0  0  0  0  0  0  0  0
    2.9056    1.5262    0.1369 C   0  0  0  0  0  0  0  0  0  0  0  0
    3.6504    0.4976    1.3960 S   0  0  0  0  0  6  0  0  0  0  0  0
    2.5973   -0.1690    2.1333 O   0  0  0  0  0  0  0  0  0  0  0  0
    4.6470    1.2869    2.0861 O   0  0  0  0  0  0  0  0  0  0  0  0
    4.4476   -0.6986    0.4808 N   0  0  0  0  0  0  0  0  0  0  0  0
    5.4774   -1.4482    1.2726 C   0  0  0  0  0  0  0  0  0  0  0  0
    5.8862   -2.7260    0.5357 C   0  0  0  0  0  0  0  0  0  0  0  0
    4.8030   -3.6517    0.3659 O   0  0  0  0  0  0  0  0  0  0  0  0
    3.5171   -3.0170    0.3174 C   0  0  0  0  0  0  0  0  0  0  0  0
    3.5639   -1.6202   -0.3093 C   0  0  0  0  0  0  0  0  0  0  0  0
    1.5087    1.4711   -0.0031 C   0  0  0  0  0  0  0  0  0  0  0  0
   -5.3370   -0.1400   -0.8157 C   0  0  0  0  0  0  0  0  0  0  0  0
   -7.9554   -0.5853   -2.2833 H   0  0  0  0  0  0  0  0  0  0  0  0
   -7.3713    1.0806   -2.0503 H   0  0  0  0  0  0  0  0  0  0  0  0
   -8.6543    0.4540   -1.0159 H   0  0  0  0  0  0  0  0  0  0  0  0
   -8.1488   -1.2392    0.7543 H   0  0  0  0  0  0  0  0  0  0  0  0
   -6.4750   -2.1383    2.3023 H   0  0  0  0  0  0  0  0  0  0  0  0
   -3.0175   -1.2041    2.4558 H   0  0  0  0  0  0  0  0  0  0  0  0
   -4.2737   -2.2335    3.1259 H   0  0  0  0  0  0  0  0  0  0  0  0
   -3.3057   -2.8340    1.7715 H   0  0  0  0  0  0  0  0  0  0  0  0
   -3.0730    1.7217   -0.1733 H   0  0  0  0  0  0  0  0  0  0  0  0
   -2.7696    1.0103   -1.8084 H   0  0  0  0  0  0  0  0  0  0  0  0
    1.1334    3.7537   -2.5039 H   0  0  0  0  0  0  0  0  0  0  0  0
    3.5708    3.8703   -2.2501 H   0  0  0  0  0  0  0  0  0  0  0  0
    5.6525    1.5242   -0.5417 H   0  0  0  0  0  0  0  0  0  0  0  0
    5.4393    3.0733    0.3326 H   0  0  0  0  0  0  0  0  0  0  0  0
    5.5890    3.0340   -1.4272 H   0  0  0  0  0  0  0  0  0  0  0  0
    5.0704   -1.7099    2.2563 H   0  0  0  0  0  0  0  0  0  0  0  0
    6.3535   -0.8061    1.4065 H   0  0  0  0  0  0  0  0  0  0  0  0
    6.2813   -2.4878   -0.4592 H   0  0  0  0  0  0  0  0  0  0  0  0
    6.6769   -3.2448    1.0867 H   0  0  0  0  0  0  0  0  0  0  0  0
    3.1209   -2.9733    1.3383 H   0  0  0  0  0  0  0  0  0  0  0  0
    2.8551   -3.6676   -0.2626 H   0  0  0  0  0  0  0  0  0  0  0  0
    3.9836   -1.6739   -1.3209 H   0  0  0  0  0  0  0  0  0  0  0  0
    2.5491   -1.2250   -0.4031 H   0  0  0  0  0  0  0  0  0  0  0  0
    0.9260    0.8087    0.6353 H   0  0  0  0  0  0  0  0  0  0  0  0
   -5.0382    0.3892   -1.7176 H   0  0  0  0  0  0  0  0  0  0  0  0
  1  2  1  0
  2  3  2  0
  3  4  1  0
  4  5  2  0
  5  6  1  0
  5  7  1  0
  7  8  1  0
  8  9  2  0
  8 10  1  0
 10 11  1  0
 11 12  1  0
 12 13  2  0
 12 14  1  0
 14 15  2  0
 15 16  1  0
 16 17  2  0
 17 18  1  0
 17 19  1  0
 19 20  1  0
 20 21  2  0
 20 22  2  0
 20 23  1  0
 23 24  1  0
 24 25  1  0
 25 26  1  0
 26 27  1  0
 27 28  1  0
 19 29  2  0
  7 30  2  0
 30  2  1  0
 29 14  1  0
 28 23  1  0
  1 31  1  0
  1 32  1  0
  1 33  1  0
  3 34  1  0
  4 35  1  0
  6 36  1  0
  6 37  1  0
  6 38  1  0
 10 39  1  0
 10 40  1  0
 15 41  1  0
 16 42  1  0
 18 43  1  0
 18 44  1  0
 18 45  1  0
 24 46  1  0
 24 47  1  0
 25 48  1  0
 25 49  1  0
 27 50  1  0
 27 51  1  0
 28 52  1  0
 28 53  1  0
 29 54  1  0
 30 55  1  0
M  END
$$$$
