
     RDKit          3D

 64 68  0  0  0  0  0  0  0  0999 V2000
   -5.5024   -2.8748   -3.2571 C   0  0  0  0  0  0  0  0  0  0  0  0
   -4.9676   -2.1906   -1.9911 C   0  0  0  0  0  0  0  0  0  0  0  0
   -5.2704   -0.6860   -2.0542 C   0  0  0  0  0  0  0  0  0  0  0  0
   -5.6793   -2.7775   -0.7593 C   0  0  0  0  0  0  0  0  0  0  0  0
   -3.4626   -2.5128   -1.8736 C   0  0  0  0  0  0  0  0  0  0  0  0
   -3.0601   -3.6176   -1.5037 O   0  0  0  0  0  0  0  0  0  0  0  0
   -2.4582   -1.4927   -2.2924 C   0  0  0  0  0  0  0  0  0  0  0  0
   -2.2203   -1.4542   -3.6909 C   0  0  0  0  0  0  0  0  0  0  0  0
   -2.0733   -1.4348   -4.8417 N   0  0  0  0  0  0  0  0  0  0  0  0
   -1.7748   -0.7944   -1.3580 C   0  0  0  0  0  0  0  0  0  0  0  0
   -1.9649   -1.1288    0.3525 S   0  0  0  0  0  0  0  0  0  0  0  0
   -0.4827   -0.3276    0.7358 C   0  0  0  0  0  0  0  0  0  0  0  0
    0.0954   -0.4567    1.9415 C   0  0  0  0  0  0  0  0  0  0  0  0
    1.3110    0.1312    2.3954 C   0  0  0  0  0  0  0  0  0  0  0  0
    1.5358    1.4796    2.5380 C   0  0  0  0  0  0  0  0  0  0  0  0
    2.8374    1.6282    2.9603 N   0  0  0  0  0  0  0  0  0  0  0  0
    3.5437    2.8386    3.2177 C   0  0  0  0  0  0  0  0  0  0  0  0
    2.9424    4.0894    3.0187 C   0  0  0  0  0  0  0  0  0  0  0  0
    3.6587    5.2609    3.2839 C   0  0  0  0  0  0  0  0  0  0  0  0
    4.9713    5.1933    3.7472 C   0  0  0  0  0  0  0  0  0  0  0  0
    5.5767    3.9543    3.9441 C   0  0  0  0  0  0  0  0  0  0  0  0
    4.8679    2.7798    3.6814 C   0  0  0  0  0  0  0  0  0  0  0  0
    3.4365    0.4231    3.1400 N   0  0  0  0  0  0  0  0  0  0  0  0
    2.5181   -0.4951    2.8067 C   0  0  0  0  0  0  0  0  0  0  0  0
    2.8471   -1.9135    2.8608 C   0  0  0  0  0  0  0  0  0  0  0  0
    4.0370   -2.3946    2.3076 C   0  0  0  0  0  0  0  0  0  0  0  0
    4.3256   -3.7564    2.3623 C   0  0  0  0  0  0  0  0  0  0  0  0
    3.4095   -4.5980    2.9728 C   0  0  0  0  0  0  0  0  0  0  0  0
    2.2550   -4.1726    3.5298 N   0  0  0  0  0  0  0  0  0  0  0  0
    2.0089   -2.8398    3.4701 C   0  0  0  0  0  0  0  0  0  0  0  0
    0.0055    0.4660   -0.4291 C   0  0  0  0  0  0  0  0  0  0  0  0
    0.9229    1.2721   -0.3621 O   0  0  0  0  0  0  0  0  0  0  0  0
   -0.7891    0.1771   -1.5596 N   0  0  0  0  0  0  0  0  0  0  0  0
   -0.6171    0.9871   -2.7274 C   0  0  0  0  0  0  0  0  0  0  0  0
    0.6654    1.2727   -3.2220 C   0  0  0  0  0  0  0  0  0  0  0  0
    0.8310    2.0791   -4.3513 C   0  0  0  0  0  0  0  0  0  0  0  0
   -0.2842    2.6140   -4.9811 C   0  0  0  0  0  0  0  0  0  0  0  0
   -0.1268    3.3915   -6.0600 F   0  0  0  0  0  0  0  0  0  0  0  0
   -1.5620    2.3665   -4.4967 C   0  0  0  0  0  0  0  0  0  0  0  0
   -1.7296    1.5596   -3.3680 C   0  0  0  0  0  0  0  0  0  0  0  0
   -6.5841   -2.7344   -3.3565 H   0  0  0  0  0  0  0  0  0  0  0  0
   -5.0294   -2.4714   -4.1591 H   0  0  0  0  0  0  0  0  0  0  0  0
   -5.3045   -3.9523   -3.2419 H   0  0  0  0  0  0  0  0  0  0  0  0
   -4.8506   -0.2222   -2.9534 H   0  0  0  0  0  0  0  0  0  0  0  0
   -4.8620   -0.1586   -1.1847 H   0  0  0  0  0  0  0  0  0  0  0  0
   -6.3514   -0.5025   -2.0735 H   0  0  0  0  0  0  0  0  0  0  0  0
   -5.5427   -3.8633   -0.6936 H   0  0  0  0  0  0  0  0  0  0  0  0
   -5.2852   -2.3431    0.1667 H   0  0  0  0  0  0  0  0  0  0  0  0
   -6.7574   -2.5824   -0.7916 H   0  0  0  0  0  0  0  0  0  0  0  0
   -0.3935   -1.1080    2.6646 H   0  0  0  0  0  0  0  0  0  0  0  0
    0.8972    2.3263    2.3403 H   0  0  0  0  0  0  0  0  0  0  0  0
    1.9254    4.1915    2.6545 H   0  0  0  0  0  0  0  0  0  0  0  0
    3.1907    6.2299    3.1270 H   0  0  0  0  0  0  0  0  0  0  0  0
    5.5239    6.1066    3.9528 H   0  0  0  0  0  0  0  0  0  0  0  0
    6.6000    3.8993    4.3057 H   0  0  0  0  0  0  0  0  0  0  0  0
    5.3617    1.8235    3.8457 H   0  0  0  0  0  0  0  0  0  0  0  0
    4.7386   -1.7094    1.8366 H   0  0  0  0  0  0  0  0  0  0  0  0
    5.2444   -4.1497    1.9421 H   0  0  0  0  0  0  0  0  0  0  0  0
    3.5886   -5.6680    3.0358 H   0  0  0  0  0  0  0  0  0  0  0  0
    1.0903   -2.5374    3.9633 H   0  0  0  0  0  0  0  0  0  0  0  0
    1.5536    0.8599   -2.7470 H   0  0  0  0  0  0  0  0  0  0  0  0
    1.8227    2.2912   -4.7386 H   0  0  0  0  0  0  0  0  0  0  0  0
   -2.4176    2.8084   -4.9973 H   0  0  0  0  0  0  0  0  0  0  0  0
   -2.7363    1.4204   -2.9847 H   0  0  0  0  0  0  0  0  0  0  0  0
  1  2  1  0
  2  3  1  0
  2  4  1  0
  2  5  1  0
  5  6  2  0
  5  7  1  0
  7  8  1  0
  8  9  3  0
  7 10  2  3
 10 11  1  0
 11 12  1  0
 12 13  2  3
 13 14  1  0
 14 15  2  0
 15 16  1  0
 16 17  1  0
 17 18  2  0
 18 19  1  0
 19 20  2  0
 20 21  1  0
 21 22  2  0
 16 23  1  0
 23 24  2  0
 24 25  1  0
 25 26  2  0
 26 27  1  0
 27 28  2  0
 28 29  1  0
 29 30  2  0
 12 31  1  0
 31 32  2  0
 31 33  1  0
 33 34  1  0
 34 35  2  0
 35 36  1  0
 36 37  2  0
 37 38  1  0
 37 39  1  0
 39 40  2  0
 33 10  1  0
 40 34  1  0
 24 14  1  0
 30 25  1  0
 22 17  1  0
  1 41  1  0
  1 42  1  0
  1 43  1  0
  3 44  1  0
  3 45  1  0
  3 46  1  0
  4 47  1  0
  4 48  1  0
  4 49  1  0
 13 50  1  0
 15 51  1  0
 18 52  1  0
 19 53  1  0
 20 54  1  0
 21 55  1  0
 22 56  1  0
 26 57  1  0
 27 58  1  0
 28 59  1  0
 30 60  1  0
 35 61  1  0
 36 62  1  0
 39 63  1  0
 40 64  1  0
M  END
$$$$
