
     RDKit          3D

 57 59  0  0  0  0  0  0  0  0999 V2000
   -1.1591   -2.3599    4.2858 C   0  0  0  0  0  0  0  0  0  0  0  0
   -0.4854   -2.0201    2.9674 C   0  0  0  0  0  0  0  0  0  0  0  0
   -1.4514   -1.3634    1.9857 C   0  0  0  0  0  0  0  0  0  0  0  0
   -0.7244   -1.0831    0.7869 O   0  0  0  0  0  0  0  0  0  0  0  0
   -1.3240   -0.2217   -0.0983 C   0  0  0  0  0  0  0  0  0  0  0  0
   -2.7027    0.0124   -0.1599 C   0  0  0  0  0  0  0  0  0  0  0  0
   -3.2524    0.9117   -1.0901 C   0  0  0  0  0  0  0  0  0  0  0  0
   -4.6540    1.0845   -1.1169 N   0  0  0  0  0  0  0  0  0  0  0  0
   -5.1125    2.4498   -1.4334 C   0  0  0  0  0  0  0  0  0  0  0  0
   -6.5188    2.6902   -0.9014 C   0  0  0  0  0  0  0  0  0  0  0  0
   -5.3165   -0.0082   -1.8585 C   0  0  0  0  0  0  0  0  0  0  0  0
   -6.1959   -0.8207   -0.9193 C   0  0  0  0  0  0  0  0  0  0  0  0
   -2.3831    1.5708   -1.9689 C   0  0  0  0  0  0  0  0  0  0  0  0
   -1.0072    1.3299   -1.9324 C   0  0  0  0  0  0  0  0  0  0  0  0
   -0.4732    0.4296   -1.0060 C   0  0  0  0  0  0  0  0  0  0  0  0
    0.9736    0.1718   -0.9948 C   0  0  0  0  0  0  0  0  0  0  0  0
    1.9015    0.9868   -0.4535 C   0  0  0  0  0  0  0  0  0  0  0  0
    1.5650    2.2454    0.1352 C   0  0  0  0  0  0  0  0  0  0  0  0
    1.2698    3.2522    0.6330 N   0  0  0  0  0  0  0  0  0  0  0  0
    3.2639    0.5825   -0.4754 C   0  0  0  0  0  0  0  0  0  0  0  0
    4.3409    1.2215   -0.8866 N   0  0  0  0  0  0  0  0  0  0  0  0
    5.3973    0.3752   -0.6487 C   0  0  0  0  0  0  0  0  0  0  0  0
    6.7654    0.5533   -0.9020 C   0  0  0  0  0  0  0  0  0  0  0  0
    7.6632   -0.4740   -0.5612 C   0  0  0  0  0  0  0  0  0  0  0  0
    9.1352   -0.2897   -0.7915 C   0  0  0  0  0  0  0  0  0  0  0  0
    7.1861   -1.6446    0.0475 C   0  0  0  0  0  0  0  0  0  0  0  0
    5.8228   -1.8388    0.3091 C   0  0  0  0  0  0  0  0  0  0  0  0
    4.9637   -0.8045   -0.0594 C   0  0  0  0  0  0  0  0  0  0  0  0
    3.6063   -0.6480    0.0456 N   0  0  0  0  0  0  0  0  0  0  0  0
   -1.5580   -1.4606    4.7670 H   0  0  0  0  0  0  0  0  0  0  0  0
   -1.9843   -3.0628    4.1343 H   0  0  0  0  0  0  0  0  0  0  0  0
   -0.4400   -2.8232    4.9685 H   0  0  0  0  0  0  0  0  0  0  0  0
    0.3654   -1.3507    3.1456 H   0  0  0  0  0  0  0  0  0  0  0  0
   -0.0652   -2.9289    2.5198 H   0  0  0  0  0  0  0  0  0  0  0  0
   -2.2750   -2.0510    1.7655 H   0  0  0  0  0  0  0  0  0  0  0  0
   -1.8429   -0.4384    2.4260 H   0  0  0  0  0  0  0  0  0  0  0  0
   -3.3858   -0.4896    0.5155 H   0  0  0  0  0  0  0  0  0  0  0  0
   -5.0911    2.6297   -2.5162 H   0  0  0  0  0  0  0  0  0  0  0  0
   -4.4550    3.1894   -0.9571 H   0  0  0  0  0  0  0  0  0  0  0  0
   -7.2580    2.0756   -1.4269 H   0  0  0  0  0  0  0  0  0  0  0  0
   -6.5812    2.4595    0.1674 H   0  0  0  0  0  0  0  0  0  0  0  0
   -6.8007    3.7394   -1.0426 H   0  0  0  0  0  0  0  0  0  0  0  0
   -5.9350    0.3953   -2.6699 H   0  0  0  0  0  0  0  0  0  0  0  0
   -4.5937   -0.6787   -2.3425 H   0  0  0  0  0  0  0  0  0  0  0  0
   -5.6110   -1.2690   -0.1093 H   0  0  0  0  0  0  0  0  0  0  0  0
   -6.6907   -1.6272   -1.4704 H   0  0  0  0  0  0  0  0  0  0  0  0
   -6.9729   -0.1967   -0.4637 H   0  0  0  0  0  0  0  0  0  0  0  0
   -2.7640    2.2636   -2.7122 H   0  0  0  0  0  0  0  0  0  0  0  0
   -0.3621    1.8471   -2.6379 H   0  0  0  0  0  0  0  0  0  0  0  0
    1.2465   -0.7735   -1.4571 H   0  0  0  0  0  0  0  0  0  0  0  0
    7.1071    1.4789   -1.3531 H   0  0  0  0  0  0  0  0  0  0  0  0
    9.6065    0.1130    0.1102 H   0  0  0  0  0  0  0  0  0  0  0  0
    9.6103   -1.2430   -1.0475 H   0  0  0  0  0  0  0  0  0  0  0  0
    9.3190    0.3983   -1.6238 H   0  0  0  0  0  0  0  0  0  0  0  0
    7.8874   -2.4284    0.3299 H   0  0  0  0  0  0  0  0  0  0  0  0
    5.4647   -2.7474    0.7787 H   0  0  0  0  0  0  0  0  0  0  0  0
    2.9653   -1.3114    0.4561 H   0  0  0  0  0  0  0  0  0  0  0  0
  1  2  1  0
  2  3  1  0
  3  4  1  0
  4  5  1  0
  5  6  2  0
  6  7  1  0
  7  8  1  0
  8  9  1  0
  9 10  1  0
  8 11  1  0
 11 12  1  0
  7 13  2  0
 13 14  1  0
 14 15  2  0
 15 16  1  0
 16 17  2  3
 17 18  1  0
 18 19  3  0
 17 20  1  0
 20 21  2  0
 21 22  1  0
 22 23  2  0
 23 24  1  0
 24 25  1  0
 24 26  2  0
 26 27  1  0
 27 28  2  0
 28 29  1  0
 15  5  1  0
 29 20  1  0
 28 22  1  0
  1 30  1  0
  1 31  1  0
  1 32  1  0
  2 33  1  0
  2 34  1  0
  3 35  1  0
  3 36  1  0
  6 37  1  0
  9 38  1  0
  9 39  1  0
 10 40  1  0
 10 41  1  0
 10 42  1  0
 11 43  1  0
 11 44  1  0
 12 45  1  0
 12 46  1  0
 12 47  1  0
 13 48  1  0
 14 49  1  0
 16 50  1  0
 23 51  1  0
 25 52  1  0
 25 53  1  0
 25 54  1  0
 26 55  1  0
 27 56  1  0
 29 57  1  0
M  END
$$$$
