
     RDKit          3D

 54 55  0  0  0  0  0  0  0  0999 V2000
    0.0637   -3.4991   -1.3474 C   0  0  0  0  0  0  0  0  0  0  0  0
   -0.8599   -2.5760   -0.7862 O   0  0  0  0  0  0  0  0  0  0  0  0
   -0.3523   -1.5227   -0.0712 C   0  0  0  0  0  0  0  0  0  0  0  0
    1.0127   -1.2775    0.1168 C   0  0  0  0  0  0  0  0  0  0  0  0
    1.4574   -0.1892    0.8914 C   0  0  0  0  0  0  0  0  0  0  0  0
    2.9391    0.0492    1.0838 C   0  0  0  0  0  0  0  0  0  0  0  0
    3.5485    0.3382   -0.2063 N   0  0  0  0  0  0  0  0  0  0  0  0
    4.9063    0.6601   -0.2800 C   0  0  0  0  0  0  0  0  0  0  0  0
    5.3887    1.2376   -1.4643 C   0  0  0  0  0  0  0  0  0  0  0  0
    6.7478    1.5216   -1.6384 C   0  0  0  0  0  0  0  0  0  0  0  0
    7.6627    1.2058   -0.6321 C   0  0  0  0  0  0  0  0  0  0  0  0
    9.0947    1.5189   -0.8545 C   0  0  0  0  0  0  0  0  0  0  0  0
    9.5661    2.0354   -1.8511 O   0  0  0  0  0  0  0  0  0  0  0  0
    9.8732    1.1709    0.1861 O   0  0  0  0  0  0  0  0  0  0  0  0
    7.2058    0.5954    0.5385 C   0  0  0  0  0  0  0  0  0  0  0  0
    5.8424    0.3141    0.7019 C   0  0  0  0  0  0  0  0  0  0  0  0
    0.5130    0.6578    1.4848 C   0  0  0  0  0  0  0  0  0  0  0  0
   -0.8509    0.4221    1.3032 C   0  0  0  0  0  0  0  0  0  0  0  0
   -2.0836    1.6028    2.1394 Br  0  0  0  0  0  0  0  0  0  0  0  0
   -1.2876   -0.6500    0.5136 C   0  0  0  0  0  0  0  0  0  0  0  0
   -2.6419   -0.8539    0.3954 O   0  0  0  0  0  0  0  0  0  0  0  0
   -3.0950   -0.7494   -0.9591 C   0  0  0  0  0  0  0  0  0  0  0  0
   -4.4674   -0.0718   -1.0172 C   0  0  0  0  0  0  0  0  0  0  0  0
   -4.9607    0.2945   -2.0802 O   0  0  0  0  0  0  0  0  0  0  0  0
   -5.0807    0.0598    0.2116 N   0  0  0  0  0  0  0  0  0  0  0  0
   -6.3469    0.7553    0.4667 C   0  0  0  0  0  0  0  0  0  0  0  0
   -6.6699    0.6175    1.9659 C   0  0  0  0  0  0  0  0  0  0  0  0
   -7.4989    0.1253   -0.3326 C   0  0  0  0  0  0  0  0  0  0  0  0
   -6.2223    2.2482    0.1260 C   0  0  0  0  0  0  0  0  0  0  0  0
    0.7016   -3.0141   -2.0924 H   0  0  0  0  0  0  0  0  0  0  0  0
    0.6605   -3.9843   -0.5687 H   0  0  0  0  0  0  0  0  0  0  0  0
   -0.5120   -4.2765   -1.8583 H   0  0  0  0  0  0  0  0  0  0  0  0
    1.7689   -1.9193   -0.3299 H   0  0  0  0  0  0  0  0  0  0  0  0
    3.1000    0.8851    1.7756 H   0  0  0  0  0  0  0  0  0  0  0  0
    3.3702   -0.8527    1.5346 H   0  0  0  0  0  0  0  0  0  0  0  0
    2.9806    0.9664   -0.7712 H   0  0  0  0  0  0  0  0  0  0  0  0
    4.7020    1.4721   -2.2749 H   0  0  0  0  0  0  0  0  0  0  0  0
    7.0856    1.9796   -2.5658 H   0  0  0  0  0  0  0  0  0  0  0  0
   10.7739    1.4319   -0.0999 H   0  0  0  0  0  0  0  0  0  0  0  0
    7.9005    0.3219    1.3290 H   0  0  0  0  0  0  0  0  0  0  0  0
    5.5384   -0.1847    1.6172 H   0  0  0  0  0  0  0  0  0  0  0  0
    0.8409    1.5006    2.0906 H   0  0  0  0  0  0  0  0  0  0  0  0
   -3.2110   -1.7541   -1.3776 H   0  0  0  0  0  0  0  0  0  0  0  0
   -2.4133   -0.1529   -1.5784 H   0  0  0  0  0  0  0  0  0  0  0  0
   -4.4787   -0.1465    1.0051 H   0  0  0  0  0  0  0  0  0  0  0  0
   -5.8787    1.0607    2.5828 H   0  0  0  0  0  0  0  0  0  0  0  0
   -6.7546   -0.4369    2.2551 H   0  0  0  0  0  0  0  0  0  0  0  0
   -7.6125    1.1145    2.2211 H   0  0  0  0  0  0  0  0  0  0  0  0
   -8.4602    0.5779   -0.0625 H   0  0  0  0  0  0  0  0  0  0  0  0
   -7.5682   -0.9521   -0.1407 H   0  0  0  0  0  0  0  0  0  0  0  0
   -7.3718    0.2582   -1.4120 H   0  0  0  0  0  0  0  0  0  0  0  0
   -5.3970    2.7107    0.6795 H   0  0  0  0  0  0  0  0  0  0  0  0
   -7.1412    2.7901    0.3776 H   0  0  0  0  0  0  0  0  0  0  0  0
   -6.0281    2.4070   -0.9402 H   0  0  0  0  0  0  0  0  0  0  0  0
  1  2  1  0
  2  3  1  0
  3  4  2  0
  4  5  1  0
  5  6  1  0
  6  7  1  0
  7  8  1  0
  8  9  2  0
  9 10  1  0
 10 11  2  0
 11 12  1  0
 12 13  2  0
 12 14  1  0
 11 15  1  0
 15 16  2  0
  5 17  2  0
 17 18  1  0
 18 19  1  0
 18 20  2  0
 20 21  1  0
 21 22  1  0
 22 23  1  0
 23 24  2  0
 23 25  1  0
 25 26  1  0
 26 27  1  0
 26 28  1  0
 26 29  1  0
 20  3  1  0
 16  8  1  0
  1 30  1  0
  1 31  1  0
  1 32  1  0
  4 33  1  0
  6 34  1  0
  6 35  1  0
  7 36  1  0
  9 37  1  0
 10 38  1  0
 14 39  1  0
 15 40  1  0
 16 41  1  0
 17 42  1  0
 22 43  1  0
 22 44  1  0
 25 45  1  0
 27 46  1  0
 27 47  1  0
 27 48  1  0
 28 49  1  0
 28 50  1  0
 28 51  1  0
 29 52  1  0
 29 53  1  0
 29 54  1  0
M  END
$$$$
