
     RDKit          3D

 43 46  0  0  0  0  0  0  0  0999 V2000
    7.9341    1.2202   -0.4404 C   0  0  0  0  0  0  0  0  0  0  0  0
    6.5821    0.7903    0.0488 C   0  0  0  0  0  0  0  0  0  0  0  0
    5.4555    1.5875   -0.1894 C   0  0  0  0  0  0  0  0  0  0  0  0
    4.2003    1.2067    0.2948 C   0  0  0  0  0  0  0  0  0  0  0  0
    4.0621    0.0203    1.0263 C   0  0  0  0  0  0  0  0  0  0  0  0
    2.7445   -0.4285    1.5625 C   0  0  0  0  0  0  0  0  0  0  0  0
    2.7299   -1.0422    2.6219 O   0  0  0  0  0  0  0  0  0  0  0  0
    1.6695   -0.1254    0.7661 N   0  0  0  0  0  0  0  0  0  0  0  0
    0.3425   -0.4143    1.0390 C   0  0  0  0  0  0  0  0  0  0  0  0
   -0.0417   -0.9805    2.1867 N   0  0  0  0  0  0  0  0  0  0  0  0
   -1.3600   -1.2187    2.3479 C   0  0  0  0  0  0  0  0  0  0  0  0
   -2.3005   -0.8981    1.3988 C   0  0  0  0  0  0  0  0  0  0  0  0
   -1.8228   -0.3037    0.2489 C   0  0  0  0  0  0  0  0  0  0  0  0
   -0.5045   -0.0597    0.0541 N   0  0  0  0  0  0  0  0  0  0  0  0
   -2.7566    0.0707   -0.8700 C   0  0  0  0  0  0  0  0  0  0  0  0
   -4.1561    0.3878   -0.3305 C   0  0  0  0  0  0  0  0  0  0  0  0
   -5.0935    0.7357   -1.4371 C   0  0  0  0  0  0  0  0  0  0  0  0
   -5.8478    1.8552   -1.7193 C   0  0  0  0  0  0  0  0  0  0  0  0
   -6.5414    1.5747   -2.9213 C   0  0  0  0  0  0  0  0  0  0  0  0
   -6.1667    0.3055   -3.2937 C   0  0  0  0  0  0  0  0  0  0  0  0
   -5.2872   -0.2115   -2.3984 O   0  0  0  0  0  0  0  0  0  0  0  0
   -4.6875   -0.7897    0.4899 C   0  0  0  0  0  0  0  0  0  0  0  0
   -3.7335   -1.1634    1.6012 C   0  0  0  0  0  0  0  0  0  0  0  0
   -4.1140   -1.7109    2.6309 O   0  0  0  0  0  0  0  0  0  0  0  0
    5.1918   -0.7610    1.2942 C   0  0  0  0  0  0  0  0  0  0  0  0
    6.4439   -0.3779    0.8079 C   0  0  0  0  0  0  0  0  0  0  0  0
    7.8492    1.7880   -1.3729 H   0  0  0  0  0  0  0  0  0  0  0  0
    8.4228    1.8462    0.3124 H   0  0  0  0  0  0  0  0  0  0  0  0
    8.5691    0.3519   -0.6460 H   0  0  0  0  0  0  0  0  0  0  0  0
    5.5521    2.5177   -0.7459 H   0  0  0  0  0  0  0  0  0  0  0  0
    3.3529    1.8634    0.1202 H   0  0  0  0  0  0  0  0  0  0  0  0
    1.7985    0.2798   -0.1459 H   0  0  0  0  0  0  0  0  0  0  0  0
   -1.6321   -1.6870    3.2904 H   0  0  0  0  0  0  0  0  0  0  0  0
   -2.7866   -0.7630   -1.5832 H   0  0  0  0  0  0  0  0  0  0  0  0
   -2.3561    0.9405   -1.4060 H   0  0  0  0  0  0  0  0  0  0  0  0
   -4.0774    1.2601    0.3353 H   0  0  0  0  0  0  0  0  0  0  0  0
   -5.8946    2.7613   -1.1310 H   0  0  0  0  0  0  0  0  0  0  0  0
   -7.2311    2.2166   -3.4513 H   0  0  0  0  0  0  0  0  0  0  0  0
   -6.4228   -0.3384   -4.1237 H   0  0  0  0  0  0  0  0  0  0  0  0
   -5.6488   -0.5180    0.9431 H   0  0  0  0  0  0  0  0  0  0  0  0
   -4.8472   -1.6798   -0.1305 H   0  0  0  0  0  0  0  0  0  0  0  0
    5.0987   -1.6705    1.8851 H   0  0  0  0  0  0  0  0  0  0  0  0
    7.3109   -0.9966    1.0305 H   0  0  0  0  0  0  0  0  0  0  0  0
  1  2  1  0
  2  3  2  0
  3  4  1  0
  4  5  2  0
  5  6  1  0
  6  7  2  0
  6  8  1  0
  8  9  1  0
  9 10  2  0
 10 11  1  0
 11 12  2  0
 12 13  1  0
 13 14  2  0
 13 15  1  0
 15 16  1  0
 16 17  1  0
 17 18  2  0
 18 19  1  0
 19 20  2  0
 20 21  1  0
 16 22  1  0
 22 23  1  0
 23 24  2  0
  5 25  1  0
 25 26  2  0
 26  2  1  0
 14  9  1  0
 21 17  1  0
 23 12  1  0
  1 27  1  0
  1 28  1  0
  1 29  1  0
  3 30  1  0
  4 31  1  0
  8 32  1  0
 11 33  1  0
 15 34  1  0
 15 35  1  0
 16 36  1  0
 18 37  1  0
 19 38  1  0
 20 39  1  0
 22 40  1  0
 22 41  1  0
 25 42  1  0
 26 43  1  0
M  END
$$$$
