
     RDKit          3D

 53 55  0  0  0  0  0  0  0  0999 V2000
    6.5392   -2.4259    2.4890 C   0  0  0  0  0  0  0  0  0  0  0  0
    5.1999   -2.8715    2.6631 O   0  0  0  0  0  0  0  0  0  0  0  0
    4.3108   -2.5633    1.6706 C   0  0  0  0  0  0  0  0  0  0  0  0
    3.0246   -3.0709    1.8643 C   0  0  0  0  0  0  0  0  0  0  0  0
    2.0165   -2.8343    0.9270 C   0  0  0  0  0  0  0  0  0  0  0  0
    2.2762   -2.0734   -0.2238 C   0  0  0  0  0  0  0  0  0  0  0  0
    1.2739   -1.8251   -1.1821 C   0  0  0  0  0  0  0  0  0  0  0  0
    1.5324   -1.0455   -2.3229 C   0  0  0  0  0  0  0  0  0  0  0  0
    0.4747   -0.7299   -3.3718 C   0  0  0  0  0  0  0  0  0  0  0  0
   -0.4837   -1.8837   -3.6879 C   0  0  0  0  0  0  0  0  0  0  0  0
   -0.2832    0.5673   -3.0501 C   0  0  0  0  0  0  0  0  0  0  0  0
   -0.1105    1.5699   -3.7419 O   0  0  0  0  0  0  0  0  0  0  0  0
   -1.1428    0.4656   -1.9686 N   0  0  0  0  0  0  0  0  0  0  0  0
   -2.0137    1.4498   -1.4593 C   0  0  0  0  0  0  0  0  0  0  0  0
   -2.0785    2.7621   -1.9366 C   0  0  0  0  0  0  0  0  0  0  0  0
   -2.9974    3.6729   -1.4009 C   0  0  0  0  0  0  0  0  0  0  0  0
   -3.8593    3.2828   -0.3773 C   0  0  0  0  0  0  0  0  0  0  0  0
   -3.7711    1.9841    0.1270 C   0  0  0  0  0  0  0  0  0  0  0  0
   -4.8972    1.4532    1.4003 S   0  0  0  0  0  6  0  0  0  0  0  0
   -6.0549    2.3215    1.3422 O   0  0  0  0  0  0  0  0  0  0  0  0
   -5.0365    0.0155    1.2775 O   0  0  0  0  0  0  0  0  0  0  0  0
   -4.0472    1.7873    2.8349 N   0  0  0  0  0  0  0  0  0  0  0  0
   -2.8925    0.9309    3.1518 C   0  0  0  0  0  0  0  0  0  0  0  0
   -3.8305    3.2053    3.1719 C   0  0  0  0  0  0  0  0  0  0  0  0
   -2.8636    1.0650   -0.4142 C   0  0  0  0  0  0  0  0  0  0  0  0
    2.8203   -0.5102   -2.4881 C   0  0  0  0  0  0  0  0  0  0  0  0
    3.8292   -0.7655   -1.5562 C   0  0  0  0  0  0  0  0  0  0  0  0
    3.5736   -1.5456   -0.4186 C   0  0  0  0  0  0  0  0  0  0  0  0
    4.5814   -1.8043    0.5302 C   0  0  0  0  0  0  0  0  0  0  0  0
    6.9904   -2.8774    1.5992 H   0  0  0  0  0  0  0  0  0  0  0  0
    7.1145   -2.7548    3.3595 H   0  0  0  0  0  0  0  0  0  0  0  0
    6.5884   -1.3325    2.4486 H   0  0  0  0  0  0  0  0  0  0  0  0
    2.8060   -3.6599    2.7527 H   0  0  0  0  0  0  0  0  0  0  0  0
    1.0253   -3.2471    1.1123 H   0  0  0  0  0  0  0  0  0  0  0  0
    0.2858   -2.2532   -1.0192 H   0  0  0  0  0  0  0  0  0  0  0  0
    1.0070   -0.5366   -4.3163 H   0  0  0  0  0  0  0  0  0  0  0  0
   -1.1475   -1.6068   -4.5155 H   0  0  0  0  0  0  0  0  0  0  0  0
   -1.1226   -2.1567   -2.8397 H   0  0  0  0  0  0  0  0  0  0  0  0
    0.0729   -2.7797   -3.9879 H   0  0  0  0  0  0  0  0  0  0  0  0
   -1.1717   -0.4295   -1.5006 H   0  0  0  0  0  0  0  0  0  0  0  0
   -1.4158    3.1149   -2.7267 H   0  0  0  0  0  0  0  0  0  0  0  0
   -3.0399    4.6867   -1.7962 H   0  0  0  0  0  0  0  0  0  0  0  0
   -4.5894    3.9870    0.0146 H   0  0  0  0  0  0  0  0  0  0  0  0
   -2.6389    1.0356    4.2126 H   0  0  0  0  0  0  0  0  0  0  0  0
   -3.1269   -0.1255    2.9880 H   0  0  0  0  0  0  0  0  0  0  0  0
   -2.0129    1.2065    2.5596 H   0  0  0  0  0  0  0  0  0  0  0  0
   -4.7178    3.8088    2.9571 H   0  0  0  0  0  0  0  0  0  0  0  0
   -3.6381    3.2964    4.2471 H   0  0  0  0  0  0  0  0  0  0  0  0
   -2.9691    3.6140    2.6305 H   0  0  0  0  0  0  0  0  0  0  0  0
   -2.8354    0.0507   -0.0246 H   0  0  0  0  0  0  0  0  0  0  0  0
    3.0548    0.1133   -3.3523 H   0  0  0  0  0  0  0  0  0  0  0  0
    4.8176   -0.3412   -1.7285 H   0  0  0  0  0  0  0  0  0  0  0  0
    5.5732   -1.3969    0.3525 H   0  0  0  0  0  0  0  0  0  0  0  0
  1  2  1  0
  2  3  1  0
  3  4  2  0
  4  5  1  0
  5  6  2  0
  6  7  1  0
  7  8  2  0
  8  9  1  0
  9 10  1  0
  9 11  1  0
 11 12  2  0
 11 13  1  0
 13 14  1  0
 14 15  2  0
 15 16  1  0
 16 17  2  0
 17 18  1  0
 18 19  1  0
 19 20  2  0
 19 21  2  0
 19 22  1  0
 22 23  1  0
 22 24  1  0
 18 25  2  0
  8 26  1  0
 26 27  2  0
 27 28  1  0
 28 29  2  0
 29  3  1  0
 28  6  1  0
 25 14  1  0
  1 30  1  0
  1 31  1  0
  1 32  1  0
  4 33  1  0
  5 34  1  0
  7 35  1  0
  9 36  1  0
 10 37  1  0
 10 38  1  0
 10 39  1  0
 13 40  1  0
 15 41  1  0
 16 42  1  0
 17 43  1  0
 23 44  1  0
 23 45  1  0
 23 46  1  0
 24 47  1  0
 24 48  1  0
 24 49  1  0
 25 50  1  0
 26 51  1  0
 27 52  1  0
 29 53  1  0
M  END
$$$$
