
     RDKit          3D

 42 44  0  0  0  0  0  0  0  0999 V2000
    5.3822   -0.0980    0.6500 C   0  0  0  0  0  0  0  0  0  0  0  0
    3.8970    0.2344    0.7820 C   0  0  0  0  0  0  0  0  0  0  0  0
    3.6473    1.0550    2.0439 C   0  0  0  0  0  0  0  0  0  0  0  0
    2.9639   -1.3451    0.8506 S   0  0  0  0  0  0  0  0  0  0  0  0
    1.3269   -0.8360    0.3382 C   0  0  0  0  0  0  0  0  0  0  0  0
    0.3332   -1.7893    0.2902 C   0  0  0  0  0  0  0  0  0  0  0  0
   -0.9201   -1.3874   -0.1220 C   0  0  0  0  0  0  0  0  0  0  0  0
   -1.9714   -2.2720   -0.2163 N   0  0  0  0  0  0  0  0  0  0  0  0
   -3.2943   -1.7720   -0.5782 C   0  0  0  0  0  0  0  0  0  0  0  0
   -4.1663   -3.0199   -0.4885 C   0  0  0  0  0  0  0  0  0  0  0  0
   -3.5635   -3.7585    0.6958 C   0  0  0  0  0  0  0  0  0  0  0  0
   -2.0608   -3.5074    0.5547 C   0  0  0  0  0  0  0  0  0  0  0  0
   -1.1336   -0.1119   -0.4815 N   0  0  0  0  0  0  0  0  0  0  0  0
   -0.1197    0.7616   -0.3839 C   0  0  0  0  0  0  0  0  0  0  0  0
   -0.3538    2.1521   -0.7996 C   0  0  0  0  0  0  0  0  0  0  0  0
    0.6248    2.8068   -1.5828 C   0  0  0  0  0  0  0  0  0  0  0  0
    0.4623    4.1250   -2.0183 C   0  0  0  0  0  0  0  0  0  0  0  0
   -0.6884    4.8270   -1.6811 C   0  0  0  0  0  0  0  0  0  0  0  0
   -1.6677    4.2120   -0.9029 C   0  0  0  0  0  0  0  0  0  0  0  0
   -1.5042    2.8901   -0.4612 C   0  0  0  0  0  0  0  0  0  0  0  0
   -2.7621    2.2688    0.5600 Cl  0  0  0  0  0  0  0  0  0  0  0  0
    1.1245    0.4434    0.0029 N   0  0  0  0  0  0  0  0  0  0  0  0
    5.9721    0.8207    0.5577 H   0  0  0  0  0  0  0  0  0  0  0  0
    5.7597   -0.6465    1.5202 H   0  0  0  0  0  0  0  0  0  0  0  0
    5.5782   -0.6981   -0.2470 H   0  0  0  0  0  0  0  0  0  0  0  0
    3.6038    0.8068   -0.1045 H   0  0  0  0  0  0  0  0  0  0  0  0
    2.5921    1.3243    2.1535 H   0  0  0  0  0  0  0  0  0  0  0  0
    4.2185    1.9887    2.0084 H   0  0  0  0  0  0  0  0  0  0  0  0
    3.9564    0.5154    2.9457 H   0  0  0  0  0  0  0  0  0  0  0  0
    0.5400   -2.8181    0.5529 H   0  0  0  0  0  0  0  0  0  0  0  0
   -3.6392   -1.0211    0.1423 H   0  0  0  0  0  0  0  0  0  0  0  0
   -3.3190   -1.3479   -1.5872 H   0  0  0  0  0  0  0  0  0  0  0  0
   -5.2252   -2.7842   -0.3496 H   0  0  0  0  0  0  0  0  0  0  0  0
   -4.0610   -3.6217   -1.3997 H   0  0  0  0  0  0  0  0  0  0  0  0
   -3.8103   -4.8239    0.7039 H   0  0  0  0  0  0  0  0  0  0  0  0
   -3.9279   -3.3187    1.6322 H   0  0  0  0  0  0  0  0  0  0  0  0
   -1.5823   -4.3228    0.0012 H   0  0  0  0  0  0  0  0  0  0  0  0
   -1.6019   -3.4298    1.5469 H   0  0  0  0  0  0  0  0  0  0  0  0
    1.5321    2.2728   -1.8653 H   0  0  0  0  0  0  0  0  0  0  0  0
    1.2363    4.5982   -2.6184 H   0  0  0  0  0  0  0  0  0  0  0  0
   -0.8207    5.8538   -2.0154 H   0  0  0  0  0  0  0  0  0  0  0  0
   -2.5580    4.7736   -0.6295 H   0  0  0  0  0  0  0  0  0  0  0  0
  1  2  1  0
  2  3  1  0
  2  4  1  0
  4  5  1  0
  5  6  2  0
  6  7  1  0
  7  8  1  0
  8  9  1  0
  9 10  1  0
 10 11  1  0
 11 12  1  0
  7 13  2  0
 13 14  1  0
 14 15  1  0
 15 16  2  0
 16 17  1  0
 17 18  2  0
 18 19  1  0
 19 20  2  0
 20 21  1  0
 14 22  2  0
 22  5  1  0
 12  8  1  0
 20 15  1  0
  1 23  1  0
  1 24  1  0
  1 25  1  0
  2 26  1  0
  3 27  1  0
  3 28  1  0
  3 29  1  0
  6 30  1  0
  9 31  1  0
  9 32  1  0
 10 33  1  0
 10 34  1  0
 11 35  1  0
 11 36  1  0
 12 37  1  0
 12 38  1  0
 16 39  1  0
 17 40  1  0
 18 41  1  0
 19 42  1  0
M  END
$$$$
