
     RDKit          3D

 50 52  0  0  0  0  0  0  0  0999 V2000
    4.6158    3.4019   -2.3344 C   0  0  0  0  0  0  0  0  0  0  0  0
    3.7216    2.3184   -2.1114 O   0  0  0  0  0  0  0  0  0  0  0  0
    4.2346    1.2075   -1.4821 C   0  0  0  0  0  0  0  0  0  0  0  0
    5.5591    1.0691   -1.0545 C   0  0  0  0  0  0  0  0  0  0  0  0
    5.9715   -0.1073   -0.4255 C   0  0  0  0  0  0  0  0  0  0  0  0
    5.0679   -1.1486   -0.2290 C   0  0  0  0  0  0  0  0  0  0  0  0
    3.7436   -1.0208   -0.6550 C   0  0  0  0  0  0  0  0  0  0  0  0
    3.3165    0.1531   -1.2774 C   0  0  0  0  0  0  0  0  0  0  0  0
    1.9968    0.3606   -1.7382 N   0  0  0  0  0  0  0  0  0  0  0  0
    0.9053   -0.4797   -1.6232 C   0  0  0  0  0  0  0  0  0  0  0  0
    0.8904   -1.5773   -1.0703 O   0  0  0  0  0  0  0  0  0  0  0  0
   -0.3490    0.0882   -2.3010 C   0  0  0  0  0  0  0  0  0  0  0  0
   -1.5687   -0.3393   -1.6955 O   0  0  0  0  0  0  0  0  0  0  0  0
   -1.8374    0.2857   -0.5212 C   0  0  0  0  0  0  0  0  0  0  0  0
   -1.1770    1.1718   -0.0091 O   0  0  0  0  0  0  0  0  0  0  0  0
   -3.1099   -0.2438    0.0132 C   0  0  0  0  0  0  0  0  0  0  0  0
   -4.2392   -0.1007   -0.8159 C   0  0  0  0  0  0  0  0  0  0  0  0
   -5.4964   -0.4972   -0.3507 C   0  0  0  0  0  0  0  0  0  0  0  0
   -6.6741   -0.3454   -1.2142 N   0  0  0  0  0  4  0  0  0  0  0  0
   -6.5002    0.1379   -2.3423 O   0  0  0  0  0  0  0  0  0  0  0  0
   -7.7721   -0.7072   -0.7652 O   0  0  0  0  0  1  0  0  0  0  0  0
   -5.6388   -1.0268    0.9320 C   0  0  0  0  0  0  0  0  0  0  0  0
   -4.5092   -1.1643    1.7442 C   0  0  0  0  0  0  0  0  0  0  0  0
   -3.2231   -0.7905    1.3095 C   0  0  0  0  0  0  0  0  0  0  0  0
   -2.1913   -1.0188    2.2179 N   0  0  0  0  0  0  0  0  0  0  0  0
   -0.9919   -1.7538    1.7775 C   0  0  0  0  0  0  0  0  0  0  0  0
    0.1902   -0.9341    2.2877 C   0  0  0  0  0  0  0  0  0  0  0  0
   -0.3841   -0.2052    3.4894 C   0  0  0  0  0  0  0  0  0  0  0  0
   -1.7926    0.1448    3.0230 C   0  0  0  0  0  0  0  0  0  0  0  0
    4.0585    4.1922   -2.8467 H   0  0  0  0  0  0  0  0  0  0  0  0
    5.4446    3.1063   -2.9859 H   0  0  0  0  0  0  0  0  0  0  0  0
    4.9803    3.8117   -1.3871 H   0  0  0  0  0  0  0  0  0  0  0  0
    6.2961    1.8523   -1.1969 H   0  0  0  0  0  0  0  0  0  0  0  0
    7.0014   -0.2143   -0.0928 H   0  0  0  0  0  0  0  0  0  0  0  0
    5.3912   -2.0668    0.2567 H   0  0  0  0  0  0  0  0  0  0  0  0
    3.0730   -1.8587   -0.4946 H   0  0  0  0  0  0  0  0  0  0  0  0
    1.8635    1.2765   -2.1593 H   0  0  0  0  0  0  0  0  0  0  0  0
   -0.3151    1.1833   -2.3535 H   0  0  0  0  0  0  0  0  0  0  0  0
   -0.3499   -0.2818   -3.3332 H   0  0  0  0  0  0  0  0  0  0  0  0
   -4.1248    0.3304   -1.8090 H   0  0  0  0  0  0  0  0  0  0  0  0
   -6.6065   -1.3399    1.3155 H   0  0  0  0  0  0  0  0  0  0  0  0
   -4.6234   -1.5901    2.7420 H   0  0  0  0  0  0  0  0  0  0  0  0
   -0.9998   -2.7369    2.2632 H   0  0  0  0  0  0  0  0  0  0  0  0
   -0.9374   -1.9278    0.7010 H   0  0  0  0  0  0  0  0  0  0  0  0
    0.5105   -0.2121    1.5292 H   0  0  0  0  0  0  0  0  0  0  0  0
    1.0513   -1.5582    2.5424 H   0  0  0  0  0  0  0  0  0  0  0  0
    0.1980    0.6784    3.7686 H   0  0  0  0  0  0  0  0  0  0  0  0
   -0.4272   -0.8796    4.3530 H   0  0  0  0  0  0  0  0  0  0  0  0
   -1.7758    1.0679    2.4356 H   0  0  0  0  0  0  0  0  0  0  0  0
   -2.4669    0.2888    3.8735 H   0  0  0  0  0  0  0  0  0  0  0  0
  1  2  1  0
  2  3  1  0
  3  4  2  0
  4  5  1  0
  5  6  2  0
  6  7  1  0
  7  8  2  0
  8  9  1  0
  9 10  1  0
 10 11  2  0
 10 12  1  0
 12 13  1  0
 13 14  1  0
 14 15  2  0
 14 16  1  0
 16 17  2  0
 17 18  1  0
 18 19  1  0
 19 20  2  0
 19 21  1  0
 18 22  2  0
 22 23  1  0
 23 24  2  0
 24 25  1  0
 25 26  1  0
 26 27  1  0
 27 28  1  0
 28 29  1  0
  8  3  1  0
 24 16  1  0
 29 25  1  0
  1 30  1  0
  1 31  1  0
  1 32  1  0
  4 33  1  0
  5 34  1  0
  6 35  1  0
  7 36  1  0
  9 37  1  0
 12 38  1  0
 12 39  1  0
 17 40  1  0
 22 41  1  0
 23 42  1  0
 26 43  1  0
 26 44  1  0
 27 45  1  0
 27 46  1  0
 28 47  1  0
 28 48  1  0
 29 49  1  0
 29 50  1  0
M  CHG  2  19   1  21  -1
M  END
$$$$
