
     RDKit          3D

 36 37  0  0  0  0  0  0  0  0999 V2000
   -6.7238    1.0243   -1.2398 C   0  0  0  0  0  0  0  0  0  0  0  0
   -5.2378    1.2836   -1.2385 C   0  0  0  0  0  0  0  0  0  0  0  0
   -4.7387    2.1004   -2.0057 O   0  0  0  0  0  0  0  0  0  0  0  0
   -4.5804    0.4973   -0.3070 N   0  0  0  0  0  0  0  0  0  0  0  0
   -3.1998    0.4732   -0.0243 C   0  0  0  0  0  0  0  0  0  0  0  0
   -2.2581    1.2802   -0.6584 C   0  0  0  0  0  0  0  0  0  0  0  0
   -0.9021    1.1949   -0.3127 C   0  0  0  0  0  0  0  0  0  0  0  0
   -0.4646    0.3063    0.6743 C   0  0  0  0  0  0  0  0  0  0  0  0
    0.9135    0.2938    0.9658 N   0  0  0  0  0  0  0  0  0  0  0  0
    1.5743   -0.4941    1.8932 C   0  0  0  0  0  0  0  0  0  0  0  0
    1.0664   -1.3285    2.6359 O   0  0  0  0  0  0  0  0  0  0  0  0
    3.0666   -0.2028    1.9642 C   0  0  0  0  0  0  0  0  0  0  0  0
    3.8084   -0.4878    0.6785 C   0  0  0  0  0  0  0  0  0  0  0  0
    4.5989    0.5061    0.0786 C   0  0  0  0  0  0  0  0  0  0  0  0
    5.3044    0.2311   -1.0949 C   0  0  0  0  0  0  0  0  0  0  0  0
    5.2260   -1.0357   -1.6638 C   0  0  0  0  0  0  0  0  0  0  0  0
    5.9140   -1.2982   -2.7845 F   0  0  0  0  0  0  0  0  0  0  0  0
    4.4542   -2.0318   -1.0846 C   0  0  0  0  0  0  0  0  0  0  0  0
    3.7465   -1.7604    0.0881 C   0  0  0  0  0  0  0  0  0  0  0  0
   -1.4062   -0.5023    1.3062 C   0  0  0  0  0  0  0  0  0  0  0  0
   -2.7612   -0.4208    0.9586 C   0  0  0  0  0  0  0  0  0  0  0  0
   -6.9220    0.0015   -1.5759 H   0  0  0  0  0  0  0  0  0  0  0  0
   -7.1317    1.1741   -0.2366 H   0  0  0  0  0  0  0  0  0  0  0  0
   -7.2164    1.7217   -1.9230 H   0  0  0  0  0  0  0  0  0  0  0  0
   -5.1512   -0.1461    0.2264 H   0  0  0  0  0  0  0  0  0  0  0  0
   -2.5415    1.9916   -1.4306 H   0  0  0  0  0  0  0  0  0  0  0  0
   -0.2007    1.8431   -0.8311 H   0  0  0  0  0  0  0  0  0  0  0  0
    1.4902    0.9099    0.4059 H   0  0  0  0  0  0  0  0  0  0  0  0
    3.1873    0.8462    2.2646 H   0  0  0  0  0  0  0  0  0  0  0  0
    3.5072   -0.8103    2.7657 H   0  0  0  0  0  0  0  0  0  0  0  0
    4.6800    1.4979    0.5217 H   0  0  0  0  0  0  0  0  0  0  0  0
    5.9222    0.9929   -1.5638 H   0  0  0  0  0  0  0  0  0  0  0  0
    4.4117   -3.0149   -1.5447 H   0  0  0  0  0  0  0  0  0  0  0  0
    3.1508   -2.5512    0.5403 H   0  0  0  0  0  0  0  0  0  0  0  0
   -1.1245   -1.2102    2.0762 H   0  0  0  0  0  0  0  0  0  0  0  0
   -3.4620   -1.0713    1.4756 H   0  0  0  0  0  0  0  0  0  0  0  0
  1  2  1  0
  2  3  2  0
  2  4  1  0
  4  5  1  0
  5  6  2  0
  6  7  1  0
  7  8  2  0
  8  9  1  0
  9 10  1  0
 10 11  2  0
 10 12  1  0
 12 13  1  0
 13 14  2  0
 14 15  1  0
 15 16  2  0
 16 17  1  0
 16 18  1  0
 18 19  2  0
  8 20  1  0
 20 21  2  0
 21  5  1  0
 19 13  1  0
  1 22  1  0
  1 23  1  0
  1 24  1  0
  4 25  1  0
  6 26  1  0
  7 27  1  0
  9 28  1  0
 12 29  1  0
 12 30  1  0
 14 31  1  0
 15 32  1  0
 18 33  1  0
 19 34  1  0
 20 35  1  0
 21 36  1  0
M  END
$$$$
