
     RDKit          3D

 66 68  0  0  0  0  0  0  0  0999 V2000
   -4.6181   -3.4808    1.7981 C   0  0  0  0  0  0  0  0  0  0  0  0
   -3.6336   -2.8949    0.7898 C   0  0  0  0  0  0  0  0  0  0  0  0
   -2.2265   -2.9757    1.2191 N   0  0  0  0  0  0  0  0  0  0  0  0
   -1.7594   -4.3497    1.4758 C   0  0  0  0  0  0  0  0  0  0  0  0
   -1.8192   -5.3180    0.2981 C   0  0  0  0  0  0  0  0  0  0  0  0
   -1.3285   -2.2747    0.2776 C   0  0  0  0  0  0  0  0  0  0  0  0
   -1.3893   -0.7449    0.4450 C   0  0  0  0  0  0  0  0  0  0  0  0
   -0.3759   -0.0137   -0.4743 C   0  0  0  0  0  0  0  0  0  0  0  0
    1.1110   -0.2184   -0.1815 C   0  0  0  0  0  0  0  0  0  0  0  0
    2.0454    0.0469   -1.1888 C   0  0  0  0  0  0  0  0  0  0  0  0
    3.4221   -0.1084   -0.9629 C   0  0  0  0  0  0  0  0  0  0  0  0
    3.9384   -0.5471    0.2673 C   0  0  0  0  0  0  0  0  0  0  0  0
    5.3151   -0.6848    0.4916 N   0  0  0  0  0  0  0  0  0  0  0  0
    5.7676   -1.3954    1.6859 C   0  0  0  0  0  0  0  0  0  0  0  0
    6.2033   -0.7756   -0.6665 C   0  0  0  0  0  0  0  0  0  0  0  0
    2.9858   -0.7922    1.2694 C   0  0  0  0  0  0  0  0  0  0  0  0
    1.6060   -0.6367    1.0547 C   0  0  0  0  0  0  0  0  0  0  0  0
   -0.7393    1.4708   -0.6043 C   0  0  0  0  0  0  0  0  0  0  0  0
   -0.6327    2.3722    0.4663 C   0  0  0  0  0  0  0  0  0  0  0  0
   -0.2469    1.9087    1.6983 O   0  0  0  0  0  0  0  0  0  0  0  0
    0.9410    2.5542    2.1643 C   0  0  0  0  0  0  0  0  0  0  0  0
   -1.0007    3.7196    0.3245 C   0  0  0  0  0  0  0  0  0  0  0  0
   -1.4452    4.2166   -0.9038 C   0  0  0  0  0  0  0  0  0  0  0  0
   -1.8238    5.5180   -1.1222 O   0  0  0  0  0  0  0  0  0  0  0  0
   -1.6617    6.4389   -0.0500 C   0  0  0  0  0  0  0  0  0  0  0  0
   -1.5442    3.3430   -1.9980 C   0  0  0  0  0  0  0  0  0  0  0  0
   -2.0072    3.7834   -3.3135 C   0  0  0  0  0  0  0  0  0  0  0  0
   -2.1378    2.9114   -4.3169 C   0  0  0  0  0  0  0  0  0  0  0  0
   -1.8250    1.4861   -4.1570 C   0  0  0  0  0  0  0  0  0  0  0  0
   -1.9916    0.6944   -5.0780 O   0  0  0  0  0  0  0  0  0  0  0  0
   -1.3334    1.0975   -2.9201 O   0  0  0  0  0  0  0  0  0  0  0  0
   -1.1987    1.9944   -1.8280 C   0  0  0  0  0  0  0  0  0  0  0  0
   -4.4671   -3.0507    2.7940 H   0  0  0  0  0  0  0  0  0  0  0  0
   -5.6444   -3.2549    1.4898 H   0  0  0  0  0  0  0  0  0  0  0  0
   -4.5304   -4.5693    1.8711 H   0  0  0  0  0  0  0  0  0  0  0  0
   -3.7803   -3.3741   -0.1869 H   0  0  0  0  0  0  0  0  0  0  0  0
   -3.9172   -1.8444    0.6639 H   0  0  0  0  0  0  0  0  0  0  0  0
   -0.7241   -4.3069    1.8400 H   0  0  0  0  0  0  0  0  0  0  0  0
   -2.3194   -4.7757    2.3159 H   0  0  0  0  0  0  0  0  0  0  0  0
   -1.4024   -6.2854    0.5956 H   0  0  0  0  0  0  0  0  0  0  0  0
   -1.2395   -4.9575   -0.5560 H   0  0  0  0  0  0  0  0  0  0  0  0
   -2.8479   -5.4919   -0.0294 H   0  0  0  0  0  0  0  0  0  0  0  0
   -0.2967   -2.5949    0.4612 H   0  0  0  0  0  0  0  0  0  0  0  0
   -1.5587   -2.5510   -0.7597 H   0  0  0  0  0  0  0  0  0  0  0  0
   -1.2390   -0.4796    1.4979 H   0  0  0  0  0  0  0  0  0  0  0  0
   -2.3974   -0.3979    0.1856 H   0  0  0  0  0  0  0  0  0  0  0  0
   -0.5176   -0.4866   -1.4564 H   0  0  0  0  0  0  0  0  0  0  0  0
    1.7133    0.3863   -2.1688 H   0  0  0  0  0  0  0  0  0  0  0  0
    4.0805    0.1329   -1.7915 H   0  0  0  0  0  0  0  0  0  0  0  0
    6.8620   -1.4106    1.7449 H   0  0  0  0  0  0  0  0  0  0  0  0
    5.4212   -2.4347    1.6810 H   0  0  0  0  0  0  0  0  0  0  0  0
    5.4277   -0.8968    2.6002 H   0  0  0  0  0  0  0  0  0  0  0  0
    5.9216   -1.6129   -1.3156 H   0  0  0  0  0  0  0  0  0  0  0  0
    6.1989    0.1567   -1.2424 H   0  0  0  0  0  0  0  0  0  0  0  0
    7.2443   -0.9332   -0.3606 H   0  0  0  0  0  0  0  0  0  0  0  0
    3.2863   -1.1125    2.2621 H   0  0  0  0  0  0  0  0  0  0  0  0
    0.9358   -0.8372    1.8868 H   0  0  0  0  0  0  0  0  0  0  0  0
    1.3716    1.9312    2.9544 H   0  0  0  0  0  0  0  0  0  0  0  0
    1.6883    2.6619    1.3686 H   0  0  0  0  0  0  0  0  0  0  0  0
    0.7035    3.5295    2.6020 H   0  0  0  0  0  0  0  0  0  0  0  0
   -0.9553    4.3551    1.2013 H   0  0  0  0  0  0  0  0  0  0  0  0
   -2.3005    6.1748    0.7997 H   0  0  0  0  0  0  0  0  0  0  0  0
   -1.9784    7.4237   -0.4066 H   0  0  0  0  0  0  0  0  0  0  0  0
   -0.6116    6.5140    0.2532 H   0  0  0  0  0  0  0  0  0  0  0  0
   -2.2438    4.8319   -3.4584 H   0  0  0  0  0  0  0  0  0  0  0  0
   -2.4800    3.2153   -5.2971 H   0  0  0  0  0  0  0  0  0  0  0  0
  1  2  1  0
  2  3  1  0
  3  4  1  0
  4  5  1  0
  3  6  1  0
  6  7  1  0
  7  8  1  0
  8  9  1  0
  9 10  2  0
 10 11  1  0
 11 12  2  0
 12 13  1  0
 13 14  1  0
 13 15  1  0
 12 16  1  0
 16 17  2  0
  8 18  1  0
 18 19  2  0
 19 20  1  0
 20 21  1  0
 19 22  1  0
 22 23  2  0
 23 24  1  0
 24 25  1  0
 23 26  1  0
 26 27  1  0
 27 28  2  0
 28 29  1  0
 29 30  2  0
 29 31  1  0
 31 32  1  0
 17  9  1  0
 32 18  1  0
 32 26  2  0
  1 33  1  0
  1 34  1  0
  1 35  1  0
  2 36  1  0
  2 37  1  0
  4 38  1  0
  4 39  1  0
  5 40  1  0
  5 41  1  0
  5 42  1  0
  6 43  1  0
  6 44  1  0
  7 45  1  0
  7 46  1  0
  8 47  1  0
 10 48  1  0
 11 49  1  0
 14 50  1  0
 14 51  1  0
 14 52  1  0
 15 53  1  0
 15 54  1  0
 15 55  1  0
 16 56  1  0
 17 57  1  0
 21 58  1  0
 21 59  1  0
 21 60  1  0
 22 61  1  0
 25 62  1  0
 25 63  1  0
 25 64  1  0
 27 65  1  0
 28 66  1  0
M  END
$$$$
