
     RDKit          3D

 61 66  0  0  0  0  0  0  0  0999 V2000
   -2.4904    1.2919    1.5025 O   0  0  0  0  0  0  0  0  0  0  0  0
   -2.8382    0.8598    0.4002 C   0  0  0  0  0  0  0  0  0  0  0  0
   -1.8395    0.8156   -0.7397 C   0  0  0  0  0  0  0  0  0  0  0  0
   -0.6189    0.1736   -0.3063 N   0  0  0  0  0  0  0  0  0  0  0  0
   -0.5644   -1.1566   -0.1133 N   0  0  0  0  0  0  0  0  0  0  0  0
    0.7206   -1.4154    0.0771 N   0  0  0  0  0  0  0  0  0  0  0  0
    1.3966   -0.2230   -0.0615 C   0  0  0  0  0  0  0  0  0  0  0  0
    2.8443   -0.1159    0.0599 C   0  0  0  0  0  0  0  0  0  0  0  0
    3.6286   -1.2544    0.2639 C   0  0  0  0  0  0  0  0  0  0  0  0
    5.0220   -1.1489    0.3698 C   0  0  0  0  0  0  0  0  0  0  0  0
    5.6819    0.0870    0.2747 C   0  0  0  0  0  0  0  0  0  0  0  0
    7.0790    0.1311    0.3977 N   0  0  0  0  0  0  0  0  0  0  0  0
    7.7145    1.4390    0.6687 C   0  0  0  0  0  0  0  0  0  0  0  0
    9.2056    1.2374    0.9807 C   0  0  0  0  0  0  0  0  0  0  0  0
    9.8792    0.5693   -0.0990 O   0  0  0  0  0  0  0  0  0  0  0  0
    9.2883   -0.7214   -0.3212 C   0  0  0  0  0  0  0  0  0  0  0  0
    7.7936   -0.6141   -0.6686 C   0  0  0  0  0  0  0  0  0  0  0  0
    4.8812    1.2218    0.0904 C   0  0  0  0  0  0  0  0  0  0  0  0
    3.4860    1.1242   -0.0223 C   0  0  0  0  0  0  0  0  0  0  0  0
    0.5738    0.8016   -0.3534 N   0  0  0  0  0  0  0  0  0  0  0  0
   -4.1016    0.3004    0.1248 N   0  0  0  0  0  0  0  0  0  0  0  0
   -4.9930   -0.0068    1.1994 C   0  0  0  0  0  0  0  0  0  0  0  0
   -5.2533    0.9198    2.2183 C   0  0  0  0  0  0  0  0  0  0  0  0
   -6.1194    0.5995    3.2658 C   0  0  0  0  0  0  0  0  0  0  0  0
   -6.7235   -0.6540    3.3122 C   0  0  0  0  0  0  0  0  0  0  0  0
   -6.4551   -1.5929    2.3171 C   0  0  0  0  0  0  0  0  0  0  0  0
   -5.5848   -1.2781    1.2631 C   0  0  0  0  0  0  0  0  0  0  0  0
   -5.2476   -2.2986    0.2141 C   0  0  0  0  0  0  0  0  0  0  0  0
   -5.8940   -1.9320   -1.1125 C   0  0  0  0  0  0  0  0  0  0  0  0
   -5.5570   -0.5888   -1.7276 C   0  0  0  0  0  0  0  0  0  0  0  0
   -6.1305   -0.3588   -2.9997 C   0  0  0  0  0  0  0  0  0  0  0  0
   -5.9133    0.8247   -3.7008 C   0  0  0  0  0  0  0  0  0  0  0  0
   -5.1270    1.8163   -3.1392 C   0  0  0  0  0  0  0  0  0  0  0  0
   -4.5523    1.6124   -1.8846 C   0  0  0  0  0  0  0  0  0  0  0  0
   -4.7347    0.4093   -1.1638 C   0  0  0  0  0  0  0  0  0  0  0  0
   -1.6058    1.8378   -1.0528 H   0  0  0  0  0  0  0  0  0  0  0  0
   -2.1864    0.2432   -1.6033 H   0  0  0  0  0  0  0  0  0  0  0  0
    3.1689   -2.2370    0.3505 H   0  0  0  0  0  0  0  0  0  0  0  0
    5.5948   -2.0538    0.5590 H   0  0  0  0  0  0  0  0  0  0  0  0
    7.6223    2.0866   -0.2126 H   0  0  0  0  0  0  0  0  0  0  0  0
    7.2401    1.9292    1.5265 H   0  0  0  0  0  0  0  0  0  0  0  0
    9.6902    2.2087    1.1215 H   0  0  0  0  0  0  0  0  0  0  0  0
    9.3426    0.6574    1.9015 H   0  0  0  0  0  0  0  0  0  0  0  0
    9.8273   -1.1934   -1.1488 H   0  0  0  0  0  0  0  0  0  0  0  0
    9.4401   -1.3396    0.5718 H   0  0  0  0  0  0  0  0  0  0  0  0
    7.6790   -0.0748   -1.6185 H   0  0  0  0  0  0  0  0  0  0  0  0
    7.3990   -1.6276   -0.8003 H   0  0  0  0  0  0  0  0  0  0  0  0
    5.3192    2.2119    0.0120 H   0  0  0  0  0  0  0  0  0  0  0  0
    2.9058    2.0328   -0.1732 H   0  0  0  0  0  0  0  0  0  0  0  0
   -4.7963    1.9061    2.2020 H   0  0  0  0  0  0  0  0  0  0  0  0
   -6.3166    1.3294    4.0470 H   0  0  0  0  0  0  0  0  0  0  0  0
   -7.3944   -0.9039    4.1305 H   0  0  0  0  0  0  0  0  0  0  0  0
   -6.9188   -2.5751    2.3753 H   0  0  0  0  0  0  0  0  0  0  0  0
   -5.5979   -3.2913    0.5236 H   0  0  0  0  0  0  0  0  0  0  0  0
   -4.1580   -2.3849    0.1141 H   0  0  0  0  0  0  0  0  0  0  0  0
   -5.6208   -2.7118   -1.8362 H   0  0  0  0  0  0  0  0  0  0  0  0
   -6.9857   -1.9749   -0.9926 H   0  0  0  0  0  0  0  0  0  0  0  0
   -6.7637   -1.1207   -3.4531 H   0  0  0  0  0  0  0  0  0  0  0  0
   -6.3717    0.9739   -4.6747 H   0  0  0  0  0  0  0  0  0  0  0  0
   -4.9746    2.7556   -3.6651 H   0  0  0  0  0  0  0  0  0  0  0  0
   -3.9951    2.4416   -1.4538 H   0  0  0  0  0  0  0  0  0  0  0  0
  1  2  2  0
  2  3  1  0
  3  4  1  0
  4  5  1  0
  5  6  2  0
  6  7  1  0
  7  8  1  0
  8  9  2  0
  9 10  1  0
 10 11  2  0
 11 12  1  0
 12 13  1  0
 13 14  1  0
 14 15  1  0
 15 16  1  0
 16 17  1  0
 11 18  1  0
 18 19  2  0
  7 20  2  0
  2 21  1  0
 21 22  1  0
 22 23  2  0
 23 24  1  0
 24 25  2  0
 25 26  1  0
 26 27  2  0
 27 28  1  0
 28 29  1  0
 29 30  1  0
 30 31  2  0
 31 32  1  0
 32 33  2  0
 33 34  1  0
 34 35  2  0
 20  4  1  0
 35 21  1  0
 19  8  1  0
 27 22  1  0
 35 30  1  0
 17 12  1  0
  3 36  1  0
  3 37  1  0
  9 38  1  0
 10 39  1  0
 13 40  1  0
 13 41  1  0
 14 42  1  0
 14 43  1  0
 16 44  1  0
 16 45  1  0
 17 46  1  0
 17 47  1  0
 18 48  1  0
 19 49  1  0
 23 50  1  0
 24 51  1  0
 25 52  1  0
 26 53  1  0
 28 54  1  0
 28 55  1  0
 29 56  1  0
 29 57  1  0
 31 58  1  0
 32 59  1  0
 33 60  1  0
 34 61  1  0
M  END
$$$$
