
     RDKit          3D

 41 43  0  0  0  0  0  0  0  0999 V2000
    3.7836    0.7660   -0.2202 Cl  0  0  0  0  0  0  0  0  0  0  0  0
    4.3496   -0.6783   -0.9846 C   0  0  0  0  0  0  0  0  0  0  0  0
    5.5197   -1.2541   -0.4782 C   0  0  0  0  0  0  0  0  0  0  0  0
    6.0403   -2.4126   -1.0526 C   0  0  0  0  0  0  0  0  0  0  0  0
    5.3926   -2.9990   -2.1353 C   0  0  0  0  0  0  0  0  0  0  0  0
    4.2241   -2.4282   -2.6428 C   0  0  0  0  0  0  0  0  0  0  0  0
    3.6815   -1.2584   -2.0762 C   0  0  0  0  0  0  0  0  0  0  0  0
    2.4099   -0.6913   -2.6564 C   0  0  0  0  0  0  0  0  0  0  0  0
    0.9188   -1.6603   -2.2758 S   0  0  0  0  0  0  0  0  0  0  0  0
    0.8497   -1.4849   -0.5583 C   0  0  0  0  0  0  0  0  0  0  0  0
    1.4203   -2.2652    0.3314 N   0  0  0  0  0  0  0  0  0  0  0  0
    1.1390   -1.7459    1.5805 N   0  0  0  0  0  0  0  0  0  0  0  0
    0.3985   -0.6725    1.4076 C   0  0  0  0  0  0  0  0  0  0  0  0
    0.1611   -0.4828    0.0768 N   0  0  0  0  0  0  0  0  0  0  0  0
   -0.6132    0.5829   -0.4998 N   0  0  0  0  0  0  0  0  0  0  0  0
   -2.0305    0.2188   -0.5125 C   0  0  0  0  0  0  0  0  0  0  0  0
   -2.8361    1.3729   -1.0311 C   0  0  0  0  0  0  0  0  0  0  0  0
   -3.6851    2.1482   -0.3358 C   0  0  0  0  0  0  0  0  0  0  0  0
   -3.9343    2.0413    1.1031 C   0  0  0  0  0  0  0  0  0  0  0  0
   -5.1992    1.6603    1.5616 C   0  0  0  0  0  0  0  0  0  0  0  0
   -5.4489    1.5591    2.9319 C   0  0  0  0  0  0  0  0  0  0  0  0
   -4.4380    1.8438    3.8493 C   0  0  0  0  0  0  0  0  0  0  0  0
   -3.1772    2.2327    3.3991 C   0  0  0  0  0  0  0  0  0  0  0  0
   -2.9262    2.3341    2.0296 C   0  0  0  0  0  0  0  0  0  0  0  0
    6.0279   -0.8063    0.3723 H   0  0  0  0  0  0  0  0  0  0  0  0
    6.9450   -2.8604   -0.6498 H   0  0  0  0  0  0  0  0  0  0  0  0
    5.7907   -3.9079   -2.5799 H   0  0  0  0  0  0  0  0  0  0  0  0
    3.7274   -2.9118   -3.4825 H   0  0  0  0  0  0  0  0  0  0  0  0
    2.5126   -0.6660   -3.7483 H   0  0  0  0  0  0  0  0  0  0  0  0
    2.2412    0.3494   -2.3657 H   0  0  0  0  0  0  0  0  0  0  0  0
    0.0123   -0.0225    2.1780 H   0  0  0  0  0  0  0  0  0  0  0  0
   -0.3170    0.7572   -1.4580 H   0  0  0  0  0  0  0  0  0  0  0  0
   -2.2003   -0.6431   -1.1698 H   0  0  0  0  0  0  0  0  0  0  0  0
   -2.3646   -0.0788    0.4876 H   0  0  0  0  0  0  0  0  0  0  0  0
   -2.7395    1.5708   -2.0970 H   0  0  0  0  0  0  0  0  0  0  0  0
   -4.2424    2.9316   -0.8447 H   0  0  0  0  0  0  0  0  0  0  0  0
   -5.9956    1.4340    0.8567 H   0  0  0  0  0  0  0  0  0  0  0  0
   -6.4324    1.2582    3.2834 H   0  0  0  0  0  0  0  0  0  0  0  0
   -4.6339    1.7651    4.9157 H   0  0  0  0  0  0  0  0  0  0  0  0
   -2.3905    2.4600    4.1137 H   0  0  0  0  0  0  0  0  0  0  0  0
   -1.9410    2.6440    1.6882 H   0  0  0  0  0  0  0  0  0  0  0  0
  1  2  1  0
  2  3  2  0
  3  4  1  0
  4  5  2  0
  5  6  1  0
  6  7  2  0
  7  8  1  0
  8  9  1  0
  9 10  1  0
 10 11  2  0
 11 12  1  0
 12 13  2  0
 13 14  1  0
 14 15  1  0
 15 16  1  0
 16 17  1  0
 17 18  2  3
 18 19  1  0
 19 20  2  0
 20 21  1  0
 21 22  2  0
 22 23  1  0
 23 24  2  0
  7  2  1  0
 14 10  1  0
 24 19  1  0
  3 25  1  0
  4 26  1  0
  5 27  1  0
  6 28  1  0
  8 29  1  0
  8 30  1  0
 13 31  1  0
 15 32  1  0
 16 33  1  0
 16 34  1  0
 17 35  1  0
 18 36  1  0
 20 37  1  0
 21 38  1  0
 22 39  1  0
 23 40  1  0
 24 41  1  0
M  END
$$$$
