
     RDKit          3D

 53 56  0  0  0  0  0  0  0  0999 V2000
    5.2510    3.6924    2.0808 C   0  0  0  0  0  0  0  0  0  0  0  0
    4.3166    2.7686    2.6246 O   0  0  0  0  0  0  0  0  0  0  0  0
    4.1188    1.6080    1.9284 C   0  0  0  0  0  0  0  0  0  0  0  0
    3.2400    0.7067    2.5329 C   0  0  0  0  0  0  0  0  0  0  0  0
    2.9437   -0.5160    1.9265 C   0  0  0  0  0  0  0  0  0  0  0  0
    3.5227   -0.8556    0.6973 C   0  0  0  0  0  0  0  0  0  0  0  0
    3.1641   -2.1544    0.0198 C   0  0  0  0  0  0  0  0  0  0  0  0
    1.8334   -2.0745   -0.5404 N   0  0  0  0  0  0  0  0  0  0  0  0
    0.7779   -2.8098   -0.0392 C   0  0  0  0  0  0  0  0  0  0  0  0
    0.9380   -3.7018    0.7963 O   0  0  0  0  0  0  0  0  0  0  0  0
   -0.6045   -2.4971   -0.6057 C   0  0  0  0  0  0  0  0  0  0  0  0
   -0.6738   -2.9404   -2.0044 C   0  0  0  0  0  0  0  0  0  0  0  0
   -0.7525   -3.2788   -3.1138 N   0  0  0  0  0  0  0  0  0  0  0  0
   -1.0105   -1.0422   -0.4684 C   0  0  0  0  0  0  0  0  0  0  0  0
   -0.0315   -0.0903   -0.4725 N   0  0  0  0  0  0  0  0  0  0  0  0
   -0.4155    1.1909   -0.3359 C   0  0  0  0  0  0  0  0  0  0  0  0
    0.5436    2.1945   -0.2844 C   0  0  0  0  0  0  0  0  0  0  0  0
    0.1832    3.5347   -0.1417 C   0  0  0  0  0  0  0  0  0  0  0  0
   -1.1596    3.8759   -0.0518 C   0  0  0  0  0  0  0  0  0  0  0  0
   -2.1296    2.8732   -0.1019 C   0  0  0  0  0  0  0  0  0  0  0  0
   -1.7809    1.5347   -0.2388 C   0  0  0  0  0  0  0  0  0  0  0  0
   -2.7450    0.5951   -0.2763 N   0  0  0  0  0  0  0  0  0  0  0  0
   -2.3687   -0.6989   -0.3858 C   0  0  0  0  0  0  0  0  0  0  0  0
   -3.3533   -1.7019   -0.4691 N   0  0  0  0  0  0  0  0  0  0  0  0
   -4.3834   -1.5767    0.5846 C   0  0  0  0  0  0  0  0  0  0  0  0
   -5.6867   -1.9503   -0.1103 C   0  0  0  0  0  0  0  0  0  0  0  0
   -5.4941   -1.3450   -1.4859 C   0  0  0  0  0  0  0  0  0  0  0  0
   -4.0330   -1.6609   -1.7862 C   0  0  0  0  0  0  0  0  0  0  0  0
    4.4013    0.0524    0.0919 C   0  0  0  0  0  0  0  0  0  0  0  0
    4.7002    1.2750    0.7051 C   0  0  0  0  0  0  0  0  0  0  0  0
    5.3106    4.5470    2.7613 H   0  0  0  0  0  0  0  0  0  0  0  0
    6.2502    3.2500    2.0132 H   0  0  0  0  0  0  0  0  0  0  0  0
    4.9158    4.0655    1.1074 H   0  0  0  0  0  0  0  0  0  0  0  0
    2.7801    0.9585    3.4856 H   0  0  0  0  0  0  0  0  0  0  0  0
    2.2494   -1.1993    2.4124 H   0  0  0  0  0  0  0  0  0  0  0  0
    3.2565   -2.9867    0.7256 H   0  0  0  0  0  0  0  0  0  0  0  0
    3.8480   -2.3523   -0.8127 H   0  0  0  0  0  0  0  0  0  0  0  0
    1.5826   -1.1790   -0.9580 H   0  0  0  0  0  0  0  0  0  0  0  0
   -1.2934   -3.1064   -0.0049 H   0  0  0  0  0  0  0  0  0  0  0  0
    1.5955    1.9265   -0.3459 H   0  0  0  0  0  0  0  0  0  0  0  0
    0.9510    4.3029   -0.0966 H   0  0  0  0  0  0  0  0  0  0  0  0
   -1.4559    4.9159    0.0606 H   0  0  0  0  0  0  0  0  0  0  0  0
   -3.1812    3.1385   -0.0281 H   0  0  0  0  0  0  0  0  0  0  0  0
   -4.4707   -0.5644    0.9978 H   0  0  0  0  0  0  0  0  0  0  0  0
   -4.1661   -2.2619    1.4107 H   0  0  0  0  0  0  0  0  0  0  0  0
   -6.5664   -1.5601    0.4084 H   0  0  0  0  0  0  0  0  0  0  0  0
   -5.7814   -3.0402   -0.1837 H   0  0  0  0  0  0  0  0  0  0  0  0
   -6.1744   -1.7614   -2.2335 H   0  0  0  0  0  0  0  0  0  0  0  0
   -5.6468   -0.2601   -1.4466 H   0  0  0  0  0  0  0  0  0  0  0  0
   -3.9545   -2.6580   -2.2350 H   0  0  0  0  0  0  0  0  0  0  0  0
   -3.6068   -0.9437   -2.4983 H   0  0  0  0  0  0  0  0  0  0  0  0
    4.8590   -0.1831   -0.8669 H   0  0  0  0  0  0  0  0  0  0  0  0
    5.3868    1.9441    0.1975 H   0  0  0  0  0  0  0  0  0  0  0  0
  1  2  1  0
  2  3  1  0
  3  4  2  0
  4  5  1  0
  5  6  2  0
  6  7  1  0
  7  8  1  0
  8  9  1  0
  9 10  2  0
  9 11  1  0
 11 12  1  0
 12 13  3  0
 11 14  1  0
 14 15  2  0
 15 16  1  0
 16 17  2  0
 17 18  1  0
 18 19  2  0
 19 20  1  0
 20 21  2  0
 21 22  1  0
 22 23  2  0
 23 24  1  0
 24 25  1  0
 25 26  1  0
 26 27  1  0
 27 28  1  0
  6 29  1  0
 29 30  2  0
 30  3  1  0
 23 14  1  0
 28 24  1  0
 21 16  1  0
  1 31  1  0
  1 32  1  0
  1 33  1  0
  4 34  1  0
  5 35  1  0
  7 36  1  0
  7 37  1  0
  8 38  1  0
 11 39  1  0
 17 40  1  0
 18 41  1  0
 19 42  1  0
 20 43  1  0
 25 44  1  0
 25 45  1  0
 26 46  1  0
 26 47  1  0
 27 48  1  0
 27 49  1  0
 28 50  1  0
 28 51  1  0
 29 52  1  0
 30 53  1  0
M  END
$$$$
