
     RDKit          3D

 53 56  0  0  0  0  0  0  0  0999 V2000
   -0.2343   -0.5046   -3.3577 C   0  0  0  0  0  0  0  0  0  0  0  0
   -0.5335    0.6157   -2.3946 C   0  0  0  0  0  0  0  0  0  0  0  0
    0.1851    1.6131   -2.3330 O   0  0  0  0  0  0  0  0  0  0  0  0
   -1.7198    0.4597   -1.5145 C   0  0  0  0  0  0  0  0  0  0  0  0
   -1.5400    0.2142   -0.1966 C   0  0  0  0  0  0  0  0  0  0  0  0
   -0.3198    0.0986    0.4618 N   0  0  0  0  0  0  0  0  0  0  0  0
    0.5808   -1.0563    0.2477 C   0  0  0  0  0  0  0  0  0  0  0  0
    2.0300   -0.6043   -0.0294 C   0  0  0  0  0  0  0  0  0  0  0  0
    2.6374    0.1875    1.0680 N   0  0  0  0  0  0  0  0  0  0  0  0
    3.6917    1.0790    0.5510 C   0  0  0  0  0  0  0  0  0  0  0  0
    4.8580    0.3356   -0.0663 C   0  0  0  0  0  0  0  0  0  0  0  0
    5.6400   -0.5325    0.7102 C   0  0  0  0  0  0  0  0  0  0  0  0
    6.7173   -1.2150    0.1436 C   0  0  0  0  0  0  0  0  0  0  0  0
    7.0250   -1.0362   -1.2038 C   0  0  0  0  0  0  0  0  0  0  0  0
    6.2556   -0.1762   -1.9858 C   0  0  0  0  0  0  0  0  0  0  0  0
    5.1773    0.5072   -1.4210 C   0  0  0  0  0  0  0  0  0  0  0  0
    1.6072    0.9540    1.8033 C   0  0  0  0  0  0  0  0  0  0  0  0
    0.3485    1.3137    0.9860 C   0  0  0  0  0  0  0  0  0  0  0  0
   -2.6572    0.0587    0.5803 N   0  0  0  0  0  0  0  0  0  0  0  0
   -3.9310    0.1153    0.0913 C   0  0  0  0  0  0  0  0  0  0  0  0
   -5.0942   -0.0993    1.0090 C   0  0  0  0  0  0  0  0  0  0  0  0
   -6.3504    0.4101    0.6545 C   0  0  0  0  0  0  0  0  0  0  0  0
   -7.4478    0.2281    1.4980 C   0  0  0  0  0  0  0  0  0  0  0  0
   -7.2981   -0.4683    2.6960 C   0  0  0  0  0  0  0  0  0  0  0  0
   -6.0536   -0.9885    3.0500 C   0  0  0  0  0  0  0  0  0  0  0  0
   -4.9520   -0.8078    2.2092 C   0  0  0  0  0  0  0  0  0  0  0  0
   -4.1719    0.3549   -1.1631 N   0  0  0  0  0  0  0  0  0  0  0  0
   -3.1266    0.5750   -2.0438 C   0  0  0  0  0  0  0  0  0  0  0  0
   -3.4833    0.9636   -3.6562 S   0  0  0  0  0  0  0  0  0  0  0  0
   -0.3244   -0.1381   -4.3832 H   0  0  0  0  0  0  0  0  0  0  0  0
   -0.9219   -1.3432   -3.2163 H   0  0  0  0  0  0  0  0  0  0  0  0
    0.7826   -0.8652   -3.1804 H   0  0  0  0  0  0  0  0  0  0  0  0
    0.2287   -1.6756   -0.5856 H   0  0  0  0  0  0  0  0  0  0  0  0
    0.5525   -1.6885    1.1436 H   0  0  0  0  0  0  0  0  0  0  0  0
    2.0236   -0.0258   -0.9621 H   0  0  0  0  0  0  0  0  0  0  0  0
    2.6443   -1.4951   -0.2044 H   0  0  0  0  0  0  0  0  0  0  0  0
    3.2739    1.7980   -0.1664 H   0  0  0  0  0  0  0  0  0  0  0  0
    4.1067    1.6760    1.3744 H   0  0  0  0  0  0  0  0  0  0  0  0
    5.4015   -0.6824    1.7611 H   0  0  0  0  0  0  0  0  0  0  0  0
    7.3149   -1.8866    0.7540 H   0  0  0  0  0  0  0  0  0  0  0  0
    7.8643   -1.5673   -1.6447 H   0  0  0  0  0  0  0  0  0  0  0  0
    6.4956   -0.0368   -3.0367 H   0  0  0  0  0  0  0  0  0  0  0  0
    4.5858    1.1734   -2.0455 H   0  0  0  0  0  0  0  0  0  0  0  0
    2.0279    1.8631    2.2504 H   0  0  0  0  0  0  0  0  0  0  0  0
    1.2940    0.3314    2.6519 H   0  0  0  0  0  0  0  0  0  0  0  0
   -0.3505    1.8554    1.6345 H   0  0  0  0  0  0  0  0  0  0  0  0
    0.6220    1.9836    0.1638 H   0  0  0  0  0  0  0  0  0  0  0  0
   -2.4599   -0.0483    1.5650 H   0  0  0  0  0  0  0  0  0  0  0  0
   -6.4804    0.9543   -0.2789 H   0  0  0  0  0  0  0  0  0  0  0  0
   -8.4189    0.6282    1.2168 H   0  0  0  0  0  0  0  0  0  0  0  0
   -8.1545   -0.6122    3.3503 H   0  0  0  0  0  0  0  0  0  0  0  0
   -5.9442   -1.5431    3.9789 H   0  0  0  0  0  0  0  0  0  0  0  0
   -4.0041   -1.2505    2.4972 H   0  0  0  0  0  0  0  0  0  0  0  0
  1  2  1  0
  2  3  2  0
  2  4  1  0
  4  5  2  0
  5  6  1  0
  6  7  1  0
  7  8  1  0
  8  9  1  0
  9 10  1  0
 10 11  1  0
 11 12  2  0
 12 13  1  0
 13 14  2  0
 14 15  1  0
 15 16  2  0
  9 17  1  0
 17 18  1  0
  5 19  1  0
 19 20  1  0
 20 21  1  0
 21 22  2  0
 22 23  1  0
 23 24  2  0
 24 25  1  0
 25 26  2  0
 20 27  2  0
 27 28  1  0
 28 29  2  0
 28  4  1  0
 18  6  1  0
 26 21  1  0
 16 11  1  0
  1 30  1  0
  1 31  1  0
  1 32  1  0
  7 33  1  0
  7 34  1  0
  8 35  1  0
  8 36  1  0
 10 37  1  0
 10 38  1  0
 12 39  1  0
 13 40  1  0
 14 41  1  0
 15 42  1  0
 16 43  1  0
 17 44  1  0
 17 45  1  0
 18 46  1  0
 18 47  1  0
 19 48  1  0
 22 49  1  0
 23 50  1  0
 24 51  1  0
 25 52  1  0
 26 53  1  0
M  END
$$$$
