
     RDKit          3D

 42 45  0  0  0  0  0  0  0  0999 V2000
    8.1207    0.9987   -0.0114 O   0  0  0  0  0  0  0  0  0  0  0  0
    7.2555    1.5252   -0.6886 C   0  0  0  0  0  0  0  0  0  0  0  0
    7.5685    2.4921   -1.5723 O   0  0  0  0  0  0  0  0  0  0  0  0
    5.7771    1.2631   -0.6407 C   0  0  0  0  0  0  0  0  0  0  0  0
    5.4775   -0.0195    0.1439 C   0  0  0  0  0  0  0  0  0  0  0  0
    5.5753   -1.2775   -0.7226 C   0  0  0  0  0  0  0  0  0  0  0  0
    4.9377   -2.3088   -0.5654 O   0  0  0  0  0  0  0  0  0  0  0  0
    6.5071   -1.2091   -1.6924 O   0  0  0  0  0  0  0  0  0  0  0  0
    4.1203   -0.0268    0.7488 N   0  0  0  0  0  0  0  0  0  0  0  0
    3.0203    0.2374   -0.0501 C   0  0  0  0  0  0  0  0  0  0  0  0
    3.0591    0.5416   -1.2346 O   0  0  0  0  0  0  0  0  0  0  0  0
    1.7537    0.0857    0.7178 C   0  0  0  0  0  0  0  0  0  0  0  0
    0.5775    0.3135    0.1199 C   0  0  0  0  0  0  0  0  0  0  0  0
   -0.7216    0.2047    0.6921 C   0  0  0  0  0  0  0  0  0  0  0  0
   -1.1886    0.2312    1.9996 C   0  0  0  0  0  0  0  0  0  0  0  0
   -2.5969    0.0922    1.9662 C   0  0  0  0  0  0  0  0  0  0  0  0
   -2.9640   -0.0022    0.6391 C   0  0  0  0  0  0  0  0  0  0  0  0
   -4.2859   -0.1513    0.0941 C   0  0  0  0  0  0  0  0  0  0  0  0
   -5.3566   -0.2125    0.8577 N   0  0  0  0  0  0  0  0  0  0  0  0
   -6.4868   -0.3565    0.0704 C   0  0  0  0  0  0  0  0  0  0  0  0
   -7.8127   -0.4569    0.5389 C   0  0  0  0  0  0  0  0  0  0  0  0
   -8.8642   -0.5996   -0.3724 C   0  0  0  0  0  0  0  0  0  0  0  0
   -8.6105   -0.6432   -1.7397 C   0  0  0  0  0  0  0  0  0  0  0  0
   -7.3046   -0.5458   -2.2302 C   0  0  0  0  0  0  0  0  0  0  0  0
   -6.2563   -0.4027   -1.3059 C   0  0  0  0  0  0  0  0  0  0  0  0
   -4.5656   -0.2596   -1.5938 S   0  0  0  0  0  0  0  0  0  0  0  0
   -1.8282    0.0771   -0.1214 O   0  0  0  0  0  0  0  0  0  0  0  0
    2.1080   -0.4263    2.3124 S   0  0  0  0  0  0  0  0  0  0  0  0
    3.8432   -0.4627    2.0289 C   0  0  0  0  0  0  0  0  0  0  0  0
    4.9100   -0.9375    3.2198 S   0  0  0  0  0  0  0  0  0  0  0  0
    8.5438    2.5758   -1.5131 H   0  0  0  0  0  0  0  0  0  0  0  0
    5.3161    2.1283   -0.1501 H   0  0  0  0  0  0  0  0  0  0  0  0
    5.4102    1.2001   -1.6709 H   0  0  0  0  0  0  0  0  0  0  0  0
    6.2160   -0.1495    0.9389 H   0  0  0  0  0  0  0  0  0  0  0  0
    6.4733   -2.0892   -2.1262 H   0  0  0  0  0  0  0  0  0  0  0  0
    0.5800    0.5866   -0.9350 H   0  0  0  0  0  0  0  0  0  0  0  0
   -0.5941    0.3487    2.8941 H   0  0  0  0  0  0  0  0  0  0  0  0
   -3.2766    0.0695    2.8077 H   0  0  0  0  0  0  0  0  0  0  0  0
   -8.0065   -0.4226    1.6064 H   0  0  0  0  0  0  0  0  0  0  0  0
   -9.8855   -0.6769   -0.0064 H   0  0  0  0  0  0  0  0  0  0  0  0
   -9.4377   -0.7548   -2.4379 H   0  0  0  0  0  0  0  0  0  0  0  0
   -7.1078   -0.5801   -3.2974 H   0  0  0  0  0  0  0  0  0  0  0  0
  1  2  2  0
  2  3  1  0
  2  4  1  0
  4  5  1  0
  5  6  1  0
  6  7  2  0
  6  8  1  0
  5  9  1  0
  9 10  1  0
 10 11  2  0
 10 12  1  0
 12 13  2  3
 13 14  1  0
 14 15  2  0
 15 16  1  0
 16 17  2  0
 17 18  1  0
 18 19  2  0
 19 20  1  0
 20 21  2  0
 21 22  1  0
 22 23  2  0
 23 24  1  0
 24 25  2  0
 25 26  1  0
 17 27  1  0
 12 28  1  0
 28 29  1  0
 29 30  2  0
 29  9  1  0
 27 14  1  0
 26 18  1  0
 25 20  1  0
  3 31  1  0
  4 32  1  0
  4 33  1  0
  5 34  1  0
  8 35  1  0
 13 36  1  0
 15 37  1  0
 16 38  1  0
 21 39  1  0
 22 40  1  0
 23 41  1  0
 24 42  1  0
M  END
$$$$
