
     RDKit          3D

 35 36  0  0  0  0  0  0  0  0999 V2000
   -5.9520    0.0641   -0.1355 C   0  0  0  0  0  0  0  0  0  0  0  0
   -4.4580   -0.0552   -0.0832 C   0  0  0  0  0  0  0  0  0  0  0  0
   -3.6453    0.9294   -0.6536 C   0  0  0  0  0  0  0  0  0  0  0  0
   -2.2492    0.8396   -0.5790 C   0  0  0  0  0  0  0  0  0  0  0  0
   -1.6421   -0.2413    0.0686 C   0  0  0  0  0  0  0  0  0  0  0  0
   -0.2219   -0.3749    0.1785 N   0  0  0  0  0  0  0  0  0  0  0  0
    0.2779   -1.2131    1.1177 N   0  0  0  0  0  0  0  0  0  0  0  0
    1.5947   -0.9888    1.1474 C   0  0  0  0  0  0  0  0  0  0  0  0
    2.3934   -1.7249    2.1588 C   0  0  0  0  0  0  0  0  0  0  0  0
    1.9843   -0.0783    0.1339 C   0  0  0  0  0  0  0  0  0  0  0  0
    3.2043    0.4506   -0.2606 N   0  0  0  0  0  0  0  0  0  0  0  0
    4.4362    0.2937    0.3354 C   0  0  0  0  0  0  0  0  0  0  0  0
    4.6699   -0.3619    1.3476 O   0  0  0  0  0  0  0  0  0  0  0  0
    5.5892    0.9846   -0.3803 C   0  0  0  0  0  0  0  0  0  0  0  0
    5.0504    2.1517   -1.6134 Cl  0  0  0  0  0  0  0  0  0  0  0  0
    0.8079    0.2273   -0.5391 C   0  0  0  0  0  0  0  0  0  0  0  0
    0.6246    0.9900   -1.8041 C   0  0  0  0  0  0  0  0  0  0  0  0
   -2.4624   -1.2071    0.6761 C   0  0  0  0  0  0  0  0  0  0  0  0
   -3.8554   -1.1155    0.5981 C   0  0  0  0  0  0  0  0  0  0  0  0
   -6.3136    0.6236    0.7328 H   0  0  0  0  0  0  0  0  0  0  0  0
   -6.2708    0.5803   -1.0471 H   0  0  0  0  0  0  0  0  0  0  0  0
   -6.4226   -0.9247   -0.1411 H   0  0  0  0  0  0  0  0  0  0  0  0
   -4.0951    1.7857   -1.1521 H   0  0  0  0  0  0  0  0  0  0  0  0
   -1.6802    1.6613   -0.9955 H   0  0  0  0  0  0  0  0  0  0  0  0
    2.8355   -1.0329    2.8815 H   0  0  0  0  0  0  0  0  0  0  0  0
    1.7693   -2.4252    2.7259 H   0  0  0  0  0  0  0  0  0  0  0  0
    3.1790   -2.3164    1.6796 H   0  0  0  0  0  0  0  0  0  0  0  0
    3.1798    1.0854   -1.0516 H   0  0  0  0  0  0  0  0  0  0  0  0
    6.2061    0.2286   -0.8738 H   0  0  0  0  0  0  0  0  0  0  0  0
    6.1862    1.5327    0.3535 H   0  0  0  0  0  0  0  0  0  0  0  0
   -0.1930    0.5873   -2.4093 H   0  0  0  0  0  0  0  0  0  0  0  0
    0.4450    2.0488   -1.5955 H   0  0  0  0  0  0  0  0  0  0  0  0
    1.5192    0.9264   -2.4330 H   0  0  0  0  0  0  0  0  0  0  0  0
   -2.0284   -2.0506    1.2115 H   0  0  0  0  0  0  0  0  0  0  0  0
   -4.4630   -1.8802    1.0770 H   0  0  0  0  0  0  0  0  0  0  0  0
  1  2  1  0
  2  3  2  0
  3  4  1  0
  4  5  2  0
  5  6  1  0
  6  7  1  0
  7  8  2  0
  8  9  1  0
  8 10  1  0
 10 11  1  0
 11 12  1  0
 12 13  2  0
 12 14  1  0
 14 15  1  0
 10 16  2  0
 16 17  1  0
  5 18  1  0
 18 19  2  0
 19  2  1  0
 16  6  1  0
  1 20  1  0
  1 21  1  0
  1 22  1  0
  3 23  1  0
  4 24  1  0
  9 25  1  0
  9 26  1  0
  9 27  1  0
 11 28  1  0
 14 29  1  0
 14 30  1  0
 17 31  1  0
 17 32  1  0
 17 33  1  0
 18 34  1  0
 19 35  1  0
M  END
$$$$
