
     RDKit          3D

 41 44  0  0  0  0  0  0  0  0999 V2000
    3.0738   -3.6499    3.1619 C   0  0  0  0  0  0  0  0  0  0  0  0
    3.5768   -3.7919    1.8403 O   0  0  0  0  0  0  0  0  0  0  0  0
    2.9826   -3.0461    0.8583 C   0  0  0  0  0  0  0  0  0  0  0  0
    3.5029   -3.2574   -0.4160 C   0  0  0  0  0  0  0  0  0  0  0  0
    3.0154   -2.5640   -1.5247 C   0  0  0  0  0  0  0  0  0  0  0  0
    1.9776   -1.6520   -1.3102 C   0  0  0  0  0  0  0  0  0  0  0  0
    1.3368   -0.8378   -2.2042 N   0  0  0  0  0  0  0  0  0  0  0  0
    0.3809   -0.0576   -1.5877 C   0  0  0  0  0  0  0  0  0  0  0  0
   -0.4534    0.9295   -2.1476 C   0  0  0  0  0  0  0  0  0  0  0  0
   -0.3922    1.2721   -3.6170 C   0  0  0  0  0  0  0  0  0  0  0  0
   -1.3324    1.6091   -1.2617 C   0  0  0  0  0  0  0  0  0  0  0  0
   -2.1632    2.6490   -1.7169 C   0  0  0  0  0  0  0  0  0  0  0  0
   -3.0106    3.3209   -0.8500 C   0  0  0  0  0  0  0  0  0  0  0  0
   -3.0495    2.9852    0.4495 N   0  0  0  0  0  4  0  0  0  0  0  0
   -3.9371    3.7097    1.3753 C   0  0  0  0  0  0  0  0  0  0  0  0
   -2.2688    1.9926    0.9275 C   0  0  0  0  0  0  0  0  0  0  0  0
   -1.3933    1.2562    0.1080 C   0  0  0  0  0  0  0  0  0  0  0  0
   -0.5833    0.1911    0.6228 C   0  0  0  0  0  0  0  0  0  0  0  0
   -0.7151   -0.2471    2.0640 C   0  0  0  0  0  0  0  0  0  0  0  0
    0.3650   -0.4262   -0.2429 C   0  0  0  0  0  0  0  0  0  0  0  0
    1.4088   -1.4155   -0.0626 C   0  0  0  0  0  0  0  0  0  0  0  0
    1.9422   -2.1256    1.0436 C   0  0  0  0  0  0  0  0  0  0  0  0
    3.2221   -2.6301    3.5320 H   0  0  0  0  0  0  0  0  0  0  0  0
    3.6406   -4.3250    3.8103 H   0  0  0  0  0  0  0  0  0  0  0  0
    2.0198   -3.9415    3.2172 H   0  0  0  0  0  0  0  0  0  0  0  0
    4.3118   -3.9734   -0.5503 H   0  0  0  0  0  0  0  0  0  0  0  0
    3.4378   -2.7318   -2.5105 H   0  0  0  0  0  0  0  0  0  0  0  0
    1.5659   -0.8032   -3.1866 H   0  0  0  0  0  0  0  0  0  0  0  0
   -0.0538    2.3048   -3.7504 H   0  0  0  0  0  0  0  0  0  0  0  0
   -1.3776    1.1458   -4.0775 H   0  0  0  0  0  0  0  0  0  0  0  0
    0.3002    0.6290   -4.1667 H   0  0  0  0  0  0  0  0  0  0  0  0
   -2.1598    2.9604   -2.7596 H   0  0  0  0  0  0  0  0  0  0  0  0
   -3.6518    4.1288   -1.1907 H   0  0  0  0  0  0  0  0  0  0  0  0
   -3.3065    4.3169    2.0297 H   0  0  0  0  0  0  0  0  0  0  0  0
   -4.6248    4.3457    0.8128 H   0  0  0  0  0  0  0  0  0  0  0  0
   -4.5057    2.9732    1.9495 H   0  0  0  0  0  0  0  0  0  0  0  0
   -2.3575    1.8150    1.9937 H   0  0  0  0  0  0  0  0  0  0  0  0
   -1.7466   -0.1736    2.4207 H   0  0  0  0  0  0  0  0  0  0  0  0
   -0.4643   -1.3031    2.1809 H   0  0  0  0  0  0  0  0  0  0  0  0
   -0.0640    0.3561    2.7031 H   0  0  0  0  0  0  0  0  0  0  0  0
    1.5502   -1.9382    2.0328 H   0  0  0  0  0  0  0  0  0  0  0  0
  1  2  1  0
  2  3  1  0
  3  4  2  0
  4  5  1  0
  5  6  2  0
  6  7  1  0
  7  8  1  0
  8  9  2  0
  9 10  1  0
  9 11  1  0
 11 12  2  0
 12 13  1  0
 13 14  2  0
 14 15  1  0
 14 16  1  0
 16 17  2  0
 17 18  1  0
 18 19  1  0
 18 20  2  0
 20 21  1  0
 21 22  2  0
 22  3  1  0
 21  6  1  0
 20  8  1  0
 17 11  1  0
  1 23  1  0
  1 24  1  0
  1 25  1  0
  4 26  1  0
  5 27  1  0
  7 28  1  0
 10 29  1  0
 10 30  1  0
 10 31  1  0
 12 32  1  0
 13 33  1  0
 15 34  1  0
 15 35  1  0
 15 36  1  0
 16 37  1  0
 19 38  1  0
 19 39  1  0
 19 40  1  0
 22 41  1  0
M  CHG  1  14   1
M  END
$$$$
