
     RDKit          3D

 45 47  0  0  0  0  0  0  0  0999 V2000
   -5.3795   -1.8608    0.0337 C   0  0  0  0  0  0  0  0  0  0  0  0
   -5.0043   -0.8617    1.1201 C   0  0  0  0  0  0  0  0  0  0  0  0
   -4.3727    0.3403    0.5580 N   0  0  0  0  0  0  0  0  0  0  0  0
   -5.1626    1.5776    0.6038 C   0  0  0  0  0  0  0  0  0  0  0  0
   -6.0565    1.7085   -0.6199 C   0  0  0  0  0  0  0  0  0  0  0  0
   -3.0713    0.3286    0.0643 C   0  0  0  0  0  0  0  0  0  0  0  0
   -2.1867   -0.7374    0.2995 C   0  0  0  0  0  0  0  0  0  0  0  0
   -0.8723   -0.7554   -0.1962 C   0  0  0  0  0  0  0  0  0  0  0  0
   -0.3817    0.3108   -0.9434 C   0  0  0  0  0  0  0  0  0  0  0  0
    0.9632    0.3178   -1.5253 C   0  0  0  0  0  0  0  0  0  0  0  0
    2.1246    0.0991   -0.8943 C   0  0  0  0  0  0  0  0  0  0  0  0
    2.4186   -0.1970    0.5347 C   0  0  0  0  0  0  0  0  0  0  0  0
    1.6623   -0.3329    1.4713 O   0  0  0  0  0  0  0  0  0  0  0  0
    3.8811   -0.3068    0.6146 C   0  0  0  0  0  0  0  0  0  0  0  0
    4.6524   -0.5734    1.7317 C   0  0  0  0  0  0  0  0  0  0  0  0
    6.0415   -0.6305    1.5629 C   0  0  0  0  0  0  0  0  0  0  0  0
    6.6296   -0.4220    0.2922 C   0  0  0  0  0  0  0  0  0  0  0  0
    8.0990   -0.4786    0.0946 C   0  0  0  0  0  0  0  0  0  0  0  0
    8.6793   -0.3110   -0.9609 O   0  0  0  0  0  0  0  0  0  0  0  0
    8.7666   -0.7427    1.2301 O   0  0  0  0  0  0  0  0  0  0  0  0
    5.8266   -0.1529   -0.8267 C   0  0  0  0  0  0  0  0  0  0  0  0
    4.4566   -0.1014   -0.6359 C   0  0  0  0  0  0  0  0  0  0  0  0
    3.4160    0.1610   -1.6353 C   0  0  0  0  0  0  0  0  0  0  0  0
    3.5974    0.3814   -2.8140 O   0  0  0  0  0  0  0  0  0  0  0  0
   -1.2411    1.3747   -1.2103 C   0  0  0  0  0  0  0  0  0  0  0  0
   -2.5534    1.3799   -0.7105 C   0  0  0  0  0  0  0  0  0  0  0  0
   -4.5022   -2.2310   -0.5046 H   0  0  0  0  0  0  0  0  0  0  0  0
   -6.0539   -1.4110   -0.7016 H   0  0  0  0  0  0  0  0  0  0  0  0
   -5.8887   -2.7229    0.4762 H   0  0  0  0  0  0  0  0  0  0  0  0
   -5.9245   -0.5901    1.6524 H   0  0  0  0  0  0  0  0  0  0  0  0
   -4.3672   -1.3281    1.8796 H   0  0  0  0  0  0  0  0  0  0  0  0
   -5.7933    1.5828    1.5017 H   0  0  0  0  0  0  0  0  0  0  0  0
   -4.5264    2.4637    0.7117 H   0  0  0  0  0  0  0  0  0  0  0  0
   -5.4793    1.6814   -1.5491 H   0  0  0  0  0  0  0  0  0  0  0  0
   -6.6050    2.6551   -0.5866 H   0  0  0  0  0  0  0  0  0  0  0  0
   -6.7908    0.8980   -0.6593 H   0  0  0  0  0  0  0  0  0  0  0  0
   -2.4894   -1.5939    0.8933 H   0  0  0  0  0  0  0  0  0  0  0  0
   -0.2469   -1.6167    0.0242 H   0  0  0  0  0  0  0  0  0  0  0  0
    0.9830    0.5533   -2.5898 H   0  0  0  0  0  0  0  0  0  0  0  0
    4.1943   -0.7317    2.7041 H   0  0  0  0  0  0  0  0  0  0  0  0
    6.6677   -0.8388    2.4295 H   0  0  0  0  0  0  0  0  0  0  0  0
    9.7086   -0.7501    0.9564 H   0  0  0  0  0  0  0  0  0  0  0  0
    6.2575    0.0107   -1.8115 H   0  0  0  0  0  0  0  0  0  0  0  0
   -0.9080    2.2184   -1.8104 H   0  0  0  0  0  0  0  0  0  0  0  0
   -3.1683    2.2359   -0.9701 H   0  0  0  0  0  0  0  0  0  0  0  0
  1  2  1  0
  2  3  1  0
  3  4  1  0
  4  5  1  0
  3  6  1  0
  6  7  2  0
  7  8  1  0
  8  9  2  0
  9 10  1  0
 10 11  2  3
 11 12  1  0
 12 13  2  0
 12 14  1  0
 14 15  2  0
 15 16  1  0
 16 17  2  0
 17 18  1  0
 18 19  2  0
 18 20  1  0
 17 21  1  0
 21 22  2  0
 22 23  1  0
 23 24  2  0
  9 25  1  0
 25 26  2  0
 26  6  1  0
 23 11  1  0
 22 14  1  0
  1 27  1  0
  1 28  1  0
  1 29  1  0
  2 30  1  0
  2 31  1  0
  4 32  1  0
  4 33  1  0
  5 34  1  0
  5 35  1  0
  5 36  1  0
  7 37  1  0
  8 38  1  0
 10 39  1  0
 15 40  1  0
 16 41  1  0
 20 42  1  0
 21 43  1  0
 25 44  1  0
 26 45  1  0
M  END
$$$$
