
     RDKit          3D

 45 47  0  0  0  0  0  0  0  0999 V2000
    2.4977   -2.1793   -1.9160 C   0  0  0  0  0  0  0  0  0  0  0  0
    2.6857   -1.3651   -0.7583 O   0  0  0  0  0  0  0  0  0  0  0  0
    3.3991   -0.2187   -1.0273 C   0  0  0  0  0  0  0  0  0  0  0  0
    4.6382   -0.2529   -1.6722 C   0  0  0  0  0  0  0  0  0  0  0  0
    5.3408    0.9328   -1.8814 C   0  0  0  0  0  0  0  0  0  0  0  0
    4.8125    2.1428   -1.4346 C   0  0  0  0  0  0  0  0  0  0  0  0
    3.5816    2.1757   -0.7708 C   0  0  0  0  0  0  0  0  0  0  0  0
    2.8662    0.9968   -0.5580 C   0  0  0  0  0  0  0  0  0  0  0  0
    1.6203    0.9326    0.1028 N   0  0  0  0  0  0  0  0  0  0  0  0
    0.8779    1.9668    0.6360 C   0  0  0  0  0  0  0  0  0  0  0  0
    1.1921    3.1557    0.6214 O   0  0  0  0  0  0  0  0  0  0  0  0
   -0.3596    1.5170    1.4109 C   0  0  0  0  0  0  0  0  0  0  0  0
    0.0787    0.9260    2.7648 C   0  0  0  0  0  0  0  0  0  0  0  0
   -0.9309   -0.1700    3.0519 C   0  0  0  0  0  0  0  0  0  0  0  0
   -1.2216   -0.7286    1.6709 C   0  0  0  0  0  0  0  0  0  0  0  0
   -1.2620    0.4805    0.8331 N   0  0  0  0  0  0  0  0  0  0  0  0
   -1.4212    0.3417   -0.8294 S   0  0  0  0  0  6  0  0  0  0  0  0
   -0.4383   -0.6271   -1.2658 O   0  0  0  0  0  0  0  0  0  0  0  0
   -1.4951    1.6673   -1.3963 O   0  0  0  0  0  0  0  0  0  0  0  0
   -3.0319   -0.3907   -0.9938 C   0  0  0  0  0  0  0  0  0  0  0  0
   -3.1662   -1.6965   -1.4744 C   0  0  0  0  0  0  0  0  0  0  0  0
   -4.4411   -2.2537   -1.5954 C   0  0  0  0  0  0  0  0  0  0  0  0
   -5.5644   -1.5042   -1.2409 C   0  0  0  0  0  0  0  0  0  0  0  0
   -7.1327   -2.1973   -1.3898 Cl  0  0  0  0  0  0  0  0  0  0  0  0
   -5.4280   -0.1981   -0.7682 C   0  0  0  0  0  0  0  0  0  0  0  0
   -4.1571    0.3664   -0.6473 C   0  0  0  0  0  0  0  0  0  0  0  0
    1.6550   -2.8483   -1.7175 H   0  0  0  0  0  0  0  0  0  0  0  0
    3.3810   -2.7996   -2.0976 H   0  0  0  0  0  0  0  0  0  0  0  0
    2.2527   -1.5842   -2.8044 H   0  0  0  0  0  0  0  0  0  0  0  0
    5.0746   -1.1920   -1.9969 H   0  0  0  0  0  0  0  0  0  0  0  0
    6.3040    0.9138   -2.3841 H   0  0  0  0  0  0  0  0  0  0  0  0
    5.3598    3.0679   -1.5966 H   0  0  0  0  0  0  0  0  0  0  0  0
    3.2080    3.1379   -0.4368 H   0  0  0  0  0  0  0  0  0  0  0  0
    1.2116   -0.0003    0.0972 H   0  0  0  0  0  0  0  0  0  0  0  0
   -0.9831    2.4039    1.5871 H   0  0  0  0  0  0  0  0  0  0  0  0
    0.0871    1.6871    3.5518 H   0  0  0  0  0  0  0  0  0  0  0  0
    1.0870    0.4982    2.7182 H   0  0  0  0  0  0  0  0  0  0  0  0
   -0.5483   -0.9297    3.7397 H   0  0  0  0  0  0  0  0  0  0  0  0
   -1.8392    0.2639    3.4873 H   0  0  0  0  0  0  0  0  0  0  0  0
   -2.1743   -1.2635    1.6611 H   0  0  0  0  0  0  0  0  0  0  0  0
   -0.4180   -1.3984    1.3482 H   0  0  0  0  0  0  0  0  0  0  0  0
   -2.2940   -2.2805   -1.7589 H   0  0  0  0  0  0  0  0  0  0  0  0
   -4.5537   -3.2678   -1.9709 H   0  0  0  0  0  0  0  0  0  0  0  0
   -6.3053    0.3839   -0.4974 H   0  0  0  0  0  0  0  0  0  0  0  0
   -4.0459    1.3879   -0.2884 H   0  0  0  0  0  0  0  0  0  0  0  0
  1  2  1  0
  2  3  1  0
  3  4  2  0
  4  5  1  0
  5  6  2  0
  6  7  1  0
  7  8  2  0
  8  9  1  0
  9 10  1  0
 10 11  2  0
 10 12  1  0
 12 13  1  0
 13 14  1  0
 14 15  1  0
 15 16  1  0
 16 17  1  0
 17 18  2  0
 17 19  2  0
 17 20  1  0
 20 21  2  0
 21 22  1  0
 22 23  2  0
 23 24  1  0
 23 25  1  0
 25 26  2  0
  8  3  1  0
 16 12  1  0
 26 20  1  0
  1 27  1  0
  1 28  1  0
  1 29  1  0
  4 30  1  0
  5 31  1  0
  6 32  1  0
  7 33  1  0
  9 34  1  0
 12 35  1  0
 13 36  1  0
 13 37  1  0
 14 38  1  0
 14 39  1  0
 15 40  1  0
 15 41  1  0
 21 42  1  0
 22 43  1  0
 25 44  1  0
 26 45  1  0
M  END
$$$$
