
     RDKit          3D

 55 57  0  0  0  0  0  0  0  0999 V2000
    0.3233    0.0802   -1.5771 O   0  0  0  0  0  0  0  0  0  0  0  0
    0.2381   -0.2321   -0.3939 C   0  0  0  0  0  0  0  0  0  0  0  0
   -0.8871    0.0004    0.3677 N   0  0  0  0  0  0  0  0  0  0  0  0
   -2.0876    0.5887   -0.1957 C   0  0  0  0  0  0  0  0  0  0  0  0
   -2.9640   -0.4700   -0.8600 C   0  0  0  0  0  0  0  0  0  0  0  0
   -4.1673    0.0936   -1.6231 C   0  0  0  0  0  0  0  0  0  0  0  0
   -5.3387    0.5450   -0.7444 C   0  0  0  0  0  0  0  0  0  0  0  0
   -6.6038    0.7937   -1.5706 C   0  0  0  0  0  0  0  0  0  0  0  0
   -7.4719    1.6080   -0.6275 C   0  0  0  0  0  0  0  0  0  0  0  0
   -6.4910    2.5732    0.0222 C   0  0  0  0  0  0  0  0  0  0  0  0
   -5.1309    1.8714   -0.0020 C   0  0  0  0  0  0  0  0  0  0  0  0
    1.3705   -0.9033    0.3688 C   0  0  0  0  0  0  0  0  0  0  0  0
    1.0098   -2.3286    0.7708 C   0  0  0  0  0  0  0  0  0  0  0  0
    2.1387   -2.9269    1.5905 C   0  0  0  0  0  0  0  0  0  0  0  0
    3.5213   -2.7732    0.9854 C   0  0  0  0  0  0  0  0  0  0  0  0
    4.4274   -3.5259    1.3448 O   0  0  0  0  0  0  0  0  0  0  0  0
    3.7233   -1.7084    0.1234 N   0  0  0  0  0  0  0  0  0  0  0  0
    5.0583   -1.4962   -0.4317 C   0  0  0  0  0  0  0  0  0  0  0  0
    5.7244   -0.2838    0.1778 C   0  0  0  0  0  0  0  0  0  0  0  0
    6.2008   -0.3325    1.4973 C   0  0  0  0  0  0  0  0  0  0  0  0
    6.8064    0.7853    2.0748 C   0  0  0  0  0  0  0  0  0  0  0  0
    6.9372    1.9589    1.3362 C   0  0  0  0  0  0  0  0  0  0  0  0
    7.6806    3.3385    2.0470 Cl  0  0  0  0  0  0  0  0  0  0  0  0
    6.4684    2.0241    0.0255 C   0  0  0  0  0  0  0  0  0  0  0  0
    5.8626    0.9057   -0.5526 C   0  0  0  0  0  0  0  0  0  0  0  0
    2.6267   -0.9613   -0.4918 C   0  0  0  0  0  0  0  0  0  0  0  0
   -0.9141   -0.3058    1.3315 H   0  0  0  0  0  0  0  0  0  0  0  0
   -2.6087    1.0701    0.6345 H   0  0  0  0  0  0  0  0  0  0  0  0
   -1.7994    1.3599   -0.9183 H   0  0  0  0  0  0  0  0  0  0  0  0
   -2.3510   -1.0324   -1.5765 H   0  0  0  0  0  0  0  0  0  0  0  0
   -3.2986   -1.2008   -0.1133 H   0  0  0  0  0  0  0  0  0  0  0  0
   -3.8445    0.9093   -2.2822 H   0  0  0  0  0  0  0  0  0  0  0  0
   -4.5315   -0.7057   -2.2828 H   0  0  0  0  0  0  0  0  0  0  0  0
   -5.5596   -0.2400   -0.0074 H   0  0  0  0  0  0  0  0  0  0  0  0
   -6.3775    1.3732   -2.4747 H   0  0  0  0  0  0  0  0  0  0  0  0
   -7.0905   -0.1390   -1.8736 H   0  0  0  0  0  0  0  0  0  0  0  0
   -8.2825    2.1266   -1.1478 H   0  0  0  0  0  0  0  0  0  0  0  0
   -7.9178    0.9560    0.1339 H   0  0  0  0  0  0  0  0  0  0  0  0
   -6.7980    2.8389    1.0390 H   0  0  0  0  0  0  0  0  0  0  0  0
   -6.4354    3.5023   -0.5578 H   0  0  0  0  0  0  0  0  0  0  0  0
   -4.7750    1.6938    1.0184 H   0  0  0  0  0  0  0  0  0  0  0  0
   -4.3962    2.5115   -0.5035 H   0  0  0  0  0  0  0  0  0  0  0  0
    1.5740   -0.3022    1.2653 H   0  0  0  0  0  0  0  0  0  0  0  0
    0.0835   -2.3585    1.3556 H   0  0  0  0  0  0  0  0  0  0  0  0
    0.8318   -2.9386   -0.1245 H   0  0  0  0  0  0  0  0  0  0  0  0
    1.9465   -3.9962    1.7341 H   0  0  0  0  0  0  0  0  0  0  0  0
    2.1682   -2.4574    2.5810 H   0  0  0  0  0  0  0  0  0  0  0  0
    4.9684   -1.3919   -1.5200 H   0  0  0  0  0  0  0  0  0  0  0  0
    5.7006   -2.3687   -0.2642 H   0  0  0  0  0  0  0  0  0  0  0  0
    6.0996   -1.2482    2.0791 H   0  0  0  0  0  0  0  0  0  0  0  0
    7.1715    0.7320    3.0967 H   0  0  0  0  0  0  0  0  0  0  0  0
    6.5699    2.9403   -0.5500 H   0  0  0  0  0  0  0  0  0  0  0  0
    5.4970    0.9707   -1.5753 H   0  0  0  0  0  0  0  0  0  0  0  0
    2.4231   -1.4432   -1.4569 H   0  0  0  0  0  0  0  0  0  0  0  0
    2.9704    0.0581   -0.7023 H   0  0  0  0  0  0  0  0  0  0  0  0
  1  2  2  0
  2  3  1  0
  3  4  1  0
  4  5  1  0
  5  6  1  0
  6  7  1  0
  7  8  1  0
  8  9  1  0
  9 10  1  0
 10 11  1  0
  2 12  1  0
 12 13  1  0
 13 14  1  0
 14 15  1  0
 15 16  2  0
 15 17  1  0
 17 18  1  0
 18 19  1  0
 19 20  2  0
 20 21  1  0
 21 22  2  0
 22 23  1  0
 22 24  1  0
 24 25  2  0
 17 26  1  0
 11  7  1  0
 26 12  1  0
 25 19  1  0
  3 27  1  0
  4 28  1  0
  4 29  1  0
  5 30  1  0
  5 31  1  0
  6 32  1  0
  6 33  1  0
  7 34  1  0
  8 35  1  0
  8 36  1  0
  9 37  1  0
  9 38  1  0
 10 39  1  0
 10 40  1  0
 11 41  1  0
 11 42  1  0
 12 43  1  0
 13 44  1  0
 13 45  1  0
 14 46  1  0
 14 47  1  0
 18 48  1  0
 18 49  1  0
 20 50  1  0
 21 51  1  0
 24 52  1  0
 25 53  1  0
 26 54  1  0
 26 55  1  0
M  END
$$$$
