
     RDKit          3D

 43 45  0  0  0  0  0  0  0  0999 V2000
    3.4719   -1.3257    1.0132 O   0  0  0  0  0  0  0  0  0  0  0  0
    2.7949   -0.7458    0.1601 C   0  0  0  0  0  0  0  0  0  0  0  0
    3.3090   -0.5678   -1.2920 C   0  0  0  0  0  0  0  0  0  0  0  0
    4.7549   -1.0121   -1.4675 C   0  0  0  0  0  0  0  0  0  0  0  0
    5.5141    0.2573   -1.1723 C   0  0  0  0  0  0  0  0  0  0  0  0
    4.6111    1.3101   -1.7739 C   0  0  0  0  0  0  0  0  0  0  0  0
    3.2695    0.8059   -1.7103 O   0  0  0  0  0  0  0  0  0  0  0  0
    1.5245   -0.2641    0.4564 N   0  0  0  0  0  0  0  0  0  0  0  0
    1.0353   -0.3559    1.8349 C   0  0  0  0  0  0  0  0  0  0  0  0
    0.0640    0.7781    2.1830 C   0  0  0  0  0  0  0  0  0  0  0  0
   -1.0888    0.8512    1.2633 N   0  0  0  0  0  0  0  0  0  0  0  0
   -2.1728    1.6768    1.5226 C   0  0  0  0  0  0  0  0  0  0  0  0
   -2.1718    2.9525    2.6153 S   0  0  0  0  0  0  0  0  0  0  0  0
   -3.3145    1.5107    0.7865 N   0  0  0  0  0  0  0  0  0  0  0  0
   -3.9897    0.3142    0.4582 C   0  0  0  0  0  0  0  0  0  0  0  0
   -5.1079    0.4179   -0.3797 C   0  0  0  0  0  0  0  0  0  0  0  0
   -5.8406   -0.7199   -0.7252 C   0  0  0  0  0  0  0  0  0  0  0  0
   -5.4638   -1.9564   -0.2176 C   0  0  0  0  0  0  0  0  0  0  0  0
   -6.1664   -3.0477   -0.5468 F   0  0  0  0  0  0  0  0  0  0  0  0
   -4.3737   -2.0742    0.6350 C   0  0  0  0  0  0  0  0  0  0  0  0
   -3.6400   -0.9359    0.9797 C   0  0  0  0  0  0  0  0  0  0  0  0
   -0.8372    0.3307   -0.0970 C   0  0  0  0  0  0  0  0  0  0  0  0
    0.6431    0.4112   -0.5045 C   0  0  0  0  0  0  0  0  0  0  0  0
    2.6583   -1.1620   -1.9431 H   0  0  0  0  0  0  0  0  0  0  0  0
    5.0584   -1.8517   -0.8368 H   0  0  0  0  0  0  0  0  0  0  0  0
    4.9261   -1.2980   -2.5129 H   0  0  0  0  0  0  0  0  0  0  0  0
    6.5238    0.2731   -1.5910 H   0  0  0  0  0  0  0  0  0  0  0  0
    5.5926    0.4049   -0.0889 H   0  0  0  0  0  0  0  0  0  0  0  0
    4.6704    2.2655   -1.2449 H   0  0  0  0  0  0  0  0  0  0  0  0
    4.8512    1.4813   -2.8286 H   0  0  0  0  0  0  0  0  0  0  0  0
    0.5297   -1.3248    1.9248 H   0  0  0  0  0  0  0  0  0  0  0  0
    1.8757   -0.3521    2.5371 H   0  0  0  0  0  0  0  0  0  0  0  0
   -0.3072    0.6516    3.2059 H   0  0  0  0  0  0  0  0  0  0  0  0
    0.5930    1.7376    2.1262 H   0  0  0  0  0  0  0  0  0  0  0  0
   -3.9042    2.3371    0.7768 H   0  0  0  0  0  0  0  0  0  0  0  0
   -5.4113    1.3807   -0.7836 H   0  0  0  0  0  0  0  0  0  0  0  0
   -6.7011   -0.6482   -1.3827 H   0  0  0  0  0  0  0  0  0  0  0  0
   -4.1077   -3.0468    1.0366 H   0  0  0  0  0  0  0  0  0  0  0  0
   -2.8171   -1.0435    1.6802 H   0  0  0  0  0  0  0  0  0  0  0  0
   -1.1390   -0.7219   -0.1006 H   0  0  0  0  0  0  0  0  0  0  0  0
   -1.4437    0.8697   -0.8317 H   0  0  0  0  0  0  0  0  0  0  0  0
    0.7677   -0.0241   -1.4996 H   0  0  0  0  0  0  0  0  0  0  0  0
    0.9593    1.4601   -0.5452 H   0  0  0  0  0  0  0  0  0  0  0  0
  1  2  2  0
  2  3  1  0
  3  4  1  0
  4  5  1  0
  5  6  1  0
  6  7  1  0
  2  8  1  0
  8  9  1  0
  9 10  1  0
 10 11  1  0
 11 12  1  0
 12 13  2  0
 12 14  1  0
 14 15  1  0
 15 16  2  0
 16 17  1  0
 17 18  2  0
 18 19  1  0
 18 20  1  0
 20 21  2  0
 11 22  1  0
 22 23  1  0
  7  3  1  0
 23  8  1  0
 21 15  1  0
  3 24  1  0
  4 25  1  0
  4 26  1  0
  5 27  1  0
  5 28  1  0
  6 29  1  0
  6 30  1  0
  9 31  1  0
  9 32  1  0
 10 33  1  0
 10 34  1  0
 14 35  1  0
 16 36  1  0
 17 37  1  0
 20 38  1  0
 21 39  1  0
 22 40  1  0
 22 41  1  0
 23 42  1  0
 23 43  1  0
M  END
$$$$
