
     RDKit          3D

 51 54  0  0  0  0  0  0  0  0999 V2000
   -6.2379    0.6896   -0.1980 C   0  0  0  0  0  0  0  0  0  0  0  0
   -5.3455   -0.3873   -0.8196 C   0  0  0  0  0  0  0  0  0  0  0  0
   -6.0688   -1.7278   -0.9666 C   0  0  0  0  0  0  0  0  0  0  0  0
   -4.0542   -0.5134   -0.1383 N   0  0  0  0  0  0  0  0  0  0  0  0
   -2.8627   -0.2302   -0.7583 C   0  0  0  0  0  0  0  0  0  0  0  0
   -1.8268   -0.4987    0.1138 C   0  0  0  0  0  0  0  0  0  0  0  0
   -0.4171   -0.3607   -0.1902 C   0  0  0  0  0  0  0  0  0  0  0  0
   -0.0513   -0.1822   -1.4177 N   0  0  0  0  0  0  0  0  0  0  0  0
    1.2941   -0.0827   -1.6103 N   0  0  0  0  0  0  0  0  0  0  0  0
    1.8242   -0.0828   -2.8918 C   0  0  0  0  0  0  0  0  0  0  0  0
    1.1770   -0.1267   -3.9390 O   0  0  0  0  0  0  0  0  0  0  0  0
    3.3456    0.0277   -2.8963 C   0  0  0  0  0  0  0  0  0  0  0  0
    3.9291   -0.7834   -1.8680 O   0  0  0  0  0  0  0  0  0  0  0  0
    4.8934   -0.0911   -1.1679 C   0  0  0  0  0  0  0  0  0  0  0  0
    6.2132   -0.5119   -1.3587 C   0  0  0  0  0  0  0  0  0  0  0  0
    7.2454    0.1410   -0.6989 C   0  0  0  0  0  0  0  0  0  0  0  0
    6.9526    1.2054    0.1522 C   0  0  0  0  0  0  0  0  0  0  0  0
    5.6188    1.6043    0.3683 C   0  0  0  0  0  0  0  0  0  0  0  0
    5.3123    2.6734    1.2228 C   0  0  0  0  0  0  0  0  0  0  0  0
    3.9906    3.0508    1.4165 C   0  0  0  0  0  0  0  0  0  0  0  0
    3.0101    2.3342    0.7601 C   0  0  0  0  0  0  0  0  0  0  0  0
    3.2605    1.2890   -0.0663 N   0  0  0  0  0  0  0  0  0  0  0  0
    4.5541    0.9403   -0.2796 C   0  0  0  0  0  0  0  0  0  0  0  0
   -2.4228   -0.9536    1.3318 C   0  0  0  0  0  0  0  0  0  0  0  0
   -1.8976   -1.3925    2.5680 C   0  0  0  0  0  0  0  0  0  0  0  0
   -2.7612   -1.8197    3.5820 C   0  0  0  0  0  0  0  0  0  0  0  0
   -4.1352   -1.8087    3.3862 C   0  0  0  0  0  0  0  0  0  0  0  0
   -4.6825   -1.3741    2.1771 C   0  0  0  0  0  0  0  0  0  0  0  0
   -3.8137   -0.9560    1.1523 C   0  0  0  0  0  0  0  0  0  0  0  0
   -5.7163    1.6518   -0.1420 H   0  0  0  0  0  0  0  0  0  0  0  0
   -7.1407    0.8341   -0.8035 H   0  0  0  0  0  0  0  0  0  0  0  0
   -6.5577    0.4254    0.8112 H   0  0  0  0  0  0  0  0  0  0  0  0
   -5.1101   -0.0469   -1.8381 H   0  0  0  0  0  0  0  0  0  0  0  0
   -6.4704   -2.0880   -0.0166 H   0  0  0  0  0  0  0  0  0  0  0  0
   -5.3975   -2.4984   -1.3598 H   0  0  0  0  0  0  0  0  0  0  0  0
   -6.9111   -1.6339   -1.6613 H   0  0  0  0  0  0  0  0  0  0  0  0
   -2.8286    0.1249   -1.7830 H   0  0  0  0  0  0  0  0  0  0  0  0
    0.3027   -0.4497    0.6434 H   0  0  0  0  0  0  0  0  0  0  0  0
    1.9285    0.0727   -0.8215 H   0  0  0  0  0  0  0  0  0  0  0  0
    3.6075    1.0930   -2.8335 H   0  0  0  0  0  0  0  0  0  0  0  0
    3.7080   -0.3503   -3.8596 H   0  0  0  0  0  0  0  0  0  0  0  0
    6.4258   -1.3415   -2.0266 H   0  0  0  0  0  0  0  0  0  0  0  0
    8.2748   -0.1706   -0.8528 H   0  0  0  0  0  0  0  0  0  0  0  0
    7.7722    1.7170    0.6488 H   0  0  0  0  0  0  0  0  0  0  0  0
    6.1013    3.2211    1.7360 H   0  0  0  0  0  0  0  0  0  0  0  0
    3.7384    3.8860    2.0587 H   0  0  0  0  0  0  0  0  0  0  0  0
    1.9621    2.5910    0.8787 H   0  0  0  0  0  0  0  0  0  0  0  0
   -0.8247   -1.4156    2.7346 H   0  0  0  0  0  0  0  0  0  0  0  0
   -2.3531   -2.1679    4.5287 H   0  0  0  0  0  0  0  0  0  0  0  0
   -4.7966   -2.1475    4.1802 H   0  0  0  0  0  0  0  0  0  0  0  0
   -5.7583   -1.3790    2.0468 H   0  0  0  0  0  0  0  0  0  0  0  0
  1  2  1  0
  2  3  1  0
  2  4  1  0
  4  5  1  0
  5  6  2  0
  6  7  1  0
  7  8  2  3
  8  9  1  0
  9 10  1  0
 10 11  2  0
 10 12  1  0
 12 13  1  0
 13 14  1  0
 14 15  2  0
 15 16  1  0
 16 17  2  0
 17 18  1  0
 18 19  2  0
 19 20  1  0
 20 21  2  0
 21 22  1  0
 22 23  2  0
  6 24  1  0
 24 25  2  0
 25 26  1  0
 26 27  2  0
 27 28  1  0
 28 29  2  0
 29  4  1  0
 23 14  1  0
 29 24  1  0
 23 18  1  0
  1 30  1  0
  1 31  1  0
  1 32  1  0
  2 33  1  0
  3 34  1  0
  3 35  1  0
  3 36  1  0
  5 37  1  0
  7 38  1  0
  9 39  1  0
 12 40  1  0
 12 41  1  0
 15 42  1  0
 16 43  1  0
 17 44  1  0
 19 45  1  0
 20 46  1  0
 21 47  1  0
 25 48  1  0
 26 49  1  0
 27 50  1  0
 28 51  1  0
M  END
$$$$
