
     RDKit          3D

 53 56  0  0  0  0  0  0  0  0999 V2000
   -0.7147   -3.3503    0.1762 C   0  0  0  0  0  0  0  0  0  0  0  0
   -1.1500   -1.9089    0.1833 C   0  0  0  0  0  0  0  0  0  0  0  0
   -0.2074   -0.8764    0.3144 C   0  0  0  0  0  0  0  0  0  0  0  0
    1.0998   -1.2638    0.4411 O   0  0  0  0  0  0  0  0  0  0  0  0
    2.0139   -0.3620    1.0587 C   0  0  0  0  0  0  0  0  0  0  0  0
    3.0920   -1.2274    1.7111 C   0  0  0  0  0  0  0  0  0  0  0  0
    2.6867    0.6142    0.0705 C   0  0  0  0  0  0  0  0  0  0  0  0
    2.5818    0.5263   -1.1504 O   0  0  0  0  0  0  0  0  0  0  0  0
    3.3999    1.6308    0.6776 N   0  0  0  0  0  0  0  0  0  0  0  0
    4.2467    2.5079   -0.1077 C   0  0  0  0  0  0  0  0  0  0  0  0
    5.6417    1.9410   -0.2283 C   0  0  0  0  0  0  0  0  0  0  0  0
    6.0071    1.2002   -1.3504 C   0  0  0  0  0  0  0  0  0  0  0  0
    7.2871    0.6578   -1.4083 C   0  0  0  0  0  0  0  0  0  0  0  0
    8.1613    0.8597   -0.3470 C   0  0  0  0  0  0  0  0  0  0  0  0
    7.7142    1.5929    0.7391 C   0  0  0  0  0  0  0  0  0  0  0  0
    6.4767    2.1289    0.8284 N   0  0  0  0  0  0  0  0  0  0  0  0
   -0.6320    0.4526    0.2604 C   0  0  0  0  0  0  0  0  0  0  0  0
   -1.9879    0.7642    0.0916 C   0  0  0  0  0  0  0  0  0  0  0  0
   -2.9498   -0.2424   -0.0386 C   0  0  0  0  0  0  0  0  0  0  0  0
   -4.3853    0.0276   -0.2297 C   0  0  0  0  0  0  0  0  0  0  0  0
   -5.2292   -1.0049   -0.4223 C   0  0  0  0  0  0  0  0  0  0  0  0
   -4.7667   -2.4144   -0.3970 C   0  0  0  0  0  0  0  0  0  0  0  0
   -5.5419   -3.3522   -0.5512 O   0  0  0  0  0  0  0  0  0  0  0  0
   -3.4177   -2.6246   -0.1761 O   0  0  0  0  0  0  0  0  0  0  0  0
   -2.5025   -1.5643   -0.0050 C   0  0  0  0  0  0  0  0  0  0  0  0
   -6.7044   -0.8275   -0.6831 C   0  0  0  0  0  0  0  0  0  0  0  0
   -7.0905    0.6081   -1.0376 C   0  0  0  0  0  0  0  0  0  0  0  0
   -6.3981    1.5940   -0.1102 C   0  0  0  0  0  0  0  0  0  0  0  0
   -4.8765    1.4582   -0.2036 C   0  0  0  0  0  0  0  0  0  0  0  0
    0.1273   -3.5152    0.8562 H   0  0  0  0  0  0  0  0  0  0  0  0
   -0.4188   -3.6443   -0.8355 H   0  0  0  0  0  0  0  0  0  0  0  0
   -1.5129   -4.0168    0.5174 H   0  0  0  0  0  0  0  0  0  0  0  0
    1.5184    0.2115    1.8533 H   0  0  0  0  0  0  0  0  0  0  0  0
    2.6383   -1.9596    2.3878 H   0  0  0  0  0  0  0  0  0  0  0  0
    3.8115   -0.6302    2.2789 H   0  0  0  0  0  0  0  0  0  0  0  0
    3.6454   -1.7938    0.9532 H   0  0  0  0  0  0  0  0  0  0  0  0
    3.6740    1.5261    1.6458 H   0  0  0  0  0  0  0  0  0  0  0  0
    4.2915    3.4679    0.4181 H   0  0  0  0  0  0  0  0  0  0  0  0
    3.8068    2.6890   -1.0945 H   0  0  0  0  0  0  0  0  0  0  0  0
    5.3020    1.0358   -2.1610 H   0  0  0  0  0  0  0  0  0  0  0  0
    7.5951    0.0767   -2.2730 H   0  0  0  0  0  0  0  0  0  0  0  0
    9.1650    0.4502   -0.3635 H   0  0  0  0  0  0  0  0  0  0  0  0
    8.3598    1.7725    1.5945 H   0  0  0  0  0  0  0  0  0  0  0  0
    0.0701    1.2782    0.3121 H   0  0  0  0  0  0  0  0  0  0  0  0
   -2.2594    1.8154    0.0418 H   0  0  0  0  0  0  0  0  0  0  0  0
   -7.2563   -1.1396    0.2136 H   0  0  0  0  0  0  0  0  0  0  0  0
   -7.0300   -1.4772   -1.5052 H   0  0  0  0  0  0  0  0  0  0  0  0
   -6.8091    0.8222   -2.0765 H   0  0  0  0  0  0  0  0  0  0  0  0
   -8.1776    0.7260   -0.9705 H   0  0  0  0  0  0  0  0  0  0  0  0
   -6.6926    2.6197   -0.3602 H   0  0  0  0  0  0  0  0  0  0  0  0
   -6.7217    1.4131    0.9230 H   0  0  0  0  0  0  0  0  0  0  0  0
   -4.5301    1.9641   -1.1142 H   0  0  0  0  0  0  0  0  0  0  0  0
   -4.4513    1.9956    0.6527 H   0  0  0  0  0  0  0  0  0  0  0  0
  1  2  1  0
  2  3  2  0
  3  4  1  0
  4  5  1  0
  5  6  1  0
  5  7  1  0
  7  8  2  0
  7  9  1  0
  9 10  1  0
 10 11  1  0
 11 12  2  0
 12 13  1  0
 13 14  2  0
 14 15  1  0
 15 16  2  0
  3 17  1  0
 17 18  2  0
 18 19  1  0
 19 20  1  0
 20 21  2  0
 21 22  1  0
 22 23  2  0
 22 24  1  0
 24 25  1  0
 21 26  1  0
 26 27  1  0
 27 28  1  0
 28 29  1  0
 25  2  1  0
 16 11  1  0
 25 19  2  0
 29 20  1  0
  1 30  1  0
  1 31  1  0
  1 32  1  0
  5 33  1  0
  6 34  1  0
  6 35  1  0
  6 36  1  0
  9 37  1  0
 10 38  1  0
 10 39  1  0
 12 40  1  0
 13 41  1  0
 14 42  1  0
 15 43  1  0
 17 44  1  0
 18 45  1  0
 26 46  1  0
 26 47  1  0
 27 48  1  0
 27 49  1  0
 28 50  1  0
 28 51  1  0
 29 52  1  0
 29 53  1  0
M  END
$$$$
