
     RDKit          3D

 37 40  0  0  0  0  0  0  0  0999 V2000
    7.9953    1.4543    0.8771 C   0  0  0  0  0  0  0  0  0  0  0  0
    6.6862    0.7943    0.5495 C   0  0  0  0  0  0  0  0  0  0  0  0
    6.6638   -0.3785   -0.2100 C   0  0  0  0  0  0  0  0  0  0  0  0
    5.4523   -0.9911   -0.5511 C   0  0  0  0  0  0  0  0  0  0  0  0
    4.2353   -0.4175   -0.1359 C   0  0  0  0  0  0  0  0  0  0  0  0
    2.9706   -0.9137   -0.3998 N   0  0  0  0  0  0  0  0  0  0  0  0
    2.0755   -0.1251    0.1280 C   0  0  0  0  0  0  0  0  0  0  0  0
    0.7133   -0.2276    0.1177 N   0  0  0  0  0  0  0  0  0  0  0  0
    0.0428   -1.2183   -0.5700 C   0  0  0  0  0  0  0  0  0  0  0  0
    0.5464   -2.1197   -1.2340 O   0  0  0  0  0  0  0  0  0  0  0  0
   -1.4637   -1.1489   -0.3852 C   0  0  0  0  0  0  0  0  0  0  0  0
   -2.1031    0.4502   -0.9638 S   0  0  0  0  0  0  0  0  0  0  0  0
   -3.7941    0.2387   -0.6143 C   0  0  0  0  0  0  0  0  0  0  0  0
   -4.2757   -0.7717    0.0850 N   0  0  0  0  0  0  0  0  0  0  0  0
   -5.6262   -0.5335    0.1171 C   0  0  0  0  0  0  0  0  0  0  0  0
   -6.6768   -1.2512    0.7023 C   0  0  0  0  0  0  0  0  0  0  0  0
   -7.9790   -0.7457    0.5643 C   0  0  0  0  0  0  0  0  0  0  0  0
   -8.2250    0.4421   -0.1373 C   0  0  0  0  0  0  0  0  0  0  0  0
   -7.1842    1.1699   -0.7273 C   0  0  0  0  0  0  0  0  0  0  0  0
   -5.9121    0.6352   -0.5677 C   0  0  0  0  0  0  0  0  0  0  0  0
   -4.7366    1.1396   -1.0374 O   0  0  0  0  0  0  0  0  0  0  0  0
    2.6536    1.2388    0.9718 S   0  0  0  0  0  0  0  0  0  0  0  0
    4.2708    0.7626    0.6102 C   0  0  0  0  0  0  0  0  0  0  0  0
    5.4809    1.3873    0.9587 C   0  0  0  0  0  0  0  0  0  0  0  0
    7.9298    2.0047    1.8216 H   0  0  0  0  0  0  0  0  0  0  0  0
    8.2723    2.1507    0.0797 H   0  0  0  0  0  0  0  0  0  0  0  0
    8.7902    0.7096    0.9902 H   0  0  0  0  0  0  0  0  0  0  0  0
    7.5936   -0.8332   -0.5469 H   0  0  0  0  0  0  0  0  0  0  0  0
    5.4377   -1.9051   -1.1370 H   0  0  0  0  0  0  0  0  0  0  0  0
    0.1973    0.5121    0.5715 H   0  0  0  0  0  0  0  0  0  0  0  0
   -1.9248   -1.9591   -0.9597 H   0  0  0  0  0  0  0  0  0  0  0  0
   -1.6876   -1.2967    0.6767 H   0  0  0  0  0  0  0  0  0  0  0  0
   -6.4846   -2.1707    1.2441 H   0  0  0  0  0  0  0  0  0  0  0  0
   -8.8111   -1.2876    1.0102 H   0  0  0  0  0  0  0  0  0  0  0  0
   -9.2470    0.8072   -0.2269 H   0  0  0  0  0  0  0  0  0  0  0  0
   -7.3545    2.0888   -1.2740 H   0  0  0  0  0  0  0  0  0  0  0  0
    5.4782    2.3089    1.5337 H   0  0  0  0  0  0  0  0  0  0  0  0
  1  2  1  0
  2  3  2  0
  3  4  1  0
  4  5  2  0
  5  6  1  0
  6  7  2  0
  7  8  1  0
  8  9  1  0
  9 10  2  0
  9 11  1  0
 11 12  1  0
 12 13  1  0
 13 14  2  0
 14 15  1  0
 15 16  2  0
 16 17  1  0
 17 18  2  0
 18 19  1  0
 19 20  2  0
 20 21  1  0
  7 22  1  0
 22 23  1  0
 23 24  2  0
 24  2  1  0
 23  5  1  0
 21 13  1  0
 20 15  1  0
  1 25  1  0
  1 26  1  0
  1 27  1  0
  3 28  1  0
  4 29  1  0
  8 30  1  0
 11 31  1  0
 11 32  1  0
 16 33  1  0
 17 34  1  0
 18 35  1  0
 19 36  1  0
 24 37  1  0
M  END
$$$$
