
     RDKit          3D

 42 46  0  0  0  0  0  0  0  0999 V2000
   -2.0326   -0.0595    1.8631 O   0  0  0  0  0  0  0  0  0  0  0  0
   -2.0098   -0.0963    0.6304 C   0  0  0  0  0  0  0  0  0  0  0  0
   -2.8333   -1.1302   -0.0570 C   0  0  0  0  0  0  0  0  0  0  0  0
   -4.0052   -1.5701    0.5739 C   0  0  0  0  0  0  0  0  0  0  0  0
   -4.8100   -2.5367   -0.0310 C   0  0  0  0  0  0  0  0  0  0  0  0
   -4.4439   -3.0752   -1.2633 C   0  0  0  0  0  0  0  0  0  0  0  0
   -3.2703   -2.6544   -1.8881 C   0  0  0  0  0  0  0  0  0  0  0  0
   -2.4620   -1.6864   -1.2865 C   0  0  0  0  0  0  0  0  0  0  0  0
   -1.1624    0.8595   -0.2341 C   0  0  0  0  0  0  0  0  0  0  0  0
   -1.3743    2.2244    0.1671 O   0  0  0  0  0  0  0  0  0  0  0  0
   -0.4860    2.7944    1.0418 C   0  0  0  0  0  0  0  0  0  0  0  0
   -0.7989    4.0861    1.4670 C   0  0  0  0  0  0  0  0  0  0  0  0
    0.0429    4.7561    2.3544 C   0  0  0  0  0  0  0  0  0  0  0  0
    1.1991    4.1336    2.8206 C   0  0  0  0  0  0  0  0  0  0  0  0
    1.5183    2.8429    2.3958 C   0  0  0  0  0  0  0  0  0  0  0  0
    0.6852    2.1696    1.4911 C   0  0  0  0  0  0  0  0  0  0  0  0
    0.9731    0.7772    1.0362 C   0  0  0  0  0  0  0  0  0  0  0  0
    2.3927    0.4404    0.6125 C   0  0  0  0  0  0  0  0  0  0  0  0
    2.0832   -0.4605   -0.5631 C   0  0  0  0  0  0  0  0  0  0  0  0
    3.0578   -1.3192   -1.1934 C   0  0  0  0  0  0  0  0  0  0  0  0
    2.8579   -2.1821   -2.2557 C   0  0  0  0  0  0  0  0  0  0  0  0
    4.0432   -2.8794   -2.6278 C   0  0  0  0  0  0  0  0  0  0  0  0
    5.1139   -2.5257   -1.8390 C   0  0  0  0  0  0  0  0  0  0  0  0
    4.6850   -1.3617   -0.6634 S   0  0  0  0  0  0  0  0  0  0  0  0
    0.8548   -0.3798   -0.9996 N   0  0  0  0  0  0  0  0  0  0  0  0
    0.2386    0.5171   -0.1769 N   0  0  0  0  0  0  0  0  0  0  0  0
   -4.2951   -1.1594    1.5395 H   0  0  0  0  0  0  0  0  0  0  0  0
   -5.7194   -2.8715    0.4621 H   0  0  0  0  0  0  0  0  0  0  0  0
   -5.0690   -3.8309   -1.7330 H   0  0  0  0  0  0  0  0  0  0  0  0
   -2.9786   -3.0875   -2.8421 H   0  0  0  0  0  0  0  0  0  0  0  0
   -1.5378   -1.4030   -1.7839 H   0  0  0  0  0  0  0  0  0  0  0  0
   -1.4811    0.8126   -1.2794 H   0  0  0  0  0  0  0  0  0  0  0  0
   -1.7040    4.5692    1.1091 H   0  0  0  0  0  0  0  0  0  0  0  0
   -0.2078    5.7602    2.6859 H   0  0  0  0  0  0  0  0  0  0  0  0
    1.8495    4.6525    3.5203 H   0  0  0  0  0  0  0  0  0  0  0  0
    2.4171    2.3679    2.7811 H   0  0  0  0  0  0  0  0  0  0  0  0
    0.6325    0.0659    1.7995 H   0  0  0  0  0  0  0  0  0  0  0  0
    2.9576    1.3081    0.2553 H   0  0  0  0  0  0  0  0  0  0  0  0
    2.9462   -0.0691    1.4049 H   0  0  0  0  0  0  0  0  0  0  0  0
    1.8974   -2.3042   -2.7436 H   0  0  0  0  0  0  0  0  0  0  0  0
    4.1060   -3.6013   -3.4330 H   0  0  0  0  0  0  0  0  0  0  0  0
    6.1294   -2.8935   -1.8967 H   0  0  0  0  0  0  0  0  0  0  0  0
  1  2  2  0
  2  3  1  0
  3  4  2  0
  4  5  1  0
  5  6  2  0
  6  7  1  0
  7  8  2  0
  2  9  1  0
  9 10  1  0
 10 11  1  0
 11 12  2  0
 12 13  1  0
 13 14  2  0
 14 15  1  0
 15 16  2  0
 16 17  1  0
 17 18  1  0
 18 19  1  0
 19 20  1  0
 20 21  2  0
 21 22  1  0
 22 23  2  0
 23 24  1  0
 19 25  2  0
 25 26  1  0
  8  3  1  0
 26  9  1  0
 16 11  1  0
 26 17  1  0
 24 20  1  0
  4 27  1  0
  5 28  1  0
  6 29  1  0
  7 30  1  0
  8 31  1  0
  9 32  1  0
 12 33  1  0
 13 34  1  0
 14 35  1  0
 15 36  1  0
 17 37  1  0
 18 38  1  0
 18 39  1  0
 21 40  1  0
 22 41  1  0
 23 42  1  0
M  END
$$$$
