
     RDKit          3D

 53 56  0  0  0  0  0  0  0  0999 V2000
   -7.9375   -2.9425   -0.0626 C   0  0  0  0  0  0  0  0  0  0  0  0
   -7.0964   -1.7981   -0.0014 O   0  0  0  0  0  0  0  0  0  0  0  0
   -6.9227   -1.1996   -1.2833 C   0  0  0  0  0  0  0  0  0  0  0  0
   -6.0135    0.0186   -1.1867 C   0  0  0  0  0  0  0  0  0  0  0  0
   -6.4993    1.0989   -0.2168 C   0  0  0  0  0  0  0  0  0  0  0  0
   -5.2429    1.9270    0.0112 C   0  0  0  0  0  0  0  0  0  0  0  0
   -4.1518    0.9747   -0.0896 N   0  0  0  0  0  0  0  0  0  0  0  0
   -2.8716    1.3282    0.3172 C   0  0  0  0  0  0  0  0  0  0  0  0
   -2.6401    2.4800    0.6960 O   0  0  0  0  0  0  0  0  0  0  0  0
   -1.7812    0.3375    0.2974 C   0  0  0  0  0  0  0  0  0  0  0  0
   -0.4136    0.6176    0.5778 C   0  0  0  0  0  0  0  0  0  0  0  0
    0.2329   -0.5864    0.4525 C   0  0  0  0  0  0  0  0  0  0  0  0
    1.6334   -1.0417    0.6063 C   0  0  0  0  0  0  0  0  0  0  0  0
    2.4685    0.0405    0.2018 O   0  0  0  0  0  0  0  0  0  0  0  0
    3.8305   -0.1369    0.2603 C   0  0  0  0  0  0  0  0  0  0  0  0
    4.4460   -1.3091    0.7043 C   0  0  0  0  0  0  0  0  0  0  0  0
    5.8378   -1.4105    0.7353 C   0  0  0  0  0  0  0  0  0  0  0  0
    6.6377   -0.3428    0.3233 C   0  0  0  0  0  0  0  0  0  0  0  0
    8.0127   -0.3707    0.3261 O   0  0  0  0  0  0  0  0  0  0  0  0
    8.6526   -1.5539    0.7854 C   0  0  0  0  0  0  0  0  0  0  0  0
    6.0361    0.8572   -0.1314 C   0  0  0  0  0  0  0  0  0  0  0  0
    6.8029    1.9657   -0.5585 C   0  0  0  0  0  0  0  0  0  0  0  0
    6.2067    3.1455   -1.0043 C   0  0  0  0  0  0  0  0  0  0  0  0
    4.8245    3.2471   -1.0353 C   0  0  0  0  0  0  0  0  0  0  0  0
    4.0431    2.1685   -0.6205 C   0  0  0  0  0  0  0  0  0  0  0  0
    4.6203    0.9612   -0.1632 C   0  0  0  0  0  0  0  0  0  0  0  0
   -0.6793   -1.5410    0.1330 O   0  0  0  0  0  0  0  0  0  0  0  0
   -1.9331   -0.9732    0.0414 N   0  0  0  0  0  0  0  0  0  0  0  0
   -4.6145   -0.2923   -0.6472 C   0  0  0  0  0  0  0  0  0  0  0  0
   -7.4967   -3.7077   -0.7093 H   0  0  0  0  0  0  0  0  0  0  0  0
   -8.0357   -3.3520    0.9465 H   0  0  0  0  0  0  0  0  0  0  0  0
   -8.9322   -2.6677   -0.4269 H   0  0  0  0  0  0  0  0  0  0  0  0
   -6.4838   -1.9330   -1.9702 H   0  0  0  0  0  0  0  0  0  0  0  0
   -7.9011   -0.8964   -1.6746 H   0  0  0  0  0  0  0  0  0  0  0  0
   -5.9159    0.4659   -2.1857 H   0  0  0  0  0  0  0  0  0  0  0  0
   -7.3228    1.6947   -0.6212 H   0  0  0  0  0  0  0  0  0  0  0  0
   -6.8294    0.6599    0.7326 H   0  0  0  0  0  0  0  0  0  0  0  0
   -5.1097    2.6766   -0.7774 H   0  0  0  0  0  0  0  0  0  0  0  0
   -5.2399    2.4296    0.9834 H   0  0  0  0  0  0  0  0  0  0  0  0
    0.0231    1.5732    0.8317 H   0  0  0  0  0  0  0  0  0  0  0  0
    1.8115   -1.2926    1.6583 H   0  0  0  0  0  0  0  0  0  0  0  0
    1.8111   -1.9157   -0.0311 H   0  0  0  0  0  0  0  0  0  0  0  0
    3.8761   -2.1704    1.0368 H   0  0  0  0  0  0  0  0  0  0  0  0
    6.2661   -2.3427    1.0886 H   0  0  0  0  0  0  0  0  0  0  0  0
    8.4035   -2.4100    0.1498 H   0  0  0  0  0  0  0  0  0  0  0  0
    8.4092   -1.7527    1.8342 H   0  0  0  0  0  0  0  0  0  0  0  0
    9.7334   -1.3958    0.7200 H   0  0  0  0  0  0  0  0  0  0  0  0
    7.8903    1.9121   -0.5443 H   0  0  0  0  0  0  0  0  0  0  0  0
    6.8251    3.9791   -1.3253 H   0  0  0  0  0  0  0  0  0  0  0  0
    4.3496    4.1613   -1.3801 H   0  0  0  0  0  0  0  0  0  0  0  0
    2.9603    2.2760   -0.6565 H   0  0  0  0  0  0  0  0  0  0  0  0
   -4.6293   -1.0310    0.1614 H   0  0  0  0  0  0  0  0  0  0  0  0
   -3.9510   -0.6298   -1.4487 H   0  0  0  0  0  0  0  0  0  0  0  0
  1  2  1  0
  2  3  1  0
  3  4  1  0
  4  5  1  0
  5  6  1  0
  6  7  1  0
  7  8  1  0
  8  9  2  0
  8 10  1  0
 10 11  1  0
 11 12  2  0
 12 13  1  0
 13 14  1  0
 14 15  1  0
 15 16  2  0
 16 17  1  0
 17 18  2  0
 18 19  1  0
 19 20  1  0
 18 21  1  0
 21 22  2  0
 22 23  1  0
 23 24  2  0
 24 25  1  0
 25 26  2  0
 12 27  1  0
 27 28  1  0
  7 29  1  0
 29  4  1  0
 28 10  2  0
 26 15  1  0
 26 21  1  0
  1 30  1  0
  1 31  1  0
  1 32  1  0
  3 33  1  0
  3 34  1  0
  4 35  1  0
  5 36  1  0
  5 37  1  0
  6 38  1  0
  6 39  1  0
 11 40  1  0
 13 41  1  0
 13 42  1  0
 16 43  1  0
 17 44  1  0
 20 45  1  0
 20 46  1  0
 20 47  1  0
 22 48  1  0
 23 49  1  0
 24 50  1  0
 25 51  1  0
 29 52  1  0
 29 53  1  0
M  END
$$$$
