
     RDKit          3D

 52 54  0  0  0  0  0  0  0  0999 V2000
   -1.4808   -4.2902    1.8321 C   0  0  0  0  0  0  0  0  0  0  0  0
   -2.2703   -4.2165    0.5331 C   0  0  0  0  0  0  0  0  0  0  0  0
   -1.7434   -3.1609   -0.4429 C   0  0  0  0  0  0  0  0  0  0  0  0
   -1.8861   -1.7003    0.0132 C   0  0  0  0  0  0  0  0  0  0  0  0
   -3.1041   -0.9504   -0.5774 C   0  0  0  0  0  0  0  0  0  0  0  0
   -4.4655   -1.5778   -0.2098 C   0  0  0  0  0  0  0  0  0  0  0  0
   -4.8175   -1.5411    1.2716 C   0  0  0  0  0  0  0  0  0  0  0  0
   -3.0862    0.5519   -0.1907 C   0  0  0  0  0  0  0  0  0  0  0  0
   -2.0072    1.3114   -0.8335 N   0  0  0  0  0  0  0  0  0  0  0  0
   -0.8487    1.5717   -0.1128 C   0  0  0  0  0  0  0  0  0  0  0  0
   -0.6483    1.2067    1.0367 O   0  0  0  0  0  0  0  0  0  0  0  0
    0.1205    2.3453   -0.9428 C   0  0  0  0  0  0  0  0  0  0  0  0
    1.3517    2.7778   -0.6293 C   0  0  0  0  0  0  0  0  0  0  0  0
    2.0698    2.6590    0.5968 C   0  0  0  0  0  0  0  0  0  0  0  0
    1.5798    2.9127    1.8552 C   0  0  0  0  0  0  0  0  0  0  0  0
    2.6246    2.7295    2.7074 N   0  0  0  0  0  0  0  0  0  0  0  0
    3.7795    2.4426    2.0913 N   0  0  0  0  0  0  0  0  0  0  0  0
    3.4582    2.3674    0.7876 C   0  0  0  0  0  0  0  0  0  0  0  0
    4.4762    2.0384   -0.2120 C   0  0  0  0  0  0  0  0  0  0  0  0
    4.2023    1.1442   -1.2562 C   0  0  0  0  0  0  0  0  0  0  0  0
    5.1803    0.8467   -2.2091 C   0  0  0  0  0  0  0  0  0  0  0  0
    6.4413    1.4344   -2.1228 C   0  0  0  0  0  0  0  0  0  0  0  0
    6.7297    2.3139   -1.0808 C   0  0  0  0  0  0  0  0  0  0  0  0
    5.7529    2.6116   -0.1279 C   0  0  0  0  0  0  0  0  0  0  0  0
   -0.5568    2.6151   -2.5119 S   0  0  0  0  0  0  0  0  0  0  0  0
   -2.0622    1.8011   -2.1213 C   0  0  0  0  0  0  0  0  0  0  0  0
   -3.3157    1.6983   -3.2181 S   0  0  0  0  0  0  0  0  0  0  0  0
   -1.5941   -3.3804    2.4277 H   0  0  0  0  0  0  0  0  0  0  0  0
   -0.4151   -4.4453    1.6364 H   0  0  0  0  0  0  0  0  0  0  0  0
   -1.8375   -5.1285    2.4394 H   0  0  0  0  0  0  0  0  0  0  0  0
   -3.3270   -4.0518    0.7586 H   0  0  0  0  0  0  0  0  0  0  0  0
   -2.2082   -5.1952    0.0415 H   0  0  0  0  0  0  0  0  0  0  0  0
   -2.2279   -3.2972   -1.4172 H   0  0  0  0  0  0  0  0  0  0  0  0
   -0.6772   -3.3645   -0.6087 H   0  0  0  0  0  0  0  0  0  0  0  0
   -0.9815   -1.1870   -0.3354 H   0  0  0  0  0  0  0  0  0  0  0  0
   -1.8754   -1.6146    1.1037 H   0  0  0  0  0  0  0  0  0  0  0  0
   -3.0178   -1.0220   -1.6694 H   0  0  0  0  0  0  0  0  0  0  0  0
   -4.5045   -2.6131   -0.5649 H   0  0  0  0  0  0  0  0  0  0  0  0
   -5.2554   -1.0511   -0.7609 H   0  0  0  0  0  0  0  0  0  0  0  0
   -4.9315   -0.5139    1.6301 H   0  0  0  0  0  0  0  0  0  0  0  0
   -5.7704   -2.0540    1.4393 H   0  0  0  0  0  0  0  0  0  0  0  0
   -4.0606   -2.0369    1.8845 H   0  0  0  0  0  0  0  0  0  0  0  0
   -4.0376    1.0185   -0.4708 H   0  0  0  0  0  0  0  0  0  0  0  0
   -2.9985    0.6558    0.8971 H   0  0  0  0  0  0  0  0  0  0  0  0
    1.9144    3.2808   -1.4172 H   0  0  0  0  0  0  0  0  0  0  0  0
    0.6021    3.1905    2.2219 H   0  0  0  0  0  0  0  0  0  0  0  0
    2.6265    2.8054    3.7190 H   0  0  0  0  0  0  0  0  0  0  0  0
    3.2346    0.6546   -1.3267 H   0  0  0  0  0  0  0  0  0  0  0  0
    4.9605    0.1491   -3.0131 H   0  0  0  0  0  0  0  0  0  0  0  0
    7.2031    1.1995   -2.8617 H   0  0  0  0  0  0  0  0  0  0  0  0
    7.7154    2.7652   -1.0044 H   0  0  0  0  0  0  0  0  0  0  0  0
    5.9896    3.2936    0.6865 H   0  0  0  0  0  0  0  0  0  0  0  0
  1  2  1  0
  2  3  1  0
  3  4  1  0
  4  5  1  0
  5  6  1  0
  6  7  1  0
  5  8  1  0
  8  9  1  0
  9 10  1  0
 10 11  2  0
 10 12  1  0
 12 13  2  3
 13 14  1  0
 14 15  2  0
 15 16  1  0
 16 17  1  0
 17 18  2  0
 18 19  1  0
 19 20  2  0
 20 21  1  0
 21 22  2  0
 22 23  1  0
 23 24  2  0
 12 25  1  0
 25 26  1  0
 26 27  2  0
 26  9  1  0
 18 14  1  0
 24 19  1  0
  1 28  1  0
  1 29  1  0
  1 30  1  0
  2 31  1  0
  2 32  1  0
  3 33  1  0
  3 34  1  0
  4 35  1  0
  4 36  1  0
  5 37  1  0
  6 38  1  0
  6 39  1  0
  7 40  1  0
  7 41  1  0
  7 42  1  0
  8 43  1  0
  8 44  1  0
 13 45  1  0
 15 46  1  0
 16 47  1  0
 20 48  1  0
 21 49  1  0
 22 50  1  0
 23 51  1  0
 24 52  1  0
M  END
$$$$
