
     RDKit          3D

 47 49  0  0  0  0  0  0  0  0999 V2000
    4.6998   -3.3680    1.5771 C   0  0  0  0  0  0  0  0  0  0  0  0
    5.2769   -2.2819    0.6748 C   0  0  0  0  0  0  0  0  0  0  0  0
    4.3532   -1.2320    0.2501 N   0  0  0  0  0  0  0  0  0  0  0  0
    3.2842   -1.6728   -0.6604 C   0  0  0  0  0  0  0  0  0  0  0  0
    1.8356   -1.4479   -0.1630 C   0  0  0  0  0  0  0  0  0  0  0  0
    1.5970   -0.0520    0.2743 N   0  0  0  0  0  0  0  0  0  0  0  0
    0.3453    0.5820    0.1884 C   0  0  0  0  0  0  0  0  0  0  0  0
   -0.8225   -0.0744    0.0186 C   0  0  0  0  0  0  0  0  0  0  0  0
   -2.1315    0.5638   -0.0448 C   0  0  0  0  0  0  0  0  0  0  0  0
   -3.2338   -0.1458   -0.3531 C   0  0  0  0  0  0  0  0  0  0  0  0
   -4.5821    0.4291   -0.4327 C   0  0  0  0  0  0  0  0  0  0  0  0
   -5.6588   -0.2689   -0.8793 C   0  0  0  0  0  0  0  0  0  0  0  0
   -5.5599   -1.6175   -1.3333 C   0  0  0  0  0  0  0  0  0  0  0  0
   -5.4647   -2.7128   -1.7055 N   0  0  0  0  0  0  0  0  0  0  0  0
   -6.9578    0.3176   -0.9258 C   0  0  0  0  0  0  0  0  0  0  0  0
   -8.0071    0.8131   -0.9617 N   0  0  0  0  0  0  0  0  0  0  0  0
   -4.6802    1.8777    0.0324 C   0  0  0  0  0  0  0  0  0  0  0  0
   -3.4438    2.6907   -0.3430 C   0  0  0  0  0  0  0  0  0  0  0  0
   -2.1791    2.0494    0.2397 C   0  0  0  0  0  0  0  0  0  0  0  0
   -0.9296    2.7421   -0.3049 C   0  0  0  0  0  0  0  0  0  0  0  0
    0.3339    2.1035    0.2714 C   0  0  0  0  0  0  0  0  0  0  0  0
    2.7895    0.6228    0.8425 C   0  0  0  0  0  0  0  0  0  0  0  0
    3.8465   -0.3867    1.3373 C   0  0  0  0  0  0  0  0  0  0  0  0
    5.4846   -4.0832    1.8455 H   0  0  0  0  0  0  0  0  0  0  0  0
    3.8963   -3.9229    1.0843 H   0  0  0  0  0  0  0  0  0  0  0  0
    4.3081   -2.9593    2.5114 H   0  0  0  0  0  0  0  0  0  0  0  0
    5.7019   -2.7590   -0.2195 H   0  0  0  0  0  0  0  0  0  0  0  0
    6.1309   -1.8145    1.1850 H   0  0  0  0  0  0  0  0  0  0  0  0
    3.4013   -2.7253   -0.9440 H   0  0  0  0  0  0  0  0  0  0  0  0
    3.4127   -1.0989   -1.5874 H   0  0  0  0  0  0  0  0  0  0  0  0
    1.6167   -2.1258    0.6710 H   0  0  0  0  0  0  0  0  0  0  0  0
    1.1661   -1.7091   -0.9914 H   0  0  0  0  0  0  0  0  0  0  0  0
   -0.8173   -1.1572   -0.0564 H   0  0  0  0  0  0  0  0  0  0  0  0
   -3.1179   -1.2086   -0.5655 H   0  0  0  0  0  0  0  0  0  0  0  0
   -4.8096    1.8886    1.1229 H   0  0  0  0  0  0  0  0  0  0  0  0
   -5.5490    2.3871   -0.3956 H   0  0  0  0  0  0  0  0  0  0  0  0
   -3.3681    2.7616   -1.4370 H   0  0  0  0  0  0  0  0  0  0  0  0
   -3.5489    3.7155    0.0338 H   0  0  0  0  0  0  0  0  0  0  0  0
   -2.1985    2.1785    1.3314 H   0  0  0  0  0  0  0  0  0  0  0  0
   -0.9037    2.6724   -1.4011 H   0  0  0  0  0  0  0  0  0  0  0  0
   -0.9433    3.8103   -0.0567 H   0  0  0  0  0  0  0  0  0  0  0  0
    0.4455    2.3998    1.3202 H   0  0  0  0  0  0  0  0  0  0  0  0
    1.1866    2.5164   -0.2791 H   0  0  0  0  0  0  0  0  0  0  0  0
    2.4940    1.2429    1.6968 H   0  0  0  0  0  0  0  0  0  0  0  0
    3.2279    1.2823    0.0844 H   0  0  0  0  0  0  0  0  0  0  0  0
    3.3936   -0.9911    2.1313 H   0  0  0  0  0  0  0  0  0  0  0  0
    4.6793    0.1682    1.7835 H   0  0  0  0  0  0  0  0  0  0  0  0
  1  2  1  0
  2  3  1  0
  3  4  1  0
  4  5  1  0
  5  6  1  0
  6  7  1  0
  7  8  2  0
  8  9  1  0
  9 10  2  0
 10 11  1  0
 11 12  2  3
 12 13  1  0
 13 14  3  0
 12 15  1  0
 15 16  3  0
 11 17  1  0
 17 18  1  0
 18 19  1  0
 19 20  1  0
 20 21  1  0
  6 22  1  0
 22 23  1  0
 23  3  1  0
 21  7  1  0
 19  9  1  0
  1 24  1  0
  1 25  1  0
  1 26  1  0
  2 27  1  0
  2 28  1  0
  4 29  1  0
  4 30  1  0
  5 31  1  0
  5 32  1  0
  8 33  1  0
 10 34  1  0
 17 35  1  0
 17 36  1  0
 18 37  1  0
 18 38  1  0
 19 39  1  0
 20 40  1  0
 20 41  1  0
 21 42  1  0
 21 43  1  0
 22 44  1  0
 22 45  1  0
 23 46  1  0
 23 47  1  0
M  END
$$$$
