
     RDKit          3D

 41 43  0  0  0  0  0  0  0  0999 V2000
   -3.6938   -1.5539   -1.5720 O   0  0  0  0  0  0  0  0  0  0  0  0
   -4.2890   -0.7800   -0.8377 C   0  0  0  0  0  0  0  0  0  0  0  0
   -3.7383    0.0957    0.0796 O   0  0  0  0  0  0  0  0  0  0  0  0
   -2.3418    0.0658    0.1646 C   0  0  0  0  0  0  0  0  0  0  0  0
   -1.6779   -1.0558    0.6628 C   0  0  0  0  0  0  0  0  0  0  0  0
   -0.2876   -1.0285    0.7854 C   0  0  0  0  0  0  0  0  0  0  0  0
    0.4201    0.1247    0.4257 C   0  0  0  0  0  0  0  0  0  0  0  0
    1.8918    0.1281    0.5709 C   0  0  0  0  0  0  0  0  0  0  0  0
    2.5979    1.1714    0.2715 N   0  0  0  0  0  0  0  0  0  0  0  0
    3.9599    1.0980    0.3897 N   0  0  0  0  0  0  0  0  0  0  0  0
    4.7578   -0.0275    0.2266 C   0  0  0  0  0  0  0  0  0  0  0  0
    4.3821   -1.1872    0.0888 O   0  0  0  0  0  0  0  0  0  0  0  0
    6.2213    0.2992    0.2104 C   0  0  0  0  0  0  0  0  0  0  0  0
    7.1594   -0.7176    0.0775 C   0  0  0  0  0  0  0  0  0  0  0  0
    8.5068   -0.3699    0.0630 C   0  0  0  0  0  0  0  0  0  0  0  0
    8.8674    0.9693    0.1798 C   0  0  0  0  0  0  0  0  0  0  0  0
    7.8630    1.9171    0.3069 C   0  0  0  0  0  0  0  0  0  0  0  0
    6.5456    1.6197    0.3251 N   0  0  0  0  0  0  0  0  0  0  0  0
   -0.2581    1.2511   -0.0555 C   0  0  0  0  0  0  0  0  0  0  0  0
   -1.6477    1.2245   -0.1803 C   0  0  0  0  0  0  0  0  0  0  0  0
   -5.7742   -0.6543   -0.8240 C   0  0  0  0  0  0  0  0  0  0  0  0
   -6.4551    0.2107    0.0458 C   0  0  0  0  0  0  0  0  0  0  0  0
   -7.8516    0.2851    0.0139 C   0  0  0  0  0  0  0  0  0  0  0  0
   -8.5688   -0.5032   -0.8850 C   0  0  0  0  0  0  0  0  0  0  0  0
  -10.4554   -0.3997   -0.9248 Br  0  0  0  0  0  0  0  0  0  0  0  0
   -7.9048   -1.3668   -1.7537 C   0  0  0  0  0  0  0  0  0  0  0  0
   -6.5095   -1.4421   -1.7227 C   0  0  0  0  0  0  0  0  0  0  0  0
   -2.2310   -1.9474    0.9431 H   0  0  0  0  0  0  0  0  0  0  0  0
    0.2329   -1.9072    1.1577 H   0  0  0  0  0  0  0  0  0  0  0  0
    2.3291   -0.7979    0.9784 H   0  0  0  0  0  0  0  0  0  0  0  0
    4.4485    1.9917    0.3230 H   0  0  0  0  0  0  0  0  0  0  0  0
    6.8492   -1.7536   -0.0141 H   0  0  0  0  0  0  0  0  0  0  0  0
    9.2690   -1.1377   -0.0397 H   0  0  0  0  0  0  0  0  0  0  0  0
    9.9103    1.2683    0.1710 H   0  0  0  0  0  0  0  0  0  0  0  0
    8.1029    2.9731    0.3999 H   0  0  0  0  0  0  0  0  0  0  0  0
    0.2910    2.1480   -0.3321 H   0  0  0  0  0  0  0  0  0  0  0  0
   -2.1785    2.0979   -0.5467 H   0  0  0  0  0  0  0  0  0  0  0  0
   -5.9180    0.8345    0.7565 H   0  0  0  0  0  0  0  0  0  0  0  0
   -8.3681    0.9593    0.6930 H   0  0  0  0  0  0  0  0  0  0  0  0
   -8.4593   -1.9837   -2.4567 H   0  0  0  0  0  0  0  0  0  0  0  0
   -5.9975   -2.1193   -2.4052 H   0  0  0  0  0  0  0  0  0  0  0  0
  1  2  2  0
  2  3  1  0
  3  4  1  0
  4  5  2  0
  5  6  1  0
  6  7  2  0
  7  8  1  0
  8  9  2  3
  9 10  1  0
 10 11  1  0
 11 12  2  0
 11 13  1  0
 13 14  2  0
 14 15  1  0
 15 16  2  0
 16 17  1  0
 17 18  2  0
  7 19  1  0
 19 20  2  0
  2 21  1  0
 21 22  2  0
 22 23  1  0
 23 24  2  0
 24 25  1  0
 24 26  1  0
 26 27  2  0
 20  4  1  0
 27 21  1  0
 18 13  1  0
  5 28  1  0
  6 29  1  0
  8 30  1  0
 10 31  1  0
 14 32  1  0
 15 33  1  0
 16 34  1  0
 17 35  1  0
 19 36  1  0
 20 37  1  0
 22 38  1  0
 23 39  1  0
 26 40  1  0
 27 41  1  0
M  END
$$$$
