
     RDKit          3D

 52 53  0  0  0  0  0  0  0  0999 V2000
   -7.6163    0.7239    0.3468 C   0  0  0  0  0  0  0  0  0  0  0  0
   -6.1019    0.7446    0.1894 C   0  0  0  0  0  0  0  0  0  0  0  0
   -5.5338   -0.5496   -0.4275 C   0  0  0  0  0  0  0  0  0  0  0  0
   -6.0090   -0.7748   -1.8674 C   0  0  0  0  0  0  0  0  0  0  0  0
   -4.0138   -0.5571   -0.3526 C   0  0  0  0  0  0  0  0  0  0  0  0
   -3.3591   -1.5077    0.4414 C   0  0  0  0  0  0  0  0  0  0  0  0
   -1.9638   -1.5294    0.5288 C   0  0  0  0  0  0  0  0  0  0  0  0
   -1.1846   -0.6056   -0.1830 C   0  0  0  0  0  0  0  0  0  0  0  0
    0.3313   -0.5921   -0.0909 C   0  0  0  0  0  0  0  0  0  0  0  0
    0.9436   -1.9780   -0.3196 C   0  0  0  0  0  0  0  0  0  0  0  0
    0.7390   -0.0431    1.1983 N   0  0  0  0  0  0  0  0  0  0  0  0
    1.9024    0.5466    1.5797 C   0  0  0  0  0  0  0  0  0  0  0  0
    2.0117    1.0637    3.1629 S   0  0  0  0  0  0  0  0  0  0  0  0
    2.8588    0.6856    0.6171 N   0  0  0  0  0  0  0  0  0  0  0  0
    4.2267    1.1942    0.7936 C   0  0  0  0  0  0  0  0  0  0  0  0
    5.1391    0.0740    1.3288 C   0  0  0  0  0  0  0  0  0  0  0  0
    6.5819    0.2430    0.8705 C   0  0  0  0  0  0  0  0  0  0  0  0
    6.7000    0.2015   -0.6536 C   0  0  0  0  0  0  0  0  0  0  0  0
    5.4719    0.7587   -1.3762 C   0  0  0  0  0  0  0  0  0  0  0  0
    4.7376    1.7927   -0.5300 C   0  0  0  0  0  0  0  0  0  0  0  0
   -1.8421    0.3553   -0.9642 C   0  0  0  0  0  0  0  0  0  0  0  0
   -3.2372    0.3769   -1.0511 C   0  0  0  0  0  0  0  0  0  0  0  0
   -7.9504    1.6237    0.8736 H   0  0  0  0  0  0  0  0  0  0  0  0
   -8.1206    0.7033   -0.6236 H   0  0  0  0  0  0  0  0  0  0  0  0
   -7.9399   -0.1465    0.9260 H   0  0  0  0  0  0  0  0  0  0  0  0
   -5.8215    1.6165   -0.4144 H   0  0  0  0  0  0  0  0  0  0  0  0
   -5.6582    0.8983    1.1817 H   0  0  0  0  0  0  0  0  0  0  0  0
   -5.9082   -1.3942    0.1670 H   0  0  0  0  0  0  0  0  0  0  0  0
   -5.5327   -1.6607   -2.3028 H   0  0  0  0  0  0  0  0  0  0  0  0
   -5.7763    0.0798   -2.5118 H   0  0  0  0  0  0  0  0  0  0  0  0
   -7.0910   -0.9359   -1.9045 H   0  0  0  0  0  0  0  0  0  0  0  0
   -3.9315   -2.2403    1.0065 H   0  0  0  0  0  0  0  0  0  0  0  0
   -1.4951   -2.2743    1.1678 H   0  0  0  0  0  0  0  0  0  0  0  0
    0.7213    0.0706   -0.8731 H   0  0  0  0  0  0  0  0  0  0  0  0
    2.0368   -1.9269   -0.3558 H   0  0  0  0  0  0  0  0  0  0  0  0
    0.6884   -2.6770    0.4844 H   0  0  0  0  0  0  0  0  0  0  0  0
    0.5978   -2.4083   -1.2659 H   0  0  0  0  0  0  0  0  0  0  0  0
    0.0548   -0.0999    1.9449 H   0  0  0  0  0  0  0  0  0  0  0  0
    2.7120    0.1718   -0.2361 H   0  0  0  0  0  0  0  0  0  0  0  0
    4.1923    2.0097    1.5250 H   0  0  0  0  0  0  0  0  0  0  0  0
    5.0992    0.0566    2.4242 H   0  0  0  0  0  0  0  0  0  0  0  0
    4.7764   -0.9078    0.9957 H   0  0  0  0  0  0  0  0  0  0  0  0
    6.9678    1.2011    1.2412 H   0  0  0  0  0  0  0  0  0  0  0  0
    7.2139   -0.5375    1.3091 H   0  0  0  0  0  0  0  0  0  0  0  0
    6.8647   -0.8307   -0.9861 H   0  0  0  0  0  0  0  0  0  0  0  0
    7.5933    0.7637   -0.9516 H   0  0  0  0  0  0  0  0  0  0  0  0
    4.7875   -0.0640   -1.6183 H   0  0  0  0  0  0  0  0  0  0  0  0
    5.7780    1.1991   -2.3319 H   0  0  0  0  0  0  0  0  0  0  0  0
    3.9118    2.2300   -1.1040 H   0  0  0  0  0  0  0  0  0  0  0  0
    5.4309    2.6143   -0.3072 H   0  0  0  0  0  0  0  0  0  0  0  0
   -1.2722    1.1046   -1.5101 H   0  0  0  0  0  0  0  0  0  0  0  0
   -3.7115    1.1378   -1.6669 H   0  0  0  0  0  0  0  0  0  0  0  0
  1  2  1  0
  2  3  1  0
  3  4  1  0
  3  5  1  0
  5  6  2  0
  6  7  1  0
  7  8  2  0
  8  9  1  0
  9 10  1  0
  9 11  1  0
 11 12  1  0
 12 13  2  0
 12 14  1  0
 14 15  1  0
 15 16  1  0
 16 17  1  0
 17 18  1  0
 18 19  1  0
 19 20  1  0
  8 21  1  0
 21 22  2  0
 22  5  1  0
 20 15  1  0
  1 23  1  0
  1 24  1  0
  1 25  1  0
  2 26  1  0
  2 27  1  0
  3 28  1  0
  4 29  1  0
  4 30  1  0
  4 31  1  0
  6 32  1  0
  7 33  1  0
  9 34  1  0
 10 35  1  0
 10 36  1  0
 10 37  1  0
 11 38  1  0
 14 39  1  0
 15 40  1  0
 16 41  1  0
 16 42  1  0
 17 43  1  0
 17 44  1  0
 18 45  1  0
 18 46  1  0
 19 47  1  0
 19 48  1  0
 20 49  1  0
 20 50  1  0
 21 51  1  0
 22 52  1  0
M  END
$$$$
