
     RDKit          3D

 61 66  0  0  0  0  0  0  0  0999 V2000
   -2.5982   -0.8982   -2.9541 O   0  0  0  0  0  0  0  0  0  0  0  0
   -2.7427   -1.1018   -1.7428 C   0  0  0  0  0  0  0  0  0  0  0  0
   -1.9684   -2.2441   -1.1150 C   0  0  0  0  0  0  0  0  0  0  0  0
   -0.5526   -2.0784   -1.3405 N   0  0  0  0  0  0  0  0  0  0  0  0
    0.1651   -2.9934   -2.0138 N   0  0  0  0  0  0  0  0  0  0  0  0
    1.4218   -2.5926   -1.8921 N   0  0  0  0  0  0  0  0  0  0  0  0
    1.4096   -1.4645   -1.1032 C   0  0  0  0  0  0  0  0  0  0  0  0
    2.6204   -0.7443   -0.7343 C   0  0  0  0  0  0  0  0  0  0  0  0
    2.5674    0.3921    0.0753 C   0  0  0  0  0  0  0  0  0  0  0  0
    3.7420    1.0729    0.4265 C   0  0  0  0  0  0  0  0  0  0  0  0
    5.0111    0.6475   -0.0010 C   0  0  0  0  0  0  0  0  0  0  0  0
    6.1491    1.3664    0.3673 N   0  0  0  0  0  0  0  0  0  0  0  0
    6.3204    1.6547    1.8129 C   0  0  0  0  0  0  0  0  0  0  0  0
    7.1289    0.5322    2.4864 C   0  0  0  0  0  0  0  0  0  0  0  0
    8.4099    0.3573    1.8559 O   0  0  0  0  0  0  0  0  0  0  0  0
    8.2429    0.0260    0.4662 C   0  0  0  0  0  0  0  0  0  0  0  0
    7.4528    1.1127   -0.2833 C   0  0  0  0  0  0  0  0  0  0  0  0
    5.0402   -0.4781   -0.8354 C   0  0  0  0  0  0  0  0  0  0  0  0
    3.8707   -1.1693   -1.1908 C   0  0  0  0  0  0  0  0  0  0  0  0
    0.1683   -1.1337   -0.7011 N   0  0  0  0  0  0  0  0  0  0  0  0
   -3.6954   -0.4393   -0.9413 N   0  0  0  0  0  0  0  0  0  0  0  0
   -3.6577   -0.4982    0.4813 C   0  0  0  0  0  0  0  0  0  0  0  0
   -2.5076   -0.0908    1.1723 C   0  0  0  0  0  0  0  0  0  0  0  0
   -2.4452   -0.1952    2.5618 C   0  0  0  0  0  0  0  0  0  0  0  0
   -3.5323   -0.7005    3.2703 C   0  0  0  0  0  0  0  0  0  0  0  0
   -4.6874   -1.0901    2.5926 C   0  0  0  0  0  0  0  0  0  0  0  0
   -4.7572   -0.9871    1.1966 C   0  0  0  0  0  0  0  0  0  0  0  0
   -6.0065   -1.3562    0.4533 C   0  0  0  0  0  0  0  0  0  0  0  0
   -6.6734   -0.0918   -0.0709 C   0  0  0  0  0  0  0  0  0  0  0  0
   -5.9041    0.7706   -1.0543 C   0  0  0  0  0  0  0  0  0  0  0  0
   -6.6548    1.8349   -1.6097 C   0  0  0  0  0  0  0  0  0  0  0  0
   -6.1204    2.6855   -2.5726 C   0  0  0  0  0  0  0  0  0  0  0  0
   -4.8186    2.4922   -3.0017 C   0  0  0  0  0  0  0  0  0  0  0  0
   -4.0559    1.4553   -2.4595 C   0  0  0  0  0  0  0  0  0  0  0  0
   -4.5669    0.5788   -1.4783 C   0  0  0  0  0  0  0  0  0  0  0  0
   -2.1180   -2.3907   -0.0462 H   0  0  0  0  0  0  0  0  0  0  0  0
   -2.2905   -3.1693   -1.6073 H   0  0  0  0  0  0  0  0  0  0  0  0
    1.6127    0.7714    0.4329 H   0  0  0  0  0  0  0  0  0  0  0  0
    3.6434    1.9784    1.0204 H   0  0  0  0  0  0  0  0  0  0  0  0
    6.8791    2.5952    1.8978 H   0  0  0  0  0  0  0  0  0  0  0  0
    5.3752    1.8008    2.3440 H   0  0  0  0  0  0  0  0  0  0  0  0
    6.5864   -0.4203    2.4623 H   0  0  0  0  0  0  0  0  0  0  0  0
    7.3121    0.7869    3.5350 H   0  0  0  0  0  0  0  0  0  0  0  0
    7.7560   -0.9527    0.3960 H   0  0  0  0  0  0  0  0  0  0  0  0
    9.2421   -0.0695    0.0297 H   0  0  0  0  0  0  0  0  0  0  0  0
    8.0246    2.0485   -0.2371 H   0  0  0  0  0  0  0  0  0  0  0  0
    7.3481    0.8740   -1.3472 H   0  0  0  0  0  0  0  0  0  0  0  0
    5.9750   -0.8656   -1.2270 H   0  0  0  0  0  0  0  0  0  0  0  0
    3.9555   -2.0437   -1.8335 H   0  0  0  0  0  0  0  0  0  0  0  0
   -1.6586    0.3300    0.6381 H   0  0  0  0  0  0  0  0  0  0  0  0
   -1.5499    0.1238    3.0899 H   0  0  0  0  0  0  0  0  0  0  0  0
   -3.4852   -0.7785    4.3539 H   0  0  0  0  0  0  0  0  0  0  0  0
   -5.5354   -1.4647    3.1620 H   0  0  0  0  0  0  0  0  0  0  0  0
   -6.7014   -1.8849    1.1171 H   0  0  0  0  0  0  0  0  0  0  0  0
   -5.7725   -2.0542   -0.3602 H   0  0  0  0  0  0  0  0  0  0  0  0
   -7.6089   -0.3996   -0.5573 H   0  0  0  0  0  0  0  0  0  0  0  0
   -6.9506    0.5445    0.7813 H   0  0  0  0  0  0  0  0  0  0  0  0
   -7.6844    1.9958   -1.2921 H   0  0  0  0  0  0  0  0  0  0  0  0
   -6.7203    3.4913   -2.9864 H   0  0  0  0  0  0  0  0  0  0  0  0
   -4.3841    3.1482   -3.7514 H   0  0  0  0  0  0  0  0  0  0  0  0
   -3.0259    1.3733   -2.8005 H   0  0  0  0  0  0  0  0  0  0  0  0
  1  2  2  0
  2  3  1  0
  3  4  1  0
  4  5  1  0
  5  6  2  0
  6  7  1  0
  7  8  1  0
  8  9  2  0
  9 10  1  0
 10 11  2  0
 11 12  1  0
 12 13  1  0
 13 14  1  0
 14 15  1  0
 15 16  1  0
 16 17  1  0
 11 18  1  0
 18 19  2  0
  7 20  2  0
  2 21  1  0
 21 22  1  0
 22 23  2  0
 23 24  1  0
 24 25  2  0
 25 26  1  0
 26 27  2  0
 27 28  1  0
 28 29  1  0
 29 30  1  0
 30 31  2  0
 31 32  1  0
 32 33  2  0
 33 34  1  0
 34 35  2  0
 20  4  1  0
 35 21  1  0
 19  8  1  0
 27 22  1  0
 35 30  1  0
 17 12  1  0
  3 36  1  0
  3 37  1  0
  9 38  1  0
 10 39  1  0
 13 40  1  0
 13 41  1  0
 14 42  1  0
 14 43  1  0
 16 44  1  0
 16 45  1  0
 17 46  1  0
 17 47  1  0
 18 48  1  0
 19 49  1  0
 23 50  1  0
 24 51  1  0
 25 52  1  0
 26 53  1  0
 28 54  1  0
 28 55  1  0
 29 56  1  0
 29 57  1  0
 31 58  1  0
 32 59  1  0
 33 60  1  0
 34 61  1  0
M  END
$$$$
