
     RDKit          3D

 55 58  0  0  0  0  0  0  0  0999 V2000
   -3.7284   -0.7744   -3.2521 C   0  0  0  0  0  0  0  0  0  0  0  0
   -3.7107    0.5200   -2.4512 C   0  0  0  0  0  0  0  0  0  0  0  0
   -4.4912    0.3860   -1.2157 N   0  0  0  0  0  0  0  0  0  0  0  0
   -5.8411    0.6859   -1.1295 C   0  0  0  0  0  0  0  0  0  0  0  0
   -6.6191    0.5424   -0.0425 C   0  0  0  0  0  0  0  0  0  0  0  0
   -8.0513    0.8976   -0.0651 C   0  0  0  0  0  0  0  0  0  0  0  0
   -8.8521    0.7960    0.8452 O   0  0  0  0  0  0  0  0  0  0  0  0
   -8.4627    1.3824   -1.2551 O   0  0  0  0  0  0  0  0  0  0  0  0
   -5.9517    0.0031    1.1728 C   0  0  0  0  0  0  0  0  0  0  0  0
   -6.5310   -0.1599    2.2401 O   0  0  0  0  0  0  0  0  0  0  0  0
   -4.5277   -0.3503    1.0725 C   0  0  0  0  0  0  0  0  0  0  0  0
   -3.8379   -0.8837    2.1303 C   0  0  0  0  0  0  0  0  0  0  0  0
   -2.5353   -1.2218    2.0611 N   0  0  0  0  0  0  0  0  0  0  0  0
   -1.8974   -1.0165    0.8977 C   0  0  0  0  0  0  0  0  0  0  0  0
   -0.5720   -1.3770    0.7960 N   0  0  0  0  0  0  0  0  0  0  0  0
    0.2358   -0.8190   -0.2918 C   0  0  0  0  0  0  0  0  0  0  0  0
    1.6221   -0.3607    0.2090 C   0  0  0  0  0  0  0  0  0  0  0  0
    2.3664   -1.4187    0.9199 N   0  0  0  0  0  0  0  0  0  0  0  0
    3.6944   -1.6870    0.6792 C   0  0  0  0  0  0  0  0  0  0  0  0
    4.4061   -3.2088    0.8147 S   0  0  0  0  0  0  0  0  0  0  0  0
    4.5590   -0.6923    0.2834 N   0  0  0  0  0  0  0  0  0  0  0  0
    4.5907    0.6816    0.5309 C   0  0  0  0  0  0  0  0  0  0  0  0
    3.6525    1.3982    0.8515 O   0  0  0  0  0  0  0  0  0  0  0  0
    5.9144    1.3219    0.2939 C   0  0  0  0  0  0  0  0  0  0  0  0
    5.9466    2.5824   -0.3147 C   0  0  0  0  0  0  0  0  0  0  0  0
    7.1686    3.2126   -0.5530 C   0  0  0  0  0  0  0  0  0  0  0  0
    8.3585    2.5917   -0.1738 C   0  0  0  0  0  0  0  0  0  0  0  0
    8.3302    1.3453    0.4526 C   0  0  0  0  0  0  0  0  0  0  0  0
    7.1102    0.7095    0.6931 C   0  0  0  0  0  0  0  0  0  0  0  0
    1.5091   -2.3663    1.6651 C   0  0  0  0  0  0  0  0  0  0  0  0
    0.1210   -1.8007    2.0132 C   0  0  0  0  0  0  0  0  0  0  0  0
   -2.5136   -0.4991   -0.1801 N   0  0  0  0  0  0  0  0  0  0  0  0
   -3.8194   -0.1649   -0.0982 C   0  0  0  0  0  0  0  0  0  0  0  0
   -4.7532   -1.0670   -3.5046 H   0  0  0  0  0  0  0  0  0  0  0  0
   -3.1708   -0.6489   -4.1855 H   0  0  0  0  0  0  0  0  0  0  0  0
   -3.2735   -1.5987   -2.6938 H   0  0  0  0  0  0  0  0  0  0  0  0
   -4.1387    1.3202   -3.0687 H   0  0  0  0  0  0  0  0  0  0  0  0
   -2.6783    0.8321   -2.2507 H   0  0  0  0  0  0  0  0  0  0  0  0
   -6.2457    1.0696   -2.0638 H   0  0  0  0  0  0  0  0  0  0  0  0
   -9.4146    1.5649   -1.0997 H   0  0  0  0  0  0  0  0  0  0  0  0
   -4.3144   -1.0655    3.0897 H   0  0  0  0  0  0  0  0  0  0  0  0
    0.3632   -1.5942   -1.0569 H   0  0  0  0  0  0  0  0  0  0  0  0
   -0.2392    0.0435   -0.7738 H   0  0  0  0  0  0  0  0  0  0  0  0
    2.1994   -0.0008   -0.6477 H   0  0  0  0  0  0  0  0  0  0  0  0
    1.4743    0.4579    0.9217 H   0  0  0  0  0  0  0  0  0  0  0  0
    5.4527   -1.0974    0.0399 H   0  0  0  0  0  0  0  0  0  0  0  0
    5.0201    3.0754   -0.6032 H   0  0  0  0  0  0  0  0  0  0  0  0
    7.1920    4.1906   -1.0280 H   0  0  0  0  0  0  0  0  0  0  0  0
    9.3099    3.0867   -0.3553 H   0  0  0  0  0  0  0  0  0  0  0  0
    9.2603    0.8757    0.7651 H   0  0  0  0  0  0  0  0  0  0  0  0
    7.1113   -0.2418    1.2187 H   0  0  0  0  0  0  0  0  0  0  0  0
    1.3847   -3.2587    1.0385 H   0  0  0  0  0  0  0  0  0  0  0  0
    2.0285   -2.6637    2.5829 H   0  0  0  0  0  0  0  0  0  0  0  0
    0.2310   -0.9489    2.6966 H   0  0  0  0  0  0  0  0  0  0  0  0
   -0.4421   -2.5864    2.5318 H   0  0  0  0  0  0  0  0  0  0  0  0
  1  2  1  0
  2  3  1  0
  3  4  1  0
  4  5  2  0
  5  6  1  0
  6  7  2  0
  6  8  1  0
  5  9  1  0
  9 10  2  0
  9 11  1  0
 11 12  2  0
 12 13  1  0
 13 14  2  0
 14 15  1  0
 15 16  1  0
 16 17  1  0
 17 18  1  0
 18 19  1  0
 19 20  2  0
 19 21  1  0
 21 22  1  0
 22 23  2  0
 22 24  1  0
 24 25  2  0
 25 26  1  0
 26 27  2  0
 27 28  1  0
 28 29  2  0
 18 30  1  0
 30 31  1  0
 14 32  1  0
 32 33  2  0
 33  3  1  0
 33 11  1  0
 31 15  1  0
 29 24  1  0
  1 34  1  0
  1 35  1  0
  1 36  1  0
  2 37  1  0
  2 38  1  0
  4 39  1  0
  8 40  1  0
 12 41  1  0
 16 42  1  0
 16 43  1  0
 17 44  1  0
 17 45  1  0
 21 46  1  0
 25 47  1  0
 26 48  1  0
 27 49  1  0
 28 50  1  0
 29 51  1  0
 30 52  1  0
 30 53  1  0
 31 54  1  0
 31 55  1  0
M  END
$$$$
