
     RDKit          3D

 45 47  0  0  0  0  0  0  0  0999 V2000
   -4.1463   -2.2433    3.4598 C   0  0  0  0  0  0  0  0  0  0  0  0
   -3.5027   -1.4897    2.4381 O   0  0  0  0  0  0  0  0  0  0  0  0
   -4.2632   -1.1546    1.3396 C   0  0  0  0  0  0  0  0  0  0  0  0
   -5.6223   -1.4464    1.1879 C   0  0  0  0  0  0  0  0  0  0  0  0
   -6.2959   -1.0585    0.0281 C   0  0  0  0  0  0  0  0  0  0  0  0
   -5.6167   -0.3808   -0.9814 C   0  0  0  0  0  0  0  0  0  0  0  0
   -4.2602   -0.0821   -0.8382 C   0  0  0  0  0  0  0  0  0  0  0  0
   -3.5761   -0.4608    0.3182 C   0  0  0  0  0  0  0  0  0  0  0  0
   -2.2067   -0.1924    0.5426 N   0  0  0  0  0  0  0  0  0  0  0  0
   -1.3189    0.4834   -0.2710 C   0  0  0  0  0  0  0  0  0  0  0  0
   -1.5759    0.9933   -1.3560 O   0  0  0  0  0  0  0  0  0  0  0  0
    0.0837    0.5613    0.3423 C   0  0  0  0  0  0  0  0  0  0  0  0
    0.9979    1.4916   -0.4692 C   0  0  0  0  0  0  0  0  0  0  0  0
    1.6389    0.7781   -1.6560 C   0  0  0  0  0  0  0  0  0  0  0  0
    2.3577   -0.4415   -1.2282 N   0  0  0  0  0  0  0  0  0  0  0  0
    3.8077   -0.8263   -2.0144 S   0  0  0  0  0  6  0  0  0  0  0  0
    4.2148   -2.1466   -1.5830 O   0  0  0  0  0  0  0  0  0  0  0  0
    3.6634   -0.4803   -3.4119 O   0  0  0  0  0  0  0  0  0  0  0  0
    5.0765    0.2667   -1.3992 C   0  0  0  0  0  0  0  0  0  0  0  0
    5.0753    1.3016   -0.4821 C   0  0  0  0  0  0  0  0  0  0  0  0
    6.3651    1.8868   -0.3187 C   0  0  0  0  0  0  0  0  0  0  0  0
    7.3088    1.2820   -1.1181 C   0  0  0  0  0  0  0  0  0  0  0  0
    6.6403    0.0182   -2.0579 S   0  0  0  0  0  0  0  0  0  0  0  0
    2.1689   -0.8910    0.1581 C   0  0  0  0  0  0  0  0  0  0  0  0
    0.6831   -0.8462    0.4989 C   0  0  0  0  0  0  0  0  0  0  0  0
   -4.9547   -1.6679    3.9232 H   0  0  0  0  0  0  0  0  0  0  0  0
   -4.5094   -3.2029    3.0758 H   0  0  0  0  0  0  0  0  0  0  0  0
   -3.4035   -2.4569    4.2350 H   0  0  0  0  0  0  0  0  0  0  0  0
   -6.1879   -1.9715    1.9500 H   0  0  0  0  0  0  0  0  0  0  0  0
   -7.3530   -1.2859   -0.0892 H   0  0  0  0  0  0  0  0  0  0  0  0
   -6.1407   -0.0816   -1.8860 H   0  0  0  0  0  0  0  0  0  0  0  0
   -3.7658    0.4452   -1.6480 H   0  0  0  0  0  0  0  0  0  0  0  0
   -1.8755   -0.5436    1.4356 H   0  0  0  0  0  0  0  0  0  0  0  0
   -0.0385    1.0149    1.3357 H   0  0  0  0  0  0  0  0  0  0  0  0
    0.4544    2.3769   -0.8197 H   0  0  0  0  0  0  0  0  0  0  0  0
    1.7893    1.8680    0.1916 H   0  0  0  0  0  0  0  0  0  0  0  0
    2.3207    1.4767   -2.1528 H   0  0  0  0  0  0  0  0  0  0  0  0
    0.8783    0.4860   -2.3879 H   0  0  0  0  0  0  0  0  0  0  0  0
    4.1912    1.6263    0.0486 H   0  0  0  0  0  0  0  0  0  0  0  0
    6.5899    2.7091    0.3501 H   0  0  0  0  0  0  0  0  0  0  0  0
    8.3612    1.5195   -1.2002 H   0  0  0  0  0  0  0  0  0  0  0  0
    2.7438   -0.2654    0.8484 H   0  0  0  0  0  0  0  0  0  0  0  0
    2.5130   -1.9237    0.2754 H   0  0  0  0  0  0  0  0  0  0  0  0
    0.1541   -1.5631   -0.1434 H   0  0  0  0  0  0  0  0  0  0  0  0
    0.5359   -1.1922    1.5297 H   0  0  0  0  0  0  0  0  0  0  0  0
  1  2  1  0
  2  3  1  0
  3  4  2  0
  4  5  1  0
  5  6  2  0
  6  7  1  0
  7  8  2  0
  8  9  1  0
  9 10  1  0
 10 11  2  0
 10 12  1  0
 12 13  1  0
 13 14  1  0
 14 15  1  0
 15 16  1  0
 16 17  2  0
 16 18  2  0
 16 19  1  0
 19 20  2  0
 20 21  1  0
 21 22  2  0
 22 23  1  0
 15 24  1  0
 24 25  1  0
  8  3  1  0
 25 12  1  0
 23 19  1  0
  1 26  1  0
  1 27  1  0
  1 28  1  0
  4 29  1  0
  5 30  1  0
  6 31  1  0
  7 32  1  0
  9 33  1  0
 12 34  1  0
 13 35  1  0
 13 36  1  0
 14 37  1  0
 14 38  1  0
 20 39  1  0
 21 40  1  0
 22 41  1  0
 24 42  1  0
 24 43  1  0
 25 44  1  0
 25 45  1  0
M  END
$$$$
