
     RDKit          3D

 52 54  0  0  0  0  0  0  0  0999 V2000
   -4.3185    2.8225   -2.5602 C   0  0  0  0  0  0  0  0  0  0  0  0
   -3.6436    2.0929   -1.3786 C   0  0  0  0  0  0  0  0  0  0  0  0
   -3.6808    3.0490   -0.1698 C   0  0  0  0  0  0  0  0  0  0  0  0
   -2.1748    1.7671   -1.7793 C   0  0  0  0  0  0  0  0  0  0  0  0
   -1.5555    0.7680   -0.8440 C   0  0  0  0  0  0  0  0  0  0  0  0
   -2.3685   -0.0669   -0.0942 C   0  0  0  0  0  0  0  0  0  0  0  0
   -1.4546   -1.0391    0.9650 S   0  0  0  0  0  0  0  0  0  0  0  0
    0.0133   -0.3699    0.4506 C   0  0  0  0  0  0  0  0  0  0  0  0
    1.2181   -0.7544    1.0163 N   0  0  0  0  0  0  0  0  0  0  0  0
    1.4323   -1.6706    2.0285 C   0  0  0  0  0  0  0  0  0  0  0  0
    0.5937   -2.3458    2.6208 O   0  0  0  0  0  0  0  0  0  0  0  0
    2.9111   -1.7839    2.4146 C   0  0  0  0  0  0  0  0  0  0  0  0
    3.7465   -1.1420    1.4485 O   0  0  0  0  0  0  0  0  0  0  0  0
    5.0476   -1.5702    1.4583 C   0  0  0  0  0  0  0  0  0  0  0  0
    5.7812   -1.6965    2.6426 C   0  0  0  0  0  0  0  0  0  0  0  0
    7.1159   -2.1075    2.5939 C   0  0  0  0  0  0  0  0  0  0  0  0
    7.7175   -2.3804    1.3641 C   0  0  0  0  0  0  0  0  0  0  0  0
    9.3596   -2.8907    1.3134 Cl  0  0  0  0  0  0  0  0  0  0  0  0
    7.0032   -2.2366    0.1770 C   0  0  0  0  0  0  0  0  0  0  0  0
    5.6708   -1.8234    0.2257 C   0  0  0  0  0  0  0  0  0  0  0  0
    4.8079   -1.6589   -1.2630 Cl  0  0  0  0  0  0  0  0  0  0  0  0
   -0.1486    0.5581   -0.5709 C   0  0  0  0  0  0  0  0  0  0  0  0
    1.0016    1.2102   -1.1966 C   0  0  0  0  0  0  0  0  0  0  0  0
    0.8409    1.6129   -2.4925 N   0  0  0  0  0  0  0  0  0  0  0  0
    2.0895    1.3349   -0.6414 O   0  0  0  0  0  0  0  0  0  0  0  0
   -3.8894   -0.1133   -0.1484 C   0  0  0  0  0  0  0  0  0  0  0  0
   -4.3533   -1.5141   -0.6197 C   0  0  0  0  0  0  0  0  0  0  0  0
   -4.5345    0.1633    1.2230 C   0  0  0  0  0  0  0  0  0  0  0  0
   -4.4329    0.8568   -1.1441 N   0  0  0  0  0  0  0  0  0  0  0  0
   -4.3336    2.2020   -3.4642 H   0  0  0  0  0  0  0  0  0  0  0  0
   -3.7855    3.7474   -2.8092 H   0  0  0  0  0  0  0  0  0  0  0  0
   -5.3545    3.0902   -2.3234 H   0  0  0  0  0  0  0  0  0  0  0  0
   -3.0890    2.6828    0.6748 H   0  0  0  0  0  0  0  0  0  0  0  0
   -4.7089    3.2135    0.1786 H   0  0  0  0  0  0  0  0  0  0  0  0
   -3.2671    4.0313   -0.4392 H   0  0  0  0  0  0  0  0  0  0  0  0
   -2.1505    1.3413   -2.7908 H   0  0  0  0  0  0  0  0  0  0  0  0
   -1.5860    2.6915   -1.7948 H   0  0  0  0  0  0  0  0  0  0  0  0
    2.0496   -0.2837    0.6512 H   0  0  0  0  0  0  0  0  0  0  0  0
    3.1445   -2.8551    2.4802 H   0  0  0  0  0  0  0  0  0  0  0  0
    3.0311   -1.2994    3.3906 H   0  0  0  0  0  0  0  0  0  0  0  0
    5.3406   -1.4586    3.6072 H   0  0  0  0  0  0  0  0  0  0  0  0
    7.6824   -2.2064    3.5171 H   0  0  0  0  0  0  0  0  0  0  0  0
    7.4791   -2.4455   -0.7782 H   0  0  0  0  0  0  0  0  0  0  0  0
    1.6956    1.8783   -2.9635 H   0  0  0  0  0  0  0  0  0  0  0  0
    0.1209    1.1899   -3.0600 H   0  0  0  0  0  0  0  0  0  0  0  0
   -4.0677   -2.2988    0.0916 H   0  0  0  0  0  0  0  0  0  0  0  0
   -5.4450   -1.5592   -0.7258 H   0  0  0  0  0  0  0  0  0  0  0  0
   -3.9110   -1.7791   -1.5898 H   0  0  0  0  0  0  0  0  0  0  0  0
   -4.1786    1.0906    1.6823 H   0  0  0  0  0  0  0  0  0  0  0  0
   -4.3203   -0.6430    1.9369 H   0  0  0  0  0  0  0  0  0  0  0  0
   -5.6269    0.2297    1.1409 H   0  0  0  0  0  0  0  0  0  0  0  0
   -4.5148    0.3691   -2.0367 H   0  0  0  0  0  0  0  0  0  0  0  0
  1  2  1  0
  2  3  1  0
  2  4  1  0
  4  5  1  0
  5  6  2  0
  6  7  1  0
  7  8  1  0
  8  9  1  0
  9 10  1  0
 10 11  2  0
 10 12  1  0
 12 13  1  0
 13 14  1  0
 14 15  2  0
 15 16  1  0
 16 17  2  0
 17 18  1  0
 17 19  1  0
 19 20  2  0
 20 21  1  0
  8 22  2  0
 22 23  1  0
 23 24  1  0
 23 25  2  0
  6 26  1  0
 26 27  1  0
 26 28  1  0
 26 29  1  0
 29  2  1  0
 22  5  1  0
 20 14  1  0
  1 30  1  0
  1 31  1  0
  1 32  1  0
  3 33  1  0
  3 34  1  0
  3 35  1  0
  4 36  1  0
  4 37  1  0
  9 38  1  0
 12 39  1  0
 12 40  1  0
 15 41  1  0
 16 42  1  0
 19 43  1  0
 24 44  1  0
 24 45  1  0
 27 46  1  0
 27 47  1  0
 27 48  1  0
 28 49  1  0
 28 50  1  0
 28 51  1  0
 29 52  1  0
M  END
$$$$
