
     RDKit          3D

 37 39  0  0  0  0  0  0  0  0999 V2000
   -4.4858   -2.6507   -0.7840 C   0  0  0  0  0  0  0  0  0  0  0  0
   -4.4378   -1.6018   -1.7446 O   0  0  0  0  0  0  0  0  0  0  0  0
   -3.3616   -0.7521   -1.6779 C   0  0  0  0  0  0  0  0  0  0  0  0
   -2.3162   -0.8238   -0.7586 C   0  0  0  0  0  0  0  0  0  0  0  0
   -1.2662    0.1057   -0.8079 C   0  0  0  0  0  0  0  0  0  0  0  0
   -0.1932    0.0070    0.1913 C   0  0  0  0  0  0  0  0  0  0  0  0
    1.1107    0.1323   -0.1060 C   0  0  0  0  0  0  0  0  0  0  0  0
    2.1031    0.0096    0.9103 C   0  0  0  0  0  0  0  0  0  0  0  0
    1.8975   -0.2296    2.1908 N   0  0  0  0  0  0  0  0  0  0  0  0
    3.0960   -0.2813    2.8815 C   0  0  0  0  0  0  0  0  0  0  0  0
    3.2439   -0.5166    4.2635 C   0  0  0  0  0  0  0  0  0  0  0  0
    4.5214   -0.5425    4.8325 C   0  0  0  0  0  0  0  0  0  0  0  0
    5.6480   -0.3374    4.0424 C   0  0  0  0  0  0  0  0  0  0  0  0
    5.5272   -0.1019    2.6693 C   0  0  0  0  0  0  0  0  0  0  0  0
    4.2386   -0.0781    2.1096 C   0  0  0  0  0  0  0  0  0  0  0  0
    3.7691    0.1834    0.4772 S   0  0  0  0  0  0  0  0  0  0  0  0
   -1.2854    1.1295   -1.7705 C   0  0  0  0  0  0  0  0  0  0  0  0
   -2.3263    1.2172   -2.6985 C   0  0  0  0  0  0  0  0  0  0  0  0
   -2.4335    2.1698   -3.6765 O   0  0  0  0  0  0  0  0  0  0  0  0
   -1.4265    3.1689   -3.7351 C   0  0  0  0  0  0  0  0  0  0  0  0
   -3.3525    0.2674   -2.6407 C   0  0  0  0  0  0  0  0  0  0  0  0
   -4.3874    0.3295   -3.5441 O   0  0  0  0  0  0  0  0  0  0  0  0
   -3.6307   -3.3257   -0.8939 H   0  0  0  0  0  0  0  0  0  0  0  0
   -4.5483   -2.2511    0.2336 H   0  0  0  0  0  0  0  0  0  0  0  0
   -5.3943   -3.2317   -0.9697 H   0  0  0  0  0  0  0  0  0  0  0  0
   -2.2883   -1.5986    0.0010 H   0  0  0  0  0  0  0  0  0  0  0  0
   -0.5113   -0.2040    1.2115 H   0  0  0  0  0  0  0  0  0  0  0  0
    1.4319    0.3148   -1.1270 H   0  0  0  0  0  0  0  0  0  0  0  0
    2.3618   -0.6758    4.8756 H   0  0  0  0  0  0  0  0  0  0  0  0
    4.6310   -0.7242    5.8991 H   0  0  0  0  0  0  0  0  0  0  0  0
    6.6364   -0.3599    4.4970 H   0  0  0  0  0  0  0  0  0  0  0  0
    6.4071    0.0582    2.0537 H   0  0  0  0  0  0  0  0  0  0  0  0
   -0.4815    1.8580   -1.7712 H   0  0  0  0  0  0  0  0  0  0  0  0
   -1.6744    3.8465   -4.5578 H   0  0  0  0  0  0  0  0  0  0  0  0
   -1.4018    3.7601   -2.8137 H   0  0  0  0  0  0  0  0  0  0  0  0
   -0.4468    2.7298   -3.9501 H   0  0  0  0  0  0  0  0  0  0  0  0
   -4.9740   -0.4145   -3.3122 H   0  0  0  0  0  0  0  0  0  0  0  0
  1  2  1  0
  2  3  1  0
  3  4  2  0
  4  5  1  0
  5  6  1  0
  6  7  2  3
  7  8  1  0
  8  9  2  0
  9 10  1  0
 10 11  2  0
 11 12  1  0
 12 13  2  0
 13 14  1  0
 14 15  2  0
 15 16  1  0
  5 17  2  0
 17 18  1  0
 18 19  1  0
 19 20  1  0
 18 21  2  0
 21 22  1  0
 21  3  1  0
 16  8  1  0
 15 10  1  0
  1 23  1  0
  1 24  1  0
  1 25  1  0
  4 26  1  0
  6 27  1  0
  7 28  1  0
 11 29  1  0
 12 30  1  0
 13 31  1  0
 14 32  1  0
 17 33  1  0
 20 34  1  0
 20 35  1  0
 20 36  1  0
 22 37  1  0
M  END
$$$$
