
     RDKit          3D

 48 50  0  0  0  0  0  0  0  0999 V2000
   -2.2532    0.1066    0.1960 O   0  0  0  0  0  0  0  0  0  0  0  0
   -1.6768    0.3836   -0.8524 C   0  0  0  0  0  0  0  0  0  0  0  0
   -0.2517   -0.0141   -1.1728 C   0  0  0  0  0  0  0  0  0  0  0  0
    0.4310   -0.7906   -0.0478 C   0  0  0  0  0  0  0  0  0  0  0  0
    0.7278    0.0806    1.1795 C   0  0  0  0  0  0  0  0  0  0  0  0
    1.6029   -0.6133    2.1275 N   0  0  0  0  0  0  0  0  0  0  0  0
    2.9736   -0.5460    1.9252 C   0  0  0  0  0  0  0  0  0  0  0  0
    3.5220    0.0784    1.0277 O   0  0  0  0  0  0  0  0  0  0  0  0
    3.6891   -1.3465    2.9588 C   0  0  0  0  0  0  0  0  0  0  0  0
    5.0098   -1.5450    3.0725 C   0  0  0  0  0  0  0  0  0  0  0  0
    6.0305   -1.0099    2.1630 C   0  0  0  0  0  0  0  0  0  0  0  0
    6.7241    0.1446    2.5539 C   0  0  0  0  0  0  0  0  0  0  0  0
    7.7080    0.6938    1.7283 C   0  0  0  0  0  0  0  0  0  0  0  0
    8.0094    0.0958    0.5064 C   0  0  0  0  0  0  0  0  0  0  0  0
    7.3285   -1.0546    0.1071 C   0  0  0  0  0  0  0  0  0  0  0  0
    6.3430   -1.6073    0.9301 C   0  0  0  0  0  0  0  0  0  0  0  0
    5.5466   -3.0443    0.3869 Cl  0  0  0  0  0  0  0  0  0  0  0  0
    2.5500   -2.0435    4.0486 S   0  0  0  0  0  0  0  0  0  0  0  0
    1.1672   -1.3828    3.1852 C   0  0  0  0  0  0  0  0  0  0  0  0
   -0.3988   -1.6992    3.6627 S   0  0  0  0  0  0  0  0  0  0  0  0
   -2.2770    1.1118   -1.8622 N   0  0  0  0  0  0  0  0  0  0  0  0
   -3.6697    1.3032   -1.7573 N   0  0  0  0  0  0  0  0  0  0  0  0
   -4.4081    1.1021   -2.9097 C   0  0  0  0  0  0  0  0  0  0  0  0
   -3.8798    0.9440   -4.0082 O   0  0  0  0  0  0  0  0  0  0  0  0
   -5.8889    1.0476   -2.7566 C   0  0  0  0  0  0  0  0  0  0  0  0
   -6.6368    0.4231   -3.7654 C   0  0  0  0  0  0  0  0  0  0  0  0
   -8.0291    0.3488   -3.6693 C   0  0  0  0  0  0  0  0  0  0  0  0
   -8.6767    0.9058   -2.5686 C   0  0  0  0  0  0  0  0  0  0  0  0
  -10.3900    0.8171   -2.4492 Cl  0  0  0  0  0  0  0  0  0  0  0  0
   -7.9446    1.5411   -1.5660 C   0  0  0  0  0  0  0  0  0  0  0  0
   -6.5506    1.6166   -1.6591 C   0  0  0  0  0  0  0  0  0  0  0  0
   -0.2801   -0.6455   -2.0691 H   0  0  0  0  0  0  0  0  0  0  0  0
    0.3222    0.8878   -1.4147 H   0  0  0  0  0  0  0  0  0  0  0  0
   -0.1796   -1.6526    0.2465 H   0  0  0  0  0  0  0  0  0  0  0  0
    1.3714   -1.1984   -0.4392 H   0  0  0  0  0  0  0  0  0  0  0  0
   -0.1951    0.3805    1.6827 H   0  0  0  0  0  0  0  0  0  0  0  0
    1.2285    1.0032    0.8617 H   0  0  0  0  0  0  0  0  0  0  0  0
    5.4089   -2.1582    3.8776 H   0  0  0  0  0  0  0  0  0  0  0  0
    6.5000    0.6294    3.5018 H   0  0  0  0  0  0  0  0  0  0  0  0
    8.2367    1.5921    2.0383 H   0  0  0  0  0  0  0  0  0  0  0  0
    8.7730    0.5261   -0.1369 H   0  0  0  0  0  0  0  0  0  0  0  0
    7.5686   -1.5152   -0.8477 H   0  0  0  0  0  0  0  0  0  0  0  0
   -1.9313    1.0448   -2.8210 H   0  0  0  0  0  0  0  0  0  0  0  0
   -4.0590    1.0825   -0.8405 H   0  0  0  0  0  0  0  0  0  0  0  0
   -6.1366   -0.0104   -4.6302 H   0  0  0  0  0  0  0  0  0  0  0  0
   -8.5981   -0.1412   -4.4553 H   0  0  0  0  0  0  0  0  0  0  0  0
   -8.4534    1.9850   -0.7137 H   0  0  0  0  0  0  0  0  0  0  0  0
   -6.0078    2.1425   -0.8784 H   0  0  0  0  0  0  0  0  0  0  0  0
  1  2  2  0
  2  3  1  0
  3  4  1  0
  4  5  1  0
  5  6  1  0
  6  7  1  0
  7  8  2  0
  7  9  1  0
  9 10  2  3
 10 11  1  0
 11 12  2  0
 12 13  1  0
 13 14  2  0
 14 15  1  0
 15 16  2  0
 16 17  1  0
  9 18  1  0
 18 19  1  0
 19 20  2  0
  2 21  1  0
 21 22  1  0
 22 23  1  0
 23 24  2  0
 23 25  1  0
 25 26  2  0
 26 27  1  0
 27 28  2  0
 28 29  1  0
 28 30  1  0
 30 31  2  0
 19  6  1  0
 31 25  1  0
 16 11  1  0
  3 32  1  0
  3 33  1  0
  4 34  1  0
  4 35  1  0
  5 36  1  0
  5 37  1  0
 10 38  1  0
 12 39  1  0
 13 40  1  0
 14 41  1  0
 15 42  1  0
 21 43  1  0
 22 44  1  0
 26 45  1  0
 27 46  1  0
 30 47  1  0
 31 48  1  0
M  END
$$$$
