
     RDKit          3D

 53 56  0  0  0  0  0  0  0  0999 V2000
    7.2920   -0.5088   -2.5655 C   0  0  0  0  0  0  0  0  0  0  0  0
    6.7359   -1.3564   -1.5681 O   0  0  0  0  0  0  0  0  0  0  0  0
    5.3536   -1.0913   -1.3140 C   0  0  0  0  0  0  0  0  0  0  0  0
    5.1766    0.0779   -0.3494 C   0  0  0  0  0  0  0  0  0  0  0  0
    3.7777    0.3287   -0.0322 N   0  0  0  0  0  0  0  0  0  0  0  0
    2.9613    1.1994   -0.7235 C   0  0  0  0  0  0  0  0  0  0  0  0
    3.3952    1.9779   -1.9157 C   0  0  0  0  0  0  0  0  0  0  0  0
    1.7310    1.1901   -0.1011 C   0  0  0  0  0  0  0  0  0  0  0  0
    1.7836    0.2932    1.0040 C   0  0  0  0  0  0  0  0  0  0  0  0
    0.7111   -0.0188    1.9677 C   0  0  0  0  0  0  0  0  0  0  0  0
    0.8889   -0.8031    2.9036 O   0  0  0  0  0  0  0  0  0  0  0  0
   -0.6380    0.6550    1.8008 C   0  0  0  0  0  0  0  0  0  0  0  0
   -1.6464   -0.2716    0.6014 S   0  0  0  0  0  0  0  0  0  0  0  0
   -3.1273    0.6911    0.6656 C   0  0  0  0  0  0  0  0  0  0  0  0
   -3.0385    2.0131    0.9230 N   0  0  0  0  0  0  0  0  0  0  0  0
   -4.1675    2.7446    0.9531 C   0  0  0  0  0  0  0  0  0  0  0  0
   -4.0204    4.2126    1.2162 C   0  0  0  0  0  0  0  0  0  0  0  0
   -5.4067    2.2926    0.7328 N   0  0  0  0  0  0  0  0  0  0  0  0
   -5.4545    0.9749    0.4761 C   0  0  0  0  0  0  0  0  0  0  0  0
   -6.9650    0.2102    0.1645 S   0  0  0  0  0  0  0  0  0  0  0  0
   -6.1985   -1.2596   -0.0337 C   0  0  0  0  0  0  0  0  0  0  0  0
   -4.8402   -1.2114    0.1272 C   0  0  0  0  0  0  0  0  0  0  0  0
   -4.3701    0.0991    0.4236 C   0  0  0  0  0  0  0  0  0  0  0  0
   -4.2397   -2.5581   -0.0641 C   0  0  0  0  0  0  0  0  0  0  0  0
   -5.4902   -3.4925   -0.0327 C   0  0  0  0  0  0  0  0  0  0  0  0
   -6.7285   -2.6040   -0.3558 C   0  0  0  0  0  0  0  0  0  0  0  0
    3.0701   -0.2446    1.0087 C   0  0  0  0  0  0  0  0  0  0  0  0
    3.6553   -1.2509    1.9477 C   0  0  0  0  0  0  0  0  0  0  0  0
    6.7608   -0.6337   -3.5144 H   0  0  0  0  0  0  0  0  0  0  0  0
    7.2627    0.5379   -2.2519 H   0  0  0  0  0  0  0  0  0  0  0  0
    8.3367   -0.7945   -2.7138 H   0  0  0  0  0  0  0  0  0  0  0  0
    4.9369   -2.0014   -0.8690 H   0  0  0  0  0  0  0  0  0  0  0  0
    4.8166   -0.9302   -2.2558 H   0  0  0  0  0  0  0  0  0  0  0  0
    5.7239   -0.0944    0.5841 H   0  0  0  0  0  0  0  0  0  0  0  0
    5.6028    0.9989   -0.7598 H   0  0  0  0  0  0  0  0  0  0  0  0
    3.7478    1.3114   -2.7076 H   0  0  0  0  0  0  0  0  0  0  0  0
    2.5650    2.5666   -2.3198 H   0  0  0  0  0  0  0  0  0  0  0  0
    4.1984    2.6728   -1.6544 H   0  0  0  0  0  0  0  0  0  0  0  0
    0.8812    1.7819   -0.4211 H   0  0  0  0  0  0  0  0  0  0  0  0
   -1.1406    0.6565    2.7742 H   0  0  0  0  0  0  0  0  0  0  0  0
   -0.4996    1.6980    1.5010 H   0  0  0  0  0  0  0  0  0  0  0  0
   -4.8432    4.5730    1.8419 H   0  0  0  0  0  0  0  0  0  0  0  0
   -4.0288    4.7597    0.2681 H   0  0  0  0  0  0  0  0  0  0  0  0
   -3.0801    4.4218    1.7344 H   0  0  0  0  0  0  0  0  0  0  0  0
   -3.7403   -2.6207   -1.0366 H   0  0  0  0  0  0  0  0  0  0  0  0
   -3.5360   -2.8296    0.7275 H   0  0  0  0  0  0  0  0  0  0  0  0
   -5.3941   -4.3377   -0.7208 H   0  0  0  0  0  0  0  0  0  0  0  0
   -5.6015   -3.9041    0.9795 H   0  0  0  0  0  0  0  0  0  0  0  0
   -7.5908   -2.8882    0.2540 H   0  0  0  0  0  0  0  0  0  0  0  0
   -6.9874   -2.6770   -1.4171 H   0  0  0  0  0  0  0  0  0  0  0  0
    4.5705   -1.7093    1.5662 H   0  0  0  0  0  0  0  0  0  0  0  0
    2.9522   -2.0696    2.1239 H   0  0  0  0  0  0  0  0  0  0  0  0
    3.8862   -0.7772    2.9067 H   0  0  0  0  0  0  0  0  0  0  0  0
  1  2  1  0
  2  3  1  0
  3  4  1  0
  4  5  1  0
  5  6  1  0
  6  7  1  0
  6  8  2  0
  8  9  1  0
  9 10  1  0
 10 11  2  0
 10 12  1  0
 12 13  1  0
 13 14  1  0
 14 15  2  0
 15 16  1  0
 16 17  1  0
 16 18  2  0
 18 19  1  0
 19 20  1  0
 20 21  1  0
 21 22  2  0
 22 23  1  0
 22 24  1  0
 24 25  1  0
 25 26  1  0
  9 27  2  0
 27 28  1  0
 27  5  1  0
 23 14  1  0
 23 19  2  0
 26 21  1  0
  1 29  1  0
  1 30  1  0
  1 31  1  0
  3 32  1  0
  3 33  1  0
  4 34  1  0
  4 35  1  0
  7 36  1  0
  7 37  1  0
  7 38  1  0
  8 39  1  0
 12 40  1  0
 12 41  1  0
 17 42  1  0
 17 43  1  0
 17 44  1  0
 24 45  1  0
 24 46  1  0
 25 47  1  0
 25 48  1  0
 26 49  1  0
 26 50  1  0
 28 51  1  0
 28 52  1  0
 28 53  1  0
M  END
$$$$
