
     RDKit          3D

 57 59  0  0  0  0  0  0  0  0999 V2000
   -5.1666    2.8276    3.0290 C   0  0  0  0  0  0  0  0  0  0  0  0
   -4.7271    1.5226    2.4315 C   0  0  0  0  0  0  0  0  0  0  0  0
   -3.7264    0.7615    3.0508 C   0  0  0  0  0  0  0  0  0  0  0  0
   -3.3417   -0.4698    2.5172 C   0  0  0  0  0  0  0  0  0  0  0  0
   -3.9571   -0.9404    1.3539 C   0  0  0  0  0  0  0  0  0  0  0  0
   -3.4857   -2.5248    0.6898 S   0  0  0  0  0  6  0  0  0  0  0  0
   -3.0050   -3.3310    1.7924 O   0  0  0  0  0  0  0  0  0  0  0  0
   -4.5634   -2.9857   -0.1613 O   0  0  0  0  0  0  0  0  0  0  0  0
   -2.1625   -2.1465   -0.3097 N   0  0  0  0  0  0  0  0  0  0  0  0
   -0.9042   -1.7445    0.3439 C   0  0  0  0  0  0  0  0  0  0  0  0
    0.2523   -1.9925   -0.6214 C   0  0  0  0  0  0  0  0  0  0  0  0
    0.0256   -1.3501   -2.0018 C   0  0  0  0  0  0  0  0  0  0  0  0
    1.1775   -0.4181   -2.3508 C   0  0  0  0  0  0  0  0  0  0  0  0
    1.0795    0.8059   -2.3861 O   0  0  0  0  0  0  0  0  0  0  0  0
    2.3716   -1.0623   -2.5836 N   0  0  0  0  0  0  0  0  0  0  0  0
    3.6057   -0.3170   -2.8403 C   0  0  0  0  0  0  0  0  0  0  0  0
    4.5961   -1.1932   -3.5973 C   0  0  0  0  0  0  0  0  0  0  0  0
    4.1968    0.1713   -1.4947 C   0  0  0  0  0  0  0  0  0  0  0  0
    5.1845   -0.3556   -0.9913 O   0  0  0  0  0  0  0  0  0  0  0  0
    3.4520    1.2052   -0.9453 N   0  0  0  0  0  0  0  0  0  0  0  0
    3.6786    1.8935    0.2606 C   0  0  0  0  0  0  0  0  0  0  0  0
    2.7242    2.8521    0.6340 C   0  0  0  0  0  0  0  0  0  0  0  0
    2.8742    3.5805    1.8166 C   0  0  0  0  0  0  0  0  0  0  0  0
    3.9801    3.3517    2.6242 C   0  0  0  0  0  0  0  0  0  0  0  0
    4.1261    4.0492    3.7581 F   0  0  0  0  0  0  0  0  0  0  0  0
    4.9368    2.4098    2.2694 C   0  0  0  0  0  0  0  0  0  0  0  0
    4.7867    1.6799    1.0857 C   0  0  0  0  0  0  0  0  0  0  0  0
   -1.3131   -0.6102   -2.0769 C   0  0  0  0  0  0  0  0  0  0  0  0
   -2.4636   -1.4884   -1.6018 C   0  0  0  0  0  0  0  0  0  0  0  0
   -4.9844   -0.2108    0.7503 C   0  0  0  0  0  0  0  0  0  0  0  0
   -5.3642    1.0198    1.2886 C   0  0  0  0  0  0  0  0  0  0  0  0
   -5.9837    2.6584    3.7367 H   0  0  0  0  0  0  0  0  0  0  0  0
   -5.5086    3.5170    2.2500 H   0  0  0  0  0  0  0  0  0  0  0  0
   -4.3388    3.3157    3.5540 H   0  0  0  0  0  0  0  0  0  0  0  0
   -3.2475    1.1208    3.9600 H   0  0  0  0  0  0  0  0  0  0  0  0
   -2.5746   -1.0566    3.0175 H   0  0  0  0  0  0  0  0  0  0  0  0
   -0.7276   -2.3386    1.2456 H   0  0  0  0  0  0  0  0  0  0  0  0
   -0.9427   -0.6907    0.6404 H   0  0  0  0  0  0  0  0  0  0  0  0
    0.3698   -3.0755   -0.7618 H   0  0  0  0  0  0  0  0  0  0  0  0
    1.1806   -1.6420   -0.1543 H   0  0  0  0  0  0  0  0  0  0  0  0
    0.0180   -2.1434   -2.7617 H   0  0  0  0  0  0  0  0  0  0  0  0
    2.4693   -2.0230   -2.2753 H   0  0  0  0  0  0  0  0  0  0  0  0
    3.3712    0.5630   -3.4520 H   0  0  0  0  0  0  0  0  0  0  0  0
    4.8444   -2.0990   -3.0326 H   0  0  0  0  0  0  0  0  0  0  0  0
    5.5287   -0.6525   -3.7886 H   0  0  0  0  0  0  0  0  0  0  0  0
    4.1786   -1.5081   -4.5600 H   0  0  0  0  0  0  0  0  0  0  0  0
    2.6006    1.4531   -1.4543 H   0  0  0  0  0  0  0  0  0  0  0  0
    1.8536    3.0422    0.0095 H   0  0  0  0  0  0  0  0  0  0  0  0
    2.1395    4.3235    2.1100 H   0  0  0  0  0  0  0  0  0  0  0  0
    5.7969    2.2465    2.9112 H   0  0  0  0  0  0  0  0  0  0  0  0
    5.5561    0.9564    0.8349 H   0  0  0  0  0  0  0  0  0  0  0  0
   -1.2792    0.3023   -1.4672 H   0  0  0  0  0  0  0  0  0  0  0  0
   -1.5037   -0.2772   -3.1046 H   0  0  0  0  0  0  0  0  0  0  0  0
   -3.3656   -0.8738   -1.5384 H   0  0  0  0  0  0  0  0  0  0  0  0
   -2.6519   -2.2762   -2.3407 H   0  0  0  0  0  0  0  0  0  0  0  0
   -5.4983   -0.5938   -0.1287 H   0  0  0  0  0  0  0  0  0  0  0  0
   -6.1680    1.5818    0.8167 H   0  0  0  0  0  0  0  0  0  0  0  0
  1  2  1  0
  2  3  2  0
  3  4  1  0
  4  5  2  0
  5  6  1  0
  6  7  2  0
  6  8  2  0
  6  9  1  0
  9 10  1  0
 10 11  1  0
 11 12  1  0
 12 13  1  0
 13 14  2  0
 13 15  1  0
 15 16  1  0
 16 17  1  0
 16 18  1  0
 18 19  2  0
 18 20  1  0
 20 21  1  0
 21 22  2  0
 22 23  1  0
 23 24  2  0
 24 25  1  0
 24 26  1  0
 26 27  2  0
 12 28  1  0
 28 29  1  0
  5 30  1  0
 30 31  2  0
 31  2  1  0
 29  9  1  0
 27 21  1  0
  1 32  1  0
  1 33  1  0
  1 34  1  0
  3 35  1  0
  4 36  1  0
 10 37  1  0
 10 38  1  0
 11 39  1  0
 11 40  1  0
 12 41  1  0
 15 42  1  0
 16 43  1  0
 17 44  1  0
 17 45  1  0
 17 46  1  0
 20 47  1  0
 22 48  1  0
 23 49  1  0
 26 50  1  0
 27 51  1  0
 28 52  1  0
 28 53  1  0
 29 54  1  0
 29 55  1  0
 30 56  1  0
 31 57  1  0
M  END
$$$$
