
     RDKit          3D

 39 39  0  0  0  0  0  0  0  0999 V2000
   -1.9146    0.1150   -4.2450 C   0  0  0  0  0  0  0  0  0  0  0  0
   -1.4779   -0.3524   -2.9685 O   0  0  0  0  0  0  0  0  0  0  0  0
   -2.2828   -1.3201   -2.4306 C   0  0  0  0  0  0  0  0  0  0  0  0
   -3.2623   -1.7998   -2.9896 O   0  0  0  0  0  0  0  0  0  0  0  0
   -1.7708   -1.7618   -1.0492 C   0  0  0  0  0  0  0  0  0  0  0  0
   -2.8793   -1.7313    0.0147 C   0  0  0  0  0  0  0  0  0  0  0  0
   -3.1722   -0.3716    0.6547 C   0  0  0  0  0  0  0  0  0  0  0  0
   -3.8684    0.8479   -0.5047 S   0  0  0  0  0  0  0  0  0  0  0  0
   -4.1148    2.2141    0.6552 C   0  0  0  0  0  0  0  0  0  0  0  0
   -0.5739   -1.0342   -0.6247 N   0  0  0  0  0  0  0  0  0  0  0  0
    0.3412   -1.5958    0.2189 C   0  0  0  0  0  0  0  0  0  0  0  0
    0.2025   -2.6840    0.7596 O   0  0  0  0  0  0  0  0  0  0  0  0
    1.4272   -0.7892    0.3855 N   0  0  0  0  0  0  0  0  0  0  0  0
    2.4615   -1.1455    1.3333 C   0  0  0  0  0  0  0  0  0  0  0  0
    3.4746   -0.0328    1.4904 C   0  0  0  0  0  0  0  0  0  0  0  0
    4.7421   -0.3122    1.9967 C   0  0  0  0  0  0  0  0  0  0  0  0
    5.6472    0.7344    2.1541 C   0  0  0  0  0  0  0  0  0  0  0  0
    5.2620    2.0279    1.8220 C   0  0  0  0  0  0  0  0  0  0  0  0
    3.9798    2.2248    1.3389 C   0  0  0  0  0  0  0  0  0  0  0  0
    3.0784    1.2319    1.1681 N   0  0  0  0  0  0  0  0  0  0  0  0
   -1.2112    0.8797   -4.5833 H   0  0  0  0  0  0  0  0  0  0  0  0
   -1.9125   -0.7017   -4.9743 H   0  0  0  0  0  0  0  0  0  0  0  0
   -2.9080    0.5679   -4.1699 H   0  0  0  0  0  0  0  0  0  0  0  0
   -1.4648   -2.8066   -1.1960 H   0  0  0  0  0  0  0  0  0  0  0  0
   -3.8063   -2.1556   -0.3922 H   0  0  0  0  0  0  0  0  0  0  0  0
   -2.5796   -2.4026    0.8304 H   0  0  0  0  0  0  0  0  0  0  0  0
   -2.2672    0.0454    1.1076 H   0  0  0  0  0  0  0  0  0  0  0  0
   -3.9023   -0.5189    1.4575 H   0  0  0  0  0  0  0  0  0  0  0  0
   -4.7981    1.9150    1.4548 H   0  0  0  0  0  0  0  0  0  0  0  0
   -4.5511    3.0638    0.1236 H   0  0  0  0  0  0  0  0  0  0  0  0
   -3.1594    2.5279    1.0848 H   0  0  0  0  0  0  0  0  0  0  0  0
   -0.2048   -0.3697   -1.2948 H   0  0  0  0  0  0  0  0  0  0  0  0
    1.2779    0.2089    0.2979 H   0  0  0  0  0  0  0  0  0  0  0  0
    1.9977   -1.3566    2.3042 H   0  0  0  0  0  0  0  0  0  0  0  0
    2.9430   -2.0605    0.9695 H   0  0  0  0  0  0  0  0  0  0  0  0
    5.0271   -1.3272    2.2574 H   0  0  0  0  0  0  0  0  0  0  0  0
    6.6462    0.5413    2.5362 H   0  0  0  0  0  0  0  0  0  0  0  0
    5.9456    2.8620    1.9330 H   0  0  0  0  0  0  0  0  0  0  0  0
    3.6284    3.2171    1.0740 H   0  0  0  0  0  0  0  0  0  0  0  0
  1  2  1  0
  2  3  1  0
  3  4  2  0
  3  5  1  0
  5  6  1  0
  6  7  1  0
  7  8  1  0
  8  9  1  0
  5 10  1  0
 10 11  1  0
 11 12  2  0
 11 13  1  0
 13 14  1  0
 14 15  1  0
 15 16  2  0
 16 17  1  0
 17 18  2  0
 18 19  1  0
 19 20  2  0
 20 15  1  0
  1 21  1  0
  1 22  1  0
  1 23  1  0
  5 24  1  0
  6 25  1  0
  6 26  1  0
  7 27  1  0
  7 28  1  0
  9 29  1  0
  9 30  1  0
  9 31  1  0
 10 32  1  0
 13 33  1  0
 14 34  1  0
 14 35  1  0
 16 36  1  0
 17 37  1  0
 18 38  1  0
 19 39  1  0
M  END
$$$$
