
     RDKit          3D

 42 43  0  0  0  0  0  0  0  0999 V2000
   -5.2469   -0.0408    2.9223 C   0  0  0  0  0  0  0  0  0  0  0  0
   -4.0463   -0.8904    3.3468 C   0  0  0  0  0  0  0  0  0  0  0  0
   -4.3943   -2.3808    3.3148 C   0  0  0  0  0  0  0  0  0  0  0  0
   -2.8209   -0.5856    2.5038 C   0  0  0  0  0  0  0  0  0  0  0  0
   -2.8034   -0.8062    1.1206 C   0  0  0  0  0  0  0  0  0  0  0  0
   -1.6618   -0.5158    0.3685 C   0  0  0  0  0  0  0  0  0  0  0  0
   -0.5175   -0.0003    0.9788 C   0  0  0  0  0  0  0  0  0  0  0  0
    0.5255    0.2405    0.1279 O   0  0  0  0  0  0  0  0  0  0  0  0
    1.7090    0.7931    0.7014 C   0  0  0  0  0  0  0  0  0  0  0  0
    2.7710    1.0338   -0.3722 C   0  0  0  0  0  0  0  0  0  0  0  0
    3.9453    1.2575   -0.0891 O   0  0  0  0  0  0  0  0  0  0  0  0
    2.2886    1.0140   -1.6644 N   0  0  0  0  0  0  0  0  0  0  0  0
    3.1679    1.0947   -2.8073 C   0  0  0  0  0  0  0  0  0  0  0  0
    3.8701   -0.2325   -3.1163 C   0  0  0  0  0  0  0  0  0  0  0  0
    3.9601   -0.3178   -4.6422 C   0  0  0  0  0  0  0  0  0  0  0  0
    3.3995    0.9962   -5.1705 C   0  0  0  0  0  0  0  0  0  0  0  0
    2.4235    1.4356   -4.0929 C   0  0  0  0  0  0  0  0  0  0  0  0
   -0.5235    0.2206    2.3548 C   0  0  0  0  0  0  0  0  0  0  0  0
   -1.6666   -0.0698    3.1098 C   0  0  0  0  0  0  0  0  0  0  0  0
   -5.0022    1.0270    2.9546 H   0  0  0  0  0  0  0  0  0  0  0  0
   -5.5770   -0.2769    1.9048 H   0  0  0  0  0  0  0  0  0  0  0  0
   -6.0951   -0.2107    3.5944 H   0  0  0  0  0  0  0  0  0  0  0  0
   -3.8240   -0.6340    4.3913 H   0  0  0  0  0  0  0  0  0  0  0  0
   -3.5398   -2.9892    3.6313 H   0  0  0  0  0  0  0  0  0  0  0  0
   -5.2280   -2.5960    3.9919 H   0  0  0  0  0  0  0  0  0  0  0  0
   -4.6866   -2.7120    2.3123 H   0  0  0  0  0  0  0  0  0  0  0  0
   -3.6776   -1.2064    0.6125 H   0  0  0  0  0  0  0  0  0  0  0  0
   -1.6696   -0.6948   -0.7036 H   0  0  0  0  0  0  0  0  0  0  0  0
    2.1360    0.0909    1.4267 H   0  0  0  0  0  0  0  0  0  0  0  0
    1.4958    1.7632    1.1650 H   0  0  0  0  0  0  0  0  0  0  0  0
    1.3594    0.6183   -1.7770 H   0  0  0  0  0  0  0  0  0  0  0  0
    3.9274    1.8622   -2.6081 H   0  0  0  0  0  0  0  0  0  0  0  0
    4.8649   -0.2619   -2.6565 H   0  0  0  0  0  0  0  0  0  0  0  0
    3.3107   -1.0933   -2.7277 H   0  0  0  0  0  0  0  0  0  0  0  0
    3.3521   -1.1579   -4.9999 H   0  0  0  0  0  0  0  0  0  0  0  0
    4.9866   -0.4853   -4.9846 H   0  0  0  0  0  0  0  0  0  0  0  0
    4.2055    1.7327   -5.2722 H   0  0  0  0  0  0  0  0  0  0  0  0
    2.9210    0.8809   -6.1470 H   0  0  0  0  0  0  0  0  0  0  0  0
    1.4877    0.8686   -4.1729 H   0  0  0  0  0  0  0  0  0  0  0  0
    2.1783    2.4999   -4.1612 H   0  0  0  0  0  0  0  0  0  0  0  0
    0.3403    0.6164    2.8787 H   0  0  0  0  0  0  0  0  0  0  0  0
   -1.6451    0.1122    4.1826 H   0  0  0  0  0  0  0  0  0  0  0  0
  1  2  1  0
  2  3  1  0
  2  4  1  0
  4  5  2  0
  5  6  1  0
  6  7  2  0
  7  8  1  0
  8  9  1  0
  9 10  1  0
 10 11  2  0
 10 12  1  0
 12 13  1  0
 13 14  1  0
 14 15  1  0
 15 16  1  0
 16 17  1  0
  7 18  1  0
 18 19  2  0
 19  4  1  0
 17 13  1  0
  1 20  1  0
  1 21  1  0
  1 22  1  0
  2 23  1  0
  3 24  1  0
  3 25  1  0
  3 26  1  0
  5 27  1  0
  6 28  1  0
  9 29  1  0
  9 30  1  0
 12 31  1  0
 13 32  1  0
 14 33  1  0
 14 34  1  0
 15 35  1  0
 15 36  1  0
 16 37  1  0
 16 38  1  0
 17 39  1  0
 17 40  1  0
 18 41  1  0
 19 42  1  0
M  END
$$$$
