
     RDKit          3D

 47 49  0  0  0  0  0  0  0  0999 V2000
    4.9069   -3.3552    1.7168 C   0  0  0  0  0  0  0  0  0  0  0  0
    4.5146   -1.8888    1.5629 C   0  0  0  0  0  0  0  0  0  0  0  0
    4.3398   -1.4903    0.1593 N   0  0  0  0  0  0  0  0  0  0  0  0
    4.1774   -0.0251    0.0360 C   0  0  0  0  0  0  0  0  0  0  0  0
    2.8426    0.5443    0.5673 C   0  0  0  0  0  0  0  0  0  0  0  0
    1.6531   -0.1475   -0.0014 N   0  0  0  0  0  0  0  0  0  0  0  0
    0.3840    0.4795    0.0021 C   0  0  0  0  0  0  0  0  0  0  0  0
   -0.7928   -0.1839    0.0614 C   0  0  0  0  0  0  0  0  0  0  0  0
   -2.0905    0.4732    0.0422 C   0  0  0  0  0  0  0  0  0  0  0  0
   -3.2003   -0.1861   -0.3356 C   0  0  0  0  0  0  0  0  0  0  0  0
   -4.4847    0.4843   -0.5482 C   0  0  0  0  0  0  0  0  0  0  0  0
   -5.6677   -0.1758   -0.6077 C   0  0  0  0  0  0  0  0  0  0  0  0
   -5.7564   -1.5875   -0.4220 C   0  0  0  0  0  0  0  0  0  0  0  0
   -5.8147   -2.7378   -0.2776 N   0  0  0  0  0  0  0  0  0  0  0  0
   -6.8925    0.5100   -0.8574 C   0  0  0  0  0  0  0  0  0  0  0  0
   -7.8825    1.0797   -1.0625 N   0  0  0  0  0  0  0  0  0  0  0  0
   -4.3403    1.9863   -0.7568 C   0  0  0  0  0  0  0  0  0  0  0  0
   -3.4560    2.6100    0.3188 C   0  0  0  0  0  0  0  0  0  0  0  0
   -2.0784    1.9383    0.4192 C   0  0  0  0  0  0  0  0  0  0  0  0
   -1.0095    2.6224   -0.4320 C   0  0  0  0  0  0  0  0  0  0  0  0
    0.3647    2.0060   -0.1269 C   0  0  0  0  0  0  0  0  0  0  0  0
    1.7885   -1.6289    0.0174 C   0  0  0  0  0  0  0  0  0  0  0  0
    3.1665   -2.1103   -0.4894 C   0  0  0  0  0  0  0  0  0  0  0  0
    5.7745   -3.6019    1.0947 H   0  0  0  0  0  0  0  0  0  0  0  0
    4.0857   -4.0280    1.4512 H   0  0  0  0  0  0  0  0  0  0  0  0
    5.1738   -3.5603    2.7593 H   0  0  0  0  0  0  0  0  0  0  0  0
    3.6246   -1.6871    2.1702 H   0  0  0  0  0  0  0  0  0  0  0  0
    5.3306   -1.2966    1.9965 H   0  0  0  0  0  0  0  0  0  0  0  0
    5.0131    0.4859    0.5294 H   0  0  0  0  0  0  0  0  0  0  0  0
    4.2654    0.2346   -1.0275 H   0  0  0  0  0  0  0  0  0  0  0  0
    2.8044    0.4675    1.6605 H   0  0  0  0  0  0  0  0  0  0  0  0
    2.8364    1.6109    0.3210 H   0  0  0  0  0  0  0  0  0  0  0  0
   -0.8148   -1.2677    0.1009 H   0  0  0  0  0  0  0  0  0  0  0  0
   -3.1338   -1.2511   -0.5557 H   0  0  0  0  0  0  0  0  0  0  0  0
   -5.3048    2.5040   -0.7453 H   0  0  0  0  0  0  0  0  0  0  0  0
   -3.9024    2.1677   -1.7475 H   0  0  0  0  0  0  0  0  0  0  0  0
   -3.3518    3.6871    0.1421 H   0  0  0  0  0  0  0  0  0  0  0  0
   -3.9662    2.5068    1.2864 H   0  0  0  0  0  0  0  0  0  0  0  0
   -1.7716    2.0222    1.4728 H   0  0  0  0  0  0  0  0  0  0  0  0
   -1.2378    2.5097   -1.4999 H   0  0  0  0  0  0  0  0  0  0  0  0
   -0.9738    3.6986   -0.2259 H   0  0  0  0  0  0  0  0  0  0  0  0
    0.7297    2.4341    0.8155 H   0  0  0  0  0  0  0  0  0  0  0  0
    1.0544    2.3201   -0.9201 H   0  0  0  0  0  0  0  0  0  0  0  0
    1.0414   -2.0841   -0.6432 H   0  0  0  0  0  0  0  0  0  0  0  0
    1.6037   -1.9959    1.0341 H   0  0  0  0  0  0  0  0  0  0  0  0
    3.2182   -3.2024   -0.4240 H   0  0  0  0  0  0  0  0  0  0  0  0
    3.2297   -1.8911   -1.5644 H   0  0  0  0  0  0  0  0  0  0  0  0
  1  2  1  0
  2  3  1  0
  3  4  1  0
  4  5  1  0
  5  6  1  0
  6  7  1  0
  7  8  2  0
  8  9  1  0
  9 10  2  0
 10 11  1  0
 11 12  2  3
 12 13  1  0
 13 14  3  0
 12 15  1  0
 15 16  3  0
 11 17  1  0
 17 18  1  0
 18 19  1  0
 19 20  1  0
 20 21  1  0
  6 22  1  0
 22 23  1  0
 23  3  1  0
 21  7  1  0
 19  9  1  0
  1 24  1  0
  1 25  1  0
  1 26  1  0
  2 27  1  0
  2 28  1  0
  4 29  1  0
  4 30  1  0
  5 31  1  0
  5 32  1  0
  8 33  1  0
 10 34  1  0
 17 35  1  0
 17 36  1  0
 18 37  1  0
 18 38  1  0
 19 39  1  0
 20 40  1  0
 20 41  1  0
 21 42  1  0
 21 43  1  0
 22 44  1  0
 22 45  1  0
 23 46  1  0
 23 47  1  0
M  END
$$$$
