
     RDKit          3D

 31 31  0  0  0  0  0  0  0  0999 V2000
    3.6009    0.7018    0.6162 N   0  0  0  0  0  0  0  0  0  0  0  0
    3.7892   -0.5407    0.0957 C   0  0  0  0  0  0  0  0  0  0  0  0
    5.2050   -1.3675    0.3265 S   0  0  0  0  0  0  0  0  0  0  0  0
    2.7384   -1.0578   -0.6007 N   0  0  0  0  0  0  0  0  0  0  0  0
    1.4449   -0.5346   -0.4280 N   0  0  0  0  0  0  0  0  0  0  0  0
    0.3994   -1.2950   -0.9155 C   0  0  0  0  0  0  0  0  0  0  0  0
    0.5812   -2.2917   -1.6149 O   0  0  0  0  0  0  0  0  0  0  0  0
   -1.0021   -0.8577   -0.4958 C   0  0  0  0  0  0  0  0  0  0  0  0
   -1.2800   -1.2354    0.9672 C   0  0  0  0  0  0  0  0  0  0  0  0
   -0.8175   -0.2156    2.0063 C   0  0  0  0  0  0  0  0  0  0  0  0
   -1.0368    1.2405    1.6023 C   0  0  0  0  0  0  0  0  0  0  0  0
   -1.8916    1.3884    0.3517 C   0  0  0  0  0  0  0  0  0  0  0  0
   -1.2725    0.6237   -0.8245 C   0  0  0  0  0  0  0  0  0  0  0  0
   -2.1842    0.7047   -2.0290 C   0  0  0  0  0  0  0  0  0  0  0  0
   -3.3885    0.8882   -2.0312 O   0  0  0  0  0  0  0  0  0  0  0  0
   -1.5103    0.5260   -3.1807 O   0  0  0  0  0  0  0  0  0  0  0  0
    4.4341    1.1174    1.0203 H   0  0  0  0  0  0  0  0  0  0  0  0
    3.0722    1.3350    0.0288 H   0  0  0  0  0  0  0  0  0  0  0  0
    2.7907   -2.0149   -0.9568 H   0  0  0  0  0  0  0  0  0  0  0  0
    1.3213    0.0210    0.4122 H   0  0  0  0  0  0  0  0  0  0  0  0
   -1.6724   -1.4856   -1.1022 H   0  0  0  0  0  0  0  0  0  0  0  0
   -2.3660   -1.3582    1.0808 H   0  0  0  0  0  0  0  0  0  0  0  0
   -0.8426   -2.2133    1.2040 H   0  0  0  0  0  0  0  0  0  0  0  0
   -1.3496   -0.4134    2.9455 H   0  0  0  0  0  0  0  0  0  0  0  0
    0.2424   -0.3704    2.2395 H   0  0  0  0  0  0  0  0  0  0  0  0
   -1.4975    1.7879    2.4330 H   0  0  0  0  0  0  0  0  0  0  0  0
   -0.0629    1.7158    1.4299 H   0  0  0  0  0  0  0  0  0  0  0  0
   -1.9861    2.4509    0.0949 H   0  0  0  0  0  0  0  0  0  0  0  0
   -2.9097    1.0329    0.5570 H   0  0  0  0  0  0  0  0  0  0  0  0
   -0.3524    1.1545   -1.1023 H   0  0  0  0  0  0  0  0  0  0  0  0
   -2.1968    0.5635   -3.8802 H   0  0  0  0  0  0  0  0  0  0  0  0
  1  2  1  0
  2  3  2  0
  2  4  1  0
  4  5  1  0
  5  6  1  0
  6  7  2  0
  6  8  1  0
  8  9  1  0
  9 10  1  0
 10 11  1  0
 11 12  1  0
 12 13  1  0
 13 14  1  0
 14 15  2  0
 14 16  1  0
 13  8  1  0
  1 17  1  0
  1 18  1  0
  4 19  1  0
  5 20  1  0
  8 21  1  0
  9 22  1  0
  9 23  1  0
 10 24  1  0
 10 25  1  0
 11 26  1  0
 11 27  1  0
 12 28  1  0
 12 29  1  0
 13 30  1  0
 16 31  1  0
M  END
$$$$
