
     RDKit          3D

 44 47  0  0  0  0  0  0  0  0999 V2000
    1.1480   -0.8421   -0.4788 O   0  0  0  0  0  0  0  0  0  0  0  0
    0.7361    0.3046   -0.2743 C   0  0  0  0  0  0  0  0  0  0  0  0
    1.6611    1.5019   -0.4666 C   0  0  0  0  0  0  0  0  0  0  0  0
    2.8449    1.5618    0.9134 S   0  0  0  0  0  0  0  0  0  0  0  0
    4.0692    0.5390    0.2642 C   0  0  0  0  0  0  0  0  0  0  0  0
    4.7922    0.7663   -0.8038 N   0  0  0  0  0  0  0  0  0  0  0  0
    5.6078   -0.3356   -0.9101 C   0  0  0  0  0  0  0  0  0  0  0  0
    6.5875   -0.6301   -1.8678 C   0  0  0  0  0  0  0  0  0  0  0  0
    7.2853   -1.8358   -1.7449 C   0  0  0  0  0  0  0  0  0  0  0  0
    8.4970   -2.2276   -2.9069 Cl  0  0  0  0  0  0  0  0  0  0  0  0
    7.0230   -2.7307   -0.7024 C   0  0  0  0  0  0  0  0  0  0  0  0
    6.0466   -2.4521    0.2610 C   0  0  0  0  0  0  0  0  0  0  0  0
    5.3623   -1.2427    0.1200 C   0  0  0  0  0  0  0  0  0  0  0  0
    4.3630   -0.6535    0.8536 N   0  0  0  0  0  0  0  0  0  0  0  0
   -0.5668    0.5366    0.1480 N   0  0  0  0  0  0  0  0  0  0  0  0
   -1.4891   -0.5977    0.2523 C   0  0  0  0  0  0  0  0  0  0  0  0
   -2.9349   -0.2085   -0.0879 C   0  0  0  0  0  0  0  0  0  0  0  0
   -3.4153    0.9542    0.6712 N   0  0  0  0  0  0  0  0  0  0  0  0
   -4.7644    1.2369    0.9191 C   0  0  0  0  0  0  0  0  0  0  0  0
   -5.0660    2.0658    1.7815 O   0  0  0  0  0  0  0  0  0  0  0  0
   -5.7993    0.5487    0.1607 C   0  0  0  0  0  0  0  0  0  0  0  0
   -7.1576    0.4467    0.4129 C   0  0  0  0  0  0  0  0  0  0  0  0
   -7.7229   -0.2986   -0.6485 C   0  0  0  0  0  0  0  0  0  0  0  0
   -6.6868   -0.5865   -1.5029 C   0  0  0  0  0  0  0  0  0  0  0  0
   -5.5231   -0.0747   -1.0285 O   0  0  0  0  0  0  0  0  0  0  0  0
   -2.3996    1.7492    1.3625 C   0  0  0  0  0  0  0  0  0  0  0  0
   -1.0887    1.8429    0.5696 C   0  0  0  0  0  0  0  0  0  0  0  0
    1.1150    2.4457   -0.5112 H   0  0  0  0  0  0  0  0  0  0  0  0
    2.1653    1.3966   -1.4325 H   0  0  0  0  0  0  0  0  0  0  0  0
    6.7874    0.0669   -2.6740 H   0  0  0  0  0  0  0  0  0  0  0  0
    7.5846   -3.6608   -0.6335 H   0  0  0  0  0  0  0  0  0  0  0  0
    5.8381   -3.1439    1.0707 H   0  0  0  0  0  0  0  0  0  0  0  0
    3.9052   -1.0311    1.6699 H   0  0  0  0  0  0  0  0  0  0  0  0
   -1.4305   -0.9556    1.2875 H   0  0  0  0  0  0  0  0  0  0  0  0
   -1.1678   -1.4183   -0.3989 H   0  0  0  0  0  0  0  0  0  0  0  0
   -3.5879   -1.0663    0.1017 H   0  0  0  0  0  0  0  0  0  0  0  0
   -2.9967    0.0589   -1.1497 H   0  0  0  0  0  0  0  0  0  0  0  0
   -7.6651    0.8670    1.2709 H   0  0  0  0  0  0  0  0  0  0  0  0
   -8.7575   -0.5812   -0.7795 H   0  0  0  0  0  0  0  0  0  0  0  0
   -6.6161   -1.1183   -2.4424 H   0  0  0  0  0  0  0  0  0  0  0  0
   -2.7766    2.7577    1.5633 H   0  0  0  0  0  0  0  0  0  0  0  0
   -2.2205    1.2626    2.3297 H   0  0  0  0  0  0  0  0  0  0  0  0
   -0.3345    2.3585    1.1716 H   0  0  0  0  0  0  0  0  0  0  0  0
   -1.2518    2.4233   -0.3460 H   0  0  0  0  0  0  0  0  0  0  0  0
  1  2  2  0
  2  3  1  0
  3  4  1  0
  4  5  1  0
  5  6  2  0
  6  7  1  0
  7  8  2  0
  8  9  1  0
  9 10  1  0
  9 11  2  0
 11 12  1  0
 12 13  2  0
 13 14  1  0
  2 15  1  0
 15 16  1  0
 16 17  1  0
 17 18  1  0
 18 19  1  0
 19 20  2  0
 19 21  1  0
 21 22  2  0
 22 23  1  0
 23 24  2  0
 24 25  1  0
 18 26  1  0
 26 27  1  0
 14  5  1  0
 27 15  1  0
 13  7  1  0
 25 21  1  0
  3 28  1  0
  3 29  1  0
  8 30  1  0
 11 31  1  0
 12 32  1  0
 14 33  1  0
 16 34  1  0
 16 35  1  0
 17 36  1  0
 17 37  1  0
 22 38  1  0
 23 39  1  0
 24 40  1  0
 26 41  1  0
 26 42  1  0
 27 43  1  0
 27 44  1  0
M  END
$$$$
