
     RDKit          3D

 45 49  0  0  0  0  0  0  0  0999 V2000
   -1.3116    2.7425   -0.3473 O   0  0  0  0  0  0  0  0  0  0  0  0
   -1.2799    1.5153   -0.2059 C   0  0  0  0  0  0  0  0  0  0  0  0
    0.0684    0.8774   -0.1789 C   0  0  0  0  0  0  0  0  0  0  0  0
    1.2885    1.5817    0.0048 C   0  0  0  0  0  0  0  0  0  0  0  0
    2.2838    0.6376   -0.0170 C   0  0  0  0  0  0  0  0  0  0  0  0
    3.6332    0.7453    0.1488 N   0  0  0  0  0  0  0  0  0  0  0  0
    4.3433   -0.3569    0.0923 C   0  0  0  0  0  0  0  0  0  0  0  0
    5.7830   -0.2257    0.3007 C   0  0  0  0  0  0  0  0  0  0  0  0
    6.4774    0.9486    0.5482 C   0  0  0  0  0  0  0  0  0  0  0  0
    7.8744    0.7427    0.7323 C   0  0  0  0  0  0  0  0  0  0  0  0
    8.2144   -0.5876    0.6180 C   0  0  0  0  0  0  0  0  0  0  0  0
    6.8595   -1.5616    0.2881 S   0  0  0  0  0  0  0  0  0  0  0  0
    3.7314   -1.7083   -0.1610 C   0  0  0  0  0  0  0  0  0  0  0  0
    2.3939   -1.7593   -0.3238 C   0  0  0  0  0  0  0  0  0  0  0  0
    1.6371   -3.0126   -0.5747 C   0  0  0  0  0  0  0  0  0  0  0  0
    2.4599   -4.1025   -0.5995 F   0  0  0  0  0  0  0  0  0  0  0  0
    0.9970   -3.0072   -1.7747 F   0  0  0  0  0  0  0  0  0  0  0  0
    0.7134   -3.2720    0.3922 F   0  0  0  0  0  0  0  0  0  0  0  0
    1.6505   -0.5867   -0.2513 N   0  0  0  0  0  0  0  0  0  0  0  0
    0.3115   -0.4357   -0.3747 N   0  0  0  0  0  0  0  0  0  0  0  0
   -2.4384    0.7068   -0.0383 N   0  0  0  0  0  0  0  0  0  0  0  0
   -2.3093   -0.6403    0.5379 C   0  0  0  0  0  0  0  0  0  0  0  0
   -3.5381   -1.1226    1.2846 C   0  0  0  0  0  0  0  0  0  0  0  0
   -4.7161   -1.1053    0.3407 C   0  0  0  0  0  0  0  0  0  0  0  0
   -4.8795    0.2784   -0.2274 C   0  0  0  0  0  0  0  0  0  0  0  0
   -6.1771    0.6709   -0.6108 C   0  0  0  0  0  0  0  0  0  0  0  0
   -6.4071    1.9248   -1.1481 C   0  0  0  0  0  0  0  0  0  0  0  0
   -5.3407    2.7890   -1.3243 C   0  0  0  0  0  0  0  0  0  0  0  0
   -4.0442    2.3975   -0.9644 C   0  0  0  0  0  0  0  0  0  0  0  0
   -3.7750    1.1411   -0.4070 C   0  0  0  0  0  0  0  0  0  0  0  0
    1.4138    2.6411    0.1467 H   0  0  0  0  0  0  0  0  0  0  0  0
    5.9936    1.9194    0.6014 H   0  0  0  0  0  0  0  0  0  0  0  0
    8.5873    1.5287    0.9445 H   0  0  0  0  0  0  0  0  0  0  0  0
    9.1959   -1.0330    0.7133 H   0  0  0  0  0  0  0  0  0  0  0  0
    4.3502   -2.5940   -0.2060 H   0  0  0  0  0  0  0  0  0  0  0  0
   -2.0688   -1.3315   -0.2787 H   0  0  0  0  0  0  0  0  0  0  0  0
   -1.4874   -0.6444    1.2614 H   0  0  0  0  0  0  0  0  0  0  0  0
   -3.3723   -2.1379    1.6682 H   0  0  0  0  0  0  0  0  0  0  0  0
   -3.7296   -0.4706    2.1497 H   0  0  0  0  0  0  0  0  0  0  0  0
   -5.6160   -1.4091    0.8925 H   0  0  0  0  0  0  0  0  0  0  0  0
   -4.5696   -1.8156   -0.4864 H   0  0  0  0  0  0  0  0  0  0  0  0
   -7.0171   -0.0078   -0.4810 H   0  0  0  0  0  0  0  0  0  0  0  0
   -7.4114    2.2263   -1.4316 H   0  0  0  0  0  0  0  0  0  0  0  0
   -5.5037    3.7817   -1.7512 H   0  0  0  0  0  0  0  0  0  0  0  0
   -3.2687    3.1314   -1.1526 H   0  0  0  0  0  0  0  0  0  0  0  0
  1  2  2  0
  2  3  1  0
  3  4  1  0
  4  5  2  0
  5  6  1  0
  6  7  2  0
  7  8  1  0
  8  9  2  0
  9 10  1  0
 10 11  2  0
 11 12  1  0
  7 13  1  0
 13 14  2  0
 14 15  1  0
 15 16  1  0
 15 17  1  0
 15 18  1  0
 14 19  1  0
 19 20  1  0
  2 21  1  0
 21 22  1  0
 22 23  1  0
 23 24  1  0
 24 25  1  0
 25 26  2  0
 26 27  1  0
 27 28  2  0
 28 29  1  0
 29 30  2  0
 20  3  2  0
 30 21  1  0
 19  5  1  0
 30 25  1  0
 12  8  1  0
  4 31  1  0
  9 32  1  0
 10 33  1  0
 11 34  1  0
 13 35  1  0
 22 36  1  0
 22 37  1  0
 23 38  1  0
 23 39  1  0
 24 40  1  0
 24 41  1  0
 26 42  1  0
 27 43  1  0
 28 44  1  0
 29 45  1  0
M  END
$$$$
