
     RDKit          3D

 63 66  0  0  0  0  0  0  0  0999 V2000
    5.8379   -1.1073   -0.9950 C   0  0  0  0  0  0  0  0  0  0  0  0
    6.2210   -1.0567    0.4594 C   0  0  0  0  0  0  0  0  0  0  0  0
    7.5648   -0.8203    0.7960 C   0  0  0  0  0  0  0  0  0  0  0  0
    7.9653   -0.7393    2.1295 C   0  0  0  0  0  0  0  0  0  0  0  0
    7.0276   -0.8847    3.1462 C   0  0  0  0  0  0  0  0  0  0  0  0
    5.6881   -1.1090    2.8293 C   0  0  0  0  0  0  0  0  0  0  0  0
    5.2640   -1.1936    1.4895 C   0  0  0  0  0  0  0  0  0  0  0  0
    3.7928   -1.4480    1.2082 C   0  0  0  0  0  0  0  0  0  0  0  0
    3.1150   -0.3391    0.5122 N   0  0  0  0  0  0  0  0  0  0  0  0
    2.9869    0.8428    1.3781 C   0  0  0  0  0  0  0  0  0  0  0  0
    2.2956    1.9969    0.6513 C   0  0  0  0  0  0  0  0  0  0  0  0
    0.9099    1.5671    0.1259 C   0  0  0  0  0  0  0  0  0  0  0  0
    0.1747    2.6245   -0.5687 N   0  0  0  0  0  0  0  0  0  0  0  0
    0.8425    3.7796   -0.8372 N   0  0  0  0  0  0  0  0  0  0  0  0
    0.0236    4.4756   -1.6157 C   0  0  0  0  0  0  0  0  0  0  0  0
   -1.1787    3.8032   -1.8466 C   0  0  0  0  0  0  0  0  0  0  0  0
   -1.0975    2.6237   -1.1289 C   0  0  0  0  0  0  0  0  0  0  0  0
   -2.1176    1.6840   -1.1008 N   0  0  0  0  0  0  0  0  0  0  0  0
   -2.3024    0.6465   -0.2083 C   0  0  0  0  0  0  0  0  0  0  0  0
   -1.6282    0.3957    0.7807 O   0  0  0  0  0  0  0  0  0  0  0  0
   -3.4950   -0.2093   -0.6131 C   0  0  0  0  0  0  0  0  0  0  0  0
   -3.8672   -1.2512    0.4418 C   0  0  0  0  0  0  0  0  0  0  0  0
   -4.9269   -2.2447   -0.0482 C   0  0  0  0  0  0  0  0  0  0  0  0
   -6.2165   -1.6011   -0.4976 C   0  0  0  0  0  0  0  0  0  0  0  0
   -7.0590   -0.9649    0.4244 C   0  0  0  0  0  0  0  0  0  0  0  0
   -8.2425   -0.3579   -0.0011 C   0  0  0  0  0  0  0  0  0  0  0  0
   -8.5965   -0.3836   -1.3488 C   0  0  0  0  0  0  0  0  0  0  0  0
   -7.7689   -1.0175   -2.2734 C   0  0  0  0  0  0  0  0  0  0  0  0
   -6.5851   -1.6246   -1.8502 C   0  0  0  0  0  0  0  0  0  0  0  0
    1.1029    0.3287   -0.7570 C   0  0  0  0  0  0  0  0  0  0  0  0
    1.8035   -0.7804    0.0232 C   0  0  0  0  0  0  0  0  0  0  0  0
    6.7197   -1.2357   -1.6318 H   0  0  0  0  0  0  0  0  0  0  0  0
    5.3435   -0.1769   -1.2888 H   0  0  0  0  0  0  0  0  0  0  0  0
    5.1779   -1.9551   -1.2001 H   0  0  0  0  0  0  0  0  0  0  0  0
    8.3118   -0.6966    0.0142 H   0  0  0  0  0  0  0  0  0  0  0  0
    9.0086   -0.5599    2.3733 H   0  0  0  0  0  0  0  0  0  0  0  0
    7.3379   -0.8182    4.1852 H   0  0  0  0  0  0  0  0  0  0  0  0
    4.9687   -1.2117    3.6386 H   0  0  0  0  0  0  0  0  0  0  0  0
    3.2629   -1.6898    2.1394 H   0  0  0  0  0  0  0  0  0  0  0  0
    3.7447   -2.3626    0.6028 H   0  0  0  0  0  0  0  0  0  0  0  0
    3.9762    1.1961    1.6887 H   0  0  0  0  0  0  0  0  0  0  0  0
    2.4279    0.5996    2.2918 H   0  0  0  0  0  0  0  0  0  0  0  0
    2.1948    2.8436    1.3419 H   0  0  0  0  0  0  0  0  0  0  0  0
    2.9344    2.3352   -0.1761 H   0  0  0  0  0  0  0  0  0  0  0  0
    0.3233    1.3398    1.0173 H   0  0  0  0  0  0  0  0  0  0  0  0
    0.3417    5.4432   -1.9814 H   0  0  0  0  0  0  0  0  0  0  0  0
   -2.0128    4.1480   -2.4401 H   0  0  0  0  0  0  0  0  0  0  0  0
   -2.8939    1.8784   -1.7248 H   0  0  0  0  0  0  0  0  0  0  0  0
   -4.3486    0.4535   -0.8007 H   0  0  0  0  0  0  0  0  0  0  0  0
   -3.2358   -0.7086   -1.5542 H   0  0  0  0  0  0  0  0  0  0  0  0
   -2.9747   -1.8198    0.7301 H   0  0  0  0  0  0  0  0  0  0  0  0
   -4.2131   -0.7443    1.3497 H   0  0  0  0  0  0  0  0  0  0  0  0
   -5.1562   -2.9563    0.7544 H   0  0  0  0  0  0  0  0  0  0  0  0
   -4.5059   -2.8436   -0.8659 H   0  0  0  0  0  0  0  0  0  0  0  0
   -6.8006   -0.9386    1.4813 H   0  0  0  0  0  0  0  0  0  0  0  0
   -8.8900    0.1336    0.7209 H   0  0  0  0  0  0  0  0  0  0  0  0
   -9.5198    0.0865   -1.6777 H   0  0  0  0  0  0  0  0  0  0  0  0
   -8.0468   -1.0434   -3.3240 H   0  0  0  0  0  0  0  0  0  0  0  0
   -5.9527   -2.1160   -2.5855 H   0  0  0  0  0  0  0  0  0  0  0  0
    0.1521   -0.0559   -1.1367 H   0  0  0  0  0  0  0  0  0  0  0  0
    1.6952    0.5896   -1.6449 H   0  0  0  0  0  0  0  0  0  0  0  0
    1.1662   -1.1136    0.8537 H   0  0  0  0  0  0  0  0  0  0  0  0
    1.9293   -1.6356   -0.6523 H   0  0  0  0  0  0  0  0  0  0  0  0
  1  2  1  0
  2  3  2  0
  3  4  1  0
  4  5  2  0
  5  6  1  0
  6  7  2  0
  7  8  1  0
  8  9  1  0
  9 10  1  0
 10 11  1  0
 11 12  1  0
 12 13  1  0
 13 14  1  0
 14 15  2  0
 15 16  1  0
 16 17  2  0
 17 18  1  0
 18 19  1  0
 19 20  2  0
 19 21  1  0
 21 22  1  0
 22 23  1  0
 23 24  1  0
 24 25  2  0
 25 26  1  0
 26 27  2  0
 27 28  1  0
 28 29  2  0
 12 30  1  0
 30 31  1  0
  7  2  1  0
 31  9  1  0
 17 13  1  0
 29 24  1  0
  1 32  1  0
  1 33  1  0
  1 34  1  0
  3 35  1  0
  4 36  1  0
  5 37  1  0
  6 38  1  0
  8 39  1  0
  8 40  1  0
 10 41  1  0
 10 42  1  0
 11 43  1  0
 11 44  1  0
 12 45  1  0
 15 46  1  0
 16 47  1  0
 18 48  1  0
 21 49  1  0
 21 50  1  0
 22 51  1  0
 22 52  1  0
 23 53  1  0
 23 54  1  0
 25 55  1  0
 26 56  1  0
 27 57  1  0
 28 58  1  0
 29 59  1  0
 30 60  1  0
 30 61  1  0
 31 62  1  0
 31 63  1  0
M  END
$$$$
