
     RDKit          3D

 44 46  0  0  0  0  0  0  0  0999 V2000
    2.8197    2.5622   -1.6661 C   0  0  0  0  0  0  0  0  0  0  0  0
    3.1548    1.2071   -2.0982 N   0  0  0  0  0  0  0  0  0  0  0  0
    3.7838    0.4265   -1.0127 C   0  0  0  0  0  0  0  0  0  0  0  0
    2.8345   -0.0027    0.1216 C   0  0  0  0  0  0  0  0  0  0  0  0
    1.6078   -0.6280   -0.3715 N   0  0  0  0  0  0  0  0  0  0  0  0
    0.9243   -1.4666    0.5065 C   0  0  0  0  0  0  0  0  0  0  0  0
    1.3745   -1.8441    1.5861 O   0  0  0  0  0  0  0  0  0  0  0  0
   -0.3977   -1.9868    0.1011 C   0  0  0  0  0  0  0  0  0  0  0  0
   -0.4022   -3.1467   -0.6889 C   0  0  0  0  0  0  0  0  0  0  0  0
   -1.6111   -3.7149   -1.0816 C   0  0  0  0  0  0  0  0  0  0  0  0
   -2.8105   -3.1351   -0.6763 C   0  0  0  0  0  0  0  0  0  0  0  0
   -2.8037   -1.9858    0.1215 C   0  0  0  0  0  0  0  0  0  0  0  0
   -1.5975   -1.3806    0.5250 C   0  0  0  0  0  0  0  0  0  0  0  0
   -1.6393   -0.1760    1.3779 C   0  0  0  0  0  0  0  0  0  0  0  0
   -1.1968   -0.2749    2.7127 C   0  0  0  0  0  0  0  0  0  0  0  0
   -1.2494    0.8148    3.5851 C   0  0  0  0  0  0  0  0  0  0  0  0
   -1.7565    2.0323    3.1476 C   0  0  0  0  0  0  0  0  0  0  0  0
   -2.2071    2.1605    1.8352 C   0  0  0  0  0  0  0  0  0  0  0  0
   -2.1527    1.0681    0.9492 C   0  0  0  0  0  0  0  0  0  0  0  0
   -2.6119    1.2791   -0.4476 C   0  0  0  0  0  0  0  0  0  0  0  0
   -2.1496    0.7912   -1.4604 O   0  0  0  0  0  0  0  0  0  0  0  0
   -3.6692    2.1119   -0.4990 O   0  0  0  0  0  0  0  0  0  0  0  0
    0.9625    0.0524   -1.5006 C   0  0  0  0  0  0  0  0  0  0  0  0
    1.9660    0.4799   -2.5891 C   0  0  0  0  0  0  0  0  0  0  0  0
    2.1044    2.5920   -0.8381 H   0  0  0  0  0  0  0  0  0  0  0  0
    2.3970    3.1331   -2.5004 H   0  0  0  0  0  0  0  0  0  0  0  0
    3.7243    3.0949   -1.3522 H   0  0  0  0  0  0  0  0  0  0  0  0
    4.2123   -0.4786   -1.4635 H   0  0  0  0  0  0  0  0  0  0  0  0
    4.6345    0.9779   -0.5941 H   0  0  0  0  0  0  0  0  0  0  0  0
    2.5372    0.8632    0.7252 H   0  0  0  0  0  0  0  0  0  0  0  0
    3.3618   -0.6941    0.7885 H   0  0  0  0  0  0  0  0  0  0  0  0
    0.5372   -3.6053   -0.9885 H   0  0  0  0  0  0  0  0  0  0  0  0
   -1.6182   -4.6124   -1.6948 H   0  0  0  0  0  0  0  0  0  0  0  0
   -3.7566   -3.5798   -0.9754 H   0  0  0  0  0  0  0  0  0  0  0  0
   -3.7574   -1.5634    0.4340 H   0  0  0  0  0  0  0  0  0  0  0  0
   -0.7988   -1.2196    3.0854 H   0  0  0  0  0  0  0  0  0  0  0  0
   -0.8926    0.7053    4.6066 H   0  0  0  0  0  0  0  0  0  0  0  0
   -1.7989    2.8810    3.8256 H   0  0  0  0  0  0  0  0  0  0  0  0
   -2.5956    3.1207    1.5025 H   0  0  0  0  0  0  0  0  0  0  0  0
   -3.8916    2.1542   -1.4527 H   0  0  0  0  0  0  0  0  0  0  0  0
    0.4527    0.9310   -1.0917 H   0  0  0  0  0  0  0  0  0  0  0  0
    0.2047   -0.5922   -1.9535 H   0  0  0  0  0  0  0  0  0  0  0  0
    2.3207   -0.4233   -3.1033 H   0  0  0  0  0  0  0  0  0  0  0  0
    1.4501    1.0717   -3.3551 H   0  0  0  0  0  0  0  0  0  0  0  0
  1  2  1  0
  2  3  1  0
  3  4  1  0
  4  5  1  0
  5  6  1  0
  6  7  2  0
  6  8  1  0
  8  9  2  0
  9 10  1  0
 10 11  2  0
 11 12  1  0
 12 13  2  0
 13 14  1  0
 14 15  2  0
 15 16  1  0
 16 17  2  0
 17 18  1  0
 18 19  2  0
 19 20  1  0
 20 21  2  0
 20 22  1  0
  5 23  1  0
 23 24  1  0
 24  2  1  0
 13  8  1  0
 19 14  1  0
  1 25  1  0
  1 26  1  0
  1 27  1  0
  3 28  1  0
  3 29  1  0
  4 30  1  0
  4 31  1  0
  9 32  1  0
 10 33  1  0
 11 34  1  0
 12 35  1  0
 15 36  1  0
 16 37  1  0
 17 38  1  0
 18 39  1  0
 22 40  1  0
 23 41  1  0
 23 42  1  0
 24 43  1  0
 24 44  1  0
M  END
$$$$
