
     RDKit          3D

 39 41  0  0  0  0  0  0  0  0999 V2000
    0.2296    3.9567   -2.3789 C   0  0  0  0  0  0  0  0  0  0  0  0
   -0.5008    4.2745   -1.0854 C   0  0  0  0  0  0  0  0  0  0  0  0
   -1.9501    3.1901   -0.8578 S   0  0  0  0  0  0  0  0  0  0  0  0
   -1.1607    1.6630   -0.3666 C   0  0  0  0  0  0  0  0  0  0  0  0
   -1.8037    0.4726   -0.6327 C   0  0  0  0  0  0  0  0  0  0  0  0
   -1.1894   -0.6912   -0.2197 C   0  0  0  0  0  0  0  0  0  0  0  0
   -1.7606   -1.9257   -0.4299 N   0  0  0  0  0  0  0  0  0  0  0  0
   -1.0387   -3.1295   -0.0321 C   0  0  0  0  0  0  0  0  0  0  0  0
   -1.9524   -4.2520   -0.5133 C   0  0  0  0  0  0  0  0  0  0  0  0
   -2.5178   -3.6868   -1.8064 C   0  0  0  0  0  0  0  0  0  0  0  0
   -2.7189   -2.2029   -1.4948 C   0  0  0  0  0  0  0  0  0  0  0  0
   -0.0222   -0.6390    0.4442 N   0  0  0  0  0  0  0  0  0  0  0  0
    0.5405    0.5649    0.6574 C   0  0  0  0  0  0  0  0  0  0  0  0
    1.7797    0.5874    1.4433 C   0  0  0  0  0  0  0  0  0  0  0  0
    1.8473   -0.1690    2.6348 C   0  0  0  0  0  0  0  0  0  0  0  0
    2.9903   -0.1763    3.4385 C   0  0  0  0  0  0  0  0  0  0  0  0
    4.1012    0.5711    3.0672 C   0  0  0  0  0  0  0  0  0  0  0  0
    4.0688    1.3165    1.8902 C   0  0  0  0  0  0  0  0  0  0  0  0
    2.9220    1.3242    1.0816 C   0  0  0  0  0  0  0  0  0  0  0  0
    3.0253    2.2336   -0.3892 Cl  0  0  0  0  0  0  0  0  0  0  0  0
    0.0073    1.7342    0.2842 N   0  0  0  0  0  0  0  0  0  0  0  0
    0.6181    2.9338   -2.3919 H   0  0  0  0  0  0  0  0  0  0  0  0
   -0.4235    4.0884   -3.2483 H   0  0  0  0  0  0  0  0  0  0  0  0
    1.0805    4.6351   -2.5007 H   0  0  0  0  0  0  0  0  0  0  0  0
    0.1726    4.2193   -0.2250 H   0  0  0  0  0  0  0  0  0  0  0  0
   -0.8709    5.3041   -1.1312 H   0  0  0  0  0  0  0  0  0  0  0  0
   -2.7618    0.4626   -1.1334 H   0  0  0  0  0  0  0  0  0  0  0  0
   -0.0687   -3.1895   -0.5411 H   0  0  0  0  0  0  0  0  0  0  0  0
   -0.8853   -3.1852    1.0508 H   0  0  0  0  0  0  0  0  0  0  0  0
   -1.4186   -5.1952   -0.6582 H   0  0  0  0  0  0  0  0  0  0  0  0
   -2.7614   -4.4184    0.2081 H   0  0  0  0  0  0  0  0  0  0  0  0
   -3.4442   -4.1778   -2.1173 H   0  0  0  0  0  0  0  0  0  0  0  0
   -1.7844   -3.8016   -2.6140 H   0  0  0  0  0  0  0  0  0  0  0  0
   -2.5461   -1.6065   -2.3976 H   0  0  0  0  0  0  0  0  0  0  0  0
   -3.7361   -2.0178   -1.1327 H   0  0  0  0  0  0  0  0  0  0  0  0
    0.9849   -0.7600    2.9440 H   0  0  0  0  0  0  0  0  0  0  0  0
    3.0075   -0.7656    4.3521 H   0  0  0  0  0  0  0  0  0  0  0  0
    4.9938    0.5696    3.6876 H   0  0  0  0  0  0  0  0  0  0  0  0
    4.9470    1.8882    1.5989 H   0  0  0  0  0  0  0  0  0  0  0  0
  1  2  1  0
  2  3  1  0
  3  4  1  0
  4  5  2  0
  5  6  1  0
  6  7  1  0
  7  8  1  0
  8  9  1  0
  9 10  1  0
 10 11  1  0
  6 12  2  0
 12 13  1  0
 13 14  1  0
 14 15  2  0
 15 16  1  0
 16 17  2  0
 17 18  1  0
 18 19  2  0
 19 20  1  0
 13 21  2  0
 21  4  1  0
 11  7  1  0
 19 14  1  0
  1 22  1  0
  1 23  1  0
  1 24  1  0
  2 25  1  0
  2 26  1  0
  5 27  1  0
  8 28  1  0
  8 29  1  0
  9 30  1  0
  9 31  1  0
 10 32  1  0
 10 33  1  0
 11 34  1  0
 11 35  1  0
 15 36  1  0
 16 37  1  0
 17 38  1  0
 18 39  1  0
M  END
$$$$
