
     RDKit          3D

 46 46  0  0  0  0  0  0  0  0999 V2000
   -1.4985   -1.4444    0.8422 O   0  0  0  0  0  0  0  0  0  0  0  0
   -1.4274   -0.2580    0.5439 C   0  0  0  0  0  0  0  0  0  0  0  0
   -0.1458    0.5415    0.6116 C   0  0  0  0  0  0  0  0  0  0  0  0
    1.0276   -0.3195    1.0615 C   0  0  0  0  0  0  0  0  0  0  0  0
    2.2975    0.4864    1.1223 C   0  0  0  0  0  0  0  0  0  0  0  0
    2.3871    1.6813    0.8799 O   0  0  0  0  0  0  0  0  0  0  0  0
    3.3351   -0.3208    1.4820 O   0  0  0  0  0  0  0  0  0  0  0  0
    4.6142    0.3189    1.6063 C   0  0  0  0  0  0  0  0  0  0  0  0
    5.3205    0.3986    0.2531 C   0  0  0  0  0  0  0  0  0  0  0  0
    5.5075   -0.9827   -0.3788 C   0  0  0  0  0  0  0  0  0  0  0  0
    6.3874   -0.9883   -1.6267 C   0  0  0  0  0  0  0  0  0  0  0  0
    6.5480   -2.2950   -1.9989 F   0  0  0  0  0  0  0  0  0  0  0  0
    7.6324   -0.5522   -1.2786 F   0  0  0  0  0  0  0  0  0  0  0  0
    5.8404   -0.1788   -2.8055 C   0  0  0  0  0  0  0  0  0  0  0  0
    6.6242   -0.2936   -3.9046 F   0  0  0  0  0  0  0  0  0  0  0  0
    4.5965   -0.5904   -3.1554 F   0  0  0  0  0  0  0  0  0  0  0  0
    5.7528    1.1432   -2.5225 F   0  0  0  0  0  0  0  0  0  0  0  0
   -2.5011    0.4894    0.1072 N   0  0  0  0  0  0  0  0  0  0  0  0
   -3.8507   -0.0572    0.0710 C   0  0  0  0  0  0  0  0  0  0  0  0
   -4.6984    0.6954   -0.9605 C   0  0  0  0  0  0  0  0  0  0  0  0
   -6.1381    0.1895   -0.9849 C   0  0  0  0  0  0  0  0  0  0  0  0
   -6.7762    0.2444    0.3999 C   0  0  0  0  0  0  0  0  0  0  0  0
   -5.9388   -0.5015    1.4343 C   0  0  0  0  0  0  0  0  0  0  0  0
   -4.4973    0.0004    1.4616 C   0  0  0  0  0  0  0  0  0  0  0  0
    0.0532    0.9642   -0.3806 H   0  0  0  0  0  0  0  0  0  0  0  0
   -0.2940    1.3739    1.3101 H   0  0  0  0  0  0  0  0  0  0  0  0
    0.8326   -0.7331    2.0574 H   0  0  0  0  0  0  0  0  0  0  0  0
    1.1758   -1.1471    0.3583 H   0  0  0  0  0  0  0  0  0  0  0  0
    4.5125    1.3136    2.0562 H   0  0  0  0  0  0  0  0  0  0  0  0
    5.2066   -0.2833    2.3039 H   0  0  0  0  0  0  0  0  0  0  0  0
    4.7262    1.0239   -0.4210 H   0  0  0  0  0  0  0  0  0  0  0  0
    6.2927    0.8856    0.3880 H   0  0  0  0  0  0  0  0  0  0  0  0
    4.5341   -1.4258   -0.6213 H   0  0  0  0  0  0  0  0  0  0  0  0
    5.9706   -1.6496    0.3595 H   0  0  0  0  0  0  0  0  0  0  0  0
   -2.3946    1.4954    0.0620 H   0  0  0  0  0  0  0  0  0  0  0  0
   -3.7768   -1.1090   -0.2352 H   0  0  0  0  0  0  0  0  0  0  0  0
   -4.2552    0.5879   -1.9580 H   0  0  0  0  0  0  0  0  0  0  0  0
   -4.6955    1.7700   -0.7348 H   0  0  0  0  0  0  0  0  0  0  0  0
   -6.1557   -0.8431   -1.3545 H   0  0  0  0  0  0  0  0  0  0  0  0
   -6.7280    0.7900   -1.6865 H   0  0  0  0  0  0  0  0  0  0  0  0
   -6.8889    1.2911    0.7082 H   0  0  0  0  0  0  0  0  0  0  0  0
   -7.7827   -0.1869    0.3596 H   0  0  0  0  0  0  0  0  0  0  0  0
   -6.3887   -0.3839    2.4266 H   0  0  0  0  0  0  0  0  0  0  0  0
   -5.9465   -1.5742    1.2052 H   0  0  0  0  0  0  0  0  0  0  0  0
   -3.9182   -0.5983    2.1749 H   0  0  0  0  0  0  0  0  0  0  0  0
   -4.4783    1.0319    1.8374 H   0  0  0  0  0  0  0  0  0  0  0  0
  1  2  2  0
  2  3  1  0
  3  4  1  0
  4  5  1  0
  5  6  2  0
  5  7  1  0
  7  8  1  0
  8  9  1  0
  9 10  1  0
 10 11  1  0
 11 12  1  0
 11 13  1  0
 11 14  1  0
 14 15  1  0
 14 16  1  0
 14 17  1  0
  2 18  1  0
 18 19  1  0
 19 20  1  0
 20 21  1  0
 21 22  1  0
 22 23  1  0
 23 24  1  0
 24 19  1  0
  3 25  1  0
  3 26  1  0
  4 27  1  0
  4 28  1  0
  8 29  1  0
  8 30  1  0
  9 31  1  0
  9 32  1  0
 10 33  1  0
 10 34  1  0
 18 35  1  0
 19 36  1  0
 20 37  1  0
 20 38  1  0
 21 39  1  0
 21 40  1  0
 22 41  1  0
 22 42  1  0
 23 43  1  0
 23 44  1  0
 24 45  1  0
 24 46  1  0
M  END
$$$$
