
     RDKit          3D

 43 46  0  0  0  0  0  0  0  0999 V2000
   -2.2624   -2.8050    0.4003 C   0  0  0  0  0  0  0  0  0  0  0  0
   -1.8698   -2.1158   -0.8928 C   0  0  0  0  0  0  0  0  0  0  0  0
   -1.8666   -0.6919   -0.7131 O   0  0  0  0  0  0  0  0  0  0  0  0
   -3.0625   -0.0659   -0.8917 C   0  0  0  0  0  0  0  0  0  0  0  0
   -4.0966   -0.6364   -1.2144 O   0  0  0  0  0  0  0  0  0  0  0  0
   -2.9496    1.3633   -0.6378 C   0  0  0  0  0  0  0  0  0  0  0  0
   -4.0326    2.2378   -0.6281 C   0  0  0  0  0  0  0  0  0  0  0  0
   -3.5265    3.5232   -0.3071 C   0  0  0  0  0  0  0  0  0  0  0  0
   -4.1047    5.1376   -0.0715 S   0  0  0  0  0  0  0  0  0  0  0  0
   -2.5020    5.6558    0.2724 C   0  0  0  0  0  0  0  0  0  0  0  0
   -1.5575    4.6536    0.2056 C   0  0  0  0  0  0  0  0  0  0  0  0
   -2.1801    3.4202   -0.1392 C   0  0  0  0  0  0  0  0  0  0  0  0
   -1.8114    2.1072   -0.3619 N   0  0  0  0  0  0  0  0  0  0  0  0
   -0.4201    1.6756   -0.3531 C   0  0  0  0  0  0  0  0  0  0  0  0
   -0.0271    0.9801    0.9349 C   0  0  0  0  0  0  0  0  0  0  0  0
   -0.5542    1.2289    2.0181 O   0  0  0  0  0  0  0  0  0  0  0  0
    1.0654   -0.0357    0.8906 C   0  0  0  0  0  0  0  0  0  0  0  0
    1.1748   -0.9400    1.9584 C   0  0  0  0  0  0  0  0  0  0  0  0
    2.1751   -1.9148    1.9618 C   0  0  0  0  0  0  0  0  0  0  0  0
    3.0760   -1.9841    0.9035 C   0  0  0  0  0  0  0  0  0  0  0  0
    2.9620   -1.0959   -0.1703 C   0  0  0  0  0  0  0  0  0  0  0  0
    1.9723   -0.1116   -0.1725 C   0  0  0  0  0  0  0  0  0  0  0  0
    3.7966   -1.1235   -1.2589 O   0  0  0  0  0  0  0  0  0  0  0  0
    4.5388   -2.3483   -1.3198 C   0  0  0  0  0  0  0  0  0  0  0  0
    5.1027   -2.7045    0.0458 C   0  0  0  0  0  0  0  0  0  0  0  0
    4.0447   -2.9504    0.9795 O   0  0  0  0  0  0  0  0  0  0  0  0
   -2.2058   -3.8918    0.2930 H   0  0  0  0  0  0  0  0  0  0  0  0
   -1.6026   -2.4958    1.2174 H   0  0  0  0  0  0  0  0  0  0  0  0
   -3.2813   -2.5356    0.6955 H   0  0  0  0  0  0  0  0  0  0  0  0
   -0.8494   -2.4038   -1.1666 H   0  0  0  0  0  0  0  0  0  0  0  0
   -2.5208   -2.4134   -1.7226 H   0  0  0  0  0  0  0  0  0  0  0  0
   -5.0653    1.9717   -0.8155 H   0  0  0  0  0  0  0  0  0  0  0  0
   -2.3340    6.6963    0.5147 H   0  0  0  0  0  0  0  0  0  0  0  0
   -0.5036    4.8024    0.3991 H   0  0  0  0  0  0  0  0  0  0  0  0
    0.2191    2.5553   -0.4825 H   0  0  0  0  0  0  0  0  0  0  0  0
   -0.2851    1.0374   -1.2303 H   0  0  0  0  0  0  0  0  0  0  0  0
    0.4787   -0.8896    2.7948 H   0  0  0  0  0  0  0  0  0  0  0  0
    2.2569   -2.6085    2.7946 H   0  0  0  0  0  0  0  0  0  0  0  0
    1.9376    0.5767   -1.0108 H   0  0  0  0  0  0  0  0  0  0  0  0
    3.8770   -3.1369   -1.6989 H   0  0  0  0  0  0  0  0  0  0  0  0
    5.3507   -2.2081   -2.0402 H   0  0  0  0  0  0  0  0  0  0  0  0
    5.7062   -3.6152   -0.0193 H   0  0  0  0  0  0  0  0  0  0  0  0
    5.7369   -1.9011    0.4407 H   0  0  0  0  0  0  0  0  0  0  0  0
  1  2  1  0
  2  3  1  0
  3  4  1  0
  4  5  2  0
  4  6  1  0
  6  7  2  0
  7  8  1  0
  8  9  1  0
  9 10  1  0
 10 11  2  0
 11 12  1  0
 12 13  1  0
 13 14  1  0
 14 15  1  0
 15 16  2  0
 15 17  1  0
 17 18  2  0
 18 19  1  0
 19 20  2  0
 20 21  1  0
 21 22  2  0
 21 23  1  0
 23 24  1  0
 24 25  1  0
 25 26  1  0
 13  6  1  0
 22 17  1  0
 12  8  2  0
 26 20  1  0
  1 27  1  0
  1 28  1  0
  1 29  1  0
  2 30  1  0
  2 31  1  0
  7 32  1  0
 10 33  1  0
 11 34  1  0
 14 35  1  0
 14 36  1  0
 18 37  1  0
 19 38  1  0
 22 39  1  0
 24 40  1  0
 24 41  1  0
 25 42  1  0
 25 43  1  0
M  END
$$$$
