
     RDKit          3D

 53 56  0  0  0  0  0  0  0  0999 V2000
    8.2174    1.0670   -0.7586 C   0  0  0  0  0  0  0  0  0  0  0  0
    7.0807    1.7328   -0.2229 O   0  0  0  0  0  0  0  0  0  0  0  0
    5.8646    1.4093   -0.7582 C   0  0  0  0  0  0  0  0  0  0  0  0
    4.7764    2.0567   -0.1694 C   0  0  0  0  0  0  0  0  0  0  0  0
    3.4757    1.8190   -0.6193 C   0  0  0  0  0  0  0  0  0  0  0  0
    3.2431    0.9289   -1.6752 C   0  0  0  0  0  0  0  0  0  0  0  0
    1.8377    0.6523   -2.1401 C   0  0  0  0  0  0  0  0  0  0  0  0
    1.2094   -0.3494   -1.3054 N   0  0  0  0  0  0  0  0  0  0  0  0
    0.3722    0.0050   -0.2554 C   0  0  0  0  0  0  0  0  0  0  0  0
    0.0317    1.1718   -0.0664 O   0  0  0  0  0  0  0  0  0  0  0  0
   -0.1008   -1.1674    0.5987 C   0  0  0  0  0  0  0  0  0  0  0  0
    1.0022   -1.5803    1.4816 C   0  0  0  0  0  0  0  0  0  0  0  0
    1.9039   -1.9643    2.1069 N   0  0  0  0  0  0  0  0  0  0  0  0
   -1.3852   -0.8556    1.3361 C   0  0  0  0  0  0  0  0  0  0  0  0
   -1.3288   -0.6339    2.6800 N   0  0  0  0  0  0  0  0  0  0  0  0
   -2.4847   -0.3671    3.3101 C   0  0  0  0  0  0  0  0  0  0  0  0
   -2.4816   -0.1267    4.6787 C   0  0  0  0  0  0  0  0  0  0  0  0
   -3.6622    0.1504    5.3692 C   0  0  0  0  0  0  0  0  0  0  0  0
   -4.8664    0.1872    4.6781 C   0  0  0  0  0  0  0  0  0  0  0  0
   -4.8781   -0.0549    3.3033 C   0  0  0  0  0  0  0  0  0  0  0  0
   -3.7080   -0.3317    2.6061 C   0  0  0  0  0  0  0  0  0  0  0  0
   -3.7626   -0.5629    1.2808 N   0  0  0  0  0  0  0  0  0  0  0  0
   -2.6011   -0.8184    0.6348 C   0  0  0  0  0  0  0  0  0  0  0  0
   -2.6233   -1.0554   -0.7620 N   0  0  0  0  0  0  0  0  0  0  0  0
   -3.7247   -1.9738   -1.1367 C   0  0  0  0  0  0  0  0  0  0  0  0
   -4.7674   -1.1137   -1.8382 C   0  0  0  0  0  0  0  0  0  0  0  0
   -3.9095   -0.0720   -2.5248 C   0  0  0  0  0  0  0  0  0  0  0  0
   -2.8531    0.2335   -1.4681 C   0  0  0  0  0  0  0  0  0  0  0  0
    4.3365    0.2752   -2.2593 C   0  0  0  0  0  0  0  0  0  0  0  0
    5.6393    0.5172   -1.8064 C   0  0  0  0  0  0  0  0  0  0  0  0
    8.3602    1.3214   -1.8138 H   0  0  0  0  0  0  0  0  0  0  0  0
    8.1454   -0.0168   -0.6180 H   0  0  0  0  0  0  0  0  0  0  0  0
    9.0981    1.4158   -0.2105 H   0  0  0  0  0  0  0  0  0  0  0  0
    4.9413    2.7488    0.6529 H   0  0  0  0  0  0  0  0  0  0  0  0
    2.6434    2.3280   -0.1350 H   0  0  0  0  0  0  0  0  0  0  0  0
    1.2496    1.5767   -2.1537 H   0  0  0  0  0  0  0  0  0  0  0  0
    1.8461    0.2600   -3.1631 H   0  0  0  0  0  0  0  0  0  0  0  0
    1.6418   -1.2648   -1.3030 H   0  0  0  0  0  0  0  0  0  0  0  0
   -0.2997   -2.0142   -0.0730 H   0  0  0  0  0  0  0  0  0  0  0  0
   -1.5362   -0.1569    5.2162 H   0  0  0  0  0  0  0  0  0  0  0  0
   -3.6356    0.3362    6.4401 H   0  0  0  0  0  0  0  0  0  0  0  0
   -5.7941    0.4022    5.2021 H   0  0  0  0  0  0  0  0  0  0  0  0
   -5.8199   -0.0271    2.7610 H   0  0  0  0  0  0  0  0  0  0  0  0
   -3.3142   -2.7017   -1.8480 H   0  0  0  0  0  0  0  0  0  0  0  0
   -4.1488   -2.5497   -0.3051 H   0  0  0  0  0  0  0  0  0  0  0  0
   -5.4312   -0.6387   -1.1067 H   0  0  0  0  0  0  0  0  0  0  0  0
   -5.3799   -1.6881   -2.5389 H   0  0  0  0  0  0  0  0  0  0  0  0
   -3.4395   -0.4970   -3.4200 H   0  0  0  0  0  0  0  0  0  0  0  0
   -4.4745    0.8165   -2.8217 H   0  0  0  0  0  0  0  0  0  0  0  0
   -3.2164    1.0306   -0.8057 H   0  0  0  0  0  0  0  0  0  0  0  0
   -1.9291    0.5791   -1.9418 H   0  0  0  0  0  0  0  0  0  0  0  0
    4.1856   -0.4304   -3.0737 H   0  0  0  0  0  0  0  0  0  0  0  0
    6.4540   -0.0088   -2.2922 H   0  0  0  0  0  0  0  0  0  0  0  0
  1  2  1  0
  2  3  1  0
  3  4  2  0
  4  5  1  0
  5  6  2  0
  6  7  1  0
  7  8  1  0
  8  9  1  0
  9 10  2  0
  9 11  1  0
 11 12  1  0
 12 13  3  0
 11 14  1  0
 14 15  2  0
 15 16  1  0
 16 17  2  0
 17 18  1  0
 18 19  2  0
 19 20  1  0
 20 21  2  0
 21 22  1  0
 22 23  2  0
 23 24  1  0
 24 25  1  0
 25 26  1  0
 26 27  1  0
 27 28  1  0
  6 29  1  0
 29 30  2  0
 30  3  1  0
 23 14  1  0
 28 24  1  0
 21 16  1  0
  1 31  1  0
  1 32  1  0
  1 33  1  0
  4 34  1  0
  5 35  1  0
  7 36  1  0
  7 37  1  0
  8 38  1  0
 11 39  1  0
 17 40  1  0
 18 41  1  0
 19 42  1  0
 20 43  1  0
 25 44  1  0
 25 45  1  0
 26 46  1  0
 26 47  1  0
 27 48  1  0
 27 49  1  0
 28 50  1  0
 28 51  1  0
 29 52  1  0
 30 53  1  0
M  END
$$$$
