
     RDKit          3D

 44 47  0  0  0  0  0  0  0  0999 V2000
    8.4258   -1.8485    0.5458 C   0  0  0  0  0  0  0  0  0  0  0  0
    7.3357   -1.0710   -0.1696 C   0  0  0  0  0  0  0  0  0  0  0  0
    6.1768   -1.0750    0.6610 O   0  0  0  0  0  0  0  0  0  0  0  0
    5.0655   -0.4085    0.2171 C   0  0  0  0  0  0  0  0  0  0  0  0
    4.9738    0.2496   -1.0129 C   0  0  0  0  0  0  0  0  0  0  0  0
    3.7904    0.9000   -1.3807 C   0  0  0  0  0  0  0  0  0  0  0  0
    2.6802    0.8925   -0.5288 C   0  0  0  0  0  0  0  0  0  0  0  0
    1.4447    1.6027   -0.9646 C   0  0  0  0  0  0  0  0  0  0  0  0
    1.5730    2.6052   -1.6563 O   0  0  0  0  0  0  0  0  0  0  0  0
    0.2590    1.0158   -0.5614 N   0  0  0  0  0  0  0  0  0  0  0  0
   -1.0508    1.4887   -0.7935 C   0  0  0  0  0  0  0  0  0  0  0  0
   -1.3442    2.7027   -1.4134 C   0  0  0  0  0  0  0  0  0  0  0  0
   -2.6708    3.0995   -1.5996 C   0  0  0  0  0  0  0  0  0  0  0  0
   -3.7170    2.2856   -1.1645 C   0  0  0  0  0  0  0  0  0  0  0  0
   -3.4495    1.0637   -0.5355 C   0  0  0  0  0  0  0  0  0  0  0  0
   -4.5173    0.1844   -0.0634 C   0  0  0  0  0  0  0  0  0  0  0  0
   -4.4127   -0.9864    0.5448 N   0  0  0  0  0  0  0  0  0  0  0  0
   -5.7172   -1.3514    0.7531 C   0  0  0  0  0  0  0  0  0  0  0  0
   -6.2849   -2.4816    1.3497 C   0  0  0  0  0  0  0  0  0  0  0  0
   -7.6807   -2.5362    1.3977 C   0  0  0  0  0  0  0  0  0  0  0  0
   -8.4244   -1.4866    0.8613 C   0  0  0  0  0  0  0  0  0  0  0  0
   -7.9199   -0.3749    0.2751 N   0  0  0  0  0  0  0  0  0  0  0  0
   -6.5748   -0.3765    0.2572 C   0  0  0  0  0  0  0  0  0  0  0  0
   -5.8027    0.6150   -0.2699 O   0  0  0  0  0  0  0  0  0  0  0  0
   -2.1091    0.6795   -0.3562 C   0  0  0  0  0  0  0  0  0  0  0  0
    2.7669    0.2545    0.7110 C   0  0  0  0  0  0  0  0  0  0  0  0
    3.9513   -0.3949    1.0744 C   0  0  0  0  0  0  0  0  0  0  0  0
    3.9955   -1.1754    2.6187 Cl  0  0  0  0  0  0  0  0  0  0  0  0
    8.6504   -1.3934    1.5162 H   0  0  0  0  0  0  0  0  0  0  0  0
    9.3413   -1.8764   -0.0518 H   0  0  0  0  0  0  0  0  0  0  0  0
    8.1007   -2.8754    0.7432 H   0  0  0  0  0  0  0  0  0  0  0  0
    7.6804   -0.0442   -0.3377 H   0  0  0  0  0  0  0  0  0  0  0  0
    7.1185   -1.5584   -1.1269 H   0  0  0  0  0  0  0  0  0  0  0  0
    5.8037    0.2804   -1.7119 H   0  0  0  0  0  0  0  0  0  0  0  0
    3.7366    1.4144   -2.3397 H   0  0  0  0  0  0  0  0  0  0  0  0
    0.3191    0.1147   -0.1051 H   0  0  0  0  0  0  0  0  0  0  0  0
   -0.5622    3.3701   -1.7624 H   0  0  0  0  0  0  0  0  0  0  0  0
   -2.8856    4.0484   -2.0855 H   0  0  0  0  0  0  0  0  0  0  0  0
   -4.7412    2.6187   -1.3219 H   0  0  0  0  0  0  0  0  0  0  0  0
   -5.6655   -3.2733    1.7536 H   0  0  0  0  0  0  0  0  0  0  0  0
   -8.1828   -3.3870    1.8480 H   0  0  0  0  0  0  0  0  0  0  0  0
   -9.5121   -1.5204    0.8942 H   0  0  0  0  0  0  0  0  0  0  0  0
   -1.9016   -0.2708    0.1332 H   0  0  0  0  0  0  0  0  0  0  0  0
    1.9377    0.2801    1.4123 H   0  0  0  0  0  0  0  0  0  0  0  0
  1  2  1  0
  2  3  1  0
  3  4  1  0
  4  5  2  0
  5  6  1  0
  6  7  2  0
  7  8  1  0
  8  9  2  0
  8 10  1  0
 10 11  1  0
 11 12  2  0
 12 13  1  0
 13 14  2  0
 14 15  1  0
 15 16  1  0
 16 17  2  0
 17 18  1  0
 18 19  2  0
 19 20  1  0
 20 21  2  0
 21 22  1  0
 22 23  2  0
 23 24  1  0
 15 25  2  0
  7 26  1  0
 26 27  2  0
 27 28  1  0
 27  4  1  0
 25 11  1  0
 24 16  1  0
 23 18  1  0
  1 29  1  0
  1 30  1  0
  1 31  1  0
  2 32  1  0
  2 33  1  0
  5 34  1  0
  6 35  1  0
 10 36  1  0
 12 37  1  0
 13 38  1  0
 14 39  1  0
 19 40  1  0
 20 41  1  0
 21 42  1  0
 25 43  1  0
 26 44  1  0
M  END
$$$$
