
     RDKit          3D

 39 40  0  0  0  0  0  0  0  0999 V2000
   -4.4929   -0.7325    2.6797 C   0  0  0  0  0  0  0  0  0  0  0  0
   -3.8354    0.2112    1.6854 C   0  0  0  0  0  0  0  0  0  0  0  0
   -2.8035   -0.5144    0.8228 C   0  0  0  0  0  0  0  0  0  0  0  0
   -2.1435    0.4393   -0.1743 C   0  0  0  0  0  0  0  0  0  0  0  0
   -1.1489   -0.2776   -0.9639 N   0  0  0  0  0  0  0  0  0  0  0  0
   -1.3608   -0.7251   -2.2322 C   0  0  0  0  0  0  0  0  0  0  0  0
   -2.6149   -1.0409   -2.6036 N   0  0  0  0  0  0  0  0  0  0  0  0
   -0.3458   -0.8282   -3.0377 N   0  0  0  0  0  0  0  0  0  0  0  0
    0.8160   -0.4041   -2.2077 C   0  0  0  0  0  0  0  0  0  0  0  0
    0.2414    0.1854   -0.9018 C   0  0  0  0  0  0  0  0  0  0  0  0
    0.9481   -0.3282    0.3569 C   0  0  0  0  0  0  0  0  0  0  0  0
    2.3581    0.1957    0.4950 C   0  0  0  0  0  0  0  0  0  0  0  0
    2.5862    1.5194    0.8980 C   0  0  0  0  0  0  0  0  0  0  0  0
    3.8882    2.0083    1.0113 C   0  0  0  0  0  0  0  0  0  0  0  0
    4.9637    1.1780    0.7227 C   0  0  0  0  0  0  0  0  0  0  0  0
    6.2181    1.6976    0.8453 O   0  0  0  0  0  0  0  0  0  0  0  0
    4.7599   -0.1382    0.3230 C   0  0  0  0  0  0  0  0  0  0  0  0
    3.4566   -0.6282    0.2102 C   0  0  0  0  0  0  0  0  0  0  0  0
   -3.7508   -1.1692    3.3556 H   0  0  0  0  0  0  0  0  0  0  0  0
   -5.2278   -0.1929    3.2853 H   0  0  0  0  0  0  0  0  0  0  0  0
   -5.0104   -1.5476    2.1639 H   0  0  0  0  0  0  0  0  0  0  0  0
   -4.6076    0.6557    1.0468 H   0  0  0  0  0  0  0  0  0  0  0  0
   -3.3543    1.0306    2.2320 H   0  0  0  0  0  0  0  0  0  0  0  0
   -2.0364   -0.9638    1.4658 H   0  0  0  0  0  0  0  0  0  0  0  0
   -3.2874   -1.3416    0.2908 H   0  0  0  0  0  0  0  0  0  0  0  0
   -2.8975    0.9021   -0.8224 H   0  0  0  0  0  0  0  0  0  0  0  0
   -1.6710    1.2613    0.3780 H   0  0  0  0  0  0  0  0  0  0  0  0
   -3.0898   -1.6138   -1.9201 H   0  0  0  0  0  0  0  0  0  0  0  0
   -2.5992   -1.4996   -3.5088 H   0  0  0  0  0  0  0  0  0  0  0  0
    1.4051    0.3451   -2.7470 H   0  0  0  0  0  0  0  0  0  0  0  0
    1.4508   -1.2792   -2.0319 H   0  0  0  0  0  0  0  0  0  0  0  0
    0.2719    1.2814   -0.9607 H   0  0  0  0  0  0  0  0  0  0  0  0
    0.9494   -1.4263    0.3738 H   0  0  0  0  0  0  0  0  0  0  0  0
    0.3868   -0.0301    1.2522 H   0  0  0  0  0  0  0  0  0  0  0  0
    1.7531    2.1793    1.1292 H   0  0  0  0  0  0  0  0  0  0  0  0
    4.0633    3.0339    1.3238 H   0  0  0  0  0  0  0  0  0  0  0  0
    6.8617    1.0105    0.6067 H   0  0  0  0  0  0  0  0  0  0  0  0
    5.5946   -0.7938    0.0962 H   0  0  0  0  0  0  0  0  0  0  0  0
    3.3049   -1.6592   -0.1035 H   0  0  0  0  0  0  0  0  0  0  0  0
  1  2  1  0
  2  3  1  0
  3  4  1  0
  4  5  1  0
  5  6  1  0
  6  7  1  0
  6  8  2  0
  8  9  1  0
  9 10  1  0
 10 11  1  0
 11 12  1  0
 12 13  2  0
 13 14  1  0
 14 15  2  0
 15 16  1  0
 15 17  1  0
 17 18  2  0
 10  5  1  0
 18 12  1  0
  1 19  1  0
  1 20  1  0
  1 21  1  0
  2 22  1  0
  2 23  1  0
  3 24  1  0
  3 25  1  0
  4 26  1  0
  4 27  1  0
  7 28  1  0
  7 29  1  0
  9 30  1  0
  9 31  1  0
 10 32  1  0
 11 33  1  0
 11 34  1  0
 13 35  1  0
 14 36  1  0
 16 37  1  0
 17 38  1  0
 18 39  1  0
M  END
$$$$
