
     RDKit          3D

 37 39  0  0  0  0  0  0  0  0999 V2000
   -0.5295   -2.0120    1.2614 O   0  0  0  0  0  0  0  0  0  0  0  0
   -0.5388   -0.7923    1.1598 C   0  0  0  0  0  0  0  0  0  0  0  0
    0.6524    0.0054    0.7674 C   0  0  0  0  0  0  0  0  0  0  0  0
    1.8333   -0.5712    0.5080 C   0  0  0  0  0  0  0  0  0  0  0  0
    3.0734    0.1279    0.1434 C   0  0  0  0  0  0  0  0  0  0  0  0
    3.1735    0.7998   -1.0823 C   0  0  0  0  0  0  0  0  0  0  0  0
    4.3657    1.4559   -1.4195 C   0  0  0  0  0  0  0  0  0  0  0  0
    4.4672    2.1640   -2.7020 N   0  0  0  0  0  4  0  0  0  0  0  0
    3.4914    2.1205   -3.4640 O   0  0  0  0  0  0  0  0  0  0  0  0
    5.5253    2.7608   -2.9471 O   0  0  0  0  0  1  0  0  0  0  0  0
    5.4636    1.4403   -0.5479 C   0  0  0  0  0  0  0  0  0  0  0  0
    5.3690    0.7606    0.6680 C   0  0  0  0  0  0  0  0  0  0  0  0
    4.1818    0.1084    1.0045 C   0  0  0  0  0  0  0  0  0  0  0  0
    4.0855   -0.5613    2.1938 O   0  0  0  0  0  0  0  0  0  0  0  0
    0.2654    1.6764    0.7490 S   0  0  0  0  0  0  0  0  0  0  0  0
   -1.3970    1.3929    1.2551 C   0  0  0  0  0  0  0  0  0  0  0  0
   -2.4548    2.6555    1.5214 S   0  0  0  0  0  0  0  0  0  0  0  0
   -1.6211    0.0389    1.3907 N   0  0  0  0  0  0  0  0  0  0  0  0
   -2.8987   -0.5631    1.7662 C   0  0  0  0  0  0  0  0  0  0  0  0
   -3.7735   -0.8555    0.5637 C   0  0  0  0  0  0  0  0  0  0  0  0
   -3.5125   -1.9667   -0.2541 C   0  0  0  0  0  0  0  0  0  0  0  0
   -4.3079   -2.2319   -1.3717 C   0  0  0  0  0  0  0  0  0  0  0  0
   -5.3717   -1.3885   -1.6800 C   0  0  0  0  0  0  0  0  0  0  0  0
   -6.3513   -1.7141   -3.0560 Cl  0  0  0  0  0  0  0  0  0  0  0  0
   -5.6480   -0.2841   -0.8784 C   0  0  0  0  0  0  0  0  0  0  0  0
   -4.8529   -0.0192    0.2400 C   0  0  0  0  0  0  0  0  0  0  0  0
    1.9412   -1.6505    0.6091 H   0  0  0  0  0  0  0  0  0  0  0  0
    2.3252    0.8077   -1.7646 H   0  0  0  0  0  0  0  0  0  0  0  0
    6.3932    1.9467   -0.8016 H   0  0  0  0  0  0  0  0  0  0  0  0
    6.2257    0.7499    1.3362 H   0  0  0  0  0  0  0  0  0  0  0  0
    4.9213   -0.4761    2.6816 H   0  0  0  0  0  0  0  0  0  0  0  0
   -3.4281    0.0912    2.4675 H   0  0  0  0  0  0  0  0  0  0  0  0
   -2.7201   -1.5007    2.3076 H   0  0  0  0  0  0  0  0  0  0  0  0
   -2.6884   -2.6411   -0.0250 H   0  0  0  0  0  0  0  0  0  0  0  0
   -4.0918   -3.0965   -1.9937 H   0  0  0  0  0  0  0  0  0  0  0  0
   -6.4789    0.3748   -1.1170 H   0  0  0  0  0  0  0  0  0  0  0  0
   -5.0892    0.8474    0.8546 H   0  0  0  0  0  0  0  0  0  0  0  0
  1  2  2  0
  2  3  1  0
  3  4  2  3
  4  5  1  0
  5  6  2  0
  6  7  1  0
  7  8  1  0
  8  9  2  0
  8 10  1  0
  7 11  2  0
 11 12  1  0
 12 13  2  0
 13 14  1  0
  3 15  1  0
 15 16  1  0
 16 17  2  0
 16 18  1  0
 18 19  1  0
 19 20  1  0
 20 21  2  0
 21 22  1  0
 22 23  2  0
 23 24  1  0
 23 25  1  0
 25 26  2  0
 18  2  1  0
 26 20  1  0
 13  5  1  0
  4 27  1  0
  6 28  1  0
 11 29  1  0
 12 30  1  0
 14 31  1  0
 19 32  1  0
 19 33  1  0
 21 34  1  0
 22 35  1  0
 25 36  1  0
 26 37  1  0
M  CHG  2   8   1  10  -1
M  END
$$$$
