
     RDKit          3D

 55 57  0  0  0  0  0  0  0  0999 V2000
    1.2825   -1.3262   -1.1625 O   0  0  0  0  0  0  0  0  0  0  0  0
    1.6471   -0.2308   -0.7432 C   0  0  0  0  0  0  0  0  0  0  0  0
    0.6924    0.7476   -0.0555 C   0  0  0  0  0  0  0  0  0  0  0  0
   -0.5039    0.1119    0.3922 O   0  0  0  0  0  0  0  0  0  0  0  0
   -0.3433   -0.6298    1.5305 C   0  0  0  0  0  0  0  0  0  0  0  0
    0.6878   -0.6633    2.1929 O   0  0  0  0  0  0  0  0  0  0  0  0
   -1.6349   -1.3689    1.9062 C   0  0  0  0  0  0  0  0  0  0  0  0
   -2.1246   -0.8941    3.2873 C   0  0  0  0  0  0  0  0  0  0  0  0
   -2.5472    0.5602    3.3287 C   0  0  0  0  0  0  0  0  0  0  0  0
   -1.6247    1.5621    3.6614 C   0  0  0  0  0  0  0  0  0  0  0  0
   -2.0112    2.9031    3.6743 C   0  0  0  0  0  0  0  0  0  0  0  0
   -3.3216    3.2555    3.3573 C   0  0  0  0  0  0  0  0  0  0  0  0
   -4.2483    2.2674    3.0313 C   0  0  0  0  0  0  0  0  0  0  0  0
   -3.8643    0.9261    3.0185 C   0  0  0  0  0  0  0  0  0  0  0  0
   -2.6604   -1.2446    0.8668 N   0  0  0  0  0  0  0  0  0  0  0  0
   -3.7298   -2.1079    0.7767 C   0  0  0  0  0  0  0  0  0  0  0  0
   -3.8613   -3.0184    1.5928 O   0  0  0  0  0  0  0  0  0  0  0  0
   -4.6571   -1.8414   -0.3180 C   0  0  0  0  0  0  0  0  0  0  0  0
   -4.6606   -0.8405   -1.2766 C   0  0  0  0  0  0  0  0  0  0  0  0
   -5.7640   -0.9408   -2.1763 C   0  0  0  0  0  0  0  0  0  0  0  0
   -6.5712   -2.0150   -1.8829 C   0  0  0  0  0  0  0  0  0  0  0  0
   -6.0078   -2.8863   -0.5275 S   0  0  0  0  0  0  0  0  0  0  0  0
    2.9410    0.2387   -0.8630 N   0  0  0  0  0  0  0  0  0  0  0  0
    3.9696   -0.5184   -1.5690 C   0  0  0  0  0  0  0  0  0  0  0  0
    3.8710   -0.2972   -3.0904 C   0  0  0  0  0  0  0  0  0  0  0  0
    4.8066    0.8091   -3.5655 C   0  0  0  0  0  0  0  0  0  0  0  0
    6.2711    0.4823   -3.2655 C   0  0  0  0  0  0  0  0  0  0  0  0
    6.4593   -0.3960   -2.0270 C   0  0  0  0  0  0  0  0  0  0  0  0
    5.3558   -0.1663   -1.0029 C   0  0  0  0  0  0  0  0  0  0  0  0
    1.1920    1.2718    0.7679 H   0  0  0  0  0  0  0  0  0  0  0  0
    0.4030    1.4998   -0.7973 H   0  0  0  0  0  0  0  0  0  0  0  0
   -1.3733   -2.4329    1.9640 H   0  0  0  0  0  0  0  0  0  0  0  0
   -2.9688   -1.5112    3.6204 H   0  0  0  0  0  0  0  0  0  0  0  0
   -1.3364   -1.0526    4.0352 H   0  0  0  0  0  0  0  0  0  0  0  0
   -0.5989    1.3047    3.9197 H   0  0  0  0  0  0  0  0  0  0  0  0
   -1.2908    3.6727    3.9392 H   0  0  0  0  0  0  0  0  0  0  0  0
   -3.6236    4.2994    3.3734 H   0  0  0  0  0  0  0  0  0  0  0  0
   -5.2734    2.5399    2.7937 H   0  0  0  0  0  0  0  0  0  0  0  0
   -4.6023    0.1654    2.7707 H   0  0  0  0  0  0  0  0  0  0  0  0
   -2.5336   -0.4998    0.1963 H   0  0  0  0  0  0  0  0  0  0  0  0
   -3.9146   -0.0595   -1.3479 H   0  0  0  0  0  0  0  0  0  0  0  0
   -5.9530   -0.2602   -2.9981 H   0  0  0  0  0  0  0  0  0  0  0  0
   -7.4691   -2.3307   -2.3966 H   0  0  0  0  0  0  0  0  0  0  0  0
    3.1345    1.2031   -0.6263 H   0  0  0  0  0  0  0  0  0  0  0  0
    3.7750   -1.5821   -1.3797 H   0  0  0  0  0  0  0  0  0  0  0  0
    2.8423   -0.0698   -3.3931 H   0  0  0  0  0  0  0  0  0  0  0  0
    4.1472   -1.2273   -3.6040 H   0  0  0  0  0  0  0  0  0  0  0  0
    4.6818    0.9757   -4.6414 H   0  0  0  0  0  0  0  0  0  0  0  0
    4.5345    1.7497   -3.0707 H   0  0  0  0  0  0  0  0  0  0  0  0
    6.8217    1.4228   -3.1416 H   0  0  0  0  0  0  0  0  0  0  0  0
    6.7232   -0.0243   -4.1268 H   0  0  0  0  0  0  0  0  0  0  0  0
    6.4607   -1.4521   -2.3250 H   0  0  0  0  0  0  0  0  0  0  0  0
    7.4403   -0.1970   -1.5808 H   0  0  0  0  0  0  0  0  0  0  0  0
    5.3887    0.8826   -0.6797 H   0  0  0  0  0  0  0  0  0  0  0  0
    5.5445   -0.7658   -0.1041 H   0  0  0  0  0  0  0  0  0  0  0  0
  1  2  2  0
  2  3  1  0
  3  4  1  0
  4  5  1  0
  5  6  2  0
  5  7  1  0
  7  8  1  0
  8  9  1  0
  9 10  2  0
 10 11  1  0
 11 12  2  0
 12 13  1  0
 13 14  2  0
  7 15  1  0
 15 16  1  0
 16 17  2  0
 16 18  1  0
 18 19  2  0
 19 20  1  0
 20 21  2  0
 21 22  1  0
  2 23  1  0
 23 24  1  0
 24 25  1  0
 25 26  1  0
 26 27  1  0
 27 28  1  0
 28 29  1  0
 14  9  1  0
 22 18  1  0
 29 24  1  0
  3 30  1  0
  3 31  1  0
  7 32  1  0
  8 33  1  0
  8 34  1  0
 10 35  1  0
 11 36  1  0
 12 37  1  0
 13 38  1  0
 14 39  1  0
 15 40  1  0
 19 41  1  0
 20 42  1  0
 21 43  1  0
 23 44  1  0
 24 45  1  0
 25 46  1  0
 25 47  1  0
 26 48  1  0
 26 49  1  0
 27 50  1  0
 27 51  1  0
 28 52  1  0
 28 53  1  0
 29 54  1  0
 29 55  1  0
M  END
$$$$
