
     RDKit          3D

 42 44  0  0  0  0  0  0  0  0999 V2000
   -6.0108   -0.2501   -1.0927 C   0  0  0  0  0  0  0  0  0  0  0  0
   -4.6271    0.0532   -0.5921 C   0  0  0  0  0  0  0  0  0  0  0  0
   -4.3529    0.0188    0.7818 C   0  0  0  0  0  0  0  0  0  0  0  0
   -3.0569    0.2591    1.2770 C   0  0  0  0  0  0  0  0  0  0  0  0
   -2.8441    0.2115    2.7688 C   0  0  0  0  0  0  0  0  0  0  0  0
   -2.0237    0.5742    0.3663 C   0  0  0  0  0  0  0  0  0  0  0  0
   -0.6854    0.8745    0.8480 C   0  0  0  0  0  0  0  0  0  0  0  0
   -0.3302    2.1100    1.3500 C   0  0  0  0  0  0  0  0  0  0  0  0
    1.3233    2.0814    1.7970 S   0  0  0  0  0  0  0  0  0  0  0  0
    1.4270    0.4567    1.2876 C   0  0  0  0  0  0  0  0  0  0  0  0
    2.5820   -0.2750    1.3494 N   0  0  0  0  0  0  0  0  0  0  0  0
    3.7780    0.1107    1.8892 C   0  0  0  0  0  0  0  0  0  0  0  0
    4.0477    1.1387    2.4904 O   0  0  0  0  0  0  0  0  0  0  0  0
    4.8265   -0.9387    1.7950 C   0  0  0  0  0  0  0  0  0  0  0  0
    5.2417   -1.5973    0.7032 C   0  0  0  0  0  0  0  0  0  0  0  0
    4.7655   -1.3694   -0.6158 C   0  0  0  0  0  0  0  0  0  0  0  0
    4.4779   -0.1898   -1.2848 C   0  0  0  0  0  0  0  0  0  0  0  0
    4.0159   -0.4003   -2.6176 C   0  0  0  0  0  0  0  0  0  0  0  0
    3.9918   -1.7350   -2.9435 C   0  0  0  0  0  0  0  0  0  0  0  0
    4.5102   -2.7231   -1.6493 S   0  0  0  0  0  0  0  0  0  0  0  0
    0.3276   -0.0659    0.8004 N   0  0  0  0  0  0  0  0  0  0  0  0
   -2.2855    0.5969   -1.0233 C   0  0  0  0  0  0  0  0  0  0  0  0
   -1.1981    0.8780   -2.0270 C   0  0  0  0  0  0  0  0  0  0  0  0
   -3.5856    0.3246   -1.4852 C   0  0  0  0  0  0  0  0  0  0  0  0
   -6.1337    0.0537   -2.1376 H   0  0  0  0  0  0  0  0  0  0  0  0
   -6.2059   -1.3228   -1.0176 H   0  0  0  0  0  0  0  0  0  0  0  0
   -6.7587    0.2909   -0.5030 H   0  0  0  0  0  0  0  0  0  0  0  0
   -5.1581   -0.2063    1.4795 H   0  0  0  0  0  0  0  0  0  0  0  0
   -1.8290   -0.1021    3.0309 H   0  0  0  0  0  0  0  0  0  0  0  0
   -3.5132   -0.5254    3.2270 H   0  0  0  0  0  0  0  0  0  0  0  0
   -3.0442    1.1910    3.2093 H   0  0  0  0  0  0  0  0  0  0  0  0
   -0.9380    2.9948    1.4697 H   0  0  0  0  0  0  0  0  0  0  0  0
    2.4862   -1.1954    0.9438 H   0  0  0  0  0  0  0  0  0  0  0  0
    5.3042   -1.1408    2.7482 H   0  0  0  0  0  0  0  0  0  0  0  0
    6.0051   -2.3589    0.8351 H   0  0  0  0  0  0  0  0  0  0  0  0
    4.5949    0.7921   -0.8405 H   0  0  0  0  0  0  0  0  0  0  0  0
    3.7328    0.3899   -3.3074 H   0  0  0  0  0  0  0  0  0  0  0  0
    3.6970   -2.1824   -3.8816 H   0  0  0  0  0  0  0  0  0  0  0  0
   -0.4718    0.0583   -2.0367 H   0  0  0  0  0  0  0  0  0  0  0  0
   -1.6073    0.9775   -3.0383 H   0  0  0  0  0  0  0  0  0  0  0  0
   -0.6857    1.8175   -1.7967 H   0  0  0  0  0  0  0  0  0  0  0  0
   -3.7891    0.3246   -2.5569 H   0  0  0  0  0  0  0  0  0  0  0  0
  1  2  1  0
  2  3  2  0
  3  4  1  0
  4  5  1  0
  4  6  2  0
  6  7  1  0
  7  8  2  0
  8  9  1  0
  9 10  1  0
 10 11  1  0
 11 12  1  0
 12 13  2  0
 12 14  1  0
 14 15  2  3
 15 16  1  0
 16 17  2  0
 17 18  1  0
 18 19  2  0
 19 20  1  0
 10 21  2  0
  6 22  1  0
 22 23  1  0
 22 24  2  0
 24  2  1  0
 21  7  1  0
 20 16  1  0
  1 25  1  0
  1 26  1  0
  1 27  1  0
  3 28  1  0
  5 29  1  0
  5 30  1  0
  5 31  1  0
  8 32  1  0
 11 33  1  0
 14 34  1  0
 15 35  1  0
 17 36  1  0
 18 37  1  0
 19 38  1  0
 23 39  1  0
 23 40  1  0
 23 41  1  0
 24 42  1  0
M  END
$$$$
