
     RDKit          3D

 60 61  0  0  0  0  0  0  0  0999 V2000
   -0.7942    3.0093   -3.1986 C   0  0  0  0  0  0  0  0  0  0  0  0
   -1.0359    2.4308   -1.9229 O   0  0  0  0  0  0  0  0  0  0  0  0
    0.0141    1.8199   -1.2862 C   0  0  0  0  0  0  0  0  0  0  0  0
    1.3183    1.7718   -1.7915 C   0  0  0  0  0  0  0  0  0  0  0  0
    2.3350    1.1304   -1.0783 C   0  0  0  0  0  0  0  0  0  0  0  0
    2.0617    0.5384    0.1581 C   0  0  0  0  0  0  0  0  0  0  0  0
    3.1265   -0.1454    0.9337 C   0  0  0  0  0  0  0  0  0  0  0  0
    2.8306   -1.1107    1.6367 O   0  0  0  0  0  0  0  0  0  0  0  0
    4.5353    0.3212    0.8936 C   0  0  0  0  0  0  0  0  0  0  0  0
    4.8842    1.6161    0.8383 C   0  0  0  0  0  0  0  0  0  0  0  0
    6.2762    2.0881    0.8459 C   0  0  0  0  0  0  0  0  0  0  0  0
    7.2722    1.4769    1.6195 C   0  0  0  0  0  0  0  0  0  0  0  0
    8.5763    1.9785    1.6211 C   0  0  0  0  0  0  0  0  0  0  0  0
    8.8861    3.0975    0.8593 C   0  0  0  0  0  0  0  0  0  0  0  0
   10.1700    3.5534    0.8930 O   0  0  0  0  0  0  0  0  0  0  0  0
    7.9114    3.7294    0.0962 C   0  0  0  0  0  0  0  0  0  0  0  0
    6.6065    3.2265    0.0962 C   0  0  0  0  0  0  0  0  0  0  0  0
    0.7470    0.5534    0.6512 C   0  0  0  0  0  0  0  0  0  0  0  0
    0.4276   -0.0642    1.8364 O   0  0  0  0  0  0  0  0  0  0  0  0
   -0.2839    1.2076   -0.0492 C   0  0  0  0  0  0  0  0  0  0  0  0
   -1.7000    1.2117    0.4962 C   0  0  0  0  0  0  0  0  0  0  0  0
   -2.5430    0.1035   -0.0827 C   0  0  0  0  0  0  0  0  0  0  0  0
   -3.0629   -0.9731    0.5422 C   0  0  0  0  0  0  0  0  0  0  0  0
   -2.8581   -1.3074    1.9955 C   0  0  0  0  0  0  0  0  0  0  0  0
   -3.8877   -1.9815   -0.2384 C   0  0  0  0  0  0  0  0  0  0  0  0
   -5.3890   -1.8575    0.0454 C   0  0  0  0  0  0  0  0  0  0  0  0
   -6.1901   -2.8212   -0.7893 C   0  0  0  0  0  0  0  0  0  0  0  0
   -6.7521   -3.9803   -0.3944 C   0  0  0  0  0  0  0  0  0  0  0  0
   -7.5601   -4.8095   -1.3577 C   0  0  0  0  0  0  0  0  0  0  0  0
   -6.6379   -4.5690    0.9848 C   0  0  0  0  0  0  0  0  0  0  0  0
   -0.0728    3.8300   -3.1289 H   0  0  0  0  0  0  0  0  0  0  0  0
   -0.4674    2.2532   -3.9201 H   0  0  0  0  0  0  0  0  0  0  0  0
   -1.7387    3.4272   -3.5600 H   0  0  0  0  0  0  0  0  0  0  0  0
    1.5769    2.2197   -2.7458 H   0  0  0  0  0  0  0  0  0  0  0  0
    3.3306    1.0902   -1.5129 H   0  0  0  0  0  0  0  0  0  0  0  0
    5.2672   -0.4735    0.9971 H   0  0  0  0  0  0  0  0  0  0  0  0
    4.1307    2.3989    0.7932 H   0  0  0  0  0  0  0  0  0  0  0  0
    7.0482    0.6137    2.2412 H   0  0  0  0  0  0  0  0  0  0  0  0
    9.3448    1.5002    2.2218 H   0  0  0  0  0  0  0  0  0  0  0  0
   10.2382    4.3378    0.3247 H   0  0  0  0  0  0  0  0  0  0  0  0
    8.1428    4.6079   -0.4976 H   0  0  0  0  0  0  0  0  0  0  0  0
    5.8506    3.7314   -0.5015 H   0  0  0  0  0  0  0  0  0  0  0  0
    1.1553   -0.6845    2.0659 H   0  0  0  0  0  0  0  0  0  0  0  0
   -1.6826    1.1978    1.5899 H   0  0  0  0  0  0  0  0  0  0  0  0
   -2.1808    2.1700    0.2601 H   0  0  0  0  0  0  0  0  0  0  0  0
   -2.7508    0.2316   -1.1451 H   0  0  0  0  0  0  0  0  0  0  0  0
   -2.3657   -2.2814    2.0907 H   0  0  0  0  0  0  0  0  0  0  0  0
   -2.2420   -0.5815    2.5292 H   0  0  0  0  0  0  0  0  0  0  0  0
   -3.8193   -1.3544    2.5168 H   0  0  0  0  0  0  0  0  0  0  0  0
   -3.7116   -1.8594   -1.3159 H   0  0  0  0  0  0  0  0  0  0  0  0
   -3.5384   -2.9937    0.0045 H   0  0  0  0  0  0  0  0  0  0  0  0
   -5.7287   -0.8416   -0.1949 H   0  0  0  0  0  0  0  0  0  0  0  0
   -5.5951   -1.9903    1.1118 H   0  0  0  0  0  0  0  0  0  0  0  0
   -6.3254   -2.5033   -1.8233 H   0  0  0  0  0  0  0  0  0  0  0  0
   -7.1019   -5.7952   -1.4873 H   0  0  0  0  0  0  0  0  0  0  0  0
   -8.5780   -4.9454   -0.9781 H   0  0  0  0  0  0  0  0  0  0  0  0
   -7.6343   -4.3443   -2.3462 H   0  0  0  0  0  0  0  0  0  0  0  0
   -5.9381   -4.0320    1.6292 H   0  0  0  0  0  0  0  0  0  0  0  0
   -6.2815   -5.6029    0.9237 H   0  0  0  0  0  0  0  0  0  0  0  0
   -7.6165   -4.5706    1.4755 H   0  0  0  0  0  0  0  0  0  0  0  0
  1  2  1  0
  2  3  1  0
  3  4  2  0
  4  5  1  0
  5  6  2  0
  6  7  1  0
  7  8  2  0
  7  9  1  0
  9 10  2  3
 10 11  1  0
 11 12  2  0
 12 13  1  0
 13 14  2  0
 14 15  1  0
 14 16  1  0
 16 17  2  0
  6 18  1  0
 18 19  1  0
 18 20  2  0
 20 21  1  0
 21 22  1  0
 22 23  2  3
 23 24  1  0
 23 25  1  0
 25 26  1  0
 26 27  1  0
 27 28  2  3
 28 29  1  0
 28 30  1  0
 20  3  1  0
 17 11  1  0
  1 31  1  0
  1 32  1  0
  1 33  1  0
  4 34  1  0
  5 35  1  0
  9 36  1  0
 10 37  1  0
 12 38  1  0
 13 39  1  0
 15 40  1  0
 16 41  1  0
 17 42  1  0
 19 43  1  0
 21 44  1  0
 21 45  1  0
 22 46  1  0
 24 47  1  0
 24 48  1  0
 24 49  1  0
 25 50  1  0
 25 51  1  0
 26 52  1  0
 26 53  1  0
 27 54  1  0
 29 55  1  0
 29 56  1  0
 29 57  1  0
 30 58  1  0
 30 59  1  0
 30 60  1  0
M  END
$$$$
