
     RDKit          3D

 41 42  0  0  0  0  0  0  0  0999 V2000
   -7.6129   -1.8468    2.5164 C   0  0  0  0  0  0  0  0  0  0  0  0
   -6.8596   -0.7248    2.9585 O   0  0  0  0  0  0  0  0  0  0  0  0
   -5.8216   -0.3268    2.1617 C   0  0  0  0  0  0  0  0  0  0  0  0
   -5.4698   -0.8826    0.9321 C   0  0  0  0  0  0  0  0  0  0  0  0
   -4.3805   -0.3744    0.2148 C   0  0  0  0  0  0  0  0  0  0  0  0
   -3.6296    0.6973    0.7165 C   0  0  0  0  0  0  0  0  0  0  0  0
   -2.4544    1.2420   -0.0600 C   0  0  0  0  0  0  0  0  0  0  0  0
   -1.1927    0.4093    0.0342 C   0  0  0  0  0  0  0  0  0  0  0  0
   -1.0920   -0.6809    0.5824 O   0  0  0  0  0  0  0  0  0  0  0  0
   -0.1957    1.0925   -0.6335 O   0  0  0  0  0  0  0  0  0  0  0  0
    1.0165    0.3826   -0.5462 N   0  0  0  0  0  0  0  0  0  0  0  0
    1.9773    0.9930   -1.1745 C   0  0  0  0  0  0  0  0  0  0  0  0
    1.8016    2.1749   -1.8614 N   0  0  0  0  0  0  0  0  0  0  0  0
    3.3367    0.3605   -1.1595 C   0  0  0  0  0  0  0  0  0  0  0  0
    4.4816    1.1193   -1.4319 C   0  0  0  0  0  0  0  0  0  0  0  0
    5.7478    0.5196   -1.4231 C   0  0  0  0  0  0  0  0  0  0  0  0
    5.8790   -0.8407   -1.1402 C   0  0  0  0  0  0  0  0  0  0  0  0
    7.0502   -1.5451   -1.1027 O   0  0  0  0  0  0  0  0  0  0  0  0
    8.2498   -0.8137   -1.3208 C   0  0  0  0  0  0  0  0  0  0  0  0
    4.7357   -1.5939   -0.8613 C   0  0  0  0  0  0  0  0  0  0  0  0
    3.4706   -0.9998   -0.8652 C   0  0  0  0  0  0  0  0  0  0  0  0
   -3.9823    1.2457    1.9550 C   0  0  0  0  0  0  0  0  0  0  0  0
   -5.0724    0.7378    2.6663 C   0  0  0  0  0  0  0  0  0  0  0  0
   -6.9832   -2.7388    2.4337 H   0  0  0  0  0  0  0  0  0  0  0  0
   -8.1219   -1.6320    1.5709 H   0  0  0  0  0  0  0  0  0  0  0  0
   -8.3814   -2.0508    3.2684 H   0  0  0  0  0  0  0  0  0  0  0  0
   -6.0166   -1.7153    0.5031 H   0  0  0  0  0  0  0  0  0  0  0  0
   -4.1163   -0.8330   -0.7359 H   0  0  0  0  0  0  0  0  0  0  0  0
   -2.7368    1.3228   -1.1169 H   0  0  0  0  0  0  0  0  0  0  0  0
   -2.2241    2.2535    0.2966 H   0  0  0  0  0  0  0  0  0  0  0  0
    0.8209    2.3835   -2.0118 H   0  0  0  0  0  0  0  0  0  0  0  0
    2.3380    2.2565   -2.7184 H   0  0  0  0  0  0  0  0  0  0  0  0
    4.4083    2.1855   -1.6273 H   0  0  0  0  0  0  0  0  0  0  0  0
    6.6092    1.1444   -1.6348 H   0  0  0  0  0  0  0  0  0  0  0  0
    9.0876   -1.5128   -1.2388 H   0  0  0  0  0  0  0  0  0  0  0  0
    8.3853   -0.0408   -0.5572 H   0  0  0  0  0  0  0  0  0  0  0  0
    8.2723   -0.3840   -2.3276 H   0  0  0  0  0  0  0  0  0  0  0  0
    4.8293   -2.6531   -0.6327 H   0  0  0  0  0  0  0  0  0  0  0  0
    2.5961   -1.6064   -0.6384 H   0  0  0  0  0  0  0  0  0  0  0  0
   -3.4138    2.0684    2.3819 H   0  0  0  0  0  0  0  0  0  0  0  0
   -5.3365    1.1717    3.6277 H   0  0  0  0  0  0  0  0  0  0  0  0
  1  2  1  0
  2  3  1  0
  3  4  2  0
  4  5  1  0
  5  6  2  0
  6  7  1  0
  7  8  1  0
  8  9  2  0
  8 10  1  0
 10 11  1  0
 11 12  2  3
 12 13  1  0
 12 14  1  0
 14 15  2  0
 15 16  1  0
 16 17  2  0
 17 18  1  0
 18 19  1  0
 17 20  1  0
 20 21  2  0
  6 22  1  0
 22 23  2  0
 23  3  1  0
 21 14  1  0
  1 24  1  0
  1 25  1  0
  1 26  1  0
  4 27  1  0
  5 28  1  0
  7 29  1  0
  7 30  1  0
 13 31  1  0
 13 32  1  0
 15 33  1  0
 16 34  1  0
 19 35  1  0
 19 36  1  0
 19 37  1  0
 20 38  1  0
 21 39  1  0
 22 40  1  0
 23 41  1  0
M  END
$$$$
