
     RDKit          3D

 57 61  0  0  0  0  0  0  0  0999 V2000
   -5.8228   -0.3446    2.5927 C   0  0  0  0  0  0  0  0  0  0  0  0
   -5.4930    1.0913    2.7273 N   0  0  0  0  0  0  0  0  0  0  0  0
   -6.3007    1.7375    3.7858 C   0  0  0  0  0  0  0  0  0  0  0  0
   -5.4756    1.9754    1.2638 S   0  0  0  0  0  6  0  0  0  0  0  0
   -5.1227    3.3477    1.5533 O   0  0  0  0  0  0  0  0  0  0  0  0
   -6.6926    1.6462    0.5500 O   0  0  0  0  0  0  0  0  0  0  0  0
   -4.1067    1.2649    0.3857 C   0  0  0  0  0  0  0  0  0  0  0  0
   -4.2962    0.7148   -0.8784 C   0  0  0  0  0  0  0  0  0  0  0  0
   -3.2075    0.1573   -1.5512 C   0  0  0  0  0  0  0  0  0  0  0  0
   -1.9155    0.1412   -0.9833 C   0  0  0  0  0  0  0  0  0  0  0  0
   -0.8376   -0.4608   -1.6702 N   0  0  0  0  0  0  0  0  0  0  0  0
   -0.8588   -1.9411   -1.5619 C   0  0  0  0  0  0  0  0  0  0  0  0
   -0.2031   -2.4148   -2.8527 C   0  0  0  0  0  0  0  0  0  0  0  0
   -0.7231   -1.4095   -3.8633 C   0  0  0  0  0  0  0  0  0  0  0  0
   -0.6598   -0.0928   -3.0961 C   0  0  0  0  0  0  0  0  0  0  0  0
   -1.7416    0.7033    0.3107 C   0  0  0  0  0  0  0  0  0  0  0  0
   -0.4232    0.7553    1.0417 C   0  0  0  0  0  0  0  0  0  0  0  0
   -0.4269    1.0586    2.2304 O   0  0  0  0  0  0  0  0  0  0  0  0
    0.6774    0.4485    0.2850 N   0  0  0  0  0  0  0  0  0  0  0  0
    1.9905    0.4091    0.6650 C   0  0  0  0  0  0  0  0  0  0  0  0
    2.9237    0.0278   -0.1736 N   0  0  0  0  0  0  0  0  0  0  0  0
    4.1705    0.0831    0.4456 C   0  0  0  0  0  0  0  0  0  0  0  0
    4.1427    0.5180    1.7723 C   0  0  0  0  0  0  0  0  0  0  0  0
    5.3073    0.6346    2.5467 C   0  0  0  0  0  0  0  0  0  0  0  0
    6.5332    0.3016    1.9605 C   0  0  0  0  0  0  0  0  0  0  0  0
    6.6119   -0.1395    0.6347 C   0  0  0  0  0  0  0  0  0  0  0  0
    7.8384   -0.4754    0.0398 C   0  0  0  0  0  0  0  0  0  0  0  0
    7.8931   -0.9143   -1.2863 C   0  0  0  0  0  0  0  0  0  0  0  0
    6.7255   -1.0241   -2.0391 C   0  0  0  0  0  0  0  0  0  0  0  0
    5.4959   -0.6955   -1.4698 C   0  0  0  0  0  0  0  0  0  0  0  0
    5.4288   -0.2526   -0.1344 C   0  0  0  0  0  0  0  0  0  0  0  0
    2.5147    0.8535    2.2178 S   0  0  0  0  0  0  0  0  0  0  0  0
   -2.8440    1.2652    0.9813 C   0  0  0  0  0  0  0  0  0  0  0  0
   -5.6632   -0.8495    3.5513 H   0  0  0  0  0  0  0  0  0  0  0  0
   -5.1698   -0.8331    1.8653 H   0  0  0  0  0  0  0  0  0  0  0  0
   -6.8671   -0.4841    2.2977 H   0  0  0  0  0  0  0  0  0  0  0  0
   -7.3563    1.7807    3.5015 H   0  0  0  0  0  0  0  0  0  0  0  0
   -6.2138    1.1715    4.7191 H   0  0  0  0  0  0  0  0  0  0  0  0
   -5.9326    2.7469    3.9895 H   0  0  0  0  0  0  0  0  0  0  0  0
   -5.2783    0.7139   -1.3465 H   0  0  0  0  0  0  0  0  0  0  0  0
   -3.3820   -0.2833   -2.5304 H   0  0  0  0  0  0  0  0  0  0  0  0
   -0.3018   -2.2780   -0.6819 H   0  0  0  0  0  0  0  0  0  0  0  0
   -1.8808   -2.3367   -1.5027 H   0  0  0  0  0  0  0  0  0  0  0  0
   -0.4675   -3.4458   -3.1027 H   0  0  0  0  0  0  0  0  0  0  0  0
    0.8886   -2.3441   -2.7746 H   0  0  0  0  0  0  0  0  0  0  0  0
   -1.7611   -1.6438   -4.1279 H   0  0  0  0  0  0  0  0  0  0  0  0
   -0.1317   -1.3866   -4.7831 H   0  0  0  0  0  0  0  0  0  0  0  0
   -1.3835    0.6365   -3.4750 H   0  0  0  0  0  0  0  0  0  0  0  0
    0.3370    0.3511   -3.2031 H   0  0  0  0  0  0  0  0  0  0  0  0
    0.5091    0.1537   -0.6740 H   0  0  0  0  0  0  0  0  0  0  0  0
    5.2595    0.9764    3.5767 H   0  0  0  0  0  0  0  0  0  0  0  0
    7.4367    0.3933    2.5610 H   0  0  0  0  0  0  0  0  0  0  0  0
    8.7646   -0.3984    0.6053 H   0  0  0  0  0  0  0  0  0  0  0  0
    8.8510   -1.1707   -1.7320 H   0  0  0  0  0  0  0  0  0  0  0  0
    6.7720   -1.3652   -3.0699 H   0  0  0  0  0  0  0  0  0  0  0  0
    4.5880   -0.7822   -2.0630 H   0  0  0  0  0  0  0  0  0  0  0  0
   -2.7189    1.7077    1.9696 H   0  0  0  0  0  0  0  0  0  0  0  0
  1  2  1  0
  2  3  1  0
  2  4  1  0
  4  5  2  0
  4  6  2  0
  4  7  1  0
  7  8  2  0
  8  9  1  0
  9 10  2  0
 10 11  1  0
 11 12  1  0
 12 13  1  0
 13 14  1  0
 14 15  1  0
 10 16  1  0
 16 17  1  0
 17 18  2  0
 17 19  1  0
 19 20  1  0
 20 21  2  0
 21 22  1  0
 22 23  2  0
 23 24  1  0
 24 25  2  0
 25 26  1  0
 26 27  2  0
 27 28  1  0
 28 29  2  0
 29 30  1  0
 30 31  2  0
 23 32  1  0
 16 33  2  0
 33  7  1  0
 15 11  1  0
 32 20  1  0
 31 22  1  0
 31 26  1  0
  1 34  1  0
  1 35  1  0
  1 36  1  0
  3 37  1  0
  3 38  1  0
  3 39  1  0
  8 40  1  0
  9 41  1  0
 12 42  1  0
 12 43  1  0
 13 44  1  0
 13 45  1  0
 14 46  1  0
 14 47  1  0
 15 48  1  0
 15 49  1  0
 19 50  1  0
 24 51  1  0
 25 52  1  0
 27 53  1  0
 28 54  1  0
 29 55  1  0
 30 56  1  0
 33 57  1  0
M  END
$$$$
