
     RDKit          3D

 44 46  0  0  0  0  0  0  0  0999 V2000
    5.9805    1.4355   -0.1589 C   0  0  0  0  0  0  0  0  0  0  0  0
    4.7605    0.4959   -0.1411 C   0  0  0  0  0  0  0  0  0  0  0  0
    5.1383   -0.8136   -0.8465 C   0  0  0  0  0  0  0  0  0  0  0  0
    4.3856    0.2231    1.3210 C   0  0  0  0  0  0  0  0  0  0  0  0
    3.5933    1.1576   -0.9068 C   0  0  0  0  0  0  0  0  0  0  0  0
    3.7677    2.1770   -1.5833 O   0  0  0  0  0  0  0  0  0  0  0  0
    2.2206    0.5104   -0.8507 C   0  0  0  0  0  0  0  0  0  0  0  0
    1.1539    1.4439    0.2901 S   0  0  0  0  0  0  0  0  0  0  0  0
   -0.3957    0.5612    0.0929 C   0  0  0  0  0  0  0  0  0  0  0  0
   -0.3269   -0.5803   -0.6430 N   0  0  0  0  0  0  0  0  0  0  0  0
   -1.4707   -1.2608   -0.7977 C   0  0  0  0  0  0  0  0  0  0  0  0
   -2.6927   -0.8818   -0.2663 C   0  0  0  0  0  0  0  0  0  0  0  0
   -2.7726    0.2843    0.4829 C   0  0  0  0  0  0  0  0  0  0  0  0
   -4.0587    0.7130    1.0317 C   0  0  0  0  0  0  0  0  0  0  0  0
   -5.0118    1.5334    0.4629 C   0  0  0  0  0  0  0  0  0  0  0  0
   -6.1377    1.7221    1.3169 C   0  0  0  0  0  0  0  0  0  0  0  0
   -6.0051    1.0380    2.5048 C   0  0  0  0  0  0  0  0  0  0  0  0
   -4.5323    0.1722    2.5867 S   0  0  0  0  0  0  0  0  0  0  0  0
   -1.5897    1.0285    0.6720 C   0  0  0  0  0  0  0  0  0  0  0  0
   -1.6141    2.2434    1.4343 C   0  0  0  0  0  0  0  0  0  0  0  0
   -1.6535    3.2265    2.0510 N   0  0  0  0  0  0  0  0  0  0  0  0
   -3.7662   -1.8430   -0.6722 C   0  0  0  0  0  0  0  0  0  0  0  0
   -2.9348   -3.0590   -1.1080 C   0  0  0  0  0  0  0  0  0  0  0  0
   -1.5989   -2.5108   -1.6216 C   0  0  0  0  0  0  0  0  0  0  0  0
    6.8282    0.9985    0.3810 H   0  0  0  0  0  0  0  0  0  0  0  0
    5.7447    2.3981    0.3098 H   0  0  0  0  0  0  0  0  0  0  0  0
    6.3117    1.6417   -1.1833 H   0  0  0  0  0  0  0  0  0  0  0  0
    4.3266   -1.5475   -0.8050 H   0  0  0  0  0  0  0  0  0  0  0  0
    6.0197   -1.2726   -0.3848 H   0  0  0  0  0  0  0  0  0  0  0  0
    5.3638   -0.6399   -1.9050 H   0  0  0  0  0  0  0  0  0  0  0  0
    5.2402   -0.1746    1.8804 H   0  0  0  0  0  0  0  0  0  0  0  0
    4.0567    1.1405    1.8219 H   0  0  0  0  0  0  0  0  0  0  0  0
    3.5760   -0.5090    1.4076 H   0  0  0  0  0  0  0  0  0  0  0  0
    2.3034   -0.5328   -0.5377 H   0  0  0  0  0  0  0  0  0  0  0  0
    1.8060    0.5272   -1.8645 H   0  0  0  0  0  0  0  0  0  0  0  0
   -4.9085    1.9858   -0.5164 H   0  0  0  0  0  0  0  0  0  0  0  0
   -6.9984    2.3339    1.0749 H   0  0  0  0  0  0  0  0  0  0  0  0
   -6.7003    1.0069    3.3327 H   0  0  0  0  0  0  0  0  0  0  0  0
   -4.4392   -2.1058    0.1481 H   0  0  0  0  0  0  0  0  0  0  0  0
   -4.3388   -1.4356   -1.5119 H   0  0  0  0  0  0  0  0  0  0  0  0
   -3.4503   -3.6726   -1.8533 H   0  0  0  0  0  0  0  0  0  0  0  0
   -2.7491   -3.6992   -0.2342 H   0  0  0  0  0  0  0  0  0  0  0  0
   -0.7754   -3.2084   -1.4482 H   0  0  0  0  0  0  0  0  0  0  0  0
   -1.6562   -2.2513   -2.6834 H   0  0  0  0  0  0  0  0  0  0  0  0
  1  2  1  0
  2  3  1  0
  2  4  1  0
  2  5  1  0
  5  6  2  0
  5  7  1  0
  7  8  1  0
  8  9  1  0
  9 10  2  0
 10 11  1  0
 11 12  2  0
 12 13  1  0
 13 14  1  0
 14 15  2  0
 15 16  1  0
 16 17  2  0
 17 18  1  0
 13 19  2  0
 19 20  1  0
 20 21  3  0
 12 22  1  0
 22 23  1  0
 23 24  1  0
 19  9  1  0
 24 11  1  0
 18 14  1  0
  1 25  1  0
  1 26  1  0
  1 27  1  0
  3 28  1  0
  3 29  1  0
  3 30  1  0
  4 31  1  0
  4 32  1  0
  4 33  1  0
  7 34  1  0
  7 35  1  0
 15 36  1  0
 16 37  1  0
 17 38  1  0
 22 39  1  0
 22 40  1  0
 23 41  1  0
 23 42  1  0
 24 43  1  0
 24 44  1  0
M  END
$$$$
