
     RDKit          3D

 36 37  0  0  0  0  0  0  0  0999 V2000
    0.8578   -1.8138   -1.6056 O   0  0  0  0  0  0  0  0  0  0  0  0
    1.0739   -1.9592   -0.4052 C   0  0  0  0  0  0  0  0  0  0  0  0
    0.0020   -2.4479    0.5711 C   0  0  0  0  0  0  0  0  0  0  0  0
   -1.2918   -1.9450    0.2433 O   0  0  0  0  0  0  0  0  0  0  0  0
   -1.4778   -0.6499    0.5972 C   0  0  0  0  0  0  0  0  0  0  0  0
   -0.6959    0.0775    1.1833 O   0  0  0  0  0  0  0  0  0  0  0  0
   -2.8107   -0.2399    0.1447 C   0  0  0  0  0  0  0  0  0  0  0  0
   -3.9526   -0.7127    0.8001 C   0  0  0  0  0  0  0  0  0  0  0  0
   -3.8695   -1.7654    2.1693 Cl  0  0  0  0  0  0  0  0  0  0  0  0
   -5.2218   -0.3195    0.3620 C   0  0  0  0  0  0  0  0  0  0  0  0
   -5.3524    0.5485   -0.7215 C   0  0  0  0  0  0  0  0  0  0  0  0
   -4.2127    1.0301   -1.3660 C   0  0  0  0  0  0  0  0  0  0  0  0
   -2.9414    0.6406   -0.9344 C   0  0  0  0  0  0  0  0  0  0  0  0
   -1.5823    1.2715   -1.7907 Cl  0  0  0  0  0  0  0  0  0  0  0  0
    2.2967   -1.7081    0.1782 N   0  0  0  0  0  0  0  0  0  0  0  0
    3.3890   -1.0876   -0.5564 C   0  0  0  0  0  0  0  0  0  0  0  0
    3.5003    0.4149   -0.2742 C   0  0  0  0  0  0  0  0  0  0  0  0
    2.3545    1.2701   -0.7930 C   0  0  0  0  0  0  0  0  0  0  0  0
    2.3720    2.4270    0.1738 C   0  0  0  0  0  0  0  0  0  0  0  0
    2.6988    1.7324    1.4767 C   0  0  0  0  0  0  0  0  0  0  0  0
    3.5754    0.6416    1.1529 O   0  0  0  0  0  0  0  0  0  0  0  0
    0.2585   -2.2045    1.6092 H   0  0  0  0  0  0  0  0  0  0  0  0
   -0.0357   -3.5408    0.4966 H   0  0  0  0  0  0  0  0  0  0  0  0
   -6.1153   -0.6880    0.8621 H   0  0  0  0  0  0  0  0  0  0  0  0
   -6.3414    0.8467   -1.0651 H   0  0  0  0  0  0  0  0  0  0  0  0
   -4.3230    1.7077   -2.2103 H   0  0  0  0  0  0  0  0  0  0  0  0
    2.3373   -1.5869    1.1843 H   0  0  0  0  0  0  0  0  0  0  0  0
    3.2868   -1.2788   -1.6285 H   0  0  0  0  0  0  0  0  0  0  0  0
    4.2977   -1.5857   -0.2001 H   0  0  0  0  0  0  0  0  0  0  0  0
    4.4434    0.7821   -0.6976 H   0  0  0  0  0  0  0  0  0  0  0  0
    1.3928    0.7563   -0.7180 H   0  0  0  0  0  0  0  0  0  0  0  0
    2.4941    1.5749   -1.8344 H   0  0  0  0  0  0  0  0  0  0  0  0
    1.4327    2.9854    0.2109 H   0  0  0  0  0  0  0  0  0  0  0  0
    3.1761    3.1224   -0.0944 H   0  0  0  0  0  0  0  0  0  0  0  0
    3.1851    2.3938    2.1981 H   0  0  0  0  0  0  0  0  0  0  0  0
    1.7996    1.3099    1.9377 H   0  0  0  0  0  0  0  0  0  0  0  0
  1  2  2  0
  2  3  1  0
  3  4  1  0
  4  5  1  0
  5  6  2  0
  5  7  1  0
  7  8  2  0
  8  9  1  0
  8 10  1  0
 10 11  2  0
 11 12  1  0
 12 13  2  0
 13 14  1  0
  2 15  1  0
 15 16  1  0
 16 17  1  0
 17 18  1  0
 18 19  1  0
 19 20  1  0
 20 21  1  0
 13  7  1  0
 21 17  1  0
  3 22  1  0
  3 23  1  0
 10 24  1  0
 11 25  1  0
 12 26  1  0
 15 27  1  0
 16 28  1  0
 16 29  1  0
 17 30  1  0
 18 31  1  0
 18 32  1  0
 19 33  1  0
 19 34  1  0
 20 35  1  0
 20 36  1  0
M  END
$$$$
