
     RDKit          3D

 36 38  0  0  0  0  0  0  0  0999 V2000
    6.6606    1.5896   -2.7513 Br  0  0  0  0  0  0  0  0  0  0  0  0
    5.3155    0.9896   -1.5671 C   0  0  0  0  0  0  0  0  0  0  0  0
    4.1398    1.7206   -1.4270 C   0  0  0  0  0  0  0  0  0  0  0  0
    3.1471    1.2721   -0.5504 C   0  0  0  0  0  0  0  0  0  0  0  0
    3.3188    0.0949    0.1961 C   0  0  0  0  0  0  0  0  0  0  0  0
    2.2542   -0.3387    1.0992 C   0  0  0  0  0  0  0  0  0  0  0  0
    2.4110   -1.2459    2.1270 C   0  0  0  0  0  0  0  0  0  0  0  0
    0.9249   -1.4688    2.9484 S   0  0  0  0  0  0  0  0  0  0  0  0
    0.1616   -0.3488    1.8764 C   0  0  0  0  0  0  0  0  0  0  0  0
   -1.1482   -0.0656    2.0706 N   0  0  0  0  0  0  0  0  0  0  0  0
   -1.9689   -0.0960    1.0518 C   0  0  0  0  0  0  0  0  0  0  0  0
   -1.5679   -0.5109   -0.3683 C   0  0  0  0  0  0  0  0  0  0  0  0
   -2.6598   -1.2111   -1.1648 C   0  0  0  0  0  0  0  0  0  0  0  0
   -3.6579   -0.2493   -1.8029 C   0  0  0  0  0  0  0  0  0  0  0  0
   -4.1805    0.8413   -0.8717 C   0  0  0  0  0  0  0  0  0  0  0  0
   -4.4401    0.3385    0.5396 C   0  0  0  0  0  0  0  0  0  0  0  0
   -3.2447    0.3221    1.3449 N   0  0  0  0  0  0  0  0  0  0  0  0
    0.9720    0.1764    0.9807 N   0  0  0  0  0  0  0  0  0  0  0  0
    4.5094   -0.6304    0.0354 C   0  0  0  0  0  0  0  0  0  0  0  0
    5.5050   -0.1842   -0.8418 C   0  0  0  0  0  0  0  0  0  0  0  0
    3.9814    2.6363   -1.9902 H   0  0  0  0  0  0  0  0  0  0  0  0
    2.2311    1.8530   -0.4497 H   0  0  0  0  0  0  0  0  0  0  0  0
    3.2952   -1.7738    2.4505 H   0  0  0  0  0  0  0  0  0  0  0  0
   -0.7391   -1.2241   -0.3050 H   0  0  0  0  0  0  0  0  0  0  0  0
   -1.1988    0.3752   -0.8971 H   0  0  0  0  0  0  0  0  0  0  0  0
   -2.1965   -1.7950   -1.9700 H   0  0  0  0  0  0  0  0  0  0  0  0
   -3.1854   -1.9340   -0.5291 H   0  0  0  0  0  0  0  0  0  0  0  0
   -3.2021    0.2280   -2.6792 H   0  0  0  0  0  0  0  0  0  0  0  0
   -4.5038   -0.8363   -2.1821 H   0  0  0  0  0  0  0  0  0  0  0  0
   -5.1144    1.2291   -1.2968 H   0  0  0  0  0  0  0  0  0  0  0  0
   -3.4777    1.6839   -0.8527 H   0  0  0  0  0  0  0  0  0  0  0  0
   -5.1503    1.0207    1.0212 H   0  0  0  0  0  0  0  0  0  0  0  0
   -4.9133   -0.6495    0.5372 H   0  0  0  0  0  0  0  0  0  0  0  0
   -3.3790    0.5104    2.3340 H   0  0  0  0  0  0  0  0  0  0  0  0
    4.6815   -1.5575    0.5752 H   0  0  0  0  0  0  0  0  0  0  0  0
    6.4191   -0.7617   -0.9525 H   0  0  0  0  0  0  0  0  0  0  0  0
  1  2  1  0
  2  3  2  0
  3  4  1  0
  4  5  2  0
  5  6  1  0
  6  7  2  0
  7  8  1  0
  8  9  1  0
  9 10  1  0
 10 11  2  3
 11 12  1  0
 12 13  1  0
 13 14  1  0
 14 15  1  0
 15 16  1  0
 16 17  1  0
  9 18  2  0
  5 19  1  0
 19 20  2  0
 20  2  1  0
 18  6  1  0
 17 11  1  0
  3 21  1  0
  4 22  1  0
  7 23  1  0
 12 24  1  0
 12 25  1  0
 13 26  1  0
 13 27  1  0
 14 28  1  0
 14 29  1  0
 15 30  1  0
 15 31  1  0
 16 32  1  0
 16 33  1  0
 17 34  1  0
 19 35  1  0
 20 36  1  0
M  END
$$$$
