
     RDKit          3D

 62 65  0  0  0  0  0  0  0  0999 V2000
    9.6109   -2.1123    0.4436 C   0  0  0  0  0  0  0  0  0  0  0  0
    8.9129   -1.6150   -0.8090 C   0  0  0  0  0  0  0  0  0  0  0  0
    7.5158   -1.4119   -0.5470 O   0  0  0  0  0  0  0  0  0  0  0  0
    6.7146   -2.5001   -0.6923 C   0  0  0  0  0  0  0  0  0  0  0  0
    7.1118   -3.6051   -1.0438 O   0  0  0  0  0  0  0  0  0  0  0  0
    5.3949   -2.2179   -0.3987 N   0  0  0  0  0  0  0  0  0  0  0  0
    4.9522   -0.9104    0.0904 C   0  0  0  0  0  0  0  0  0  0  0  0
    3.6131   -0.9770    0.8321 C   0  0  0  0  0  0  0  0  0  0  0  0
    2.5669   -1.6463    0.0513 N   0  0  0  0  0  0  0  0  0  0  0  0
    1.2419   -1.2815    0.2690 C   0  0  0  0  0  0  0  0  0  0  0  0
    0.9366   -0.4619    1.1367 O   0  0  0  0  0  0  0  0  0  0  0  0
    0.1761   -1.9508   -0.6196 C   0  0  0  0  0  0  0  0  0  0  0  0
   -1.0977   -1.3223   -0.6378 O   0  0  0  0  0  0  0  0  0  0  0  0
   -1.2036   -0.0958   -1.2403 C   0  0  0  0  0  0  0  0  0  0  0  0
   -0.2832    0.4185   -2.1602 C   0  0  0  0  0  0  0  0  0  0  0  0
   -0.4744    1.6818   -2.7232 C   0  0  0  0  0  0  0  0  0  0  0  0
   -1.5856    2.4418   -2.3700 C   0  0  0  0  0  0  0  0  0  0  0  0
   -2.5195    1.9367   -1.4582 C   0  0  0  0  0  0  0  0  0  0  0  0
   -2.3428    0.6577   -0.9014 C   0  0  0  0  0  0  0  0  0  0  0  0
   -3.3398    0.1615    0.1121 C   0  0  0  0  0  0  0  0  0  0  0  0
   -4.7142    0.7664   -0.1478 C   0  0  0  0  0  0  0  0  0  0  0  0
   -4.6548    2.2207   -0.2447 N   0  0  0  0  0  0  0  0  0  0  0  0
   -5.8683    3.0038   -0.0200 C   0  0  0  0  0  0  0  0  0  0  0  0
   -6.5923    2.6874    1.2610 C   0  0  0  0  0  0  0  0  0  0  0  0
   -7.8309    2.0283    1.2482 C   0  0  0  0  0  0  0  0  0  0  0  0
   -8.4906    1.7391    2.4459 C   0  0  0  0  0  0  0  0  0  0  0  0
   -7.9228    2.1072    3.6662 C   0  0  0  0  0  0  0  0  0  0  0  0
   -6.6954    2.7651    3.6896 C   0  0  0  0  0  0  0  0  0  0  0  0
   -6.0432    3.0510    2.4938 C   0  0  0  0  0  0  0  0  0  0  0  0
   -4.8659    3.6902    2.5431 F   0  0  0  0  0  0  0  0  0  0  0  0
   -3.6879    2.7889   -1.0815 C   0  0  0  0  0  0  0  0  0  0  0  0
   -3.7640    3.9345   -1.5195 O   0  0  0  0  0  0  0  0  0  0  0  0
    2.9997   -2.7125   -0.8608 C   0  0  0  0  0  0  0  0  0  0  0  0
    4.3889   -3.2678   -0.5242 C   0  0  0  0  0  0  0  0  0  0  0  0
    9.2299   -3.0940    0.7408 H   0  0  0  0  0  0  0  0  0  0  0  0
    9.4269   -1.4324    1.2830 H   0  0  0  0  0  0  0  0  0  0  0  0
   10.6900   -2.1914    0.2821 H   0  0  0  0  0  0  0  0  0  0  0  0
    9.3258   -0.6425   -1.0998 H   0  0  0  0  0  0  0  0  0  0  0  0
    9.0686   -2.2952   -1.6540 H   0  0  0  0  0  0  0  0  0  0  0  0
    5.7162   -0.4770    0.7436 H   0  0  0  0  0  0  0  0  0  0  0  0
    4.8592   -0.2648   -0.7904 H   0  0  0  0  0  0  0  0  0  0  0  0
    3.2934    0.0334    1.1086 H   0  0  0  0  0  0  0  0  0  0  0  0
    3.7272   -1.5524    1.7583 H   0  0  0  0  0  0  0  0  0  0  0  0
    0.0134   -2.9478   -0.1927 H   0  0  0  0  0  0  0  0  0  0  0  0
    0.5372   -2.1082   -1.6406 H   0  0  0  0  0  0  0  0  0  0  0  0
    0.5975   -0.1343   -2.4667 H   0  0  0  0  0  0  0  0  0  0  0  0
    0.2484    2.0781   -3.4319 H   0  0  0  0  0  0  0  0  0  0  0  0
   -1.7197    3.4324   -2.8001 H   0  0  0  0  0  0  0  0  0  0  0  0
   -3.4325   -0.9296    0.0780 H   0  0  0  0  0  0  0  0  0  0  0  0
   -2.9863    0.4423    1.1117 H   0  0  0  0  0  0  0  0  0  0  0  0
   -5.1314    0.3906   -1.0907 H   0  0  0  0  0  0  0  0  0  0  0  0
   -5.3828    0.4660    0.6642 H   0  0  0  0  0  0  0  0  0  0  0  0
   -5.6279    4.0745   -0.0203 H   0  0  0  0  0  0  0  0  0  0  0  0
   -6.5211    2.8401   -0.8859 H   0  0  0  0  0  0  0  0  0  0  0  0
   -8.2878    1.7359    0.3048 H   0  0  0  0  0  0  0  0  0  0  0  0
   -9.4505    1.2277    2.4271 H   0  0  0  0  0  0  0  0  0  0  0  0
   -8.4382    1.8829    4.5976 H   0  0  0  0  0  0  0  0  0  0  0  0
   -6.2411    3.0591    4.6307 H   0  0  0  0  0  0  0  0  0  0  0  0
    2.2669   -3.5246   -0.8524 H   0  0  0  0  0  0  0  0  0  0  0  0
    3.0083   -2.2753   -1.8662 H   0  0  0  0  0  0  0  0  0  0  0  0
    4.3573   -3.7885    0.4407 H   0  0  0  0  0  0  0  0  0  0  0  0
    4.6937   -3.9973   -1.2825 H   0  0  0  0  0  0  0  0  0  0  0  0
  1  2  1  0
  2  3  1  0
  3  4  1  0
  4  5  2  0
  4  6  1  0
  6  7  1  0
  7  8  1  0
  8  9  1  0
  9 10  1  0
 10 11  2  0
 10 12  1  0
 12 13  1  0
 13 14  1  0
 14 15  2  0
 15 16  1  0
 16 17  2  0
 17 18  1  0
 18 19  2  0
 19 20  1  0
 20 21  1  0
 21 22  1  0
 22 23  1  0
 23 24  1  0
 24 25  2  0
 25 26  1  0
 26 27  2  0
 27 28  1  0
 28 29  2  0
 29 30  1  0
 22 31  1  0
 31 32  2  0
  9 33  1  0
 33 34  1  0
 34  6  1  0
 19 14  1  0
 29 24  1  0
 31 18  1  0
  1 35  1  0
  1 36  1  0
  1 37  1  0
  2 38  1  0
  2 39  1  0
  7 40  1  0
  7 41  1  0
  8 42  1  0
  8 43  1  0
 12 44  1  0
 12 45  1  0
 15 46  1  0
 16 47  1  0
 17 48  1  0
 20 49  1  0
 20 50  1  0
 21 51  1  0
 21 52  1  0
 23 53  1  0
 23 54  1  0
 25 55  1  0
 26 56  1  0
 27 57  1  0
 28 58  1  0
 33 59  1  0
 33 60  1  0
 34 61  1  0
 34 62  1  0
M  END
$$$$
