
     RDKit          3D

 43 45  0  0  0  0  0  0  0  0999 V2000
   -3.1753    3.1705   -0.4774 C   0  0  0  0  0  0  0  0  0  0  0  0
   -2.2328    2.4286   -1.4123 C   0  0  0  0  0  0  0  0  0  0  0  0
   -2.3521    0.9070   -1.3118 C   0  0  0  0  0  0  0  0  0  0  0  0
   -1.9309    0.3597    0.0529 C   0  0  0  0  0  0  0  0  0  0  0  0
   -1.8576   -1.1017    0.0530 N   0  0  0  0  0  0  0  0  0  0  0  0
   -2.9419   -1.9453    0.3371 C   0  0  0  0  0  0  0  0  0  0  0  0
   -4.5628   -1.6132    0.3792 S   0  0  0  0  0  0  0  0  0  0  0  0
   -2.4468   -3.2095    0.6062 N   0  0  0  0  0  0  0  0  0  0  0  0
   -1.0342   -3.2786    0.3745 C   0  0  0  0  0  0  0  0  0  0  0  0
   -0.5934   -1.8078    0.3078 C   0  0  0  0  0  0  0  0  0  0  0  0
    0.5056   -1.6327   -0.7582 C   0  0  0  0  0  0  0  0  0  0  0  0
    1.4009   -0.4185   -0.5788 C   0  0  0  0  0  0  0  0  0  0  0  0
    1.3021    0.6150   -1.5275 C   0  0  0  0  0  0  0  0  0  0  0  0
    2.0666    1.7700   -1.4110 C   0  0  0  0  0  0  0  0  0  0  0  0
    2.9545    1.9071   -0.3498 C   0  0  0  0  0  0  0  0  0  0  0  0
    3.1055    0.8857    0.5980 C   0  0  0  0  0  0  0  0  0  0  0  0
    4.0255    1.0399    1.6484 C   0  0  0  0  0  0  0  0  0  0  0  0
    4.2127    0.0338    2.5934 C   0  0  0  0  0  0  0  0  0  0  0  0
    3.4855   -1.1437    2.4957 C   0  0  0  0  0  0  0  0  0  0  0  0
    2.5645   -1.3103    1.4580 C   0  0  0  0  0  0  0  0  0  0  0  0
    2.3370   -0.3026    0.4906 C   0  0  0  0  0  0  0  0  0  0  0  0
   -3.1115    4.2484   -0.6576 H   0  0  0  0  0  0  0  0  0  0  0  0
   -2.9199    2.9944    0.5716 H   0  0  0  0  0  0  0  0  0  0  0  0
   -4.2128    2.8609   -0.6383 H   0  0  0  0  0  0  0  0  0  0  0  0
   -2.4557    2.7278   -2.4433 H   0  0  0  0  0  0  0  0  0  0  0  0
   -1.2012    2.7378   -1.2092 H   0  0  0  0  0  0  0  0  0  0  0  0
   -1.7305    0.4560   -2.0938 H   0  0  0  0  0  0  0  0  0  0  0  0
   -3.3812    0.6077   -1.5405 H   0  0  0  0  0  0  0  0  0  0  0  0
   -2.6445    0.6681    0.8243 H   0  0  0  0  0  0  0  0  0  0  0  0
   -0.9583    0.7624    0.3494 H   0  0  0  0  0  0  0  0  0  0  0  0
   -3.0694   -4.0004    0.7182 H   0  0  0  0  0  0  0  0  0  0  0  0
   -0.8844   -3.8109   -0.5708 H   0  0  0  0  0  0  0  0  0  0  0  0
   -0.5469   -3.8296    1.1834 H   0  0  0  0  0  0  0  0  0  0  0  0
   -0.2626   -1.4925    1.3046 H   0  0  0  0  0  0  0  0  0  0  0  0
    0.0443   -1.6145   -1.7545 H   0  0  0  0  0  0  0  0  0  0  0  0
    1.1659   -2.5105   -0.7651 H   0  0  0  0  0  0  0  0  0  0  0  0
    0.6170    0.5282   -2.3681 H   0  0  0  0  0  0  0  0  0  0  0  0
    1.9702    2.5642   -2.1466 H   0  0  0  0  0  0  0  0  0  0  0  0
    3.5418    2.8199   -0.2750 H   0  0  0  0  0  0  0  0  0  0  0  0
    4.6121    1.9522    1.7359 H   0  0  0  0  0  0  0  0  0  0  0  0
    4.9302    0.1691    3.3983 H   0  0  0  0  0  0  0  0  0  0  0  0
    3.6340   -1.9369    3.2238 H   0  0  0  0  0  0  0  0  0  0  0  0
    2.0309   -2.2552    1.4155 H   0  0  0  0  0  0  0  0  0  0  0  0
  1  2  1  0
  2  3  1  0
  3  4  1  0
  4  5  1  0
  5  6  1  0
  6  7  2  0
  6  8  1  0
  8  9  1  0
  9 10  1  0
 10 11  1  0
 11 12  1  0
 12 13  2  0
 13 14  1  0
 14 15  2  0
 15 16  1  0
 16 17  2  0
 17 18  1  0
 18 19  2  0
 19 20  1  0
 20 21  2  0
 10  5  1  0
 21 12  1  0
 21 16  1  0
  1 22  1  0
  1 23  1  0
  1 24  1  0
  2 25  1  0
  2 26  1  0
  3 27  1  0
  3 28  1  0
  4 29  1  0
  4 30  1  0
  8 31  1  0
  9 32  1  0
  9 33  1  0
 10 34  1  0
 11 35  1  0
 11 36  1  0
 13 37  1  0
 14 38  1  0
 15 39  1  0
 17 40  1  0
 18 41  1  0
 19 42  1  0
 20 43  1  0
M  END
$$$$
