
     RDKit          3D

 36 38  0  0  0  0  0  0  0  0999 V2000
   -1.0899    1.8629    4.8388 N   0  0  0  0  0  0  0  0  0  0  0  0
   -0.7461    1.6338    3.7525 C   0  0  0  0  0  0  0  0  0  0  0  0
   -0.3636    1.3462    2.4098 C   0  0  0  0  0  0  0  0  0  0  0  0
    0.9286    1.5641    1.9798 N   0  0  0  0  0  0  0  0  0  0  0  0
    0.8983    1.1680    0.7228 C   0  0  0  0  0  0  0  0  0  0  0  0
    1.9963    1.1547   -0.2826 C   0  0  0  0  0  0  0  0  0  0  0  0
    2.2202   -0.2084   -0.6405 O   0  0  0  0  0  0  0  0  0  0  0  0
    3.1115   -0.4673   -1.6474 C   0  0  0  0  0  0  0  0  0  0  0  0
    3.9769    0.4808   -2.2036 C   0  0  0  0  0  0  0  0  0  0  0  0
    4.8603    0.1152   -3.2255 C   0  0  0  0  0  0  0  0  0  0  0  0
    4.8850   -1.1973   -3.6923 C   0  0  0  0  0  0  0  0  0  0  0  0
    5.9745   -1.6349   -4.9490 Cl  0  0  0  0  0  0  0  0  0  0  0  0
    4.0360   -2.1543   -3.1479 C   0  0  0  0  0  0  0  0  0  0  0  0
    3.1547   -1.7887   -2.1279 C   0  0  0  0  0  0  0  0  0  0  0  0
    2.1120   -3.0108   -1.4848 Cl  0  0  0  0  0  0  0  0  0  0  0  0
   -0.3266    0.7352    0.2952 O   0  0  0  0  0  0  0  0  0  0  0  0
   -1.1470    0.8332    1.3906 C   0  0  0  0  0  0  0  0  0  0  0  0
   -2.4393    0.4495    1.2259 N   0  0  0  0  0  0  0  0  0  0  0  0
   -3.4291    0.5456    2.3061 C   0  0  0  0  0  0  0  0  0  0  0  0
   -4.8492    0.3801    1.7398 C   0  0  0  0  0  0  0  0  0  0  0  0
   -5.0645   -0.8667    1.0649 O   0  0  0  0  0  0  0  0  0  0  0  0
   -3.8773   -1.4072    0.4678 C   0  0  0  0  0  0  0  0  0  0  0  0
   -2.8454   -0.3451    0.0546 C   0  0  0  0  0  0  0  0  0  0  0  0
    2.9000    1.5820    0.1661 H   0  0  0  0  0  0  0  0  0  0  0  0
    1.6914    1.7424   -1.1563 H   0  0  0  0  0  0  0  0  0  0  0  0
    4.0011    1.5113   -1.8634 H   0  0  0  0  0  0  0  0  0  0  0  0
    5.5297    0.8601   -3.6503 H   0  0  0  0  0  0  0  0  0  0  0  0
    4.0582   -3.1775   -3.5125 H   0  0  0  0  0  0  0  0  0  0  0  0
   -3.2316   -0.2396    3.0454 H   0  0  0  0  0  0  0  0  0  0  0  0
   -3.3704    1.5214    2.7997 H   0  0  0  0  0  0  0  0  0  0  0  0
   -5.0689    1.1837    1.0269 H   0  0  0  0  0  0  0  0  0  0  0  0
   -5.5865    0.4495    2.5459 H   0  0  0  0  0  0  0  0  0  0  0  0
   -3.4342   -2.1049    1.1884 H   0  0  0  0  0  0  0  0  0  0  0  0
   -4.1858   -1.9921   -0.4046 H   0  0  0  0  0  0  0  0  0  0  0  0
   -1.9952   -0.8572   -0.4105 H   0  0  0  0  0  0  0  0  0  0  0  0
   -3.2840    0.3325   -0.6872 H   0  0  0  0  0  0  0  0  0  0  0  0
  1  2  3  0
  2  3  1  0
  3  4  1  0
  4  5  2  0
  5  6  1  0
  6  7  1  0
  7  8  1  0
  8  9  2  0
  9 10  1  0
 10 11  2  0
 11 12  1  0
 11 13  1  0
 13 14  2  0
 14 15  1  0
  5 16  1  0
 16 17  1  0
 17 18  1  0
 18 19  1  0
 19 20  1  0
 20 21  1  0
 21 22  1  0
 22 23  1  0
 17  3  2  0
 23 18  1  0
 14  8  1  0
  6 24  1  0
  6 25  1  0
  9 26  1  0
 10 27  1  0
 13 28  1  0
 19 29  1  0
 19 30  1  0
 20 31  1  0
 20 32  1  0
 22 33  1  0
 22 34  1  0
 23 35  1  0
 23 36  1  0
M  END
$$$$
