
     RDKit          3D

 46 48  0  0  0  0  0  0  0  0999 V2000
   -1.3107   -1.5331   -0.8413 O   0  0  0  0  0  0  0  0  0  0  0  0
   -1.4696   -0.4357   -0.3209 C   0  0  0  0  0  0  0  0  0  0  0  0
   -2.7014    0.1320   -0.0897 N   0  0  0  0  0  0  0  0  0  0  0  0
   -3.9249   -0.6196   -0.3153 C   0  0  0  0  0  0  0  0  0  0  0  0
   -5.1312    0.3148   -0.3758 C   0  0  0  0  0  0  0  0  0  0  0  0
   -6.4512   -0.4131   -0.5605 C   0  0  0  0  0  0  0  0  0  0  0  0
   -7.4230    0.5662    0.0494 C   0  0  0  0  0  0  0  0  0  0  0  0
   -6.6370    1.0969    1.2295 C   0  0  0  0  0  0  0  0  0  0  0  0
   -5.2486    1.0523    0.8623 O   0  0  0  0  0  0  0  0  0  0  0  0
   -0.2884    0.3526    0.1223 C   0  0  0  0  0  0  0  0  0  0  0  0
   -0.3060    1.7500    0.1505 C   0  0  0  0  0  0  0  0  0  0  0  0
    0.8346    2.4535    0.5476 C   0  0  0  0  0  0  0  0  0  0  0  0
    2.0051    1.7743    0.9154 C   0  0  0  0  0  0  0  0  0  0  0  0
    3.4794    2.8659    1.4041 Br  0  0  0  0  0  0  0  0  0  0  0  0
    2.0247    0.3760    0.8789 C   0  0  0  0  0  0  0  0  0  0  0  0
    3.4600   -0.5624    1.3366 S   0  0  0  0  0  6  0  0  0  0  0  0
    3.1820   -1.9669    1.1118 O   0  0  0  0  0  0  0  0  0  0  0  0
    3.8952   -0.1026    2.6370 O   0  0  0  0  0  0  0  0  0  0  0  0
    4.6114   -0.1074    0.1694 N   0  0  0  0  0  0  0  0  0  0  0  0
    6.0209   -0.4093    0.5815 C   0  0  0  0  0  0  0  0  0  0  0  0
    6.9552   -0.3230   -0.6285 C   0  0  0  0  0  0  0  0  0  0  0  0
    6.6474   -1.2824   -1.6508 O   0  0  0  0  0  0  0  0  0  0  0  0
    5.2646   -1.6652   -1.6734 C   0  0  0  0  0  0  0  0  0  0  0  0
    4.3273   -0.5336   -1.2407 C   0  0  0  0  0  0  0  0  0  0  0  0
    0.8782   -0.3328    0.4815 C   0  0  0  0  0  0  0  0  0  0  0  0
   -2.7771    0.8767    0.5941 H   0  0  0  0  0  0  0  0  0  0  0  0
   -3.8309   -1.1993   -1.2404 H   0  0  0  0  0  0  0  0  0  0  0  0
   -4.0158   -1.3186    0.5235 H   0  0  0  0  0  0  0  0  0  0  0  0
   -4.9920    1.0581   -1.1714 H   0  0  0  0  0  0  0  0  0  0  0  0
   -6.4669   -1.3523    0.0067 H   0  0  0  0  0  0  0  0  0  0  0  0
   -6.6669   -0.6411   -1.6083 H   0  0  0  0  0  0  0  0  0  0  0  0
   -7.6251    1.3759   -0.6611 H   0  0  0  0  0  0  0  0  0  0  0  0
   -8.3766    0.1178    0.3380 H   0  0  0  0  0  0  0  0  0  0  0  0
   -6.9157    2.1208    1.4940 H   0  0  0  0  0  0  0  0  0  0  0  0
   -6.7677    0.4607    2.1114 H   0  0  0  0  0  0  0  0  0  0  0  0
   -1.1878    2.3071   -0.1582 H   0  0  0  0  0  0  0  0  0  0  0  0
    0.8017    3.5418    0.5580 H   0  0  0  0  0  0  0  0  0  0  0  0
    6.0732   -1.4161    1.0121 H   0  0  0  0  0  0  0  0  0  0  0  0
    6.3320    0.3205    1.3367 H   0  0  0  0  0  0  0  0  0  0  0  0
    7.9916   -0.4941   -0.3202 H   0  0  0  0  0  0  0  0  0  0  0  0
    6.9075    0.6741   -1.0813 H   0  0  0  0  0  0  0  0  0  0  0  0
    5.0299   -1.9788   -2.6958 H   0  0  0  0  0  0  0  0  0  0  0  0
    5.1455   -2.5418   -1.0268 H   0  0  0  0  0  0  0  0  0  0  0  0
    4.4778    0.3461   -1.8767 H   0  0  0  0  0  0  0  0  0  0  0  0
    3.2864   -0.8459   -1.3649 H   0  0  0  0  0  0  0  0  0  0  0  0
    0.8829   -1.4227    0.4497 H   0  0  0  0  0  0  0  0  0  0  0  0
  1  2  2  0
  2  3  1  0
  3  4  1  0
  4  5  1  0
  5  6  1  0
  6  7  1  0
  7  8  1  0
  8  9  1  0
  2 10  1  0
 10 11  2  0
 11 12  1  0
 12 13  2  0
 13 14  1  0
 13 15  1  0
 15 16  1  0
 16 17  2  0
 16 18  2  0
 16 19  1  0
 19 20  1  0
 20 21  1  0
 21 22  1  0
 22 23  1  0
 23 24  1  0
 15 25  2  0
  9  5  1  0
 25 10  1  0
 24 19  1  0
  3 26  1  0
  4 27  1  0
  4 28  1  0
  5 29  1  0
  6 30  1  0
  6 31  1  0
  7 32  1  0
  7 33  1  0
  8 34  1  0
  8 35  1  0
 11 36  1  0
 12 37  1  0
 20 38  1  0
 20 39  1  0
 21 40  1  0
 21 41  1  0
 23 42  1  0
 23 43  1  0
 24 44  1  0
 24 45  1  0
 25 46  1  0
M  END
$$$$
