
     RDKit          3D

 32 34  0  0  0  0  0  0  0  0999 V2000
    6.0499   -0.4295    0.3627 C   0  0  0  0  0  0  0  0  0  0  0  0
    4.7054   -0.2655   -0.2846 C   0  0  0  0  0  0  0  0  0  0  0  0
    4.5992   -0.0424   -1.6656 C   0  0  0  0  0  0  0  0  0  0  0  0
    3.3577    0.1341   -2.2905 C   0  0  0  0  0  0  0  0  0  0  0  0
    2.2311    0.0831   -1.4693 C   0  0  0  0  0  0  0  0  0  0  0  0
    0.8905    0.2079   -1.7312 N   0  0  0  0  0  0  0  0  0  0  0  0
    0.1938    0.0767   -0.5449 C   0  0  0  0  0  0  0  0  0  0  0  0
   -1.2366    0.1641   -0.5346 C   0  0  0  0  0  0  0  0  0  0  0  0
   -1.9434    0.4126   -1.7511 C   0  0  0  0  0  0  0  0  0  0  0  0
   -2.4068    0.6346   -2.7918 N   0  0  0  0  0  0  0  0  0  0  0  0
   -1.8449    0.0244    0.6614 C   0  0  0  0  0  0  0  0  0  0  0  0
   -3.2515    0.0722    0.8829 C   0  0  0  0  0  0  0  0  0  0  0  0
   -3.9189    0.1733    2.1039 C   0  0  0  0  0  0  0  0  0  0  0  0
   -5.3137    0.1743    1.8533 C   0  0  0  0  0  0  0  0  0  0  0  0
   -5.4272    0.0627    0.4926 C   0  0  0  0  0  0  0  0  0  0  0  0
   -6.5694   -0.0027   -0.3629 N   0  0  0  0  0  4  0  0  0  0  0  0
   -6.3801   -0.1564   -1.5750 O   0  0  0  0  0  0  0  0  0  0  0  0
   -7.6725    0.0947    0.1927 O   0  0  0  0  0  1  0  0  0  0  0  0
   -4.2112    0.0015   -0.1054 O   0  0  0  0  0  0  0  0  0  0  0  0
    1.0383   -0.1239    0.4531 N   0  0  0  0  0  0  0  0  0  0  0  0
    2.2951   -0.1262   -0.1000 C   0  0  0  0  0  0  0  0  0  0  0  0
    3.5455   -0.3006    0.5104 C   0  0  0  0  0  0  0  0  0  0  0  0
    6.8287   -0.6322   -0.3798 H   0  0  0  0  0  0  0  0  0  0  0  0
    6.0368   -1.2726    1.0611 H   0  0  0  0  0  0  0  0  0  0  0  0
    6.3179    0.4821    0.9053 H   0  0  0  0  0  0  0  0  0  0  0  0
    5.4992   -0.0051   -2.2783 H   0  0  0  0  0  0  0  0  0  0  0  0
    3.2862    0.3029   -3.3595 H   0  0  0  0  0  0  0  0  0  0  0  0
    0.4932    0.3681   -2.6473 H   0  0  0  0  0  0  0  0  0  0  0  0
   -1.2314   -0.1321    1.5486 H   0  0  0  0  0  0  0  0  0  0  0  0
   -3.4388    0.2406    3.0724 H   0  0  0  0  0  0  0  0  0  0  0  0
   -6.1229    0.2404    2.5678 H   0  0  0  0  0  0  0  0  0  0  0  0
    3.6003   -0.4610    1.5818 H   0  0  0  0  0  0  0  0  0  0  0  0
  1  2  1  0
  2  3  2  0
  3  4  1  0
  4  5  2  0
  5  6  1  0
  6  7  1  0
  7  8  1  0
  8  9  1  0
  9 10  3  0
  8 11  2  3
 11 12  1  0
 12 13  2  0
 13 14  1  0
 14 15  2  0
 15 16  1  0
 16 17  2  0
 16 18  1  0
 15 19  1  0
  7 20  2  0
 20 21  1  0
 21 22  2  0
 22  2  1  0
 21  5  1  0
 19 12  1  0
  1 23  1  0
  1 24  1  0
  1 25  1  0
  3 26  1  0
  4 27  1  0
  6 28  1  0
 11 29  1  0
 13 30  1  0
 14 31  1  0
 22 32  1  0
M  CHG  2  16   1  18  -1
M  END
$$$$
