
     RDKit          3D

 37 39  0  0  0  0  0  0  0  0999 V2000
   -5.0187   -2.1744   -0.3786 C   0  0  0  0  0  0  0  0  0  0  0  0
   -4.8403   -1.2197   -1.4142 O   0  0  0  0  0  0  0  0  0  0  0  0
   -3.6111   -0.6266   -1.5256 C   0  0  0  0  0  0  0  0  0  0  0  0
   -2.5027   -0.9143   -0.7252 C   0  0  0  0  0  0  0  0  0  0  0  0
   -1.2842   -0.2414   -0.9161 C   0  0  0  0  0  0  0  0  0  0  0  0
   -0.1388   -0.6010   -0.0645 C   0  0  0  0  0  0  0  0  0  0  0  0
    0.6693    0.3152    0.4939 C   0  0  0  0  0  0  0  0  0  0  0  0
    1.7924    0.0296    1.3297 C   0  0  0  0  0  0  0  0  0  0  0  0
    2.5746    0.9690    1.8268 N   0  0  0  0  0  0  0  0  0  0  0  0
    3.5839    0.4244    2.6013 C   0  0  0  0  0  0  0  0  0  0  0  0
    4.5886    1.1456    3.2779 C   0  0  0  0  0  0  0  0  0  0  0  0
    5.5507    0.4614    4.0280 C   0  0  0  0  0  0  0  0  0  0  0  0
    5.5221   -0.9271    4.1104 C   0  0  0  0  0  0  0  0  0  0  0  0
    4.5352   -1.6641    3.4480 C   0  0  0  0  0  0  0  0  0  0  0  0
    3.5746   -0.9648    2.6981 C   0  0  0  0  0  0  0  0  0  0  0  0
    2.2551   -1.5752    1.7852 S   0  0  0  0  0  0  0  0  0  0  0  0
   -1.1685    0.7134   -1.9389 C   0  0  0  0  0  0  0  0  0  0  0  0
   -2.2644    1.0123   -2.7470 C   0  0  0  0  0  0  0  0  0  0  0  0
   -2.2858    1.9240   -3.7733 O   0  0  0  0  0  0  0  0  0  0  0  0
   -1.0824    2.6434   -4.0170 C   0  0  0  0  0  0  0  0  0  0  0  0
   -3.4749    0.3385   -2.5297 C   0  0  0  0  0  0  0  0  0  0  0  0
   -4.5498    0.6395   -3.3329 O   0  0  0  0  0  0  0  0  0  0  0  0
   -4.3652   -3.0408   -0.5239 H   0  0  0  0  0  0  0  0  0  0  0  0
   -6.0534   -2.5278   -0.4235 H   0  0  0  0  0  0  0  0  0  0  0  0
   -4.8643   -1.7229    0.6070 H   0  0  0  0  0  0  0  0  0  0  0  0
   -2.5654   -1.6574    0.0636 H   0  0  0  0  0  0  0  0  0  0  0  0
   -0.0069   -1.6676    0.0952 H   0  0  0  0  0  0  0  0  0  0  0  0
    0.4863    1.3741    0.3292 H   0  0  0  0  0  0  0  0  0  0  0  0
    4.6061    2.2288    3.2105 H   0  0  0  0  0  0  0  0  0  0  0  0
    6.3241    1.0212    4.5487 H   0  0  0  0  0  0  0  0  0  0  0  0
    6.2761   -1.4478    4.6972 H   0  0  0  0  0  0  0  0  0  0  0  0
    4.5135   -2.7476    3.5131 H   0  0  0  0  0  0  0  0  0  0  0  0
   -0.2119    1.2014   -2.0939 H   0  0  0  0  0  0  0  0  0  0  0  0
   -1.2674    3.3313   -4.8477 H   0  0  0  0  0  0  0  0  0  0  0  0
   -0.2741    1.9685   -4.3173 H   0  0  0  0  0  0  0  0  0  0  0  0
   -0.7968    3.2422   -3.1459 H   0  0  0  0  0  0  0  0  0  0  0  0
   -4.2258    1.3229   -3.9487 H   0  0  0  0  0  0  0  0  0  0  0  0
  1  2  1  0
  2  3  1  0
  3  4  2  0
  4  5  1  0
  5  6  1  0
  6  7  2  3
  7  8  1  0
  8  9  2  0
  9 10  1  0
 10 11  2  0
 11 12  1  0
 12 13  2  0
 13 14  1  0
 14 15  2  0
 15 16  1  0
  5 17  2  0
 17 18  1  0
 18 19  1  0
 19 20  1  0
 18 21  2  0
 21 22  1  0
 21  3  1  0
 16  8  1  0
 15 10  1  0
  1 23  1  0
  1 24  1  0
  1 25  1  0
  4 26  1  0
  6 27  1  0
  7 28  1  0
 11 29  1  0
 12 30  1  0
 13 31  1  0
 14 32  1  0
 17 33  1  0
 20 34  1  0
 20 35  1  0
 20 36  1  0
 22 37  1  0
M  END
$$$$
