
     RDKit          3D

 51 54  0  0  0  0  0  0  0  0999 V2000
    2.2093    1.8346   -1.7869 C   0  0  0  0  0  0  0  0  0  0  0  0
    2.6511    0.4095   -1.4282 C   0  0  0  0  0  0  0  0  0  0  0  0
    1.7074   -0.6187   -2.0883 C   0  0  0  0  0  0  0  0  0  0  0  0
    0.8300   -1.0020   -0.9375 C   0  0  0  0  0  0  0  0  0  0  0  0
   -0.3294   -1.7621   -0.9828 C   0  0  0  0  0  0  0  0  0  0  0  0
   -0.9462   -2.0793    0.2309 C   0  0  0  0  0  0  0  0  0  0  0  0
   -2.4400   -3.0427    0.2389 S   0  0  0  0  0  6  0  0  0  0  0  0
   -2.7020   -3.4762   -1.1156 O   0  0  0  0  0  0  0  0  0  0  0  0
   -2.3527   -3.9767    1.3383 O   0  0  0  0  0  0  0  0  0  0  0  0
   -3.5989   -1.9146    0.6506 N   0  0  0  0  0  0  0  0  0  0  0  0
   -3.8055   -0.7550   -0.2060 C   0  0  0  0  0  0  0  0  0  0  0  0
   -5.0729   -0.0291    0.1720 C   0  0  0  0  0  0  0  0  0  0  0  0
   -6.3219   -0.5966   -0.1209 C   0  0  0  0  0  0  0  0  0  0  0  0
   -7.4998    0.0594    0.2386 C   0  0  0  0  0  0  0  0  0  0  0  0
   -7.4413    1.2856    0.8981 C   0  0  0  0  0  0  0  0  0  0  0  0
   -6.2060    1.8553    1.2017 C   0  0  0  0  0  0  0  0  0  0  0  0
   -5.0260    1.2007    0.8436 C   0  0  0  0  0  0  0  0  0  0  0  0
   -0.3916   -1.6736    1.4571 C   0  0  0  0  0  0  0  0  0  0  0  0
    0.7825   -0.9129    1.4798 C   0  0  0  0  0  0  0  0  0  0  0  0
    1.3783   -0.5718    0.2755 C   0  0  0  0  0  0  0  0  0  0  0  0
    2.5530    0.1743    0.0354 N   0  0  0  0  0  0  0  0  0  0  0  0
    3.4401    0.6198    1.0135 C   0  0  0  0  0  0  0  0  0  0  0  0
    3.2062    0.5189    2.2245 O   0  0  0  0  0  0  0  0  0  0  0  0
    4.7800    1.2276    0.5033 C   0  0  0  0  0  0  0  0  0  0  0  0
    5.7840    1.7569    1.5716 C   0  0  0  0  0  0  0  0  0  0  0  0
    6.9186    1.2310    0.6744 C   0  0  0  0  0  0  0  0  0  0  0  0
    5.9024    0.2270    0.1013 C   0  0  0  0  0  0  0  0  0  0  0  0
    2.8194    2.5907   -1.2867 H   0  0  0  0  0  0  0  0  0  0  0  0
    1.1695    2.0170   -1.4923 H   0  0  0  0  0  0  0  0  0  0  0  0
    2.2889    1.9997   -2.8666 H   0  0  0  0  0  0  0  0  0  0  0  0
    3.6810    0.2572   -1.7656 H   0  0  0  0  0  0  0  0  0  0  0  0
    1.1428   -0.2086   -2.9307 H   0  0  0  0  0  0  0  0  0  0  0  0
    2.2711   -1.4984   -2.4186 H   0  0  0  0  0  0  0  0  0  0  0  0
   -0.7317   -2.1092   -1.9304 H   0  0  0  0  0  0  0  0  0  0  0  0
   -3.7789   -1.8181    1.6476 H   0  0  0  0  0  0  0  0  0  0  0  0
   -2.9560   -0.0701   -0.1078 H   0  0  0  0  0  0  0  0  0  0  0  0
   -3.8694   -1.0505   -1.2591 H   0  0  0  0  0  0  0  0  0  0  0  0
   -6.3787   -1.5592   -0.6265 H   0  0  0  0  0  0  0  0  0  0  0  0
   -8.4626   -0.3888    0.0072 H   0  0  0  0  0  0  0  0  0  0  0  0
   -8.3593    1.7953    1.1790 H   0  0  0  0  0  0  0  0  0  0  0  0
   -6.1624    2.8097    1.7203 H   0  0  0  0  0  0  0  0  0  0  0  0
   -4.0717    1.6590    1.0938 H   0  0  0  0  0  0  0  0  0  0  0  0
   -0.8636   -1.9542    2.3967 H   0  0  0  0  0  0  0  0  0  0  0  0
    1.1989   -0.6069    2.4339 H   0  0  0  0  0  0  0  0  0  0  0  0
    4.6250    1.9952   -0.2647 H   0  0  0  0  0  0  0  0  0  0  0  0
    5.7764    2.8384    1.7323 H   0  0  0  0  0  0  0  0  0  0  0  0
    5.7296    1.2544    2.5443 H   0  0  0  0  0  0  0  0  0  0  0  0
    7.7758    0.7969    1.1947 H   0  0  0  0  0  0  0  0  0  0  0  0
    7.2769    1.9630   -0.0584 H   0  0  0  0  0  0  0  0  0  0  0  0
    6.0016    0.0250   -0.9683 H   0  0  0  0  0  0  0  0  0  0  0  0
    5.8685   -0.7269    0.6408 H   0  0  0  0  0  0  0  0  0  0  0  0
  1  2  1  0
  2  3  1  0
  3  4  1  0
  4  5  2  0
  5  6  1  0
  6  7  1  0
  7  8  2  0
  7  9  2  0
  7 10  1  0
 10 11  1  0
 11 12  1  0
 12 13  2  0
 13 14  1  0
 14 15  2  0
 15 16  1  0
 16 17  2  0
  6 18  2  0
 18 19  1  0
 19 20  2  0
 20 21  1  0
 21 22  1  0
 22 23  2  0
 22 24  1  0
 24 25  1  0
 25 26  1  0
 26 27  1  0
 21  2  1  0
 27 24  1  0
 20  4  1  0
 17 12  1  0
  1 28  1  0
  1 29  1  0
  1 30  1  0
  2 31  1  0
  3 32  1  0
  3 33  1  0
  5 34  1  0
 10 35  1  0
 11 36  1  0
 11 37  1  0
 13 38  1  0
 14 39  1  0
 15 40  1  0
 16 41  1  0
 17 42  1  0
 18 43  1  0
 19 44  1  0
 24 45  1  0
 25 46  1  0
 25 47  1  0
 26 48  1  0
 26 49  1  0
 27 50  1  0
 27 51  1  0
M  END
$$$$
