
     RDKit          3D

 42 43  0  0  0  0  0  0  0  0999 V2000
   -1.6821    4.1719    0.8053 C   0  0  0  0  0  0  0  0  0  0  0  0
   -1.8842    2.7471    0.3792 C   0  0  0  0  0  0  0  0  0  0  0  0
   -1.7368    1.6928    1.2868 C   0  0  0  0  0  0  0  0  0  0  0  0
   -1.9539    0.3688    0.8861 C   0  0  0  0  0  0  0  0  0  0  0  0
   -2.3375    0.0867   -0.4250 C   0  0  0  0  0  0  0  0  0  0  0  0
   -2.6095   -1.1497   -0.9421 O   0  0  0  0  0  0  0  0  0  0  0  0
   -2.7504   -2.2322   -0.0301 C   0  0  0  0  0  0  0  0  0  0  0  0
   -1.4148   -2.8843    0.3001 C   0  0  0  0  0  0  0  0  0  0  0  0
   -1.0584   -3.1517    1.4474 O   0  0  0  0  0  0  0  0  0  0  0  0
   -0.6550   -3.1817   -0.8181 N   0  0  0  0  0  0  0  0  0  0  0  0
    0.6924   -3.5384   -0.5911 N   0  0  0  0  0  0  0  0  0  0  0  0
    1.6369   -2.8673   -1.3499 C   0  0  0  0  0  0  0  0  0  0  0  0
    1.3302   -2.2356   -2.3628 O   0  0  0  0  0  0  0  0  0  0  0  0
    3.0753   -3.0420   -0.8937 C   0  0  0  0  0  0  0  0  0  0  0  0
    3.2796   -2.8451    0.9077 S   0  0  0  0  0  0  0  0  0  0  0  0
    2.8955   -1.1219    1.0887 C   0  0  0  0  0  0  0  0  0  0  0  0
    3.1836   -0.5522    2.2663 N   0  0  0  0  0  0  0  0  0  0  0  0
    2.8630    0.7523    2.3897 C   0  0  0  0  0  0  0  0  0  0  0  0
    2.2615    1.4902    1.3944 C   0  0  0  0  0  0  0  0  0  0  0  0
    1.9610    2.8671    1.5900 C   0  0  0  0  0  0  0  0  0  0  0  0
    1.7173    3.9849    1.7904 N   0  0  0  0  0  0  0  0  0  0  0  0
    1.9906    0.8066    0.2267 C   0  0  0  0  0  0  0  0  0  0  0  0
    1.4097    1.4025   -0.8903 N   0  0  0  0  0  0  0  0  0  0  0  0
    2.3137   -0.4861    0.0645 N   0  0  0  0  0  0  0  0  0  0  0  0
   -2.4656    1.1369   -1.3367 C   0  0  0  0  0  0  0  0  0  0  0  0
   -2.2459    2.4577   -0.9399 C   0  0  0  0  0  0  0  0  0  0  0  0
   -2.6243    4.7237    0.7253 H   0  0  0  0  0  0  0  0  0  0  0  0
   -1.3428    4.2362    1.8443 H   0  0  0  0  0  0  0  0  0  0  0  0
   -0.9295    4.6524    0.1721 H   0  0  0  0  0  0  0  0  0  0  0  0
   -1.4622    1.8943    2.3207 H   0  0  0  0  0  0  0  0  0  0  0  0
   -1.8203   -0.4103    1.6307 H   0  0  0  0  0  0  0  0  0  0  0  0
   -3.3684   -2.9938   -0.5204 H   0  0  0  0  0  0  0  0  0  0  0  0
   -3.2828   -1.9453    0.8842 H   0  0  0  0  0  0  0  0  0  0  0  0
   -0.8121   -2.6238   -1.6621 H   0  0  0  0  0  0  0  0  0  0  0  0
    0.9182   -3.7550    0.3828 H   0  0  0  0  0  0  0  0  0  0  0  0
    3.3990   -4.0496   -1.1746 H   0  0  0  0  0  0  0  0  0  0  0  0
    3.7151   -2.3244   -1.4181 H   0  0  0  0  0  0  0  0  0  0  0  0
    3.1189    1.1937    3.3504 H   0  0  0  0  0  0  0  0  0  0  0  0
    1.2827    0.6815   -1.6026 H   0  0  0  0  0  0  0  0  0  0  0  0
    0.5221    1.8539   -0.6847 H   0  0  0  0  0  0  0  0  0  0  0  0
   -2.7585    0.9290   -2.3629 H   0  0  0  0  0  0  0  0  0  0  0  0
   -2.3714    3.2602   -1.6641 H   0  0  0  0  0  0  0  0  0  0  0  0
  1  2  1  0
  2  3  2  0
  3  4  1  0
  4  5  2  0
  5  6  1  0
  6  7  1  0
  7  8  1  0
  8  9  2  0
  8 10  1  0
 10 11  1  0
 11 12  1  0
 12 13  2  0
 12 14  1  0
 14 15  1  0
 15 16  1  0
 16 17  2  0
 17 18  1  0
 18 19  2  0
 19 20  1  0
 20 21  3  0
 19 22  1  0
 22 23  1  0
 22 24  2  0
  5 25  1  0
 25 26  2  0
 26  2  1  0
 24 16  1  0
  1 27  1  0
  1 28  1  0
  1 29  1  0
  3 30  1  0
  4 31  1  0
  7 32  1  0
  7 33  1  0
 10 34  1  0
 11 35  1  0
 14 36  1  0
 14 37  1  0
 18 38  1  0
 23 39  1  0
 23 40  1  0
 25 41  1  0
 26 42  1  0
M  END
$$$$
