
     RDKit          3D

 38 40  0  0  0  0  0  0  0  0999 V2000
   -7.2035    0.6634    1.4320 C   0  0  0  0  0  0  0  0  0  0  0  0
   -6.6919    0.6988    0.1055 O   0  0  0  0  0  0  0  0  0  0  0  0
   -5.3469    0.5055   -0.0405 C   0  0  0  0  0  0  0  0  0  0  0  0
   -4.8879    0.5448   -1.3552 C   0  0  0  0  0  0  0  0  0  0  0  0
   -3.5306    0.3617   -1.6422 C   0  0  0  0  0  0  0  0  0  0  0  0
   -2.5927    0.1364   -0.6222 C   0  0  0  0  0  0  0  0  0  0  0  0
   -1.2453   -0.0479   -0.9821 N   0  0  0  0  0  0  0  0  0  0  0  0
   -0.1746   -0.3312   -0.2027 C   0  0  0  0  0  0  0  0  0  0  0  0
   -0.1532   -0.5542    1.0922 N   0  0  0  0  0  0  0  0  0  0  0  0
    1.1199   -0.8104    1.5120 C   0  0  0  0  0  0  0  0  0  0  0  0
    1.3024   -1.0737    2.8149 N   0  0  0  0  0  0  0  0  0  0  0  0
    2.1079   -0.7691    0.5553 C   0  0  0  0  0  0  0  0  0  0  0  0
    3.5206   -1.0380    0.7149 C   0  0  0  0  0  0  0  0  0  0  0  0
    3.9654   -1.7869    1.5865 O   0  0  0  0  0  0  0  0  0  0  0  0
    4.5206   -0.3978   -0.1818 C   0  0  0  0  0  0  0  0  0  0  0  0
    5.5770   -1.1779   -0.6749 C   0  0  0  0  0  0  0  0  0  0  0  0
    6.5413   -0.6009   -1.5028 C   0  0  0  0  0  0  0  0  0  0  0  0
    6.4529    0.7505   -1.8201 C   0  0  0  0  0  0  0  0  0  0  0  0
    7.3792    1.3030   -2.6135 F   0  0  0  0  0  0  0  0  0  0  0  0
    5.4225    1.5403   -1.3191 C   0  0  0  0  0  0  0  0  0  0  0  0
    4.4544    0.9692   -0.4903 C   0  0  0  0  0  0  0  0  0  0  0  0
    1.3805   -0.4382   -0.9602 S   0  0  0  0  0  0  0  0  0  0  0  0
   -3.0710    0.0965    0.6913 C   0  0  0  0  0  0  0  0  0  0  0  0
   -4.4317    0.2800    0.9834 C   0  0  0  0  0  0  0  0  0  0  0  0
   -8.2834    0.8321    1.3782 H   0  0  0  0  0  0  0  0  0  0  0  0
   -6.7718    1.4629    2.0431 H   0  0  0  0  0  0  0  0  0  0  0  0
   -7.0424   -0.3175    1.8914 H   0  0  0  0  0  0  0  0  0  0  0  0
   -5.5913    0.7180   -2.1659 H   0  0  0  0  0  0  0  0  0  0  0  0
   -3.2173    0.3966   -2.6825 H   0  0  0  0  0  0  0  0  0  0  0  0
   -1.0639    0.0680   -1.9705 H   0  0  0  0  0  0  0  0  0  0  0  0
    0.4788   -1.3364    3.3464 H   0  0  0  0  0  0  0  0  0  0  0  0
    2.1384   -1.5842    3.0984 H   0  0  0  0  0  0  0  0  0  0  0  0
    5.6503   -2.2318   -0.4131 H   0  0  0  0  0  0  0  0  0  0  0  0
    7.3622   -1.1931   -1.8956 H   0  0  0  0  0  0  0  0  0  0  0  0
    5.3865    2.5962   -1.5701 H   0  0  0  0  0  0  0  0  0  0  0  0
    3.6690    1.6001   -0.0802 H   0  0  0  0  0  0  0  0  0  0  0  0
   -2.3973   -0.0737    1.5260 H   0  0  0  0  0  0  0  0  0  0  0  0
   -4.7331    0.2390    2.0246 H   0  0  0  0  0  0  0  0  0  0  0  0
  1  2  1  0
  2  3  1  0
  3  4  2  0
  4  5  1  0
  5  6  2  0
  6  7  1  0
  7  8  1  0
  8  9  2  0
  9 10  1  0
 10 11  1  0
 10 12  2  0
 12 13  1  0
 13 14  2  0
 13 15  1  0
 15 16  2  0
 16 17  1  0
 17 18  2  0
 18 19  1  0
 18 20  1  0
 20 21  2  0
 12 22  1  0
  6 23  1  0
 23 24  2  0
 24  3  1  0
 22  8  1  0
 21 15  1  0
  1 25  1  0
  1 26  1  0
  1 27  1  0
  4 28  1  0
  5 29  1  0
  7 30  1  0
 11 31  1  0
 11 32  1  0
 16 33  1  0
 17 34  1  0
 20 35  1  0
 21 36  1  0
 23 37  1  0
 24 38  1  0
M  END
$$$$
