
     RDKit          3D

 59 62  0  0  0  0  0  0  0  0999 V2000
   -5.0225    1.9640   -1.6918 C   0  0  0  0  0  0  0  0  0  0  0  0
   -5.6828    0.5976   -1.7526 C   0  0  0  0  0  0  0  0  0  0  0  0
   -5.7558   -0.0413   -0.4521 N   0  0  0  0  0  0  0  0  0  0  0  0
   -4.7440   -0.6925    0.2301 C   0  0  0  0  0  0  0  0  0  0  0  0
   -3.3899   -0.8676   -0.2776 C   0  0  0  0  0  0  0  0  0  0  0  0
   -3.1799   -1.1358   -1.4591 O   0  0  0  0  0  0  0  0  0  0  0  0
   -2.3310   -0.7376    0.6315 N   0  0  0  0  0  0  0  0  0  0  0  0
   -2.3700    0.1786    1.7736 C   0  0  0  0  0  0  0  0  0  0  0  0
   -1.6839    1.4993    1.4153 C   0  0  0  0  0  0  0  0  0  0  0  0
   -0.2635    1.2665    0.8937 C   0  0  0  0  0  0  0  0  0  0  0  0
   -0.2573    0.2508   -0.2594 C   0  0  0  0  0  0  0  0  0  0  0  0
    1.1534   -0.0432   -0.7452 C   0  0  0  0  0  0  0  0  0  0  0  0
    1.5161    0.2528   -1.8808 O   0  0  0  0  0  0  0  0  0  0  0  0
    1.9934   -0.6396    0.1690 N   0  0  0  0  0  0  0  0  0  0  0  0
    3.3786   -0.9336   -0.1559 C   0  0  0  0  0  0  0  0  0  0  0  0
    4.2703    0.3065   -0.0587 C   0  0  0  0  0  0  0  0  0  0  0  0
    5.7147   -0.0230   -0.3378 C   0  0  0  0  0  0  0  0  0  0  0  0
    6.1795   -0.0937   -1.6567 C   0  0  0  0  0  0  0  0  0  0  0  0
    7.5115   -0.4184   -1.9224 C   0  0  0  0  0  0  0  0  0  0  0  0
    8.3981   -0.6912   -0.8750 C   0  0  0  0  0  0  0  0  0  0  0  0
    9.8365   -1.0059   -1.1599 C   0  0  0  0  0  0  0  0  0  0  0  0
    7.9367   -0.6101    0.4436 C   0  0  0  0  0  0  0  0  0  0  0  0
    6.6043   -0.2857    0.7105 C   0  0  0  0  0  0  0  0  0  0  0  0
   -0.9815   -1.0346    0.1481 C   0  0  0  0  0  0  0  0  0  0  0  0
   -5.2802   -1.1909    1.4121 C   0  0  0  0  0  0  0  0  0  0  0  0
   -6.6306   -0.7544    1.4623 C   0  0  0  0  0  0  0  0  0  0  0  0
   -8.0014   -0.8542    2.5147 S   0  0  0  0  0  0  0  0  0  0  0  0
   -8.9210    0.0747    1.3972 C   0  0  0  0  0  0  0  0  0  0  0  0
   -8.2276    0.4451    0.2645 C   0  0  0  0  0  0  0  0  0  0  0  0
   -6.8955   -0.0526    0.3255 C   0  0  0  0  0  0  0  0  0  0  0  0
   -3.9881    1.8925   -1.3409 H   0  0  0  0  0  0  0  0  0  0  0  0
   -5.0122    2.4243   -2.6845 H   0  0  0  0  0  0  0  0  0  0  0  0
   -5.5606    2.6317   -1.0107 H   0  0  0  0  0  0  0  0  0  0  0  0
   -6.7013    0.6918   -2.1449 H   0  0  0  0  0  0  0  0  0  0  0  0
   -5.1485   -0.0694   -2.4346 H   0  0  0  0  0  0  0  0  0  0  0  0
   -3.3872    0.3967    2.0998 H   0  0  0  0  0  0  0  0  0  0  0  0
   -1.8501   -0.3089    2.6064 H   0  0  0  0  0  0  0  0  0  0  0  0
   -2.2680    2.0178    0.6450 H   0  0  0  0  0  0  0  0  0  0  0  0
   -1.6538    2.1531    2.2939 H   0  0  0  0  0  0  0  0  0  0  0  0
    0.3643    0.9173    1.7225 H   0  0  0  0  0  0  0  0  0  0  0  0
    0.1686    2.2167    0.5578 H   0  0  0  0  0  0  0  0  0  0  0  0
   -0.7980    0.6985   -1.1052 H   0  0  0  0  0  0  0  0  0  0  0  0
    1.7000   -0.7588    1.1285 H   0  0  0  0  0  0  0  0  0  0  0  0
    3.7120   -1.7069    0.5453 H   0  0  0  0  0  0  0  0  0  0  0  0
    3.4179   -1.3602   -1.1651 H   0  0  0  0  0  0  0  0  0  0  0  0
    3.9329    1.0815   -0.7585 H   0  0  0  0  0  0  0  0  0  0  0  0
    4.1784    0.7549    0.9391 H   0  0  0  0  0  0  0  0  0  0  0  0
    5.5051    0.1072   -2.4875 H   0  0  0  0  0  0  0  0  0  0  0  0
    7.8515   -0.4579   -2.9549 H   0  0  0  0  0  0  0  0  0  0  0  0
   10.4218   -0.0819   -1.1948 H   0  0  0  0  0  0  0  0  0  0  0  0
   10.2537   -1.6605   -0.3875 H   0  0  0  0  0  0  0  0  0  0  0  0
    9.9400   -1.5273   -2.1174 H   0  0  0  0  0  0  0  0  0  0  0  0
    8.6137   -0.8002    1.2734 H   0  0  0  0  0  0  0  0  0  0  0  0
    6.2695   -0.2357    1.7438 H   0  0  0  0  0  0  0  0  0  0  0  0
   -0.4584   -1.5451    0.9659 H   0  0  0  0  0  0  0  0  0  0  0  0
   -1.0140   -1.7419   -0.6886 H   0  0  0  0  0  0  0  0  0  0  0  0
   -4.7621   -1.7884    2.1500 H   0  0  0  0  0  0  0  0  0  0  0  0
   -9.9510    0.3027    1.6355 H   0  0  0  0  0  0  0  0  0  0  0  0
   -8.6510    1.0265   -0.5438 H   0  0  0  0  0  0  0  0  0  0  0  0
  1  2  1  0
  2  3  1  0
  3  4  1  0
  4  5  1  0
  5  6  2  0
  5  7  1  0
  7  8  1  0
  8  9  1  0
  9 10  1  0
 10 11  1  0
 11 12  1  0
 12 13  2  0
 12 14  1  0
 14 15  1  0
 15 16  1  0
 16 17  1  0
 17 18  2  0
 18 19  1  0
 19 20  2  0
 20 21  1  0
 20 22  1  0
 22 23  2  0
 11 24  1  0
  4 25  2  0
 25 26  1  0
 26 27  1  0
 27 28  1  0
 28 29  2  0
 29 30  1  0
 30  3  1  0
 24  7  1  0
 30 26  2  0
 23 17  1  0
  1 31  1  0
  1 32  1  0
  1 33  1  0
  2 34  1  0
  2 35  1  0
  8 36  1  0
  8 37  1  0
  9 38  1  0
  9 39  1  0
 10 40  1  0
 10 41  1  0
 11 42  1  0
 14 43  1  0
 15 44  1  0
 15 45  1  0
 16 46  1  0
 16 47  1  0
 18 48  1  0
 19 49  1  0
 21 50  1  0
 21 51  1  0
 21 52  1  0
 22 53  1  0
 23 54  1  0
 24 55  1  0
 24 56  1  0
 25 57  1  0
 28 58  1  0
 29 59  1  0
M  END
$$$$
