
     RDKit          3D

 55 57  0  0  0  0  0  0  0  0999 V2000
    0.3225    0.5010   -3.6093 N   0  0  0  0  0  0  0  0  0  0  0  0
    1.4200    0.7078   -2.8602 C   0  0  0  0  0  0  0  0  0  0  0  0
    2.5097    1.2406   -3.3302 N   0  0  0  0  0  0  0  0  0  0  0  0
    3.4390    1.2554   -2.1654 C   0  0  0  0  0  0  0  0  0  0  0  0
    2.6561    0.7222   -0.9429 C   0  0  0  0  0  0  0  0  0  0  0  0
    3.3398   -0.4733   -0.2730 C   0  0  0  0  0  0  0  0  0  0  0  0
    4.6095   -0.0947    0.4521 C   0  0  0  0  0  0  0  0  0  0  0  0
    5.8621   -0.4003   -0.1000 C   0  0  0  0  0  0  0  0  0  0  0  0
    7.0385   -0.0274    0.5578 C   0  0  0  0  0  0  0  0  0  0  0  0
    6.9640    0.6468    1.7712 C   0  0  0  0  0  0  0  0  0  0  0  0
    8.1353    1.0092    2.3668 O   0  0  0  0  0  0  0  0  0  0  0  0
    5.7314    0.9487    2.3437 C   0  0  0  0  0  0  0  0  0  0  0  0
    4.5553    0.5813    1.6812 C   0  0  0  0  0  0  0  0  0  0  0  0
    1.3859    0.3204   -1.5548 N   0  0  0  0  0  0  0  0  0  0  0  0
    0.1758    0.3850   -0.7425 C   0  0  0  0  0  0  0  0  0  0  0  0
   -0.4042   -1.0161   -0.5431 C   0  0  0  0  0  0  0  0  0  0  0  0
   -1.9196   -1.0125   -0.3181 C   0  0  0  0  0  0  0  0  0  0  0  0
   -2.3701   -0.2021    0.9043 C   0  0  0  0  0  0  0  0  0  0  0  0
   -3.8978   -0.1175    1.1072 C   0  0  0  0  0  0  0  0  0  0  0  0
   -4.5975    0.6009   -0.0600 C   0  0  0  0  0  0  0  0  0  0  0  0
   -6.1038    0.7070    0.1551 C   0  0  0  0  0  0  0  0  0  0  0  0
   -6.7253   -0.6602    0.4068 C   0  0  0  0  0  0  0  0  0  0  0  0
   -6.0526   -1.3646    1.5841 C   0  0  0  0  0  0  0  0  0  0  0  0
   -4.5407   -1.4852    1.3799 C   0  0  0  0  0  0  0  0  0  0  0  0
   -0.0602   -0.4173   -3.4695 H   0  0  0  0  0  0  0  0  0  0  0  0
    0.5331    0.6634   -4.5892 H   0  0  0  0  0  0  0  0  0  0  0  0
    3.7824    2.2851   -1.9866 H   0  0  0  0  0  0  0  0  0  0  0  0
    4.3133    0.6484   -2.4103 H   0  0  0  0  0  0  0  0  0  0  0  0
    2.5004    1.5434   -0.2301 H   0  0  0  0  0  0  0  0  0  0  0  0
    3.5468   -1.2590   -1.0125 H   0  0  0  0  0  0  0  0  0  0  0  0
    2.6599   -0.9357    0.4549 H   0  0  0  0  0  0  0  0  0  0  0  0
    5.9389   -0.9236   -1.0528 H   0  0  0  0  0  0  0  0  0  0  0  0
    8.0073   -0.2559    0.1170 H   0  0  0  0  0  0  0  0  0  0  0  0
    7.9332    1.4506    3.2127 H   0  0  0  0  0  0  0  0  0  0  0  0
    5.6685    1.4723    3.2915 H   0  0  0  0  0  0  0  0  0  0  0  0
    3.5966    0.8265    2.1294 H   0  0  0  0  0  0  0  0  0  0  0  0
   -0.5576    1.0461   -1.2167 H   0  0  0  0  0  0  0  0  0  0  0  0
    0.3912    0.8220    0.2368 H   0  0  0  0  0  0  0  0  0  0  0  0
   -0.2007   -1.6390   -1.4295 H   0  0  0  0  0  0  0  0  0  0  0  0
    0.1007   -1.5068    0.3024 H   0  0  0  0  0  0  0  0  0  0  0  0
   -2.3935   -0.6229   -1.2273 H   0  0  0  0  0  0  0  0  0  0  0  0
   -2.2462   -2.0529   -0.2136 H   0  0  0  0  0  0  0  0  0  0  0  0
   -1.9890    0.8243    0.8248 H   0  0  0  0  0  0  0  0  0  0  0  0
   -1.9091   -0.6301    1.8049 H   0  0  0  0  0  0  0  0  0  0  0  0
   -4.0568    0.5005    2.0029 H   0  0  0  0  0  0  0  0  0  0  0  0
   -4.4252    0.0631   -1.0001 H   0  0  0  0  0  0  0  0  0  0  0  0
   -4.1786    1.6070   -0.1828 H   0  0  0  0  0  0  0  0  0  0  0  0
   -6.5673    1.1650   -0.7244 H   0  0  0  0  0  0  0  0  0  0  0  0
   -6.3087    1.3680    1.0063 H   0  0  0  0  0  0  0  0  0  0  0  0
   -6.6260   -1.2770   -0.4980 H   0  0  0  0  0  0  0  0  0  0  0  0
   -7.7983   -0.5470    0.6078 H   0  0  0  0  0  0  0  0  0  0  0  0
   -6.4853   -2.3596    1.7103 H   0  0  0  0  0  0  0  0  0  0  0  0
   -6.2578   -0.8079    2.5093 H   0  0  0  0  0  0  0  0  0  0  0  0
   -4.0969   -1.9386    2.2761 H   0  0  0  0  0  0  0  0  0  0  0  0
   -4.3485   -2.1731    0.5459 H   0  0  0  0  0  0  0  0  0  0  0  0
  1  2  1  0
  2  3  2  0
  3  4  1  0
  4  5  1  0
  5  6  1  0
  6  7  1  0
  7  8  2  0
  8  9  1  0
  9 10  2  0
 10 11  1  0
 10 12  1  0
 12 13  2  0
  5 14  1  0
 14 15  1  0
 15 16  1  0
 16 17  1  0
 17 18  1  0
 18 19  1  0
 19 20  1  0
 20 21  1  0
 21 22  1  0
 22 23  1  0
 23 24  1  0
 14  2  1  0
 24 19  1  0
 13  7  1  0
  1 25  1  0
  1 26  1  0
  4 27  1  0
  4 28  1  0
  5 29  1  0
  6 30  1  0
  6 31  1  0
  8 32  1  0
  9 33  1  0
 11 34  1  0
 12 35  1  0
 13 36  1  0
 15 37  1  0
 15 38  1  0
 16 39  1  0
 16 40  1  0
 17 41  1  0
 17 42  1  0
 18 43  1  0
 18 44  1  0
 19 45  1  0
 20 46  1  0
 20 47  1  0
 21 48  1  0
 21 49  1  0
 22 50  1  0
 22 51  1  0
 23 52  1  0
 23 53  1  0
 24 54  1  0
 24 55  1  0
M  END
$$$$
