
     RDKit          3D

 44 45  0  0  0  0  0  0  0  0999 V2000
    6.2044   -3.3919    2.2312 C   0  0  0  0  0  0  0  0  0  0  0  0
    5.5279   -2.2611    1.5122 C   0  0  0  0  0  0  0  0  0  0  0  0
    4.5703   -2.5097    0.5185 C   0  0  0  0  0  0  0  0  0  0  0  0
    3.9517   -1.4541   -0.1611 C   0  0  0  0  0  0  0  0  0  0  0  0
    4.2669   -0.1333    0.1579 C   0  0  0  0  0  0  0  0  0  0  0  0
    3.7073    0.8726   -0.5788 O   0  0  0  0  0  0  0  0  0  0  0  0
    2.4160    1.2363   -0.0928 C   0  0  0  0  0  0  0  0  0  0  0  0
    1.2483    0.6941   -0.9277 C   0  0  0  0  0  0  0  0  0  0  0  0
    1.4021   -0.0930   -1.8570 O   0  0  0  0  0  0  0  0  0  0  0  0
    0.0265    1.1877   -0.4934 N   0  0  0  0  0  0  0  0  0  0  0  0
   -1.1859    0.8624   -1.0705 C   0  0  0  0  0  0  0  0  0  0  0  0
   -1.5141    0.0259   -2.1601 C   0  0  0  0  0  0  0  0  0  0  0  0
   -2.8304   -0.0115   -2.3948 N   0  0  0  0  0  0  0  0  0  0  0  0
   -3.3412    0.8029   -1.4546 N   0  0  0  0  0  0  0  0  0  0  0  0
   -4.7753    1.0239   -1.3987 C   0  0  0  0  0  0  0  0  0  0  0  0
   -5.5013   -0.1249   -0.6972 C   0  0  0  0  0  0  0  0  0  0  0  0
   -7.0185    0.0569   -0.6980 C   0  0  0  0  0  0  0  0  0  0  0  0
   -7.4697    1.1584    0.2233 C   0  0  0  0  0  0  0  0  0  0  0  0
   -6.7687    1.8554    0.9368 O   0  0  0  0  0  0  0  0  0  0  0  0
   -8.8041    1.3290    0.1878 O   0  0  0  0  0  0  0  0  0  0  0  0
   -2.3952    1.3511   -0.6349 C   0  0  0  0  0  0  0  0  0  0  0  0
    5.2315    0.1130    1.1372 C   0  0  0  0  0  0  0  0  0  0  0  0
    5.5945    1.4737    1.4842 N   0  0  0  0  0  4  0  0  0  0  0  0
    4.6760    2.2520    1.7836 O   0  0  0  0  0  0  0  0  0  0  0  0
    6.8026    1.7490    1.5088 O   0  0  0  0  0  1  0  0  0  0  0  0
    5.8639   -0.9364    1.8189 C   0  0  0  0  0  0  0  0  0  0  0  0
    7.2832   -3.3622    2.0484 H   0  0  0  0  0  0  0  0  0  0  0  0
    6.0186   -3.3189    3.3075 H   0  0  0  0  0  0  0  0  0  0  0  0
    5.8322   -4.3643    1.8919 H   0  0  0  0  0  0  0  0  0  0  0  0
    4.3091   -3.5319    0.2492 H   0  0  0  0  0  0  0  0  0  0  0  0
    3.2432   -1.6733   -0.9581 H   0  0  0  0  0  0  0  0  0  0  0  0
    2.2643    0.9395    0.9541 H   0  0  0  0  0  0  0  0  0  0  0  0
    2.3653    2.3304   -0.1344 H   0  0  0  0  0  0  0  0  0  0  0  0
   -0.0033    1.8332    0.2858 H   0  0  0  0  0  0  0  0  0  0  0  0
   -0.8553   -0.5555   -2.7928 H   0  0  0  0  0  0  0  0  0  0  0  0
   -5.1240    1.1378   -2.4319 H   0  0  0  0  0  0  0  0  0  0  0  0
   -4.9366    1.9788   -0.8879 H   0  0  0  0  0  0  0  0  0  0  0  0
   -5.2649   -1.0677   -1.2075 H   0  0  0  0  0  0  0  0  0  0  0  0
   -5.1311   -0.2272    0.3312 H   0  0  0  0  0  0  0  0  0  0  0  0
   -7.4859   -0.8728   -0.3536 H   0  0  0  0  0  0  0  0  0  0  0  0
   -7.3731    0.2741   -1.7115 H   0  0  0  0  0  0  0  0  0  0  0  0
   -8.9792    2.0544    0.8235 H   0  0  0  0  0  0  0  0  0  0  0  0
   -2.6665    2.0240    0.1664 H   0  0  0  0  0  0  0  0  0  0  0  0
    6.6183   -0.7271    2.5760 H   0  0  0  0  0  0  0  0  0  0  0  0
  1  2  1  0
  2  3  2  0
  3  4  1  0
  4  5  2  0
  5  6  1  0
  6  7  1  0
  7  8  1  0
  8  9  2  0
  8 10  1  0
 10 11  1  0
 11 12  1  0
 12 13  2  0
 13 14  1  0
 14 15  1  0
 15 16  1  0
 16 17  1  0
 17 18  1  0
 18 19  2  0
 18 20  1  0
 14 21  1  0
  5 22  1  0
 22 23  1  0
 23 24  2  0
 23 25  1  0
 22 26  2  0
 26  2  1  0
 21 11  2  0
  1 27  1  0
  1 28  1  0
  1 29  1  0
  3 30  1  0
  4 31  1  0
  7 32  1  0
  7 33  1  0
 10 34  1  0
 12 35  1  0
 15 36  1  0
 15 37  1  0
 16 38  1  0
 16 39  1  0
 17 40  1  0
 17 41  1  0
 20 42  1  0
 21 43  1  0
 26 44  1  0
M  CHG  2  23   1  25  -1
M  END
$$$$
