
     RDKit          3D

 30 31  0  0  0  0  0  0  0  0999 V2000
    3.9914    0.2118    0.1605 N   0  0  0  0  0  0  0  0  0  0  0  0
    2.8795   -0.1199    0.1902 C   0  0  0  0  0  0  0  0  0  0  0  0
    1.5084   -0.4774    0.2657 C   0  0  0  0  0  0  0  0  0  0  0  0
    0.7106   -0.3318    1.3387 C   0  0  0  0  0  0  0  0  0  0  0  0
    1.0741    0.2427    2.5910 C   0  0  0  0  0  0  0  0  0  0  0  0
    2.2951    0.3884    3.2506 C   0  0  0  0  0  0  0  0  0  0  0  0
    2.0618    1.0322    4.4945 C   0  0  0  0  0  0  0  0  0  0  0  0
    0.7096    1.2377    4.5375 C   0  0  0  0  0  0  0  0  0  0  0  0
   -0.1355    1.8341    5.5225 N   0  0  0  0  0  4  0  0  0  0  0  0
   -1.3469    1.9018    5.2786 O   0  0  0  0  0  0  0  0  0  0  0  0
    0.4231    2.2414    6.5497 O   0  0  0  0  0  1  0  0  0  0  0  0
    0.1009    0.7691    3.4205 O   0  0  0  0  0  0  0  0  0  0  0  0
    0.9156   -1.1144   -0.9447 C   0  0  0  0  0  0  0  0  0  0  0  0
    1.4353   -2.1219   -1.4066 O   0  0  0  0  0  0  0  0  0  0  0  0
   -0.1905   -0.4423   -1.4348 N   0  0  0  0  0  0  0  0  0  0  0  0
   -0.9806   -0.8000   -2.5489 C   0  0  0  0  0  0  0  0  0  0  0  0
   -2.0394    0.0592   -2.8816 C   0  0  0  0  0  0  0  0  0  0  0  0
   -2.8715   -0.2241   -3.9678 C   0  0  0  0  0  0  0  0  0  0  0  0
   -2.6461   -1.3672   -4.7218 C   0  0  0  0  0  0  0  0  0  0  0  0
   -3.4428   -1.6402   -5.7628 F   0  0  0  0  0  0  0  0  0  0  0  0
   -1.6052   -2.2301   -4.4082 C   0  0  0  0  0  0  0  0  0  0  0  0
   -0.7718   -1.9472   -3.3207 C   0  0  0  0  0  0  0  0  0  0  0  0
   -0.3277   -0.6560    1.2772 H   0  0  0  0  0  0  0  0  0  0  0  0
    3.2628    0.0583    2.8937 H   0  0  0  0  0  0  0  0  0  0  0  0
    2.7846    1.2999    5.2536 H   0  0  0  0  0  0  0  0  0  0  0  0
   -0.4571    0.4213   -0.9765 H   0  0  0  0  0  0  0  0  0  0  0  0
   -2.2336    0.9599   -2.3048 H   0  0  0  0  0  0  0  0  0  0  0  0
   -3.6909    0.4379   -4.2292 H   0  0  0  0  0  0  0  0  0  0  0  0
   -1.4435   -3.1197   -5.0091 H   0  0  0  0  0  0  0  0  0  0  0  0
    0.0301   -2.6472   -3.1072 H   0  0  0  0  0  0  0  0  0  0  0  0
  1  2  3  0
  2  3  1  0
  3  4  2  3
  4  5  1  0
  5  6  2  0
  6  7  1  0
  7  8  2  0
  8  9  1  0
  9 10  2  0
  9 11  1  0
  8 12  1  0
  3 13  1  0
 13 14  2  0
 13 15  1  0
 15 16  1  0
 16 17  2  0
 17 18  1  0
 18 19  2  0
 19 20  1  0
 19 21  1  0
 21 22  2  0
 12  5  1  0
 22 16  1  0
  4 23  1  0
  6 24  1  0
  7 25  1  0
 15 26  1  0
 17 27  1  0
 18 28  1  0
 21 29  1  0
 22 30  1  0
M  CHG  2   9   1  11  -1
M  END
$$$$
