
     RDKit          3D

 42 44  0  0  0  0  0  0  0  0999 V2000
    4.7966   -1.0796   -1.4885 C   0  0  0  0  0  0  0  0  0  0  0  0
    4.1588    0.0427   -0.6809 C   0  0  0  0  0  0  0  0  0  0  0  0
    3.9899   -0.2818    0.8048 C   0  0  0  0  0  0  0  0  0  0  0  0
    2.8538   -1.6727    1.1451 S   0  0  0  0  0  0  0  0  0  0  0  0
    1.2598   -0.9212    0.8374 C   0  0  0  0  0  0  0  0  0  0  0  0
    0.1528   -1.7397    0.7680 C   0  0  0  0  0  0  0  0  0  0  0  0
   -1.0683   -1.1435    0.5344 C   0  0  0  0  0  0  0  0  0  0  0  0
   -2.2295   -1.8764    0.4589 N   0  0  0  0  0  0  0  0  0  0  0  0
   -3.4909   -1.2084    0.1602 C   0  0  0  0  0  0  0  0  0  0  0  0
   -4.4882   -2.3618    0.1148 C   0  0  0  0  0  0  0  0  0  0  0  0
   -3.6652   -3.4891   -0.4881 C   0  0  0  0  0  0  0  0  0  0  0  0
   -2.2811   -3.2967    0.1333 C   0  0  0  0  0  0  0  0  0  0  0  0
   -1.1538    0.1914    0.4057 N   0  0  0  0  0  0  0  0  0  0  0  0
   -0.0272    0.9222    0.4928 C   0  0  0  0  0  0  0  0  0  0  0  0
   -0.1419    2.3876    0.3378 C   0  0  0  0  0  0  0  0  0  0  0  0
   -1.3880    3.0099    0.1261 C   0  0  0  0  0  0  0  0  0  0  0  0
   -1.4995    4.3964   -0.0223 C   0  0  0  0  0  0  0  0  0  0  0  0
   -0.3630    5.1968    0.0378 C   0  0  0  0  0  0  0  0  0  0  0  0
    0.8824    4.6126    0.2460 C   0  0  0  0  0  0  0  0  0  0  0  0
    0.9894    3.2257    0.3940 C   0  0  0  0  0  0  0  0  0  0  0  0
    1.1934    0.4090    0.7044 N   0  0  0  0  0  0  0  0  0  0  0  0
    4.9824   -0.7436   -2.5138 H   0  0  0  0  0  0  0  0  0  0  0  0
    4.1485   -1.9593   -1.5421 H   0  0  0  0  0  0  0  0  0  0  0  0
    5.7550   -1.3807   -1.0537 H   0  0  0  0  0  0  0  0  0  0  0  0
    4.8018    0.9278   -0.7627 H   0  0  0  0  0  0  0  0  0  0  0  0
    3.2005    0.3176   -1.1351 H   0  0  0  0  0  0  0  0  0  0  0  0
    4.9642   -0.5595    1.2226 H   0  0  0  0  0  0  0  0  0  0  0  0
    3.6638    0.6068    1.3555 H   0  0  0  0  0  0  0  0  0  0  0  0
    0.2460   -2.8078    0.9060 H   0  0  0  0  0  0  0  0  0  0  0  0
   -3.7699   -0.4792    0.9283 H   0  0  0  0  0  0  0  0  0  0  0  0
   -3.4459   -0.7097   -0.8158 H   0  0  0  0  0  0  0  0  0  0  0  0
   -4.8038   -2.6303    1.1303 H   0  0  0  0  0  0  0  0  0  0  0  0
   -5.3793   -2.1236   -0.4724 H   0  0  0  0  0  0  0  0  0  0  0  0
   -3.6058   -3.3646   -1.5762 H   0  0  0  0  0  0  0  0  0  0  0  0
   -4.0821   -4.4788   -0.2819 H   0  0  0  0  0  0  0  0  0  0  0  0
   -1.5070   -3.6043   -0.5785 H   0  0  0  0  0  0  0  0  0  0  0  0
   -2.1821   -3.8898    1.0491 H   0  0  0  0  0  0  0  0  0  0  0  0
   -2.2935    2.4069    0.0759 H   0  0  0  0  0  0  0  0  0  0  0  0
   -2.4755    4.8463   -0.1838 H   0  0  0  0  0  0  0  0  0  0  0  0
   -0.4480    6.2741   -0.0768 H   0  0  0  0  0  0  0  0  0  0  0  0
    1.7739    5.2325    0.2948 H   0  0  0  0  0  0  0  0  0  0  0  0
    1.9765    2.7958    0.5566 H   0  0  0  0  0  0  0  0  0  0  0  0
  1  2  1  0
  2  3  1  0
  3  4  1  0
  4  5  1  0
  5  6  2  0
  6  7  1  0
  7  8  1  0
  8  9  1  0
  9 10  1  0
 10 11  1  0
 11 12  1  0
  7 13  2  0
 13 14  1  0
 14 15  1  0
 15 16  2  0
 16 17  1  0
 17 18  2  0
 18 19  1  0
 19 20  2  0
 14 21  2  0
 21  5  1  0
 12  8  1  0
 20 15  1  0
  1 22  1  0
  1 23  1  0
  1 24  1  0
  2 25  1  0
  2 26  1  0
  3 27  1  0
  3 28  1  0
  6 29  1  0
  9 30  1  0
  9 31  1  0
 10 32  1  0
 10 33  1  0
 11 34  1  0
 11 35  1  0
 12 36  1  0
 12 37  1  0
 16 38  1  0
 17 39  1  0
 18 40  1  0
 19 41  1  0
 20 42  1  0
M  END
$$$$
