
     RDKit          3D

 56 59  0  0  0  0  0  0  0  0999 V2000
   -1.2928   -1.4989   -2.6086 C   0  0  0  0  0  0  0  0  0  0  0  0
   -1.4973   -0.3700   -1.5922 C   0  0  0  0  0  0  0  0  0  0  0  0
   -2.4008   -0.8962   -0.4356 C   0  0  0  0  0  0  0  0  0  0  0  0
   -1.9018   -1.4063    0.5731 O   0  0  0  0  0  0  0  0  0  0  0  0
   -3.7731   -0.7857   -0.6394 N   0  0  0  0  0  0  0  0  0  0  0  0
   -4.4409   -0.0638   -1.7427 C   0  0  0  0  0  0  0  0  0  0  0  0
   -5.9560   -0.2153   -1.5611 C   0  0  0  0  0  0  0  0  0  0  0  0
   -6.0413   -0.9665   -0.2733 C   0  0  0  0  0  0  0  0  0  0  0  0
   -7.1971   -1.3509    0.3929 C   0  0  0  0  0  0  0  0  0  0  0  0
   -7.0689   -2.0679    1.5837 C   0  0  0  0  0  0  0  0  0  0  0  0
   -5.7987   -2.3861    2.0884 C   0  0  0  0  0  0  0  0  0  0  0  0
   -4.6400   -1.9923    1.4076 C   0  0  0  0  0  0  0  0  0  0  0  0
   -4.7736   -1.2802    0.2251 C   0  0  0  0  0  0  0  0  0  0  0  0
   -0.2211    0.2365   -1.1302 N   0  0  0  0  0  0  0  0  0  0  0  0
    0.8156   -0.6993   -0.6702 C   0  0  0  0  0  0  0  0  0  0  0  0
    2.0656    0.0361   -0.1437 C   0  0  0  0  0  0  0  0  0  0  0  0
    1.7638    0.9544    1.0044 N   0  0  0  0  0  0  0  0  0  0  0  0
    2.7049    2.3791    1.0647 S   0  0  0  0  0  6  0  0  0  0  0  0
    2.5547    3.0646   -0.2041 O   0  0  0  0  0  0  0  0  0  0  0  0
    2.4308    3.0613    2.3134 O   0  0  0  0  0  0  0  0  0  0  0  0
    4.3652    1.7514    1.1695 C   0  0  0  0  0  0  0  0  0  0  0  0
    5.2598    1.9602    0.1160 C   0  0  0  0  0  0  0  0  0  0  0  0
    6.5686    1.4842    0.2230 C   0  0  0  0  0  0  0  0  0  0  0  0
    6.9918    0.8065    1.3822 C   0  0  0  0  0  0  0  0  0  0  0  0
    8.4037    0.2789    1.4962 C   0  0  0  0  0  0  0  0  0  0  0  0
    8.4842   -1.0468    1.1979 F   0  0  0  0  0  0  0  0  0  0  0  0
    9.2792    0.9028    0.6611 F   0  0  0  0  0  0  0  0  0  0  0  0
    8.9229    0.4131    2.7471 F   0  0  0  0  0  0  0  0  0  0  0  0
    6.0740    0.5977    2.4272 C   0  0  0  0  0  0  0  0  0  0  0  0
    4.7646    1.0742    2.3267 C   0  0  0  0  0  0  0  0  0  0  0  0
    0.2932    1.1981    1.1664 C   0  0  0  0  0  0  0  0  0  0  0  0
   -0.4127    1.3638   -0.1936 C   0  0  0  0  0  0  0  0  0  0  0  0
   -0.6539   -1.1705   -3.4368 H   0  0  0  0  0  0  0  0  0  0  0  0
   -2.2487   -1.8231   -3.0370 H   0  0  0  0  0  0  0  0  0  0  0  0
   -0.8398   -2.3816   -2.1439 H   0  0  0  0  0  0  0  0  0  0  0  0
   -2.0163    0.4400   -2.1153 H   0  0  0  0  0  0  0  0  0  0  0  0
   -4.1147   -0.4704   -2.7073 H   0  0  0  0  0  0  0  0  0  0  0  0
   -4.1456    0.9942   -1.6959 H   0  0  0  0  0  0  0  0  0  0  0  0
   -6.3945   -0.7912   -2.3831 H   0  0  0  0  0  0  0  0  0  0  0  0
   -6.4461    0.7609   -1.4930 H   0  0  0  0  0  0  0  0  0  0  0  0
   -8.1797   -1.1047   -0.0004 H   0  0  0  0  0  0  0  0  0  0  0  0
   -7.9574   -2.3835    2.1262 H   0  0  0  0  0  0  0  0  0  0  0  0
   -5.7116   -2.9465    3.0178 H   0  0  0  0  0  0  0  0  0  0  0  0
   -3.6696   -2.2548    1.8198 H   0  0  0  0  0  0  0  0  0  0  0  0
    0.4461   -1.3656    0.1150 H   0  0  0  0  0  0  0  0  0  0  0  0
    1.1384   -1.3325   -1.5035 H   0  0  0  0  0  0  0  0  0  0  0  0
    2.7938   -0.7052    0.2042 H   0  0  0  0  0  0  0  0  0  0  0  0
    2.5221    0.5852   -0.9745 H   0  0  0  0  0  0  0  0  0  0  0  0
    4.9502    2.4947   -0.7815 H   0  0  0  0  0  0  0  0  0  0  0  0
    7.2645    1.6571   -0.5971 H   0  0  0  0  0  0  0  0  0  0  0  0
    6.3809    0.0681    3.3307 H   0  0  0  0  0  0  0  0  0  0  0  0
    4.0643    0.9236    3.1478 H   0  0  0  0  0  0  0  0  0  0  0  0
   -0.1293    0.3546    1.7248 H   0  0  0  0  0  0  0  0  0  0  0  0
    0.1097    2.0836    1.7846 H   0  0  0  0  0  0  0  0  0  0  0  0
   -1.4733    1.5743   -0.0157 H   0  0  0  0  0  0  0  0  0  0  0  0
   -0.0160    2.2563   -0.6899 H   0  0  0  0  0  0  0  0  0  0  0  0
  1  2  1  0
  2  3  1  0
  3  4  2  0
  3  5  1  0
  5  6  1  0
  6  7  1  0
  7  8  1  0
  8  9  2  0
  9 10  1  0
 10 11  2  0
 11 12  1  0
 12 13  2  0
  2 14  1  0
 14 15  1  0
 15 16  1  0
 16 17  1  0
 17 18  1  0
 18 19  2  0
 18 20  2  0
 18 21  1  0
 21 22  2  0
 22 23  1  0
 23 24  2  0
 24 25  1  0
 25 26  1  0
 25 27  1  0
 25 28  1  0
 24 29  1  0
 29 30  2  0
 17 31  1  0
 31 32  1  0
 13  5  1  0
 32 14  1  0
 13  8  1  0
 30 21  1  0
  1 33  1  0
  1 34  1  0
  1 35  1  0
  2 36  1  0
  6 37  1  0
  6 38  1  0
  7 39  1  0
  7 40  1  0
  9 41  1  0
 10 42  1  0
 11 43  1  0
 12 44  1  0
 15 45  1  0
 15 46  1  0
 16 47  1  0
 16 48  1  0
 22 49  1  0
 23 50  1  0
 29 51  1  0
 30 52  1  0
 31 53  1  0
 31 54  1  0
 32 55  1  0
 32 56  1  0
M  END
$$$$
