
     RDKit          3D

 56 60  0  0  0  0  0  0  0  0999 V2000
    1.7304    2.7849   -2.3453 C   0  0  0  0  0  0  0  0  0  0  0  0
    1.9238    1.7337   -1.2785 C   0  0  0  0  0  0  0  0  0  0  0  0
    0.8895    1.4087   -0.3600 C   0  0  0  0  0  0  0  0  0  0  0  0
   -0.3659    2.0382   -0.4264 C   0  0  0  0  0  0  0  0  0  0  0  0
   -1.3784    1.7112    0.4608 C   0  0  0  0  0  0  0  0  0  0  0  0
   -1.1762    0.7765    1.4054 N   0  0  0  0  0  4  0  0  0  0  0  0
   -2.2798    0.4253    2.3400 C   0  0  0  0  0  0  0  0  0  0  0  0
   -3.1653   -0.6684    1.7178 C   0  0  0  0  0  0  0  0  0  0  0  0
   -3.8748   -0.2124    0.5082 N   0  0  0  0  0  0  0  0  0  0  0  0
   -5.0606    0.6159    0.8147 C   0  0  0  0  0  0  0  0  0  0  0  0
   -6.3969   -0.0943    0.6101 C   0  0  0  0  0  0  0  0  0  0  0  0
   -6.5500   -0.5917   -0.8253 C   0  0  0  0  0  0  0  0  0  0  0  0
   -5.2124   -0.9962   -1.4418 C   0  0  0  0  0  0  0  0  0  0  0  0
   -4.1926   -1.3607   -0.3666 C   0  0  0  0  0  0  0  0  0  0  0  0
    0.0157    0.1492    1.5023 C   0  0  0  0  0  0  0  0  0  0  0  0
    1.0966    0.4367    0.6477 C   0  0  0  0  0  0  0  0  0  0  0  0
    2.3636   -0.2232    0.7737 C   0  0  0  0  0  0  0  0  0  0  0  0
    2.6119   -1.1950    1.9050 C   0  0  0  0  0  0  0  0  0  0  0  0
    3.3696    0.0348   -0.2018 C   0  0  0  0  0  0  0  0  0  0  0  0
    3.1269    1.0096   -1.1691 C   0  0  0  0  0  0  0  0  0  0  0  0
    4.2661    1.0992   -1.9413 N   0  0  0  0  0  0  0  0  0  0  0  0
    5.2131    0.1906   -1.5529 C   0  0  0  0  0  0  0  0  0  0  0  0
    6.4828   -0.0546   -2.0912 C   0  0  0  0  0  0  0  0  0  0  0  0
    7.2473   -1.0657   -1.5109 C   0  0  0  0  0  0  0  0  0  0  0  0
    6.7483   -1.7960   -0.4445 C   0  0  0  0  0  0  0  0  0  0  0  0
    7.5446   -2.7798    0.0669 O   0  0  0  0  0  0  0  0  0  0  0  0
    5.4798   -1.5422    0.0863 C   0  0  0  0  0  0  0  0  0  0  0  0
    4.6856   -0.5101   -0.4707 C   0  0  0  0  0  0  0  0  0  0  0  0
    2.6336    2.9473   -2.9394 H   0  0  0  0  0  0  0  0  0  0  0  0
    1.4728    3.7462   -1.8885 H   0  0  0  0  0  0  0  0  0  0  0  0
    0.9364    2.4814   -3.0353 H   0  0  0  0  0  0  0  0  0  0  0  0
   -0.5842    2.7908   -1.1811 H   0  0  0  0  0  0  0  0  0  0  0  0
   -2.3562    2.1811    0.4114 H   0  0  0  0  0  0  0  0  0  0  0  0
   -1.8279    0.0713    3.2733 H   0  0  0  0  0  0  0  0  0  0  0  0
   -2.8321    1.3429    2.5692 H   0  0  0  0  0  0  0  0  0  0  0  0
   -2.5066   -1.5089    1.4621 H   0  0  0  0  0  0  0  0  0  0  0  0
   -3.8772   -1.0435    2.4636 H   0  0  0  0  0  0  0  0  0  0  0  0
   -5.0265    1.4902    0.1520 H   0  0  0  0  0  0  0  0  0  0  0  0
   -5.0195    1.0186    1.8336 H   0  0  0  0  0  0  0  0  0  0  0  0
   -7.2257    0.5795    0.8555 H   0  0  0  0  0  0  0  0  0  0  0  0
   -6.4693   -0.9417    1.3038 H   0  0  0  0  0  0  0  0  0  0  0  0
   -7.2424   -1.4419   -0.8353 H   0  0  0  0  0  0  0  0  0  0  0  0
   -7.0085    0.1863   -1.4473 H   0  0  0  0  0  0  0  0  0  0  0  0
   -4.8231   -0.1686   -2.0489 H   0  0  0  0  0  0  0  0  0  0  0  0
   -5.3610   -1.8390   -2.1264 H   0  0  0  0  0  0  0  0  0  0  0  0
   -3.2692   -1.6985   -0.8518 H   0  0  0  0  0  0  0  0  0  0  0  0
   -4.5791   -2.2053    0.2197 H   0  0  0  0  0  0  0  0  0  0  0  0
    0.0763   -0.6060    2.2776 H   0  0  0  0  0  0  0  0  0  0  0  0
    3.6704   -1.2370    2.1677 H   0  0  0  0  0  0  0  0  0  0  0  0
    2.1163   -0.8797    2.8280 H   0  0  0  0  0  0  0  0  0  0  0  0
    2.2654   -2.1945    1.6271 H   0  0  0  0  0  0  0  0  0  0  0  0
    4.3898    1.7324   -2.7175 H   0  0  0  0  0  0  0  0  0  0  0  0
    6.8666    0.5128   -2.9335 H   0  0  0  0  0  0  0  0  0  0  0  0
    8.2376   -1.2879   -1.9011 H   0  0  0  0  0  0  0  0  0  0  0  0
    7.0893   -3.2075    0.8094 H   0  0  0  0  0  0  0  0  0  0  0  0
    5.1114   -2.1448    0.9058 H   0  0  0  0  0  0  0  0  0  0  0  0
  1  2  1  0
  2  3  2  0
  3  4  1  0
  4  5  2  0
  5  6  1  0
  6  7  1  0
  7  8  1  0
  8  9  1  0
  9 10  1  0
 10 11  1  0
 11 12  1  0
 12 13  1  0
 13 14  1  0
  6 15  2  0
 15 16  1  0
 16 17  2  0
 17 18  1  0
 17 19  1  0
 19 20  2  0
 20 21  1  0
 21 22  1  0
 22 23  2  0
 23 24  1  0
 24 25  2  0
 25 26  1  0
 25 27  1  0
 27 28  2  0
 20  2  1  0
 28 22  1  0
 16  3  1  0
 28 19  1  0
 14  9  1  0
  1 29  1  0
  1 30  1  0
  1 31  1  0
  4 32  1  0
  5 33  1  0
  7 34  1  0
  7 35  1  0
  8 36  1  0
  8 37  1  0
 10 38  1  0
 10 39  1  0
 11 40  1  0
 11 41  1  0
 12 42  1  0
 12 43  1  0
 13 44  1  0
 13 45  1  0
 14 46  1  0
 14 47  1  0
 15 48  1  0
 18 49  1  0
 18 50  1  0
 18 51  1  0
 21 52  1  0
 23 53  1  0
 24 54  1  0
 26 55  1  0
 27 56  1  0
M  CHG  1   6   1
M  END
$$$$
