
     RDKit          3D

 64 68  0  0  0  0  0  0  0  0999 V2000
    1.2102    0.5817   -1.6903 O   0  0  0  0  0  0  0  0  0  0  0  0
    1.5252    0.2210   -0.5533 C   0  0  0  0  0  0  0  0  0  0  0  0
    0.7626   -0.9099    0.1563 C   0  0  0  0  0  0  0  0  0  0  0  0
    0.0188   -0.3802    1.3988 C   0  0  0  0  0  0  0  0  0  0  0  0
   -1.4441   -0.0640    1.0991 C   0  0  0  0  0  0  0  0  0  0  0  0
   -2.2296   -1.3141    0.6512 C   0  0  0  0  0  0  0  0  0  0  0  0
   -3.4346   -0.9167   -0.2249 C   0  0  0  0  0  0  0  0  0  0  0  0
   -4.3802   -0.1190    0.5511 N   0  0  0  0  0  0  0  0  0  0  0  0
   -5.4877    0.5429    0.0327 C   0  0  0  0  0  0  0  0  0  0  0  0
   -5.4355    1.0036   -1.2580 N   0  0  0  0  0  0  0  0  0  0  0  0
   -6.4267    1.6851   -1.9121 C   0  0  0  0  0  0  0  0  0  0  0  0
   -6.1216    2.1948   -3.4821 S   0  0  0  0  0  0  0  0  0  0  0  0
   -7.6043    1.9096   -1.2581 N   0  0  0  0  0  0  0  0  0  0  0  0
   -7.6951    1.4990   -0.0331 C   0  0  0  0  0  0  0  0  0  0  0  0
   -8.9723    1.7371    0.6995 C   0  0  0  0  0  0  0  0  0  0  0  0
   -9.1189    1.3465    1.9726 C   0  0  0  0  0  0  0  0  0  0  0  0
   -8.0582    0.6926    2.6988 C   0  0  0  0  0  0  0  0  0  0  0  0
   -6.8766    0.4269    2.1220 C   0  0  0  0  0  0  0  0  0  0  0  0
   -6.6178    0.7870    0.7362 C   0  0  0  0  0  0  0  0  0  0  0  0
   -1.3297   -2.3297   -0.0772 C   0  0  0  0  0  0  0  0  0  0  0  0
   -0.1860   -1.6439   -0.8160 C   0  0  0  0  0  0  0  0  0  0  0  0
    2.5640    0.8412    0.1384 N   0  0  0  0  0  0  0  0  0  0  0  0
    3.3376    1.8587   -0.5827 C   0  0  0  0  0  0  0  0  0  0  0  0
    4.5552    1.2132   -1.2758 C   0  0  0  0  0  0  0  0  0  0  0  0
    5.3820    0.4694   -0.2850 N   0  0  0  0  0  0  0  0  0  0  0  0
    6.6318   -0.0133   -0.7085 C   0  0  0  0  0  0  0  0  0  0  0  0
    7.0134   -0.0966   -2.0582 C   0  0  0  0  0  0  0  0  0  0  0  0
    8.2749   -0.5736   -2.4323 C   0  0  0  0  0  0  0  0  0  0  0  0
    9.1782   -0.9654   -1.4564 C   0  0  0  0  0  0  0  0  0  0  0  0
   10.3876   -1.4174   -1.8122 F   0  0  0  0  0  0  0  0  0  0  0  0
    8.8453   -0.8846   -0.1145 C   0  0  0  0  0  0  0  0  0  0  0  0
    7.5835   -0.4073    0.2521 C   0  0  0  0  0  0  0  0  0  0  0  0
    4.6020   -0.5128    0.5205 C   0  0  0  0  0  0  0  0  0  0  0  0
    3.3712    0.1671    1.1629 C   0  0  0  0  0  0  0  0  0  0  0  0
    1.5038   -1.6503    0.4801 H   0  0  0  0  0  0  0  0  0  0  0  0
    0.0618   -1.1393    2.1908 H   0  0  0  0  0  0  0  0  0  0  0  0
    0.4973    0.5172    1.8072 H   0  0  0  0  0  0  0  0  0  0  0  0
   -1.9177    0.3625    1.9922 H   0  0  0  0  0  0  0  0  0  0  0  0
   -1.4850    0.7147    0.3259 H   0  0  0  0  0  0  0  0  0  0  0  0
   -2.6150   -1.8159    1.5503 H   0  0  0  0  0  0  0  0  0  0  0  0
   -3.0815   -0.3680   -1.1056 H   0  0  0  0  0  0  0  0  0  0  0  0
   -3.9505   -1.8174   -0.5790 H   0  0  0  0  0  0  0  0  0  0  0  0
   -4.5522   -0.5172    1.4694 H   0  0  0  0  0  0  0  0  0  0  0  0
   -4.5774    0.8932   -1.7763 H   0  0  0  0  0  0  0  0  0  0  0  0
   -9.7638    2.2366    0.1532 H   0  0  0  0  0  0  0  0  0  0  0  0
  -10.0544    1.5258    2.4959 H   0  0  0  0  0  0  0  0  0  0  0  0
   -8.2409    0.4260    3.7371 H   0  0  0  0  0  0  0  0  0  0  0  0
   -6.1049   -0.0545    2.7100 H   0  0  0  0  0  0  0  0  0  0  0  0
   -1.9146   -2.9424   -0.7728 H   0  0  0  0  0  0  0  0  0  0  0  0
   -0.9060   -3.0261    0.6587 H   0  0  0  0  0  0  0  0  0  0  0  0
    0.3897   -2.3886   -1.3802 H   0  0  0  0  0  0  0  0  0  0  0  0
   -0.6130   -0.9626   -1.5620 H   0  0  0  0  0  0  0  0  0  0  0  0
    3.6692    2.6021    0.1519 H   0  0  0  0  0  0  0  0  0  0  0  0
    2.7138    2.3780   -1.3173 H   0  0  0  0  0  0  0  0  0  0  0  0
    5.1462    2.0110   -1.7417 H   0  0  0  0  0  0  0  0  0  0  0  0
    4.2047    0.5289   -2.0587 H   0  0  0  0  0  0  0  0  0  0  0  0
    6.3341    0.1919   -2.8548 H   0  0  0  0  0  0  0  0  0  0  0  0
    8.5502   -0.6373   -3.4803 H   0  0  0  0  0  0  0  0  0  0  0  0
    9.5679   -1.1789    0.6396 H   0  0  0  0  0  0  0  0  0  0  0  0
    7.3558   -0.3140    1.3110 H   0  0  0  0  0  0  0  0  0  0  0  0
    5.2004   -0.9491    1.3274 H   0  0  0  0  0  0  0  0  0  0  0  0
    4.2702   -1.3306   -0.1332 H   0  0  0  0  0  0  0  0  0  0  0  0
    3.6987    0.9340    1.8769 H   0  0  0  0  0  0  0  0  0  0  0  0
    2.7885   -0.5668    1.7227 H   0  0  0  0  0  0  0  0  0  0  0  0
  1  2  2  0
  2  3  1  0
  3  4  1  0
  4  5  1  0
  5  6  1  0
  6  7  1  0
  7  8  1  0
  8  9  1  0
  9 10  1  0
 10 11  1  0
 11 12  2  0
 11 13  1  0
 13 14  2  0
 14 15  1  0
 15 16  2  0
 16 17  1  0
 17 18  2  0
 18 19  1  0
  6 20  1  0
 20 21  1  0
  2 22  1  0
 22 23  1  0
 23 24  1  0
 24 25  1  0
 25 26  1  0
 26 27  2  0
 27 28  1  0
 28 29  2  0
 29 30  1  0
 29 31  1  0
 31 32  2  0
 25 33  1  0
 33 34  1  0
 21  3  1  0
 34 22  1  0
 19  9  2  0
 32 26  1  0
 19 14  1  0
  3 35  1  0
  4 36  1  0
  4 37  1  0
  5 38  1  0
  5 39  1  0
  6 40  1  0
  7 41  1  0
  7 42  1  0
  8 43  1  0
 10 44  1  0
 15 45  1  0
 16 46  1  0
 17 47  1  0
 18 48  1  0
 20 49  1  0
 20 50  1  0
 21 51  1  0
 21 52  1  0
 23 53  1  0
 23 54  1  0
 24 55  1  0
 24 56  1  0
 27 57  1  0
 28 58  1  0
 31 59  1  0
 32 60  1  0
 33 61  1  0
 33 62  1  0
 34 63  1  0
 34 64  1  0
M  END
$$$$
