
     RDKit          3D

 62 65  0  0  0  0  0  0  0  0999 V2000
   -2.1537    2.2497   -2.8159 C   0  0  0  0  0  0  0  0  0  0  0  0
   -2.3351    1.0116   -1.9789 C   0  0  0  0  0  0  0  0  0  0  0  0
   -3.5618    0.3289   -2.1080 C   0  0  0  0  0  0  0  0  0  0  0  0
   -3.8372   -0.8192   -1.3655 C   0  0  0  0  0  0  0  0  0  0  0  0
   -5.0393   -1.4506   -1.5177 O   0  0  0  0  0  0  0  0  0  0  0  0
   -2.9068   -1.3304   -0.4651 C   0  0  0  0  0  0  0  0  0  0  0  0
   -3.1900   -2.5781    0.3566 C   0  0  0  0  0  0  0  0  0  0  0  0
   -3.2014   -2.2696    1.8569 C   0  0  0  0  0  0  0  0  0  0  0  0
   -2.1943   -3.6980    0.0383 C   0  0  0  0  0  0  0  0  0  0  0  0
   -1.6822   -0.6514   -0.3403 C   0  0  0  0  0  0  0  0  0  0  0  0
   -1.3528    0.5077   -1.0942 C   0  0  0  0  0  0  0  0  0  0  0  0
    0.0344    1.1555   -0.8401 C   0  0  0  0  0  0  0  0  0  0  0  0
    1.1792    0.1103   -0.6875 C   0  0  0  0  0  0  0  0  0  0  0  0
    1.9449    0.0472    0.5031 C   0  0  0  0  0  0  0  0  0  0  0  0
    2.9730   -0.8938    0.7062 C   0  0  0  0  0  0  0  0  0  0  0  0
    3.7573   -0.9164    2.0101 C   0  0  0  0  0  0  0  0  0  0  0  0
    2.8482   -1.2099    3.2078 C   0  0  0  0  0  0  0  0  0  0  0  0
    4.5323    0.3878    2.2210 C   0  0  0  0  0  0  0  0  0  0  0  0
    3.2430   -1.7943   -0.3218 C   0  0  0  0  0  0  0  0  0  0  0  0
    4.2292   -2.7253   -0.1561 O   0  0  0  0  0  0  0  0  0  0  0  0
    2.5223   -1.7586   -1.5136 C   0  0  0  0  0  0  0  0  0  0  0  0
    1.5017   -0.8106   -1.7205 C   0  0  0  0  0  0  0  0  0  0  0  0
    0.7674   -0.8754   -3.0375 C   0  0  0  0  0  0  0  0  0  0  0  0
    0.4865    1.9846   -1.9497 O   0  0  0  0  0  0  0  0  0  0  0  0
    0.8529    3.2392   -1.5704 C   0  0  0  0  0  0  0  0  0  0  0  0
    1.3502    4.0950   -2.2737 O   0  0  0  0  0  0  0  0  0  0  0  0
    0.4614    3.3799   -0.1806 C   0  0  0  0  0  0  0  0  0  0  0  0
    0.5298    4.5133    0.6126 C   0  0  0  0  0  0  0  0  0  0  0  0
    0.0310    4.4240    1.9115 C   0  0  0  0  0  0  0  0  0  0  0  0
   -0.5257    3.2215    2.3750 C   0  0  0  0  0  0  0  0  0  0  0  0
   -0.5815    2.0937    1.5484 C   0  0  0  0  0  0  0  0  0  0  0  0
   -0.0671    2.1830    0.2585 C   0  0  0  0  0  0  0  0  0  0  0  0
   -1.3860    2.0902   -3.5784 H   0  0  0  0  0  0  0  0  0  0  0  0
   -1.9037    3.1079   -2.1867 H   0  0  0  0  0  0  0  0  0  0  0  0
   -3.0759    2.5164   -3.3449 H   0  0  0  0  0  0  0  0  0  0  0  0
   -4.3101    0.7109   -2.7987 H   0  0  0  0  0  0  0  0  0  0  0  0
   -5.5634   -0.9760   -2.1827 H   0  0  0  0  0  0  0  0  0  0  0  0
   -4.1856   -2.9640    0.1074 H   0  0  0  0  0  0  0  0  0  0  0  0
   -3.4877   -3.1584    2.4296 H   0  0  0  0  0  0  0  0  0  0  0  0
   -3.9213   -1.4763    2.0873 H   0  0  0  0  0  0  0  0  0  0  0  0
   -2.2196   -1.9449    2.2182 H   0  0  0  0  0  0  0  0  0  0  0  0
   -2.4642   -4.6151    0.5732 H   0  0  0  0  0  0  0  0  0  0  0  0
   -1.1712   -3.4352    0.3282 H   0  0  0  0  0  0  0  0  0  0  0  0
   -2.1899   -3.9241   -1.0338 H   0  0  0  0  0  0  0  0  0  0  0  0
   -0.9524   -1.0469    0.3666 H   0  0  0  0  0  0  0  0  0  0  0  0
    1.7523    0.7467    1.3125 H   0  0  0  0  0  0  0  0  0  0  0  0
    4.5010   -1.7215    1.9776 H   0  0  0  0  0  0  0  0  0  0  0  0
    2.2962   -2.1447    3.0600 H   0  0  0  0  0  0  0  0  0  0  0  0
    3.4408   -1.3116    4.1235 H   0  0  0  0  0  0  0  0  0  0  0  0
    2.1164   -0.4124    3.3748 H   0  0  0  0  0  0  0  0  0  0  0  0
    5.1905    0.5935    1.3694 H   0  0  0  0  0  0  0  0  0  0  0  0
    3.8655    1.2482    2.3432 H   0  0  0  0  0  0  0  0  0  0  0  0
    5.1563    0.3229    3.1190 H   0  0  0  0  0  0  0  0  0  0  0  0
    4.3116   -3.2447   -0.9720 H   0  0  0  0  0  0  0  0  0  0  0  0
    2.7482   -2.4736   -2.3012 H   0  0  0  0  0  0  0  0  0  0  0  0
    1.3490   -1.4286   -3.7841 H   0  0  0  0  0  0  0  0  0  0  0  0
   -0.1875   -1.3942   -2.9155 H   0  0  0  0  0  0  0  0  0  0  0  0
    0.6002    0.1150   -3.4652 H   0  0  0  0  0  0  0  0  0  0  0  0
    0.9474    5.4389    0.2288 H   0  0  0  0  0  0  0  0  0  0  0  0
    0.0635    5.2921    2.5662 H   0  0  0  0  0  0  0  0  0  0  0  0
   -0.9202    3.1679    3.3880 H   0  0  0  0  0  0  0  0  0  0  0  0
   -1.0160    1.1701    1.9209 H   0  0  0  0  0  0  0  0  0  0  0  0
  1  2  1  0
  2  3  2  0
  3  4  1  0
  4  5  1  0
  4  6  2  0
  6  7  1  0
  7  8  1  0
  7  9  1  0
  6 10  1  0
 10 11  2  0
 11 12  1  0
 12 13  1  0
 13 14  2  0
 14 15  1  0
 15 16  1  0
 16 17  1  0
 16 18  1  0
 15 19  2  0
 19 20  1  0
 19 21  1  0
 21 22  2  0
 22 23  1  0
 12 24  1  0
 24 25  1  0
 25 26  2  0
 25 27  1  0
 27 28  2  0
 28 29  1  0
 29 30  2  0
 30 31  1  0
 31 32  2  0
 11  2  1  0
 32 12  1  0
 22 13  1  0
 32 27  1  0
  1 33  1  0
  1 34  1  0
  1 35  1  0
  3 36  1  0
  5 37  1  0
  7 38  1  0
  8 39  1  0
  8 40  1  0
  8 41  1  0
  9 42  1  0
  9 43  1  0
  9 44  1  0
 10 45  1  0
 14 46  1  0
 16 47  1  0
 17 48  1  0
 17 49  1  0
 17 50  1  0
 18 51  1  0
 18 52  1  0
 18 53  1  0
 20 54  1  0
 21 55  1  0
 23 56  1  0
 23 57  1  0
 23 58  1  0
 28 59  1  0
 29 60  1  0
 30 61  1  0
 31 62  1  0
M  END
$$$$
