
     RDKit          3D

 66 68  0  0  0  0  0  0  0  0999 V2000
   -8.0112   -0.6110   -1.2575 C   0  0  0  0  0  0  0  0  0  0  0  0
   -7.2644   -1.6078   -0.3888 C   0  0  0  0  0  0  0  0  0  0  0  0
   -5.9277   -1.1362   -0.2316 O   0  0  0  0  0  0  0  0  0  0  0  0
   -5.0803   -1.8566    0.5732 C   0  0  0  0  0  0  0  0  0  0  0  0
   -5.4165   -3.0730    1.1801 C   0  0  0  0  0  0  0  0  0  0  0  0
   -4.4915   -3.7448    1.9823 C   0  0  0  0  0  0  0  0  0  0  0  0
   -3.2227   -3.2115    2.1813 C   0  0  0  0  0  0  0  0  0  0  0  0
   -2.8755   -2.0011    1.5807 C   0  0  0  0  0  0  0  0  0  0  0  0
   -3.7972   -1.3036    0.7815 C   0  0  0  0  0  0  0  0  0  0  0  0
   -3.4132   -0.0395    0.1188 C   0  0  0  0  0  0  0  0  0  0  0  0
   -2.6385    0.9037    0.6781 C   0  0  0  0  0  0  0  0  0  0  0  0
   -2.3323    2.1083   -0.0212 C   0  0  0  0  0  0  0  0  0  0  0  0
   -3.0827    2.5579   -1.0875 O   0  0  0  0  0  0  0  0  0  0  0  0
   -2.6046    3.7539   -1.5645 N   0  0  0  0  0  0  0  0  0  0  0  0
   -1.5516    4.0608   -0.8029 C   0  0  0  0  0  0  0  0  0  0  0  0
   -0.8215    5.3253   -1.0614 C   0  0  0  0  0  0  0  0  0  0  0  0
   -1.3236    3.0460    0.1567 C   0  0  0  0  0  0  0  0  0  0  0  0
   -0.0318    2.9757    1.2819 S   0  0  0  0  0  6  0  0  0  0  0  0
    0.5582    4.2956    1.2598 O   0  0  0  0  0  0  0  0  0  0  0  0
   -0.6268    2.4439    2.4882 O   0  0  0  0  0  0  0  0  0  0  0  0
    1.1230    1.8748    0.7130 N   0  0  0  0  0  0  0  0  0  0  0  0
    0.8351    0.4387    0.8160 C   0  0  0  0  0  0  0  0  0  0  0  0
    2.1384   -0.3461    0.7123 C   0  0  0  0  0  0  0  0  0  0  0  0
    2.8969   -0.0741   -0.5984 C   0  0  0  0  0  0  0  0  0  0  0  0
    4.3894    0.1414   -0.3138 C   0  0  0  0  0  0  0  0  0  0  0  0
    4.8724    1.2752   -0.3596 O   0  0  0  0  0  0  0  0  0  0  0  0
    5.1643   -0.9628    0.0428 N   0  0  0  0  0  0  0  0  0  0  0  0
    6.5536   -0.7055    0.4353 C   0  0  0  0  0  0  0  0  0  0  0  0
    7.5022   -0.5334   -0.7410 C   0  0  0  0  0  0  0  0  0  0  0  0
    4.7669   -2.3592   -0.1574 C   0  0  0  0  0  0  0  0  0  0  0  0
    4.9867   -2.8466   -1.5816 C   0  0  0  0  0  0  0  0  0  0  0  0
    2.3081    1.1311   -1.3523 C   0  0  0  0  0  0  0  0  0  0  0  0
    1.9624    2.2994   -0.4310 C   0  0  0  0  0  0  0  0  0  0  0  0
   -8.0079    0.3816   -0.7948 H   0  0  0  0  0  0  0  0  0  0  0  0
   -7.5249   -0.5096   -2.2333 H   0  0  0  0  0  0  0  0  0  0  0  0
   -9.0469   -0.9257   -1.4100 H   0  0  0  0  0  0  0  0  0  0  0  0
   -7.7631   -1.6765    0.5851 H   0  0  0  0  0  0  0  0  0  0  0  0
   -7.2651   -2.5854   -0.8844 H   0  0  0  0  0  0  0  0  0  0  0  0
   -6.3925   -3.5281    1.0478 H   0  0  0  0  0  0  0  0  0  0  0  0
   -4.7643   -4.6883    2.4490 H   0  0  0  0  0  0  0  0  0  0  0  0
   -2.5015   -3.7383    2.8006 H   0  0  0  0  0  0  0  0  0  0  0  0
   -1.8729   -1.6147    1.7402 H   0  0  0  0  0  0  0  0  0  0  0  0
   -3.8340    0.1024   -0.8757 H   0  0  0  0  0  0  0  0  0  0  0  0
   -2.2537    0.7731    1.6846 H   0  0  0  0  0  0  0  0  0  0  0  0
   -1.2688    5.8819   -1.8932 H   0  0  0  0  0  0  0  0  0  0  0  0
   -0.8503    5.9768   -0.1815 H   0  0  0  0  0  0  0  0  0  0  0  0
    0.2222    5.1265   -1.3243 H   0  0  0  0  0  0  0  0  0  0  0  0
    0.1392    0.1297    0.0297 H   0  0  0  0  0  0  0  0  0  0  0  0
    0.3769    0.2073    1.7829 H   0  0  0  0  0  0  0  0  0  0  0  0
    2.7679   -0.1079    1.5799 H   0  0  0  0  0  0  0  0  0  0  0  0
    1.9029   -1.4138    0.7880 H   0  0  0  0  0  0  0  0  0  0  0  0
    2.7975   -0.9331   -1.2710 H   0  0  0  0  0  0  0  0  0  0  0  0
    6.5748    0.2102    1.0392 H   0  0  0  0  0  0  0  0  0  0  0  0
    6.8973   -1.5151    1.0883 H   0  0  0  0  0  0  0  0  0  0  0  0
    7.1375    0.2167   -1.4491 H   0  0  0  0  0  0  0  0  0  0  0  0
    7.6382   -1.4719   -1.2856 H   0  0  0  0  0  0  0  0  0  0  0  0
    8.4878   -0.2145   -0.3842 H   0  0  0  0  0  0  0  0  0  0  0  0
    5.3188   -2.9903    0.5481 H   0  0  0  0  0  0  0  0  0  0  0  0
    3.7109   -2.4756    0.0925 H   0  0  0  0  0  0  0  0  0  0  0  0
    4.5698   -3.8515   -1.7034 H   0  0  0  0  0  0  0  0  0  0  0  0
    4.5104   -2.1869   -2.3128 H   0  0  0  0  0  0  0  0  0  0  0  0
    6.0504   -2.9006   -1.8255 H   0  0  0  0  0  0  0  0  0  0  0  0
    1.3941    0.8075   -1.8681 H   0  0  0  0  0  0  0  0  0  0  0  0
    2.9911    1.4733   -2.1387 H   0  0  0  0  0  0  0  0  0  0  0  0
    2.8680    2.7663   -0.0313 H   0  0  0  0  0  0  0  0  0  0  0  0
    1.4463    3.0557   -1.0302 H   0  0  0  0  0  0  0  0  0  0  0  0
  1  2  1  0
  2  3  1  0
  3  4  1  0
  4  5  2  0
  5  6  1  0
  6  7  2  0
  7  8  1  0
  8  9  2  0
  9 10  1  0
 10 11  2  3
 11 12  1  0
 12 13  1  0
 13 14  1  0
 14 15  2  0
 15 16  1  0
 15 17  1  0
 17 18  1  0
 18 19  2  0
 18 20  2  0
 18 21  1  0
 21 22  1  0
 22 23  1  0
 23 24  1  0
 24 25  1  0
 25 26  2  0
 25 27  1  0
 27 28  1  0
 28 29  1  0
 27 30  1  0
 30 31  1  0
 24 32  1  0
 32 33  1  0
  9  4  1  0
 17 12  2  0
 33 21  1  0
  1 34  1  0
  1 35  1  0
  1 36  1  0
  2 37  1  0
  2 38  1  0
  5 39  1  0
  6 40  1  0
  7 41  1  0
  8 42  1  0
 10 43  1  0
 11 44  1  0
 16 45  1  0
 16 46  1  0
 16 47  1  0
 22 48  1  0
 22 49  1  0
 23 50  1  0
 23 51  1  0
 24 52  1  0
 28 53  1  0
 28 54  1  0
 29 55  1  0
 29 56  1  0
 29 57  1  0
 30 58  1  0
 30 59  1  0
 31 60  1  0
 31 61  1  0
 31 62  1  0
 32 63  1  0
 32 64  1  0
 33 65  1  0
 33 66  1  0
M  END
$$$$
