
     RDKit          3D

 37 39  0  0  0  0  0  0  0  0999 V2000
   -4.3226    1.3713    1.9403 C   0  0  0  0  0  0  0  0  0  0  0  0
   -4.1390    0.6602    0.6325 C   0  0  0  0  0  0  0  0  0  0  0  0
   -5.1721    0.4333   -0.1920 C   0  0  0  0  0  0  0  0  0  0  0  0
   -5.0441   -0.2584   -1.4842 C   0  0  0  0  0  0  0  0  0  0  0  0
   -6.0256   -0.4385   -2.1959 O   0  0  0  0  0  0  0  0  0  0  0  0
   -3.7779   -0.6855   -1.8420 O   0  0  0  0  0  0  0  0  0  0  0  0
   -2.6720   -0.4635   -0.9991 C   0  0  0  0  0  0  0  0  0  0  0  0
   -1.4403   -0.9342   -1.4561 C   0  0  0  0  0  0  0  0  0  0  0  0
   -0.2985   -0.7607   -0.6764 C   0  0  0  0  0  0  0  0  0  0  0  0
    0.8499   -1.2502   -1.2297 O   0  0  0  0  0  0  0  0  0  0  0  0
    1.9951   -1.4462   -0.3869 C   0  0  0  0  0  0  0  0  0  0  0  0
    2.8103   -2.6059   -0.9751 C   0  0  0  0  0  0  0  0  0  0  0  0
    2.6545   -3.1626   -2.0517 O   0  0  0  0  0  0  0  0  0  0  0  0
    3.7911   -3.0386   -0.1456 O   0  0  0  0  0  0  0  0  0  0  0  0
    2.8457   -0.1870   -0.2982 C   0  0  0  0  0  0  0  0  0  0  0  0
    3.5356    0.1133    0.8877 C   0  0  0  0  0  0  0  0  0  0  0  0
    4.3298    1.2577    0.9768 C   0  0  0  0  0  0  0  0  0  0  0  0
    4.4495    2.1113   -0.1178 C   0  0  0  0  0  0  0  0  0  0  0  0
    3.7797    1.8201   -1.3042 C   0  0  0  0  0  0  0  0  0  0  0  0
    2.9858    0.6760   -1.3967 C   0  0  0  0  0  0  0  0  0  0  0  0
   -0.4067   -0.0970    0.5452 C   0  0  0  0  0  0  0  0  0  0  0  0
   -1.6518    0.3729    0.9921 C   0  0  0  0  0  0  0  0  0  0  0  0
   -2.8076    0.1929    0.2241 C   0  0  0  0  0  0  0  0  0  0  0  0
   -3.7292    2.2913    1.9695 H   0  0  0  0  0  0  0  0  0  0  0  0
   -5.3680    1.6552    2.1061 H   0  0  0  0  0  0  0  0  0  0  0  0
   -4.0251    0.7302    2.7769 H   0  0  0  0  0  0  0  0  0  0  0  0
   -6.1802    0.7519    0.0487 H   0  0  0  0  0  0  0  0  0  0  0  0
   -1.3733   -1.4381   -2.4169 H   0  0  0  0  0  0  0  0  0  0  0  0
    1.6670   -1.7849    0.6051 H   0  0  0  0  0  0  0  0  0  0  0  0
    4.2264   -3.7506   -0.6612 H   0  0  0  0  0  0  0  0  0  0  0  0
    3.4658   -0.5482    1.7490 H   0  0  0  0  0  0  0  0  0  0  0  0
    4.8603    1.4811    1.8989 H   0  0  0  0  0  0  0  0  0  0  0  0
    5.0690    3.0017   -0.0487 H   0  0  0  0  0  0  0  0  0  0  0  0
    3.8760    2.4830   -2.1604 H   0  0  0  0  0  0  0  0  0  0  0  0
    2.4722    0.4630   -2.3332 H   0  0  0  0  0  0  0  0  0  0  0  0
    0.4581    0.0953    1.1717 H   0  0  0  0  0  0  0  0  0  0  0  0
   -1.6878    0.8881    1.9488 H   0  0  0  0  0  0  0  0  0  0  0  0
  1  2  1  0
  2  3  2  0
  3  4  1  0
  4  5  2  0
  4  6  1  0
  6  7  1  0
  7  8  2  0
  8  9  1  0
  9 10  1  0
 10 11  1  0
 11 12  1  0
 12 13  2  0
 12 14  1  0
 11 15  1  0
 15 16  2  0
 16 17  1  0
 17 18  2  0
 18 19  1  0
 19 20  2  0
  9 21  2  0
 21 22  1  0
 22 23  2  0
 23  2  1  0
 23  7  1  0
 20 15  1  0
  1 24  1  0
  1 25  1  0
  1 26  1  0
  3 27  1  0
  8 28  1  0
 11 29  1  0
 14 30  1  0
 16 31  1  0
 17 32  1  0
 18 33  1  0
 19 34  1  0
 20 35  1  0
 21 36  1  0
 22 37  1  0
M  END
$$$$
