
     RDKit          3D

 57 61  0  0  0  0  0  0  0  0999 V2000
    7.2897   -2.2161   -3.3490 C   0  0  0  0  0  0  0  0  0  0  0  0
    6.9240   -2.7231   -2.0717 O   0  0  0  0  0  0  0  0  0  0  0  0
    6.2002   -1.8914   -1.2623 C   0  0  0  0  0  0  0  0  0  0  0  0
    5.7815   -0.5992   -1.5766 C   0  0  0  0  0  0  0  0  0  0  0  0
    5.0425    0.1449   -0.6503 C   0  0  0  0  0  0  0  0  0  0  0  0
    4.7173   -0.3898    0.6041 C   0  0  0  0  0  0  0  0  0  0  0  0
    3.8974    0.4118    1.5804 C   0  0  0  0  0  0  0  0  0  0  0  0
    2.4900    0.2939    1.2713 N   0  0  0  0  0  0  0  0  0  0  0  0
    1.8077    1.2832    0.6072 C   0  0  0  0  0  0  0  0  0  0  0  0
    2.2982    2.3761    0.3371 O   0  0  0  0  0  0  0  0  0  0  0  0
    0.3855    0.9910    0.2671 C   0  0  0  0  0  0  0  0  0  0  0  0
   -0.0408   -0.2523   -0.0135 C   0  0  0  0  0  0  0  0  0  0  0  0
   -1.4246   -0.5586   -0.3465 C   0  0  0  0  0  0  0  0  0  0  0  0
   -1.8104   -1.9721   -0.6212 C   0  0  0  0  0  0  0  0  0  0  0  0
   -0.9609   -2.8629   -0.5422 O   0  0  0  0  0  0  0  0  0  0  0  0
   -3.1362   -2.1888   -0.9477 N   0  0  0  0  0  0  0  0  0  0  0  0
   -3.5716   -3.4796   -1.2295 C   0  0  0  0  0  0  0  0  0  0  0  0
   -4.8463   -3.7400   -1.5447 C   0  0  0  0  0  0  0  0  0  0  0  0
   -5.8036   -2.6679   -1.5981 C   0  0  0  0  0  0  0  0  0  0  0  0
   -5.4281   -1.4113   -1.3320 C   0  0  0  0  0  0  0  0  0  0  0  0
   -4.0097   -1.1186   -0.9784 C   0  0  0  0  0  0  0  0  0  0  0  0
   -3.6771    0.1052   -0.7219 N   0  0  0  0  0  0  0  0  0  0  0  0
   -2.3721    0.4053   -0.3989 C   0  0  0  0  0  0  0  0  0  0  0  0
   -1.9878    1.7398   -0.1246 N   0  0  0  0  0  0  0  0  0  0  0  0
   -3.0051    2.8037   -0.0907 C   0  0  0  0  0  0  0  0  0  0  0  0
   -3.5966    2.9581    1.2890 C   0  0  0  0  0  0  0  0  0  0  0  0
   -4.7541    2.2753    1.6760 C   0  0  0  0  0  0  0  0  0  0  0  0
   -5.2597    2.4406    2.9620 C   0  0  0  0  0  0  0  0  0  0  0  0
   -4.5866    3.2867    3.8266 C   0  0  0  0  0  0  0  0  0  0  0  0
   -3.4649    3.9593    3.4956 N   0  0  0  0  0  0  0  0  0  0  0  0
   -2.9934    3.7771    2.2387 C   0  0  0  0  0  0  0  0  0  0  0  0
   -0.6534    2.0810    0.1401 C   0  0  0  0  0  0  0  0  0  0  0  0
   -0.3128    3.3337    0.2710 N   0  0  0  0  0  0  0  0  0  0  0  0
    5.1325   -1.6906    0.9105 C   0  0  0  0  0  0  0  0  0  0  0  0
    5.8706   -2.4306   -0.0167 C   0  0  0  0  0  0  0  0  0  0  0  0
    7.9332   -1.3350   -3.2550 H   0  0  0  0  0  0  0  0  0  0  0  0
    7.8625   -2.9926   -3.8652 H   0  0  0  0  0  0  0  0  0  0  0  0
    6.4044   -1.9974   -3.9552 H   0  0  0  0  0  0  0  0  0  0  0  0
    6.0084   -0.1388   -2.5322 H   0  0  0  0  0  0  0  0  0  0  0  0
    4.7155    1.1502   -0.9138 H   0  0  0  0  0  0  0  0  0  0  0  0
    4.0404    0.0375    2.6001 H   0  0  0  0  0  0  0  0  0  0  0  0
    4.2162    1.4601    1.5731 H   0  0  0  0  0  0  0  0  0  0  0  0
    2.0443   -0.5818    1.5011 H   0  0  0  0  0  0  0  0  0  0  0  0
    0.6471   -1.0934   -0.0228 H   0  0  0  0  0  0  0  0  0  0  0  0
   -2.8304   -4.2739   -1.1836 H   0  0  0  0  0  0  0  0  0  0  0  0
   -5.1770   -4.7503   -1.7636 H   0  0  0  0  0  0  0  0  0  0  0  0
   -6.8307   -2.9023   -1.8592 H   0  0  0  0  0  0  0  0  0  0  0  0
   -6.1173   -0.5769   -1.3636 H   0  0  0  0  0  0  0  0  0  0  0  0
   -3.8085    2.6031   -0.8121 H   0  0  0  0  0  0  0  0  0  0  0  0
   -2.5977    3.7663   -0.4263 H   0  0  0  0  0  0  0  0  0  0  0  0
   -5.2607    1.6127    0.9793 H   0  0  0  0  0  0  0  0  0  0  0  0
   -6.1555    1.9215    3.2822 H   0  0  0  0  0  0  0  0  0  0  0  0
   -4.9412    3.4501    4.8399 H   0  0  0  0  0  0  0  0  0  0  0  0
   -2.0842    4.3294    2.0102 H   0  0  0  0  0  0  0  0  0  0  0  0
    0.7095    3.4159    0.4172 H   0  0  0  0  0  0  0  0  0  0  0  0
    4.8884   -2.1393    1.8703 H   0  0  0  0  0  0  0  0  0  0  0  0
    6.1918   -3.4392    0.2327 H   0  0  0  0  0  0  0  0  0  0  0  0
  1  2  1  0
  2  3  1  0
  3  4  2  0
  4  5  1  0
  5  6  2  0
  6  7  1  0
  7  8  1  0
  8  9  1  0
  9 10  2  0
  9 11  1  0
 11 12  2  0
 12 13  1  0
 13 14  1  0
 14 15  2  0
 14 16  1  0
 16 17  1  0
 17 18  2  0
 18 19  1  0
 19 20  2  0
 20 21  1  0
 21 22  2  0
 22 23  1  0
 23 24  1  0
 24 25  1  0
 25 26  1  0
 26 27  2  0
 27 28  1  0
 28 29  2  0
 29 30  1  0
 30 31  2  0
 24 32  1  0
 32 33  2  3
  6 34  1  0
 34 35  2  0
 35  3  1  0
 32 11  1  0
 23 13  2  0
 31 26  1  0
 21 16  1  0
  1 36  1  0
  1 37  1  0
  1 38  1  0
  4 39  1  0
  5 40  1  0
  7 41  1  0
  7 42  1  0
  8 43  1  0
 12 44  1  0
 17 45  1  0
 18 46  1  0
 19 47  1  0
 20 48  1  0
 25 49  1  0
 25 50  1  0
 27 51  1  0
 28 52  1  0
 29 53  1  0
 31 54  1  0
 33 55  1  0
 34 56  1  0
 35 57  1  0
M  END
$$$$
