
     RDKit          3D

 61 61  0  0  0  0  0  0  0  0999 V2000
    7.0932    3.9074    0.7739 C   0  0  0  0  0  0  0  0  0  0  0  0
    5.7929    3.2518    1.2122 C   0  0  0  0  0  0  0  0  0  0  0  0
    5.9592    1.7914    1.6384 C   0  0  0  0  0  0  0  0  0  0  0  0
    6.4995    0.8443    0.5621 C   0  0  0  0  0  0  0  0  0  0  0  0
    5.6954    0.7901   -0.7403 C   0  0  0  0  0  0  0  0  0  0  0  0
    4.2494    0.3272   -0.5436 C   0  0  0  0  0  0  0  0  0  0  0  0
    3.5305    0.1818   -1.8876 C   0  0  0  0  0  0  0  0  0  0  0  0
    2.0433   -0.1618   -1.7521 C   0  0  0  0  0  0  0  0  0  0  0  0
    1.7931   -1.5565   -1.1723 C   0  0  0  0  0  0  0  0  0  0  0  0
    0.3048   -1.9037   -1.0463 C   0  0  0  0  0  0  0  0  0  0  0  0
   -0.4048   -2.0308   -2.3947 C   0  0  0  0  0  0  0  0  0  0  0  0
   -1.8211   -2.6118   -2.3036 C   0  0  0  0  0  0  0  0  0  0  0  0
   -2.8187   -1.7369   -1.5349 C   0  0  0  0  0  0  0  0  0  0  0  0
   -3.0150   -2.1922   -0.0855 C   0  0  0  0  0  0  0  0  0  0  0  0
   -3.8960   -1.2445    0.7318 C   0  0  0  0  0  0  0  0  0  0  0  0
   -5.3294   -1.1494    0.2189 C   0  0  0  0  0  0  0  0  0  0  0  0
   -6.1521   -0.3335    1.1178 N   0  0  0  0  0  0  0  0  0  0  0  0
   -6.9952   -0.8086    2.1099 C   0  0  0  0  0  0  0  0  0  0  0  0
   -7.5646    0.2842    2.6999 C   0  0  0  0  0  0  0  0  0  0  0  0
   -7.0515    1.3984    2.0567 N   0  0  0  0  0  4  0  0  0  0  0  0
   -7.3857    2.7851    2.3534 C   0  0  0  0  0  0  0  0  0  0  0  0
   -6.2014    1.0073    1.0960 C   0  0  0  0  0  0  0  0  0  0  0  0
    6.9287    4.9713    0.5746 H   0  0  0  0  0  0  0  0  0  0  0  0
    7.4816    3.4550   -0.1434 H   0  0  0  0  0  0  0  0  0  0  0  0
    7.8578    3.8232    1.5527 H   0  0  0  0  0  0  0  0  0  0  0  0
    5.0521    3.3343    0.4095 H   0  0  0  0  0  0  0  0  0  0  0  0
    5.3896    3.8145    2.0629 H   0  0  0  0  0  0  0  0  0  0  0  0
    6.6358    1.7504    2.5015 H   0  0  0  0  0  0  0  0  0  0  0  0
    4.9927    1.4196    1.9988 H   0  0  0  0  0  0  0  0  0  0  0  0
    7.5335    1.1198    0.3223 H   0  0  0  0  0  0  0  0  0  0  0  0
    6.5501   -0.1658    0.9883 H   0  0  0  0  0  0  0  0  0  0  0  0
    6.2028    0.0961   -1.4224 H   0  0  0  0  0  0  0  0  0  0  0  0
    5.7097    1.7692   -1.2325 H   0  0  0  0  0  0  0  0  0  0  0  0
    3.7057    1.0477    0.0773 H   0  0  0  0  0  0  0  0  0  0  0  0
    4.2503   -0.6303   -0.0116 H   0  0  0  0  0  0  0  0  0  0  0  0
    3.6121    1.1272   -2.4386 H   0  0  0  0  0  0  0  0  0  0  0  0
    4.0302   -0.5820   -2.4957 H   0  0  0  0  0  0  0  0  0  0  0  0
    1.5461    0.5933   -1.1314 H   0  0  0  0  0  0  0  0  0  0  0  0
    1.5975   -0.0949   -2.7508 H   0  0  0  0  0  0  0  0  0  0  0  0
    2.2331   -1.6219   -0.1709 H   0  0  0  0  0  0  0  0  0  0  0  0
    2.2956   -2.3110   -1.7895 H   0  0  0  0  0  0  0  0  0  0  0  0
    0.2230   -2.8555   -0.5074 H   0  0  0  0  0  0  0  0  0  0  0  0
   -0.1881   -1.1411   -0.4327 H   0  0  0  0  0  0  0  0  0  0  0  0
   -0.4560   -1.0521   -2.8854 H   0  0  0  0  0  0  0  0  0  0  0  0
    0.1861   -2.6814   -3.0514 H   0  0  0  0  0  0  0  0  0  0  0  0
   -1.7877   -3.6253   -1.8866 H   0  0  0  0  0  0  0  0  0  0  0  0
   -2.1891   -2.7160   -3.3327 H   0  0  0  0  0  0  0  0  0  0  0  0
   -3.7848   -1.8032   -2.0497 H   0  0  0  0  0  0  0  0  0  0  0  0
   -2.5153   -0.6841   -1.5705 H   0  0  0  0  0  0  0  0  0  0  0  0
   -3.4537   -3.1976   -0.0747 H   0  0  0  0  0  0  0  0  0  0  0  0
   -2.0465   -2.2710    0.4186 H   0  0  0  0  0  0  0  0  0  0  0  0
   -3.4455   -0.2447    0.7532 H   0  0  0  0  0  0  0  0  0  0  0  0
   -3.9117   -1.5943    1.7716 H   0  0  0  0  0  0  0  0  0  0  0  0
   -5.7825   -2.1440    0.1397 H   0  0  0  0  0  0  0  0  0  0  0  0
   -5.3676   -0.6851   -0.7725 H   0  0  0  0  0  0  0  0  0  0  0  0
   -7.0804   -1.8701    2.2668 H   0  0  0  0  0  0  0  0  0  0  0  0
   -8.2724    0.4164    3.5001 H   0  0  0  0  0  0  0  0  0  0  0  0
   -7.5194    2.9083    3.4315 H   0  0  0  0  0  0  0  0  0  0  0  0
   -6.5770    3.4383    2.0152 H   0  0  0  0  0  0  0  0  0  0  0  0
   -8.3107    3.0437    1.8316 H   0  0  0  0  0  0  0  0  0  0  0  0
   -5.6512    1.6559    0.4240 H   0  0  0  0  0  0  0  0  0  0  0  0
  1  2  1  0
  2  3  1  0
  3  4  1  0
  4  5  1  0
  5  6  1  0
  6  7  1  0
  7  8  1  0
  8  9  1  0
  9 10  1  0
 10 11  1  0
 11 12  1  0
 12 13  1  0
 13 14  1  0
 14 15  1  0
 15 16  1  0
 16 17  1  0
 17 18  1  0
 18 19  2  0
 19 20  1  0
 20 21  1  0
 20 22  2  0
 22 17  1  0
  1 23  1  0
  1 24  1  0
  1 25  1  0
  2 26  1  0
  2 27  1  0
  3 28  1  0
  3 29  1  0
  4 30  1  0
  4 31  1  0
  5 32  1  0
  5 33  1  0
  6 34  1  0
  6 35  1  0
  7 36  1  0
  7 37  1  0
  8 38  1  0
  8 39  1  0
  9 40  1  0
  9 41  1  0
 10 42  1  0
 10 43  1  0
 11 44  1  0
 11 45  1  0
 12 46  1  0
 12 47  1  0
 13 48  1  0
 13 49  1  0
 14 50  1  0
 14 51  1  0
 15 52  1  0
 15 53  1  0
 16 54  1  0
 16 55  1  0
 18 56  1  0
 19 57  1  0
 21 58  1  0
 21 59  1  0
 21 60  1  0
 22 61  1  0
M  CHG  1  20   1
M  END
$$$$
