
     RDKit          3D

 53 56  0  0  0  0  0  0  0  0999 V2000
    0.0422    2.3629   -1.9411 C   0  0  0  0  0  0  0  0  0  0  0  0
   -0.5636    1.0695   -1.4634 C   0  0  0  0  0  0  0  0  0  0  0  0
    0.0121   -0.1745   -1.7698 C   0  0  0  0  0  0  0  0  0  0  0  0
    1.1407   -0.1399   -2.5432 O   0  0  0  0  0  0  0  0  0  0  0  0
    1.7840   -1.3627   -2.8968 C   0  0  0  0  0  0  0  0  0  0  0  0
    2.7699   -1.0353   -4.0141 C   0  0  0  0  0  0  0  0  0  0  0  0
    2.5645   -1.9949   -1.7330 C   0  0  0  0  0  0  0  0  0  0  0  0
    2.6339   -3.2131   -1.5777 O   0  0  0  0  0  0  0  0  0  0  0  0
    3.2028   -1.0936   -0.9136 N   0  0  0  0  0  0  0  0  0  0  0  0
    4.1252   -1.5302    0.1096 C   0  0  0  0  0  0  0  0  0  0  0  0
    4.5593   -0.3807    0.9853 C   0  0  0  0  0  0  0  0  0  0  0  0
    3.8060   -0.0117    2.0987 C   0  0  0  0  0  0  0  0  0  0  0  0
    4.2229    1.0816    2.8584 C   0  0  0  0  0  0  0  0  0  0  0  0
    5.3688    1.7752    2.4849 C   0  0  0  0  0  0  0  0  0  0  0  0
    6.0491    1.3554    1.3547 C   0  0  0  0  0  0  0  0  0  0  0  0
    5.6672    0.3033    0.5953 N   0  0  0  0  0  0  0  0  0  0  0  0
   -0.5757   -1.3389   -1.2715 C   0  0  0  0  0  0  0  0  0  0  0  0
   -1.7270   -1.2776   -0.4731 C   0  0  0  0  0  0  0  0  0  0  0  0
   -2.3210   -0.0532   -0.1533 C   0  0  0  0  0  0  0  0  0  0  0  0
   -3.5320    0.0716    0.6748 C   0  0  0  0  0  0  0  0  0  0  0  0
   -3.9920    1.2982    0.9897 C   0  0  0  0  0  0  0  0  0  0  0  0
   -3.3432    2.5338    0.4868 C   0  0  0  0  0  0  0  0  0  0  0  0
   -3.7697    3.6503    0.7652 O   0  0  0  0  0  0  0  0  0  0  0  0
   -2.2340    2.3698   -0.3223 O   0  0  0  0  0  0  0  0  0  0  0  0
   -1.7120    1.0991   -0.6466 C   0  0  0  0  0  0  0  0  0  0  0  0
   -5.1930    1.5295    1.8739 C   0  0  0  0  0  0  0  0  0  0  0  0
   -5.6605    0.2757    2.6152 C   0  0  0  0  0  0  0  0  0  0  0  0
   -5.6471   -0.9308    1.6887 C   0  0  0  0  0  0  0  0  0  0  0  0
   -4.2382   -1.1822    1.1432 C   0  0  0  0  0  0  0  0  0  0  0  0
    0.7618    2.2173   -2.7539 H   0  0  0  0  0  0  0  0  0  0  0  0
   -0.7336    3.0307   -2.3306 H   0  0  0  0  0  0  0  0  0  0  0  0
    0.5586    2.8582   -1.1118 H   0  0  0  0  0  0  0  0  0  0  0  0
    1.0566   -2.0850   -3.2870 H   0  0  0  0  0  0  0  0  0  0  0  0
    3.3383   -1.9206   -4.3173 H   0  0  0  0  0  0  0  0  0  0  0  0
    3.4794   -0.2616   -3.7011 H   0  0  0  0  0  0  0  0  0  0  0  0
    2.2400   -0.6425   -4.8895 H   0  0  0  0  0  0  0  0  0  0  0  0
    3.2306   -0.1164   -1.1965 H   0  0  0  0  0  0  0  0  0  0  0  0
    3.6668   -2.3327    0.7000 H   0  0  0  0  0  0  0  0  0  0  0  0
    4.9990   -1.9570   -0.3955 H   0  0  0  0  0  0  0  0  0  0  0  0
    2.9071   -0.5570    2.3717 H   0  0  0  0  0  0  0  0  0  0  0  0
    3.6564    1.3942    3.7334 H   0  0  0  0  0  0  0  0  0  0  0  0
    5.7231    2.6258    3.0549 H   0  0  0  0  0  0  0  0  0  0  0  0
    6.9468    1.8709    1.0171 H   0  0  0  0  0  0  0  0  0  0  0  0
   -0.1676   -2.3259   -1.4726 H   0  0  0  0  0  0  0  0  0  0  0  0
   -2.1323   -2.2167   -0.1023 H   0  0  0  0  0  0  0  0  0  0  0  0
   -4.9759    2.3025    2.6216 H   0  0  0  0  0  0  0  0  0  0  0  0
   -6.0140    1.9050    1.2496 H   0  0  0  0  0  0  0  0  0  0  0  0
   -6.6700    0.4352    3.0136 H   0  0  0  0  0  0  0  0  0  0  0  0
   -5.0035    0.0868    3.4758 H   0  0  0  0  0  0  0  0  0  0  0  0
   -6.0026   -1.8215    2.2181 H   0  0  0  0  0  0  0  0  0  0  0  0
   -6.3398   -0.7577    0.8535 H   0  0  0  0  0  0  0  0  0  0  0  0
   -4.3355   -1.9016    0.3193 H   0  0  0  0  0  0  0  0  0  0  0  0
   -3.6291   -1.6545    1.9247 H   0  0  0  0  0  0  0  0  0  0  0  0
  1  2  1  0
  2  3  2  0
  3  4  1  0
  4  5  1  0
  5  6  1  0
  5  7  1  0
  7  8  2  0
  7  9  1  0
  9 10  1  0
 10 11  1  0
 11 12  2  0
 12 13  1  0
 13 14  2  0
 14 15  1  0
 15 16  2  0
  3 17  1  0
 17 18  2  0
 18 19  1  0
 19 20  1  0
 20 21  2  0
 21 22  1  0
 22 23  2  0
 22 24  1  0
 24 25  1  0
 21 26  1  0
 26 27  1  0
 27 28  1  0
 28 29  1  0
 25  2  1  0
 16 11  1  0
 25 19  2  0
 29 20  1  0
  1 30  1  0
  1 31  1  0
  1 32  1  0
  5 33  1  0
  6 34  1  0
  6 35  1  0
  6 36  1  0
  9 37  1  0
 10 38  1  0
 10 39  1  0
 12 40  1  0
 13 41  1  0
 14 42  1  0
 15 43  1  0
 17 44  1  0
 18 45  1  0
 26 46  1  0
 26 47  1  0
 27 48  1  0
 27 49  1  0
 28 50  1  0
 28 51  1  0
 29 52  1  0
 29 53  1  0
M  END
$$$$
