
     RDKit          3D

 60 61  0  0  0  0  0  0  0  0999 V2000
   -6.9944    0.5125   -1.5092 C   0  0  0  0  0  0  0  0  0  0  0  0
   -6.2824    1.4399   -0.6996 O   0  0  0  0  0  0  0  0  0  0  0  0
   -4.9151    1.3588   -0.7067 C   0  0  0  0  0  0  0  0  0  0  0  0
   -4.2791    2.3163    0.0895 C   0  0  0  0  0  0  0  0  0  0  0  0
   -2.8856    2.3600    0.1866 C   0  0  0  0  0  0  0  0  0  0  0  0
   -2.1957    3.2481    0.9736 O   0  0  0  0  0  0  0  0  0  0  0  0
   -2.9401    4.2606    1.6368 C   0  0  0  0  0  0  0  0  0  0  0  0
   -2.1188    1.4253   -0.5375 C   0  0  0  0  0  0  0  0  0  0  0  0
   -0.6603    1.4528   -0.4546 C   0  0  0  0  0  0  0  0  0  0  0  0
    0.0517    2.4233   -1.0497 N   0  0  0  0  0  0  0  0  0  0  0  0
    1.3754    2.1313   -0.8004 O   0  0  0  0  0  0  0  0  0  0  0  0
    1.4699    0.9911   -0.0568 C   0  0  0  0  0  0  0  0  0  0  0  0
    2.7697    0.5630    0.3866 C   0  0  0  0  0  0  0  0  0  0  0  0
    2.9833   -0.2216    1.3008 O   0  0  0  0  0  0  0  0  0  0  0  0
    3.7342    1.1719   -0.3571 O   0  0  0  0  0  0  0  0  0  0  0  0
    5.1409    0.9223   -0.1089 C   0  0  0  0  0  0  0  0  0  0  0  0
    5.5505    1.4029    1.2879 C   0  0  0  0  0  0  0  0  0  0  0  0
    5.4966   -0.5516   -0.3366 C   0  0  0  0  0  0  0  0  0  0  0  0
    5.8779    1.7714   -1.1563 C   0  0  0  0  0  0  0  0  0  0  0  0
    0.1981    0.4999    0.1624 C   0  0  0  0  0  0  0  0  0  0  0  0
   -0.1723   -0.7044    0.8606 C   0  0  0  0  0  0  0  0  0  0  0  0
   -1.2039   -0.8097    1.5100 O   0  0  0  0  0  0  0  0  0  0  0  0
    0.7299   -1.7023    0.6649 O   0  0  0  0  0  0  0  0  0  0  0  0
    0.5631   -2.9960    1.2963 C   0  0  0  0  0  0  0  0  0  0  0  0
   -0.7104   -3.6957    0.8056 C   0  0  0  0  0  0  0  0  0  0  0  0
    0.6031   -2.8758    2.8245 C   0  0  0  0  0  0  0  0  0  0  0  0
    1.7800   -3.8148    0.8348 C   0  0  0  0  0  0  0  0  0  0  0  0
   -2.7559    0.4514   -1.3378 C   0  0  0  0  0  0  0  0  0  0  0  0
   -1.9319   -0.4347   -1.9919 O   0  0  0  0  0  0  0  0  0  0  0  0
   -2.5266   -1.3276   -2.9275 C   0  0  0  0  0  0  0  0  0  0  0  0
   -4.1542    0.4258   -1.4138 C   0  0  0  0  0  0  0  0  0  0  0  0
   -6.7327    0.6278   -2.5665 H   0  0  0  0  0  0  0  0  0  0  0  0
   -8.0619    0.7301   -1.4056 H   0  0  0  0  0  0  0  0  0  0  0  0
   -6.8289   -0.5155   -1.1695 H   0  0  0  0  0  0  0  0  0  0  0  0
   -4.9087    3.0136    0.6335 H   0  0  0  0  0  0  0  0  0  0  0  0
   -3.6175    3.8275    2.3800 H   0  0  0  0  0  0  0  0  0  0  0  0
   -3.4823    4.8876    0.9218 H   0  0  0  0  0  0  0  0  0  0  0  0
   -2.2310    4.9022    2.1691 H   0  0  0  0  0  0  0  0  0  0  0  0
    6.6378    1.3684    1.4185 H   0  0  0  0  0  0  0  0  0  0  0  0
    5.2116    2.4318    1.4602 H   0  0  0  0  0  0  0  0  0  0  0  0
    5.1052    0.7901    2.0786 H   0  0  0  0  0  0  0  0  0  0  0  0
    5.0581   -1.2027    0.4257 H   0  0  0  0  0  0  0  0  0  0  0  0
    6.5807   -0.7074   -0.3136 H   0  0  0  0  0  0  0  0  0  0  0  0
    5.1146   -0.8992   -1.3033 H   0  0  0  0  0  0  0  0  0  0  0  0
    5.6172    2.8315   -1.0537 H   0  0  0  0  0  0  0  0  0  0  0  0
    5.5852    1.4795   -2.1714 H   0  0  0  0  0  0  0  0  0  0  0  0
    6.9638    1.6730   -1.0675 H   0  0  0  0  0  0  0  0  0  0  0  0
   -1.6179   -3.1997    1.1634 H   0  0  0  0  0  0  0  0  0  0  0  0
   -0.7586   -3.6882   -0.2896 H   0  0  0  0  0  0  0  0  0  0  0  0
   -0.7522   -4.7354    1.1492 H   0  0  0  0  0  0  0  0  0  0  0  0
    1.4793   -2.3014    3.1461 H   0  0  0  0  0  0  0  0  0  0  0  0
    0.6392   -3.8614    3.3014 H   0  0  0  0  0  0  0  0  0  0  0  0
   -0.2755   -2.3536    3.2168 H   0  0  0  0  0  0  0  0  0  0  0  0
    2.7172   -3.3208    1.1206 H   0  0  0  0  0  0  0  0  0  0  0  0
    1.7767   -4.8236    1.2610 H   0  0  0  0  0  0  0  0  0  0  0  0
    1.7984   -3.9021   -0.2584 H   0  0  0  0  0  0  0  0  0  0  0  0
   -3.0656   -0.7827   -3.7109 H   0  0  0  0  0  0  0  0  0  0  0  0
   -3.1787   -2.0492   -2.4216 H   0  0  0  0  0  0  0  0  0  0  0  0
   -1.7214   -1.8904   -3.4101 H   0  0  0  0  0  0  0  0  0  0  0  0
   -4.6499   -0.3243   -2.0151 H   0  0  0  0  0  0  0  0  0  0  0  0
  1  2  1  0
  2  3  1  0
  3  4  2  0
  4  5  1  0
  5  6  1  0
  6  7  1  0
  5  8  2  0
  8  9  1  0
  9 10  2  0
 10 11  1  0
 11 12  1  0
 12 13  1  0
 13 14  2  0
 13 15  1  0
 15 16  1  0
 16 17  1  0
 16 18  1  0
 16 19  1  0
 12 20  2  0
 20 21  1  0
 21 22  2  0
 21 23  1  0
 23 24  1  0
 24 25  1  0
 24 26  1  0
 24 27  1  0
  8 28  1  0
 28 29  1  0
 29 30  1  0
 28 31  2  0
 31  3  1  0
 20  9  1  0
  1 32  1  0
  1 33  1  0
  1 34  1  0
  4 35  1  0
  7 36  1  0
  7 37  1  0
  7 38  1  0
 17 39  1  0
 17 40  1  0
 17 41  1  0
 18 42  1  0
 18 43  1  0
 18 44  1  0
 19 45  1  0
 19 46  1  0
 19 47  1  0
 25 48  1  0
 25 49  1  0
 25 50  1  0
 26 51  1  0
 26 52  1  0
 26 53  1  0
 27 54  1  0
 27 55  1  0
 27 56  1  0
 30 57  1  0
 30 58  1  0
 30 59  1  0
 31 60  1  0
M  END
$$$$
