
     RDKit          3D

 47 48  0  0  0  0  0  0  0  0999 V2000
    0.7963    3.2009   -1.6509 C   0  0  0  0  0  0  0  0  0  0  0  0
    1.0763    2.0383   -0.8842 O   0  0  0  0  0  0  0  0  0  0  0  0
    2.3836    1.6646   -0.7397 C   0  0  0  0  0  0  0  0  0  0  0  0
    3.4753    2.3518   -1.2788 C   0  0  0  0  0  0  0  0  0  0  0  0
    4.7812    1.9031   -1.0468 C   0  0  0  0  0  0  0  0  0  0  0  0
    5.0126    0.7724   -0.2651 C   0  0  0  0  0  0  0  0  0  0  0  0
    3.9358    0.0766    0.2780 C   0  0  0  0  0  0  0  0  0  0  0  0
    2.6278    0.5059    0.0157 C   0  0  0  0  0  0  0  0  0  0  0  0
    1.5217   -0.2317    0.6461 C   0  0  0  0  0  0  0  0  0  0  0  0
    1.4634   -0.2254    1.8800 O   0  0  0  0  0  0  0  0  0  0  0  0
    0.5749   -0.9110   -0.1360 N   0  0  0  0  0  0  0  0  0  0  0  0
   -0.4888   -1.4378    0.6753 N   0  0  0  0  0  0  0  0  0  0  0  0
   -1.6751   -0.7279    0.6894 C   0  0  0  0  0  0  0  0  0  0  0  0
   -2.0646    0.0209   -0.1991 O   0  0  0  0  0  0  0  0  0  0  0  0
   -2.3509   -1.0122    1.8684 O   0  0  0  0  0  0  0  0  0  0  0  0
   -3.5423   -0.3006    2.0276 C   0  0  0  0  0  0  0  0  0  0  0  0
   -3.5085    1.0355    2.4244 C   0  0  0  0  0  0  0  0  0  0  0  0
   -4.7092    1.7133    2.6305 C   0  0  0  0  0  0  0  0  0  0  0  0
   -5.9257    1.0496    2.4534 C   0  0  0  0  0  0  0  0  0  0  0  0
   -5.9456   -0.2948    2.0732 C   0  0  0  0  0  0  0  0  0  0  0  0
   -4.7485   -0.9785    1.8650 C   0  0  0  0  0  0  0  0  0  0  0  0
    0.8325   -1.7500   -1.3588 C   0  0  0  0  0  0  0  0  0  0  0  0
   -0.4777   -2.3417   -1.9425 C   0  0  0  0  0  0  0  0  0  0  0  0
    1.7597   -2.9248   -0.9887 C   0  0  0  0  0  0  0  0  0  0  0  0
    1.4758   -0.9544   -2.5108 C   0  0  0  0  0  0  0  0  0  0  0  0
    1.2421    4.0908   -1.1947 H   0  0  0  0  0  0  0  0  0  0  0  0
   -0.2889    3.3403   -1.6629 H   0  0  0  0  0  0  0  0  0  0  0  0
    1.1281    3.0789   -2.6872 H   0  0  0  0  0  0  0  0  0  0  0  0
    3.3470    3.2480   -1.8773 H   0  0  0  0  0  0  0  0  0  0  0  0
    5.6222    2.4506   -1.4670 H   0  0  0  0  0  0  0  0  0  0  0  0
    6.0299    0.4420   -0.0706 H   0  0  0  0  0  0  0  0  0  0  0  0
    4.1103   -0.7920    0.9082 H   0  0  0  0  0  0  0  0  0  0  0  0
   -0.1828   -1.7001    1.6108 H   0  0  0  0  0  0  0  0  0  0  0  0
   -2.5600    1.5457    2.5637 H   0  0  0  0  0  0  0  0  0  0  0  0
   -4.6976    2.7584    2.9283 H   0  0  0  0  0  0  0  0  0  0  0  0
   -6.8604    1.5813    2.6130 H   0  0  0  0  0  0  0  0  0  0  0  0
   -6.8945   -0.8075    1.9404 H   0  0  0  0  0  0  0  0  0  0  0  0
   -4.7576   -2.0245    1.5758 H   0  0  0  0  0  0  0  0  0  0  0  0
   -0.9779   -3.0151   -1.2380 H   0  0  0  0  0  0  0  0  0  0  0  0
   -0.2794   -2.9287   -2.8474 H   0  0  0  0  0  0  0  0  0  0  0  0
   -1.1824   -1.5482   -2.2134 H   0  0  0  0  0  0  0  0  0  0  0  0
    2.7306   -2.5731   -0.6255 H   0  0  0  0  0  0  0  0  0  0  0  0
    1.3199   -3.5416   -0.1967 H   0  0  0  0  0  0  0  0  0  0  0  0
    1.9453   -3.5726   -1.8529 H   0  0  0  0  0  0  0  0  0  0  0  0
    0.9120   -0.0404   -2.7235 H   0  0  0  0  0  0  0  0  0  0  0  0
    2.5150   -0.6884   -2.3069 H   0  0  0  0  0  0  0  0  0  0  0  0
    1.4992   -1.5459   -3.4344 H   0  0  0  0  0  0  0  0  0  0  0  0
  1  2  1  0
  2  3  1  0
  3  4  2  0
  4  5  1  0
  5  6  2  0
  6  7  1  0
  7  8  2  0
  8  9  1  0
  9 10  2  0
  9 11  1  0
 11 12  1  0
 12 13  1  0
 13 14  2  0
 13 15  1  0
 15 16  1  0
 16 17  2  0
 17 18  1  0
 18 19  2  0
 19 20  1  0
 20 21  2  0
 11 22  1  0
 22 23  1  0
 22 24  1  0
 22 25  1  0
  8  3  1  0
 21 16  1  0
  1 26  1  0
  1 27  1  0
  1 28  1  0
  4 29  1  0
  5 30  1  0
  6 31  1  0
  7 32  1  0
 12 33  1  0
 17 34  1  0
 18 35  1  0
 19 36  1  0
 20 37  1  0
 21 38  1  0
 23 39  1  0
 23 40  1  0
 23 41  1  0
 24 42  1  0
 24 43  1  0
 24 44  1  0
 25 45  1  0
 25 46  1  0
 25 47  1  0
M  END
$$$$
