
     RDKit          3D

 52 54  0  0  0  0  0  0  0  0999 V2000
    2.9740    2.2351   -2.6216 C   0  0  0  0  0  0  0  0  0  0  0  0
    3.0105    0.7628   -2.2134 C   0  0  0  0  0  0  0  0  0  0  0  0
    4.2189    0.4136   -1.3291 C   0  0  0  0  0  0  0  0  0  0  0  0
    4.3229    1.2181   -0.0286 C   0  0  0  0  0  0  0  0  0  0  0  0
    5.5137    0.7863    0.7931 C   0  0  0  0  0  0  0  0  0  0  0  0
    6.7425    1.4472    0.6646 C   0  0  0  0  0  0  0  0  0  0  0  0
    7.8476    1.0364    1.4118 C   0  0  0  0  0  0  0  0  0  0  0  0
    7.7363   -0.0406    2.2896 C   0  0  0  0  0  0  0  0  0  0  0  0
    6.5204   -0.7089    2.4197 C   0  0  0  0  0  0  0  0  0  0  0  0
    5.4139   -0.2996    1.6735 C   0  0  0  0  0  0  0  0  0  0  0  0
    1.7564    0.3741   -1.5768 N   0  0  0  0  0  0  0  0  0  0  0  0
    0.6421    0.0551   -2.3307 C   0  0  0  0  0  0  0  0  0  0  0  0
    0.6457   -0.0186   -3.5537 O   0  0  0  0  0  0  0  0  0  0  0  0
   -0.6196   -0.1666   -1.5721 C   0  0  0  0  0  0  0  0  0  0  0  0
   -0.6216   -0.6688   -0.2670 C   0  0  0  0  0  0  0  0  0  0  0  0
   -1.8340   -0.8593    0.4071 C   0  0  0  0  0  0  0  0  0  0  0  0
   -3.0552   -0.5549   -0.2103 C   0  0  0  0  0  0  0  0  0  0  0  0
   -4.2291   -0.7730    0.5414 N   0  0  0  0  0  0  0  0  0  0  0  0
   -5.5264   -0.4607    0.1748 C   0  0  0  0  0  0  0  0  0  0  0  0
   -5.8840    0.1230   -0.8406 O   0  0  0  0  0  0  0  0  0  0  0  0
   -6.5698   -0.8503    1.1644 C   0  0  0  0  0  0  0  0  0  0  0  0
   -7.6810   -0.0116    1.3268 C   0  0  0  0  0  0  0  0  0  0  0  0
   -8.6812   -0.3395    2.2434 C   0  0  0  0  0  0  0  0  0  0  0  0
   -8.5797   -1.5108    2.9938 C   0  0  0  0  0  0  0  0  0  0  0  0
   -7.4829   -2.3541    2.8159 C   0  0  0  0  0  0  0  0  0  0  0  0
   -7.3597   -3.9513    3.8200 Br  0  0  0  0  0  0  0  0  0  0  0  0
   -6.4775   -2.0364    1.9024 C   0  0  0  0  0  0  0  0  0  0  0  0
   -3.0461   -0.0761   -1.5215 C   0  0  0  0  0  0  0  0  0  0  0  0
   -1.8364    0.1128   -2.2010 C   0  0  0  0  0  0  0  0  0  0  0  0
    2.1939    2.4097   -3.3710 H   0  0  0  0  0  0  0  0  0  0  0  0
    2.7502    2.8865   -1.7701 H   0  0  0  0  0  0  0  0  0  0  0  0
    3.9300    2.5454   -3.0560 H   0  0  0  0  0  0  0  0  0  0  0  0
    3.1057    0.1699   -3.1325 H   0  0  0  0  0  0  0  0  0  0  0  0
    5.1353    0.5637   -1.9160 H   0  0  0  0  0  0  0  0  0  0  0  0
    4.1812   -0.6584   -1.0919 H   0  0  0  0  0  0  0  0  0  0  0  0
    3.4160    1.1003    0.5769 H   0  0  0  0  0  0  0  0  0  0  0  0
    4.4086    2.2907   -0.2413 H   0  0  0  0  0  0  0  0  0  0  0  0
    6.8475    2.2854   -0.0203 H   0  0  0  0  0  0  0  0  0  0  0  0
    8.7965    1.5553    1.3068 H   0  0  0  0  0  0  0  0  0  0  0  0
    8.5978   -0.3612    2.8700 H   0  0  0  0  0  0  0  0  0  0  0  0
    6.4350   -1.5521    3.1012 H   0  0  0  0  0  0  0  0  0  0  0  0
    4.4740   -0.8354    1.7814 H   0  0  0  0  0  0  0  0  0  0  0  0
    1.5985    0.6798   -0.6269 H   0  0  0  0  0  0  0  0  0  0  0  0
    0.3051   -0.9422    0.2293 H   0  0  0  0  0  0  0  0  0  0  0  0
   -1.8066   -1.2532    1.4201 H   0  0  0  0  0  0  0  0  0  0  0  0
   -4.0896   -1.1335    1.4759 H   0  0  0  0  0  0  0  0  0  0  0  0
   -7.7677    0.8997    0.7371 H   0  0  0  0  0  0  0  0  0  0  0  0
   -9.5402    0.3161    2.3674 H   0  0  0  0  0  0  0  0  0  0  0  0
   -9.3642   -1.7614    3.7038 H   0  0  0  0  0  0  0  0  0  0  0  0
   -5.6516   -2.7246    1.7492 H   0  0  0  0  0  0  0  0  0  0  0  0
   -3.9646    0.1535   -2.0537 H   0  0  0  0  0  0  0  0  0  0  0  0
   -1.8517    0.4827   -3.2249 H   0  0  0  0  0  0  0  0  0  0  0  0
  1  2  1  0
  2  3  1  0
  3  4  1  0
  4  5  1  0
  5  6  2  0
  6  7  1  0
  7  8  2  0
  8  9  1  0
  9 10  2  0
  2 11  1  0
 11 12  1  0
 12 13  2  0
 12 14  1  0
 14 15  2  0
 15 16  1  0
 16 17  2  0
 17 18  1  0
 18 19  1  0
 19 20  2  0
 19 21  1  0
 21 22  2  0
 22 23  1  0
 23 24  2  0
 24 25  1  0
 25 26  1  0
 25 27  2  0
 17 28  1  0
 28 29  2  0
 10  5  1  0
 29 14  1  0
 27 21  1  0
  1 30  1  0
  1 31  1  0
  1 32  1  0
  2 33  1  0
  3 34  1  0
  3 35  1  0
  4 36  1  0
  4 37  1  0
  6 38  1  0
  7 39  1  0
  8 40  1  0
  9 41  1  0
 10 42  1  0
 11 43  1  0
 15 44  1  0
 16 45  1  0
 18 46  1  0
 22 47  1  0
 23 48  1  0
 24 49  1  0
 27 50  1  0
 28 51  1  0
 29 52  1  0
M  END
$$$$
