
     RDKit          3D

 38 39  0  0  0  0  0  0  0  0999 V2000
    2.1359   -0.4288    0.0933 O   0  0  0  0  0  0  0  0  0  0  0  0
    0.9844   -0.1791   -0.2281 C   0  0  0  0  0  0  0  0  0  0  0  0
    0.5576    0.3813   -1.4088 N   0  0  0  0  0  0  0  0  0  0  0  0
    1.4939    1.0526   -2.2932 C   0  0  0  0  0  0  0  0  0  0  0  0
    1.5820    2.5535   -1.9973 C   0  0  0  0  0  0  0  0  0  0  0  0
    2.0946    2.7804   -0.6886 O   0  0  0  0  0  0  0  0  0  0  0  0
   -0.1193   -0.5558    0.7456 C   0  0  0  0  0  0  0  0  0  0  0  0
   -0.1956   -2.0274    1.0777 C   0  0  0  0  0  0  0  0  0  0  0  0
   -0.7516   -2.8321   -0.0708 C   0  0  0  0  0  0  0  0  0  0  0  0
    0.1080   -3.5152   -0.9427 C   0  0  0  0  0  0  0  0  0  0  0  0
   -0.4070   -4.2346   -2.0230 C   0  0  0  0  0  0  0  0  0  0  0  0
   -1.7831   -4.2694   -2.2376 C   0  0  0  0  0  0  0  0  0  0  0  0
   -2.4801   -5.2410   -3.7017 Br  0  0  0  0  0  0  0  0  0  0  0  0
   -2.6491   -3.5900   -1.3835 C   0  0  0  0  0  0  0  0  0  0  0  0
   -2.1339   -2.8705   -0.3035 C   0  0  0  0  0  0  0  0  0  0  0  0
   -0.9521    0.2762    1.3026 N   0  0  0  0  0  0  0  0  0  0  0  0
   -0.8771    1.5970    0.9377 C   0  0  0  0  0  0  0  0  0  0  0  0
   -1.2469    1.9873   -0.1655 O   0  0  0  0  0  0  0  0  0  0  0  0
   -0.3806    2.4384    2.0160 C   0  0  0  0  0  0  0  0  0  0  0  0
    0.0380    2.0916    3.2897 C   0  0  0  0  0  0  0  0  0  0  0  0
    0.4619    3.2172    4.0549 C   0  0  0  0  0  0  0  0  0  0  0  0
    0.3525    4.3911    3.3456 C   0  0  0  0  0  0  0  0  0  0  0  0
   -0.2572    4.1337    1.7700 S   0  0  0  0  0  0  0  0  0  0  0  0
   -0.4118    0.6917   -1.4452 H   0  0  0  0  0  0  0  0  0  0  0  0
    1.1365    0.8964   -3.3155 H   0  0  0  0  0  0  0  0  0  0  0  0
    2.4807    0.5896   -2.1877 H   0  0  0  0  0  0  0  0  0  0  0  0
    0.5927    3.0176   -2.0659 H   0  0  0  0  0  0  0  0  0  0  0  0
    2.2495    3.0386   -2.7159 H   0  0  0  0  0  0  0  0  0  0  0  0
    2.0154    3.7333   -0.5105 H   0  0  0  0  0  0  0  0  0  0  0  0
   -0.8289   -2.1693    1.9622 H   0  0  0  0  0  0  0  0  0  0  0  0
    0.8016   -2.3874    1.3564 H   0  0  0  0  0  0  0  0  0  0  0  0
    1.1861   -3.4881   -0.7904 H   0  0  0  0  0  0  0  0  0  0  0  0
    0.2722   -4.7595   -2.6895 H   0  0  0  0  0  0  0  0  0  0  0  0
   -3.7229   -3.6120   -1.5498 H   0  0  0  0  0  0  0  0  0  0  0  0
   -2.8183   -2.3374    0.3544 H   0  0  0  0  0  0  0  0  0  0  0  0
    0.0419    1.0727    3.6592 H   0  0  0  0  0  0  0  0  0  0  0  0
    0.8286    3.1667    5.0730 H   0  0  0  0  0  0  0  0  0  0  0  0
    0.6011    5.3904    3.6765 H   0  0  0  0  0  0  0  0  0  0  0  0
  1  2  2  0
  2  3  1  0
  3  4  1  0
  4  5  1  0
  5  6  1  0
  2  7  1  0
  7  8  1  0
  8  9  1  0
  9 10  2  0
 10 11  1  0
 11 12  2  0
 12 13  1  0
 12 14  1  0
 14 15  2  0
  7 16  2  3
 16 17  1  0
 17 18  2  0
 17 19  1  0
 19 20  2  0
 20 21  1  0
 21 22  2  0
 22 23  1  0
 15  9  1  0
 23 19  1  0
  3 24  1  0
  4 25  1  0
  4 26  1  0
  5 27  1  0
  5 28  1  0
  6 29  1  0
  8 30  1  0
  8 31  1  0
 10 32  1  0
 11 33  1  0
 14 34  1  0
 15 35  1  0
 20 36  1  0
 21 37  1  0
 22 38  1  0
M  END
$$$$
