
     RDKit          3D

 49 52  0  0  0  0  0  0  0  0999 V2000
    7.8734    0.2506   -0.9846 C   0  0  0  0  0  0  0  0  0  0  0  0
    6.9144   -0.7365   -1.6322 C   0  0  0  0  0  0  0  0  0  0  0  0
    5.5123   -0.5864   -1.1011 C   0  0  0  0  0  0  0  0  0  0  0  0
    4.6110    0.2985   -1.7034 C   0  0  0  0  0  0  0  0  0  0  0  0
    3.3110    0.4523   -1.2010 C   0  0  0  0  0  0  0  0  0  0  0  0
    2.8776   -0.2739   -0.0838 C   0  0  0  0  0  0  0  0  0  0  0  0
    1.5244   -0.1658    0.4950 C   0  0  0  0  0  0  0  0  0  0  0  0
    0.5024    0.7420   -0.1659 C   0  0  0  0  0  0  0  0  0  0  0  0
   -0.8882    0.5687    0.2880 N   0  0  0  0  0  0  0  0  0  0  0  0
   -1.5106   -0.6139   -0.3395 C   0  0  0  0  0  0  0  0  0  0  0  0
   -2.9944   -0.7079   -0.1127 C   0  0  0  0  0  0  0  0  0  0  0  0
   -3.7431    0.3181    0.3330 C   0  0  0  0  0  0  0  0  0  0  0  0
   -5.1974    0.1835    0.5557 C   0  0  0  0  0  0  0  0  0  0  0  0
   -5.7987    0.7201    1.7030 C   0  0  0  0  0  0  0  0  0  0  0  0
   -7.1769    0.6089    1.9088 C   0  0  0  0  0  0  0  0  0  0  0  0
   -7.9741   -0.0357    0.9663 C   0  0  0  0  0  0  0  0  0  0  0  0
   -7.3944   -0.5687   -0.1820 C   0  0  0  0  0  0  0  0  0  0  0  0
   -6.0161   -0.4583   -0.3863 C   0  0  0  0  0  0  0  0  0  0  0  0
   -3.0920    1.6480    0.6262 C   0  0  0  0  0  0  0  0  0  0  0  0
   -1.6925    1.7663   -0.0027 C   0  0  0  0  0  0  0  0  0  0  0  0
    1.2680   -0.8759    1.6069 C   0  0  0  0  0  0  0  0  0  0  0  0
    2.2325   -1.7751    2.2530 C   0  0  0  0  0  0  0  0  0  0  0  0
    1.9338   -2.3964    3.2664 O   0  0  0  0  0  0  0  0  0  0  0  0
    3.4738   -1.8896    1.6566 O   0  0  0  0  0  0  0  0  0  0  0  0
    3.7986   -1.1381    0.5119 C   0  0  0  0  0  0  0  0  0  0  0  0
    5.0970   -1.3036    0.0229 C   0  0  0  0  0  0  0  0  0  0  0  0
    8.8820    0.1189   -1.3889 H   0  0  0  0  0  0  0  0  0  0  0  0
    7.5652    1.2849   -1.1716 H   0  0  0  0  0  0  0  0  0  0  0  0
    7.9208    0.1052    0.0999 H   0  0  0  0  0  0  0  0  0  0  0  0
    7.2658   -1.7613   -1.4612 H   0  0  0  0  0  0  0  0  0  0  0  0
    6.9139   -0.5938   -2.7197 H   0  0  0  0  0  0  0  0  0  0  0  0
    4.9155    0.8811   -2.5711 H   0  0  0  0  0  0  0  0  0  0  0  0
    2.6602    1.1599   -1.7070 H   0  0  0  0  0  0  0  0  0  0  0  0
    0.5362    0.6317   -1.2572 H   0  0  0  0  0  0  0  0  0  0  0  0
    0.8280    1.7681    0.0555 H   0  0  0  0  0  0  0  0  0  0  0  0
   -1.3426   -0.6224   -1.4245 H   0  0  0  0  0  0  0  0  0  0  0  0
   -1.0553   -1.5236    0.0670 H   0  0  0  0  0  0  0  0  0  0  0  0
   -3.4430   -1.6750   -0.3235 H   0  0  0  0  0  0  0  0  0  0  0  0
   -5.1985    1.2163    2.4616 H   0  0  0  0  0  0  0  0  0  0  0  0
   -7.6251    1.0234    2.8080 H   0  0  0  0  0  0  0  0  0  0  0  0
   -9.0454   -0.1225    1.1269 H   0  0  0  0  0  0  0  0  0  0  0  0
   -8.0136   -1.0687   -0.9221 H   0  0  0  0  0  0  0  0  0  0  0  0
   -5.5896   -0.8685   -1.2984 H   0  0  0  0  0  0  0  0  0  0  0  0
   -3.7119    2.4678    0.2432 H   0  0  0  0  0  0  0  0  0  0  0  0
   -3.0066    1.7768    1.7127 H   0  0  0  0  0  0  0  0  0  0  0  0
   -1.7764    1.9266   -1.0863 H   0  0  0  0  0  0  0  0  0  0  0  0
   -1.2144    2.6589    0.4196 H   0  0  0  0  0  0  0  0  0  0  0  0
    0.3065   -0.8278    2.1071 H   0  0  0  0  0  0  0  0  0  0  0  0
    5.7761   -1.9876    0.5261 H   0  0  0  0  0  0  0  0  0  0  0  0
  1  2  1  0
  2  3  1  0
  3  4  2  0
  4  5  1  0
  5  6  2  0
  6  7  1  0
  7  8  1  0
  8  9  1  0
  9 10  1  0
 10 11  1  0
 11 12  2  0
 12 13  1  0
 13 14  2  0
 14 15  1  0
 15 16  2  0
 16 17  1  0
 17 18  2  0
 12 19  1  0
 19 20  1  0
  7 21  2  0
 21 22  1  0
 22 23  2  0
 22 24  1  0
 24 25  1  0
 25 26  2  0
 26  3  1  0
 25  6  1  0
 20  9  1  0
 18 13  1  0
  1 27  1  0
  1 28  1  0
  1 29  1  0
  2 30  1  0
  2 31  1  0
  4 32  1  0
  5 33  1  0
  8 34  1  0
  8 35  1  0
 10 36  1  0
 10 37  1  0
 11 38  1  0
 14 39  1  0
 15 40  1  0
 16 41  1  0
 17 42  1  0
 18 43  1  0
 19 44  1  0
 19 45  1  0
 20 46  1  0
 20 47  1  0
 21 48  1  0
 26 49  1  0
M  END
$$$$
