
     RDKit          3D

 46 51  0  0  0  0  0  0  0  0999 V2000
    2.5937    2.3144    2.0093 O   0  0  0  0  0  0  0  0  0  0  0  0
    1.4376    2.1316    1.6420 C   0  0  0  0  0  0  0  0  0  0  0  0
    0.5468    3.1863    1.5479 O   0  0  0  0  0  0  0  0  0  0  0  0
   -0.8259    2.9108    1.5276 C   0  0  0  0  0  0  0  0  0  0  0  0
   -1.6759    3.9681    1.8571 C   0  0  0  0  0  0  0  0  0  0  0  0
   -3.0412    3.7321    1.9797 C   0  0  0  0  0  0  0  0  0  0  0  0
   -3.5355    2.4428    1.7957 C   0  0  0  0  0  0  0  0  0  0  0  0
   -2.6684    1.3972    1.4569 C   0  0  0  0  0  0  0  0  0  0  0  0
   -1.2985    1.6274    1.2677 C   0  0  0  0  0  0  0  0  0  0  0  0
   -0.3392    0.5699    0.8858 C   0  0  0  0  0  0  0  0  0  0  0  0
    0.9511    0.8023    1.2083 C   0  0  0  0  0  0  0  0  0  0  0  0
    2.0008   -0.2735    1.2518 C   0  0  0  0  0  0  0  0  0  0  0  0
    2.9864   -0.2719    0.0848 C   0  0  0  0  0  0  0  0  0  0  0  0
    4.3589   -0.0979    0.3441 C   0  0  0  0  0  0  0  0  0  0  0  0
    5.2934   -0.0923   -0.6953 C   0  0  0  0  0  0  0  0  0  0  0  0
    4.8673   -0.2609   -2.0090 C   0  0  0  0  0  0  0  0  0  0  0  0
    6.0157   -0.2568   -3.2896 Cl  0  0  0  0  0  0  0  0  0  0  0  0
    3.5154   -0.4317   -2.2912 C   0  0  0  0  0  0  0  0  0  0  0  0
    2.5807   -0.4354   -1.2512 C   0  0  0  0  0  0  0  0  0  0  0  0
    1.3856   -1.6024    1.4297 N   0  0  0  0  0  0  0  0  0  0  0  0
    0.2157   -1.8398    0.6870 C   0  0  0  0  0  0  0  0  0  0  0  0
   -0.1356   -3.1565    0.3893 C   0  0  0  0  0  0  0  0  0  0  0  0
   -1.2363   -3.4260   -0.4164 C   0  0  0  0  0  0  0  0  0  0  0  0
   -1.9793   -2.3839   -0.9788 C   0  0  0  0  0  0  0  0  0  0  0  0
   -3.0192   -2.6838   -1.8751 C   0  0  0  0  0  0  0  0  0  0  0  0
   -3.7373   -1.6725   -2.5076 C   0  0  0  0  0  0  0  0  0  0  0  0
   -3.4119   -0.3477   -2.2628 C   0  0  0  0  0  0  0  0  0  0  0  0
   -2.3890   -0.0379   -1.3623 C   0  0  0  0  0  0  0  0  0  0  0  0
   -1.6682   -1.0369   -0.6590 C   0  0  0  0  0  0  0  0  0  0  0  0
   -0.6337   -0.7790    0.2961 C   0  0  0  0  0  0  0  0  0  0  0  0
   -1.2712    4.9588    2.0445 H   0  0  0  0  0  0  0  0  0  0  0  0
   -3.7143    4.5429    2.2460 H   0  0  0  0  0  0  0  0  0  0  0  0
   -4.5973    2.2440    1.9224 H   0  0  0  0  0  0  0  0  0  0  0  0
   -3.0863    0.3983    1.3507 H   0  0  0  0  0  0  0  0  0  0  0  0
    2.5786   -0.1379    2.1760 H   0  0  0  0  0  0  0  0  0  0  0  0
    4.7120    0.0501    1.3640 H   0  0  0  0  0  0  0  0  0  0  0  0
    6.3473    0.0497   -0.4713 H   0  0  0  0  0  0  0  0  0  0  0  0
    3.1790   -0.5616   -3.3165 H   0  0  0  0  0  0  0  0  0  0  0  0
    1.5324   -0.5693   -1.5051 H   0  0  0  0  0  0  0  0  0  0  0  0
    2.0683   -2.3483    1.3248 H   0  0  0  0  0  0  0  0  0  0  0  0
    0.4621   -3.9836    0.7630 H   0  0  0  0  0  0  0  0  0  0  0  0
   -1.4751   -4.4630   -0.6432 H   0  0  0  0  0  0  0  0  0  0  0  0
   -3.2682   -3.7184   -2.1036 H   0  0  0  0  0  0  0  0  0  0  0  0
   -4.5324   -1.9215   -3.2052 H   0  0  0  0  0  0  0  0  0  0  0  0
   -3.9449    0.4501   -2.7737 H   0  0  0  0  0  0  0  0  0  0  0  0
   -2.1440    1.0140   -1.2354 H   0  0  0  0  0  0  0  0  0  0  0  0
  1  2  2  0
  2  3  1  0
  3  4  1  0
  4  5  2  0
  5  6  1  0
  6  7  2  0
  7  8  1  0
  8  9  2  0
  9 10  1  0
 10 11  2  0
 11 12  1  0
 12 13  1  0
 13 14  2  0
 14 15  1  0
 15 16  2  0
 16 17  1  0
 16 18  1  0
 18 19  2  0
 12 20  1  0
 20 21  1  0
 21 22  2  0
 22 23  1  0
 23 24  2  0
 24 25  1  0
 25 26  2  0
 26 27  1  0
 27 28  2  0
 28 29  1  0
 29 30  2  0
 11  2  1  0
 19 13  1  0
 30 21  1  0
  9  4  1  0
 30 10  1  0
 29 24  1  0
  5 31  1  0
  6 32  1  0
  7 33  1  0
  8 34  1  0
 12 35  1  0
 14 36  1  0
 15 37  1  0
 18 38  1  0
 19 39  1  0
 20 40  1  0
 22 41  1  0
 23 42  1  0
 25 43  1  0
 26 44  1  0
 27 45  1  0
 28 46  1  0
M  END
$$$$
