
     RDKit          3D

 57 61  0  0  0  0  0  0  0  0999 V2000
    3.6261    1.4439    2.1969 C   0  0  0  0  0  0  0  0  0  0  0  0
    3.2735    0.2216    2.7666 C   0  0  0  0  0  0  0  0  0  0  0  0
    2.6771   -0.7693    1.9849 C   0  0  0  0  0  0  0  0  0  0  0  0
    2.4154   -0.5407    0.6266 C   0  0  0  0  0  0  0  0  0  0  0  0
    1.7593   -1.6105   -0.2265 C   0  0  0  0  0  0  0  0  0  0  0  0
    0.5996   -1.1168   -0.9884 N   0  0  0  0  0  0  0  0  0  0  0  0
    0.2172   -2.0699   -2.0424 C   0  0  0  0  0  0  0  0  0  0  0  0
    1.1881   -2.0508   -3.1759 C   0  0  0  0  0  0  0  0  0  0  0  0
    1.4895   -1.1127   -4.1418 C   0  0  0  0  0  0  0  0  0  0  0  0
    2.5096   -1.6792   -4.9424 C   0  0  0  0  0  0  0  0  0  0  0  0
    2.7643   -2.9232   -4.4149 C   0  0  0  0  0  0  0  0  0  0  0  0
    1.9665   -3.1597   -3.3416 O   0  0  0  0  0  0  0  0  0  0  0  0
   -0.5289   -0.6613   -0.1434 C   0  0  0  0  0  0  0  0  0  0  0  0
   -1.3925   -1.7666    0.4669 C   0  0  0  0  0  0  0  0  0  0  0  0
   -2.5117   -2.2948   -0.1924 C   0  0  0  0  0  0  0  0  0  0  0  0
   -3.2513   -3.2901    0.4276 C   0  0  0  0  0  0  0  0  0  0  0  0
   -2.9594   -3.7932    1.6445 N   0  0  0  0  0  0  0  0  0  0  0  0
   -1.8804   -3.2820    2.2689 C   0  0  0  0  0  0  0  0  0  0  0  0
   -1.0808   -2.2842    1.7324 C   0  0  0  0  0  0  0  0  0  0  0  0
   -1.3486    0.4049   -0.8378 C   0  0  0  0  0  0  0  0  0  0  0  0
   -1.7113    0.4577   -2.1081 N   0  0  0  0  0  0  0  0  0  0  0  0
   -2.4420    1.6046   -2.2610 N   0  0  0  0  0  0  0  0  0  0  0  0
   -2.5484    2.2538   -1.1139 N   0  0  0  0  0  0  0  0  0  0  0  0
   -1.8805    1.5098   -0.2141 N   0  0  0  0  0  0  0  0  0  0  0  0
   -1.8009    1.9008    1.1800 C   0  0  0  0  0  0  0  0  0  0  0  0
   -2.9814    2.7355    1.6905 C   0  0  0  0  0  0  0  0  0  0  0  0
   -2.5902    4.1979    1.4710 C   0  0  0  0  0  0  0  0  0  0  0  0
   -1.0946    4.2081    1.1626 C   0  0  0  0  0  0  0  0  0  0  0  0
   -0.5991    2.7999    1.4666 C   0  0  0  0  0  0  0  0  0  0  0  0
    2.7936    0.6868    0.0608 C   0  0  0  0  0  0  0  0  0  0  0  0
    3.3908    1.6754    0.8435 C   0  0  0  0  0  0  0  0  0  0  0  0
    4.0961    2.2125    2.8048 H   0  0  0  0  0  0  0  0  0  0  0  0
    3.4738    0.0374    3.8193 H   0  0  0  0  0  0  0  0  0  0  0  0
    2.4241   -1.7226    2.4433 H   0  0  0  0  0  0  0  0  0  0  0  0
    1.4793   -2.4741    0.3886 H   0  0  0  0  0  0  0  0  0  0  0  0
    2.5489   -1.9661   -0.9004 H   0  0  0  0  0  0  0  0  0  0  0  0
   -0.7548   -1.8212   -2.4807 H   0  0  0  0  0  0  0  0  0  0  0  0
    0.1237   -3.0867   -1.6402 H   0  0  0  0  0  0  0  0  0  0  0  0
    1.0244   -0.1410   -4.2428 H   0  0  0  0  0  0  0  0  0  0  0  0
    2.9994   -1.2354   -5.7974 H   0  0  0  0  0  0  0  0  0  0  0  0
    3.4475   -3.7206   -4.6731 H   0  0  0  0  0  0  0  0  0  0  0  0
   -0.0900   -0.1286    0.7088 H   0  0  0  0  0  0  0  0  0  0  0  0
   -2.8179   -1.9425   -1.1733 H   0  0  0  0  0  0  0  0  0  0  0  0
   -4.1251   -3.7194   -0.0546 H   0  0  0  0  0  0  0  0  0  0  0  0
   -1.6677   -3.7071    3.2459 H   0  0  0  0  0  0  0  0  0  0  0  0
   -0.2318   -1.9201    2.3011 H   0  0  0  0  0  0  0  0  0  0  0  0
   -1.7439    0.9748    1.7612 H   0  0  0  0  0  0  0  0  0  0  0  0
   -3.9357    2.4874    1.2150 H   0  0  0  0  0  0  0  0  0  0  0  0
   -3.1030    2.5653    2.7679 H   0  0  0  0  0  0  0  0  0  0  0  0
   -2.8146    4.7920    2.3638 H   0  0  0  0  0  0  0  0  0  0  0  0
   -3.1542    4.6367    0.6407 H   0  0  0  0  0  0  0  0  0  0  0  0
   -0.9353    4.4440    0.1039 H   0  0  0  0  0  0  0  0  0  0  0  0
   -0.5607    4.9627    1.7489 H   0  0  0  0  0  0  0  0  0  0  0  0
   -0.3314    2.7312    2.5281 H   0  0  0  0  0  0  0  0  0  0  0  0
    0.2883    2.5475    0.8787 H   0  0  0  0  0  0  0  0  0  0  0  0
    2.6167    0.8747   -0.9975 H   0  0  0  0  0  0  0  0  0  0  0  0
    3.6756    2.6235    0.3940 H   0  0  0  0  0  0  0  0  0  0  0  0
  1  2  2  0
  2  3  1  0
  3  4  2  0
  4  5  1  0
  5  6  1  0
  6  7  1  0
  7  8  1  0
  8  9  2  0
  9 10  1  0
 10 11  2  0
 11 12  1  0
  6 13  1  0
 13 14  1  0
 14 15  2  0
 15 16  1  0
 16 17  2  0
 17 18  1  0
 18 19  2  0
 13 20  1  0
 20 21  2  0
 21 22  1  0
 22 23  2  0
 23 24  1  0
 24 25  1  0
 25 26  1  0
 26 27  1  0
 27 28  1  0
 28 29  1  0
  4 30  1  0
 30 31  2  0
 31  1  1  0
 12  8  1  0
 19 14  1  0
 24 20  1  0
 29 25  1  0
  1 32  1  0
  2 33  1  0
  3 34  1  0
  5 35  1  0
  5 36  1  0
  7 37  1  0
  7 38  1  0
  9 39  1  0
 10 40  1  0
 11 41  1  0
 13 42  1  0
 15 43  1  0
 16 44  1  0
 18 45  1  0
 19 46  1  0
 25 47  1  0
 26 48  1  0
 26 49  1  0
 27 50  1  0
 27 51  1  0
 28 52  1  0
 28 53  1  0
 29 54  1  0
 29 55  1  0
 30 56  1  0
 31 57  1  0
M  END
$$$$
