
     RDKit          3D

 53 56  0  0  0  0  0  0  0  0999 V2000
   -6.6601    0.8097    1.1837 C   0  0  0  0  0  0  0  0  0  0  0  0
   -5.8637    1.0886   -0.1095 C   0  0  0  0  0  0  0  0  0  0  0  0
   -6.0178    2.5770   -0.4897 C   0  0  0  0  0  0  0  0  0  0  0  0
   -6.5189    0.2584   -1.2365 C   0  0  0  0  0  0  0  0  0  0  0  0
   -4.3773    0.7643    0.1177 C   0  0  0  0  0  0  0  0  0  0  0  0
   -3.6804   -0.1870   -0.6421 C   0  0  0  0  0  0  0  0  0  0  0  0
   -2.3224   -0.4658   -0.4132 C   0  0  0  0  0  0  0  0  0  0  0  0
   -1.6185    0.1973    0.5924 C   0  0  0  0  0  0  0  0  0  0  0  0
   -0.2371   -0.0471    0.8673 N   0  0  0  0  0  0  0  0  0  0  0  0
    0.4305    0.8052    1.7022 N   0  0  0  0  0  0  0  0  0  0  0  0
    1.6946    0.3903    1.7018 C   0  0  0  0  0  0  0  0  0  0  0  0
    1.8825   -0.7452    0.9077 C   0  0  0  0  0  0  0  0  0  0  0  0
    0.6206   -1.0460    0.4233 C   0  0  0  0  0  0  0  0  0  0  0  0
    0.3090   -2.2579   -0.3866 C   0  0  0  0  0  0  0  0  0  0  0  0
    1.4543   -3.2840   -0.2742 C   0  0  0  0  0  0  0  0  0  0  0  0
    2.8344   -2.6264   -0.4347 C   0  0  0  0  0  0  0  0  0  0  0  0
    3.1011   -1.5689    0.6613 C   0  0  0  0  0  0  0  0  0  0  0  0
    4.1795   -0.6895    0.2747 N   0  0  0  0  0  0  0  0  0  0  0  0
    5.5028   -1.0590    0.3700 C   0  0  0  0  0  0  0  0  0  0  0  0
    5.8895   -2.1020    0.8826 O   0  0  0  0  0  0  0  0  0  0  0  0
    6.4585   -0.0810   -0.2199 C   0  0  0  0  0  0  0  0  0  0  0  0
    7.8236   -0.3149   -0.1569 C   0  0  0  0  0  0  0  0  0  0  0  0
    8.7288    0.5494   -0.6842 N   0  0  0  0  0  0  0  0  0  0  0  0
    8.2044    1.6504   -1.2718 C   0  0  0  0  0  0  0  0  0  0  0  0
    6.8381    1.8826   -1.3357 C   0  0  0  0  0  0  0  0  0  0  0  0
    5.9269    1.0273   -0.8160 N   0  0  0  0  0  0  0  0  0  0  0  0
   -2.2980    1.1637    1.3471 C   0  0  0  0  0  0  0  0  0  0  0  0
   -3.6517    1.4366    1.1157 C   0  0  0  0  0  0  0  0  0  0  0  0
   -6.5463   -0.2342    1.4995 H   0  0  0  0  0  0  0  0  0  0  0  0
   -7.7299    0.9994    1.0378 H   0  0  0  0  0  0  0  0  0  0  0  0
   -6.3338    1.4425    2.0163 H   0  0  0  0  0  0  0  0  0  0  0  0
   -7.0661    2.8272   -0.6906 H   0  0  0  0  0  0  0  0  0  0  0  0
   -5.4393    2.8162   -1.3899 H   0  0  0  0  0  0  0  0  0  0  0  0
   -5.6762    3.2459    0.3078 H   0  0  0  0  0  0  0  0  0  0  0  0
   -6.0321    0.4343   -2.2028 H   0  0  0  0  0  0  0  0  0  0  0  0
   -7.5768    0.5214   -1.3570 H   0  0  0  0  0  0  0  0  0  0  0  0
   -6.4764   -0.8160   -1.0229 H   0  0  0  0  0  0  0  0  0  0  0  0
   -4.1701   -0.7359   -1.4425 H   0  0  0  0  0  0  0  0  0  0  0  0
   -1.8582   -1.1855   -1.0735 H   0  0  0  0  0  0  0  0  0  0  0  0
    2.4247    0.9300    2.2919 H   0  0  0  0  0  0  0  0  0  0  0  0
   -0.6147   -2.7373   -0.0471 H   0  0  0  0  0  0  0  0  0  0  0  0
    0.1957   -1.9726   -1.4387 H   0  0  0  0  0  0  0  0  0  0  0  0
    1.3207   -4.0613   -1.0352 H   0  0  0  0  0  0  0  0  0  0  0  0
    1.4074   -3.7819    0.7030 H   0  0  0  0  0  0  0  0  0  0  0  0
    2.8897   -2.1633   -1.4296 H   0  0  0  0  0  0  0  0  0  0  0  0
    3.6182   -3.3929   -0.4074 H   0  0  0  0  0  0  0  0  0  0  0  0
    3.3788   -2.0818    1.5908 H   0  0  0  0  0  0  0  0  0  0  0  0
    3.9808    0.1455   -0.2713 H   0  0  0  0  0  0  0  0  0  0  0  0
    8.2319   -1.2009    0.3178 H   0  0  0  0  0  0  0  0  0  0  0  0
    8.9186    2.3486   -1.6946 H   0  0  0  0  0  0  0  0  0  0  0  0
    6.4401    2.7724   -1.8116 H   0  0  0  0  0  0  0  0  0  0  0  0
   -1.7899    1.7161    2.1365 H   0  0  0  0  0  0  0  0  0  0  0  0
   -4.1297    2.1917    1.7365 H   0  0  0  0  0  0  0  0  0  0  0  0
  1  2  1  0
  2  3  1  0
  2  4  1  0
  2  5  1  0
  5  6  2  0
  6  7  1  0
  7  8  2  0
  8  9  1  0
  9 10  1  0
 10 11  2  0
 11 12  1  0
 12 13  2  0
 13 14  1  0
 14 15  1  0
 15 16  1  0
 16 17  1  0
 17 18  1  0
 18 19  1  0
 19 20  2  0
 19 21  1  0
 21 22  2  0
 22 23  1  0
 23 24  2  0
 24 25  1  0
 25 26  2  0
  8 27  1  0
 27 28  2  0
 28  5  1  0
 13  9  1  0
 26 21  1  0
 17 12  1  0
  1 29  1  0
  1 30  1  0
  1 31  1  0
  3 32  1  0
  3 33  1  0
  3 34  1  0
  4 35  1  0
  4 36  1  0
  4 37  1  0
  6 38  1  0
  7 39  1  0
 11 40  1  0
 14 41  1  0
 14 42  1  0
 15 43  1  0
 15 44  1  0
 16 45  1  0
 16 46  1  0
 17 47  1  0
 18 48  1  0
 22 49  1  0
 24 50  1  0
 25 51  1  0
 27 52  1  0
 28 53  1  0
M  END
$$$$
