
     RDKit          3D

 43 44  0  0  0  0  0  0  0  0999 V2000
   -1.5072    2.6768    2.4284 C   0  0  0  0  0  0  0  0  0  0  0  0
   -1.9530    2.6287    0.9791 C   0  0  0  0  0  0  0  0  0  0  0  0
   -2.3853    1.3039    0.6374 O   0  0  0  0  0  0  0  0  0  0  0  0
   -1.4154    0.4374    0.2317 C   0  0  0  0  0  0  0  0  0  0  0  0
   -0.2262    0.7370    0.1515 O   0  0  0  0  0  0  0  0  0  0  0  0
   -1.9196   -0.9022   -0.1029 C   0  0  0  0  0  0  0  0  0  0  0  0
   -1.0551   -1.9206   -0.4899 C   0  0  0  0  0  0  0  0  0  0  0  0
    0.3246   -1.8285   -0.5985 N   0  0  0  0  0  0  0  0  0  0  0  0
    1.2209   -2.8056   -0.9941 C   0  0  0  0  0  0  0  0  0  0  0  0
    0.9699   -3.9568   -1.3376 O   0  0  0  0  0  0  0  0  0  0  0  0
    2.6729   -2.3207   -0.9389 C   0  0  0  0  0  0  0  0  0  0  0  0
    2.7639   -0.8984   -0.8032 O   0  0  0  0  0  0  0  0  0  0  0  0
    4.0330   -0.4505   -0.6372 C   0  0  0  0  0  0  0  0  0  0  0  0
    5.0329   -1.1477   -0.5841 O   0  0  0  0  0  0  0  0  0  0  0  0
    4.0614    1.0282   -0.5056 C   0  0  0  0  0  0  0  0  0  0  0  0
    5.2686    1.6335   -0.1518 C   0  0  0  0  0  0  0  0  0  0  0  0
    5.2950    3.0099   -0.0257 C   0  0  0  0  0  0  0  0  0  0  0  0
    4.2188    3.7995   -0.2274 N   0  0  0  0  0  0  0  0  0  0  0  0
    3.0656    3.1899   -0.5744 C   0  0  0  0  0  0  0  0  0  0  0  0
    2.9358    1.8217   -0.7282 C   0  0  0  0  0  0  0  0  0  0  0  0
   -1.8623   -3.3663   -0.8284 S   0  0  0  0  0  0  0  0  0  0  0  0
   -3.3879   -2.7015   -0.4733 C   0  0  0  0  0  0  0  0  0  0  0  0
   -4.6045   -3.5621   -0.5974 C   0  0  0  0  0  0  0  0  0  0  0  0
   -3.3029   -1.3700   -0.0916 C   0  0  0  0  0  0  0  0  0  0  0  0
   -4.4921   -0.5352    0.2794 C   0  0  0  0  0  0  0  0  0  0  0  0
   -2.3090    2.3301    3.0885 H   0  0  0  0  0  0  0  0  0  0  0  0
   -1.2295    3.6950    2.7150 H   0  0  0  0  0  0  0  0  0  0  0  0
   -0.6485    2.0197    2.5981 H   0  0  0  0  0  0  0  0  0  0  0  0
   -1.1632    2.9770    0.3036 H   0  0  0  0  0  0  0  0  0  0  0  0
   -2.8125    3.2916    0.8364 H   0  0  0  0  0  0  0  0  0  0  0  0
    0.7265   -0.9182   -0.3719 H   0  0  0  0  0  0  0  0  0  0  0  0
    3.1593   -2.6215   -1.8736 H   0  0  0  0  0  0  0  0  0  0  0  0
    3.1462   -2.8128   -0.0813 H   0  0  0  0  0  0  0  0  0  0  0  0
    6.1665    1.0493    0.0236 H   0  0  0  0  0  0  0  0  0  0  0  0
    6.2080    3.5307    0.2491 H   0  0  0  0  0  0  0  0  0  0  0  0
    2.2200    3.8536   -0.7329 H   0  0  0  0  0  0  0  0  0  0  0  0
    1.9787    1.4036   -1.0156 H   0  0  0  0  0  0  0  0  0  0  0  0
   -5.1022   -3.6542    0.3737 H   0  0  0  0  0  0  0  0  0  0  0  0
   -5.3103   -3.1186   -1.3076 H   0  0  0  0  0  0  0  0  0  0  0  0
   -4.3710   -4.5725   -0.9492 H   0  0  0  0  0  0  0  0  0  0  0  0
   -5.4284   -1.0963    0.2047 H   0  0  0  0  0  0  0  0  0  0  0  0
   -4.5767    0.3276   -0.3888 H   0  0  0  0  0  0  0  0  0  0  0  0
   -4.4056   -0.1849    1.3128 H   0  0  0  0  0  0  0  0  0  0  0  0
  1  2  1  0
  2  3  1  0
  3  4  1  0
  4  5  2  0
  4  6  1  0
  6  7  2  0
  7  8  1  0
  8  9  1  0
  9 10  2  0
  9 11  1  0
 11 12  1  0
 12 13  1  0
 13 14  2  0
 13 15  1  0
 15 16  2  0
 16 17  1  0
 17 18  2  0
 18 19  1  0
 19 20  2  0
  7 21  1  0
 21 22  1  0
 22 23  1  0
 22 24  2  0
 24 25  1  0
 24  6  1  0
 20 15  1  0
  1 26  1  0
  1 27  1  0
  1 28  1  0
  2 29  1  0
  2 30  1  0
  8 31  1  0
 11 32  1  0
 11 33  1  0
 16 34  1  0
 17 35  1  0
 19 36  1  0
 20 37  1  0
 23 38  1  0
 23 39  1  0
 23 40  1  0
 25 41  1  0
 25 42  1  0
 25 43  1  0
M  END
$$$$
