
     RDKit          3D

 58 62  0  0  0  0  0  0  0  0999 V2000
   -2.0399    2.1849    1.2857 O   0  0  0  0  0  0  0  0  0  0  0  0
   -2.6240    1.3832    0.3295 C   0  0  0  0  0  0  0  0  0  0  0  0
   -2.1580    0.0742    0.1554 C   0  0  0  0  0  0  0  0  0  0  0  0
   -1.0444   -0.5020    1.0436 C   0  0  0  0  0  0  0  0  0  0  0  0
   -1.6766   -1.2700    2.2275 C   0  0  0  0  0  0  0  0  0  0  0  0
   -2.3369   -2.4873    2.0353 C   0  0  0  0  0  0  0  0  0  0  0  0
   -2.8877   -3.1450    3.1322 C   0  0  0  0  0  0  0  0  0  0  0  0
   -2.7666   -2.5814    4.3949 C   0  0  0  0  0  0  0  0  0  0  0  0
   -2.0897   -1.3806    4.5103 C   0  0  0  0  0  0  0  0  0  0  0  0
   -1.5413   -0.7223    3.4666 N   0  0  0  0  0  0  0  0  0  0  0  0
   -0.0398   -1.3100    0.2623 N   0  0  0  0  0  0  0  0  0  0  0  0
    0.6324   -0.5140   -0.7876 C   0  0  0  0  0  0  0  0  0  0  0  0
    1.6275    0.5288   -0.2669 C   0  0  0  0  0  0  0  0  0  0  0  0
    2.6909   -0.0812    0.6597 C   0  0  0  0  0  0  0  0  0  0  0  0
    3.7560   -0.9085   -0.0973 C   0  0  0  0  0  0  0  0  0  0  0  0
    4.6213   -0.0906   -1.0277 C   0  0  0  0  0  0  0  0  0  0  0  0
    4.5056   -0.2345   -2.4171 C   0  0  0  0  0  0  0  0  0  0  0  0
    5.3027    0.5236   -3.2764 C   0  0  0  0  0  0  0  0  0  0  0  0
    6.2240    1.4304   -2.7562 C   0  0  0  0  0  0  0  0  0  0  0  0
    6.3501    1.5792   -1.3766 C   0  0  0  0  0  0  0  0  0  0  0  0
    5.5538    0.8220   -0.5159 C   0  0  0  0  0  0  0  0  0  0  0  0
    1.9949   -0.9394    1.7286 C   0  0  0  0  0  0  0  0  0  0  0  0
    0.9895   -1.9267    1.1250 C   0  0  0  0  0  0  0  0  0  0  0  0
   -2.7745   -0.6969   -0.8406 C   0  0  0  0  0  0  0  0  0  0  0  0
   -3.8103   -0.1695   -1.6177 C   0  0  0  0  0  0  0  0  0  0  0  0
   -4.4987   -1.2080   -2.8215 Cl  0  0  0  0  0  0  0  0  0  0  0  0
   -4.2699    1.1550   -1.4239 C   0  0  0  0  0  0  0  0  0  0  0  0
   -5.3090    1.7675   -2.1598 C   0  0  0  0  0  0  0  0  0  0  0  0
   -5.6870    3.0791   -1.8946 C   0  0  0  0  0  0  0  0  0  0  0  0
   -5.0168    3.7551   -0.8966 C   0  0  0  0  0  0  0  0  0  0  0  0
   -4.0181    3.2149   -0.1662 N   0  0  0  0  0  0  0  0  0  0  0  0
   -3.6569    1.9392   -0.4283 C   0  0  0  0  0  0  0  0  0  0  0  0
   -2.5464    3.0247    1.2411 H   0  0  0  0  0  0  0  0  0  0  0  0
   -0.5047    0.3401    1.4915 H   0  0  0  0  0  0  0  0  0  0  0  0
   -2.4084   -2.9301    1.0481 H   0  0  0  0  0  0  0  0  0  0  0  0
   -3.4038   -4.0914    2.9996 H   0  0  0  0  0  0  0  0  0  0  0  0
   -3.1858   -3.0668    5.2685 H   0  0  0  0  0  0  0  0  0  0  0  0
   -1.9649   -0.8990    5.4757 H   0  0  0  0  0  0  0  0  0  0  0  0
   -0.0935   -0.0181   -1.4406 H   0  0  0  0  0  0  0  0  0  0  0  0
    1.1580   -1.2110   -1.4530 H   0  0  0  0  0  0  0  0  0  0  0  0
    2.0952    1.0396   -1.1156 H   0  0  0  0  0  0  0  0  0  0  0  0
    1.0860    1.3100    0.2807 H   0  0  0  0  0  0  0  0  0  0  0  0
    3.2026    0.7419    1.1755 H   0  0  0  0  0  0  0  0  0  0  0  0
    4.4230   -1.3958    0.6268 H   0  0  0  0  0  0  0  0  0  0  0  0
    3.2902   -1.7272   -0.6577 H   0  0  0  0  0  0  0  0  0  0  0  0
    3.7911   -0.9367   -2.8403 H   0  0  0  0  0  0  0  0  0  0  0  0
    5.2044    0.4063   -4.3523 H   0  0  0  0  0  0  0  0  0  0  0  0
    6.8441    2.0204   -3.4257 H   0  0  0  0  0  0  0  0  0  0  0  0
    7.0691    2.2851   -0.9696 H   0  0  0  0  0  0  0  0  0  0  0  0
    5.6657    0.9480    0.5586 H   0  0  0  0  0  0  0  0  0  0  0  0
    1.4824   -0.2804    2.4400 H   0  0  0  0  0  0  0  0  0  0  0  0
    2.7404   -1.4914    2.3136 H   0  0  0  0  0  0  0  0  0  0  0  0
    1.5317   -2.6668    0.5223 H   0  0  0  0  0  0  0  0  0  0  0  0
    0.5404   -2.5213    1.9273 H   0  0  0  0  0  0  0  0  0  0  0  0
   -2.4341   -1.7149   -1.0205 H   0  0  0  0  0  0  0  0  0  0  0  0
   -5.8311    1.2262   -2.9453 H   0  0  0  0  0  0  0  0  0  0  0  0
   -6.4833    3.5572   -2.4539 H   0  0  0  0  0  0  0  0  0  0  0  0
   -5.2713    4.7818   -0.6479 H   0  0  0  0  0  0  0  0  0  0  0  0
  1  2  1  0
  2  3  2  0
  3  4  1  0
  4  5  1  0
  5  6  2  0
  6  7  1  0
  7  8  2  0
  8  9  1  0
  9 10  2  0
  4 11  1  0
 11 12  1  0
 12 13  1  0
 13 14  1  0
 14 15  1  0
 15 16  1  0
 16 17  2  0
 17 18  1  0
 18 19  2  0
 19 20  1  0
 20 21  2  0
 14 22  1  0
 22 23  1  0
  3 24  1  0
 24 25  2  0
 25 26  1  0
 25 27  1  0
 27 28  2  0
 28 29  1  0
 29 30  2  0
 30 31  1  0
 31 32  2  0
 32  2  1  0
 10  5  1  0
 23 11  1  0
 32 27  1  0
 21 16  1  0
  1 33  1  0
  4 34  1  0
  6 35  1  0
  7 36  1  0
  8 37  1  0
  9 38  1  0
 12 39  1  0
 12 40  1  0
 13 41  1  0
 13 42  1  0
 14 43  1  0
 15 44  1  0
 15 45  1  0
 17 46  1  0
 18 47  1  0
 19 48  1  0
 20 49  1  0
 21 50  1  0
 22 51  1  0
 22 52  1  0
 23 53  1  0
 23 54  1  0
 24 55  1  0
 28 56  1  0
 29 57  1  0
 30 58  1  0
M  END
$$$$
