
     RDKit          3D

 49 52  0  0  0  0  0  0  0  0999 V2000
    6.2392   -3.7228   -2.8988 C   0  0  0  0  0  0  0  0  0  0  0  0
    5.3019   -2.6725   -2.3811 C   0  0  0  0  0  0  0  0  0  0  0  0
    4.0509   -2.4811   -2.9790 C   0  0  0  0  0  0  0  0  0  0  0  0
    3.1909   -1.4809   -2.5177 C   0  0  0  0  0  0  0  0  0  0  0  0
    3.5727   -0.6553   -1.4558 C   0  0  0  0  0  0  0  0  0  0  0  0
    2.6892    0.4035   -0.9634 C   0  0  0  0  0  0  0  0  0  0  0  0
    1.5295    0.1759   -0.3289 C   0  0  0  0  0  0  0  0  0  0  0  0
    0.9089   -1.1593    0.0202 C   0  0  0  0  0  0  0  0  0  0  0  0
   -0.3458   -0.8295    0.8511 C   0  0  0  0  0  0  0  0  0  0  0  0
   -0.4010    0.6643    0.8322 C   0  0  0  0  0  0  0  0  0  0  0  0
    0.6442    1.1809    0.1937 C   0  0  0  0  0  0  0  0  0  0  0  0
    0.9628    2.5258    0.1163 O   0  0  0  0  0  0  0  0  0  0  0  0
    0.1142    3.4217    0.6865 C   0  0  0  0  0  0  0  0  0  0  0  0
    0.5668    4.6264    0.8234 N   0  0  0  0  0  0  0  0  0  0  0  0
   -1.3123    2.9773    0.9898 C   0  0  0  0  0  0  0  0  0  0  0  0
   -1.9404    3.8817    1.9665 C   0  0  0  0  0  0  0  0  0  0  0  0
   -2.4170    4.6131    2.7312 N   0  0  0  0  0  0  0  0  0  0  0  0
   -1.4161    1.5220    1.5039 C   0  0  0  0  0  0  0  0  0  0  0  0
   -2.8370    0.9886    1.3447 C   0  0  0  0  0  0  0  0  0  0  0  0
   -3.4001    0.7554    0.0793 C   0  0  0  0  0  0  0  0  0  0  0  0
   -4.7081    0.2807   -0.0430 C   0  0  0  0  0  0  0  0  0  0  0  0
   -5.4787    0.0220    1.0945 C   0  0  0  0  0  0  0  0  0  0  0  0
   -6.8955   -0.4527    0.9623 C   0  0  0  0  0  0  0  0  0  0  0  0
   -4.9288    0.2682    2.3563 C   0  0  0  0  0  0  0  0  0  0  0  0
   -3.6202    0.7413    2.4814 C   0  0  0  0  0  0  0  0  0  0  0  0
    4.8305   -0.8293   -0.8721 C   0  0  0  0  0  0  0  0  0  0  0  0
    5.6905   -1.8298   -1.3332 C   0  0  0  0  0  0  0  0  0  0  0  0
    6.8821   -4.1019   -2.0973 H   0  0  0  0  0  0  0  0  0  0  0  0
    5.6847   -4.5771   -3.3012 H   0  0  0  0  0  0  0  0  0  0  0  0
    6.8690   -3.3050   -3.6902 H   0  0  0  0  0  0  0  0  0  0  0  0
    3.7382   -3.1079   -3.8110 H   0  0  0  0  0  0  0  0  0  0  0  0
    2.2255   -1.3458   -2.9992 H   0  0  0  0  0  0  0  0  0  0  0  0
    3.0480    1.4183   -1.1221 H   0  0  0  0  0  0  0  0  0  0  0  0
    0.6199   -1.7038   -0.8860 H   0  0  0  0  0  0  0  0  0  0  0  0
    1.5971   -1.7846    0.5997 H   0  0  0  0  0  0  0  0  0  0  0  0
   -0.2451   -1.2041    1.8753 H   0  0  0  0  0  0  0  0  0  0  0  0
   -1.2320   -1.2844    0.3982 H   0  0  0  0  0  0  0  0  0  0  0  0
   -0.1204    5.2783    1.2157 H   0  0  0  0  0  0  0  0  0  0  0  0
   -1.8464    3.0865    0.0353 H   0  0  0  0  0  0  0  0  0  0  0  0
   -1.1620    1.5005    2.5746 H   0  0  0  0  0  0  0  0  0  0  0  0
   -2.8254    0.9339   -0.8275 H   0  0  0  0  0  0  0  0  0  0  0  0
   -5.1226    0.1123   -1.0349 H   0  0  0  0  0  0  0  0  0  0  0  0
   -7.0205   -1.0630    0.0617 H   0  0  0  0  0  0  0  0  0  0  0  0
   -7.5735    0.4044    0.9061 H   0  0  0  0  0  0  0  0  0  0  0  0
   -7.1804   -1.0746    1.8175 H   0  0  0  0  0  0  0  0  0  0  0  0
   -5.5184    0.0952    3.2544 H   0  0  0  0  0  0  0  0  0  0  0  0
   -3.2255    0.9221    3.4796 H   0  0  0  0  0  0  0  0  0  0  0  0
    5.1496   -0.1888   -0.0531 H   0  0  0  0  0  0  0  0  0  0  0  0
    6.6668   -1.9456   -0.8679 H   0  0  0  0  0  0  0  0  0  0  0  0
  1  2  1  0
  2  3  2  0
  3  4  1  0
  4  5  2  0
  5  6  1  0
  6  7  2  3
  7  8  1  0
  8  9  1  0
  9 10  1  0
 10 11  2  0
 11 12  1  0
 12 13  1  0
 13 14  2  3
 13 15  1  0
 15 16  1  0
 16 17  3  0
 15 18  1  0
 18 19  1  0
 19 20  2  0
 20 21  1  0
 21 22  2  0
 22 23  1  0
 22 24  1  0
 24 25  2  0
  5 26  1  0
 26 27  2  0
 27  2  1  0
 11  7  1  0
 25 19  1  0
 18 10  1  0
  1 28  1  0
  1 29  1  0
  1 30  1  0
  3 31  1  0
  4 32  1  0
  6 33  1  0
  8 34  1  0
  8 35  1  0
  9 36  1  0
  9 37  1  0
 14 38  1  0
 15 39  1  0
 18 40  1  0
 20 41  1  0
 21 42  1  0
 23 43  1  0
 23 44  1  0
 23 45  1  0
 24 46  1  0
 25 47  1  0
 26 48  1  0
 27 49  1  0
M  END
$$$$
