
     RDKit          3D

 55 58  0  0  0  0  0  0  0  0999 V2000
   -6.9776    3.7957    0.4740 C   0  0  0  0  0  0  0  0  0  0  0  0
   -6.6909    2.3681    0.0390 C   0  0  0  0  0  0  0  0  0  0  0  0
   -6.4089    1.4636    1.2405 C   0  0  0  0  0  0  0  0  0  0  0  0
   -6.1466    0.0183    0.8299 C   0  0  0  0  0  0  0  0  0  0  0  0
   -4.9104   -0.1215    0.0873 N   0  0  0  0  0  0  0  0  0  0  0  0
   -4.6687   -1.2578   -0.6605 C   0  0  0  0  0  0  0  0  0  0  0  0
   -5.4891   -2.1538   -0.8199 O   0  0  0  0  0  0  0  0  0  0  0  0
   -3.3079   -1.3722   -1.2539 C   0  0  0  0  0  0  0  0  0  0  0  0
   -2.7843   -2.6469   -1.4892 C   0  0  0  0  0  0  0  0  0  0  0  0
   -1.5104   -2.7942   -2.0457 C   0  0  0  0  0  0  0  0  0  0  0  0
   -0.7407   -1.6710   -2.3817 C   0  0  0  0  0  0  0  0  0  0  0  0
    0.6451   -1.8290   -2.9826 C   0  0  0  0  0  0  0  0  0  0  0  0
    1.7218   -1.6016   -2.0096 N   0  0  0  0  0  0  0  0  0  0  0  0
    2.2679   -2.6558   -1.2489 C   0  0  0  0  0  0  0  0  0  0  0  0
    1.8588   -4.2825   -1.3322 S   0  0  0  0  0  0  0  0  0  0  0  0
    3.2559   -2.3395   -0.3400 N   0  0  0  0  0  0  0  0  0  0  0  0
    3.7218   -1.0639   -0.1826 C   0  0  0  0  0  0  0  0  0  0  0  0
    3.1991   -0.0683   -0.9494 C   0  0  0  0  0  0  0  0  0  0  0  0
    3.8306    1.0954   -0.6121 N   0  0  0  0  0  0  0  0  0  0  0  0
    4.7642    0.8482    0.3747 C   0  0  0  0  0  0  0  0  0  0  0  0
    5.6435    1.7189    1.0254 C   0  0  0  0  0  0  0  0  0  0  0  0
    6.4963    1.1791    1.9981 C   0  0  0  0  0  0  0  0  0  0  0  0
    6.4706   -0.1797    2.3099 C   0  0  0  0  0  0  0  0  0  0  0  0
    7.2588   -0.8034    3.2400 O   0  0  0  0  0  0  0  0  0  0  0  0
    8.2090    0.0000    3.9266 C   0  0  0  0  0  0  0  0  0  0  0  0
    5.5793   -1.0342    1.6467 C   0  0  0  0  0  0  0  0  0  0  0  0
    4.7128   -0.5190    0.6645 C   0  0  0  0  0  0  0  0  0  0  0  0
    2.1760   -0.2683   -1.9249 C   0  0  0  0  0  0  0  0  0  0  0  0
    1.7626    0.6573   -2.6181 O   0  0  0  0  0  0  0  0  0  0  0  0
   -1.2863   -0.3959   -2.1642 C   0  0  0  0  0  0  0  0  0  0  0  0
   -2.5601   -0.2447   -1.6074 C   0  0  0  0  0  0  0  0  0  0  0  0
   -6.1203    4.2240    1.0015 H   0  0  0  0  0  0  0  0  0  0  0  0
   -7.1863    4.4224   -0.3984 H   0  0  0  0  0  0  0  0  0  0  0  0
   -7.8465    3.8370    1.1383 H   0  0  0  0  0  0  0  0  0  0  0  0
   -5.8341    2.3713   -0.6446 H   0  0  0  0  0  0  0  0  0  0  0  0
   -7.5511    1.9836   -0.5205 H   0  0  0  0  0  0  0  0  0  0  0  0
   -7.2715    1.4840    1.9172 H   0  0  0  0  0  0  0  0  0  0  0  0
   -5.5498    1.8524    1.8006 H   0  0  0  0  0  0  0  0  0  0  0  0
   -6.0559   -0.6101    1.7212 H   0  0  0  0  0  0  0  0  0  0  0  0
   -6.9773   -0.3724    0.2341 H   0  0  0  0  0  0  0  0  0  0  0  0
   -4.1060    0.3911    0.4235 H   0  0  0  0  0  0  0  0  0  0  0  0
   -3.3670   -3.5312   -1.2379 H   0  0  0  0  0  0  0  0  0  0  0  0
   -1.1332   -3.8000   -2.2194 H   0  0  0  0  0  0  0  0  0  0  0  0
    0.7422   -1.1267   -3.8202 H   0  0  0  0  0  0  0  0  0  0  0  0
    0.7438   -2.8198   -3.4381 H   0  0  0  0  0  0  0  0  0  0  0  0
    3.6558   -3.0834    0.2198 H   0  0  0  0  0  0  0  0  0  0  0  0
    3.6403    1.9965   -1.0299 H   0  0  0  0  0  0  0  0  0  0  0  0
    5.6729    2.7779    0.7900 H   0  0  0  0  0  0  0  0  0  0  0  0
    7.1765    1.8613    2.4985 H   0  0  0  0  0  0  0  0  0  0  0  0
    8.7555   -0.6450    4.6210 H   0  0  0  0  0  0  0  0  0  0  0  0
    8.9355    0.4304    3.2320 H   0  0  0  0  0  0  0  0  0  0  0  0
    7.7148    0.7779    4.5150 H   0  0  0  0  0  0  0  0  0  0  0  0
    5.5638   -2.0910    1.8933 H   0  0  0  0  0  0  0  0  0  0  0  0
   -0.7302    0.4968   -2.4448 H   0  0  0  0  0  0  0  0  0  0  0  0
   -2.9640    0.7567   -1.4860 H   0  0  0  0  0  0  0  0  0  0  0  0
  1  2  1  0
  2  3  1  0
  3  4  1  0
  4  5  1  0
  5  6  1  0
  6  7  2  0
  6  8  1  0
  8  9  2  0
  9 10  1  0
 10 11  2  0
 11 12  1  0
 12 13  1  0
 13 14  1  0
 14 15  2  0
 14 16  1  0
 16 17  1  0
 17 18  2  0
 18 19  1  0
 19 20  1  0
 20 21  2  0
 21 22  1  0
 22 23  2  0
 23 24  1  0
 24 25  1  0
 23 26  1  0
 26 27  2  0
 18 28  1  0
 28 29  2  0
 11 30  1  0
 30 31  2  0
 31  8  1  0
 28 13  1  0
 27 17  1  0
 27 20  1  0
  1 32  1  0
  1 33  1  0
  1 34  1  0
  2 35  1  0
  2 36  1  0
  3 37  1  0
  3 38  1  0
  4 39  1  0
  4 40  1  0
  5 41  1  0
  9 42  1  0
 10 43  1  0
 12 44  1  0
 12 45  1  0
 16 46  1  0
 19 47  1  0
 21 48  1  0
 22 49  1  0
 25 50  1  0
 25 51  1  0
 25 52  1  0
 26 53  1  0
 30 54  1  0
 31 55  1  0
M  END
$$$$
