
     RDKit          3D

 36 38  0  0  0  0  0  0  0  0999 V2000
   -3.8739    2.6958   -2.5222 N   0  0  0  0  0  0  0  0  0  0  0  0
   -2.9374    2.2430   -2.0040 C   0  0  0  0  0  0  0  0  0  0  0  0
   -1.8048    1.6872   -1.3402 C   0  0  0  0  0  0  0  0  0  0  0  0
   -0.5338    1.9078   -1.8304 N   0  0  0  0  0  0  0  0  0  0  0  0
    0.2323    1.2336   -0.9973 C   0  0  0  0  0  0  0  0  0  0  0  0
    1.7132    1.0781   -1.0024 C   0  0  0  0  0  0  0  0  0  0  0  0
    1.9902   -0.3010   -1.2392 O   0  0  0  0  0  0  0  0  0  0  0  0
    3.2995   -0.7020   -1.2506 C   0  0  0  0  0  0  0  0  0  0  0  0
    4.3957    0.1566   -1.1152 C   0  0  0  0  0  0  0  0  0  0  0  0
    5.6987   -0.3537   -1.1410 C   0  0  0  0  0  0  0  0  0  0  0  0
    5.9117   -1.7209   -1.3023 C   0  0  0  0  0  0  0  0  0  0  0  0
    7.5174   -2.3359   -1.3291 Cl  0  0  0  0  0  0  0  0  0  0  0  0
    4.8349   -2.5892   -1.4419 C   0  0  0  0  0  0  0  0  0  0  0  0
    3.5348   -2.0793   -1.4167 C   0  0  0  0  0  0  0  0  0  0  0  0
    2.2262   -3.1982   -1.5924 Cl  0  0  0  0  0  0  0  0  0  0  0  0
   -0.4430    0.6231    0.0222 O   0  0  0  0  0  0  0  0  0  0  0  0
   -1.7701    0.9073   -0.1946 C   0  0  0  0  0  0  0  0  0  0  0  0
   -2.6655    0.3784    0.6941 N   0  0  0  0  0  0  0  0  0  0  0  0
   -4.0066    0.9860    0.8185 C   0  0  0  0  0  0  0  0  0  0  0  0
   -4.9542    0.0826    1.6236 C   0  0  0  0  0  0  0  0  0  0  0  0
   -4.4002   -0.2646    2.8994 O   0  0  0  0  0  0  0  0  0  0  0  0
   -3.1739   -0.9831    2.7113 C   0  0  0  0  0  0  0  0  0  0  0  0
   -2.1323   -0.1257    1.9813 C   0  0  0  0  0  0  0  0  0  0  0  0
    2.1112    1.3925   -0.0308 H   0  0  0  0  0  0  0  0  0  0  0  0
    2.1365    1.6943   -1.8035 H   0  0  0  0  0  0  0  0  0  0  0  0
    4.2795    1.2285   -0.9895 H   0  0  0  0  0  0  0  0  0  0  0  0
    6.5436    0.3234   -1.0352 H   0  0  0  0  0  0  0  0  0  0  0  0
    5.0031   -3.6549   -1.5697 H   0  0  0  0  0  0  0  0  0  0  0  0
   -4.4645    1.1432   -0.1617 H   0  0  0  0  0  0  0  0  0  0  0  0
   -3.9101    1.9565    1.3211 H   0  0  0  0  0  0  0  0  0  0  0  0
   -5.1833   -0.8362    1.0704 H   0  0  0  0  0  0  0  0  0  0  0  0
   -5.8992    0.6052    1.8028 H   0  0  0  0  0  0  0  0  0  0  0  0
   -2.7969   -1.2626    3.6998 H   0  0  0  0  0  0  0  0  0  0  0  0
   -3.3797   -1.9087    2.1601 H   0  0  0  0  0  0  0  0  0  0  0  0
   -1.2367   -0.7401    1.8311 H   0  0  0  0  0  0  0  0  0  0  0  0
   -1.8624    0.7332    2.6087 H   0  0  0  0  0  0  0  0  0  0  0  0
  1  2  3  0
  2  3  1  0
  3  4  1  0
  4  5  2  0
  5  6  1  0
  6  7  1  0
  7  8  1  0
  8  9  2  0
  9 10  1  0
 10 11  2  0
 11 12  1  0
 11 13  1  0
 13 14  2  0
 14 15  1  0
  5 16  1  0
 16 17  1  0
 17 18  1  0
 18 19  1  0
 19 20  1  0
 20 21  1  0
 21 22  1  0
 22 23  1  0
 17  3  2  0
 23 18  1  0
 14  8  1  0
  6 24  1  0
  6 25  1  0
  9 26  1  0
 10 27  1  0
 13 28  1  0
 19 29  1  0
 19 30  1  0
 20 31  1  0
 20 32  1  0
 22 33  1  0
 22 34  1  0
 23 35  1  0
 23 36  1  0
M  END
$$$$
