
     RDKit          3D

 54 56  0  0  0  0  0  0  0  0999 V2000
    6.5141    1.4585    1.5830 C   0  0  0  0  0  0  0  0  0  0  0  0
    5.5148    1.7761    0.4736 C   0  0  0  0  0  0  0  0  0  0  0  0
    5.1408    0.5932   -0.3167 N   0  0  0  0  0  0  0  0  0  0  0  0
    4.4498   -0.4233    0.5119 C   0  0  0  0  0  0  0  0  0  0  0  0
    3.5101   -1.3671   -0.2792 C   0  0  0  0  0  0  0  0  0  0  0  0
    2.4605   -0.6088   -0.9873 N   0  0  0  0  0  0  0  0  0  0  0  0
    1.1228   -0.8729   -0.7023 C   0  0  0  0  0  0  0  0  0  0  0  0
    0.6692   -2.1681   -0.5496 C   0  0  0  0  0  0  0  0  0  0  0  0
   -0.6666   -2.3475   -0.2645 C   0  0  0  0  0  0  0  0  0  0  0  0
   -1.2790   -4.0151   -0.0463 S   0  0  0  0  0  0  0  0  0  0  0  0
   -2.9621   -3.7145    0.6263 C   0  0  0  0  0  0  0  0  0  0  0  0
   -3.9578   -3.4541   -0.5014 C   0  0  0  0  0  0  0  0  0  0  0  0
   -3.3801   -4.9435    1.4298 C   0  0  0  0  0  0  0  0  0  0  0  0
   -1.5280   -1.3297   -0.1514 N   0  0  0  0  0  0  0  0  0  0  0  0
   -1.0293   -0.1023   -0.3521 C   0  0  0  0  0  0  0  0  0  0  0  0
   -1.9650    1.0401   -0.2769 C   0  0  0  0  0  0  0  0  0  0  0  0
   -1.5368    2.3620   -0.4925 C   0  0  0  0  0  0  0  0  0  0  0  0
   -2.4308    3.4394   -0.4310 C   0  0  0  0  0  0  0  0  0  0  0  0
   -3.7804    3.2312   -0.1512 C   0  0  0  0  0  0  0  0  0  0  0  0
   -4.5445    4.3658   -0.1201 O   0  0  0  0  0  0  0  0  0  0  0  0
   -5.9354    4.1987    0.1293 C   0  0  0  0  0  0  0  0  0  0  0  0
   -4.2300    1.9323    0.0688 C   0  0  0  0  0  0  0  0  0  0  0  0
   -3.3327    0.8554    0.0063 C   0  0  0  0  0  0  0  0  0  0  0  0
    0.2618    0.1564   -0.6237 N   0  0  0  0  0  0  0  0  0  0  0  0
    2.7882    0.7992   -1.2817 C   0  0  0  0  0  0  0  0  0  0  0  0
    4.3098    0.9702   -1.4876 C   0  0  0  0  0  0  0  0  0  0  0  0
    6.8395    2.3840    2.0692 H   0  0  0  0  0  0  0  0  0  0  0  0
    7.4041    0.9620    1.1819 H   0  0  0  0  0  0  0  0  0  0  0  0
    6.0787    0.8170    2.3561 H   0  0  0  0  0  0  0  0  0  0  0  0
    4.6287    2.2602    0.9037 H   0  0  0  0  0  0  0  0  0  0  0  0
    5.9934    2.5108   -0.1867 H   0  0  0  0  0  0  0  0  0  0  0  0
    5.2039   -1.0317    1.0231 H   0  0  0  0  0  0  0  0  0  0  0  0
    3.8442    0.0650    1.2871 H   0  0  0  0  0  0  0  0  0  0  0  0
    3.0984   -2.0944    0.4285 H   0  0  0  0  0  0  0  0  0  0  0  0
    4.0908   -1.9310   -1.0193 H   0  0  0  0  0  0  0  0  0  0  0  0
    1.3301   -3.0167   -0.6688 H   0  0  0  0  0  0  0  0  0  0  0  0
   -2.9383   -2.8606    1.3120 H   0  0  0  0  0  0  0  0  0  0  0  0
   -4.0373   -4.3081   -1.1864 H   0  0  0  0  0  0  0  0  0  0  0  0
   -3.6917   -2.5690   -1.0883 H   0  0  0  0  0  0  0  0  0  0  0  0
   -4.9568   -3.2749   -0.0875 H   0  0  0  0  0  0  0  0  0  0  0  0
   -4.3460   -4.7664    1.9193 H   0  0  0  0  0  0  0  0  0  0  0  0
   -2.6526   -5.1721    2.2191 H   0  0  0  0  0  0  0  0  0  0  0  0
   -3.4908   -5.8309    0.7940 H   0  0  0  0  0  0  0  0  0  0  0  0
   -0.4918    2.5669   -0.7159 H   0  0  0  0  0  0  0  0  0  0  0  0
   -2.0678    4.4488   -0.6050 H   0  0  0  0  0  0  0  0  0  0  0  0
   -6.4013    5.1891    0.1032 H   0  0  0  0  0  0  0  0  0  0  0  0
   -6.1093    3.7761    1.1239 H   0  0  0  0  0  0  0  0  0  0  0  0
   -6.4049    3.5893   -0.6495 H   0  0  0  0  0  0  0  0  0  0  0  0
   -5.2692    1.7152    0.2894 H   0  0  0  0  0  0  0  0  0  0  0  0
   -3.7187   -0.1477    0.1828 H   0  0  0  0  0  0  0  0  0  0  0  0
    2.2720    1.1127   -2.1974 H   0  0  0  0  0  0  0  0  0  0  0  0
    2.4656    1.4584   -0.4645 H   0  0  0  0  0  0  0  0  0  0  0  0
    4.6190    0.3225   -2.3195 H   0  0  0  0  0  0  0  0  0  0  0  0
    4.5248    1.9936   -1.8180 H   0  0  0  0  0  0  0  0  0  0  0  0
  1  2  1  0
  2  3  1  0
  3  4  1  0
  4  5  1  0
  5  6  1  0
  6  7  1  0
  7  8  2  0
  8  9  1  0
  9 10  1  0
 10 11  1  0
 11 12  1  0
 11 13  1  0
  9 14  2  0
 14 15  1  0
 15 16  1  0
 16 17  2  0
 17 18  1  0
 18 19  2  0
 19 20  1  0
 20 21  1  0
 19 22  1  0
 22 23  2  0
 15 24  2  0
  6 25  1  0
 25 26  1  0
 26  3  1  0
 24  7  1  0
 23 16  1  0
  1 27  1  0
  1 28  1  0
  1 29  1  0
  2 30  1  0
  2 31  1  0
  4 32  1  0
  4 33  1  0
  5 34  1  0
  5 35  1  0
  8 36  1  0
 11 37  1  0
 12 38  1  0
 12 39  1  0
 12 40  1  0
 13 41  1  0
 13 42  1  0
 13 43  1  0
 17 44  1  0
 18 45  1  0
 21 46  1  0
 21 47  1  0
 21 48  1  0
 22 49  1  0
 23 50  1  0
 25 51  1  0
 25 52  1  0
 26 53  1  0
 26 54  1  0
M  END
$$$$
