
     RDKit          3D

 43 45  0  0  0  0  0  0  0  0999 V2000
    5.8971   -2.2449   -1.1099 C   0  0  0  0  0  0  0  0  0  0  0  0
    6.2533   -0.8874   -1.3358 O   0  0  0  0  0  0  0  0  0  0  0  0
    5.3442    0.0651   -0.9642 C   0  0  0  0  0  0  0  0  0  0  0  0
    5.7789    1.3796   -1.1333 C   0  0  0  0  0  0  0  0  0  0  0  0
    4.9449    2.4458   -0.8043 C   0  0  0  0  0  0  0  0  0  0  0  0
    3.6683    2.2031   -0.2943 C   0  0  0  0  0  0  0  0  0  0  0  0
    3.2247    0.8952   -0.0955 C   0  0  0  0  0  0  0  0  0  0  0  0
    1.9321    0.5708    0.3751 N   0  0  0  0  0  0  0  0  0  0  0  0
    1.0395    1.2908    1.1596 C   0  0  0  0  0  0  0  0  0  0  0  0
    1.4652    2.5321    2.2114 S   0  0  0  0  0  0  0  0  0  0  0  0
   -0.2791    0.8114    1.0308 N   0  0  0  0  0  0  0  0  0  0  0  0
   -1.3532    1.1896    1.9759 C   0  0  0  0  0  0  0  0  0  0  0  0
   -2.5789    0.2641    1.8864 C   0  0  0  0  0  0  0  0  0  0  0  0
   -3.1385    0.2785    0.5256 N   0  0  0  0  0  0  0  0  0  0  0  0
   -4.2885   -0.4834    0.3384 C   0  0  0  0  0  0  0  0  0  0  0  0
   -5.0188   -0.3978   -0.8491 C   0  0  0  0  0  0  0  0  0  0  0  0
   -6.1792   -1.1536   -1.0169 C   0  0  0  0  0  0  0  0  0  0  0  0
   -6.6013   -1.9803    0.0107 C   0  0  0  0  0  0  0  0  0  0  0  0
   -5.8430   -2.0051    1.1644 C   0  0  0  0  0  0  0  0  0  0  0  0
   -4.7157   -1.2798    1.3436 N   0  0  0  0  0  0  0  0  0  0  0  0
   -2.1765    0.3869   -0.5820 C   0  0  0  0  0  0  0  0  0  0  0  0
   -0.7372    0.0446   -0.1448 C   0  0  0  0  0  0  0  0  0  0  0  0
    4.0635   -0.1722   -0.4565 C   0  0  0  0  0  0  0  0  0  0  0  0
    6.7404   -2.8684   -1.4223 H   0  0  0  0  0  0  0  0  0  0  0  0
    5.0304   -2.5299   -1.7152 H   0  0  0  0  0  0  0  0  0  0  0  0
    5.7176   -2.4358   -0.0466 H   0  0  0  0  0  0  0  0  0  0  0  0
    6.7724    1.5739   -1.5299 H   0  0  0  0  0  0  0  0  0  0  0  0
    5.2843    3.4677   -0.9522 H   0  0  0  0  0  0  0  0  0  0  0  0
    3.0303    3.0575   -0.0936 H   0  0  0  0  0  0  0  0  0  0  0  0
    1.6900   -0.4090    0.3151 H   0  0  0  0  0  0  0  0  0  0  0  0
   -1.6461    2.2198    1.7386 H   0  0  0  0  0  0  0  0  0  0  0  0
   -0.9606    1.1685    2.9978 H   0  0  0  0  0  0  0  0  0  0  0  0
   -2.2768   -0.7545    2.1639 H   0  0  0  0  0  0  0  0  0  0  0  0
   -3.3286    0.6115    2.6080 H   0  0  0  0  0  0  0  0  0  0  0  0
   -4.7094    0.2765   -1.6402 H   0  0  0  0  0  0  0  0  0  0  0  0
   -6.7491   -1.0834   -1.9385 H   0  0  0  0  0  0  0  0  0  0  0  0
   -7.4996   -2.5795   -0.0790 H   0  0  0  0  0  0  0  0  0  0  0  0
   -6.1283   -2.6263    2.0082 H   0  0  0  0  0  0  0  0  0  0  0  0
   -2.2040    1.4189   -0.9520 H   0  0  0  0  0  0  0  0  0  0  0  0
   -2.4304   -0.2697   -1.4228 H   0  0  0  0  0  0  0  0  0  0  0  0
   -0.6752   -1.0152    0.1309 H   0  0  0  0  0  0  0  0  0  0  0  0
   -0.0655    0.2112   -0.9932 H   0  0  0  0  0  0  0  0  0  0  0  0
    3.7067   -1.1869   -0.3218 H   0  0  0  0  0  0  0  0  0  0  0  0
  1  2  1  0
  2  3  1  0
  3  4  2  0
  4  5  1  0
  5  6  2  0
  6  7  1  0
  7  8  1  0
  8  9  1  0
  9 10  2  0
  9 11  1  0
 11 12  1  0
 12 13  1  0
 13 14  1  0
 14 15  1  0
 15 16  2  0
 16 17  1  0
 17 18  2  0
 18 19  1  0
 19 20  2  0
 14 21  1  0
 21 22  1  0
  7 23  2  0
 23  3  1  0
 22 11  1  0
 20 15  1  0
  1 24  1  0
  1 25  1  0
  1 26  1  0
  4 27  1  0
  5 28  1  0
  6 29  1  0
  8 30  1  0
 12 31  1  0
 12 32  1  0
 13 33  1  0
 13 34  1  0
 16 35  1  0
 17 36  1  0
 18 37  1  0
 19 38  1  0
 21 39  1  0
 21 40  1  0
 22 41  1  0
 22 42  1  0
 23 43  1  0
M  END
$$$$
