
     RDKit          3D

 38 42  0  0  0  0  0  0  0  0999 V2000
    0.6345   -1.8204    1.8378 O   0  0  0  0  0  0  0  0  0  0  0  0
    0.0066   -0.7959    1.2741 C   0  0  0  0  0  0  0  0  0  0  0  0
   -1.2384   -0.6827    0.7147 C   0  0  0  0  0  0  0  0  0  0  0  0
   -1.4058    0.6774    0.2744 C   0  0  0  0  0  0  0  0  0  0  0  0
   -0.2592    1.3635    0.5750 C   0  0  0  0  0  0  0  0  0  0  0  0
    0.0864    2.6324    0.3964 O   0  0  0  0  0  0  0  0  0  0  0  0
    0.6084    0.4505    1.1603 N   0  0  0  0  0  0  0  0  0  0  0  0
    1.9456    0.7717    1.6439 C   0  0  0  0  0  0  0  0  0  0  0  0
    2.9960    0.5568    0.5810 C   0  0  0  0  0  0  0  0  0  0  0  0
    3.6260   -0.6884    0.4415 C   0  0  0  0  0  0  0  0  0  0  0  0
    4.5936   -0.8878   -0.5445 C   0  0  0  0  0  0  0  0  0  0  0  0
    4.9384    0.1531   -1.4046 C   0  0  0  0  0  0  0  0  0  0  0  0
    4.3131    1.3926   -1.2825 C   0  0  0  0  0  0  0  0  0  0  0  0
    3.3454    1.5933   -0.2969 C   0  0  0  0  0  0  0  0  0  0  0  0
   -2.7637    0.9385   -0.3692 C   0  0  0  0  0  0  0  0  0  0  0  0
   -3.7909    0.4783    0.6975 C   0  0  0  0  0  0  0  0  0  0  0  0
   -3.6328   -0.8059    1.1132 C   0  0  0  0  0  0  0  0  0  0  0  0
   -2.4563   -1.5583    0.4391 C   0  0  0  0  0  0  0  0  0  0  0  0
   -2.6554   -1.5045   -1.1102 C   0  0  0  0  0  0  0  0  0  0  0  0
   -3.9190   -1.0735   -1.8260 C   0  0  0  0  0  0  0  0  0  0  0  0
   -2.8353   -0.0433   -1.5832 C   0  0  0  0  0  0  0  0  0  0  0  0
    0.0272   -2.5794    1.8002 H   0  0  0  0  0  0  0  0  0  0  0  0
   -0.6686    3.0735   -0.0299 H   0  0  0  0  0  0  0  0  0  0  0  0
    1.9464    1.8117    1.9909 H   0  0  0  0  0  0  0  0  0  0  0  0
    2.1503    0.1551    2.5271 H   0  0  0  0  0  0  0  0  0  0  0  0
    3.3570   -1.5125    1.0995 H   0  0  0  0  0  0  0  0  0  0  0  0
    5.0740   -1.8574   -0.6437 H   0  0  0  0  0  0  0  0  0  0  0  0
    5.6896   -0.0034   -2.1737 H   0  0  0  0  0  0  0  0  0  0  0  0
    4.5746    2.2028   -1.9577 H   0  0  0  0  0  0  0  0  0  0  0  0
    2.8559    2.5622   -0.2192 H   0  0  0  0  0  0  0  0  0  0  0  0
   -2.9078    1.9792   -0.6679 H   0  0  0  0  0  0  0  0  0  0  0  0
   -4.5559    1.1458    1.0687 H   0  0  0  0  0  0  0  0  0  0  0  0
   -4.2568   -1.2839    1.8553 H   0  0  0  0  0  0  0  0  0  0  0  0
   -2.3465   -2.5805    0.8083 H   0  0  0  0  0  0  0  0  0  0  0  0
   -1.9356   -2.1152   -1.6420 H   0  0  0  0  0  0  0  0  0  0  0  0
   -4.0563   -1.4206   -2.8458 H   0  0  0  0  0  0  0  0  0  0  0  0
   -4.8533   -1.0124   -1.2820 H   0  0  0  0  0  0  0  0  0  0  0  0
   -2.2313    0.2874   -2.4198 H   0  0  0  0  0  0  0  0  0  0  0  0
  1  2  1  0
  2  3  2  0
  3  4  1  0
  4  5  2  0
  5  6  1  0
  5  7  1  0
  7  8  1  0
  8  9  1  0
  9 10  2  0
 10 11  1  0
 11 12  2  0
 12 13  1  0
 13 14  2  0
  4 15  1  0
 15 16  1  0
 16 17  2  0
 17 18  1  0
 18 19  1  0
 19 20  1  0
 20 21  1  0
  7  2  1  0
 14  9  1  0
 21 15  1  0
 18  3  1  0
 21 19  1  0
  1 22  1  0
  6 23  1  0
  8 24  1  0
  8 25  1  0
 10 26  1  0
 11 27  1  0
 12 28  1  0
 13 29  1  0
 14 30  1  0
 15 31  1  0
 16 32  1  0
 17 33  1  0
 18 34  1  0
 19 35  1  0
 20 36  1  0
 20 37  1  0
 21 38  1  0
M  END
$$$$
