
     RDKit          3D

 48 52  0  0  0  0  0  0  0  0999 V2000
    5.2647   -0.8953   -2.1385 C   0  0  0  0  0  0  0  0  0  0  0  0
    4.0534   -0.5903   -1.3087 C   0  0  0  0  0  0  0  0  0  0  0  0
    2.8477   -0.2323   -1.9194 C   0  0  0  0  0  0  0  0  0  0  0  0
    1.7259    0.0792   -1.1466 C   0  0  0  0  0  0  0  0  0  0  0  0
    1.7883    0.0601    0.2575 C   0  0  0  0  0  0  0  0  0  0  0  0
    0.6014    0.3989    1.1337 C   0  0  0  0  0  0  0  0  0  0  0  0
    0.1873    1.7812    0.8032 C   0  0  0  0  0  0  0  0  0  0  0  0
   -1.1560    1.8168    0.3972 C   0  0  0  0  0  0  0  0  0  0  0  0
   -1.4590    3.0962    0.0174 C   0  0  0  0  0  0  0  0  0  0  0  0
   -2.5344    3.6088   -0.5660 O   0  0  0  0  0  0  0  0  0  0  0  0
   -0.3476    3.8642    0.3092 N   0  0  0  0  0  0  0  0  0  0  0  0
   -0.2464    5.2898    0.0948 C   0  0  0  0  0  0  0  0  0  0  0  0
    0.6889    3.0562    0.7452 C   0  0  0  0  0  0  0  0  0  0  0  0
    1.8948    3.5522    0.9894 O   0  0  0  0  0  0  0  0  0  0  0  0
   -1.7854    0.4767    0.4477 C   0  0  0  0  0  0  0  0  0  0  0  0
   -2.4404    0.0790   -0.8656 C   0  0  0  0  0  0  0  0  0  0  0  0
   -2.8368    0.9061   -1.6964 O   0  0  0  0  0  0  0  0  0  0  0  0
   -2.7980   -1.2252   -1.0618 N   0  0  0  0  0  0  0  0  0  0  0  0
   -2.7889   -2.2968   -0.1506 C   0  0  0  0  0  0  0  0  0  0  0  0
   -3.7486   -3.2919   -0.4290 C   0  0  0  0  0  0  0  0  0  0  0  0
   -3.9255   -4.3944    0.4076 C   0  0  0  0  0  0  0  0  0  0  0  0
   -3.1322   -4.5336    1.5349 C   0  0  0  0  0  0  0  0  0  0  0  0
   -2.1501   -3.5813    1.8034 C   0  0  0  0  0  0  0  0  0  0  0  0
   -1.9544   -2.4592    0.9669 C   0  0  0  0  0  0  0  0  0  0  0  0
   -0.7499   -1.6426    1.2906 C   0  0  0  0  0  0  0  0  0  0  0  0
    0.1287   -2.1450    1.9918 O   0  0  0  0  0  0  0  0  0  0  0  0
   -0.6257   -0.3666    0.7987 N   0  0  0  0  0  0  0  0  0  0  0  0
    3.0053   -0.2966    0.8608 C   0  0  0  0  0  0  0  0  0  0  0  0
    4.1261   -0.6108    0.0874 C   0  0  0  0  0  0  0  0  0  0  0  0
    5.8301    0.0225   -2.3266 H   0  0  0  0  0  0  0  0  0  0  0  0
    5.9157   -1.6145   -1.6302 H   0  0  0  0  0  0  0  0  0  0  0  0
    4.9794   -1.3385   -3.0984 H   0  0  0  0  0  0  0  0  0  0  0  0
    2.7707   -0.1943   -3.0037 H   0  0  0  0  0  0  0  0  0  0  0  0
    0.8015    0.3507   -1.6523 H   0  0  0  0  0  0  0  0  0  0  0  0
    0.8181    0.2980    2.2036 H   0  0  0  0  0  0  0  0  0  0  0  0
   -2.9935    2.8631   -1.0078 H   0  0  0  0  0  0  0  0  0  0  0  0
    0.4097    5.7222    0.8545 H   0  0  0  0  0  0  0  0  0  0  0  0
    0.1629    5.4551   -0.9048 H   0  0  0  0  0  0  0  0  0  0  0  0
   -1.2373    5.7426    0.1814 H   0  0  0  0  0  0  0  0  0  0  0  0
    2.4987    2.7958    1.1055 H   0  0  0  0  0  0  0  0  0  0  0  0
   -2.5264    0.4232    1.2538 H   0  0  0  0  0  0  0  0  0  0  0  0
   -3.3611   -1.3263   -1.8994 H   0  0  0  0  0  0  0  0  0  0  0  0
   -4.3988   -3.2078   -1.2985 H   0  0  0  0  0  0  0  0  0  0  0  0
   -4.6830   -5.1398    0.1770 H   0  0  0  0  0  0  0  0  0  0  0  0
   -3.2545   -5.3909    2.1924 H   0  0  0  0  0  0  0  0  0  0  0  0
   -1.5057   -3.7363    2.6693 H   0  0  0  0  0  0  0  0  0  0  0  0
    3.0856   -0.3466    1.9453 H   0  0  0  0  0  0  0  0  0  0  0  0
    5.0549   -0.8817    0.5845 H   0  0  0  0  0  0  0  0  0  0  0  0
  1  2  1  0
  2  3  2  0
  3  4  1  0
  4  5  2  0
  5  6  1  0
  6  7  1  0
  7  8  1  0
  8  9  2  0
  9 10  1  0
  9 11  1  0
 11 12  1  0
 11 13  1  0
 13 14  1  0
  8 15  1  0
 15 16  1  0
 16 17  2  0
 16 18  1  0
 18 19  1  0
 19 20  2  0
 20 21  1  0
 21 22  2  0
 22 23  1  0
 23 24  2  0
 24 25  1  0
 25 26  2  0
 25 27  1  0
  5 28  1  0
 28 29  2  0
 29  2  1  0
 27  6  1  0
 13  7  2  0
 27 15  1  0
 24 19  1  0
  1 30  1  0
  1 31  1  0
  1 32  1  0
  3 33  1  0
  4 34  1  0
  6 35  1  0
 10 36  1  0
 12 37  1  0
 12 38  1  0
 12 39  1  0
 14 40  1  0
 15 41  1  0
 18 42  1  0
 20 43  1  0
 21 44  1  0
 22 45  1  0
 23 46  1  0
 28 47  1  0
 29 48  1  0
M  END
$$$$
