
     RDKit          3D

 61 65  0  0  0  0  0  0  0  0999 V2000
    5.8044    2.6954    3.1357 C   0  0  0  0  0  0  0  0  0  0  0  0
    5.7476    2.9516    1.7379 O   0  0  0  0  0  0  0  0  0  0  0  0
    4.6059    2.5729    1.0870 C   0  0  0  0  0  0  0  0  0  0  0  0
    4.6227    2.7825   -0.2928 C   0  0  0  0  0  0  0  0  0  0  0  0
    3.5219    2.4379   -1.0809 C   0  0  0  0  0  0  0  0  0  0  0  0
    2.3771    1.8808   -0.4981 C   0  0  0  0  0  0  0  0  0  0  0  0
    1.1899    1.4842   -1.3538 C   0  0  0  0  0  0  0  0  0  0  0  0
    1.3100    0.1254   -1.8808 N   0  0  0  0  0  0  0  0  0  0  0  0
    2.0270   -0.0342   -3.0775 C   0  0  0  0  0  0  0  0  0  0  0  0
    2.3249    0.9104   -3.8119 O   0  0  0  0  0  0  0  0  0  0  0  0
    2.3313   -1.4970   -3.4694 C   0  0  0  0  0  0  0  0  0  0  0  0
    3.4401   -1.5677   -4.5134 C   0  0  0  0  0  0  0  0  0  0  0  0
    2.7359   -2.2658   -2.2966 N   0  0  0  0  0  0  0  0  0  0  0  0
    1.7908   -2.1944   -1.2689 C   0  0  0  0  0  0  0  0  0  0  0  0
    1.6893   -3.2984   -0.5186 N   0  0  0  0  0  0  0  0  0  0  0  0
    0.8361   -3.2233    0.5019 C   0  0  0  0  0  0  0  0  0  0  0  0
    0.0415   -2.1864    0.7911 N   0  0  0  0  0  0  0  0  0  0  0  0
    0.1123   -1.0999   -0.0051 C   0  0  0  0  0  0  0  0  0  0  0  0
   -0.8746   -0.1124    0.1795 N   0  0  0  0  0  0  0  0  0  0  0  0
   -1.4796   -0.0830    1.5361 C   0  0  0  0  0  0  0  0  0  0  0  0
   -2.7382    0.8106    1.5494 C   0  0  0  0  0  0  0  0  0  0  0  0
   -3.7929    0.2821    0.6503 N   0  0  0  0  0  0  0  0  0  0  0  0
   -4.9509   -0.2732    1.2156 C   0  0  0  0  0  0  0  0  0  0  0  0
   -4.9842   -0.8939    2.4712 C   0  0  0  0  0  0  0  0  0  0  0  0
   -6.1670   -1.4461    2.9761 C   0  0  0  0  0  0  0  0  0  0  0  0
   -7.3410   -1.3877    2.2316 C   0  0  0  0  0  0  0  0  0  0  0  0
   -7.3321   -0.7795    0.9814 C   0  0  0  0  0  0  0  0  0  0  0  0
   -6.1473   -0.2322    0.4816 C   0  0  0  0  0  0  0  0  0  0  0  0
   -3.2803   -0.5462   -0.4745 C   0  0  0  0  0  0  0  0  0  0  0  0
   -1.8746   -0.0898   -0.9280 C   0  0  0  0  0  0  0  0  0  0  0  0
    1.0564   -1.0221   -1.0427 C   0  0  0  0  0  0  0  0  0  0  0  0
    2.3658    1.6724    0.8873 C   0  0  0  0  0  0  0  0  0  0  0  0
    3.4713    2.0159    1.6749 C   0  0  0  0  0  0  0  0  0  0  0  0
    5.7190    1.6242    3.3457 H   0  0  0  0  0  0  0  0  0  0  0  0
    5.0401    3.2667    3.6730 H   0  0  0  0  0  0  0  0  0  0  0  0
    6.7825    3.0272    3.4967 H   0  0  0  0  0  0  0  0  0  0  0  0
    5.5040    3.2128   -0.7615 H   0  0  0  0  0  0  0  0  0  0  0  0
    3.5680    2.6043   -2.1552 H   0  0  0  0  0  0  0  0  0  0  0  0
    1.1187    2.1884   -2.1931 H   0  0  0  0  0  0  0  0  0  0  0  0
    0.2661    1.6450   -0.8017 H   0  0  0  0  0  0  0  0  0  0  0  0
    1.4161   -1.9221   -3.9033 H   0  0  0  0  0  0  0  0  0  0  0  0
    3.6718   -2.6067   -4.7706 H   0  0  0  0  0  0  0  0  0  0  0  0
    4.3609   -1.1009   -4.1464 H   0  0  0  0  0  0  0  0  0  0  0  0
    3.1470   -1.0495   -5.4323 H   0  0  0  0  0  0  0  0  0  0  0  0
    2.9928   -3.2380   -2.4368 H   0  0  0  0  0  0  0  0  0  0  0  0
    0.7649   -4.0907    1.1490 H   0  0  0  0  0  0  0  0  0  0  0  0
   -0.7449    0.3191    2.2429 H   0  0  0  0  0  0  0  0  0  0  0  0
   -1.7710   -1.0837    1.8789 H   0  0  0  0  0  0  0  0  0  0  0  0
   -3.0945    0.9605    2.5747 H   0  0  0  0  0  0  0  0  0  0  0  0
   -2.4679    1.8091    1.1808 H   0  0  0  0  0  0  0  0  0  0  0  0
   -4.0862   -0.9839    3.0740 H   0  0  0  0  0  0  0  0  0  0  0  0
   -6.1666   -1.9255    3.9516 H   0  0  0  0  0  0  0  0  0  0  0  0
   -8.2593   -1.8139    2.6249 H   0  0  0  0  0  0  0  0  0  0  0  0
   -8.2441   -0.7223    0.3944 H   0  0  0  0  0  0  0  0  0  0  0  0
   -6.1631    0.2555   -0.4898 H   0  0  0  0  0  0  0  0  0  0  0  0
   -3.2279   -1.6021   -0.1747 H   0  0  0  0  0  0  0  0  0  0  0  0
   -3.9612   -0.4723   -1.3309 H   0  0  0  0  0  0  0  0  0  0  0  0
   -1.5658   -0.7021   -1.7843 H   0  0  0  0  0  0  0  0  0  0  0  0
   -1.9431    0.9436   -1.2899 H   0  0  0  0  0  0  0  0  0  0  0  0
    1.4932    1.2359    1.3671 H   0  0  0  0  0  0  0  0  0  0  0  0
    3.4114    1.8326    2.7419 H   0  0  0  0  0  0  0  0  0  0  0  0
  1  2  1  0
  2  3  1  0
  3  4  2  0
  4  5  1  0
  5  6  2  0
  6  7  1  0
  7  8  1  0
  8  9  1  0
  9 10  2  0
  9 11  1  0
 11 12  1  0
 11 13  1  0
 13 14  1  0
 14 15  2  0
 15 16  1  0
 16 17  2  0
 17 18  1  0
 18 19  1  0
 19 20  1  0
 20 21  1  0
 21 22  1  0
 22 23  1  0
 23 24  2  0
 24 25  1  0
 25 26  2  0
 26 27  1  0
 27 28  2  0
 22 29  1  0
 29 30  1  0
 18 31  2  0
  6 32  1  0
 32 33  2  0
 33  3  1  0
 31  8  1  0
 31 14  1  0
 30 19  1  0
 28 23  1  0
  1 34  1  0
  1 35  1  0
  1 36  1  0
  4 37  1  0
  5 38  1  0
  7 39  1  0
  7 40  1  0
 11 41  1  0
 12 42  1  0
 12 43  1  0
 12 44  1  0
 13 45  1  0
 16 46  1  0
 20 47  1  0
 20 48  1  0
 21 49  1  0
 21 50  1  0
 24 51  1  0
 25 52  1  0
 26 53  1  0
 27 54  1  0
 28 55  1  0
 29 56  1  0
 29 57  1  0
 30 58  1  0
 30 59  1  0
 32 60  1  0
 33 61  1  0
M  END
$$$$
