
     RDKit          3D

 42 45  0  0  0  0  0  0  0  0999 V2000
    5.0705   -0.4552   -1.8999 C   0  0  0  0  0  0  0  0  0  0  0  0
    5.5148   -0.1783   -0.5432 N   0  0  0  0  0  0  0  0  0  0  0  0
    6.3362   -1.2107    0.0709 C   0  0  0  0  0  0  0  0  0  0  0  0
    4.8223    0.7967    0.1709 C   0  0  0  0  0  0  0  0  0  0  0  0
    3.9778    1.5224   -0.3650 O   0  0  0  0  0  0  0  0  0  0  0  0
    5.1397    1.0034    1.6446 C   0  0  0  0  0  0  0  0  0  0  0  0
    4.3784   -0.2475    2.7155 S   0  0  0  0  0  0  0  0  0  0  0  0
    2.7484   -0.2603    2.0826 C   0  0  0  0  0  0  0  0  0  0  0  0
    2.3659   -1.2168    1.2712 N   0  0  0  0  0  0  0  0  0  0  0  0
    1.0538   -0.9975    0.8929 C   0  0  0  0  0  0  0  0  0  0  0  0
    0.3004   -1.7930    0.0164 C   0  0  0  0  0  0  0  0  0  0  0  0
   -1.0298   -1.4464   -0.2765 C   0  0  0  0  0  0  0  0  0  0  0  0
   -1.6524   -0.3193    0.2808 C   0  0  0  0  0  0  0  0  0  0  0  0
   -3.0113    0.0149   -0.0341 N   0  0  0  0  0  0  0  0  0  0  0  0
   -3.8125   -0.6699   -0.9299 C   0  0  0  0  0  0  0  0  0  0  0  0
   -3.6098   -1.6457   -1.6307 O   0  0  0  0  0  0  0  0  0  0  0  0
   -5.1089   -0.0016   -0.9537 C   0  0  0  0  0  0  0  0  0  0  0  0
   -6.2504   -0.2878   -1.6799 C   0  0  0  0  0  0  0  0  0  0  0  0
   -7.3579    0.5444   -1.4903 C   0  0  0  0  0  0  0  0  0  0  0  0
   -7.2986    1.6280   -0.5914 C   0  0  0  0  0  0  0  0  0  0  0  0
   -6.1310    1.8944    0.1302 C   0  0  0  0  0  0  0  0  0  0  0  0
   -5.0509    1.0561   -0.0771 C   0  0  0  0  0  0  0  0  0  0  0  0
   -3.7180    1.0696    0.5150 C   0  0  0  0  0  0  0  0  0  0  0  0
   -3.4200    1.9122    1.3428 O   0  0  0  0  0  0  0  0  0  0  0  0
   -0.8910    0.4735    1.1614 C   0  0  0  0  0  0  0  0  0  0  0  0
    0.4446    0.1235    1.4513 C   0  0  0  0  0  0  0  0  0  0  0  0
    1.5764    0.9168    2.4813 S   0  0  0  0  0  0  0  0  0  0  0  0
    4.6077    0.4213   -2.3617 H   0  0  0  0  0  0  0  0  0  0  0  0
    5.9286   -0.7549   -2.5086 H   0  0  0  0  0  0  0  0  0  0  0  0
    4.3381   -1.2677   -1.8688 H   0  0  0  0  0  0  0  0  0  0  0  0
    7.1076   -1.5267   -0.6378 H   0  0  0  0  0  0  0  0  0  0  0  0
    5.6989   -2.0642    0.3202 H   0  0  0  0  0  0  0  0  0  0  0  0
    6.8337   -0.8542    0.9734 H   0  0  0  0  0  0  0  0  0  0  0  0
    4.7661    1.9909    1.9390 H   0  0  0  0  0  0  0  0  0  0  0  0
    6.2218    1.0303    1.8000 H   0  0  0  0  0  0  0  0  0  0  0  0
    0.7506   -2.6731   -0.4327 H   0  0  0  0  0  0  0  0  0  0  0  0
   -1.5494   -2.1108   -0.9610 H   0  0  0  0  0  0  0  0  0  0  0  0
   -6.2815   -1.1259   -2.3691 H   0  0  0  0  0  0  0  0  0  0  0  0
   -8.2768    0.3547   -2.0425 H   0  0  0  0  0  0  0  0  0  0  0  0
   -8.1724    2.2637   -0.4586 H   0  0  0  0  0  0  0  0  0  0  0  0
   -6.0709    2.7252    0.8263 H   0  0  0  0  0  0  0  0  0  0  0  0
   -1.2886    1.3656    1.6314 H   0  0  0  0  0  0  0  0  0  0  0  0
  1  2  1  0
  2  3  1  0
  2  4  1  0
  4  5  2  0
  4  6  1  0
  6  7  1  0
  7  8  1  0
  8  9  2  0
  9 10  1  0
 10 11  2  0
 11 12  1  0
 12 13  2  0
 13 14  1  0
 14 15  1  0
 15 16  2  0
 15 17  1  0
 17 18  2  0
 18 19  1  0
 19 20  2  0
 20 21  1  0
 21 22  2  0
 22 23  1  0
 23 24  2  0
 13 25  1  0
 25 26  2  0
 26 27  1  0
 27  8  1  0
 26 10  1  0
 23 14  1  0
 22 17  1  0
  1 28  1  0
  1 29  1  0
  1 30  1  0
  3 31  1  0
  3 32  1  0
  3 33  1  0
  6 34  1  0
  6 35  1  0
 11 36  1  0
 12 37  1  0
 18 38  1  0
 19 39  1  0
 20 40  1  0
 21 41  1  0
 25 42  1  0
M  END
$$$$
