
     RDKit          3D

 45 46  0  0  0  0  0  0  0  0999 V2000
    4.1942   -3.5757    2.0619 C   0  0  0  0  0  0  0  0  0  0  0  0
    3.6699   -3.0430    0.7611 C   0  0  0  0  0  0  0  0  0  0  0  0
    4.1759   -3.5114   -0.4554 C   0  0  0  0  0  0  0  0  0  0  0  0
    3.6896   -3.0039   -1.6588 C   0  0  0  0  0  0  0  0  0  0  0  0
    2.7100   -2.0092   -1.6536 C   0  0  0  0  0  0  0  0  0  0  0  0
    2.2254   -1.4958   -0.4459 C   0  0  0  0  0  0  0  0  0  0  0  0
    1.2133   -0.5136   -0.5125 N   0  0  0  0  0  0  0  0  0  0  0  0
    0.8389    0.4467    0.4162 C   0  0  0  0  0  0  0  0  0  0  0  0
    1.9267    1.1680    1.4853 S   0  0  0  0  0  0  0  0  0  0  0  0
   -0.5195    0.8179    0.3052 N   0  0  0  0  0  0  0  0  0  0  0  0
   -1.0524    2.0465    0.9354 C   0  0  0  0  0  0  0  0  0  0  0  0
   -0.8347    3.3033    0.0605 C   0  0  0  0  0  0  0  0  0  0  0  0
   -1.5881    3.2956   -1.2155 N   0  0  0  0  0  0  0  0  0  0  0  0
   -1.0316    4.3007   -2.1265 C   0  0  0  0  0  0  0  0  0  0  0  0
   -3.0111    3.5692   -0.9977 C   0  0  0  0  0  0  0  0  0  0  0  0
   -1.5231   -0.0253   -0.3662 C   0  0  0  0  0  0  0  0  0  0  0  0
   -2.2316   -0.8870    0.6434 C   0  0  0  0  0  0  0  0  0  0  0  0
   -3.4740   -0.6886    1.2170 C   0  0  0  0  0  0  0  0  0  0  0  0
   -3.8252   -1.7244    2.1299 C   0  0  0  0  0  0  0  0  0  0  0  0
   -2.8451   -2.6865    2.2177 C   0  0  0  0  0  0  0  0  0  0  0  0
   -1.5152   -2.3432    1.2011 S   0  0  0  0  0  0  0  0  0  0  0  0
    2.6966   -2.0313    0.7557 C   0  0  0  0  0  0  0  0  0  0  0  0
    3.4032   -3.6023    2.8188 H   0  0  0  0  0  0  0  0  0  0  0  0
    5.0109   -2.9431    2.4228 H   0  0  0  0  0  0  0  0  0  0  0  0
    4.5660   -4.5991    1.9456 H   0  0  0  0  0  0  0  0  0  0  0  0
    4.9442   -4.2809   -0.4718 H   0  0  0  0  0  0  0  0  0  0  0  0
    4.0750   -3.3818   -2.6019 H   0  0  0  0  0  0  0  0  0  0  0  0
    2.3467   -1.6303   -2.6046 H   0  0  0  0  0  0  0  0  0  0  0  0
    0.8672   -0.3202   -1.4425 H   0  0  0  0  0  0  0  0  0  0  0  0
   -2.1138    1.9108    1.1645 H   0  0  0  0  0  0  0  0  0  0  0  0
   -0.5702    2.2055    1.9045 H   0  0  0  0  0  0  0  0  0  0  0  0
    0.2379    3.3701   -0.1606 H   0  0  0  0  0  0  0  0  0  0  0  0
   -1.0881    4.1973    0.6451 H   0  0  0  0  0  0  0  0  0  0  0  0
    0.0168    4.0765   -2.3532 H   0  0  0  0  0  0  0  0  0  0  0  0
   -1.0876    5.3130   -1.7100 H   0  0  0  0  0  0  0  0  0  0  0  0
   -1.5648    4.2902   -3.0838 H   0  0  0  0  0  0  0  0  0  0  0  0
   -3.5528    3.5534   -1.9504 H   0  0  0  0  0  0  0  0  0  0  0  0
   -3.4740    2.7998   -0.3723 H   0  0  0  0  0  0  0  0  0  0  0  0
   -3.1782    4.5440   -0.5253 H   0  0  0  0  0  0  0  0  0  0  0  0
   -2.2407    0.6204   -0.8828 H   0  0  0  0  0  0  0  0  0  0  0  0
   -1.0822   -0.6612   -1.1383 H   0  0  0  0  0  0  0  0  0  0  0  0
   -4.1021    0.1656    0.9952 H   0  0  0  0  0  0  0  0  0  0  0  0
   -4.7492   -1.7626    2.6935 H   0  0  0  0  0  0  0  0  0  0  0  0
   -2.8440   -3.5787    2.8284 H   0  0  0  0  0  0  0  0  0  0  0  0
    2.2911   -1.6953    1.7059 H   0  0  0  0  0  0  0  0  0  0  0  0
  1  2  1  0
  2  3  2  0
  3  4  1  0
  4  5  2  0
  5  6  1  0
  6  7  1  0
  7  8  1  0
  8  9  2  0
  8 10  1  0
 10 11  1  0
 11 12  1  0
 12 13  1  0
 13 14  1  0
 13 15  1  0
 10 16  1  0
 16 17  1  0
 17 18  2  0
 18 19  1  0
 19 20  2  0
 20 21  1  0
  6 22  2  0
 22  2  1  0
 21 17  1  0
  1 23  1  0
  1 24  1  0
  1 25  1  0
  3 26  1  0
  4 27  1  0
  5 28  1  0
  7 29  1  0
 11 30  1  0
 11 31  1  0
 12 32  1  0
 12 33  1  0
 14 34  1  0
 14 35  1  0
 14 36  1  0
 15 37  1  0
 15 38  1  0
 15 39  1  0
 16 40  1  0
 16 41  1  0
 18 42  1  0
 19 43  1  0
 20 44  1  0
 22 45  1  0
M  END
$$$$
