
     RDKit          3D

 34 35  0  0  0  0  0  0  0  0999 V2000
   -1.3171    1.5140    1.3554 O   0  0  0  0  0  0  0  0  0  0  0  0
   -0.8815    1.3557    0.2180 C   0  0  0  0  0  0  0  0  0  0  0  0
    0.1953    2.2732   -0.3631 C   0  0  0  0  0  0  0  0  0  0  0  0
    1.5198    1.8561   -0.0278 O   0  0  0  0  0  0  0  0  0  0  0  0
    1.9804    0.8097   -0.7517 C   0  0  0  0  0  0  0  0  0  0  0  0
    1.3571    0.2363   -1.6308 O   0  0  0  0  0  0  0  0  0  0  0  0
    3.3458    0.4338   -0.3295 C   0  0  0  0  0  0  0  0  0  0  0  0
    4.0443    1.0769    0.6969 C   0  0  0  0  0  0  0  0  0  0  0  0
    5.3307    0.6458    1.0233 C   0  0  0  0  0  0  0  0  0  0  0  0
    5.8660   -0.4127    0.3077 C   0  0  0  0  0  0  0  0  0  0  0  0
    7.4397   -0.9993    0.6469 Cl  0  0  0  0  0  0  0  0  0  0  0  0
    5.2237   -1.0578   -0.6876 N   0  0  0  0  0  0  0  0  0  0  0  0
    3.9745   -0.6204   -0.9830 C   0  0  0  0  0  0  0  0  0  0  0  0
   -1.2702    0.3341   -0.6338 N   0  0  0  0  0  0  0  0  0  0  0  0
   -2.2717   -0.6197   -0.3094 C   0  0  0  0  0  0  0  0  0  0  0  0
   -2.0046   -1.9735   -0.6148 C   0  0  0  0  0  0  0  0  0  0  0  0
   -0.5249   -2.4516   -1.3780 Cl  0  0  0  0  0  0  0  0  0  0  0  0
   -2.9057   -2.9873   -0.2818 C   0  0  0  0  0  0  0  0  0  0  0  0
   -4.0997   -2.6696    0.3505 C   0  0  0  0  0  0  0  0  0  0  0  0
   -4.4024   -1.3355    0.6135 C   0  0  0  0  0  0  0  0  0  0  0  0
   -3.5165   -0.2883    0.2635 C   0  0  0  0  0  0  0  0  0  0  0  0
   -4.0369    1.1198    0.4580 C   0  0  0  0  0  0  0  0  0  0  0  0
   -3.4352    2.0752   -0.3057 F   0  0  0  0  0  0  0  0  0  0  0  0
   -3.9880    1.5462    1.7487 F   0  0  0  0  0  0  0  0  0  0  0  0
   -5.3621    1.2061    0.1153 F   0  0  0  0  0  0  0  0  0  0  0  0
    0.0443    3.2731    0.0585 H   0  0  0  0  0  0  0  0  0  0  0  0
    0.0743    2.3756   -1.4487 H   0  0  0  0  0  0  0  0  0  0  0  0
    3.6039    1.9042    1.2478 H   0  0  0  0  0  0  0  0  0  0  0  0
    5.8943    1.1258    1.8158 H   0  0  0  0  0  0  0  0  0  0  0  0
    3.4831   -1.1643   -1.7875 H   0  0  0  0  0  0  0  0  0  0  0  0
   -0.5194   -0.0026   -1.2462 H   0  0  0  0  0  0  0  0  0  0  0  0
   -2.6753   -4.0262   -0.5049 H   0  0  0  0  0  0  0  0  0  0  0  0
   -4.8030   -3.4540    0.6202 H   0  0  0  0  0  0  0  0  0  0  0  0
   -5.3628   -1.0987    1.0747 H   0  0  0  0  0  0  0  0  0  0  0  0
  1  2  2  0
  2  3  1  0
  3  4  1  0
  4  5  1  0
  5  6  2  0
  5  7  1  0
  7  8  2  0
  8  9  1  0
  9 10  2  0
 10 11  1  0
 10 12  1  0
 12 13  2  0
  2 14  1  0
 14 15  1  0
 15 16  2  0
 16 17  1  0
 16 18  1  0
 18 19  2  0
 19 20  1  0
 20 21  2  0
 21 22  1  0
 22 23  1  0
 22 24  1  0
 22 25  1  0
 13  7  1  0
 21 15  1  0
  3 26  1  0
  3 27  1  0
  8 28  1  0
  9 29  1  0
 13 30  1  0
 14 31  1  0
 18 32  1  0
 19 33  1  0
 20 34  1  0
M  END
$$$$
