
     RDKit          3D

 53 56  0  0  0  0  0  0  0  0999 V2000
   -6.2844   -1.3646   -1.3858 C   0  0  0  0  0  0  0  0  0  0  0  0
   -4.7829   -1.1244   -1.4457 C   0  0  0  0  0  0  0  0  0  0  0  0
   -4.1619   -0.7373   -0.0871 C   0  0  0  0  0  0  0  0  0  0  0  0
   -4.3108   -1.8820    0.9444 C   0  0  0  0  0  0  0  0  0  0  0  0
   -3.6454   -1.6094    2.2773 C   0  0  0  0  0  0  0  0  0  0  0  0
   -4.0201   -0.5055    3.0550 C   0  0  0  0  0  0  0  0  0  0  0  0
   -3.3957   -0.2554    4.2779 C   0  0  0  0  0  0  0  0  0  0  0  0
   -2.3969   -1.1095    4.7396 C   0  0  0  0  0  0  0  0  0  0  0  0
   -2.0237   -2.2167    3.9811 C   0  0  0  0  0  0  0  0  0  0  0  0
   -2.6462   -2.4681    2.7574 C   0  0  0  0  0  0  0  0  0  0  0  0
   -2.7507   -0.3791   -0.2710 N   0  0  0  0  0  0  0  0  0  0  0  0
   -2.3833    0.8401   -0.8053 C   0  0  0  0  0  0  0  0  0  0  0  0
   -3.1809    1.6607   -1.2433 O   0  0  0  0  0  0  0  0  0  0  0  0
   -0.9259    1.1513   -0.7894 C   0  0  0  0  0  0  0  0  0  0  0  0
   -0.5373    2.4922   -0.7453 C   0  0  0  0  0  0  0  0  0  0  0  0
    0.8182    2.8417   -0.7320 C   0  0  0  0  0  0  0  0  0  0  0  0
    1.8007    1.8329   -0.7745 C   0  0  0  0  0  0  0  0  0  0  0  0
    3.1677    2.0319   -0.7688 N   0  0  0  0  0  0  0  0  0  0  0  0
    3.8235    0.8932   -0.8401 C   0  0  0  0  0  0  0  0  0  0  0  0
    5.1930    0.8149   -0.8343 N   0  0  0  0  0  0  0  0  0  0  0  0
    5.9024    2.1085   -0.9438 C   0  0  0  0  0  0  0  0  0  0  0  0
    7.3933    1.9353   -0.6235 C   0  0  0  0  0  0  0  0  0  0  0  0
    7.9983    0.9344   -1.4555 O   0  0  0  0  0  0  0  0  0  0  0  0
    7.3500   -0.3276   -1.2466 C   0  0  0  0  0  0  0  0  0  0  0  0
    5.8550   -0.2618   -1.5967 C   0  0  0  0  0  0  0  0  0  0  0  0
    2.7887   -0.4962   -0.8853 S   0  0  0  0  0  0  0  0  0  0  0  0
    1.3947    0.5033   -0.8326 C   0  0  0  0  0  0  0  0  0  0  0  0
    0.0381    0.1325   -0.8445 C   0  0  0  0  0  0  0  0  0  0  0  0
   -6.6798   -1.5167   -2.3955 H   0  0  0  0  0  0  0  0  0  0  0  0
   -6.5268   -2.2567   -0.8020 H   0  0  0  0  0  0  0  0  0  0  0  0
   -6.8024   -0.5077   -0.9449 H   0  0  0  0  0  0  0  0  0  0  0  0
   -4.2876   -2.0192   -1.8421 H   0  0  0  0  0  0  0  0  0  0  0  0
   -4.5993   -0.3291   -2.1774 H   0  0  0  0  0  0  0  0  0  0  0  0
   -4.6732    0.1588    0.2866 H   0  0  0  0  0  0  0  0  0  0  0  0
   -3.8963   -2.8042    0.5160 H   0  0  0  0  0  0  0  0  0  0  0  0
   -5.3700   -2.0825    1.1440 H   0  0  0  0  0  0  0  0  0  0  0  0
   -4.8003    0.1718    2.7150 H   0  0  0  0  0  0  0  0  0  0  0  0
   -3.6914    0.6063    4.8706 H   0  0  0  0  0  0  0  0  0  0  0  0
   -1.9129   -0.9140    5.6930 H   0  0  0  0  0  0  0  0  0  0  0  0
   -1.2503   -2.8875    4.3451 H   0  0  0  0  0  0  0  0  0  0  0  0
   -2.3449   -3.3417    2.1841 H   0  0  0  0  0  0  0  0  0  0  0  0
   -2.0811   -0.8354    0.3360 H   0  0  0  0  0  0  0  0  0  0  0  0
   -1.2903    3.2782   -0.7177 H   0  0  0  0  0  0  0  0  0  0  0  0
    1.1203    3.8837   -0.6931 H   0  0  0  0  0  0  0  0  0  0  0  0
    5.4884    2.8487   -0.2485 H   0  0  0  0  0  0  0  0  0  0  0  0
    5.7916    2.4910   -1.9666 H   0  0  0  0  0  0  0  0  0  0  0  0
    7.5401    1.6622    0.4280 H   0  0  0  0  0  0  0  0  0  0  0  0
    7.9226    2.8769   -0.7990 H   0  0  0  0  0  0  0  0  0  0  0  0
    7.4953   -0.6345   -0.2040 H   0  0  0  0  0  0  0  0  0  0  0  0
    7.8472   -1.0662   -1.8833 H   0  0  0  0  0  0  0  0  0  0  0  0
    5.7404   -0.0598   -2.6694 H   0  0  0  0  0  0  0  0  0  0  0  0
    5.4220   -1.2443   -1.3808 H   0  0  0  0  0  0  0  0  0  0  0  0
   -0.2386   -0.9136   -0.9203 H   0  0  0  0  0  0  0  0  0  0  0  0
  1  2  1  0
  2  3  1  0
  3  4  1  0
  4  5  1  0
  5  6  2  0
  6  7  1  0
  7  8  2  0
  8  9  1  0
  9 10  2  0
  3 11  1  0
 11 12  1  0
 12 13  2  0
 12 14  1  0
 14 15  2  0
 15 16  1  0
 16 17  2  0
 17 18  1  0
 18 19  2  0
 19 20  1  0
 20 21  1  0
 21 22  1  0
 22 23  1  0
 23 24  1  0
 24 25  1  0
 19 26  1  0
 26 27  1  0
 27 28  2  0
 10  5  1  0
 28 14  1  0
 27 17  1  0
 25 20  1  0
  1 29  1  0
  1 30  1  0
  1 31  1  0
  2 32  1  0
  2 33  1  0
  3 34  1  0
  4 35  1  0
  4 36  1  0
  6 37  1  0
  7 38  1  0
  8 39  1  0
  9 40  1  0
 10 41  1  0
 11 42  1  0
 15 43  1  0
 16 44  1  0
 21 45  1  0
 21 46  1  0
 22 47  1  0
 22 48  1  0
 24 49  1  0
 24 50  1  0
 25 51  1  0
 25 52  1  0
 28 53  1  0
M  END
$$$$
