
     RDKit          3D

 62 65  0  0  0  0  0  0  0  0999 V2000
    3.5136    1.5893   -0.5262 O   0  0  0  0  0  0  0  0  0  0  0  0
    3.5597    1.3829    0.6826 C   0  0  0  0  0  0  0  0  0  0  0  0
    4.7461    1.8738    1.4945 C   0  0  0  0  0  0  0  0  0  0  0  0
    6.0534    1.5989    0.7659 C   0  0  0  0  0  0  0  0  0  0  0  0
    6.5672   -0.0899    1.0187 S   0  0  0  0  0  6  0  0  0  0  0  0
    5.4529   -0.9512    0.6687 O   0  0  0  0  0  0  0  0  0  0  0  0
    7.1674   -0.1915    2.3354 O   0  0  0  0  0  0  0  0  0  0  0  0
    7.8408   -0.3772   -0.1643 C   0  0  0  0  0  0  0  0  0  0  0  0
    7.7525   -1.4577   -1.0472 C   0  0  0  0  0  0  0  0  0  0  0  0
    8.7711   -1.6683   -1.9786 C   0  0  0  0  0  0  0  0  0  0  0  0
    9.8684   -0.8054   -2.0250 C   0  0  0  0  0  0  0  0  0  0  0  0
    9.9489    0.2704   -1.1392 C   0  0  0  0  0  0  0  0  0  0  0  0
    8.9329    0.4791   -0.2108 C   0  0  0  0  0  0  0  0  0  0  0  0
    9.0291    1.5244    0.6212 F   0  0  0  0  0  0  0  0  0  0  0  0
    2.5900    0.7787    1.4590 N   0  0  0  0  0  0  0  0  0  0  0  0
    1.3401    0.2816    1.0349 C   0  0  0  0  0  0  0  0  0  0  0  0
    0.5473   -0.3577    1.9888 C   0  0  0  0  0  0  0  0  0  0  0  0
   -0.7146   -0.8629    1.6471 C   0  0  0  0  0  0  0  0  0  0  0  0
   -1.2374   -0.7411    0.3506 C   0  0  0  0  0  0  0  0  0  0  0  0
   -2.5066   -1.2636    0.0548 N   0  0  0  0  0  0  0  0  0  0  0  0
   -2.8846   -1.4051   -1.3662 C   0  0  0  0  0  0  0  0  0  0  0  0
   -4.2228   -2.1688   -1.5166 C   0  0  0  0  0  0  0  0  0  0  0  0
   -5.3549   -1.6241   -0.7313 N   0  0  0  0  0  0  0  0  0  0  0  0
   -5.8130   -0.3386   -1.2849 C   0  0  0  0  0  0  0  0  0  0  0  0
   -7.0780    0.1820   -0.6338 C   0  0  0  0  0  0  0  0  0  0  0  0
   -8.2497   -0.5895   -0.6345 C   0  0  0  0  0  0  0  0  0  0  0  0
   -9.4169   -0.1081   -0.0401 C   0  0  0  0  0  0  0  0  0  0  0  0
   -9.4269    1.1506    0.5582 C   0  0  0  0  0  0  0  0  0  0  0  0
   -8.2708    1.9293    0.5617 C   0  0  0  0  0  0  0  0  0  0  0  0
   -7.1020    1.4495   -0.0324 C   0  0  0  0  0  0  0  0  0  0  0  0
   -4.9136   -1.5143    0.6789 C   0  0  0  0  0  0  0  0  0  0  0  0
   -3.5973   -0.7338    0.9088 C   0  0  0  0  0  0  0  0  0  0  0  0
   -0.4150   -0.1178   -0.5972 C   0  0  0  0  0  0  0  0  0  0  0  0
    0.8501    0.3933   -0.2624 C   0  0  0  0  0  0  0  0  0  0  0  0
    4.6120    2.9559    1.6100 H   0  0  0  0  0  0  0  0  0  0  0  0
    4.7547    1.4352    2.4979 H   0  0  0  0  0  0  0  0  0  0  0  0
    5.9747    1.7678   -0.3118 H   0  0  0  0  0  0  0  0  0  0  0  0
    6.8394    2.2428    1.1700 H   0  0  0  0  0  0  0  0  0  0  0  0
    6.9028   -2.1376   -1.0167 H   0  0  0  0  0  0  0  0  0  0  0  0
    8.7096   -2.5082   -2.6681 H   0  0  0  0  0  0  0  0  0  0  0  0
   10.6614   -0.9733   -2.7504 H   0  0  0  0  0  0  0  0  0  0  0  0
   10.7990    0.9459   -1.1673 H   0  0  0  0  0  0  0  0  0  0  0  0
    2.8171    0.6063    2.4303 H   0  0  0  0  0  0  0  0  0  0  0  0
    0.8948   -0.4883    3.0097 H   0  0  0  0  0  0  0  0  0  0  0  0
   -1.2783   -1.3900    2.4128 H   0  0  0  0  0  0  0  0  0  0  0  0
   -2.9744   -0.4193   -1.8385 H   0  0  0  0  0  0  0  0  0  0  0  0
   -2.1147   -1.9725   -1.9038 H   0  0  0  0  0  0  0  0  0  0  0  0
   -4.0666   -3.2090   -1.2003 H   0  0  0  0  0  0  0  0  0  0  0  0
   -4.4954   -2.2233   -2.5779 H   0  0  0  0  0  0  0  0  0  0  0  0
   -6.0453   -0.4645   -2.3510 H   0  0  0  0  0  0  0  0  0  0  0  0
   -5.0306    0.4276   -1.2364 H   0  0  0  0  0  0  0  0  0  0  0  0
   -8.2474   -1.5767   -1.0926 H   0  0  0  0  0  0  0  0  0  0  0  0
  -10.3164   -0.7180   -0.0421 H   0  0  0  0  0  0  0  0  0  0  0  0
  -10.3356    1.5243    1.0224 H   0  0  0  0  0  0  0  0  0  0  0  0
   -8.2797    2.9113    1.0281 H   0  0  0  0  0  0  0  0  0  0  0  0
   -6.2099    2.0714   -0.0207 H   0  0  0  0  0  0  0  0  0  0  0  0
   -5.7049   -1.0843    1.3036 H   0  0  0  0  0  0  0  0  0  0  0  0
   -4.7763   -2.5357    1.0598 H   0  0  0  0  0  0  0  0  0  0  0  0
   -3.3543   -0.8212    1.9736 H   0  0  0  0  0  0  0  0  0  0  0  0
   -3.7482    0.3321    0.6960 H   0  0  0  0  0  0  0  0  0  0  0  0
   -0.7369    0.0074   -1.6263 H   0  0  0  0  0  0  0  0  0  0  0  0
    1.4219    0.8737   -1.0493 H   0  0  0  0  0  0  0  0  0  0  0  0
  1  2  2  0
  2  3  1  0
  3  4  1  0
  4  5  1  0
  5  6  2  0
  5  7  2  0
  5  8  1  0
  8  9  2  0
  9 10  1  0
 10 11  2  0
 11 12  1  0
 12 13  2  0
 13 14  1  0
  2 15  1  0
 15 16  1  0
 16 17  2  0
 17 18  1  0
 18 19  2  0
 19 20  1  0
 20 21  1  0
 21 22  1  0
 22 23  1  0
 23 24  1  0
 24 25  1  0
 25 26  2  0
 26 27  1  0
 27 28  2  0
 28 29  1  0
 29 30  2  0
 23 31  1  0
 31 32  1  0
 19 33  1  0
 33 34  2  0
 13  8  1  0
 34 16  1  0
 32 20  1  0
 30 25  1  0
  3 35  1  0
  3 36  1  0
  4 37  1  0
  4 38  1  0
  9 39  1  0
 10 40  1  0
 11 41  1  0
 12 42  1  0
 15 43  1  0
 17 44  1  0
 18 45  1  0
 21 46  1  0
 21 47  1  0
 22 48  1  0
 22 49  1  0
 24 50  1  0
 24 51  1  0
 26 52  1  0
 27 53  1  0
 28 54  1  0
 29 55  1  0
 30 56  1  0
 31 57  1  0
 31 58  1  0
 32 59  1  0
 32 60  1  0
 33 61  1  0
 34 62  1  0
M  END
$$$$
