
     RDKit          3D

 43 45  0  0  0  0  0  0  0  0999 V2000
   -2.9578   -1.8643    2.6687 C   0  0  0  0  0  0  0  0  0  0  0  0
   -3.8191   -0.9684    1.8259 C   0  0  0  0  0  0  0  0  0  0  0  0
   -5.1980   -0.9083    2.0639 C   0  0  0  0  0  0  0  0  0  0  0  0
   -6.0141   -0.0772    1.2974 C   0  0  0  0  0  0  0  0  0  0  0  0
   -5.4613    0.7115    0.2911 C   0  0  0  0  0  0  0  0  0  0  0  0
   -4.0854    0.6743    0.0310 C   0  0  0  0  0  0  0  0  0  0  0  0
   -3.5183    1.5376   -1.0598 C   0  0  0  0  0  0  0  0  0  0  0  0
   -3.2840   -0.2070    0.7735 C   0  0  0  0  0  0  0  0  0  0  0  0
   -1.9373   -0.2754    0.5130 O   0  0  0  0  0  0  0  0  0  0  0  0
   -1.6739   -1.2916   -0.4657 C   0  0  0  0  0  0  0  0  0  0  0  0
   -0.2064   -1.3315   -0.6603 C   0  0  0  0  0  0  0  0  0  0  0  0
    0.8793   -0.8774    0.0480 C   0  0  0  0  0  0  0  0  0  0  0  0
    2.0068   -1.2647   -0.7243 C   0  0  0  0  0  0  0  0  0  0  0  0
    3.4301   -1.0498   -0.4353 C   0  0  0  0  0  0  0  0  0  0  0  0
    4.2777   -1.9079   -0.6840 O   0  0  0  0  0  0  0  0  0  0  0  0
    3.7856    0.1505    0.2002 N   0  0  0  0  0  0  0  0  0  0  0  0
    5.1750    0.2862    0.6306 C   0  0  0  0  0  0  0  0  0  0  0  0
    6.0054    0.8703   -0.5120 C   0  0  0  0  0  0  0  0  0  0  0  0
    5.4208    2.1014   -1.0158 N   0  0  0  0  0  0  0  0  0  0  0  0
    4.0625    2.3023   -1.0791 C   0  0  0  0  0  0  0  0  0  0  0  0
    3.6147    3.2395   -1.7362 O   0  0  0  0  0  0  0  0  0  0  0  0
    3.1639    1.4262   -0.1824 C   0  0  0  0  0  0  0  0  0  0  0  0
    1.6124   -1.9403   -1.8163 N   0  0  0  0  0  0  0  0  0  0  0  0
    0.2322   -1.9687   -1.7766 O   0  0  0  0  0  0  0  0  0  0  0  0
   -3.4308   -2.0720    3.6328 H   0  0  0  0  0  0  0  0  0  0  0  0
   -1.9920   -1.3937    2.8803 H   0  0  0  0  0  0  0  0  0  0  0  0
   -2.7898   -2.8150    2.1561 H   0  0  0  0  0  0  0  0  0  0  0  0
   -5.6458   -1.5049    2.8557 H   0  0  0  0  0  0  0  0  0  0  0  0
   -7.0826   -0.0364    1.4928 H   0  0  0  0  0  0  0  0  0  0  0  0
   -6.1121    1.3649   -0.2864 H   0  0  0  0  0  0  0  0  0  0  0  0
   -4.1151    2.4459   -1.1878 H   0  0  0  0  0  0  0  0  0  0  0  0
   -3.5106    0.9890   -2.0051 H   0  0  0  0  0  0  0  0  0  0  0  0
   -2.4981    1.8593   -0.8242 H   0  0  0  0  0  0  0  0  0  0  0  0
   -2.1673   -1.0498   -1.4154 H   0  0  0  0  0  0  0  0  0  0  0  0
   -2.0187   -2.2721   -0.1157 H   0  0  0  0  0  0  0  0  0  0  0  0
    0.8628   -0.3476    0.9889 H   0  0  0  0  0  0  0  0  0  0  0  0
    5.1854    0.9578    1.4967 H   0  0  0  0  0  0  0  0  0  0  0  0
    5.5804   -0.6791    0.9510 H   0  0  0  0  0  0  0  0  0  0  0  0
    6.0565    0.1723   -1.3557 H   0  0  0  0  0  0  0  0  0  0  0  0
    7.0245    1.0925   -0.1830 H   0  0  0  0  0  0  0  0  0  0  0  0
    5.9505    2.6659   -1.6685 H   0  0  0  0  0  0  0  0  0  0  0  0
    2.9630    1.9812    0.7388 H   0  0  0  0  0  0  0  0  0  0  0  0
    2.2290    1.2744   -0.7240 H   0  0  0  0  0  0  0  0  0  0  0  0
  1  2  1  0
  2  3  2  0
  3  4  1  0
  4  5  2  0
  5  6  1  0
  6  7  1  0
  6  8  2  0
  8  9  1  0
  9 10  1  0
 10 11  1  0
 11 12  2  0
 12 13  1  0
 13 14  1  0
 14 15  2  0
 14 16  1  0
 16 17  1  0
 17 18  1  0
 18 19  1  0
 19 20  1  0
 20 21  2  0
 20 22  1  0
 13 23  2  0
 23 24  1  0
  8  2  1  0
 24 11  1  0
 22 16  1  0
  1 25  1  0
  1 26  1  0
  1 27  1  0
  3 28  1  0
  4 29  1  0
  5 30  1  0
  7 31  1  0
  7 32  1  0
  7 33  1  0
 10 34  1  0
 10 35  1  0
 12 36  1  0
 17 37  1  0
 17 38  1  0
 18 39  1  0
 18 40  1  0
 19 41  1  0
 22 42  1  0
 22 43  1  0
M  END
$$$$
