
     RDKit          3D

 90 95  0  0  0  0  0  0  0  0999 V2000
    2.8298    1.8337    0.9843 C   0  0  0  0  0  0  0  0  0  0  0  0
    1.5096    1.7640    0.2112 C   0  0  0  0  0  0  0  0  0  0  0  0
    0.3486    1.6757    1.2377 C   0  0  0  0  0  0  0  0  0  0  0  0
   -0.8336    2.4602    0.8729 N   0  0  0  0  0  0  0  0  0  0  0  0
   -0.9386    3.8893    1.2895 C   0  0  0  0  0  0  0  0  0  0  0  0
   -0.4972    4.1605    2.7366 C   0  0  0  0  0  0  0  0  0  0  0  0
   -0.2235    4.8603    0.3235 C   0  0  0  0  0  0  0  0  0  0  0  0
   -0.6594    4.7422   -1.0287 O   0  0  0  0  0  0  0  0  0  0  0  0
   -1.8059    1.9842   -0.0137 C   0  0  0  0  0  0  0  0  0  0  0  0
   -2.6935    2.7130   -0.4591 O   0  0  0  0  0  0  0  0  0  0  0  0
   -1.8166    0.5565   -0.4074 C   0  0  0  0  0  0  0  0  0  0  0  0
   -2.9616   -0.1952   -0.1154 C   0  0  0  0  0  0  0  0  0  0  0  0
   -3.0828   -1.5099   -0.5775 C   0  0  0  0  0  0  0  0  0  0  0  0
   -4.2761   -2.2397   -0.4150 N   0  0  0  0  0  0  0  0  0  0  0  0
   -5.2317   -2.0060    0.5630 C   0  0  0  0  0  0  0  0  0  0  0  0
   -4.9916   -1.4772    1.6404 O   0  0  0  0  0  0  0  0  0  0  0  0
   -6.4720   -2.4304    0.1169 N   0  0  0  0  0  0  0  0  0  0  0  0
   -7.6826   -2.3160    0.8538 C   0  0  0  0  0  0  0  0  0  0  0  0
   -7.6605   -2.4471    2.2489 C   0  0  0  0  0  0  0  0  0  0  0  0
   -8.8334   -2.3347    2.9999 C   0  0  0  0  0  0  0  0  0  0  0  0
  -10.0484   -2.0793    2.3620 C   0  0  0  0  0  0  0  0  0  0  0  0
  -10.1057   -1.9446    0.9658 C   0  0  0  0  0  0  0  0  0  0  0  0
  -11.3438   -1.6676    0.3537 C   0  0  0  0  0  0  0  0  0  0  0  0
  -11.4507   -1.5210   -1.0266 C   0  0  0  0  0  0  0  0  0  0  0  0
  -10.3179   -1.6566   -1.8198 C   0  0  0  0  0  0  0  0  0  0  0  0
   -9.0760   -1.9257   -1.2280 C   0  0  0  0  0  0  0  0  0  0  0  0
   -8.9251   -2.0776    0.1786 C   0  0  0  0  0  0  0  0  0  0  0  0
   -2.0426   -2.0750   -1.3230 C   0  0  0  0  0  0  0  0  0  0  0  0
   -0.8935   -1.3308   -1.6034 C   0  0  0  0  0  0  0  0  0  0  0  0
   -0.7862   -0.0164   -1.1511 C   0  0  0  0  0  0  0  0  0  0  0  0
    0.2572    0.7434   -1.5811 O   0  0  0  0  0  0  0  0  0  0  0  0
    1.4531    0.5783   -0.7935 C   0  0  0  0  0  0  0  0  0  0  0  0
    2.6138    0.5901   -1.8293 C   0  0  0  0  0  0  0  0  0  0  0  0
    2.7505   -0.6748   -2.5924 N   0  0  0  0  0  0  0  0  0  0  0  0
    3.3459   -0.4328   -3.9049 C   0  0  0  0  0  0  0  0  0  0  0  0
    3.4080   -1.7711   -1.8494 C   0  0  0  0  0  0  0  0  0  0  0  0
    4.7862   -1.4956   -1.2798 C   0  0  0  0  0  0  0  0  0  0  0  0
    5.9258   -1.5711   -2.0877 C   0  0  0  0  0  0  0  0  0  0  0  0
    7.1918   -1.2480   -1.5741 C   0  0  0  0  0  0  0  0  0  0  0  0
    7.3524   -0.8328   -0.2439 C   0  0  0  0  0  0  0  0  0  0  0  0
    8.6696   -0.4233    0.2722 C   0  0  0  0  0  0  0  0  0  0  0  0
    8.8592    0.8556    0.8189 C   0  0  0  0  0  0  0  0  0  0  0  0
   10.1034    1.2523    1.3176 C   0  0  0  0  0  0  0  0  0  0  0  0
   11.1842    0.3698    1.2760 C   0  0  0  0  0  0  0  0  0  0  0  0
   11.0175   -0.9015    0.7292 C   0  0  0  0  0  0  0  0  0  0  0  0
    9.7724   -1.2951    0.2292 C   0  0  0  0  0  0  0  0  0  0  0  0
    6.2118   -0.7999    0.5764 C   0  0  0  0  0  0  0  0  0  0  0  0
    4.9513   -1.1398    0.0701 C   0  0  0  0  0  0  0  0  0  0  0  0
    2.8105    2.6563    1.7117 H   0  0  0  0  0  0  0  0  0  0  0  0
    3.0132    0.9051    1.5327 H   0  0  0  0  0  0  0  0  0  0  0  0
    3.6850    2.0188    0.3331 H   0  0  0  0  0  0  0  0  0  0  0  0
    1.4148    2.6920   -0.3651 H   0  0  0  0  0  0  0  0  0  0  0  0
    0.6752    2.0036    2.2254 H   0  0  0  0  0  0  0  0  0  0  0  0
    0.0519    0.6327    1.3997 H   0  0  0  0  0  0  0  0  0  0  0  0
   -2.0059    4.1464    1.2472 H   0  0  0  0  0  0  0  0  0  0  0  0
   -0.7083    5.1942    3.0122 H   0  0  0  0  0  0  0  0  0  0  0  0
   -1.0413    3.5158    3.4385 H   0  0  0  0  0  0  0  0  0  0  0  0
    0.5767    4.0048    2.8810 H   0  0  0  0  0  0  0  0  0  0  0  0
   -0.4169    5.8990    0.6276 H   0  0  0  0  0  0  0  0  0  0  0  0
    0.8616    4.7114    0.3478 H   0  0  0  0  0  0  0  0  0  0  0  0
   -1.4600    4.1634   -1.0350 H   0  0  0  0  0  0  0  0  0  0  0  0
   -3.7827    0.2805    0.4182 H   0  0  0  0  0  0  0  0  0  0  0  0
   -4.3469   -3.1334   -0.8827 H   0  0  0  0  0  0  0  0  0  0  0  0
   -6.5466   -2.3827   -0.8863 H   0  0  0  0  0  0  0  0  0  0  0  0
   -6.7346   -2.6713    2.7807 H   0  0  0  0  0  0  0  0  0  0  0  0
   -8.7979   -2.4487    4.0774 H   0  0  0  0  0  0  0  0  0  0  0  0
  -10.9525   -1.9755    2.9654 H   0  0  0  0  0  0  0  0  0  0  0  0
  -12.2458   -1.5561    0.9555 H   0  0  0  0  0  0  0  0  0  0  0  0
  -12.4173   -1.3019   -1.4854 H   0  0  0  0  0  0  0  0  0  0  0  0
  -10.3961   -1.5390   -2.8984 H   0  0  0  0  0  0  0  0  0  0  0  0
   -8.2229   -2.0020   -1.8983 H   0  0  0  0  0  0  0  0  0  0  0  0
   -2.1245   -3.0833   -1.7168 H   0  0  0  0  0  0  0  0  0  0  0  0
   -0.1058   -1.7579   -2.2219 H   0  0  0  0  0  0  0  0  0  0  0  0
    1.4573   -0.3680   -0.2372 H   0  0  0  0  0  0  0  0  0  0  0  0
    2.3908    1.3989   -2.5374 H   0  0  0  0  0  0  0  0  0  0  0  0
    3.5740    0.8497   -1.3817 H   0  0  0  0  0  0  0  0  0  0  0  0
    2.6929    0.2199   -4.4992 H   0  0  0  0  0  0  0  0  0  0  0  0
    4.3305    0.0457   -3.8419 H   0  0  0  0  0  0  0  0  0  0  0  0
    3.4323   -1.3698   -4.4781 H   0  0  0  0  0  0  0  0  0  0  0  0
    3.4694   -2.6627   -2.4852 H   0  0  0  0  0  0  0  0  0  0  0  0
    2.7473   -2.0811   -1.0302 H   0  0  0  0  0  0  0  0  0  0  0  0
    5.8410   -1.8651   -3.1329 H   0  0  0  0  0  0  0  0  0  0  0  0
    8.0531   -1.2957   -2.2376 H   0  0  0  0  0  0  0  0  0  0  0  0
    8.0331    1.5669    0.8473 H   0  0  0  0  0  0  0  0  0  0  0  0
   10.2338    2.2491    1.7330 H   0  0  0  0  0  0  0  0  0  0  0  0
   12.1509    0.6729    1.6747 H   0  0  0  0  0  0  0  0  0  0  0  0
   11.8570   -1.5949    0.7018 H   0  0  0  0  0  0  0  0  0  0  0  0
    9.6625   -2.2983   -0.1845 H   0  0  0  0  0  0  0  0  0  0  0  0
    6.3033   -0.5096    1.6226 H   0  0  0  0  0  0  0  0  0  0  0  0
    4.0969   -1.1225    0.7427 H   0  0  0  0  0  0  0  0  0  0  0  0
  1  2  1  0
  2  3  1  0
  3  4  1  0
  4  5  1  0
  5  6  1  0
  5  7  1  0
  7  8  1  0
  4  9  1  0
  9 10  2  0
  9 11  1  0
 11 12  2  0
 12 13  1  0
 13 14  1  0
 14 15  1  0
 15 16  2  0
 15 17  1  0
 17 18  1  0
 18 19  2  0
 19 20  1  0
 20 21  2  0
 21 22  1  0
 22 23  2  0
 23 24  1  0
 24 25  2  0
 25 26  1  0
 26 27  2  0
 13 28  2  0
 28 29  1  0
 29 30  2  0
 30 31  1  0
 31 32  1  0
 32 33  1  0
 33 34  1  0
 34 35  1  0
 34 36  1  0
 36 37  1  0
 37 38  2  0
 38 39  1  0
 39 40  2  0
 40 41  1  0
 41 42  2  0
 42 43  1  0
 43 44  2  0
 44 45  1  0
 45 46  2  0
 40 47  1  0
 47 48  2  0
 32  2  1  0
 48 37  1  0
 30 11  1  0
 46 41  1  0
 27 18  1  0
 27 22  1  0
  1 49  1  0
  1 50  1  0
  1 51  1  0
  2 52  1  0
  3 53  1  0
  3 54  1  0
  5 55  1  0
  6 56  1  0
  6 57  1  0
  6 58  1  0
  7 59  1  0
  7 60  1  0
  8 61  1  0
 12 62  1  0
 14 63  1  0
 17 64  1  0
 19 65  1  0
 20 66  1  0
 21 67  1  0
 23 68  1  0
 24 69  1  0
 25 70  1  0
 26 71  1  0
 28 72  1  0
 29 73  1  0
 32 74  1  0
 33 75  1  0
 33 76  1  0
 35 77  1  0
 35 78  1  0
 35 79  1  0
 36 80  1  0
 36 81  1  0
 38 82  1  0
 39 83  1  0
 42 84  1  0
 43 85  1  0
 44 86  1  0
 45 87  1  0
 46 88  1  0
 47 89  1  0
 48 90  1  0
M  END
$$$$
