
     RDKit          3D

 44 46  0  0  0  0  0  0  0  0999 V2000
    4.0849    2.0891   -1.9402 C   0  0  0  0  0  0  0  0  0  0  0  0
    3.2472    0.9214   -2.2011 N   0  0  0  0  0  0  0  0  0  0  0  0
    2.8748    0.2549   -0.9372 C   0  0  0  0  0  0  0  0  0  0  0  0
    1.6306   -0.6424   -1.0630 C   0  0  0  0  0  0  0  0  0  0  0  0
    0.4573    0.1211   -1.5038 N   0  0  0  0  0  0  0  0  0  0  0  0
   -0.8618   -0.2078   -1.2271 C   0  0  0  0  0  0  0  0  0  0  0  0
   -1.8259    0.4627   -1.5839 O   0  0  0  0  0  0  0  0  0  0  0  0
   -1.1246   -1.4540   -0.4815 C   0  0  0  0  0  0  0  0  0  0  0  0
   -1.1632   -2.6490   -1.2136 C   0  0  0  0  0  0  0  0  0  0  0  0
   -1.4025   -3.8540   -0.5576 C   0  0  0  0  0  0  0  0  0  0  0  0
   -1.6066   -3.8636    0.8210 C   0  0  0  0  0  0  0  0  0  0  0  0
   -1.5754   -2.6682    1.5469 C   0  0  0  0  0  0  0  0  0  0  0  0
   -1.3413   -1.4357    0.9099 C   0  0  0  0  0  0  0  0  0  0  0  0
   -1.2859   -0.1993    1.7109 C   0  0  0  0  0  0  0  0  0  0  0  0
   -0.1140    0.0397    2.4626 C   0  0  0  0  0  0  0  0  0  0  0  0
    0.0501    1.2044    3.2148 C   0  0  0  0  0  0  0  0  0  0  0  0
   -0.9548    2.1629    3.2333 C   0  0  0  0  0  0  0  0  0  0  0  0
   -2.1265    1.9490    2.5086 C   0  0  0  0  0  0  0  0  0  0  0  0
   -2.3104    0.7723    1.7568 C   0  0  0  0  0  0  0  0  0  0  0  0
   -3.6181    0.6681    1.0554 C   0  0  0  0  0  0  0  0  0  0  0  0
   -4.3453    1.6074    0.7809 O   0  0  0  0  0  0  0  0  0  0  0  0
   -4.0126   -0.5933    0.8215 O   0  0  0  0  0  0  0  0  0  0  0  0
    0.7311    1.3397   -2.2656 C   0  0  0  0  0  0  0  0  0  0  0  0
    2.0681    1.2647   -3.0251 C   0  0  0  0  0  0  0  0  0  0  0  0
    3.5440    2.8714   -1.3957 H   0  0  0  0  0  0  0  0  0  0  0  0
    4.9679    1.8073   -1.3557 H   0  0  0  0  0  0  0  0  0  0  0  0
    4.4543    2.5145   -2.8799 H   0  0  0  0  0  0  0  0  0  0  0  0
    3.7214   -0.3504   -0.5936 H   0  0  0  0  0  0  0  0  0  0  0  0
    2.6706    1.0018   -0.1574 H   0  0  0  0  0  0  0  0  0  0  0  0
    1.4307   -1.1253   -0.1027 H   0  0  0  0  0  0  0  0  0  0  0  0
    1.8021   -1.4324   -1.8039 H   0  0  0  0  0  0  0  0  0  0  0  0
   -1.0136   -2.6345   -2.2904 H   0  0  0  0  0  0  0  0  0  0  0  0
   -1.4384   -4.7834   -1.1204 H   0  0  0  0  0  0  0  0  0  0  0  0
   -1.8015   -4.8022    1.3345 H   0  0  0  0  0  0  0  0  0  0  0  0
   -1.7513   -2.6992    2.6209 H   0  0  0  0  0  0  0  0  0  0  0  0
    0.6928   -0.6918    2.4551 H   0  0  0  0  0  0  0  0  0  0  0  0
    0.9651    1.3635    3.7799 H   0  0  0  0  0  0  0  0  0  0  0  0
   -0.8319    3.0759    3.8103 H   0  0  0  0  0  0  0  0  0  0  0  0
   -2.9085    2.7070    2.5324 H   0  0  0  0  0  0  0  0  0  0  0  0
   -4.8429   -0.4811    0.3149 H   0  0  0  0  0  0  0  0  0  0  0  0
   -0.0861    1.5276   -2.9707 H   0  0  0  0  0  0  0  0  0  0  0  0
    0.7471    2.1711   -1.5504 H   0  0  0  0  0  0  0  0  0  0  0  0
    2.2250    2.1948   -3.5852 H   0  0  0  0  0  0  0  0  0  0  0  0
    1.9781    0.4754   -3.7830 H   0  0  0  0  0  0  0  0  0  0  0  0
  1  2  1  0
  2  3  1  0
  3  4  1  0
  4  5  1  0
  5  6  1  0
  6  7  2  0
  6  8  1  0
  8  9  2  0
  9 10  1  0
 10 11  2  0
 11 12  1  0
 12 13  2  0
 13 14  1  0
 14 15  2  0
 15 16  1  0
 16 17  2  0
 17 18  1  0
 18 19  2  0
 19 20  1  0
 20 21  2  0
 20 22  1  0
  5 23  1  0
 23 24  1  0
 24  2  1  0
 13  8  1  0
 19 14  1  0
  1 25  1  0
  1 26  1  0
  1 27  1  0
  3 28  1  0
  3 29  1  0
  4 30  1  0
  4 31  1  0
  9 32  1  0
 10 33  1  0
 11 34  1  0
 12 35  1  0
 15 36  1  0
 16 37  1  0
 17 38  1  0
 18 39  1  0
 22 40  1  0
 23 41  1  0
 23 42  1  0
 24 43  1  0
 24 44  1  0
M  END
$$$$
