
     RDKit          3D

 56 59  0  0  0  0  0  0  0  0999 V2000
   -0.2769    4.4936    1.9477 C   0  0  0  0  0  0  0  0  0  0  0  0
   -1.5648    3.7663    2.2844 C   0  0  0  0  0  0  0  0  0  0  0  0
   -1.5754    2.5295    1.5589 O   0  0  0  0  0  0  0  0  0  0  0  0
   -2.6752    1.7462    1.7985 C   0  0  0  0  0  0  0  0  0  0  0  0
   -3.5816    2.0778    2.5541 O   0  0  0  0  0  0  0  0  0  0  0  0
   -2.6561    0.4758    1.0603 C   0  0  0  0  0  0  0  0  0  0  0  0
   -1.6178    0.0429    0.2379 C   0  0  0  0  0  0  0  0  0  0  0  0
   -0.4501    0.7339   -0.0578 N   0  0  0  0  0  0  0  0  0  0  0  0
    0.6467    0.2903   -0.7911 C   0  0  0  0  0  0  0  0  0  0  0  0
    0.7899   -0.8162   -1.3027 O   0  0  0  0  0  0  0  0  0  0  0  0
    1.6913    1.4070   -0.9471 C   0  0  0  0  0  0  0  0  0  0  0  0
    3.0121    0.8689   -1.2311 N   0  0  0  0  0  0  0  0  0  0  0  0
    3.4286    0.8992   -2.5411 N   0  0  0  0  0  0  0  0  0  0  0  0
    4.5802    0.3727   -2.8373 C   0  0  0  0  0  0  0  0  0  0  0  0
    5.0000    0.4251   -4.2967 C   0  0  0  0  0  0  0  0  0  0  0  0
    5.1311   -0.5476   -5.0101 O   0  0  0  0  0  0  0  0  0  0  0  0
    5.2492    1.6748   -4.7009 O   0  0  0  0  0  0  0  0  0  0  0  0
    5.4775   -0.2500   -1.8547 C   0  0  0  0  0  0  0  0  0  0  0  0
    6.7074   -0.8264   -2.1972 C   0  0  0  0  0  0  0  0  0  0  0  0
    7.5117   -1.3911   -1.2034 C   0  0  0  0  0  0  0  0  0  0  0  0
    7.0942   -1.3817    0.1270 C   0  0  0  0  0  0  0  0  0  0  0  0
    5.8692   -0.8077    0.4679 C   0  0  0  0  0  0  0  0  0  0  0  0
    5.0617   -0.2423   -0.5273 C   0  0  0  0  0  0  0  0  0  0  0  0
    3.7624    0.3603   -0.1764 C   0  0  0  0  0  0  0  0  0  0  0  0
    3.3994    0.3981    0.9974 O   0  0  0  0  0  0  0  0  0  0  0  0
   -1.9172   -1.4864   -0.4386 S   0  0  0  0  0  0  0  0  0  0  0  0
   -3.4127   -1.6247    0.3398 C   0  0  0  0  0  0  0  0  0  0  0  0
   -3.7189   -0.5128    1.0981 C   0  0  0  0  0  0  0  0  0  0  0  0
   -5.0035   -0.4287    1.8766 C   0  0  0  0  0  0  0  0  0  0  0  0
   -6.0245   -1.4915    1.4380 C   0  0  0  0  0  0  0  0  0  0  0  0
   -5.3725   -2.8771    1.2566 C   0  0  0  0  0  0  0  0  0  0  0  0
   -6.4242   -3.9317    0.9189 C   0  0  0  0  0  0  0  0  0  0  0  0
   -4.2839   -2.8308    0.1631 C   0  0  0  0  0  0  0  0  0  0  0  0
   -0.2115    4.6826    0.8713 H   0  0  0  0  0  0  0  0  0  0  0  0
    0.5919    3.8835    2.2164 H   0  0  0  0  0  0  0  0  0  0  0  0
   -0.2175    5.4479    2.4783 H   0  0  0  0  0  0  0  0  0  0  0  0
   -1.6072    3.5674    3.3607 H   0  0  0  0  0  0  0  0  0  0  0  0
   -2.4235    4.3768    1.9841 H   0  0  0  0  0  0  0  0  0  0  0  0
   -0.3794    1.6456    0.3838 H   0  0  0  0  0  0  0  0  0  0  0  0
    1.3791    2.0629   -1.7674 H   0  0  0  0  0  0  0  0  0  0  0  0
    1.7436    1.9994   -0.0267 H   0  0  0  0  0  0  0  0  0  0  0  0
    5.4514    1.5904   -5.6546 H   0  0  0  0  0  0  0  0  0  0  0  0
    7.0583   -0.8598   -3.2254 H   0  0  0  0  0  0  0  0  0  0  0  0
    8.4643   -1.8462   -1.4687 H   0  0  0  0  0  0  0  0  0  0  0  0
    7.7191   -1.8273    0.8986 H   0  0  0  0  0  0  0  0  0  0  0  0
    5.5426   -0.8078    1.5062 H   0  0  0  0  0  0  0  0  0  0  0  0
   -4.7742   -0.5647    2.9406 H   0  0  0  0  0  0  0  0  0  0  0  0
   -5.4604    0.5597    1.7571 H   0  0  0  0  0  0  0  0  0  0  0  0
   -6.8291   -1.5409    2.1819 H   0  0  0  0  0  0  0  0  0  0  0  0
   -6.4866   -1.1807    0.4912 H   0  0  0  0  0  0  0  0  0  0  0  0
   -4.9015   -3.1598    2.2083 H   0  0  0  0  0  0  0  0  0  0  0  0
   -6.9435   -3.6918   -0.0154 H   0  0  0  0  0  0  0  0  0  0  0  0
   -5.9622   -4.9185    0.8074 H   0  0  0  0  0  0  0  0  0  0  0  0
   -7.1741   -3.9999    1.7141 H   0  0  0  0  0  0  0  0  0  0  0  0
   -3.6878   -3.7501    0.2045 H   0  0  0  0  0  0  0  0  0  0  0  0
   -4.7490   -2.7841   -0.8297 H   0  0  0  0  0  0  0  0  0  0  0  0
  1  2  1  0
  2  3  1  0
  3  4  1  0
  4  5  2  0
  4  6  1  0
  6  7  2  0
  7  8  1  0
  8  9  1  0
  9 10  2  0
  9 11  1  0
 11 12  1  0
 12 13  1  0
 13 14  2  0
 14 15  1  0
 15 16  2  0
 15 17  1  0
 14 18  1  0
 18 19  2  0
 19 20  1  0
 20 21  2  0
 21 22  1  0
 22 23  2  0
 23 24  1  0
 24 25  2  0
  7 26  1  0
 26 27  1  0
 27 28  2  0
 28 29  1  0
 29 30  1  0
 30 31  1  0
 31 32  1  0
 31 33  1  0
 28  6  1  0
 24 12  1  0
 33 27  1  0
 23 18  1  0
  1 34  1  0
  1 35  1  0
  1 36  1  0
  2 37  1  0
  2 38  1  0
  8 39  1  0
 11 40  1  0
 11 41  1  0
 17 42  1  0
 19 43  1  0
 20 44  1  0
 21 45  1  0
 22 46  1  0
 29 47  1  0
 29 48  1  0
 30 49  1  0
 30 50  1  0
 31 51  1  0
 32 52  1  0
 32 53  1  0
 32 54  1  0
 33 55  1  0
 33 56  1  0
M  END
$$$$
