
     RDKit          3D

 37 37  0  0  0  0  0  0  0  0999 V2000
    6.4080   -0.5651   -1.3477 C   0  0  0  0  0  0  0  0  0  0  0  0
    5.0110    0.0015   -1.1446 C   0  0  0  0  0  0  0  0  0  0  0  0
    4.6884    0.1694    0.3407 C   0  0  0  0  0  0  0  0  0  0  0  0
    3.3365    0.8405    0.5969 C   0  0  0  0  0  0  0  0  0  0  0  0
    2.1452    0.0024    0.1350 C   0  0  0  0  0  0  0  0  0  0  0  0
    0.8147    0.6308    0.5154 C   0  0  0  0  0  0  0  0  0  0  0  0
    0.7236    1.7071    1.0973 O   0  0  0  0  0  0  0  0  0  0  0  0
   -0.2550   -0.1654    0.1212 N   0  0  0  0  0  0  0  0  0  0  0  0
   -1.5272    0.2614    0.3392 N   0  0  0  0  0  0  0  0  0  0  0  0
   -2.5287   -0.5017    0.0118 C   0  0  0  0  0  0  0  0  0  0  0  0
   -2.3759   -1.8913   -0.5714 C   0  0  0  0  0  0  0  0  0  0  0  0
   -3.9116    0.0283    0.2303 C   0  0  0  0  0  0  0  0  0  0  0  0
   -4.9918   -0.3840   -0.5600 C   0  0  0  0  0  0  0  0  0  0  0  0
   -6.2688    0.1393   -0.3300 C   0  0  0  0  0  0  0  0  0  0  0  0
   -6.4652    1.0788    0.6814 C   0  0  0  0  0  0  0  0  0  0  0  0
   -8.0378    1.7180    0.9587 Cl  0  0  0  0  0  0  0  0  0  0  0  0
   -5.3948    1.5067    1.4629 C   0  0  0  0  0  0  0  0  0  0  0  0
   -4.1184    0.9853    1.2348 C   0  0  0  0  0  0  0  0  0  0  0  0
    7.1670    0.0994   -0.9226 H   0  0  0  0  0  0  0  0  0  0  0  0
    6.5056   -1.5470   -0.8735 H   0  0  0  0  0  0  0  0  0  0  0  0
    6.6182   -0.6810   -2.4156 H   0  0  0  0  0  0  0  0  0  0  0  0
    4.2884   -0.6718   -1.6177 H   0  0  0  0  0  0  0  0  0  0  0  0
    4.9384    0.9694   -1.6538 H   0  0  0  0  0  0  0  0  0  0  0  0
    5.4684    0.7824    0.8094 H   0  0  0  0  0  0  0  0  0  0  0  0
    4.7142   -0.8076    0.8385 H   0  0  0  0  0  0  0  0  0  0  0  0
    3.3121    1.8223    0.1078 H   0  0  0  0  0  0  0  0  0  0  0  0
    3.2476    1.0308    1.6741 H   0  0  0  0  0  0  0  0  0  0  0  0
    2.1596   -0.1113   -0.9545 H   0  0  0  0  0  0  0  0  0  0  0  0
    2.1947   -0.9948    0.5881 H   0  0  0  0  0  0  0  0  0  0  0  0
   -0.0871   -1.0231   -0.3879 H   0  0  0  0  0  0  0  0  0  0  0  0
   -1.6356   -2.4567    0.0027 H   0  0  0  0  0  0  0  0  0  0  0  0
   -2.0471   -1.8131   -1.6114 H   0  0  0  0  0  0  0  0  0  0  0  0
   -3.3056   -2.4629   -0.5294 H   0  0  0  0  0  0  0  0  0  0  0  0
   -4.8617   -1.0921   -1.3732 H   0  0  0  0  0  0  0  0  0  0  0  0
   -7.1033   -0.1832   -0.9476 H   0  0  0  0  0  0  0  0  0  0  0  0
   -5.5410    2.2465    2.2457 H   0  0  0  0  0  0  0  0  0  0  0  0
   -3.2851    1.3321    1.8449 H   0  0  0  0  0  0  0  0  0  0  0  0
  1  2  1  0
  2  3  1  0
  3  4  1  0
  4  5  1  0
  5  6  1  0
  6  7  2  0
  6  8  1  0
  8  9  1  0
  9 10  2  3
 10 11  1  0
 10 12  1  0
 12 13  2  0
 13 14  1  0
 14 15  2  0
 15 16  1  0
 15 17  1  0
 17 18  2  0
 18 12  1  0
  1 19  1  0
  1 20  1  0
  1 21  1  0
  2 22  1  0
  2 23  1  0
  3 24  1  0
  3 25  1  0
  4 26  1  0
  4 27  1  0
  5 28  1  0
  5 29  1  0
  8 30  1  0
 11 31  1  0
 11 32  1  0
 11 33  1  0
 13 34  1  0
 14 35  1  0
 17 36  1  0
 18 37  1  0
M  END
$$$$
