
     RDKit          3D

 61 64  0  0  0  0  0  0  0  0999 V2000
    8.8290   -0.9726   -2.4873 C   0  0  0  0  0  0  0  0  0  0  0  0
    7.4334   -0.4939   -2.2162 C   0  0  0  0  0  0  0  0  0  0  0  0
    7.2138    0.7442   -1.6033 C   0  0  0  0  0  0  0  0  0  0  0  0
    5.9153    1.1763   -1.3255 C   0  0  0  0  0  0  0  0  0  0  0  0
    4.8121    0.3747   -1.6476 C   0  0  0  0  0  0  0  0  0  0  0  0
    3.4137    0.8379   -1.3217 C   0  0  0  0  0  0  0  0  0  0  0  0
    3.0905    0.6970    0.0898 N   0  0  0  0  0  0  0  0  0  0  0  0
    2.9830   -0.5974    0.7212 C   0  0  0  0  0  0  0  0  0  0  0  0
    2.5803   -0.2669    2.1445 C   0  0  0  0  0  0  0  0  0  0  0  0
    1.0691   -0.3310    2.3484 C   0  0  0  0  0  0  0  0  0  0  0  0
    0.6064   -1.0945    3.1925 O   0  0  0  0  0  0  0  0  0  0  0  0
    0.3387    0.5058    1.5239 N   0  0  0  0  0  0  0  0  0  0  0  0
   -1.0594    0.6901    1.5039 C   0  0  0  0  0  0  0  0  0  0  0  0
   -1.9436    0.0756    2.3945 C   0  0  0  0  0  0  0  0  0  0  0  0
   -3.3196    0.3117    2.3080 C   0  0  0  0  0  0  0  0  0  0  0  0
   -3.8174    1.1527    1.3114 C   0  0  0  0  0  0  0  0  0  0  0  0
   -5.5678    1.4713    1.2145 S   0  0  0  0  0  6  0  0  0  0  0  0
   -6.1126    1.3018    2.5448 O   0  0  0  0  0  0  0  0  0  0  0  0
   -5.7398    2.7145    0.4915 O   0  0  0  0  0  0  0  0  0  0  0  0
   -6.1411    0.2021    0.2305 N   0  0  0  0  0  0  0  0  0  0  0  0
   -5.7076    0.2155   -1.1877 C   0  0  0  0  0  0  0  0  0  0  0  0
   -6.6378   -0.6741   -2.0093 C   0  0  0  0  0  0  0  0  0  0  0  0
   -6.6948   -2.0917   -1.4453 C   0  0  0  0  0  0  0  0  0  0  0  0
   -7.0663   -2.0657    0.0342 C   0  0  0  0  0  0  0  0  0  0  0  0
   -6.1274   -1.1566    0.8254 C   0  0  0  0  0  0  0  0  0  0  0  0
   -2.9450    1.7975    0.4330 C   0  0  0  0  0  0  0  0  0  0  0  0
   -1.5712    1.5599    0.5297 C   0  0  0  0  0  0  0  0  0  0  0  0
    3.1499    1.1275    2.3985 C   0  0  0  0  0  0  0  0  0  0  0  0
    3.3212    1.7052    1.0147 C   0  0  0  0  0  0  0  0  0  0  0  0
    3.6072    2.8642    0.7671 O   0  0  0  0  0  0  0  0  0  0  0  0
    5.0347   -0.8727   -2.2471 C   0  0  0  0  0  0  0  0  0  0  0  0
    6.3346   -1.3036   -2.5258 C   0  0  0  0  0  0  0  0  0  0  0  0
    8.8656   -1.5563   -3.4115 H   0  0  0  0  0  0  0  0  0  0  0  0
    9.1793   -1.5954   -1.6595 H   0  0  0  0  0  0  0  0  0  0  0  0
    9.5179   -0.1305   -2.6084 H   0  0  0  0  0  0  0  0  0  0  0  0
    8.0520    1.3845   -1.3363 H   0  0  0  0  0  0  0  0  0  0  0  0
    5.7686    2.1466   -0.8520 H   0  0  0  0  0  0  0  0  0  0  0  0
    2.6718    0.2673   -1.8914 H   0  0  0  0  0  0  0  0  0  0  0  0
    3.3031    1.8877   -1.6156 H   0  0  0  0  0  0  0  0  0  0  0  0
    2.2573   -1.2163    0.1848 H   0  0  0  0  0  0  0  0  0  0  0  0
    3.9671   -1.0779    0.7004 H   0  0  0  0  0  0  0  0  0  0  0  0
    3.0167   -0.9933    2.8415 H   0  0  0  0  0  0  0  0  0  0  0  0
    0.8551    1.0328    0.8278 H   0  0  0  0  0  0  0  0  0  0  0  0
   -1.5942   -0.5829    3.1844 H   0  0  0  0  0  0  0  0  0  0  0  0
   -3.9881   -0.1603    3.0247 H   0  0  0  0  0  0  0  0  0  0  0  0
   -4.6746   -0.1448   -1.2690 H   0  0  0  0  0  0  0  0  0  0  0  0
   -5.7520    1.2305   -1.5949 H   0  0  0  0  0  0  0  0  0  0  0  0
   -6.2997   -0.7015   -3.0507 H   0  0  0  0  0  0  0  0  0  0  0  0
   -7.6483   -0.2443   -2.0083 H   0  0  0  0  0  0  0  0  0  0  0  0
   -5.7196   -2.5784   -1.5728 H   0  0  0  0  0  0  0  0  0  0  0  0
   -7.4279   -2.6855   -2.0039 H   0  0  0  0  0  0  0  0  0  0  0  0
   -7.0321   -3.0813    0.4443 H   0  0  0  0  0  0  0  0  0  0  0  0
   -8.0990   -1.7095    0.1415 H   0  0  0  0  0  0  0  0  0  0  0  0
   -6.4713   -1.1258    1.8645 H   0  0  0  0  0  0  0  0  0  0  0  0
   -5.1110   -1.5656    0.8094 H   0  0  0  0  0  0  0  0  0  0  0  0
   -3.3215    2.4884   -0.3189 H   0  0  0  0  0  0  0  0  0  0  0  0
   -0.9076    2.0742   -0.1617 H   0  0  0  0  0  0  0  0  0  0  0  0
    2.4892    1.7619    2.9967 H   0  0  0  0  0  0  0  0  0  0  0  0
    4.1374    1.0681    2.8674 H   0  0  0  0  0  0  0  0  0  0  0  0
    4.1990   -1.5202   -2.5019 H   0  0  0  0  0  0  0  0  0  0  0  0
    6.4854   -2.2771   -2.9874 H   0  0  0  0  0  0  0  0  0  0  0  0
  1  2  1  0
  2  3  2  0
  3  4  1  0
  4  5  2  0
  5  6  1  0
  6  7  1  0
  7  8  1  0
  8  9  1  0
  9 10  1  0
 10 11  2  0
 10 12  1  0
 12 13  1  0
 13 14  2  0
 14 15  1  0
 15 16  2  0
 16 17  1  0
 17 18  2  0
 17 19  2  0
 17 20  1  0
 20 21  1  0
 21 22  1  0
 22 23  1  0
 23 24  1  0
 24 25  1  0
 16 26  1  0
 26 27  2  0
  9 28  1  0
 28 29  1  0
 29 30  2  0
  5 31  1  0
 31 32  2  0
 32  2  1  0
 29  7  1  0
 27 13  1  0
 25 20  1  0
  1 33  1  0
  1 34  1  0
  1 35  1  0
  3 36  1  0
  4 37  1  0
  6 38  1  0
  6 39  1  0
  8 40  1  0
  8 41  1  0
  9 42  1  0
 12 43  1  0
 14 44  1  0
 15 45  1  0
 21 46  1  0
 21 47  1  0
 22 48  1  0
 22 49  1  0
 23 50  1  0
 23 51  1  0
 24 52  1  0
 24 53  1  0
 25 54  1  0
 25 55  1  0
 26 56  1  0
 27 57  1  0
 28 58  1  0
 28 59  1  0
 31 60  1  0
 32 61  1  0
M  END
$$$$
