
     RDKit          3D

 57 60  0  0  0  0  0  0  0  0999 V2000
   -4.0143    3.0754   -2.0780 C   0  0  0  0  0  0  0  0  0  0  0  0
   -4.1638    2.3364   -0.8631 O   0  0  0  0  0  0  0  0  0  0  0  0
   -2.9513    2.0928   -0.2814 C   0  0  0  0  0  0  0  0  0  0  0  0
   -2.3020    3.1466    0.3724 C   0  0  0  0  0  0  0  0  0  0  0  0
   -1.0958    2.9242    1.0389 C   0  0  0  0  0  0  0  0  0  0  0  0
   -0.5362    1.6435    1.0575 C   0  0  0  0  0  0  0  0  0  0  0  0
    0.7308    1.4320    1.7950 C   0  0  0  0  0  0  0  0  0  0  0  0
    0.8009    1.8723    2.9404 O   0  0  0  0  0  0  0  0  0  0  0  0
    1.7743    0.7576    1.1737 N   0  0  0  0  0  0  0  0  0  0  0  0
    2.9791    0.4830    1.9587 C   0  0  0  0  0  0  0  0  0  0  0  0
    3.8474   -0.6402    1.3652 C   0  0  0  0  0  0  0  0  0  0  0  0
    4.1990   -0.3750   -0.0415 N   0  0  0  0  0  0  0  0  0  0  0  0
    5.3611   -0.8893   -0.5963 C   0  0  0  0  0  0  0  0  0  0  0  0
    5.9930   -2.0264   -0.0649 C   0  0  0  0  0  0  0  0  0  0  0  0
    7.1648   -2.5553   -0.6206 C   0  0  0  0  0  0  0  0  0  0  0  0
    7.7408   -1.9551   -1.7328 C   0  0  0  0  0  0  0  0  0  0  0  0
    7.1420   -0.8303   -2.2852 C   0  0  0  0  0  0  0  0  0  0  0  0
    5.9692   -0.3102   -1.7227 C   0  0  0  0  0  0  0  0  0  0  0  0
    3.3239    0.5361   -0.7948 C   0  0  0  0  0  0  0  0  0  0  0  0
    1.8746    0.4950   -0.2695 C   0  0  0  0  0  0  0  0  0  0  0  0
   -1.2049    0.5771    0.4508 C   0  0  0  0  0  0  0  0  0  0  0  0
   -2.4164    0.8035   -0.2203 C   0  0  0  0  0  0  0  0  0  0  0  0
   -3.1751   -0.5759   -1.0410 S   0  0  0  0  0  6  0  0  0  0  0  0
   -2.1364   -1.5698   -1.2376 O   0  0  0  0  0  0  0  0  0  0  0  0
   -3.9454   -0.1153   -2.1764 O   0  0  0  0  0  0  0  0  0  0  0  0
   -4.2366   -1.1875    0.1296 N   0  0  0  0  0  0  0  0  0  0  0  0
   -5.3599   -0.3169    0.5568 C   0  0  0  0  0  0  0  0  0  0  0  0
   -6.3979   -1.2967    1.0814 C   0  0  0  0  0  0  0  0  0  0  0  0
   -6.2847   -2.4369    0.0910 C   0  0  0  0  0  0  0  0  0  0  0  0
   -4.7847   -2.5436   -0.1528 C   0  0  0  0  0  0  0  0  0  0  0  0
   -4.9681    3.0358   -2.6124 H   0  0  0  0  0  0  0  0  0  0  0  0
   -3.7869    4.1253   -1.8675 H   0  0  0  0  0  0  0  0  0  0  0  0
   -3.2432    2.6410   -2.7243 H   0  0  0  0  0  0  0  0  0  0  0  0
   -2.7432    4.1404    0.3835 H   0  0  0  0  0  0  0  0  0  0  0  0
   -0.5994    3.7438    1.5550 H   0  0  0  0  0  0  0  0  0  0  0  0
    2.6954    0.2305    2.9867 H   0  0  0  0  0  0  0  0  0  0  0  0
    3.5527    1.4178    1.9965 H   0  0  0  0  0  0  0  0  0  0  0  0
    4.7466   -0.7230    1.9873 H   0  0  0  0  0  0  0  0  0  0  0  0
    3.3033   -1.5908    1.4195 H   0  0  0  0  0  0  0  0  0  0  0  0
    5.5665   -2.5458    0.7887 H   0  0  0  0  0  0  0  0  0  0  0  0
    7.6184   -3.4400   -0.1823 H   0  0  0  0  0  0  0  0  0  0  0  0
    8.6494   -2.3620   -2.1667 H   0  0  0  0  0  0  0  0  0  0  0  0
    7.5845   -0.3485   -3.1529 H   0  0  0  0  0  0  0  0  0  0  0  0
    5.5524    0.5830   -2.1787 H   0  0  0  0  0  0  0  0  0  0  0  0
    3.2939    0.2639   -1.8566 H   0  0  0  0  0  0  0  0  0  0  0  0
    3.7152    1.5575   -0.7127 H   0  0  0  0  0  0  0  0  0  0  0  0
    1.2691    1.2167   -0.8263 H   0  0  0  0  0  0  0  0  0  0  0  0
    1.4579   -0.5053   -0.4361 H   0  0  0  0  0  0  0  0  0  0  0  0
   -0.7929   -0.4280    0.5168 H   0  0  0  0  0  0  0  0  0  0  0  0
   -5.0433    0.3789    1.3381 H   0  0  0  0  0  0  0  0  0  0  0  0
   -5.7740    0.2395   -0.2901 H   0  0  0  0  0  0  0  0  0  0  0  0
   -7.4014   -0.8638    1.1189 H   0  0  0  0  0  0  0  0  0  0  0  0
   -6.1286   -1.6387    2.0880 H   0  0  0  0  0  0  0  0  0  0  0  0
   -6.7145   -3.3707    0.4634 H   0  0  0  0  0  0  0  0  0  0  0  0
   -6.7978   -2.1745   -0.8420 H   0  0  0  0  0  0  0  0  0  0  0  0
   -4.5835   -2.8851   -1.1725 H   0  0  0  0  0  0  0  0  0  0  0  0
   -4.3244   -3.2491    0.5472 H   0  0  0  0  0  0  0  0  0  0  0  0
  1  2  1  0
  2  3  1  0
  3  4  2  0
  4  5  1  0
  5  6  2  0
  6  7  1  0
  7  8  2  0
  7  9  1  0
  9 10  1  0
 10 11  1  0
 11 12  1  0
 12 13  1  0
 13 14  2  0
 14 15  1  0
 15 16  2  0
 16 17  1  0
 17 18  2  0
 12 19  1  0
 19 20  1  0
  6 21  1  0
 21 22  2  0
 22 23  1  0
 23 24  2  0
 23 25  2  0
 23 26  1  0
 26 27  1  0
 27 28  1  0
 28 29  1  0
 29 30  1  0
 22  3  1  0
 30 26  1  0
 20  9  1  0
 18 13  1  0
  1 31  1  0
  1 32  1  0
  1 33  1  0
  4 34  1  0
  5 35  1  0
 10 36  1  0
 10 37  1  0
 11 38  1  0
 11 39  1  0
 14 40  1  0
 15 41  1  0
 16 42  1  0
 17 43  1  0
 18 44  1  0
 19 45  1  0
 19 46  1  0
 20 47  1  0
 20 48  1  0
 21 49  1  0
 27 50  1  0
 27 51  1  0
 28 52  1  0
 28 53  1  0
 29 54  1  0
 29 55  1  0
 30 56  1  0
 30 57  1  0
M  END
$$$$
