
     RDKit          3D

 39 41  0  0  0  0  0  0  0  0999 V2000
    2.5154    3.0363   -1.2257 C   0  0  0  0  0  0  0  0  0  0  0  0
    2.0360    1.7885   -1.9190 C   0  0  0  0  0  0  0  0  0  0  0  0
    2.7046    1.2320   -2.7895 O   0  0  0  0  0  0  0  0  0  0  0  0
    0.7219    1.2426   -1.5052 C   0  0  0  0  0  0  0  0  0  0  0  0
    0.6575    0.4905   -0.3829 C   0  0  0  0  0  0  0  0  0  0  0  0
    1.7747    0.1547    0.3851 N   0  0  0  0  0  0  0  0  0  0  0  0
    1.7935    0.3356    1.8558 C   0  0  0  0  0  0  0  0  0  0  0  0
    2.2023   -0.9627    2.5639 C   0  0  0  0  0  0  0  0  0  0  0  0
    3.5044   -1.4347    2.1932 O   0  0  0  0  0  0  0  0  0  0  0  0
    3.8976   -1.0449    0.8680 C   0  0  0  0  0  0  0  0  0  0  0  0
    2.7132   -0.8958   -0.0962 C   0  0  0  0  0  0  0  0  0  0  0  0
   -0.5803    0.0366    0.0072 N   0  0  0  0  0  0  0  0  0  0  0  0
   -1.7008    0.1953   -0.7673 C   0  0  0  0  0  0  0  0  0  0  0  0
   -2.9735   -0.4859   -0.3716 C   0  0  0  0  0  0  0  0  0  0  0  0
   -3.9399   -0.7595   -1.3478 C   0  0  0  0  0  0  0  0  0  0  0  0
   -5.1287   -1.4027   -0.9987 C   0  0  0  0  0  0  0  0  0  0  0  0
   -5.3602   -1.7691    0.3262 C   0  0  0  0  0  0  0  0  0  0  0  0
   -4.4078   -1.4881    1.3054 C   0  0  0  0  0  0  0  0  0  0  0  0
   -3.2160   -0.8454    0.9606 C   0  0  0  0  0  0  0  0  0  0  0  0
   -1.6986    0.9129   -1.8501 N   0  0  0  0  0  0  0  0  0  0  0  0
   -0.5439    1.5672   -2.2440 C   0  0  0  0  0  0  0  0  0  0  0  0
   -0.6156    2.6923   -3.5093 S   0  0  0  0  0  0  0  0  0  0  0  0
    1.7464    3.4392   -0.5605 H   0  0  0  0  0  0  0  0  0  0  0  0
    2.7532    3.7952   -1.9758 H   0  0  0  0  0  0  0  0  0  0  0  0
    3.4041    2.8006   -0.6345 H   0  0  0  0  0  0  0  0  0  0  0  0
    2.5195    1.1247    2.0841 H   0  0  0  0  0  0  0  0  0  0  0  0
    0.8188    0.6695    2.2291 H   0  0  0  0  0  0  0  0  0  0  0  0
    1.4835   -1.7602    2.3419 H   0  0  0  0  0  0  0  0  0  0  0  0
    2.2034   -0.8164    3.6486 H   0  0  0  0  0  0  0  0  0  0  0  0
    4.4505   -0.1015    0.9464 H   0  0  0  0  0  0  0  0  0  0  0  0
    4.5940   -1.8036    0.4971 H   0  0  0  0  0  0  0  0  0  0  0  0
    3.0898   -0.6538   -1.0933 H   0  0  0  0  0  0  0  0  0  0  0  0
    2.1691   -1.8463   -0.1584 H   0  0  0  0  0  0  0  0  0  0  0  0
   -0.5461   -0.7169    0.6795 H   0  0  0  0  0  0  0  0  0  0  0  0
   -3.7715   -0.4756   -2.3848 H   0  0  0  0  0  0  0  0  0  0  0  0
   -5.8743   -1.6135   -1.7616 H   0  0  0  0  0  0  0  0  0  0  0  0
   -6.2889   -2.2662    0.5965 H   0  0  0  0  0  0  0  0  0  0  0  0
   -4.6003   -1.7616    2.3401 H   0  0  0  0  0  0  0  0  0  0  0  0
   -2.5070   -0.6092    1.7475 H   0  0  0  0  0  0  0  0  0  0  0  0
  1  2  1  0
  2  3  2  0
  2  4  1  0
  4  5  2  0
  5  6  1  0
  6  7  1  0
  7  8  1  0
  8  9  1  0
  9 10  1  0
 10 11  1  0
  5 12  1  0
 12 13  1  0
 13 14  1  0
 14 15  2  0
 15 16  1  0
 16 17  2  0
 17 18  1  0
 18 19  2  0
 13 20  2  0
 20 21  1  0
 21 22  2  0
 21  4  1  0
 11  6  1  0
 19 14  1  0
  1 23  1  0
  1 24  1  0
  1 25  1  0
  7 26  1  0
  7 27  1  0
  8 28  1  0
  8 29  1  0
 10 30  1  0
 10 31  1  0
 11 32  1  0
 11 33  1  0
 12 34  1  0
 15 35  1  0
 16 36  1  0
 17 37  1  0
 18 38  1  0
 19 39  1  0
M  END
$$$$
