
     RDKit          3D

 73 76  0  0  0  0  0  0  0  0999 V2000
    3.0978    2.4458   -0.6299 C   0  0  0  0  0  0  0  0  0  0  0  0
    3.9045    2.0044    0.5945 C   0  0  0  0  0  0  0  0  0  0  0  0
    5.4210    2.1295    0.3900 C   0  0  0  0  0  0  0  0  0  0  0  0
    6.0651    0.9598   -0.3681 C   0  0  0  0  0  0  0  0  0  0  0  0
    5.9376    1.0885   -1.8878 C   0  0  0  0  0  0  0  0  0  0  0  0
    5.5285   -0.3894    0.1351 C   0  0  0  0  0  0  0  0  0  0  0  0
    4.0556   -0.4459    0.1397 N   0  0  0  0  0  0  0  0  0  0  0  0
    3.6080   -1.8038    0.4963 C   0  0  0  0  0  0  0  0  0  0  0  0
    2.1001   -2.0121    0.3150 C   0  0  0  0  0  0  0  0  0  0  0  0
    1.7232   -3.4825    0.4913 C   0  0  0  0  0  0  0  0  0  0  0  0
    0.2859   -3.6570    0.4790 N   0  0  0  0  0  0  0  0  0  0  0  0
   -0.4409   -3.6988   -0.6906 C   0  0  0  0  0  0  0  0  0  0  0  0
    0.0795   -3.7957   -1.7995 O   0  0  0  0  0  0  0  0  0  0  0  0
   -1.9652   -3.7112   -0.5205 C   0  0  0  0  0  0  0  0  0  0  0  0
   -2.4389   -3.1207    0.7453 N   0  0  0  0  0  0  0  0  0  0  0  0
   -2.8944   -4.0125    1.7214 C   0  0  0  0  0  0  0  0  0  0  0  0
   -2.8274   -5.2359    1.5829 O   0  0  0  0  0  0  0  0  0  0  0  0
   -3.5825   -3.4340    2.9351 C   0  0  0  0  0  0  0  0  0  0  0  0
   -2.5594   -2.1869    3.7205 S   0  0  0  0  0  0  0  0  0  0  0  0
   -2.3274   -1.1683    2.2791 C   0  0  0  0  0  0  0  0  0  0  0  0
   -2.1077    0.1994    2.5039 C   0  0  0  0  0  0  0  0  0  0  0  0
   -1.8791    1.0629    1.4386 C   0  0  0  0  0  0  0  0  0  0  0  0
   -1.8778    0.5546    0.1424 C   0  0  0  0  0  0  0  0  0  0  0  0
   -1.5612    1.6614   -1.2224 S   0  0  0  0  0  6  0  0  0  0  0  0
   -1.1048    0.8571   -2.3347 O   0  0  0  0  0  0  0  0  0  0  0  0
   -0.7682    2.7548   -0.7032 O   0  0  0  0  0  0  0  0  0  0  0  0
   -3.1060    2.2489   -1.5947 N   0  0  0  0  0  0  0  0  0  0  0  0
   -4.0108    1.3671   -2.3674 C   0  0  0  0  0  0  0  0  0  0  0  0
   -5.4761    1.6006   -2.0179 C   0  0  0  0  0  0  0  0  0  0  0  0
   -5.8435    3.0784   -2.0910 C   0  0  0  0  0  0  0  0  0  0  0  0
   -4.8274    3.9755   -1.3806 C   0  0  0  0  0  0  0  0  0  0  0  0
   -3.7428    3.1880   -0.6529 C   0  0  0  0  0  0  0  0  0  0  0  0
   -2.0515   -0.8174   -0.0916 C   0  0  0  0  0  0  0  0  0  0  0  0
   -2.2941   -1.7036    0.9728 C   0  0  0  0  0  0  0  0  0  0  0  0
    3.5197    0.5846    1.0434 C   0  0  0  0  0  0  0  0  0  0  0  0
    2.0421    2.5572   -0.3587 H   0  0  0  0  0  0  0  0  0  0  0  0
    3.4452    3.4145   -1.0022 H   0  0  0  0  0  0  0  0  0  0  0  0
    3.1393    1.7254   -1.4487 H   0  0  0  0  0  0  0  0  0  0  0  0
    3.6313    2.6954    1.4042 H   0  0  0  0  0  0  0  0  0  0  0  0
    5.8809    2.1624    1.3879 H   0  0  0  0  0  0  0  0  0  0  0  0
    5.6718    3.0862   -0.0836 H   0  0  0  0  0  0  0  0  0  0  0  0
    7.1418    0.9901   -0.1506 H   0  0  0  0  0  0  0  0  0  0  0  0
    6.2435    2.0841   -2.2247 H   0  0  0  0  0  0  0  0  0  0  0  0
    4.9244    0.8988   -2.2471 H   0  0  0  0  0  0  0  0  0  0  0  0
    6.5916    0.3597   -2.3804 H   0  0  0  0  0  0  0  0  0  0  0  0
    5.9173   -0.5786    1.1449 H   0  0  0  0  0  0  0  0  0  0  0  0
    5.9316   -1.1808   -0.5090 H   0  0  0  0  0  0  0  0  0  0  0  0
    3.8944   -2.0461    1.5291 H   0  0  0  0  0  0  0  0  0  0  0  0
    4.1202   -2.5247   -0.1550 H   0  0  0  0  0  0  0  0  0  0  0  0
    1.7886   -1.6688   -0.6794 H   0  0  0  0  0  0  0  0  0  0  0  0
    1.5393   -1.4176    1.0456 H   0  0  0  0  0  0  0  0  0  0  0  0
    2.1658   -4.0915   -0.3049 H   0  0  0  0  0  0  0  0  0  0  0  0
    2.0803   -3.8602    1.4554 H   0  0  0  0  0  0  0  0  0  0  0  0
   -0.2190   -3.5621    1.3523 H   0  0  0  0  0  0  0  0  0  0  0  0
   -2.2790   -4.7575   -0.5994 H   0  0  0  0  0  0  0  0  0  0  0  0
   -2.4349   -3.1909   -1.3605 H   0  0  0  0  0  0  0  0  0  0  0  0
   -4.5490   -3.0160    2.6347 H   0  0  0  0  0  0  0  0  0  0  0  0
   -3.7687   -4.2353    3.6565 H   0  0  0  0  0  0  0  0  0  0  0  0
   -2.1017    0.5990    3.5164 H   0  0  0  0  0  0  0  0  0  0  0  0
   -1.6934    2.1183    1.6265 H   0  0  0  0  0  0  0  0  0  0  0  0
   -3.7787    0.3118   -2.1973 H   0  0  0  0  0  0  0  0  0  0  0  0
   -3.8480    1.5726   -3.4320 H   0  0  0  0  0  0  0  0  0  0  0  0
   -5.6751    1.2268   -1.0058 H   0  0  0  0  0  0  0  0  0  0  0  0
   -6.1175    1.0237   -2.6933 H   0  0  0  0  0  0  0  0  0  0  0  0
   -5.9125    3.3875   -3.1426 H   0  0  0  0  0  0  0  0  0  0  0  0
   -6.8425    3.2279   -1.6629 H   0  0  0  0  0  0  0  0  0  0  0  0
   -4.3584    4.6335   -2.1241 H   0  0  0  0  0  0  0  0  0  0  0  0
   -5.3442    4.6331   -0.6718 H   0  0  0  0  0  0  0  0  0  0  0  0
   -4.1689    2.6434    0.1965 H   0  0  0  0  0  0  0  0  0  0  0  0
   -3.0085    3.8989   -0.2619 H   0  0  0  0  0  0  0  0  0  0  0  0
   -1.9958   -1.1618   -1.1199 H   0  0  0  0  0  0  0  0  0  0  0  0
    3.8808    0.4170    2.0668 H   0  0  0  0  0  0  0  0  0  0  0  0
    2.4262    0.5388    1.0845 H   0  0  0  0  0  0  0  0  0  0  0  0
  1  2  1  0
  2  3  1  0
  3  4  1  0
  4  5  1  0
  4  6  1  0
  6  7  1  0
  7  8  1  0
  8  9  1  0
  9 10  1  0
 10 11  1  0
 11 12  1  0
 12 13  2  0
 12 14  1  0
 14 15  1  0
 15 16  1  0
 16 17  2  0
 16 18  1  0
 18 19  1  0
 19 20  1  0
 20 21  2  0
 21 22  1  0
 22 23  2  0
 23 24  1  0
 24 25  2  0
 24 26  2  0
 24 27  1  0
 27 28  1  0
 28 29  1  0
 29 30  1  0
 30 31  1  0
 31 32  1  0
 23 33  1  0
 33 34  2  0
  7 35  1  0
 35  2  1  0
 34 15  1  0
 34 20  1  0
 32 27  1  0
  1 36  1  0
  1 37  1  0
  1 38  1  0
  2 39  1  0
  3 40  1  0
  3 41  1  0
  4 42  1  0
  5 43  1  0
  5 44  1  0
  5 45  1  0
  6 46  1  0
  6 47  1  0
  8 48  1  0
  8 49  1  0
  9 50  1  0
  9 51  1  0
 10 52  1  0
 10 53  1  0
 11 54  1  0
 14 55  1  0
 14 56  1  0
 18 57  1  0
 18 58  1  0
 21 59  1  0
 22 60  1  0
 28 61  1  0
 28 62  1  0
 29 63  1  0
 29 64  1  0
 30 65  1  0
 30 66  1  0
 31 67  1  0
 31 68  1  0
 32 69  1  0
 32 70  1  0
 33 71  1  0
 35 72  1  0
 35 73  1  0
M  END
$$$$
