
     RDKit          3D

 40 43  0  0  0  0  0  0  0  0999 V2000
    7.5146    1.6475    0.6087 C   0  0  0  0  0  0  0  0  0  0  0  0
    6.1932    1.0676    0.2449 C   0  0  0  0  0  0  0  0  0  0  0  0
    5.7385    0.9883   -0.9868 N   0  0  0  0  0  0  0  0  0  0  0  0
    4.4839    0.4030   -0.9872 C   0  0  0  0  0  0  0  0  0  0  0  0
    3.6890    0.1573   -2.1225 C   0  0  0  0  0  0  0  0  0  0  0  0
    2.4361   -0.4513   -1.9737 C   0  0  0  0  0  0  0  0  0  0  0  0
    1.9611   -0.8316   -0.7142 C   0  0  0  0  0  0  0  0  0  0  0  0
    0.6944   -1.4514   -0.6744 N   0  0  0  0  0  0  0  0  0  0  0  0
    0.0682   -2.0183    0.4228 C   0  0  0  0  0  0  0  0  0  0  0  0
    0.5272   -2.1075    1.5592 O   0  0  0  0  0  0  0  0  0  0  0  0
   -1.3134   -2.5674    0.0960 C   0  0  0  0  0  0  0  0  0  0  0  0
   -2.4045   -1.5636    0.3611 C   0  0  0  0  0  0  0  0  0  0  0  0
   -2.9636   -1.4543    1.6440 C   0  0  0  0  0  0  0  0  0  0  0  0
   -3.9583   -0.5092    1.9064 C   0  0  0  0  0  0  0  0  0  0  0  0
   -4.3890    0.3450    0.8949 C   0  0  0  0  0  0  0  0  0  0  0  0
   -3.8487    0.2354   -0.3905 C   0  0  0  0  0  0  0  0  0  0  0  0
   -2.8523   -0.7054   -0.6541 C   0  0  0  0  0  0  0  0  0  0  0  0
   -4.2371    1.0286   -1.4408 O   0  0  0  0  0  0  0  0  0  0  0  0
   -5.4603    1.7168   -1.1534 C   0  0  0  0  0  0  0  0  0  0  0  0
   -5.4329    2.3065    0.2491 C   0  0  0  0  0  0  0  0  0  0  0  0
   -5.3480    1.2668    1.2316 O   0  0  0  0  0  0  0  0  0  0  0  0
    2.7369   -0.5829    0.4246 C   0  0  0  0  0  0  0  0  0  0  0  0
    3.9913    0.0364    0.2653 C   0  0  0  0  0  0  0  0  0  0  0  0
    5.1469    0.4698    1.4680 S   0  0  0  0  0  0  0  0  0  0  0  0
    8.1455    1.7549   -0.2818 H   0  0  0  0  0  0  0  0  0  0  0  0
    8.0465    1.0062    1.3195 H   0  0  0  0  0  0  0  0  0  0  0  0
    7.3865    2.6414    1.0510 H   0  0  0  0  0  0  0  0  0  0  0  0
    4.0575    0.4390   -3.1047 H   0  0  0  0  0  0  0  0  0  0  0  0
    1.8481   -0.6318   -2.8714 H   0  0  0  0  0  0  0  0  0  0  0  0
    0.2046   -1.5123   -1.5588 H   0  0  0  0  0  0  0  0  0  0  0  0
   -1.3530   -2.9102   -0.9433 H   0  0  0  0  0  0  0  0  0  0  0  0
   -1.4747   -3.4657    0.7025 H   0  0  0  0  0  0  0  0  0  0  0  0
   -2.6177   -2.0983    2.4530 H   0  0  0  0  0  0  0  0  0  0  0  0
   -4.3805   -0.4270    2.9054 H   0  0  0  0  0  0  0  0  0  0  0  0
   -2.4382   -0.7641   -1.6575 H   0  0  0  0  0  0  0  0  0  0  0  0
   -5.5748    2.5138   -1.8968 H   0  0  0  0  0  0  0  0  0  0  0  0
   -6.2921    1.0112   -1.2767 H   0  0  0  0  0  0  0  0  0  0  0  0
   -6.3516    2.8720    0.4405 H   0  0  0  0  0  0  0  0  0  0  0  0
   -4.5812    2.9866    0.3830 H   0  0  0  0  0  0  0  0  0  0  0  0
    2.4019   -0.8418    1.4243 H   0  0  0  0  0  0  0  0  0  0  0  0
  1  2  1  0
  2  3  2  0
  3  4  1  0
  4  5  2  0
  5  6  1  0
  6  7  2  0
  7  8  1  0
  8  9  1  0
  9 10  2  0
  9 11  1  0
 11 12  1  0
 12 13  2  0
 13 14  1  0
 14 15  2  0
 15 16  1  0
 16 17  2  0
 16 18  1  0
 18 19  1  0
 19 20  1  0
 20 21  1  0
  7 22  1  0
 22 23  2  0
 23 24  1  0
 24  2  1  0
 23  4  1  0
 17 12  1  0
 21 15  1  0
  1 25  1  0
  1 26  1  0
  1 27  1  0
  5 28  1  0
  6 29  1  0
  8 30  1  0
 11 31  1  0
 11 32  1  0
 13 33  1  0
 14 34  1  0
 17 35  1  0
 19 36  1  0
 19 37  1  0
 20 38  1  0
 20 39  1  0
 22 40  1  0
M  END
$$$$
