
     RDKit          3D

 52 55  0  0  0  0  0  0  0  0999 V2000
    4.2390    2.4972   -1.3263 C   0  0  0  0  0  0  0  0  0  0  0  0
    3.4383    1.2491   -0.9751 C   0  0  0  0  0  0  0  0  0  0  0  0
    4.2189    0.2633   -0.0745 C   0  0  0  0  0  0  0  0  0  0  0  0
    4.4527    0.8025    1.3424 C   0  0  0  0  0  0  0  0  0  0  0  0
    3.6045   -1.1003   -0.0479 N   0  0  0  0  0  0  0  0  0  0  0  0
    2.2564   -1.1700    0.3329 C   0  0  0  0  0  0  0  0  0  0  0  0
    1.6490   -0.2227    0.8247 O   0  0  0  0  0  0  0  0  0  0  0  0
    1.5947   -2.4888    0.1550 C   0  0  0  0  0  0  0  0  0  0  0  0
    0.2595   -2.6761    0.1161 C   0  0  0  0  0  0  0  0  0  0  0  0
   -0.7894   -1.6531    0.1716 C   0  0  0  0  0  0  0  0  0  0  0  0
   -0.9631   -0.7394   -0.8688 C   0  0  0  0  0  0  0  0  0  0  0  0
   -1.9949    0.2146   -0.8229 C   0  0  0  0  0  0  0  0  0  0  0  0
   -2.8970    0.2441    0.2619 C   0  0  0  0  0  0  0  0  0  0  0  0
   -2.7040   -0.6753    1.3151 C   0  0  0  0  0  0  0  0  0  0  0  0
   -1.6668   -1.6228    1.2554 C   0  0  0  0  0  0  0  0  0  0  0  0
   -3.6338   -0.7024    2.5024 C   0  0  0  0  0  0  0  0  0  0  0  0
   -4.4374    0.5830    2.6257 C   0  0  0  0  0  0  0  0  0  0  0  0
   -5.0073    0.9525    1.2662 C   0  0  0  0  0  0  0  0  0  0  0  0
   -3.9214    1.2012    0.3206 N   0  0  0  0  0  0  0  0  0  0  0  0
   -4.2774    1.8695   -0.9288 C   0  0  0  0  0  0  0  0  0  0  0  0
   -3.0220    2.3578   -1.6328 C   0  0  0  0  0  0  0  0  0  0  0  0
   -2.1455    1.1655   -1.9838 C   0  0  0  0  0  0  0  0  0  0  0  0
    2.4257   -3.6955    0.0099 C   0  0  0  0  0  0  0  0  0  0  0  0
    1.9852   -4.8385   -0.0415 O   0  0  0  0  0  0  0  0  0  0  0  0
    3.7622   -3.4510   -0.0926 N   0  0  0  0  0  0  0  0  0  0  0  0
    4.3950   -2.2412   -0.1873 C   0  0  0  0  0  0  0  0  0  0  0  0
    6.0502   -2.3210   -0.4592 S   0  0  0  0  0  0  0  0  0  0  0  0
    5.1891    2.2353   -1.8031 H   0  0  0  0  0  0  0  0  0  0  0  0
    3.6725    3.1219   -2.0250 H   0  0  0  0  0  0  0  0  0  0  0  0
    4.4505    3.0995   -0.4383 H   0  0  0  0  0  0  0  0  0  0  0  0
    3.1655    0.7423   -1.9091 H   0  0  0  0  0  0  0  0  0  0  0  0
    2.5027    1.5672   -0.5046 H   0  0  0  0  0  0  0  0  0  0  0  0
    5.2070    0.1816   -0.5342 H   0  0  0  0  0  0  0  0  0  0  0  0
    3.5169    1.0660    1.8436 H   0  0  0  0  0  0  0  0  0  0  0  0
    5.0797    1.6994    1.3221 H   0  0  0  0  0  0  0  0  0  0  0  0
    4.9625    0.0577    1.9632 H   0  0  0  0  0  0  0  0  0  0  0  0
   -0.1455   -3.6834    0.0138 H   0  0  0  0  0  0  0  0  0  0  0  0
   -0.2945   -0.7582   -1.7261 H   0  0  0  0  0  0  0  0  0  0  0  0
   -1.5467   -2.3345    2.0697 H   0  0  0  0  0  0  0  0  0  0  0  0
   -4.3161   -1.5538    2.3851 H   0  0  0  0  0  0  0  0  0  0  0  0
   -3.0634   -0.8559    3.4262 H   0  0  0  0  0  0  0  0  0  0  0  0
   -5.2416    0.4531    3.3581 H   0  0  0  0  0  0  0  0  0  0  0  0
   -3.7916    1.3929    2.9899 H   0  0  0  0  0  0  0  0  0  0  0  0
   -5.6159    1.8580    1.3747 H   0  0  0  0  0  0  0  0  0  0  0  0
   -5.6667    0.1603    0.8884 H   0  0  0  0  0  0  0  0  0  0  0  0
   -4.8502    1.1903   -1.5735 H   0  0  0  0  0  0  0  0  0  0  0  0
   -4.9187    2.7327   -0.7148 H   0  0  0  0  0  0  0  0  0  0  0  0
   -2.4716    3.0448   -0.9766 H   0  0  0  0  0  0  0  0  0  0  0  0
   -3.2811    2.9122   -2.5415 H   0  0  0  0  0  0  0  0  0  0  0  0
   -1.1620    1.5285   -2.3057 H   0  0  0  0  0  0  0  0  0  0  0  0
   -2.5900    0.6153   -2.8229 H   0  0  0  0  0  0  0  0  0  0  0  0
    4.3378   -4.2752   -0.2134 H   0  0  0  0  0  0  0  0  0  0  0  0
  1  2  1  0
  2  3  1  0
  3  4  1  0
  3  5  1  0
  5  6  1  0
  6  7  2  0
  6  8  1  0
  8  9  2  3
  9 10  1  0
 10 11  2  0
 11 12  1  0
 12 13  2  0
 13 14  1  0
 14 15  2  0
 14 16  1  0
 16 17  1  0
 17 18  1  0
 18 19  1  0
 19 20  1  0
 20 21  1  0
 21 22  1  0
  8 23  1  0
 23 24  2  0
 23 25  1  0
 25 26  1  0
 26 27  2  0
 26  5  1  0
 15 10  1  0
 22 12  1  0
 19 13  1  0
  1 28  1  0
  1 29  1  0
  1 30  1  0
  2 31  1  0
  2 32  1  0
  3 33  1  0
  4 34  1  0
  4 35  1  0
  4 36  1  0
  9 37  1  0
 11 38  1  0
 15 39  1  0
 16 40  1  0
 16 41  1  0
 17 42  1  0
 17 43  1  0
 18 44  1  0
 18 45  1  0
 20 46  1  0
 20 47  1  0
 21 48  1  0
 21 49  1  0
 22 50  1  0
 22 51  1  0
 25 52  1  0
M  END
$$$$
