
     RDKit          3D

 42 44  0  0  0  0  0  0  0  0999 V2000
   -4.7008    3.4336    4.7835 C   0  0  0  0  0  0  0  0  0  0  0  0
   -4.4077    2.0136    4.3174 C   0  0  0  0  0  0  0  0  0  0  0  0
   -3.2547    1.9841    3.3145 C   0  0  0  0  0  0  0  0  0  0  0  0
   -2.9567    0.5556    2.8497 C   0  0  0  0  0  0  0  0  0  0  0  0
   -1.8116    0.5182    1.8669 C   0  0  0  0  0  0  0  0  0  0  0  0
   -0.4887    0.4437    2.3191 C   0  0  0  0  0  0  0  0  0  0  0  0
    0.5766    0.4468    1.4113 C   0  0  0  0  0  0  0  0  0  0  0  0
    0.3403    0.5276    0.0324 C   0  0  0  0  0  0  0  0  0  0  0  0
    1.4287    0.5454   -0.9412 C   0  0  0  0  0  0  0  0  0  0  0  0
    2.7065    0.9975   -0.6760 C   0  0  0  0  0  0  0  0  0  0  0  0
    3.6798    0.8845   -2.0804 S   0  0  0  0  0  0  0  0  0  0  0  0
    2.3408    0.2045   -2.9499 C   0  0  0  0  0  0  0  0  0  0  0  0
    2.4938   -0.1325   -4.3245 C   0  0  0  0  0  0  0  0  0  0  0  0
    2.0681    0.8298   -5.2891 C   0  0  0  0  0  0  0  0  0  0  0  0
    1.7549    1.5944   -6.1050 N   0  0  0  0  0  0  0  0  0  0  0  0
    2.9992   -1.3038   -4.7605 C   0  0  0  0  0  0  0  0  0  0  0  0
    3.4583   -2.3815   -3.9475 C   0  0  0  0  0  0  0  0  0  0  0  0
    4.0238   -3.5842   -4.3665 C   0  0  0  0  0  0  0  0  0  0  0  0
    4.3219   -4.3548   -3.2176 C   0  0  0  0  0  0  0  0  0  0  0  0
    3.9281   -3.5929   -2.1468 C   0  0  0  0  0  0  0  0  0  0  0  0
    3.4165   -2.4142   -2.5716 O   0  0  0  0  0  0  0  0  0  0  0  0
    1.2245    0.1277   -2.2490 N   0  0  0  0  0  0  0  0  0  0  0  0
   -0.9859    0.5895   -0.4163 C   0  0  0  0  0  0  0  0  0  0  0  0
   -2.0517    0.5907    0.4904 C   0  0  0  0  0  0  0  0  0  0  0  0
   -5.5236    3.4344    5.5072 H   0  0  0  0  0  0  0  0  0  0  0  0
   -3.8213    3.8785    5.2661 H   0  0  0  0  0  0  0  0  0  0  0  0
   -4.9889    4.0706    3.9394 H   0  0  0  0  0  0  0  0  0  0  0  0
   -5.3114    1.5911    3.8602 H   0  0  0  0  0  0  0  0  0  0  0  0
   -4.1599    1.3903    5.1854 H   0  0  0  0  0  0  0  0  0  0  0  0
   -3.5046    2.6122    2.4499 H   0  0  0  0  0  0  0  0  0  0  0  0
   -2.3581    2.4217    3.7737 H   0  0  0  0  0  0  0  0  0  0  0  0
   -3.8512    0.1137    2.3886 H   0  0  0  0  0  0  0  0  0  0  0  0
   -2.7151   -0.0816    3.7104 H   0  0  0  0  0  0  0  0  0  0  0  0
   -0.2777    0.3862    3.3849 H   0  0  0  0  0  0  0  0  0  0  0  0
    1.5879    0.3729    1.8029 H   0  0  0  0  0  0  0  0  0  0  0  0
    3.1122    1.3993    0.2406 H   0  0  0  0  0  0  0  0  0  0  0  0
    3.0724   -1.4656   -5.8347 H   0  0  0  0  0  0  0  0  0  0  0  0
    4.1925   -3.8774   -5.3945 H   0  0  0  0  0  0  0  0  0  0  0  0
    4.7679   -5.3386   -3.1769 H   0  0  0  0  0  0  0  0  0  0  0  0
    3.9431   -3.7376   -1.0746 H   0  0  0  0  0  0  0  0  0  0  0  0
   -1.1988    0.6456   -1.4826 H   0  0  0  0  0  0  0  0  0  0  0  0
   -3.0692    0.6542    0.1110 H   0  0  0  0  0  0  0  0  0  0  0  0
  1  2  1  0
  2  3  1  0
  3  4  1  0
  4  5  1  0
  5  6  2  0
  6  7  1  0
  7  8  2  0
  8  9  1  0
  9 10  2  0
 10 11  1  0
 11 12  1  0
 12 13  1  0
 13 14  1  0
 14 15  3  0
 13 16  2  3
 16 17  1  0
 17 18  2  0
 18 19  1  0
 19 20  2  0
 20 21  1  0
 12 22  2  0
  8 23  1  0
 23 24  2  0
 24  5  1  0
 22  9  1  0
 21 17  1  0
  1 25  1  0
  1 26  1  0
  1 27  1  0
  2 28  1  0
  2 29  1  0
  3 30  1  0
  3 31  1  0
  4 32  1  0
  4 33  1  0
  6 34  1  0
  7 35  1  0
 10 36  1  0
 16 37  1  0
 18 38  1  0
 19 39  1  0
 20 40  1  0
 23 41  1  0
 24 42  1  0
M  END
$$$$
