
     RDKit          3D

 46 49  0  0  0  0  0  0  0  0999 V2000
   -3.3192   -2.5498   -1.2647 C   0  0  0  0  0  0  0  0  0  0  0  0
   -2.2691   -1.6090   -1.6443 N   0  0  0  0  0  0  0  0  0  0  0  0
   -2.7853   -0.4234   -2.3204 C   0  0  0  0  0  0  0  0  0  0  0  0
   -1.4182   -1.2830   -0.5476 N   0  0  0  0  0  0  0  0  0  0  0  0
   -1.9511   -0.6425    0.5916 C   0  0  0  0  0  0  0  0  0  0  0  0
   -3.1625   -0.1748    0.6967 N   0  0  0  0  0  0  0  0  0  0  0  0
   -1.0140   -0.5138    1.7991 C   0  0  0  0  0  0  0  0  0  0  0  0
   -1.0978   -1.7675    2.5704 C   0  0  0  0  0  0  0  0  0  0  0  0
   -1.1512   -2.7481    3.1888 N   0  0  0  0  0  0  0  0  0  0  0  0
    0.4420   -0.2370    1.3697 C   0  0  0  0  0  0  0  0  0  0  0  0
    0.6911    1.2604    1.1595 C   0  0  0  0  0  0  0  0  0  0  0  0
    0.0142    2.0054    0.1621 C   0  0  0  0  0  0  0  0  0  0  0  0
    0.2513    3.3746   -0.0065 C   0  0  0  0  0  0  0  0  0  0  0  0
    1.1683    3.9762    0.8247 C   0  0  0  0  0  0  0  0  0  0  0  0
    1.8384    3.2675    1.7908 C   0  0  0  0  0  0  0  0  0  0  0  0
    1.6268    1.9177    1.9814 C   0  0  0  0  0  0  0  0  0  0  0  0
    2.6996    4.0442    2.5007 O   0  0  0  0  0  0  0  0  0  0  0  0
    2.5053    5.3211    1.8584 C   0  0  0  0  0  0  0  0  0  0  0  0
    1.5227    5.2883    0.8020 O   0  0  0  0  0  0  0  0  0  0  0  0
    0.8578   -1.0559    0.1669 C   0  0  0  0  0  0  0  0  0  0  0  0
   -0.0450   -1.5548   -0.7054 C   0  0  0  0  0  0  0  0  0  0  0  0
    0.3883   -2.4126   -1.8843 C   0  0  0  0  0  0  0  0  0  0  0  0
    1.7760   -3.0224   -1.7147 C   0  0  0  0  0  0  0  0  0  0  0  0
    2.7805   -1.9737   -1.2836 C   0  0  0  0  0  0  0  0  0  0  0  0
    2.3189   -1.3077   -0.0119 C   0  0  0  0  0  0  0  0  0  0  0  0
    3.1220   -0.9373    0.8418 O   0  0  0  0  0  0  0  0  0  0  0  0
   -2.8939   -3.4178   -0.7479 H   0  0  0  0  0  0  0  0  0  0  0  0
   -3.8143   -2.9341   -2.1636 H   0  0  0  0  0  0  0  0  0  0  0  0
   -4.0919   -2.1130   -0.6251 H   0  0  0  0  0  0  0  0  0  0  0  0
   -1.9716    0.2669   -2.5705 H   0  0  0  0  0  0  0  0  0  0  0  0
   -3.2496   -0.7130   -3.2700 H   0  0  0  0  0  0  0  0  0  0  0  0
   -3.5357    0.1239   -1.7431 H   0  0  0  0  0  0  0  0  0  0  0  0
   -3.3461    0.2374    1.6167 H   0  0  0  0  0  0  0  0  0  0  0  0
   -1.3724    0.3017    2.4411 H   0  0  0  0  0  0  0  0  0  0  0  0
    1.0744   -0.5508    2.2141 H   0  0  0  0  0  0  0  0  0  0  0  0
   -0.7020    1.5318   -0.5056 H   0  0  0  0  0  0  0  0  0  0  0  0
   -0.2664    3.9450   -0.7699 H   0  0  0  0  0  0  0  0  0  0  0  0
    2.1905    1.3874    2.7438 H   0  0  0  0  0  0  0  0  0  0  0  0
    2.1834    6.0476    2.6134 H   0  0  0  0  0  0  0  0  0  0  0  0
    3.4620    5.6518    1.4377 H   0  0  0  0  0  0  0  0  0  0  0  0
   -0.3106   -3.2450   -2.0305 H   0  0  0  0  0  0  0  0  0  0  0  0
    0.3653   -1.7993   -2.7940 H   0  0  0  0  0  0  0  0  0  0  0  0
    1.7311   -3.8201   -0.9616 H   0  0  0  0  0  0  0  0  0  0  0  0
    2.0955   -3.4871   -2.6542 H   0  0  0  0  0  0  0  0  0  0  0  0
    2.9133   -1.2046   -2.0520 H   0  0  0  0  0  0  0  0  0  0  0  0
    3.7492   -2.4507   -1.0999 H   0  0  0  0  0  0  0  0  0  0  0  0
  1  2  1  0
  2  3  1  0
  2  4  1  0
  4  5  1  0
  5  6  2  3
  5  7  1  0
  7  8  1  0
  8  9  3  0
  7 10  1  0
 10 11  1  0
 11 12  2  0
 12 13  1  0
 13 14  2  0
 14 15  1  0
 15 16  2  0
 15 17  1  0
 17 18  1  0
 18 19  1  0
 10 20  1  0
 20 21  2  0
 21 22  1  0
 22 23  1  0
 23 24  1  0
 24 25  1  0
 25 26  2  0
 21  4  1  0
 16 11  1  0
 25 20  1  0
 19 14  1  0
  1 27  1  0
  1 28  1  0
  1 29  1  0
  3 30  1  0
  3 31  1  0
  3 32  1  0
  6 33  1  0
  7 34  1  0
 10 35  1  0
 12 36  1  0
 13 37  1  0
 16 38  1  0
 18 39  1  0
 18 40  1  0
 22 41  1  0
 22 42  1  0
 23 43  1  0
 23 44  1  0
 24 45  1  0
 24 46  1  0
M  END
$$$$
