
     RDKit          3D

 57 60  0  0  0  0  0  0  0  0999 V2000
    7.2423   -1.2565    1.5976 C   0  0  0  0  0  0  0  0  0  0  0  0
    6.8944   -1.8041    0.3327 O   0  0  0  0  0  0  0  0  0  0  0  0
    5.5787   -1.7479   -0.0361 C   0  0  0  0  0  0  0  0  0  0  0  0
    5.3020   -2.3213   -1.2742 C   0  0  0  0  0  0  0  0  0  0  0  0
    3.9998   -2.3291   -1.7730 C   0  0  0  0  0  0  0  0  0  0  0  0
    2.9437   -1.7623   -1.0401 C   0  0  0  0  0  0  0  0  0  0  0  0
    1.5861   -1.8311   -1.6815 C   0  0  0  0  0  0  0  0  0  0  0  0
    1.4468   -2.3456   -2.7878 O   0  0  0  0  0  0  0  0  0  0  0  0
    0.5280   -1.2988   -0.9886 N   0  0  0  0  0  0  0  0  0  0  0  0
   -0.8130   -1.2409   -1.5273 C   0  0  0  0  0  0  0  0  0  0  0  0
   -0.9752   -0.1236   -2.5860 C   0  0  0  0  0  0  0  0  0  0  0  0
   -1.2149    1.3082   -2.0095 C   0  0  0  0  0  0  0  0  0  0  0  0
   -1.4806    2.2662   -3.1889 C   0  0  0  0  0  0  0  0  0  0  0  0
    0.0273    1.8295   -1.2588 C   0  0  0  0  0  0  0  0  0  0  0  0
   -2.4562    1.3257   -1.0639 C   0  0  0  0  0  0  0  0  0  0  0  0
   -2.4916    0.1246   -0.1776 C   0  0  0  0  0  0  0  0  0  0  0  0
   -1.7473   -1.0230   -0.3884 C   0  0  0  0  0  0  0  0  0  0  0  0
   -2.0447   -1.8475    0.7003 C   0  0  0  0  0  0  0  0  0  0  0  0
   -2.8917   -1.2749    1.5511 N   0  0  0  0  0  0  0  0  0  0  0  0
   -3.2319   -0.0789    0.9821 N   0  0  0  0  0  0  0  0  0  0  0  0
   -4.2272    0.7269    1.6205 C   0  0  0  0  0  0  0  0  0  0  0  0
   -4.8194    1.8347    1.0043 C   0  0  0  0  0  0  0  0  0  0  0  0
   -5.7889    2.5880    1.6782 C   0  0  0  0  0  0  0  0  0  0  0  0
   -6.1832    2.2399    2.9674 C   0  0  0  0  0  0  0  0  0  0  0  0
   -5.6162    1.1308    3.5861 C   0  0  0  0  0  0  0  0  0  0  0  0
   -4.6490    0.3764    2.9169 C   0  0  0  0  0  0  0  0  0  0  0  0
    3.2178   -1.1817    0.2177 C   0  0  0  0  0  0  0  0  0  0  0  0
    2.1656   -0.6282    0.9060 O   0  0  0  0  0  0  0  0  0  0  0  0
    2.3929   -0.1607    2.2311 C   0  0  0  0  0  0  0  0  0  0  0  0
    4.5385   -1.1791    0.7043 C   0  0  0  0  0  0  0  0  0  0  0  0
    8.3189   -1.3939    1.7370 H   0  0  0  0  0  0  0  0  0  0  0  0
    7.0365   -0.1818    1.6319 H   0  0  0  0  0  0  0  0  0  0  0  0
    6.7314   -1.7838    2.4098 H   0  0  0  0  0  0  0  0  0  0  0  0
    6.1046   -2.7658   -1.8584 H   0  0  0  0  0  0  0  0  0  0  0  0
    3.8131   -2.7841   -2.7447 H   0  0  0  0  0  0  0  0  0  0  0  0
    0.7206   -0.8435   -0.1026 H   0  0  0  0  0  0  0  0  0  0  0  0
   -1.0233   -2.2066   -2.0035 H   0  0  0  0  0  0  0  0  0  0  0  0
   -0.1150   -0.1143   -3.2673 H   0  0  0  0  0  0  0  0  0  0  0  0
   -1.8478   -0.3829   -3.2035 H   0  0  0  0  0  0  0  0  0  0  0  0
   -2.3465    1.9422   -3.7771 H   0  0  0  0  0  0  0  0  0  0  0  0
   -0.6182    2.3107   -3.8635 H   0  0  0  0  0  0  0  0  0  0  0  0
   -1.6824    3.2835   -2.8350 H   0  0  0  0  0  0  0  0  0  0  0  0
    0.1933    1.3073   -0.3129 H   0  0  0  0  0  0  0  0  0  0  0  0
   -0.0817    2.8926   -1.0139 H   0  0  0  0  0  0  0  0  0  0  0  0
    0.9308    1.7233   -1.8695 H   0  0  0  0  0  0  0  0  0  0  0  0
   -3.3689    1.3222   -1.6731 H   0  0  0  0  0  0  0  0  0  0  0  0
   -2.4398    2.2479   -0.4724 H   0  0  0  0  0  0  0  0  0  0  0  0
   -1.6593   -2.8343    0.9245 H   0  0  0  0  0  0  0  0  0  0  0  0
   -4.5917    2.1323   -0.0099 H   0  0  0  0  0  0  0  0  0  0  0  0
   -6.2456    3.4444    1.1875 H   0  0  0  0  0  0  0  0  0  0  0  0
   -6.9383    2.8259    3.4847 H   0  0  0  0  0  0  0  0  0  0  0  0
   -5.9254    0.8465    4.5885 H   0  0  0  0  0  0  0  0  0  0  0  0
   -4.2245   -0.4864    3.4283 H   0  0  0  0  0  0  0  0  0  0  0  0
    1.4313    0.1701    2.6354 H   0  0  0  0  0  0  0  0  0  0  0  0
    3.0675    0.7013    2.2316 H   0  0  0  0  0  0  0  0  0  0  0  0
    2.7672   -0.9622    2.8762 H   0  0  0  0  0  0  0  0  0  0  0  0
    4.7601   -0.7265    1.6620 H   0  0  0  0  0  0  0  0  0  0  0  0
  1  2  1  0
  2  3  1  0
  3  4  2  0
  4  5  1  0
  5  6  2  0
  6  7  1  0
  7  8  2  0
  7  9  1  0
  9 10  1  0
 10 11  1  0
 11 12  1  0
 12 13  1  0
 12 14  1  0
 12 15  1  0
 15 16  1  0
 16 17  2  0
 17 18  1  0
 18 19  2  0
 19 20  1  0
 20 21  1  0
 21 22  2  0
 22 23  1  0
 23 24  2  0
 24 25  1  0
 25 26  2  0
  6 27  1  0
 27 28  1  0
 28 29  1  0
 27 30  2  0
 30  3  1  0
 17 10  1  0
 26 21  1  0
 20 16  1  0
  1 31  1  0
  1 32  1  0
  1 33  1  0
  4 34  1  0
  5 35  1  0
  9 36  1  0
 10 37  1  0
 11 38  1  0
 11 39  1  0
 13 40  1  0
 13 41  1  0
 13 42  1  0
 14 43  1  0
 14 44  1  0
 14 45  1  0
 15 46  1  0
 15 47  1  0
 18 48  1  0
 22 49  1  0
 23 50  1  0
 24 51  1  0
 25 52  1  0
 26 53  1  0
 29 54  1  0
 29 55  1  0
 29 56  1  0
 30 57  1  0
M  END
$$$$
