
     RDKit          3D

 64 68  0  0  0  0  0  0  0  0999 V2000
    2.0648   -3.3594   -1.9561 O   0  0  0  0  0  0  0  0  0  0  0  0
    1.8628   -2.2790   -1.3887 C   0  0  0  0  0  0  0  0  0  0  0  0
    0.4456   -1.9946   -0.8805 C   0  0  0  0  0  0  0  0  0  0  0  0
    0.3288   -2.0313    0.6440 C   0  0  0  0  0  0  0  0  0  0  0  0
   -1.1257   -1.9249    1.1107 C   0  0  0  0  0  0  0  0  0  0  0  0
   -2.0098   -1.0205    0.2282 C   0  0  0  0  0  0  0  0  0  0  0  0
   -3.0651   -0.3020    1.0887 C   0  0  0  0  0  0  0  0  0  0  0  0
   -4.0736    0.3198    0.2384 N   0  0  0  0  0  0  0  0  0  0  0  0
   -5.0993    1.1499    0.6787 C   0  0  0  0  0  0  0  0  0  0  0  0
   -4.9135    1.8788    1.8236 N   0  0  0  0  0  0  0  0  0  0  0  0
   -5.8134    2.7479    2.3799 C   0  0  0  0  0  0  0  0  0  0  0  0
   -5.3492    3.5685    3.7675 S   0  0  0  0  0  0  0  0  0  0  0  0
   -7.0319    2.8982    1.7826 N   0  0  0  0  0  0  0  0  0  0  0  0
   -7.2495    2.2323    0.6943 C   0  0  0  0  0  0  0  0  0  0  0  0
   -8.5741    2.3815    0.0263 C   0  0  0  0  0  0  0  0  0  0  0  0
   -8.8509    1.7216   -1.1057 C   0  0  0  0  0  0  0  0  0  0  0  0
   -7.8912    0.8520   -1.7389 C   0  0  0  0  0  0  0  0  0  0  0  0
   -6.6759    0.6501   -1.2101 C   0  0  0  0  0  0  0  0  0  0  0  0
   -6.2776    1.2990    0.0293 C   0  0  0  0  0  0  0  0  0  0  0  0
   -1.1625   -0.0291   -0.5839 C   0  0  0  0  0  0  0  0  0  0  0  0
   -0.2020   -0.7608   -1.5243 C   0  0  0  0  0  0  0  0  0  0  0  0
    2.8840   -1.3519   -1.2363 N   0  0  0  0  0  0  0  0  0  0  0  0
    4.2325   -1.7811   -1.6501 C   0  0  0  0  0  0  0  0  0  0  0  0
    5.1542   -0.6125   -2.0461 C   0  0  0  0  0  0  0  0  0  0  0  0
    5.1569    0.4556   -1.0243 N   0  0  0  0  0  0  0  0  0  0  0  0
    6.0542    0.4278    0.0444 C   0  0  0  0  0  0  0  0  0  0  0  0
    6.8804   -0.6725    0.3315 C   0  0  0  0  0  0  0  0  0  0  0  0
    7.7781   -0.6619    1.4072 C   0  0  0  0  0  0  0  0  0  0  0  0
    7.8771    0.4645    2.2068 C   0  0  0  0  0  0  0  0  0  0  0  0
    8.7371    0.4777    3.2332 F   0  0  0  0  0  0  0  0  0  0  0  0
    7.1030    1.5814    1.9445 C   0  0  0  0  0  0  0  0  0  0  0  0
    6.2078    1.5600    0.8691 C   0  0  0  0  0  0  0  0  0  0  0  0
    3.7868    0.9433   -0.7515 C   0  0  0  0  0  0  0  0  0  0  0  0
    2.8720   -0.2138   -0.3023 C   0  0  0  0  0  0  0  0  0  0  0  0
   -0.1459   -2.8537   -1.2361 H   0  0  0  0  0  0  0  0  0  0  0  0
    0.7724   -2.9549    1.0372 H   0  0  0  0  0  0  0  0  0  0  0  0
    0.8922   -1.2173    1.1084 H   0  0  0  0  0  0  0  0  0  0  0  0
   -1.1274   -1.5811    2.1519 H   0  0  0  0  0  0  0  0  0  0  0  0
   -1.5710   -2.9274    1.1276 H   0  0  0  0  0  0  0  0  0  0  0  0
   -2.5344   -1.6695   -0.4875 H   0  0  0  0  0  0  0  0  0  0  0  0
   -3.5609   -1.0230    1.7496 H   0  0  0  0  0  0  0  0  0  0  0  0
   -2.5682    0.4451    1.7173 H   0  0  0  0  0  0  0  0  0  0  0  0
   -4.3640   -0.2903   -0.5194 H   0  0  0  0  0  0  0  0  0  0  0  0
   -4.0213    1.8297    2.2905 H   0  0  0  0  0  0  0  0  0  0  0  0
   -9.2898    3.0420    0.5010 H   0  0  0  0  0  0  0  0  0  0  0  0
   -9.8199    1.8366   -1.5830 H   0  0  0  0  0  0  0  0  0  0  0  0
   -8.1820    0.3653   -2.6663 H   0  0  0  0  0  0  0  0  0  0  0  0
   -5.9830   -0.0024   -1.7263 H   0  0  0  0  0  0  0  0  0  0  0  0
   -0.5930    0.6163    0.0968 H   0  0  0  0  0  0  0  0  0  0  0  0
   -1.8000    0.6331   -1.1815 H   0  0  0  0  0  0  0  0  0  0  0  0
   -0.7639   -1.0947   -2.4080 H   0  0  0  0  0  0  0  0  0  0  0  0
    0.5353   -0.0531   -1.9174 H   0  0  0  0  0  0  0  0  0  0  0  0
    4.6541   -2.3389   -0.8058 H   0  0  0  0  0  0  0  0  0  0  0  0
    4.1671   -2.4744   -2.4958 H   0  0  0  0  0  0  0  0  0  0  0  0
    6.1654   -0.9644   -2.2794 H   0  0  0  0  0  0  0  0  0  0  0  0
    4.7739   -0.1750   -2.9789 H   0  0  0  0  0  0  0  0  0  0  0  0
    6.8428   -1.5782   -0.2648 H   0  0  0  0  0  0  0  0  0  0  0  0
    8.4003   -1.5258    1.6166 H   0  0  0  0  0  0  0  0  0  0  0  0
    7.2063    2.4672    2.5627 H   0  0  0  0  0  0  0  0  0  0  0  0
    5.6518    2.4698    0.6589 H   0  0  0  0  0  0  0  0  0  0  0  0
    3.3879    1.3699   -1.6808 H   0  0  0  0  0  0  0  0  0  0  0  0
    3.7494    1.7470   -0.0099 H   0  0  0  0  0  0  0  0  0  0  0  0
    3.2009   -0.5993    0.6703 H   0  0  0  0  0  0  0  0  0  0  0  0
    1.8642    0.1789   -0.1783 H   0  0  0  0  0  0  0  0  0  0  0  0
  1  2  2  0
  2  3  1  0
  3  4  1  0
  4  5  1  0
  5  6  1  0
  6  7  1  0
  7  8  1  0
  8  9  1  0
  9 10  1  0
 10 11  1  0
 11 12  2  0
 11 13  1  0
 13 14  2  0
 14 15  1  0
 15 16  2  0
 16 17  1  0
 17 18  2  0
 18 19  1  0
  6 20  1  0
 20 21  1  0
  2 22  1  0
 22 23  1  0
 23 24  1  0
 24 25  1  0
 25 26  1  0
 26 27  2  0
 27 28  1  0
 28 29  2  0
 29 30  1  0
 29 31  1  0
 31 32  2  0
 25 33  1  0
 33 34  1  0
 21  3  1  0
 34 22  1  0
 19  9  2  0
 32 26  1  0
 19 14  1  0
  3 35  1  0
  4 36  1  0
  4 37  1  0
  5 38  1  0
  5 39  1  0
  6 40  1  0
  7 41  1  0
  7 42  1  0
  8 43  1  0
 10 44  1  0
 15 45  1  0
 16 46  1  0
 17 47  1  0
 18 48  1  0
 20 49  1  0
 20 50  1  0
 21 51  1  0
 21 52  1  0
 23 53  1  0
 23 54  1  0
 24 55  1  0
 24 56  1  0
 27 57  1  0
 28 58  1  0
 31 59  1  0
 32 60  1  0
 33 61  1  0
 33 62  1  0
 34 63  1  0
 34 64  1  0
M  END
$$$$
