
     RDKit          3D

 42 43  0  0  0  0  0  0  0  0999 V2000
   -1.1034   -1.2482    3.9274 C   0  0  0  0  0  0  0  0  0  0  0  0
   -2.1499   -0.3196    3.3058 C   0  0  0  0  0  0  0  0  0  0  0  0
   -3.5605   -0.7085    3.7557 C   0  0  0  0  0  0  0  0  0  0  0  0
   -2.0367   -0.2859    1.7921 C   0  0  0  0  0  0  0  0  0  0  0  0
   -1.7291    0.9172    1.1415 C   0  0  0  0  0  0  0  0  0  0  0  0
   -1.6188    0.9765   -0.2531 C   0  0  0  0  0  0  0  0  0  0  0  0
   -1.8144   -0.1700   -1.0207 C   0  0  0  0  0  0  0  0  0  0  0  0
   -1.7176   -0.2618   -2.3822 O   0  0  0  0  0  0  0  0  0  0  0  0
   -1.4750    0.9330   -3.1167 C   0  0  0  0  0  0  0  0  0  0  0  0
   -0.0219    1.4151   -3.0820 C   0  0  0  0  0  0  0  0  0  0  0  0
    0.2792    2.5976   -3.2190 O   0  0  0  0  0  0  0  0  0  0  0  0
    0.9012    0.4005   -2.9212 N   0  0  0  0  0  0  0  0  0  0  0  0
    2.3016    0.6874   -2.7018 C   0  0  0  0  0  0  0  0  0  0  0  0
    3.1841   -0.5373   -2.9334 C   0  0  0  0  0  0  0  0  0  0  0  0
    4.4058   -0.2551   -2.0757 C   0  0  0  0  0  0  0  0  0  0  0  0
    3.8039    0.3153   -0.8015 C   0  0  0  0  0  0  0  0  0  0  0  0
    2.5985    1.1356   -1.2619 C   0  0  0  0  0  0  0  0  0  0  0  0
   -2.1201   -1.3718   -0.3801 C   0  0  0  0  0  0  0  0  0  0  0  0
   -2.2320   -1.4322    1.0114 C   0  0  0  0  0  0  0  0  0  0  0  0
   -1.1441   -1.1966    5.0208 H   0  0  0  0  0  0  0  0  0  0  0  0
   -0.0923   -0.9627    3.6158 H   0  0  0  0  0  0  0  0  0  0  0  0
   -1.2592   -2.2934    3.6382 H   0  0  0  0  0  0  0  0  0  0  0  0
   -1.9551    0.6895    3.6931 H   0  0  0  0  0  0  0  0  0  0  0  0
   -3.6473   -0.6469    4.8459 H   0  0  0  0  0  0  0  0  0  0  0  0
   -3.8181   -1.7313    3.4592 H   0  0  0  0  0  0  0  0  0  0  0  0
   -4.3092   -0.0365    3.3213 H   0  0  0  0  0  0  0  0  0  0  0  0
   -1.5698    1.8274    1.7168 H   0  0  0  0  0  0  0  0  0  0  0  0
   -1.3724    1.9369   -0.6951 H   0  0  0  0  0  0  0  0  0  0  0  0
   -1.7064    0.7161   -4.1658 H   0  0  0  0  0  0  0  0  0  0  0  0
   -2.1507    1.7378   -2.8048 H   0  0  0  0  0  0  0  0  0  0  0  0
    0.5269   -0.4769   -2.5716 H   0  0  0  0  0  0  0  0  0  0  0  0
    2.6007    1.4887   -3.3900 H   0  0  0  0  0  0  0  0  0  0  0  0
    2.6882   -1.4549   -2.5915 H   0  0  0  0  0  0  0  0  0  0  0  0
    3.4378   -0.6696   -3.9900 H   0  0  0  0  0  0  0  0  0  0  0  0
    5.0482    0.4900   -2.5600 H   0  0  0  0  0  0  0  0  0  0  0  0
    5.0010   -1.1531   -1.8882 H   0  0  0  0  0  0  0  0  0  0  0  0
    3.4654   -0.5019   -0.1515 H   0  0  0  0  0  0  0  0  0  0  0  0
    4.5231    0.9158   -0.2350 H   0  0  0  0  0  0  0  0  0  0  0  0
    2.8371    2.2065   -1.2488 H   0  0  0  0  0  0  0  0  0  0  0  0
    1.7511    0.9849   -0.5823 H   0  0  0  0  0  0  0  0  0  0  0  0
   -2.2761   -2.2732   -0.9680 H   0  0  0  0  0  0  0  0  0  0  0  0
   -2.4740   -2.3849    1.4769 H   0  0  0  0  0  0  0  0  0  0  0  0
  1  2  1  0
  2  3  1  0
  2  4  1  0
  4  5  2  0
  5  6  1  0
  6  7  2  0
  7  8  1  0
  8  9  1  0
  9 10  1  0
 10 11  2  0
 10 12  1  0
 12 13  1  0
 13 14  1  0
 14 15  1  0
 15 16  1  0
 16 17  1  0
  7 18  1  0
 18 19  2  0
 19  4  1  0
 17 13  1  0
  1 20  1  0
  1 21  1  0
  1 22  1  0
  2 23  1  0
  3 24  1  0
  3 25  1  0
  3 26  1  0
  5 27  1  0
  6 28  1  0
  9 29  1  0
  9 30  1  0
 12 31  1  0
 13 32  1  0
 14 33  1  0
 14 34  1  0
 15 35  1  0
 15 36  1  0
 16 37  1  0
 16 38  1  0
 17 39  1  0
 17 40  1  0
 18 41  1  0
 19 42  1  0
M  END
$$$$
