
     RDKit          3D

 59 62  0  0  0  0  0  0  0  0999 V2000
   -6.1345    3.1227    1.6357 C   0  0  0  0  0  0  0  0  0  0  0  0
   -6.1060    1.7001    1.0786 C   0  0  0  0  0  0  0  0  0  0  0  0
   -7.4737    1.3184    0.4991 C   0  0  0  0  0  0  0  0  0  0  0  0
   -7.4161   -0.0419   -0.1892 C   0  0  0  0  0  0  0  0  0  0  0  0
   -6.2698   -0.1054   -1.2012 C   0  0  0  0  0  0  0  0  0  0  0  0
   -4.9534    0.2426   -0.6373 N   0  0  0  0  0  0  0  0  0  0  0  0
   -4.4338   -0.8302    0.2243 C   0  0  0  0  0  0  0  0  0  0  0  0
   -2.9717   -0.6581    0.6570 C   0  0  0  0  0  0  0  0  0  0  0  0
   -2.0154   -0.5110   -0.5237 C   0  0  0  0  0  0  0  0  0  0  0  0
   -0.6154   -0.3131   -0.0628 N   0  0  0  0  0  0  0  0  0  0  0  0
    0.1592   -1.6705    0.5924 S   0  0  0  0  0  6  0  0  0  0  0  0
   -0.1499   -2.8274   -0.2179 O   0  0  0  0  0  0  0  0  0  0  0  0
   -0.0977   -1.6335    2.0162 O   0  0  0  0  0  0  0  0  0  0  0  0
    1.8595   -1.2465    0.3123 C   0  0  0  0  0  0  0  0  0  0  0  0
    2.6689   -0.8495    1.3903 C   0  0  0  0  0  0  0  0  0  0  0  0
    4.0062   -0.5007    1.1712 C   0  0  0  0  0  0  0  0  0  0  0  0
    4.5061   -0.5633   -0.1210 C   0  0  0  0  0  0  0  0  0  0  0  0
    3.6980   -0.9746   -1.1845 C   0  0  0  0  0  0  0  0  0  0  0  0
    2.3694   -1.3219   -0.9889 C   0  0  0  0  0  0  0  0  0  0  0  0
    4.4439   -0.9462   -2.4792 C   0  0  0  0  0  0  0  0  0  0  0  0
    5.8505   -0.5261   -2.0323 C   0  0  0  0  0  0  0  0  0  0  0  0
    5.7958   -0.2548   -0.5865 N   0  0  0  0  0  0  0  0  0  0  0  0
    6.8419    0.2193    0.1842 C   0  0  0  0  0  0  0  0  0  0  0  0
    6.7994    0.4643    1.3835 O   0  0  0  0  0  0  0  0  0  0  0  0
    8.1227    0.4583   -0.5486 C   0  0  0  0  0  0  0  0  0  0  0  0
    9.0551   -0.6955   -0.8453 C   0  0  0  0  0  0  0  0  0  0  0  0
    9.4460    0.3284    0.1765 C   0  0  0  0  0  0  0  0  0  0  0  0
   -5.0112    1.5647    0.0061 C   0  0  0  0  0  0  0  0  0  0  0  0
   -6.3683    3.8527    0.8532 H   0  0  0  0  0  0  0  0  0  0  0  0
   -6.8873    3.2199    2.4234 H   0  0  0  0  0  0  0  0  0  0  0  0
   -5.1635    3.3877    2.0650 H   0  0  0  0  0  0  0  0  0  0  0  0
   -5.8776    1.0234    1.9127 H   0  0  0  0  0  0  0  0  0  0  0  0
   -7.7962    2.0745   -0.2288 H   0  0  0  0  0  0  0  0  0  0  0  0
   -8.2296    1.2990    1.2925 H   0  0  0  0  0  0  0  0  0  0  0  0
   -7.3002   -0.8305    0.5640 H   0  0  0  0  0  0  0  0  0  0  0  0
   -8.3670   -0.2349   -0.7000 H   0  0  0  0  0  0  0  0  0  0  0  0
   -6.2367   -1.1009   -1.6602 H   0  0  0  0  0  0  0  0  0  0  0  0
   -6.4847    0.5865   -2.0270 H   0  0  0  0  0  0  0  0  0  0  0  0
   -4.4926   -1.7795   -0.3249 H   0  0  0  0  0  0  0  0  0  0  0  0
   -5.0475   -0.9590    1.1234 H   0  0  0  0  0  0  0  0  0  0  0  0
   -2.8666    0.1922    1.3396 H   0  0  0  0  0  0  0  0  0  0  0  0
   -2.6994   -1.5429    1.2428 H   0  0  0  0  0  0  0  0  0  0  0  0
   -2.2746    0.3769   -1.1119 H   0  0  0  0  0  0  0  0  0  0  0  0
   -2.0744   -1.3668   -1.2036 H   0  0  0  0  0  0  0  0  0  0  0  0
   -0.5559    0.4574    0.6069 H   0  0  0  0  0  0  0  0  0  0  0  0
    2.2685   -0.8062    2.4016 H   0  0  0  0  0  0  0  0  0  0  0  0
    4.6224   -0.1914    2.0098 H   0  0  0  0  0  0  0  0  0  0  0  0
    1.7402   -1.6324   -1.8191 H   0  0  0  0  0  0  0  0  0  0  0  0
    4.0118   -0.2064   -3.1605 H   0  0  0  0  0  0  0  0  0  0  0  0
    4.4575   -1.9272   -2.9621 H   0  0  0  0  0  0  0  0  0  0  0  0
    6.1877    0.3717   -2.5636 H   0  0  0  0  0  0  0  0  0  0  0  0
    6.5791   -1.3252   -2.2142 H   0  0  0  0  0  0  0  0  0  0  0  0
    8.0708    1.2707   -1.2662 H   0  0  0  0  0  0  0  0  0  0  0  0
    8.7893   -1.6837   -0.4844 H   0  0  0  0  0  0  0  0  0  0  0  0
    9.5855   -0.6954   -1.7914 H   0  0  0  0  0  0  0  0  0  0  0  0
   10.2288    1.0351   -0.0746 H   0  0  0  0  0  0  0  0  0  0  0  0
    9.4288    0.0429    1.2237 H   0  0  0  0  0  0  0  0  0  0  0  0
   -4.0357    1.8317    0.4270 H   0  0  0  0  0  0  0  0  0  0  0  0
   -5.1869    2.3117   -0.7810 H   0  0  0  0  0  0  0  0  0  0  0  0
  1  2  1  0
  2  3  1  0
  3  4  1  0
  4  5  1  0
  5  6  1  0
  6  7  1  0
  7  8  1  0
  8  9  1  0
  9 10  1  0
 10 11  1  0
 11 12  2  0
 11 13  2  0
 11 14  1  0
 14 15  2  0
 15 16  1  0
 16 17  2  0
 17 18  1  0
 18 19  2  0
 18 20  1  0
 20 21  1  0
 21 22  1  0
 22 23  1  0
 23 24  2  0
 23 25  1  0
 25 26  1  0
 26 27  1  0
  6 28  1  0
 28  2  1  0
 19 14  1  0
 27 25  1  0
 22 17  1  0
  1 29  1  0
  1 30  1  0
  1 31  1  0
  2 32  1  0
  3 33  1  0
  3 34  1  0
  4 35  1  0
  4 36  1  0
  5 37  1  0
  5 38  1  0
  7 39  1  0
  7 40  1  0
  8 41  1  0
  8 42  1  0
  9 43  1  0
  9 44  1  0
 10 45  1  0
 15 46  1  0
 16 47  1  0
 19 48  1  0
 20 49  1  0
 20 50  1  0
 21 51  1  0
 21 52  1  0
 25 53  1  0
 26 54  1  0
 26 55  1  0
 27 56  1  0
 27 57  1  0
 28 58  1  0
 28 59  1  0
M  END
$$$$
