
     RDKit          3D

 55 59  0  0  0  0  0  0  0  0999 V2000
   -5.0303   -0.6561   -2.5139 C   0  0  0  0  0  0  0  0  0  0  0  0
   -4.5574    0.1286   -1.3235 C   0  0  0  0  0  0  0  0  0  0  0  0
   -4.0547    1.4229   -1.4830 C   0  0  0  0  0  0  0  0  0  0  0  0
   -3.6409    2.1657   -0.3734 C   0  0  0  0  0  0  0  0  0  0  0  0
   -3.7337    1.6292    0.9181 C   0  0  0  0  0  0  0  0  0  0  0  0
   -3.2711    2.4202    2.1195 C   0  0  0  0  0  0  0  0  0  0  0  0
   -1.4691    2.6339    2.1980 S   0  0  0  0  0  0  0  0  0  0  0  0
   -1.0159    0.9381    2.1457 C   0  0  0  0  0  0  0  0  0  0  0  0
   -1.3165    0.2285    3.2005 N   0  0  0  0  0  0  0  0  0  0  0  0
   -0.9926   -1.1462    3.2326 C   0  0  0  0  0  0  0  0  0  0  0  0
   -1.3200   -1.8902    4.3675 C   0  0  0  0  0  0  0  0  0  0  0  0
   -1.0120   -3.2524    4.4355 C   0  0  0  0  0  0  0  0  0  0  0  0
   -0.3750   -3.8809    3.3646 C   0  0  0  0  0  0  0  0  0  0  0  0
   -0.0415   -3.1496    2.2232 C   0  0  0  0  0  0  0  0  0  0  0  0
   -0.3502   -1.7886    2.1593 C   0  0  0  0  0  0  0  0  0  0  0  0
   -0.0317   -0.9675    1.0066 C   0  0  0  0  0  0  0  0  0  0  0  0
    0.5524   -1.3162   -0.1196 N   0  0  0  0  0  0  0  0  0  0  0  0
    0.6086   -0.1658   -0.8715 C   0  0  0  0  0  0  0  0  0  0  0  0
    1.1982   -0.2135   -2.2370 C   0  0  0  0  0  0  0  0  0  0  0  0
    2.0599    1.0031   -2.5036 C   0  0  0  0  0  0  0  0  0  0  0  0
    1.5599    2.1116   -2.7004 O   0  0  0  0  0  0  0  0  0  0  0  0
    3.4127    0.7870   -2.4495 N   0  0  0  0  0  0  0  0  0  0  0  0
    4.3655    1.8421   -2.7038 C   0  0  0  0  0  0  0  0  0  0  0  0
    5.6118    1.5387   -1.9587 C   0  0  0  0  0  0  0  0  0  0  0  0
    6.1962    2.0743   -0.8267 C   0  0  0  0  0  0  0  0  0  0  0  0
    7.3973    1.3524   -0.6193 C   0  0  0  0  0  0  0  0  0  0  0  0
    7.4649    0.4183   -1.6259 C   0  0  0  0  0  0  0  0  0  0  0  0
    6.3856    0.5229   -2.4448 O   0  0  0  0  0  0  0  0  0  0  0  0
    0.0490    0.8992   -0.1816 C   0  0  0  0  0  0  0  0  0  0  0  0
   -0.1067    2.1811   -0.5078 O   0  0  0  0  0  0  0  0  0  0  0  0
   -0.3690    0.3728    1.0308 N   0  0  0  0  0  0  0  0  0  0  0  0
   -4.2484    0.3351    1.0754 C   0  0  0  0  0  0  0  0  0  0  0  0
   -4.6645   -0.4050   -0.0344 C   0  0  0  0  0  0  0  0  0  0  0  0
   -6.0985   -0.4781   -2.6776 H   0  0  0  0  0  0  0  0  0  0  0  0
   -4.8674   -1.7279   -2.3638 H   0  0  0  0  0  0  0  0  0  0  0  0
   -4.4812   -0.3680   -3.4168 H   0  0  0  0  0  0  0  0  0  0  0  0
   -3.9718    1.8625   -2.4751 H   0  0  0  0  0  0  0  0  0  0  0  0
   -3.2334    3.1635   -0.5234 H   0  0  0  0  0  0  0  0  0  0  0  0
   -3.7376    3.4119    2.0907 H   0  0  0  0  0  0  0  0  0  0  0  0
   -3.6146    1.9491    3.0508 H   0  0  0  0  0  0  0  0  0  0  0  0
   -1.8173   -1.4027    5.2035 H   0  0  0  0  0  0  0  0  0  0  0  0
   -1.2700   -3.8227    5.3254 H   0  0  0  0  0  0  0  0  0  0  0  0
   -0.1355   -4.9405    3.4187 H   0  0  0  0  0  0  0  0  0  0  0  0
    0.4607   -3.6362    1.3891 H   0  0  0  0  0  0  0  0  0  0  0  0
    0.4008   -0.2381   -2.9883 H   0  0  0  0  0  0  0  0  0  0  0  0
    1.7878   -1.1277   -2.3678 H   0  0  0  0  0  0  0  0  0  0  0  0
    3.7780   -0.1508   -2.3336 H   0  0  0  0  0  0  0  0  0  0  0  0
    4.5572    1.8686   -3.7830 H   0  0  0  0  0  0  0  0  0  0  0  0
    3.9505    2.8102   -2.4041 H   0  0  0  0  0  0  0  0  0  0  0  0
    5.7982    2.8845   -0.2274 H   0  0  0  0  0  0  0  0  0  0  0  0
    8.1257    1.4931    0.1685 H   0  0  0  0  0  0  0  0  0  0  0  0
    8.1807   -0.3511   -1.8880 H   0  0  0  0  0  0  0  0  0  0  0  0
    0.3233    2.3489   -1.3749 H   0  0  0  0  0  0  0  0  0  0  0  0
   -4.3285   -0.1098    2.0665 H   0  0  0  0  0  0  0  0  0  0  0  0
   -5.0681   -1.4037    0.1116 H   0  0  0  0  0  0  0  0  0  0  0  0
  1  2  1  0
  2  3  2  0
  3  4  1  0
  4  5  2  0
  5  6  1  0
  6  7  1  0
  7  8  1  0
  8  9  2  0
  9 10  1  0
 10 11  2  0
 11 12  1  0
 12 13  2  0
 13 14  1  0
 14 15  2  0
 15 16  1  0
 16 17  2  0
 17 18  1  0
 18 19  1  0
 19 20  1  0
 20 21  2  0
 20 22  1  0
 22 23  1  0
 23 24  1  0
 24 25  2  0
 25 26  1  0
 26 27  2  0
 27 28  1  0
 18 29  2  0
 29 30  1  0
 29 31  1  0
  5 32  1  0
 32 33  2  0
 33  2  1  0
 31  8  1  0
 15 10  1  0
 31 16  1  0
 28 24  1  0
  1 34  1  0
  1 35  1  0
  1 36  1  0
  3 37  1  0
  4 38  1  0
  6 39  1  0
  6 40  1  0
 11 41  1  0
 12 42  1  0
 13 43  1  0
 14 44  1  0
 19 45  1  0
 19 46  1  0
 22 47  1  0
 23 48  1  0
 23 49  1  0
 25 50  1  0
 26 51  1  0
 27 52  1  0
 30 53  1  0
 32 54  1  0
 33 55  1  0
M  END
$$$$
