
     RDKit          3D

 53 55  0  0  0  0  0  0  0  0999 V2000
   -8.3281    1.4028   -2.6216 C   0  0  0  0  0  0  0  0  0  0  0  0
   -7.4190    2.0993   -1.7815 O   0  0  0  0  0  0  0  0  0  0  0  0
   -6.1836    1.5372   -1.5754 C   0  0  0  0  0  0  0  0  0  0  0  0
   -5.7606    0.3299   -2.1386 C   0  0  0  0  0  0  0  0  0  0  0  0
   -4.4802   -0.1639   -1.8727 C   0  0  0  0  0  0  0  0  0  0  0  0
   -3.6004    0.5460   -1.0522 C   0  0  0  0  0  0  0  0  0  0  0  0
   -2.2708   -0.0160   -0.7883 C   0  0  0  0  0  0  0  0  0  0  0  0
   -1.1419    0.7087   -0.8299 C   0  0  0  0  0  0  0  0  0  0  0  0
    0.1706    0.0494   -0.5759 C   0  0  0  0  0  0  0  0  0  0  0  0
    0.2386   -1.1416   -0.3018 O   0  0  0  0  0  0  0  0  0  0  0  0
    1.2207    0.9421   -0.6592 N   0  0  0  0  0  0  0  0  0  0  0  0
    2.5936    0.6487   -0.5154 C   0  0  0  0  0  0  0  0  0  0  0  0
    3.4781    1.7347   -0.4480 C   0  0  0  0  0  0  0  0  0  0  0  0
    4.8524    1.5319   -0.2943 C   0  0  0  0  0  0  0  0  0  0  0  0
    5.3584    0.2381   -0.2050 C   0  0  0  0  0  0  0  0  0  0  0  0
    4.4807   -0.8472   -0.2698 C   0  0  0  0  0  0  0  0  0  0  0  0
    5.1261   -2.5077   -0.2141 S   0  0  0  0  0  6  0  0  0  0  0  0
    6.5575   -2.4170   -0.4214 O   0  0  0  0  0  0  0  0  0  0  0  0
    4.2994   -3.3269   -1.0739 O   0  0  0  0  0  0  0  0  0  0  0  0
    4.8752   -2.9847    1.3781 N   0  0  0  0  0  0  0  0  0  0  0  0
    5.6393   -2.3438    2.4663 C   0  0  0  0  0  0  0  0  0  0  0  0
    4.6310   -2.1725    3.5966 C   0  0  0  0  0  0  0  0  0  0  0  0
    3.6499   -3.3064    3.3617 C   0  0  0  0  0  0  0  0  0  0  0  0
    3.5144   -3.3109    1.8449 C   0  0  0  0  0  0  0  0  0  0  0  0
    3.1069   -0.6471   -0.4515 C   0  0  0  0  0  0  0  0  0  0  0  0
   -4.0283    1.7481   -0.4718 C   0  0  0  0  0  0  0  0  0  0  0  0
   -5.3112    2.2505   -0.7288 C   0  0  0  0  0  0  0  0  0  0  0  0
   -5.8037    3.4225   -0.2081 O   0  0  0  0  0  0  0  0  0  0  0  0
   -4.9948    4.1252    0.7236 C   0  0  0  0  0  0  0  0  0  0  0  0
   -8.5779    0.4210   -2.2061 H   0  0  0  0  0  0  0  0  0  0  0  0
   -7.9364    1.3146   -3.6403 H   0  0  0  0  0  0  0  0  0  0  0  0
   -9.2523    1.9867   -2.6711 H   0  0  0  0  0  0  0  0  0  0  0  0
   -6.4019   -0.2542   -2.7898 H   0  0  0  0  0  0  0  0  0  0  0  0
   -4.1744   -1.1063   -2.3234 H   0  0  0  0  0  0  0  0  0  0  0  0
   -2.2368   -1.0852   -0.5830 H   0  0  0  0  0  0  0  0  0  0  0  0
   -1.1550    1.7641   -1.0689 H   0  0  0  0  0  0  0  0  0  0  0  0
    0.9935    1.9181   -0.7936 H   0  0  0  0  0  0  0  0  0  0  0  0
    3.1108    2.7563   -0.5098 H   0  0  0  0  0  0  0  0  0  0  0  0
    5.5272    2.3836   -0.2496 H   0  0  0  0  0  0  0  0  0  0  0  0
    6.4300    0.0834   -0.0985 H   0  0  0  0  0  0  0  0  0  0  0  0
    6.4481   -3.0188    2.7661 H   0  0  0  0  0  0  0  0  0  0  0  0
    6.0745   -1.3820    2.1856 H   0  0  0  0  0  0  0  0  0  0  0  0
    4.1184   -1.2078    3.4986 H   0  0  0  0  0  0  0  0  0  0  0  0
    5.0992   -2.2116    4.5841 H   0  0  0  0  0  0  0  0  0  0  0  0
    4.0779   -4.2542    3.7096 H   0  0  0  0  0  0  0  0  0  0  0  0
    2.6929   -3.1527    3.8676 H   0  0  0  0  0  0  0  0  0  0  0  0
    3.1940   -4.2892    1.4775 H   0  0  0  0  0  0  0  0  0  0  0  0
    2.7925   -2.5504    1.5398 H   0  0  0  0  0  0  0  0  0  0  0  0
    2.4634   -1.5153   -0.5583 H   0  0  0  0  0  0  0  0  0  0  0  0
   -3.3499    2.2755    0.1893 H   0  0  0  0  0  0  0  0  0  0  0  0
   -4.7780    3.5105    1.6035 H   0  0  0  0  0  0  0  0  0  0  0  0
   -5.5568    5.0013    1.0612 H   0  0  0  0  0  0  0  0  0  0  0  0
   -4.0732    4.4834    0.2530 H   0  0  0  0  0  0  0  0  0  0  0  0
  1  2  1  0
  2  3  1  0
  3  4  2  0
  4  5  1  0
  5  6  2  0
  6  7  1  0
  7  8  2  3
  8  9  1  0
  9 10  2  0
  9 11  1  0
 11 12  1  0
 12 13  2  0
 13 14  1  0
 14 15  2  0
 15 16  1  0
 16 17  1  0
 17 18  2  0
 17 19  2  0
 17 20  1  0
 20 21  1  0
 21 22  1  0
 22 23  1  0
 23 24  1  0
 16 25  2  0
  6 26  1  0
 26 27  2  0
 27 28  1  0
 28 29  1  0
 27  3  1  0
 25 12  1  0
 24 20  1  0
  1 30  1  0
  1 31  1  0
  1 32  1  0
  4 33  1  0
  5 34  1  0
  7 35  1  0
  8 36  1  0
 11 37  1  0
 13 38  1  0
 14 39  1  0
 15 40  1  0
 21 41  1  0
 21 42  1  0
 22 43  1  0
 22 44  1  0
 23 45  1  0
 23 46  1  0
 24 47  1  0
 24 48  1  0
 25 49  1  0
 26 50  1  0
 29 51  1  0
 29 52  1  0
 29 53  1  0
M  END
$$$$
