
     RDKit          3D

 35 36  0  0  0  0  0  0  0  0999 V2000
    4.3382   -2.0459   -1.9974 C   0  0  0  0  0  0  0  0  0  0  0  0
    3.4355   -0.9073   -1.6265 C   0  0  0  0  0  0  0  0  0  0  0  0
    2.0486   -1.0306   -1.7533 C   0  0  0  0  0  0  0  0  0  0  0  0
    1.2048    0.0409   -1.4387 C   0  0  0  0  0  0  0  0  0  0  0  0
    1.7335    1.2508   -0.9855 C   0  0  0  0  0  0  0  0  0  0  0  0
    0.9584    2.3836   -0.6609 N   0  0  0  0  0  0  0  0  0  0  0  0
   -0.3773    2.5341   -0.4174 C   0  0  0  0  0  0  0  0  0  0  0  0
   -1.0077    4.0820   -0.4969 S   0  0  0  0  0  0  0  0  0  0  0  0
   -1.0781    1.4176   -0.0779 N   0  0  0  0  0  0  0  0  0  0  0  0
   -2.4909    1.3571    0.2393 C   0  0  0  0  0  0  0  0  0  0  0  0
   -2.8272   -0.0694    0.5041 C   0  0  0  0  0  0  0  0  0  0  0  0
   -3.2099   -1.0573   -0.3873 C   0  0  0  0  0  0  0  0  0  0  0  0
   -3.4119   -2.2492    0.3440 C   0  0  0  0  0  0  0  0  0  0  0  0
   -3.1485   -1.9664    1.6645 C   0  0  0  0  0  0  0  0  0  0  0  0
   -2.7951   -0.6449    1.7563 N   0  0  0  0  0  0  0  0  0  0  0  0
   -2.4369    0.0207    2.9907 C   0  0  0  0  0  0  0  0  0  0  0  0
    3.1237    1.3876   -0.9034 C   0  0  0  0  0  0  0  0  0  0  0  0
    3.9681    0.3178   -1.2166 C   0  0  0  0  0  0  0  0  0  0  0  0
    5.2616   -2.0196   -1.4093 H   0  0  0  0  0  0  0  0  0  0  0  0
    4.5936   -1.9904   -3.0601 H   0  0  0  0  0  0  0  0  0  0  0  0
    3.8545   -3.0082   -1.7990 H   0  0  0  0  0  0  0  0  0  0  0  0
    1.6105   -1.9595   -2.1129 H   0  0  0  0  0  0  0  0  0  0  0  0
    0.1407   -0.0893   -1.6109 H   0  0  0  0  0  0  0  0  0  0  0  0
    1.4541    3.2689   -0.6728 H   0  0  0  0  0  0  0  0  0  0  0  0
   -0.5194    0.6564    0.2828 H   0  0  0  0  0  0  0  0  0  0  0  0
   -2.6949    1.9973    1.1031 H   0  0  0  0  0  0  0  0  0  0  0  0
   -3.0627    1.7402   -0.6130 H   0  0  0  0  0  0  0  0  0  0  0  0
   -3.3281   -0.9263   -1.4558 H   0  0  0  0  0  0  0  0  0  0  0  0
   -3.7167   -3.2104   -0.0489 H   0  0  0  0  0  0  0  0  0  0  0  0
   -3.1863   -2.6012    2.5404 H   0  0  0  0  0  0  0  0  0  0  0  0
   -2.4038   -0.7093    3.8036 H   0  0  0  0  0  0  0  0  0  0  0  0
   -1.4514    0.4767    2.8677 H   0  0  0  0  0  0  0  0  0  0  0  0
   -3.1942    0.7790    3.2040 H   0  0  0  0  0  0  0  0  0  0  0  0
    3.5703    2.3244   -0.5798 H   0  0  0  0  0  0  0  0  0  0  0  0
    5.0450    0.4501   -1.1381 H   0  0  0  0  0  0  0  0  0  0  0  0
  1  2  1  0
  2  3  2  0
  3  4  1  0
  4  5  2  0
  5  6  1  0
  6  7  1  0
  7  8  2  0
  7  9  1  0
  9 10  1  0
 10 11  1  0
 11 12  2  0
 12 13  1  0
 13 14  2  0
 14 15  1  0
 15 16  1  0
  5 17  1  0
 17 18  2  0
 18  2  1  0
 15 11  1  0
  1 19  1  0
  1 20  1  0
  1 21  1  0
  3 22  1  0
  4 23  1  0
  6 24  1  0
  9 25  1  0
 10 26  1  0
 10 27  1  0
 12 28  1  0
 13 29  1  0
 14 30  1  0
 16 31  1  0
 16 32  1  0
 16 33  1  0
 17 34  1  0
 18 35  1  0
M  END
$$$$
