
     RDKit          3D

 71 76  0  0  0  0  0  0  0  0999 V2000
   -4.4651   -3.7584    3.5616 C   0  0  0  0  0  0  0  0  0  0  0  0
   -3.5082   -2.9256    2.9200 O   0  0  0  0  0  0  0  0  0  0  0  0
   -3.4147   -3.0159    1.5577 C   0  0  0  0  0  0  0  0  0  0  0  0
   -4.1866   -3.8606    0.7367 C   0  0  0  0  0  0  0  0  0  0  0  0
   -4.0076   -3.8759   -0.6523 C   0  0  0  0  0  0  0  0  0  0  0  0
   -3.0541   -3.0342   -1.1816 C   0  0  0  0  0  0  0  0  0  0  0  0
   -2.2829   -2.1841   -0.3868 C   0  0  0  0  0  0  0  0  0  0  0  0
   -2.4526   -2.1720    0.9891 C   0  0  0  0  0  0  0  0  0  0  0  0
   -1.3535   -1.4109   -1.2709 C   0  0  1  0  0  0  0  0  0  0  0  0
   -1.6861   -1.9577   -2.6881 C   0  0  0  0  0  0  0  0  0  0  0  0
   -1.1727   -1.6734   -3.7598 O   0  0  0  0  0  0  0  0  0  0  0  0
   -2.7103   -2.8956   -2.5200 N   0  0  0  0  0  0  0  0  0  0  0  0
   -1.6264    0.0441   -1.1255 C   0  0  0  0  0  0  0  0  0  0  0  0
   -0.4083    0.7605   -1.1483 C   0  0  0  0  0  0  0  0  0  0  0  0
   -0.6827    2.0956   -1.0355 C   0  0  0  0  0  0  0  0  0  0  0  0
    0.0917    3.1728   -1.0501 O   0  0  0  0  0  0  0  0  0  0  0  0
   -2.0599    2.1974   -0.8908 N   0  0  0  0  0  0  0  0  0  0  0  0
   -2.7888    3.4494   -0.7290 C   0  0  0  0  0  0  0  0  0  0  0  0
   -2.9334    3.8293    0.7249 C   0  0  0  0  0  0  0  0  0  0  0  0
   -4.0179    3.3606    1.4807 C   0  0  0  0  0  0  0  0  0  0  0  0
   -4.1459    3.7048    2.8273 C   0  0  0  0  0  0  0  0  0  0  0  0
   -3.1899    4.5171    3.4339 C   0  0  0  0  0  0  0  0  0  0  0  0
   -2.1030    4.9825    2.6963 C   0  0  0  0  0  0  0  0  0  0  0  0
   -1.9735    4.6388    1.3496 C   0  0  0  0  0  0  0  0  0  0  0  0
   -2.6497    0.9429   -0.9709 C   0  0  0  0  0  0  0  0  0  0  0  0
   -3.9654    0.7914   -0.8817 O   0  0  0  0  0  0  0  0  0  0  0  0
    0.7175   -0.1769   -1.3432 C   0  0  1  0  0  0  0  0  0  0  0  0
    1.9990    0.0278   -0.5425 C   0  0  0  0  0  0  0  0  0  0  0  0
    2.8996   -1.1328   -0.7000 N   0  0  0  0  0  0  0  0  0  0  0  0
    4.2602   -1.0320   -0.4619 C   0  0  0  0  0  0  0  0  0  0  0  0
    5.0005   -2.0007   -0.3518 O   0  0  0  0  0  0  0  0  0  0  0  0
    4.6675    0.2602   -0.3713 O   0  0  0  0  0  0  0  0  0  0  0  0
    6.0579    0.5922   -0.1249 C   0  0  0  0  0  0  0  0  0  0  0  0
    6.9585    0.1087   -1.2667 C   0  0  0  0  0  0  0  0  0  0  0  0
    6.5242    0.0675    1.2375 C   0  0  0  0  0  0  0  0  0  0  0  0
    6.0886    2.1282   -0.0942 C   0  0  0  0  0  0  0  0  0  0  0  0
    2.2834   -2.4656   -0.5856 C   0  0  0  0  0  0  0  0  0  0  0  0
    0.9039   -2.5913   -1.2813 C   0  0  0  0  0  0  0  0  0  0  0  0
    0.0779   -1.4576   -0.9024 N   0  0  0  0  0  0  0  0  0  0  0  0
   -4.2369   -4.8173    3.4019 H   0  0  0  0  0  0  0  0  0  0  0  0
   -5.4812   -3.5180    3.2321 H   0  0  0  0  0  0  0  0  0  0  0  0
   -4.4094   -3.5645    4.6371 H   0  0  0  0  0  0  0  0  0  0  0  0
   -4.9364   -4.5238    1.1572 H   0  0  0  0  0  0  0  0  0  0  0  0
   -4.6006   -4.5329   -1.2788 H   0  0  0  0  0  0  0  0  0  0  0  0
   -1.8523   -1.5166    1.6149 H   0  0  0  0  0  0  0  0  0  0  0  0
   -3.1086   -3.4086   -3.2924 H   0  0  0  0  0  0  0  0  0  0  0  0
    1.0078    2.8783   -1.1889 H   0  0  0  0  0  0  0  0  0  0  0  0
   -2.2603    4.2298   -1.2889 H   0  0  0  0  0  0  0  0  0  0  0  0
   -3.7706    3.3425   -1.2049 H   0  0  0  0  0  0  0  0  0  0  0  0
   -4.7648    2.7157    1.0219 H   0  0  0  0  0  0  0  0  0  0  0  0
   -4.9891    3.3336    3.4034 H   0  0  0  0  0  0  0  0  0  0  0  0
   -3.2881    4.7819    4.4831 H   0  0  0  0  0  0  0  0  0  0  0  0
   -1.3520    5.6086    3.1703 H   0  0  0  0  0  0  0  0  0  0  0  0
   -1.1135    4.9984    0.7880 H   0  0  0  0  0  0  0  0  0  0  0  0
   -4.1472   -0.1641   -0.8332 H   0  0  0  0  0  0  0  0  0  0  0  0
    0.9533   -0.2229   -2.4162 H   0  0  0  0  0  0  0  0  0  0  0  0
    2.4990    0.9444   -0.8730 H   0  0  0  0  0  0  0  0  0  0  0  0
    1.7948    0.1395    0.5301 H   0  0  0  0  0  0  0  0  0  0  0  0
    7.9752    0.5039   -1.1667 H   0  0  0  0  0  0  0  0  0  0  0  0
    7.0340   -0.9824   -1.2950 H   0  0  0  0  0  0  0  0  0  0  0  0
    6.5570    0.4210   -2.2373 H   0  0  0  0  0  0  0  0  0  0  0  0
    5.8175    0.3509    2.0256 H   0  0  0  0  0  0  0  0  0  0  0  0
    7.5129    0.4603    1.4982 H   0  0  0  0  0  0  0  0  0  0  0  0
    6.5920   -1.0243    1.2549 H   0  0  0  0  0  0  0  0  0  0  0  0
    5.7250    2.5440   -1.0413 H   0  0  0  0  0  0  0  0  0  0  0  0
    5.4250    2.5157    0.6878 H   0  0  0  0  0  0  0  0  0  0  0  0
    7.0981    2.5119    0.0871 H   0  0  0  0  0  0  0  0  0  0  0  0
    2.9651   -3.2224   -0.9897 H   0  0  0  0  0  0  0  0  0  0  0  0
    2.1730   -2.6666    0.4879 H   0  0  0  0  0  0  0  0  0  0  0  0
    1.0488   -2.6322   -2.3674 H   0  0  0  0  0  0  0  0  0  0  0  0
    0.4413   -3.5348   -0.9711 H   0  0  0  0  0  0  0  0  0  0  0  0
  1  2  1  0
  2  3  1  0
  3  4  2  0
  4  5  1  0
  5  6  2  0
  6  7  1  0
  7  8  2  0
  7  9  1  0
  9 10  1  0
 10 11  2  0
 10 12  1  0
  9 13  1  0
 13 14  1  0
 14 15  2  0
 15 16  1  0
 15 17  1  0
 17 18  1  0
 18 19  1  0
 19 20  2  0
 20 21  1  0
 21 22  2  0
 22 23  1  0
 23 24  2  0
 17 25  1  0
 25 26  1  0
 14 27  1  0
 27 28  1  0
 28 29  1  0
 29 30  1  0
 30 31  2  0
 30 32  1  0
 32 33  1  0
 33 34  1  0
 33 35  1  0
 33 36  1  0
 29 37  1  0
 37 38  1  0
 38 39  1  0
  8  3  1  0
  9 39  1  1
 12  6  1  0
 25 13  2  0
 39 27  1  0
 24 19  1  0
  1 40  1  0
  1 41  1  0
  1 42  1  0
  4 43  1  0
  5 44  1  0
  8 45  1  0
 12 46  1  0
 16 47  1  0
 18 48  1  0
 18 49  1  0
 20 50  1  0
 21 51  1  0
 22 52  1  0
 23 53  1  0
 24 54  1  0
 26 55  1  0
 27 56  1  6
 28 57  1  0
 28 58  1  0
 34 59  1  0
 34 60  1  0
 34 61  1  0
 35 62  1  0
 35 63  1  0
 35 64  1  0
 36 65  1  0
 36 66  1  0
 36 67  1  0
 37 68  1  0
 37 69  1  0
 38 70  1  0
 38 71  1  0
M  END
$$$$
