
     RDKit          3D

 50 52  0  0  0  0  0  0  0  0999 V2000
    1.1428    0.0232   -3.9865 O   0  0  0  0  0  0  0  0  0  0  0  0
    2.0876   -0.4208   -3.3621 C   0  0  0  0  0  0  0  0  0  0  0  0
    2.6548   -1.5955   -3.6784 O   0  0  0  0  0  0  0  0  0  0  0  0
    2.7343    0.2359   -2.2022 C   0  0  0  0  0  0  0  0  0  0  0  0
    2.2497    1.4874   -1.8016 C   0  0  0  0  0  0  0  0  0  0  0  0
    2.8174    2.1356   -0.7052 C   0  0  0  0  0  0  0  0  0  0  0  0
    2.2737    3.3804   -0.2840 N   0  0  0  0  0  0  0  0  0  0  0  0
    1.4531    3.4721    1.1912 S   0  0  0  0  0  6  0  0  0  0  0  0
    2.3427    3.0830    2.2626 O   0  0  0  0  0  0  0  0  0  0  0  0
    0.7683    4.7463    1.1982 O   0  0  0  0  0  0  0  0  0  0  0  0
    0.2130    2.2083    1.0236 C   0  0  0  0  0  0  0  0  0  0  0  0
    0.4248    0.9441    1.5718 C   0  0  0  0  0  0  0  0  0  0  0  0
   -0.5454   -0.0561    1.4147 C   0  0  0  0  0  0  0  0  0  0  0  0
   -1.7504    0.1655    0.7186 C   0  0  0  0  0  0  0  0  0  0  0  0
   -2.6616   -0.8722    0.5390 N   0  0  0  0  0  0  0  0  0  0  0  0
   -2.7820   -1.9334    1.5470 C   0  0  0  0  0  0  0  0  0  0  0  0
   -4.0838   -2.7006    1.3333 C   0  0  0  0  0  0  0  0  0  0  0  0
   -4.1320   -3.3632   -0.0436 C   0  0  0  0  0  0  0  0  0  0  0  0
   -3.2268   -2.6725   -1.0624 C   0  0  0  0  0  0  0  0  0  0  0  0
   -3.1424   -1.1667   -0.8237 C   0  0  0  0  0  0  0  0  0  0  0  0
   -1.9357    1.4785    0.2327 C   0  0  0  0  0  0  0  0  0  0  0  0
   -3.1841    1.8663   -0.3911 N   0  0  0  0  0  4  0  0  0  0  0  0
   -3.1471    2.0910   -1.6099 O   0  0  0  0  0  0  0  0  0  0  0  0
   -4.1756    1.9969    0.3384 O   0  0  0  0  0  1  0  0  0  0  0  0
   -0.9794    2.4983    0.3688 C   0  0  0  0  0  0  0  0  0  0  0  0
    3.8702    1.5458   -0.0064 C   0  0  0  0  0  0  0  0  0  0  0  0
    4.3623    0.2974   -0.4070 C   0  0  0  0  0  0  0  0  0  0  0  0
    5.4788   -0.3704    0.3035 C   0  0  0  0  0  0  0  0  0  0  0  0
    5.9273   -1.4703    0.0415 O   0  0  0  0  0  0  0  0  0  0  0  0
    5.9760    0.3731    1.3044 O   0  0  0  0  0  0  0  0  0  0  0  0
    3.7913   -0.3592   -1.5046 C   0  0  0  0  0  0  0  0  0  0  0  0
    2.1458   -1.9140   -4.4539 H   0  0  0  0  0  0  0  0  0  0  0  0
    1.4226    1.9416   -2.3439 H   0  0  0  0  0  0  0  0  0  0  0  0
    1.8703    3.9987   -0.9879 H   0  0  0  0  0  0  0  0  0  0  0  0
    1.3430    0.7168    2.1113 H   0  0  0  0  0  0  0  0  0  0  0  0
   -0.3209   -1.0367    1.8291 H   0  0  0  0  0  0  0  0  0  0  0  0
   -1.9320   -2.6240    1.4861 H   0  0  0  0  0  0  0  0  0  0  0  0
   -2.7956   -1.4980    2.5537 H   0  0  0  0  0  0  0  0  0  0  0  0
   -4.2135   -3.4582    2.1142 H   0  0  0  0  0  0  0  0  0  0  0  0
   -4.9295   -2.0066    1.4249 H   0  0  0  0  0  0  0  0  0  0  0  0
   -5.1685   -3.3628   -0.4018 H   0  0  0  0  0  0  0  0  0  0  0  0
   -3.8352   -4.4158    0.0371 H   0  0  0  0  0  0  0  0  0  0  0  0
   -2.2192   -3.1034   -0.9966 H   0  0  0  0  0  0  0  0  0  0  0  0
   -3.5880   -2.8768   -2.0767 H   0  0  0  0  0  0  0  0  0  0  0  0
   -4.1347   -0.7213   -0.9601 H   0  0  0  0  0  0  0  0  0  0  0  0
   -2.4729   -0.7398   -1.5806 H   0  0  0  0  0  0  0  0  0  0  0  0
   -1.1752    3.4957   -0.0203 H   0  0  0  0  0  0  0  0  0  0  0  0
    4.3108    2.0616    0.8449 H   0  0  0  0  0  0  0  0  0  0  0  0
    6.6962   -0.1731    1.6843 H   0  0  0  0  0  0  0  0  0  0  0  0
    4.1748   -1.3321   -1.8092 H   0  0  0  0  0  0  0  0  0  0  0  0
  1  2  2  0
  2  3  1  0
  2  4  1  0
  4  5  2  0
  5  6  1  0
  6  7  1  0
  7  8  1  0
  8  9  2  0
  8 10  2  0
  8 11  1  0
 11 12  2  0
 12 13  1  0
 13 14  2  0
 14 15  1  0
 15 16  1  0
 16 17  1  0
 17 18  1  0
 18 19  1  0
 19 20  1  0
 14 21  1  0
 21 22  1  0
 22 23  2  0
 22 24  1  0
 21 25  2  0
  6 26  2  0
 26 27  1  0
 27 28  1  0
 28 29  2  0
 28 30  1  0
 27 31  2  0
 31  4  1  0
 25 11  1  0
 20 15  1  0
  3 32  1  0
  5 33  1  0
  7 34  1  0
 12 35  1  0
 13 36  1  0
 16 37  1  0
 16 38  1  0
 17 39  1  0
 17 40  1  0
 18 41  1  0
 18 42  1  0
 19 43  1  0
 19 44  1  0
 20 45  1  0
 20 46  1  0
 25 47  1  0
 26 48  1  0
 30 49  1  0
 31 50  1  0
M  CHG  2  22   1  24  -1
M  END
$$$$
