
     RDKit          3D

 36 37  0  0  0  0  0  0  0  0999 V2000
    1.6437   -1.4963   -2.8631 O   0  0  0  0  0  0  0  0  0  0  0  0
    1.1234   -1.6936   -1.7689 C   0  0  0  0  0  0  0  0  0  0  0  0
   -0.0878   -2.6126   -1.5933 C   0  0  0  0  0  0  0  0  0  0  0  0
   -1.3257   -1.8992   -1.5610 O   0  0  0  0  0  0  0  0  0  0  0  0
   -1.6015   -1.2857   -0.3878 C   0  0  0  0  0  0  0  0  0  0  0  0
   -0.9095   -1.2674    0.6162 O   0  0  0  0  0  0  0  0  0  0  0  0
   -2.8706   -0.5705   -0.5288 C   0  0  0  0  0  0  0  0  0  0  0  0
   -4.0826   -1.2659   -0.4730 C   0  0  0  0  0  0  0  0  0  0  0  0
   -4.1575   -2.9750   -0.2325 Cl  0  0  0  0  0  0  0  0  0  0  0  0
   -5.2894   -0.5711   -0.5990 C   0  0  0  0  0  0  0  0  0  0  0  0
   -5.2864    0.8132   -0.7756 C   0  0  0  0  0  0  0  0  0  0  0  0
   -4.0766    1.5069   -0.8229 C   0  0  0  0  0  0  0  0  0  0  0  0
   -2.8664    0.8178   -0.6977 C   0  0  0  0  0  0  0  0  0  0  0  0
   -1.4040    1.7350   -0.7766 Cl  0  0  0  0  0  0  0  0  0  0  0  0
    1.5665   -1.1159   -0.5956 N   0  0  0  0  0  0  0  0  0  0  0  0
    2.5718   -0.0702   -0.6249 C   0  0  0  0  0  0  0  0  0  0  0  0
    3.1177    0.2748    0.7608 C   0  0  0  0  0  0  0  0  0  0  0  0
    2.0831    0.8781    1.7001 C   0  0  0  0  0  0  0  0  0  0  0  0
    2.9535    1.6682    2.6443 C   0  0  0  0  0  0  0  0  0  0  0  0
    4.0139    2.2105    1.7112 C   0  0  0  0  0  0  0  0  0  0  0  0
    4.1714    1.2523    0.6548 O   0  0  0  0  0  0  0  0  0  0  0  0
   -0.1210   -3.2961   -2.4487 H   0  0  0  0  0  0  0  0  0  0  0  0
    0.0326   -3.2359   -0.6986 H   0  0  0  0  0  0  0  0  0  0  0  0
   -6.2380   -1.1030   -0.5584 H   0  0  0  0  0  0  0  0  0  0  0  0
   -6.2272    1.3516   -0.8743 H   0  0  0  0  0  0  0  0  0  0  0  0
   -4.0839    2.5867   -0.9595 H   0  0  0  0  0  0  0  0  0  0  0  0
    0.8888   -1.1003    0.1679 H   0  0  0  0  0  0  0  0  0  0  0  0
    3.3920   -0.3865   -1.2807 H   0  0  0  0  0  0  0  0  0  0  0  0
    2.1289    0.8142   -1.0990 H   0  0  0  0  0  0  0  0  0  0  0  0
    3.5568   -0.6202    1.2197 H   0  0  0  0  0  0  0  0  0  0  0  0
    1.4734    0.1241    2.2056 H   0  0  0  0  0  0  0  0  0  0  0  0
    1.4129    1.5589    1.1617 H   0  0  0  0  0  0  0  0  0  0  0  0
    2.4179    2.4532    3.1842 H   0  0  0  0  0  0  0  0  0  0  0  0
    3.4099    0.9955    3.3800 H   0  0  0  0  0  0  0  0  0  0  0  0
    4.9734    2.3686    2.2116 H   0  0  0  0  0  0  0  0  0  0  0  0
    3.6965    3.1556    1.2580 H   0  0  0  0  0  0  0  0  0  0  0  0
  1  2  2  0
  2  3  1  0
  3  4  1  0
  4  5  1  0
  5  6  2  0
  5  7  1  0
  7  8  2  0
  8  9  1  0
  8 10  1  0
 10 11  2  0
 11 12  1  0
 12 13  2  0
 13 14  1  0
  2 15  1  0
 15 16  1  0
 16 17  1  0
 17 18  1  0
 18 19  1  0
 19 20  1  0
 20 21  1  0
 13  7  1  0
 21 17  1  0
  3 22  1  0
  3 23  1  0
 10 24  1  0
 11 25  1  0
 12 26  1  0
 15 27  1  0
 16 28  1  0
 16 29  1  0
 17 30  1  0
 18 31  1  0
 18 32  1  0
 19 33  1  0
 19 34  1  0
 20 35  1  0
 20 36  1  0
M  END
$$$$
