
     RDKit          3D

 64 64  0  0  0  0  0  0  0  0999 V2000
   -9.3984    1.0364    1.5933 C   0  0  0  0  0  0  0  0  0  0  0  0
   -8.8789   -0.3888    1.6965 C   0  0  0  0  0  0  0  0  0  0  0  0
   -8.0767   -0.8393    0.4733 C   0  0  0  0  0  0  0  0  0  0  0  0
   -6.8367   -0.0021    0.1403 C   0  0  0  0  0  0  0  0  0  0  0  0
   -5.7901    0.0050    1.2571 C   0  0  0  0  0  0  0  0  0  0  0  0
   -4.5499    0.8403    0.9223 C   0  0  0  0  0  0  0  0  0  0  0  0
   -3.7104    0.2585   -0.2183 C   0  0  0  0  0  0  0  0  0  0  0  0
   -2.4224    1.0616   -0.4188 C   0  0  0  0  0  0  0  0  0  0  0  0
   -1.5973    0.5974   -1.6229 C   0  0  0  0  0  0  0  0  0  0  0  0
   -1.1072   -0.8530   -1.5722 C   0  0  0  0  0  0  0  0  0  0  0  0
   -0.2620   -1.2246   -0.3497 C   0  0  0  0  0  0  0  0  0  0  0  0
    0.9905   -0.3723   -0.1240 C   0  0  0  0  0  0  0  0  0  0  0  0
    1.9863   -0.4351   -1.2841 C   0  0  0  0  0  0  0  0  0  0  0  0
    3.2638    0.3438   -0.9598 C   0  0  0  0  0  0  0  0  0  0  0  0
    4.2566    0.2899   -2.1234 C   0  0  0  0  0  0  0  0  0  0  0  0
    5.5029    1.1381   -1.8870 C   0  0  0  0  0  0  0  0  0  0  0  0
    6.3287    0.5723   -0.7896 N   0  0  0  0  0  4  0  0  0  0  0  0
    6.3070    1.1463    0.4370 C   0  0  0  0  0  0  0  0  0  0  0  0
    7.0894    0.6459    1.4706 C   0  0  0  0  0  0  0  0  0  0  0  0
    7.9186   -0.4425    1.2223 C   0  0  0  0  0  0  0  0  0  0  0  0
    8.7394   -0.9632    2.3342 C   0  0  0  0  0  0  0  0  0  0  0  0
    9.9445   -1.4440    2.2911 N   0  0  0  0  0  0  0  0  0  0  0  0
   10.5271   -1.3674    1.0245 O   0  0  0  0  0  0  0  0  0  0  0  0
    7.9209   -1.0334   -0.0361 C   0  0  0  0  0  0  0  0  0  0  0  0
    7.1217   -0.4978   -1.0356 C   0  0  0  0  0  0  0  0  0  0  0  0
   -8.5803    1.7625    1.5975 H   0  0  0  0  0  0  0  0  0  0  0  0
   -9.9827    1.1765    0.6786 H   0  0  0  0  0  0  0  0  0  0  0  0
  -10.0456    1.2629    2.4466 H   0  0  0  0  0  0  0  0  0  0  0  0
   -8.2800   -0.4956    2.6074 H   0  0  0  0  0  0  0  0  0  0  0  0
   -9.7358   -1.0638    1.8122 H   0  0  0  0  0  0  0  0  0  0  0  0
   -7.7712   -1.8823    0.6235 H   0  0  0  0  0  0  0  0  0  0  0  0
   -8.7384   -0.8364   -0.4019 H   0  0  0  0  0  0  0  0  0  0  0  0
   -7.1307    1.0254   -0.1016 H   0  0  0  0  0  0  0  0  0  0  0  0
   -6.3963   -0.4197   -0.7723 H   0  0  0  0  0  0  0  0  0  0  0  0
   -6.2314    0.4220    2.1692 H   0  0  0  0  0  0  0  0  0  0  0  0
   -5.4893   -1.0233    1.4910 H   0  0  0  0  0  0  0  0  0  0  0  0
   -4.8528    1.8650    0.6752 H   0  0  0  0  0  0  0  0  0  0  0  0
   -3.9287    0.9037    1.8245 H   0  0  0  0  0  0  0  0  0  0  0  0
   -4.2853    0.2669   -1.1506 H   0  0  0  0  0  0  0  0  0  0  0  0
   -3.4699   -0.7855    0.0102 H   0  0  0  0  0  0  0  0  0  0  0  0
   -1.8145    1.0232    0.4921 H   0  0  0  0  0  0  0  0  0  0  0  0
   -2.6803    2.1171   -0.5722 H   0  0  0  0  0  0  0  0  0  0  0  0
   -2.1981    0.7247   -2.5325 H   0  0  0  0  0  0  0  0  0  0  0  0
   -0.7375    1.2683   -1.7360 H   0  0  0  0  0  0  0  0  0  0  0  0
   -1.9696   -1.5291   -1.6154 H   0  0  0  0  0  0  0  0  0  0  0  0
   -0.5337   -1.0565   -2.4846 H   0  0  0  0  0  0  0  0  0  0  0  0
   -0.8848   -1.1748    0.5514 H   0  0  0  0  0  0  0  0  0  0  0  0
    0.0395   -2.2753   -0.4475 H   0  0  0  0  0  0  0  0  0  0  0  0
    0.7086    0.6693    0.0672 H   0  0  0  0  0  0  0  0  0  0  0  0
    1.4827   -0.7300    0.7893 H   0  0  0  0  0  0  0  0  0  0  0  0
    1.5335   -0.0181   -2.1905 H   0  0  0  0  0  0  0  0  0  0  0  0
    2.2383   -1.4811   -1.4969 H   0  0  0  0  0  0  0  0  0  0  0  0
    3.0107    1.3879   -0.7398 H   0  0  0  0  0  0  0  0  0  0  0  0
    3.7217   -0.0783   -0.0581 H   0  0  0  0  0  0  0  0  0  0  0  0
    3.7621    0.6572   -3.0310 H   0  0  0  0  0  0  0  0  0  0  0  0
    4.5378   -0.7523   -2.3151 H   0  0  0  0  0  0  0  0  0  0  0  0
    5.2479    2.1734   -1.6363 H   0  0  0  0  0  0  0  0  0  0  0  0
    6.1364    1.1595   -2.7814 H   0  0  0  0  0  0  0  0  0  0  0  0
    5.6552    2.0039    0.5816 H   0  0  0  0  0  0  0  0  0  0  0  0
    7.0628    1.1187    2.4500 H   0  0  0  0  0  0  0  0  0  0  0  0
    8.2687   -0.9167    3.3321 H   0  0  0  0  0  0  0  0  0  0  0  0
   11.4266   -1.7141    1.1922 H   0  0  0  0  0  0  0  0  0  0  0  0
    8.5342   -1.9071   -0.2442 H   0  0  0  0  0  0  0  0  0  0  0  0
    7.1031   -0.9199   -2.0369 H   0  0  0  0  0  0  0  0  0  0  0  0
  1  2  1  0
  2  3  1  0
  3  4  1  0
  4  5  1  0
  5  6  1  0
  6  7  1  0
  7  8  1  0
  8  9  1  0
  9 10  1  0
 10 11  1  0
 11 12  1  0
 12 13  1  0
 13 14  1  0
 14 15  1  0
 15 16  1  0
 16 17  1  0
 17 18  2  0
 18 19  1  0
 19 20  2  0
 20 21  1  0
 21 22  2  3
 22 23  1  0
 20 24  1  0
 24 25  2  0
 25 17  1  0
  1 26  1  0
  1 27  1  0
  1 28  1  0
  2 29  1  0
  2 30  1  0
  3 31  1  0
  3 32  1  0
  4 33  1  0
  4 34  1  0
  5 35  1  0
  5 36  1  0
  6 37  1  0
  6 38  1  0
  7 39  1  0
  7 40  1  0
  8 41  1  0
  8 42  1  0
  9 43  1  0
  9 44  1  0
 10 45  1  0
 10 46  1  0
 11 47  1  0
 11 48  1  0
 12 49  1  0
 12 50  1  0
 13 51  1  0
 13 52  1  0
 14 53  1  0
 14 54  1  0
 15 55  1  0
 15 56  1  0
 16 57  1  0
 16 58  1  0
 18 59  1  0
 19 60  1  0
 21 61  1  0
 23 62  1  0
 24 63  1  0
 25 64  1  0
M  CHG  1  17   1
M  END
$$$$
