
     RDKit          3D

 43 45  0  0  0  0  0  0  0  0999 V2000
    4.5333    0.7152   -2.4165 C   0  0  0  0  0  0  0  0  0  0  0  0
    4.7033    0.7978   -1.0069 O   0  0  0  0  0  0  0  0  0  0  0  0
    3.6542    0.4457   -0.2013 C   0  0  0  0  0  0  0  0  0  0  0  0
    2.3759    0.1229   -0.6911 C   0  0  0  0  0  0  0  0  0  0  0  0
    1.3068   -0.1823    0.1746 C   0  0  0  0  0  0  0  0  0  0  0  0
   -0.0143   -0.4776   -0.4243 C   0  0  0  0  0  0  0  0  0  0  0  0
   -0.1732   -1.6971   -1.1578 C   0  0  0  0  0  0  0  0  0  0  0  0
   -0.2483   -2.6722   -1.7822 N   0  0  0  0  0  0  0  0  0  0  0  0
   -0.9961    0.4388   -0.3077 C   0  0  0  0  0  0  0  0  0  0  0  0
   -2.3437    0.3044   -0.8911 C   0  0  0  0  0  0  0  0  0  0  0  0
   -2.4820    0.5370   -2.2685 C   0  0  0  0  0  0  0  0  0  0  0  0
   -3.7264    0.4294   -2.8800 C   0  0  0  0  0  0  0  0  0  0  0  0
   -4.8449    0.0936   -2.1214 C   0  0  0  0  0  0  0  0  0  0  0  0
   -4.7385   -0.1387   -0.7418 C   0  0  0  0  0  0  0  0  0  0  0  0
   -5.8790   -0.4744    0.0067 C   0  0  0  0  0  0  0  0  0  0  0  0
   -5.7944   -0.7110    1.3777 C   0  0  0  0  0  0  0  0  0  0  0  0
   -4.5671   -0.6145    2.0193 C   0  0  0  0  0  0  0  0  0  0  0  0
   -3.4239   -0.2809    1.2896 C   0  0  0  0  0  0  0  0  0  0  0  0
   -3.4769   -0.0354   -0.1029 C   0  0  0  0  0  0  0  0  0  0  0  0
    1.5602   -0.1499    1.5525 C   0  0  0  0  0  0  0  0  0  0  0  0
    0.5154   -0.4672    2.5053 N   0  0  0  0  0  4  0  0  0  0  0  0
    0.0102   -1.5939    2.4366 O   0  0  0  0  0  0  0  0  0  0  0  0
    0.2044    0.4174    3.3126 O   0  0  0  0  0  1  0  0  0  0  0  0
    2.8181    0.1772    2.0644 C   0  0  0  0  0  0  0  0  0  0  0  0
    3.8718    0.4545    1.1894 C   0  0  0  0  0  0  0  0  0  0  0  0
    5.0402    0.7623    1.8370 O   0  0  0  0  0  0  0  0  0  0  0  0
    6.2470    0.3579    1.1990 C   0  0  0  0  0  0  0  0  0  0  0  0
    4.2809   -0.3042   -2.7258 H   0  0  0  0  0  0  0  0  0  0  0  0
    3.7846    1.4342   -2.7644 H   0  0  0  0  0  0  0  0  0  0  0  0
    5.4875    0.9775   -2.8833 H   0  0  0  0  0  0  0  0  0  0  0  0
    2.1833    0.1207   -1.7616 H   0  0  0  0  0  0  0  0  0  0  0  0
   -0.8481    1.3678    0.2407 H   0  0  0  0  0  0  0  0  0  0  0  0
   -1.6204    0.8024   -2.8771 H   0  0  0  0  0  0  0  0  0  0  0  0
   -3.8269    0.6040   -3.9481 H   0  0  0  0  0  0  0  0  0  0  0  0
   -5.8090    0.0121   -2.6195 H   0  0  0  0  0  0  0  0  0  0  0  0
   -6.8499   -0.5575   -0.4775 H   0  0  0  0  0  0  0  0  0  0  0  0
   -6.6856   -0.9728    1.9417 H   0  0  0  0  0  0  0  0  0  0  0  0
   -4.4920   -0.8010    3.0876 H   0  0  0  0  0  0  0  0  0  0  0  0
   -2.4834   -0.2196    1.8309 H   0  0  0  0  0  0  0  0  0  0  0  0
    2.9929    0.2061    3.1386 H   0  0  0  0  0  0  0  0  0  0  0  0
    6.1499   -0.6113    0.6975 H   0  0  0  0  0  0  0  0  0  0  0  0
    7.0101    0.2493    1.9762 H   0  0  0  0  0  0  0  0  0  0  0  0
    6.5938    1.1331    0.5096 H   0  0  0  0  0  0  0  0  0  0  0  0
  1  2  1  0
  2  3  1  0
  3  4  2  0
  4  5  1  0
  5  6  1  0
  6  7  1  0
  7  8  3  0
  6  9  2  3
  9 10  1  0
 10 11  2  0
 11 12  1  0
 12 13  2  0
 13 14  1  0
 14 15  2  0
 15 16  1  0
 16 17  2  0
 17 18  1  0
 18 19  2  0
  5 20  2  0
 20 21  1  0
 21 22  2  0
 21 23  1  0
 20 24  1  0
 24 25  2  0
 25 26  1  0
 26 27  1  0
 25  3  1  0
 19 10  1  0
 19 14  1  0
  1 28  1  0
  1 29  1  0
  1 30  1  0
  4 31  1  0
  9 32  1  0
 11 33  1  0
 12 34  1  0
 13 35  1  0
 15 36  1  0
 16 37  1  0
 17 38  1  0
 18 39  1  0
 24 40  1  0
 27 41  1  0
 27 42  1  0
 27 43  1  0
M  CHG  2  21   1  23  -1
M  END
$$$$
