
     RDKit          3D

 50 53  0  0  0  0  0  0  0  0999 V2000
   -4.3363    2.0250    0.9710 C   0  0  0  0  0  0  0  0  0  0  0  0
   -4.0942    0.5137    0.9322 C   0  0  0  0  0  0  0  0  0  0  0  0
   -4.9168   -0.1250   -0.2031 C   0  0  0  0  0  0  0  0  0  0  0  0
   -4.1837   -1.3137   -0.8286 C   0  0  0  0  0  0  0  0  0  0  0  0
   -5.0390   -1.9882   -1.8991 C   0  0  0  0  0  0  0  0  0  0  0  0
   -2.8361   -0.8541   -1.4158 C   0  0  0  0  0  0  0  0  0  0  0  0
   -2.1727    0.1203   -0.5477 N   0  0  0  0  0  0  0  0  0  0  0  0
   -0.8344    0.3480   -0.8339 C   0  0  0  0  0  0  0  0  0  0  0  0
   -0.3727    0.0397   -2.0599 N   0  0  0  0  0  0  0  0  0  0  0  0
    0.9247    0.2947   -2.3346 C   0  0  0  0  0  0  0  0  0  0  0  0
    1.7875    0.8491   -1.4250 C   0  0  0  0  0  0  0  0  0  0  0  0
    1.2551    1.1330   -0.1895 C   0  0  0  0  0  0  0  0  0  0  0  0
   -0.0420    0.8918    0.1101 N   0  0  0  0  0  0  0  0  0  0  0  0
    2.0974    1.7414    0.8994 C   0  0  0  0  0  0  0  0  0  0  0  0
    3.5955    1.4197    0.7437 C   0  0  0  0  0  0  0  0  0  0  0  0
    4.0437    0.0149    1.1489 C   0  0  0  0  0  0  0  0  0  0  0  0
    3.1572   -1.0382    1.4241 C   0  0  0  0  0  0  0  0  0  0  0  0
    3.6335   -2.3020    1.7920 C   0  0  0  0  0  0  0  0  0  0  0  0
    5.0017   -2.5282    1.8979 C   0  0  0  0  0  0  0  0  0  0  0  0
    5.5820   -4.0819    2.3526 Cl  0  0  0  0  0  0  0  0  0  0  0  0
    5.9003   -1.4991    1.6435 C   0  0  0  0  0  0  0  0  0  0  0  0
    5.4237   -0.2377    1.2759 C   0  0  0  0  0  0  0  0  0  0  0  0
    4.0435    1.7814   -0.6826 C   0  0  0  0  0  0  0  0  0  0  0  0
    3.1941    1.1214   -1.7460 C   0  0  0  0  0  0  0  0  0  0  0  0
    3.6254    0.8772   -2.8684 O   0  0  0  0  0  0  0  0  0  0  0  0
   -2.5887    0.1894    0.8452 C   0  0  0  0  0  0  0  0  0  0  0  0
   -3.9624    2.5119    0.0640 H   0  0  0  0  0  0  0  0  0  0  0  0
   -5.4057    2.2442    1.0600 H   0  0  0  0  0  0  0  0  0  0  0  0
   -3.8311    2.4781    1.8305 H   0  0  0  0  0  0  0  0  0  0  0  0
   -4.4547    0.1089    1.8874 H   0  0  0  0  0  0  0  0  0  0  0  0
   -5.8901   -0.4407    0.1927 H   0  0  0  0  0  0  0  0  0  0  0  0
   -5.1300    0.6157   -0.9855 H   0  0  0  0  0  0  0  0  0  0  0  0
   -3.9910   -2.0546   -0.0408 H   0  0  0  0  0  0  0  0  0  0  0  0
   -5.2858   -1.2939   -2.7095 H   0  0  0  0  0  0  0  0  0  0  0  0
   -5.9778   -2.3546   -1.4709 H   0  0  0  0  0  0  0  0  0  0  0  0
   -4.5116   -2.8437   -2.3339 H   0  0  0  0  0  0  0  0  0  0  0  0
   -2.2112   -1.7456   -1.5631 H   0  0  0  0  0  0  0  0  0  0  0  0
   -3.0006   -0.3951   -2.3995 H   0  0  0  0  0  0  0  0  0  0  0  0
    1.2455    0.0307   -3.3386 H   0  0  0  0  0  0  0  0  0  0  0  0
    1.9571    2.8291    0.8469 H   0  0  0  0  0  0  0  0  0  0  0  0
    1.7323    1.4229    1.8833 H   0  0  0  0  0  0  0  0  0  0  0  0
    4.1195    2.0942    1.4371 H   0  0  0  0  0  0  0  0  0  0  0  0
    2.0787   -0.9139    1.3685 H   0  0  0  0  0  0  0  0  0  0  0  0
    2.9274   -3.1030    1.9963 H   0  0  0  0  0  0  0  0  0  0  0  0
    6.9704   -1.6679    1.7297 H   0  0  0  0  0  0  0  0  0  0  0  0
    6.1487    0.5537    1.0909 H   0  0  0  0  0  0  0  0  0  0  0  0
    3.9648    2.8650   -0.8354 H   0  0  0  0  0  0  0  0  0  0  0  0
    5.0879    1.5009   -0.8573 H   0  0  0  0  0  0  0  0  0  0  0  0
   -2.3908   -0.7772    1.3274 H   0  0  0  0  0  0  0  0  0  0  0  0
   -2.0381    0.9427    1.4216 H   0  0  0  0  0  0  0  0  0  0  0  0
  1  2  1  0
  2  3  1  0
  3  4  1  0
  4  5  1  0
  4  6  1  0
  6  7  1  0
  7  8  1  0
  8  9  2  0
  9 10  1  0
 10 11  2  0
 11 12  1  0
 12 13  2  0
 12 14  1  0
 14 15  1  0
 15 16  1  0
 16 17  2  0
 17 18  1  0
 18 19  2  0
 19 20  1  0
 19 21  1  0
 21 22  2  0
 15 23  1  0
 23 24  1  0
 24 25  2  0
  7 26  1  0
 26  2  1  0
 13  8  1  0
 22 16  1  0
 24 11  1  0
  1 27  1  0
  1 28  1  0
  1 29  1  0
  2 30  1  0
  3 31  1  0
  3 32  1  0
  4 33  1  0
  5 34  1  0
  5 35  1  0
  5 36  1  0
  6 37  1  0
  6 38  1  0
 10 39  1  0
 14 40  1  0
 14 41  1  0
 15 42  1  0
 17 43  1  0
 18 44  1  0
 21 45  1  0
 22 46  1  0
 23 47  1  0
 23 48  1  0
 26 49  1  0
 26 50  1  0
M  END
$$$$
