
     RDKit          3D

 57 59  0  0  0  0  0  0  0  0999 V2000
    8.0476    0.3747   -1.4203 C   0  0  0  0  0  0  0  0  0  0  0  0
    6.6461    0.5966   -1.0523 N   0  0  0  0  0  0  0  0  0  0  0  0
    5.9242    1.1781   -2.1857 C   0  0  0  0  0  0  0  0  0  0  0  0
    6.0402   -0.6657   -0.5908 C   0  0  0  0  0  0  0  0  0  0  0  0
    4.6638   -0.4876    0.0792 C   0  0  0  0  0  0  0  0  0  0  0  0
    4.1710   -1.7879    0.5483 N   0  0  0  0  0  0  0  0  0  0  0  0
    3.1918   -1.8867    1.8979 S   0  0  0  0  0  6  0  0  0  0  0  0
    3.8431   -1.2072    2.9934 O   0  0  0  0  0  0  0  0  0  0  0  0
    2.7650   -3.2646    1.9944 O   0  0  0  0  0  0  0  0  0  0  0  0
    1.7794   -0.9214    1.4197 C   0  0  0  0  0  0  0  0  0  0  0  0
    0.7433   -1.5231    0.7031 C   0  0  0  0  0  0  0  0  0  0  0  0
   -0.3823   -0.7726    0.3321 C   0  0  0  0  0  0  0  0  0  0  0  0
   -0.5144    0.5829    0.6731 C   0  0  0  0  0  0  0  0  0  0  0  0
   -1.6325    1.3281    0.3129 N   0  0  0  0  0  0  0  0  0  0  0  0
   -2.6169    1.6069    1.3901 C   0  0  0  0  0  0  0  0  0  0  0  0
   -3.7759    0.5860    1.3907 C   0  0  0  0  0  0  0  0  0  0  0  0
   -4.4338    0.5357    0.0651 N   0  0  0  0  0  0  0  0  0  0  0  0
   -5.6523   -0.1557   -0.0377 C   0  0  0  0  0  0  0  0  0  0  0  0
   -6.1133   -1.0641    0.9295 C   0  0  0  0  0  0  0  0  0  0  0  0
   -7.3391   -1.7240    0.7827 C   0  0  0  0  0  0  0  0  0  0  0  0
   -8.1247   -1.4735   -0.3321 C   0  0  0  0  0  0  0  0  0  0  0  0
   -9.2980   -2.1040   -0.4714 F   0  0  0  0  0  0  0  0  0  0  0  0
   -7.7104   -0.5731   -1.3003 C   0  0  0  0  0  0  0  0  0  0  0  0
   -6.4843    0.0808   -1.1487 C   0  0  0  0  0  0  0  0  0  0  0  0
   -3.4839    0.2223   -1.0325 C   0  0  0  0  0  0  0  0  0  0  0  0
   -2.2566    1.1648   -1.0196 C   0  0  0  0  0  0  0  0  0  0  0  0
    0.5571    1.1410    1.4047 C   0  0  0  0  0  0  0  0  0  0  0  0
    0.5578    2.5548    1.7183 N   0  0  0  0  0  4  0  0  0  0  0  0
    0.0772    2.8895    2.8102 O   0  0  0  0  0  0  0  0  0  0  0  0
    1.1033    3.3097    0.9015 O   0  0  0  0  0  1  0  0  0  0  0  0
    1.6936    0.4167    1.7907 C   0  0  0  0  0  0  0  0  0  0  0  0
    8.5220    1.3165   -1.7185 H   0  0  0  0  0  0  0  0  0  0  0  0
    8.6174   -0.0018   -0.5632 H   0  0  0  0  0  0  0  0  0  0  0  0
    8.1495   -0.3406   -2.2447 H   0  0  0  0  0  0  0  0  0  0  0  0
    4.9072    1.4656   -1.9016 H   0  0  0  0  0  0  0  0  0  0  0  0
    5.8673    0.4897   -3.0365 H   0  0  0  0  0  0  0  0  0  0  0  0
    6.4143    2.0989   -2.5224 H   0  0  0  0  0  0  0  0  0  0  0  0
    5.9610   -1.3833   -1.4189 H   0  0  0  0  0  0  0  0  0  0  0  0
    6.7018   -1.1284    0.1543 H   0  0  0  0  0  0  0  0  0  0  0  0
    3.9355   -0.0890   -0.6339 H   0  0  0  0  0  0  0  0  0  0  0  0
    4.7577    0.2164    0.9127 H   0  0  0  0  0  0  0  0  0  0  0  0
    4.0779   -2.5586   -0.1102 H   0  0  0  0  0  0  0  0  0  0  0  0
    0.7955   -2.5769    0.4334 H   0  0  0  0  0  0  0  0  0  0  0  0
   -1.1661   -1.2873   -0.2144 H   0  0  0  0  0  0  0  0  0  0  0  0
   -3.0219    2.6126    1.2224 H   0  0  0  0  0  0  0  0  0  0  0  0
   -2.1505    1.6113    2.3810 H   0  0  0  0  0  0  0  0  0  0  0  0
   -4.4949    0.8938    2.1597 H   0  0  0  0  0  0  0  0  0  0  0  0
   -3.3840   -0.4043    1.6556 H   0  0  0  0  0  0  0  0  0  0  0  0
   -5.5249   -1.2928    1.8127 H   0  0  0  0  0  0  0  0  0  0  0  0
   -7.6809   -2.4290    1.5332 H   0  0  0  0  0  0  0  0  0  0  0  0
   -8.3421   -0.3743   -2.1595 H   0  0  0  0  0  0  0  0  0  0  0  0
   -6.1903    0.8102   -1.8998 H   0  0  0  0  0  0  0  0  0  0  0  0
   -3.9588    0.3217   -2.0153 H   0  0  0  0  0  0  0  0  0  0  0  0
   -3.1621   -0.8207   -0.9377 H   0  0  0  0  0  0  0  0  0  0  0  0
   -1.5204    0.8377   -1.7639 H   0  0  0  0  0  0  0  0  0  0  0  0
   -2.5898    2.1605   -1.3397 H   0  0  0  0  0  0  0  0  0  0  0  0
    2.4933    0.8949    2.3532 H   0  0  0  0  0  0  0  0  0  0  0  0
  1  2  1  0
  2  3  1  0
  2  4  1  0
  4  5  1  0
  5  6  1  0
  6  7  1  0
  7  8  2  0
  7  9  2  0
  7 10  1  0
 10 11  2  0
 11 12  1  0
 12 13  2  0
 13 14  1  0
 14 15  1  0
 15 16  1  0
 16 17  1  0
 17 18  1  0
 18 19  2  0
 19 20  1  0
 20 21  2  0
 21 22  1  0
 21 23  1  0
 23 24  2  0
 17 25  1  0
 25 26  1  0
 13 27  1  0
 27 28  1  0
 28 29  2  0
 28 30  1  0
 27 31  2  0
 31 10  1  0
 26 14  1  0
 24 18  1  0
  1 32  1  0
  1 33  1  0
  1 34  1  0
  3 35  1  0
  3 36  1  0
  3 37  1  0
  4 38  1  0
  4 39  1  0
  5 40  1  0
  5 41  1  0
  6 42  1  0
 11 43  1  0
 12 44  1  0
 15 45  1  0
 15 46  1  0
 16 47  1  0
 16 48  1  0
 19 49  1  0
 20 50  1  0
 23 51  1  0
 24 52  1  0
 25 53  1  0
 25 54  1  0
 26 55  1  0
 26 56  1  0
 31 57  1  0
M  CHG  2  28   1  30  -1
M  END
$$$$
