
     RDKit          3D

 51 54  0  0  0  0  0  0  0  0999 V2000
   -2.8518   -3.2696   -4.1061 C   0  0  0  0  0  0  0  0  0  0  0  0
   -2.6804   -3.0878   -2.7060 O   0  0  0  0  0  0  0  0  0  0  0  0
   -2.2457   -1.8594   -2.2897 C   0  0  0  0  0  0  0  0  0  0  0  0
   -1.9284   -0.7776   -3.1157 C   0  0  0  0  0  0  0  0  0  0  0  0
   -1.4894    0.4274   -2.5572 C   0  0  0  0  0  0  0  0  0  0  0  0
   -1.3593    0.5404   -1.1714 C   0  0  0  0  0  0  0  0  0  0  0  0
   -0.8889    1.8182   -0.5962 C   0  0  0  0  0  0  0  0  0  0  0  0
   -1.7399    2.7926   -0.5359 N   0  0  0  0  0  0  0  0  0  0  0  0
   -1.3269    4.0145    0.0043 C   0  0  0  0  0  0  0  0  0  0  0  0
   -2.2400    5.0704    0.0590 C   0  0  0  0  0  0  0  0  0  0  0  0
   -1.8693    6.3066    0.5964 C   0  0  0  0  0  0  0  0  0  0  0  0
   -0.5774    6.4964    1.0859 C   0  0  0  0  0  0  0  0  0  0  0  0
    0.3427    5.4497    1.0373 C   0  0  0  0  0  0  0  0  0  0  0  0
   -0.0407    4.2164    0.4957 C   0  0  0  0  0  0  0  0  0  0  0  0
    0.9031    3.0891    0.4260 C   0  0  0  0  0  0  0  0  0  0  0  0
    2.0354    3.2153    0.8872 O   0  0  0  0  0  0  0  0  0  0  0  0
    0.4315    1.9166   -0.1632 N   0  0  0  0  0  0  0  0  0  0  0  0
    1.3958    0.8142   -0.2666 C   0  0  0  0  0  0  0  0  0  0  0  0
    1.5916    0.0801    1.0636 C   0  0  0  0  0  0  0  0  0  0  0  0
    2.1825   -1.1908    0.7819 O   0  0  0  0  0  0  0  0  0  0  0  0
    2.1384   -2.1204    1.7879 C   0  0  0  0  0  0  0  0  0  0  0  0
    2.0252   -1.8043    3.1458 C   0  0  0  0  0  0  0  0  0  0  0  0
    1.9962   -2.8186    4.1049 C   0  0  0  0  0  0  0  0  0  0  0  0
    2.0880   -4.1523    3.7142 C   0  0  0  0  0  0  0  0  0  0  0  0
    2.2161   -4.4751    2.3634 C   0  0  0  0  0  0  0  0  0  0  0  0
    2.2492   -3.4653    1.3905 C   0  0  0  0  0  0  0  0  0  0  0  0
    2.3879   -3.8301   -0.0620 C   0  0  0  0  0  0  0  0  0  0  0  0
   -1.6949   -0.5247   -0.3353 C   0  0  0  0  0  0  0  0  0  0  0  0
   -2.1286   -1.7247   -0.9014 C   0  0  0  0  0  0  0  0  0  0  0  0
   -1.9001   -3.1634   -4.6378 H   0  0  0  0  0  0  0  0  0  0  0  0
   -3.6063   -2.5833   -4.5046 H   0  0  0  0  0  0  0  0  0  0  0  0
   -3.2117   -4.2899   -4.2685 H   0  0  0  0  0  0  0  0  0  0  0  0
   -2.0151   -0.8376   -4.1954 H   0  0  0  0  0  0  0  0  0  0  0  0
   -1.2519    1.2711   -3.2004 H   0  0  0  0  0  0  0  0  0  0  0  0
   -3.2485    4.9240   -0.3201 H   0  0  0  0  0  0  0  0  0  0  0  0
   -2.5909    7.1192    0.6322 H   0  0  0  0  0  0  0  0  0  0  0  0
   -0.2878    7.4573    1.5045 H   0  0  0  0  0  0  0  0  0  0  0  0
    1.3515    5.5938    1.4172 H   0  0  0  0  0  0  0  0  0  0  0  0
    1.0993    0.1094   -1.0494 H   0  0  0  0  0  0  0  0  0  0  0  0
    2.3626    1.2172   -0.5955 H   0  0  0  0  0  0  0  0  0  0  0  0
    2.2527    0.6614    1.7161 H   0  0  0  0  0  0  0  0  0  0  0  0
    0.6230   -0.0522    1.5597 H   0  0  0  0  0  0  0  0  0  0  0  0
    1.9738   -0.7756    3.4888 H   0  0  0  0  0  0  0  0  0  0  0  0
    1.9091   -2.5658    5.1588 H   0  0  0  0  0  0  0  0  0  0  0  0
    2.0671   -4.9415    4.4609 H   0  0  0  0  0  0  0  0  0  0  0  0
    2.2924   -5.5217    2.0727 H   0  0  0  0  0  0  0  0  0  0  0  0
    3.2801   -3.3577   -0.4879 H   0  0  0  0  0  0  0  0  0  0  0  0
    2.4910   -4.9127   -0.1974 H   0  0  0  0  0  0  0  0  0  0  0  0
    1.5019   -3.5069   -0.6196 H   0  0  0  0  0  0  0  0  0  0  0  0
   -1.6304   -0.4290    0.7444 H   0  0  0  0  0  0  0  0  0  0  0  0
   -2.3839   -2.5633   -0.2569 H   0  0  0  0  0  0  0  0  0  0  0  0
  1  2  1  0
  2  3  1  0
  3  4  2  0
  4  5  1  0
  5  6  2  0
  6  7  1  0
  7  8  2  0
  8  9  1  0
  9 10  2  0
 10 11  1  0
 11 12  2  0
 12 13  1  0
 13 14  2  0
 14 15  1  0
 15 16  2  0
 15 17  1  0
 17 18  1  0
 18 19  1  0
 19 20  1  0
 20 21  1  0
 21 22  2  0
 22 23  1  0
 23 24  2  0
 24 25  1  0
 25 26  2  0
 26 27  1  0
  6 28  1  0
 28 29  2  0
 29  3  1  0
 17  7  1  0
 26 21  1  0
 14  9  1  0
  1 30  1  0
  1 31  1  0
  1 32  1  0
  4 33  1  0
  5 34  1  0
 10 35  1  0
 11 36  1  0
 12 37  1  0
 13 38  1  0
 18 39  1  0
 18 40  1  0
 19 41  1  0
 19 42  1  0
 22 43  1  0
 23 44  1  0
 24 45  1  0
 25 46  1  0
 27 47  1  0
 27 48  1  0
 27 49  1  0
 28 50  1  0
 29 51  1  0
M  END
$$$$
