
     RDKit          3D

 53 57  0  0  0  0  0  0  0  0999 V2000
    4.8841    0.7355    0.0229 C   0  0  0  0  0  0  0  0  0  0  0  0
    4.4025    0.2924    1.3745 C   0  0  0  0  0  0  0  0  0  0  0  0
    5.1038    0.7373    2.5099 C   0  0  0  0  0  0  0  0  0  0  0  0
    4.7166    0.3549    3.7962 C   0  0  0  0  0  0  0  0  0  0  0  0
    3.6178   -0.4791    3.9749 C   0  0  0  0  0  0  0  0  0  0  0  0
    2.9022   -0.9261    2.8662 C   0  0  0  0  0  0  0  0  0  0  0  0
    3.2819   -0.5370    1.5695 C   0  0  0  0  0  0  0  0  0  0  0  0
    2.2834   -1.1450    0.2200 S   0  0  0  0  0  6  0  0  0  0  0  0
    2.4191   -0.2984   -0.9470 O   0  0  0  0  0  0  0  0  0  0  0  0
    2.5519   -2.5659    0.1236 O   0  0  0  0  0  0  0  0  0  0  0  0
    0.7056   -1.0143    0.7730 N   0  0  0  0  0  0  0  0  0  0  0  0
    0.1193    0.2700    0.6389 C   0  0  0  0  0  0  0  0  0  0  0  0
    0.7060    1.2602    1.3325 N   0  0  0  0  0  0  0  0  0  0  0  0
    0.1119    2.4606    1.2412 C   0  0  0  0  0  0  0  0  0  0  0  0
    0.6677    3.5421    1.9118 C   0  0  0  0  0  0  0  0  0  0  0  0
    0.0872    4.8093    1.8516 C   0  0  0  0  0  0  0  0  0  0  0  0
   -1.0699    4.9985    1.1074 C   0  0  0  0  0  0  0  0  0  0  0  0
   -1.6377    3.9189    0.4283 C   0  0  0  0  0  0  0  0  0  0  0  0
   -1.0712    2.6519    0.4791 C   0  0  0  0  0  0  0  0  0  0  0  0
   -1.6543    1.6393   -0.1961 N   0  0  0  0  0  0  0  0  0  0  0  0
   -1.0533    0.4320   -0.1307 C   0  0  0  0  0  0  0  0  0  0  0  0
   -1.5854   -0.6880   -0.8280 N   0  0  0  0  0  0  0  0  0  0  0  0
   -0.9969   -0.7531   -2.1806 C   0  0  0  0  0  0  0  0  0  0  0  0
   -1.3438   -2.1101   -2.8026 C   0  0  0  0  0  0  0  0  0  0  0  0
   -2.8069   -2.4535   -2.6573 C   0  0  0  0  0  0  0  0  0  0  0  0
   -3.3569   -3.4907   -3.4228 C   0  0  0  0  0  0  0  0  0  0  0  0
   -4.6980   -3.8413   -3.2746 C   0  0  0  0  0  0  0  0  0  0  0  0
   -5.4985   -3.1646   -2.3576 C   0  0  0  0  0  0  0  0  0  0  0  0
   -4.9582   -2.1385   -1.5821 C   0  0  0  0  0  0  0  0  0  0  0  0
   -3.6078   -1.7806   -1.7127 C   0  0  0  0  0  0  0  0  0  0  0  0
   -3.0578   -0.6284   -0.8905 C   0  0  0  0  0  0  0  0  0  0  0  0
    4.1957    1.4706   -0.4044 H   0  0  0  0  0  0  0  0  0  0  0  0
    5.8697    1.2100    0.0867 H   0  0  0  0  0  0  0  0  0  0  0  0
    4.9956   -0.1204   -0.6500 H   0  0  0  0  0  0  0  0  0  0  0  0
    5.9699    1.3880    2.3988 H   0  0  0  0  0  0  0  0  0  0  0  0
    5.2766    0.7086    4.6583 H   0  0  0  0  0  0  0  0  0  0  0  0
    3.3154   -0.7784    4.9752 H   0  0  0  0  0  0  0  0  0  0  0  0
    2.0420   -1.5755    3.0181 H   0  0  0  0  0  0  0  0  0  0  0  0
    0.1166   -1.7597    0.3982 H   0  0  0  0  0  0  0  0  0  0  0  0
    1.5756    3.3923    2.4925 H   0  0  0  0  0  0  0  0  0  0  0  0
    0.5410    5.6421    2.3830 H   0  0  0  0  0  0  0  0  0  0  0  0
   -1.5307    5.9813    1.0503 H   0  0  0  0  0  0  0  0  0  0  0  0
   -2.5413    4.0695   -0.1571 H   0  0  0  0  0  0  0  0  0  0  0  0
    0.0934   -0.6562   -2.1572 H   0  0  0  0  0  0  0  0  0  0  0  0
   -1.3840    0.0618   -2.8089 H   0  0  0  0  0  0  0  0  0  0  0  0
   -1.0616   -2.1012   -3.8617 H   0  0  0  0  0  0  0  0  0  0  0  0
   -0.7622   -2.8960   -2.3038 H   0  0  0  0  0  0  0  0  0  0  0  0
   -2.7403   -4.0322   -4.1370 H   0  0  0  0  0  0  0  0  0  0  0  0
   -5.1179   -4.6446   -3.8745 H   0  0  0  0  0  0  0  0  0  0  0  0
   -6.5450   -3.4362   -2.2467 H   0  0  0  0  0  0  0  0  0  0  0  0
   -5.5974   -1.6176   -0.8728 H   0  0  0  0  0  0  0  0  0  0  0  0
   -3.4612   -0.6958    0.1285 H   0  0  0  0  0  0  0  0  0  0  0  0
   -3.4144    0.3015   -1.3542 H   0  0  0  0  0  0  0  0  0  0  0  0
  1  2  1  0
  2  3  2  0
  3  4  1  0
  4  5  2  0
  5  6  1  0
  6  7  2  0
  7  8  1  0
  8  9  2  0
  8 10  2  0
  8 11  1  0
 11 12  1  0
 12 13  2  0
 13 14  1  0
 14 15  2  0
 15 16  1  0
 16 17  2  0
 17 18  1  0
 18 19  2  0
 19 20  1  0
 20 21  2  0
 21 22  1  0
 22 23  1  0
 23 24  1  0
 24 25  1  0
 25 26  2  0
 26 27  1  0
 27 28  2  0
 28 29  1  0
 29 30  2  0
 30 31  1  0
  7  2  1  0
 21 12  1  0
 31 22  1  0
 19 14  1  0
 30 25  1  0
  1 32  1  0
  1 33  1  0
  1 34  1  0
  3 35  1  0
  4 36  1  0
  5 37  1  0
  6 38  1  0
 11 39  1  0
 15 40  1  0
 16 41  1  0
 17 42  1  0
 18 43  1  0
 23 44  1  0
 23 45  1  0
 24 46  1  0
 24 47  1  0
 26 48  1  0
 27 49  1  0
 28 50  1  0
 29 51  1  0
 31 52  1  0
 31 53  1  0
M  END
$$$$
