
     RDKit          3D

 40 42  0  0  0  0  0  0  0  0999 V2000
    2.2355   -3.5448    0.3092 C   0  0  0  0  0  0  0  0  0  0  0  0
    1.8176   -2.1794    0.2297 O   0  0  0  0  0  0  0  0  0  0  0  0
    0.4556   -2.0194    0.2012 C   0  0  0  0  0  0  0  0  0  0  0  0
   -0.3308   -2.9589    0.2353 O   0  0  0  0  0  0  0  0  0  0  0  0
    0.0323   -0.6146    0.1234 C   0  0  0  0  0  0  0  0  0  0  0  0
    0.8883    0.4833    0.0609 C   0  0  0  0  0  0  0  0  0  0  0  0
    2.2774    0.4547    0.0682 N   0  0  0  0  0  0  0  0  0  0  0  0
    3.1611    1.5268    0.0695 C   0  0  0  0  0  0  0  0  0  0  0  0
    2.8384    2.7094    0.1044 O   0  0  0  0  0  0  0  0  0  0  0  0
    4.5634    1.1176    0.0421 C   0  0  0  0  0  0  0  0  0  0  0  0
    5.2062   -0.1042   -0.0953 C   0  0  0  0  0  0  0  0  0  0  0  0
    6.5999    0.1506   -0.0447 C   0  0  0  0  0  0  0  0  0  0  0  0
    6.7330    1.5069    0.1175 C   0  0  0  0  0  0  0  0  0  0  0  0
    5.5152    2.0986    0.1697 O   0  0  0  0  0  0  0  0  0  0  0  0
    0.0484    1.9562   -0.0599 S   0  0  0  0  0  0  0  0  0  0  0  0
   -1.4625    1.1935   -0.0275 C   0  0  0  0  0  0  0  0  0  0  0  0
   -1.3496   -0.1763    0.0987 C   0  0  0  0  0  0  0  0  0  0  0  0
   -2.5852   -1.0266    0.1544 C   0  0  0  0  0  0  0  0  0  0  0  0
   -3.8175   -0.1883    0.5323 C   0  0  0  0  0  0  0  0  0  0  0  0
   -3.8899    1.0751   -0.2199 N   0  0  0  0  0  0  0  0  0  0  0  0
   -5.0812    1.6521   -0.6408 C   0  0  0  0  0  0  0  0  0  0  0  0
   -6.3048    0.7726   -0.6728 C   0  0  0  0  0  0  0  0  0  0  0  0
   -5.1594    2.8303   -0.9898 O   0  0  0  0  0  0  0  0  0  0  0  0
   -2.7360    1.9796   -0.1116 C   0  0  0  0  0  0  0  0  0  0  0  0
    1.8649   -4.0069    1.2295 H   0  0  0  0  0  0  0  0  0  0  0  0
    1.8983   -4.1007   -0.5712 H   0  0  0  0  0  0  0  0  0  0  0  0
    3.3287   -3.5614    0.3301 H   0  0  0  0  0  0  0  0  0  0  0  0
    2.6743   -0.4750    0.1154 H   0  0  0  0  0  0  0  0  0  0  0  0
    4.7421   -1.0707   -0.2263 H   0  0  0  0  0  0  0  0  0  0  0  0
    7.4077   -0.5638   -0.1214 H   0  0  0  0  0  0  0  0  0  0  0  0
    7.5794    2.1742    0.2067 H   0  0  0  0  0  0  0  0  0  0  0  0
   -2.4765   -1.8340    0.8853 H   0  0  0  0  0  0  0  0  0  0  0  0
   -2.7394   -1.4786   -0.8331 H   0  0  0  0  0  0  0  0  0  0  0  0
   -4.7142   -0.7952    0.3890 H   0  0  0  0  0  0  0  0  0  0  0  0
   -3.7833    0.0824    1.5956 H   0  0  0  0  0  0  0  0  0  0  0  0
   -6.1093   -0.1310   -1.2563 H   0  0  0  0  0  0  0  0  0  0  0  0
   -6.6128    0.5193    0.3447 H   0  0  0  0  0  0  0  0  0  0  0  0
   -7.1249    1.3127   -1.1561 H   0  0  0  0  0  0  0  0  0  0  0  0
   -2.7177    2.6528   -0.9764 H   0  0  0  0  0  0  0  0  0  0  0  0
   -2.8725    2.5809    0.7953 H   0  0  0  0  0  0  0  0  0  0  0  0
  1  2  1  0
  2  3  1  0
  3  4  2  0
  3  5  1  0
  5  6  2  0
  6  7  1  0
  7  8  1  0
  8  9  2  0
  8 10  1  0
 10 11  2  0
 11 12  1  0
 12 13  2  0
 13 14  1  0
  6 15  1  0
 15 16  1  0
 16 17  2  0
 17 18  1  0
 18 19  1  0
 19 20  1  0
 20 21  1  0
 21 22  1  0
 21 23  2  0
 20 24  1  0
 17  5  1  0
 14 10  1  0
 24 16  1  0
  1 25  1  0
  1 26  1  0
  1 27  1  0
  7 28  1  0
 11 29  1  0
 12 30  1  0
 13 31  1  0
 18 32  1  0
 18 33  1  0
 19 34  1  0
 19 35  1  0
 22 36  1  0
 22 37  1  0
 22 38  1  0
 24 39  1  0
 24 40  1  0
M  END
$$$$
