
     RDKit          3D

 56 60  0  0  0  0  0  0  0  0999 V2000
    2.4178   -0.5533   -4.2398 C   0  0  0  0  0  0  0  0  0  0  0  0
    2.3499   -0.2485   -2.7626 C   0  0  0  0  0  0  0  0  0  0  0  0
    1.1172    0.0510   -2.1210 C   0  0  0  0  0  0  0  0  0  0  0  0
   -0.0877    0.0989   -2.8451 C   0  0  0  0  0  0  0  0  0  0  0  0
   -1.2866    0.4042   -2.2210 C   0  0  0  0  0  0  0  0  0  0  0  0
   -1.3151    0.6636   -0.9023 N   0  0  0  0  0  4  0  0  0  0  0  0
   -2.6049    1.0032   -0.2494 C   0  0  0  0  0  0  0  0  0  0  0  0
   -3.2551   -0.2794    0.2945 C   0  0  0  0  0  0  0  0  0  0  0  0
   -4.6324   -0.0667    0.7650 N   0  0  0  0  0  0  0  0  0  0  0  0
   -4.6843    0.6931    2.0290 C   0  0  0  0  0  0  0  0  0  0  0  0
   -6.1260    0.9495    2.4714 C   0  0  0  0  0  0  0  0  0  0  0  0
   -6.9061   -0.3514    2.6060 C   0  0  0  0  0  0  0  0  0  0  0  0
   -6.7873   -1.1727    1.3292 C   0  0  0  0  0  0  0  0  0  0  0  0
   -5.3253   -1.3625    0.9243 C   0  0  0  0  0  0  0  0  0  0  0  0
   -0.1806    0.6274   -0.1703 C   0  0  0  0  0  0  0  0  0  0  0  0
    1.0707    0.3113   -0.7301 C   0  0  0  0  0  0  0  0  0  0  0  0
    2.2633    0.2554    0.0619 C   0  0  0  0  0  0  0  0  0  0  0  0
    2.2015    0.4454    1.5610 C   0  0  0  0  0  0  0  0  0  0  0  0
    3.5095    0.0467   -0.5951 C   0  0  0  0  0  0  0  0  0  0  0  0
    3.5098   -0.2179   -1.9640 C   0  0  0  0  0  0  0  0  0  0  0  0
    4.8229   -0.4339   -2.3288 N   0  0  0  0  0  0  0  0  0  0  0  0
    5.6759   -0.2670   -1.2709 C   0  0  0  0  0  0  0  0  0  0  0  0
    7.0733   -0.3679   -1.2254 C   0  0  0  0  0  0  0  0  0  0  0  0
    7.7054   -0.1248   -0.0044 C   0  0  0  0  0  0  0  0  0  0  0  0
    6.9535    0.2112    1.1114 C   0  0  0  0  0  0  0  0  0  0  0  0
    7.5457    0.4671    2.3146 O   0  0  0  0  0  0  0  0  0  0  0  0
    5.5616    0.3065    1.0530 C   0  0  0  0  0  0  0  0  0  0  0  0
    4.8915    0.0499   -0.1646 C   0  0  0  0  0  0  0  0  0  0  0  0
    3.4301   -0.8040   -4.5676 H   0  0  0  0  0  0  0  0  0  0  0  0
    1.7833   -1.4129   -4.4795 H   0  0  0  0  0  0  0  0  0  0  0  0
    2.0930    0.3163   -4.8204 H   0  0  0  0  0  0  0  0  0  0  0  0
   -0.1128   -0.0961   -3.9154 H   0  0  0  0  0  0  0  0  0  0  0  0
   -2.2239    0.4447   -2.7692 H   0  0  0  0  0  0  0  0  0  0  0  0
   -2.3941    1.7331    0.5394 H   0  0  0  0  0  0  0  0  0  0  0  0
   -3.2394    1.4913   -0.9983 H   0  0  0  0  0  0  0  0  0  0  0  0
   -3.2666   -1.0090   -0.5259 H   0  0  0  0  0  0  0  0  0  0  0  0
   -2.6300   -0.7176    1.0834 H   0  0  0  0  0  0  0  0  0  0  0  0
   -4.2010    1.6681    1.9042 H   0  0  0  0  0  0  0  0  0  0  0  0
   -4.1431    0.1611    2.8224 H   0  0  0  0  0  0  0  0  0  0  0  0
   -6.1295    1.4824    3.4290 H   0  0  0  0  0  0  0  0  0  0  0  0
   -6.6234    1.6009    1.7415 H   0  0  0  0  0  0  0  0  0  0  0  0
   -6.5133   -0.9290    3.4517 H   0  0  0  0  0  0  0  0  0  0  0  0
   -7.9590   -0.1393    2.8214 H   0  0  0  0  0  0  0  0  0  0  0  0
   -7.2612   -2.1503    1.4733 H   0  0  0  0  0  0  0  0  0  0  0  0
   -7.3306   -0.6705    0.5187 H   0  0  0  0  0  0  0  0  0  0  0  0
   -5.3097   -1.9091   -0.0266 H   0  0  0  0  0  0  0  0  0  0  0  0
   -4.8117   -1.9863    1.6677 H   0  0  0  0  0  0  0  0  0  0  0  0
   -0.3025    0.8699    0.8798 H   0  0  0  0  0  0  0  0  0  0  0  0
    1.2937    0.0104    1.9892 H   0  0  0  0  0  0  0  0  0  0  0  0
    3.0153   -0.0819    2.0620 H   0  0  0  0  0  0  0  0  0  0  0  0
    2.2490    1.5096    1.8090 H   0  0  0  0  0  0  0  0  0  0  0  0
    5.1328   -0.6598   -3.2623 H   0  0  0  0  0  0  0  0  0  0  0  0
    7.6539   -0.6216   -2.1073 H   0  0  0  0  0  0  0  0  0  0  0  0
    8.7879   -0.1965    0.0503 H   0  0  0  0  0  0  0  0  0  0  0  0
    8.5076    0.3658    2.2182 H   0  0  0  0  0  0  0  0  0  0  0  0
    5.0272    0.5918    1.9515 H   0  0  0  0  0  0  0  0  0  0  0  0
  1  2  1  0
  2  3  2  0
  3  4  1  0
  4  5  2  0
  5  6  1  0
  6  7  1  0
  7  8  1  0
  8  9  1  0
  9 10  1  0
 10 11  1  0
 11 12  1  0
 12 13  1  0
 13 14  1  0
  6 15  2  0
 15 16  1  0
 16 17  2  0
 17 18  1  0
 17 19  1  0
 19 20  2  0
 20 21  1  0
 21 22  1  0
 22 23  2  0
 23 24  1  0
 24 25  2  0
 25 26  1  0
 25 27  1  0
 27 28  2  0
 20  2  1  0
 28 22  1  0
 16  3  1  0
 28 19  1  0
 14  9  1  0
  1 29  1  0
  1 30  1  0
  1 31  1  0
  4 32  1  0
  5 33  1  0
  7 34  1  0
  7 35  1  0
  8 36  1  0
  8 37  1  0
 10 38  1  0
 10 39  1  0
 11 40  1  0
 11 41  1  0
 12 42  1  0
 12 43  1  0
 13 44  1  0
 13 45  1  0
 14 46  1  0
 14 47  1  0
 15 48  1  0
 18 49  1  0
 18 50  1  0
 18 51  1  0
 21 52  1  0
 23 53  1  0
 24 54  1  0
 26 55  1  0
 27 56  1  0
M  CHG  1   6   1
M  END
$$$$
