
     RDKit          3D

 38 40  0  0  0  0  0  0  0  0999 V2000
   -0.1731    4.1404    2.3593 C   0  0  0  0  0  0  0  0  0  0  0  0
    0.1059    2.7587    2.1391 O   0  0  0  0  0  0  0  0  0  0  0  0
   -0.2713    2.3191    0.9213 C   0  0  0  0  0  0  0  0  0  0  0  0
   -0.8145    2.9407    0.0267 O   0  0  0  0  0  0  0  0  0  0  0  0
    0.0794    0.8499    0.7955 C   0  0  0  0  0  0  0  0  0  0  0  0
    1.2878    0.5737    0.4167 N   0  0  0  0  0  0  0  0  0  0  0  0
    1.6541   -0.7583    0.2851 N   0  0  0  0  0  0  0  0  0  0  0  0
    3.0193   -0.9368   -0.1493 C   0  0  0  0  0  0  0  0  0  0  0  0
    3.6038   -2.1970   -0.3452 C   0  0  0  0  0  0  0  0  0  0  0  0
    4.9340   -2.3302   -0.7685 C   0  0  0  0  0  0  0  0  0  0  0  0
    5.7129   -1.2040   -1.0067 C   0  0  0  0  0  0  0  0  0  0  0  0
    5.1624    0.0574   -0.8221 C   0  0  0  0  0  0  0  0  0  0  0  0
    3.8341    0.1866   -0.3994 C   0  0  0  0  0  0  0  0  0  0  0  0
    0.7678   -1.8090    0.5579 C   0  0  0  0  0  0  0  0  0  0  0  0
    0.9785   -3.0176    0.4858 O   0  0  0  0  0  0  0  0  0  0  0  0
   -0.5945   -1.4197    0.9900 C   0  0  0  0  0  0  0  0  0  0  0  0
   -0.9663   -0.1447    1.1009 C   0  0  0  0  0  0  0  0  0  0  0  0
   -2.5364    0.3397    1.6239 S   0  0  0  0  0  0  0  0  0  0  0  0
   -3.4742   -0.1120    0.1749 C   0  0  0  0  0  0  0  0  0  0  0  0
   -4.2652   -1.2668    0.1920 C   0  0  0  0  0  0  0  0  0  0  0  0
   -5.0065   -1.6299   -0.9359 C   0  0  0  0  0  0  0  0  0  0  0  0
   -4.9638   -0.8338   -2.0787 C   0  0  0  0  0  0  0  0  0  0  0  0
   -5.8773   -1.2799   -3.4659 Cl  0  0  0  0  0  0  0  0  0  0  0  0
   -4.1894    0.3241   -2.1017 C   0  0  0  0  0  0  0  0  0  0  0  0
   -3.4479    0.6874   -0.9738 C   0  0  0  0  0  0  0  0  0  0  0  0
    0.3641    4.7610    1.6350 H   0  0  0  0  0  0  0  0  0  0  0  0
   -1.2504    4.3271    2.3051 H   0  0  0  0  0  0  0  0  0  0  0  0
    0.1736    4.4012    3.3630 H   0  0  0  0  0  0  0  0  0  0  0  0
    3.0581   -3.1193   -0.1801 H   0  0  0  0  0  0  0  0  0  0  0  0
    5.3552   -3.3225   -0.9109 H   0  0  0  0  0  0  0  0  0  0  0  0
    6.7432   -1.3102   -1.3348 H   0  0  0  0  0  0  0  0  0  0  0  0
    5.7603    0.9462   -1.0054 H   0  0  0  0  0  0  0  0  0  0  0  0
    3.4469    1.1945   -0.2698 H   0  0  0  0  0  0  0  0  0  0  0  0
   -1.2613   -2.2462    1.2059 H   0  0  0  0  0  0  0  0  0  0  0  0
   -4.3140   -1.8929    1.0801 H   0  0  0  0  0  0  0  0  0  0  0  0
   -5.6155   -2.5301   -0.9149 H   0  0  0  0  0  0  0  0  0  0  0  0
   -4.1603    0.9508   -2.9895 H   0  0  0  0  0  0  0  0  0  0  0  0
   -2.8595    1.6023   -1.0058 H   0  0  0  0  0  0  0  0  0  0  0  0
  1  2  1  0
  2  3  1  0
  3  4  2  0
  3  5  1  0
  5  6  2  0
  6  7  1  0
  7  8  1  0
  8  9  2  0
  9 10  1  0
 10 11  2  0
 11 12  1  0
 12 13  2  0
  7 14  1  0
 14 15  2  0
 14 16  1  0
 16 17  2  0
 17 18  1  0
 18 19  1  0
 19 20  2  0
 20 21  1  0
 21 22  2  0
 22 23  1  0
 22 24  1  0
 24 25  2  0
 17  5  1  0
 25 19  1  0
 13  8  1  0
  1 26  1  0
  1 27  1  0
  1 28  1  0
  9 29  1  0
 10 30  1  0
 11 31  1  0
 12 32  1  0
 13 33  1  0
 16 34  1  0
 20 35  1  0
 21 36  1  0
 24 37  1  0
 25 38  1  0
M  END
$$$$
