
     RDKit          3D

 57 60  0  0  0  0  0  0  0  0999 V2000
   -1.3079    3.3079   -3.0656 O   0  0  0  0  0  0  0  0  0  0  0  0
   -1.2775    2.1044   -2.8330 C   0  0  0  0  0  0  0  0  0  0  0  0
   -0.3850    1.1336   -3.5816 C   0  0  0  0  0  0  0  0  0  0  0  0
    0.9061    1.7661   -4.1005 C   0  0  0  0  0  0  0  0  0  0  0  0
    1.8012    2.4188   -3.0372 C   0  0  0  0  0  0  0  0  0  0  0  0
    2.0543    1.6003   -1.7702 C   0  0  0  0  0  0  0  0  0  0  0  0
    2.7537    0.2636   -2.0293 C   0  0  0  0  0  0  0  0  0  0  0  0
    2.8983   -0.4998   -0.7939 N   0  0  0  0  0  0  0  0  0  0  0  0
    4.0495   -0.3124   -0.0450 C   0  0  0  0  0  0  0  0  0  0  0  0
    4.9696    0.4387   -0.3650 O   0  0  0  0  0  0  0  0  0  0  0  0
    4.1456   -1.0164    1.1213 N   0  0  0  0  0  0  0  0  0  0  0  0
    3.1586   -1.8755    1.5937 C   0  0  0  0  0  0  0  0  0  0  0  0
    3.3489   -2.5652    2.7913 C   0  0  0  0  0  0  0  0  0  0  0  0
    2.3532   -3.4270    3.2570 C   0  0  0  0  0  0  0  0  0  0  0  0
    1.1731   -3.5952    2.5300 C   0  0  0  0  0  0  0  0  0  0  0  0
    0.9841   -2.8991    1.3350 C   0  0  0  0  0  0  0  0  0  0  0  0
    1.9835   -2.0393    0.8694 C   0  0  0  0  0  0  0  0  0  0  0  0
    1.8209   -1.2906   -0.3916 C   0  0  0  0  0  0  0  0  0  0  0  0
    0.7674   -1.3902   -1.0188 O   0  0  0  0  0  0  0  0  0  0  0  0
   -2.0819    1.4869   -1.8981 N   0  0  0  0  0  0  0  0  0  0  0  0
   -2.8510    2.2746   -0.9513 C   0  0  0  0  0  0  0  0  0  0  0  0
   -3.9978    1.4876   -0.3144 C   0  0  0  0  0  0  0  0  0  0  0  0
   -3.5488    0.2783    0.4501 C   0  0  0  0  0  0  0  0  0  0  0  0
   -3.7269   -1.0372    0.0665 C   0  0  0  0  0  0  0  0  0  0  0  0
   -3.1852   -1.8446    1.0285 N   0  0  0  0  0  0  0  0  0  0  0  0
   -2.6510   -1.0850    2.0419 C   0  0  0  0  0  0  0  0  0  0  0  0
   -2.0057   -1.4795    3.2200 C   0  0  0  0  0  0  0  0  0  0  0  0
   -1.5517   -0.4754    4.0789 C   0  0  0  0  0  0  0  0  0  0  0  0
   -1.7450    0.8691    3.7734 C   0  0  0  0  0  0  0  0  0  0  0  0
   -2.4006    1.2463    2.5954 C   0  0  0  0  0  0  0  0  0  0  0  0
   -2.8624    0.2531    1.7073 C   0  0  0  0  0  0  0  0  0  0  0  0
   -0.9643    0.7525   -4.4312 H   0  0  0  0  0  0  0  0  0  0  0  0
   -0.1520    0.2733   -2.9476 H   0  0  0  0  0  0  0  0  0  0  0  0
    0.6622    2.5256   -4.8541 H   0  0  0  0  0  0  0  0  0  0  0  0
    1.4810    0.9935   -4.6256 H   0  0  0  0  0  0  0  0  0  0  0  0
    1.3573    3.3761   -2.7384 H   0  0  0  0  0  0  0  0  0  0  0  0
    2.7631    2.6688   -3.5019 H   0  0  0  0  0  0  0  0  0  0  0  0
    1.1106    1.4377   -1.2368 H   0  0  0  0  0  0  0  0  0  0  0  0
    2.6740    2.2001   -1.0909 H   0  0  0  0  0  0  0  0  0  0  0  0
    3.7403    0.4417   -2.4728 H   0  0  0  0  0  0  0  0  0  0  0  0
    2.1862   -0.3399   -2.7454 H   0  0  0  0  0  0  0  0  0  0  0  0
    4.9986   -0.8701    1.6456 H   0  0  0  0  0  0  0  0  0  0  0  0
    4.2619   -2.4443    3.3683 H   0  0  0  0  0  0  0  0  0  0  0  0
    2.4975   -3.9688    4.1892 H   0  0  0  0  0  0  0  0  0  0  0  0
    0.4001   -4.2665    2.8959 H   0  0  0  0  0  0  0  0  0  0  0  0
    0.0625   -3.0232    0.7716 H   0  0  0  0  0  0  0  0  0  0  0  0
   -1.7959    0.5642   -1.5841 H   0  0  0  0  0  0  0  0  0  0  0  0
   -2.1488    2.6364   -0.1917 H   0  0  0  0  0  0  0  0  0  0  0  0
   -3.2548    3.1535   -1.4665 H   0  0  0  0  0  0  0  0  0  0  0  0
   -4.5534    2.1482    0.3624 H   0  0  0  0  0  0  0  0  0  0  0  0
   -4.7019    1.1793   -1.0979 H   0  0  0  0  0  0  0  0  0  0  0  0
   -4.1965   -1.4645   -0.8101 H   0  0  0  0  0  0  0  0  0  0  0  0
   -3.1798   -2.8544    1.0047 H   0  0  0  0  0  0  0  0  0  0  0  0
   -1.8590   -2.5259    3.4638 H   0  0  0  0  0  0  0  0  0  0  0  0
   -1.0432   -0.7487    5.0005 H   0  0  0  0  0  0  0  0  0  0  0  0
   -1.3866    1.6356    4.4561 H   0  0  0  0  0  0  0  0  0  0  0  0
   -2.5490    2.2985    2.3727 H   0  0  0  0  0  0  0  0  0  0  0  0
  1  2  2  0
  2  3  1  0
  3  4  1  0
  4  5  1  0
  5  6  1  0
  6  7  1  0
  7  8  1  0
  8  9  1  0
  9 10  2  0
  9 11  1  0
 11 12  1  0
 12 13  2  0
 13 14  1  0
 14 15  2  0
 15 16  1  0
 16 17  2  0
 17 18  1  0
 18 19  2  0
  2 20  1  0
 20 21  1  0
 21 22  1  0
 22 23  1  0
 23 24  2  0
 24 25  1  0
 25 26  1  0
 26 27  2  0
 27 28  1  0
 28 29  2  0
 29 30  1  0
 30 31  2  0
 18  8  1  0
 31 23  1  0
 17 12  1  0
 31 26  1  0
  3 32  1  0
  3 33  1  0
  4 34  1  0
  4 35  1  0
  5 36  1  0
  5 37  1  0
  6 38  1  0
  6 39  1  0
  7 40  1  0
  7 41  1  0
 11 42  1  0
 13 43  1  0
 14 44  1  0
 15 45  1  0
 16 46  1  0
 20 47  1  0
 21 48  1  0
 21 49  1  0
 22 50  1  0
 22 51  1  0
 24 52  1  0
 25 53  1  0
 27 54  1  0
 28 55  1  0
 29 56  1  0
 30 57  1  0
M  END
$$$$
