
     RDKit          3D

 38 40  0  0  0  0  0  0  0  0999 V2000
    1.6680    2.8050    3.8568 C   0  0  0  0  0  0  0  0  0  0  0  0
    1.8723    2.3341    2.4282 C   0  0  0  0  0  0  0  0  0  0  0  0
    1.5165    0.8720    2.2455 C   0  0  0  0  0  0  0  0  0  0  0  0
    1.1112    0.1492    3.1493 O   0  0  0  0  0  0  0  0  0  0  0  0
    1.7106    0.4369    0.9572 N   0  0  0  0  0  0  0  0  0  0  0  0
    1.2211   -0.8521    0.5198 C   0  0  0  0  0  0  0  0  0  0  0  0
    2.0968   -1.3480   -0.5927 C   0  0  0  0  0  0  0  0  0  0  0  0
    2.7012   -2.5667   -0.8368 C   0  0  0  0  0  0  0  0  0  0  0  0
    3.4064   -2.4307   -2.0565 C   0  0  0  0  0  0  0  0  0  0  0  0
    3.1932   -1.1410   -2.4807 C   0  0  0  0  0  0  0  0  0  0  0  0
    2.4039   -0.4745   -1.6011 O   0  0  0  0  0  0  0  0  0  0  0  0
   -0.2455   -0.8104    0.1193 C   0  0  0  0  0  0  0  0  0  0  0  0
   -1.0769   -1.8863    0.4581 C   0  0  0  0  0  0  0  0  0  0  0  0
   -2.4242   -1.8966    0.0815 C   0  0  0  0  0  0  0  0  0  0  0  0
   -3.3621   -3.2758    0.5500 Cl  0  0  0  0  0  0  0  0  0  0  0  0
   -2.9881   -0.8271   -0.6547 C   0  0  0  0  0  0  0  0  0  0  0  0
   -4.3343   -0.7540   -1.0769 C   0  0  0  0  0  0  0  0  0  0  0  0
   -4.7916    0.3429   -1.7988 C   0  0  0  0  0  0  0  0  0  0  0  0
   -3.8920    1.3483   -2.0859 C   0  0  0  0  0  0  0  0  0  0  0  0
   -2.5963    1.3257   -1.7056 N   0  0  0  0  0  0  0  0  0  0  0  0
   -2.1603    0.2567   -1.0034 C   0  0  0  0  0  0  0  0  0  0  0  0
   -0.8202    0.2388   -0.6116 C   0  0  0  0  0  0  0  0  0  0  0  0
   -0.0484    1.3271   -0.9711 O   0  0  0  0  0  0  0  0  0  0  0  0
    2.2905    2.2325    4.5523 H   0  0  0  0  0  0  0  0  0  0  0  0
    1.9332    3.8625    3.9513 H   0  0  0  0  0  0  0  0  0  0  0  0
    0.6240    2.6850    4.1647 H   0  0  0  0  0  0  0  0  0  0  0  0
    1.2469    2.9307    1.7547 H   0  0  0  0  0  0  0  0  0  0  0  0
    2.9204    2.4755    2.1418 H   0  0  0  0  0  0  0  0  0  0  0  0
    1.7337    1.1304    0.2171 H   0  0  0  0  0  0  0  0  0  0  0  0
    1.3307   -1.5419    1.3673 H   0  0  0  0  0  0  0  0  0  0  0  0
    2.6391   -3.4439   -0.2077 H   0  0  0  0  0  0  0  0  0  0  0  0
    3.9988   -3.1787   -2.5642 H   0  0  0  0  0  0  0  0  0  0  0  0
    3.5165   -0.5717   -3.3410 H   0  0  0  0  0  0  0  0  0  0  0  0
   -0.6737   -2.7244    1.0246 H   0  0  0  0  0  0  0  0  0  0  0  0
   -5.0364   -1.5517   -0.8451 H   0  0  0  0  0  0  0  0  0  0  0  0
   -5.8233    0.4077   -2.1262 H   0  0  0  0  0  0  0  0  0  0  0  0
   -4.1967    2.2276   -2.6469 H   0  0  0  0  0  0  0  0  0  0  0  0
   -0.6648    1.8866   -1.4949 H   0  0  0  0  0  0  0  0  0  0  0  0
  1  2  1  0
  2  3  1  0
  3  4  2  0
  3  5  1  0
  5  6  1  0
  6  7  1  0
  7  8  2  0
  8  9  1  0
  9 10  2  0
 10 11  1  0
  6 12  1  0
 12 13  2  0
 13 14  1  0
 14 15  1  0
 14 16  2  0
 16 17  1  0
 17 18  2  0
 18 19  1  0
 19 20  2  0
 20 21  1  0
 21 22  2  0
 22 23  1  0
 11  7  1  0
 22 12  1  0
 21 16  1  0
  1 24  1  0
  1 25  1  0
  1 26  1  0
  2 27  1  0
  2 28  1  0
  5 29  1  0
  6 30  1  0
  8 31  1  0
  9 32  1  0
 10 33  1  0
 13 34  1  0
 17 35  1  0
 18 36  1  0
 19 37  1  0
 23 38  1  0
M  END
$$$$
