
     RDKit          3D

 62 65  0  0  0  0  0  0  0  0999 V2000
    7.6625    0.7267   -4.0461 C   0  0  0  0  0  0  0  0  0  0  0  0
    7.2552    0.7289   -2.6026 C   0  0  0  0  0  0  0  0  0  0  0  0
    6.9207   -0.4683   -1.9610 C   0  0  0  0  0  0  0  0  0  0  0  0
    6.5742   -0.4738   -0.6083 C   0  0  0  0  0  0  0  0  0  0  0  0
    6.5716    0.7160    0.1318 C   0  0  0  0  0  0  0  0  0  0  0  0
    6.1741    0.7048    1.5846 C   0  0  0  0  0  0  0  0  0  0  0  0
    4.7350    0.7396    1.7209 N   0  0  0  0  0  0  0  0  0  0  0  0
    4.0012   -0.4050    1.9444 C   0  0  0  0  0  0  0  0  0  0  0  0
    4.5011   -1.5031    2.1603 O   0  0  0  0  0  0  0  0  0  0  0  0
    2.5084   -0.1572    1.9164 C   0  0  0  0  0  0  0  0  0  0  0  0
    1.7205   -1.4485    2.1180 C   0  0  0  0  0  0  0  0  0  0  0  0
    0.2446   -1.2048    2.1408 C   0  0  0  0  0  0  0  0  0  0  0  0
   -0.5783   -1.0486    3.2824 C   0  0  0  0  0  0  0  0  0  0  0  0
   -0.1769   -1.0941    4.7118 C   0  0  0  0  0  0  0  0  0  0  0  0
   -1.8525   -0.8324    2.9553 N   0  0  0  0  0  0  0  0  0  0  0  0
   -1.8876   -0.8536    1.5928 N   0  0  0  0  0  0  0  0  0  0  0  0
   -3.1227   -0.6452    0.9051 C   0  0  0  0  0  0  0  0  0  0  0  0
   -4.2913   -0.4497    1.6256 C   0  0  0  0  0  0  0  0  0  0  0  0
   -5.4847   -0.2378    0.9323 C   0  0  0  0  0  0  0  0  0  0  0  0
   -5.4954   -0.2138   -0.4585 C   0  0  0  0  0  0  0  0  0  0  0  0
   -6.7086   -0.0102   -1.1506 N   0  0  0  0  0  0  0  0  0  0  0  0
   -6.5713   -0.2169   -2.6115 C   0  0  0  0  0  0  0  0  0  0  0  0
   -7.9397   -0.0443   -3.2887 C   0  0  0  0  0  0  0  0  0  0  0  0
   -8.5009    1.2499   -3.0114 O   0  0  0  0  0  0  0  0  0  0  0  0
   -8.6701    1.4217   -1.5959 C   0  0  0  0  0  0  0  0  0  0  0  0
   -7.3337    1.2962   -0.8445 C   0  0  0  0  0  0  0  0  0  0  0  0
   -4.3363   -0.4307   -1.1175 N   0  0  0  0  0  0  0  0  0  0  0  0
   -3.1465   -0.6380   -0.4421 N   0  0  0  0  0  0  0  0  0  0  0  0
   -0.6199   -1.0778    1.0634 C   0  0  0  0  0  0  0  0  0  0  0  0
   -0.3323   -1.1561   -0.3952 C   0  0  0  0  0  0  0  0  0  0  0  0
    6.9113    1.9134   -0.5109 C   0  0  0  0  0  0  0  0  0  0  0  0
    7.2584    1.9176   -1.8644 C   0  0  0  0  0  0  0  0  0  0  0  0
    7.1136   -0.0392   -4.6043 H   0  0  0  0  0  0  0  0  0  0  0  0
    8.7353    0.5278   -4.1314 H   0  0  0  0  0  0  0  0  0  0  0  0
    7.4437    1.6909   -4.5168 H   0  0  0  0  0  0  0  0  0  0  0  0
    6.9256   -1.4071   -2.5106 H   0  0  0  0  0  0  0  0  0  0  0  0
    6.3051   -1.4143   -0.1292 H   0  0  0  0  0  0  0  0  0  0  0  0
    6.5692    1.5904    2.0947 H   0  0  0  0  0  0  0  0  0  0  0  0
    6.5936   -0.1733    2.0885 H   0  0  0  0  0  0  0  0  0  0  0  0
    4.2590    1.5560    1.3621 H   0  0  0  0  0  0  0  0  0  0  0  0
    2.2495    0.2988    0.9533 H   0  0  0  0  0  0  0  0  0  0  0  0
    2.2656    0.5636    2.7066 H   0  0  0  0  0  0  0  0  0  0  0  0
    2.0270   -1.9294    3.0554 H   0  0  0  0  0  0  0  0  0  0  0  0
    1.9630   -2.1656    1.3238 H   0  0  0  0  0  0  0  0  0  0  0  0
    0.2636   -2.0667    4.9533 H   0  0  0  0  0  0  0  0  0  0  0  0
   -1.0331   -0.9370    5.3765 H   0  0  0  0  0  0  0  0  0  0  0  0
    0.5629   -0.3156    4.9242 H   0  0  0  0  0  0  0  0  0  0  0  0
   -4.2985   -0.4670    2.7114 H   0  0  0  0  0  0  0  0  0  0  0  0
   -6.4059   -0.1181    1.4926 H   0  0  0  0  0  0  0  0  0  0  0  0
   -6.1976   -1.2253   -2.8270 H   0  0  0  0  0  0  0  0  0  0  0  0
   -5.8746    0.5206   -3.0319 H   0  0  0  0  0  0  0  0  0  0  0  0
   -8.6446   -0.8165   -2.9579 H   0  0  0  0  0  0  0  0  0  0  0  0
   -7.8312   -0.1320   -4.3742 H   0  0  0  0  0  0  0  0  0  0  0  0
   -9.3958    0.6843   -1.2324 H   0  0  0  0  0  0  0  0  0  0  0  0
   -9.0949    2.4169   -1.4318 H   0  0  0  0  0  0  0  0  0  0  0  0
   -7.5321    1.4098    0.2267 H   0  0  0  0  0  0  0  0  0  0  0  0
   -6.6632    2.1054   -1.1619 H   0  0  0  0  0  0  0  0  0  0  0  0
    0.7282   -1.3540   -0.5797 H   0  0  0  0  0  0  0  0  0  0  0  0
   -0.8966   -1.9687   -0.8629 H   0  0  0  0  0  0  0  0  0  0  0  0
   -0.5729   -0.2111   -0.8919 H   0  0  0  0  0  0  0  0  0  0  0  0
    6.9149    2.8520    0.0382 H   0  0  0  0  0  0  0  0  0  0  0  0
    7.5313    2.8569   -2.3400 H   0  0  0  0  0  0  0  0  0  0  0  0
  1  2  1  0
  2  3  2  0
  3  4  1  0
  4  5  2  0
  5  6  1  0
  6  7  1  0
  7  8  1  0
  8  9  2  0
  8 10  1  0
 10 11  1  0
 11 12  1  0
 12 13  1  0
 13 14  1  0
 13 15  2  0
 15 16  1  0
 16 17  1  0
 17 18  2  0
 18 19  1  0
 19 20  2  0
 20 21  1  0
 21 22  1  0
 22 23  1  0
 23 24  1  0
 24 25  1  0
 25 26  1  0
 20 27  1  0
 27 28  2  0
 16 29  1  0
 29 30  1  0
  5 31  1  0
 31 32  2  0
 32  2  1  0
 29 12  2  0
 28 17  1  0
 26 21  1  0
  1 33  1  0
  1 34  1  0
  1 35  1  0
  3 36  1  0
  4 37  1  0
  6 38  1  0
  6 39  1  0
  7 40  1  0
 10 41  1  0
 10 42  1  0
 11 43  1  0
 11 44  1  0
 14 45  1  0
 14 46  1  0
 14 47  1  0
 18 48  1  0
 19 49  1  0
 22 50  1  0
 22 51  1  0
 23 52  1  0
 23 53  1  0
 25 54  1  0
 25 55  1  0
 26 56  1  0
 26 57  1  0
 30 58  1  0
 30 59  1  0
 30 60  1  0
 31 61  1  0
 32 62  1  0
M  END
$$$$
