
     RDKit          3D

 65 68  0  0  0  0  0  0  0  0999 V2000
    7.6466    0.2201   -2.6096 C   0  0  0  0  0  0  0  0  0  0  0  0
    6.5519    0.2939   -1.5852 C   0  0  0  0  0  0  0  0  0  0  0  0
    5.6269   -0.7517   -1.4634 C   0  0  0  0  0  0  0  0  0  0  0  0
    4.6250   -0.7022   -0.4933 C   0  0  0  0  0  0  0  0  0  0  0  0
    4.5466    0.4039    0.3555 C   0  0  0  0  0  0  0  0  0  0  0  0
    3.2823    0.4705    1.5972 S   0  0  0  0  0  6  0  0  0  0  0  0
    2.8492   -0.8889    1.8673 O   0  0  0  0  0  0  0  0  0  0  0  0
    3.7842    1.2946    2.6829 O   0  0  0  0  0  0  0  0  0  0  0  0
    1.9406    1.3411    0.8473 C   0  0  0  0  0  0  0  0  0  0  0  0
    1.3964    0.7080   -0.3201 N   0  0  0  0  0  0  0  0  0  0  0  0
    1.7806    1.1276   -1.5370 N   0  0  0  0  0  0  0  0  0  0  0  0
    1.1240    0.3638   -2.3938 N   0  0  0  0  0  0  0  0  0  0  0  0
    0.3116   -0.5203   -1.7358 N   0  0  0  0  0  0  0  0  0  0  0  0
    0.4649   -0.2896   -0.4438 C   0  0  0  0  0  0  0  0  0  0  0  0
   -0.2252   -0.9988    0.6946 C   0  0  0  0  0  0  0  0  0  0  0  0
    0.0540   -2.5238    0.6033 C   0  0  0  0  0  0  0  0  0  0  0  0
   -0.1746   -3.3199    1.9080 C   0  0  0  0  0  0  0  0  0  0  0  0
    0.3836   -4.7379    1.7410 C   0  0  0  0  0  0  0  0  0  0  0  0
   -1.6415   -3.4037    2.3283 C   0  0  0  0  0  0  0  0  0  0  0  0
   -1.6592   -0.6762    0.7991 N   0  0  0  0  0  0  0  0  0  0  0  0
   -2.4827   -0.9487   -0.3971 C   0  0  0  0  0  0  0  0  0  0  0  0
   -2.9974    0.2996   -1.1577 C   0  0  0  0  0  0  0  0  0  0  0  0
   -3.7122    1.2227   -0.2569 N   0  0  0  0  0  0  0  0  0  0  0  0
   -4.6933    2.0764   -0.7337 C   0  0  0  0  0  0  0  0  0  0  0  0
   -4.7474    2.4586   -2.0848 C   0  0  0  0  0  0  0  0  0  0  0  0
   -5.7329    3.3250   -2.5750 C   0  0  0  0  0  0  0  0  0  0  0  0
   -6.6998    3.8360   -1.7186 C   0  0  0  0  0  0  0  0  0  0  0  0
   -6.6761    3.4795   -0.3763 C   0  0  0  0  0  0  0  0  0  0  0  0
   -5.6848    2.6137    0.1041 C   0  0  0  0  0  0  0  0  0  0  0  0
   -3.3949    1.1252    1.1736 C   0  0  0  0  0  0  0  0  0  0  0  0
   -1.9349    0.6540    1.3677 C   0  0  0  0  0  0  0  0  0  0  0  0
    5.4816    1.4380    0.2699 C   0  0  0  0  0  0  0  0  0  0  0  0
    6.4821    1.3791   -0.7013 C   0  0  0  0  0  0  0  0  0  0  0  0
    7.3166   -0.3339   -3.4947 H   0  0  0  0  0  0  0  0  0  0  0  0
    7.9366    1.2219   -2.9435 H   0  0  0  0  0  0  0  0  0  0  0  0
    8.5228   -0.2796   -2.1851 H   0  0  0  0  0  0  0  0  0  0  0  0
    5.6825   -1.6130   -2.1269 H   0  0  0  0  0  0  0  0  0  0  0  0
    3.9190   -1.5263   -0.4166 H   0  0  0  0  0  0  0  0  0  0  0  0
    1.1485    1.4438    1.5939 H   0  0  0  0  0  0  0  0  0  0  0  0
    2.2858    2.3462    0.5847 H   0  0  0  0  0  0  0  0  0  0  0  0
    0.2380   -0.6775    1.6349 H   0  0  0  0  0  0  0  0  0  0  0  0
    1.1085   -2.6560    0.3198 H   0  0  0  0  0  0  0  0  0  0  0  0
   -0.5190   -2.9820   -0.2125 H   0  0  0  0  0  0  0  0  0  0  0  0
    0.3879   -2.8377    2.7175 H   0  0  0  0  0  0  0  0  0  0  0  0
   -0.1392   -5.2789    0.9448 H   0  0  0  0  0  0  0  0  0  0  0  0
    0.2769   -5.3114    2.6679 H   0  0  0  0  0  0  0  0  0  0  0  0
    1.4494   -4.7110    1.4907 H   0  0  0  0  0  0  0  0  0  0  0  0
   -1.7681   -4.1018    3.1633 H   0  0  0  0  0  0  0  0  0  0  0  0
   -2.2738   -3.7486    1.5035 H   0  0  0  0  0  0  0  0  0  0  0  0
   -2.0151   -2.4357    2.6723 H   0  0  0  0  0  0  0  0  0  0  0  0
   -1.9902   -1.6217   -1.1062 H   0  0  0  0  0  0  0  0  0  0  0  0
   -3.3619   -1.5045   -0.0440 H   0  0  0  0  0  0  0  0  0  0  0  0
   -3.6621   -0.0576   -1.9537 H   0  0  0  0  0  0  0  0  0  0  0  0
   -2.1597    0.8294   -1.6251 H   0  0  0  0  0  0  0  0  0  0  0  0
   -3.9991    2.1028   -2.7880 H   0  0  0  0  0  0  0  0  0  0  0  0
   -5.7359    3.5992   -3.6264 H   0  0  0  0  0  0  0  0  0  0  0  0
   -7.4667    4.5067   -2.0951 H   0  0  0  0  0  0  0  0  0  0  0  0
   -7.4303    3.8670    0.3033 H   0  0  0  0  0  0  0  0  0  0  0  0
   -5.7227    2.3462    1.1560 H   0  0  0  0  0  0  0  0  0  0  0  0
   -3.4880    2.1027    1.6621 H   0  0  0  0  0  0  0  0  0  0  0  0
   -4.0874    0.4302    1.6639 H   0  0  0  0  0  0  0  0  0  0  0  0
   -1.7100    0.6339    2.4404 H   0  0  0  0  0  0  0  0  0  0  0  0
   -1.2822    1.4095    0.9125 H   0  0  0  0  0  0  0  0  0  0  0  0
    5.4511    2.2844    0.9525 H   0  0  0  0  0  0  0  0  0  0  0  0
    7.2123    2.1839   -0.7644 H   0  0  0  0  0  0  0  0  0  0  0  0
  1  2  1  0
  2  3  2  0
  3  4  1  0
  4  5  2  0
  5  6  1  0
  6  7  2  0
  6  8  2  0
  6  9  1  0
  9 10  1  0
 10 11  1  0
 11 12  2  0
 12 13  1  0
 13 14  2  0
 14 15  1  0
 15 16  1  0
 16 17  1  0
 17 18  1  0
 17 19  1  0
 15 20  1  0
 20 21  1  0
 21 22  1  0
 22 23  1  0
 23 24  1  0
 24 25  2  0
 25 26  1  0
 26 27  2  0
 27 28  1  0
 28 29  2  0
 23 30  1  0
 30 31  1  0
  5 32  1  0
 32 33  2  0
 33  2  1  0
 14 10  1  0
 31 20  1  0
 29 24  1  0
  1 34  1  0
  1 35  1  0
  1 36  1  0
  3 37  1  0
  4 38  1  0
  9 39  1  0
  9 40  1  0
 15 41  1  0
 16 42  1  0
 16 43  1  0
 17 44  1  0
 18 45  1  0
 18 46  1  0
 18 47  1  0
 19 48  1  0
 19 49  1  0
 19 50  1  0
 21 51  1  0
 21 52  1  0
 22 53  1  0
 22 54  1  0
 25 55  1  0
 26 56  1  0
 27 57  1  0
 28 58  1  0
 29 59  1  0
 30 60  1  0
 30 61  1  0
 31 62  1  0
 31 63  1  0
 32 64  1  0
 33 65  1  0
M  END
$$$$
