
     RDKit          3D

 45 47  0  0  0  0  0  0  0  0999 V2000
    2.1614    0.7623   -2.2050 O   0  0  0  0  0  0  0  0  0  0  0  0
    1.6583    0.4190   -1.1478 C   0  0  0  0  0  0  0  0  0  0  0  0
    2.2142   -0.4134   -0.2091 N   0  0  0  0  0  0  0  0  0  0  0  0
    3.6005   -0.7947   -0.3195 C   0  0  0  0  0  0  0  0  0  0  0  0
    3.8466   -1.9321    0.5963 C   0  0  0  0  0  0  0  0  0  0  0  0
    4.0574   -3.2815    0.4002 C   0  0  0  0  0  0  0  0  0  0  0  0
    4.2200   -3.8515    1.6860 C   0  0  0  0  0  0  0  0  0  0  0  0
    4.0957   -2.8169    2.5828 C   0  0  0  0  0  0  0  0  0  0  0  0
    3.8679   -1.6476    1.9319 O   0  0  0  0  0  0  0  0  0  0  0  0
    0.2656    0.9268   -0.7786 C   0  0  0  0  0  0  0  0  0  0  0  0
   -0.8361    0.1307   -1.3902 C   0  0  0  0  0  0  0  0  0  0  0  0
   -2.1143    0.3177   -1.0271 C   0  0  0  0  0  0  0  0  0  0  0  0
   -3.2695   -0.4496   -1.6026 C   0  0  0  0  0  0  0  0  0  0  0  0
   -3.9349   -1.3315   -0.5743 C   0  0  0  0  0  0  0  0  0  0  0  0
   -3.4806   -2.6409   -0.3599 C   0  0  0  0  0  0  0  0  0  0  0  0
   -4.0818   -3.4497    0.6060 C   0  0  0  0  0  0  0  0  0  0  0  0
   -5.1367   -2.9567    1.3712 C   0  0  0  0  0  0  0  0  0  0  0  0
   -5.5913   -1.6543    1.1725 C   0  0  0  0  0  0  0  0  0  0  0  0
   -4.9924   -0.8438    0.2065 C   0  0  0  0  0  0  0  0  0  0  0  0
    0.0575    1.9621   -0.0226 N   0  0  0  0  0  0  0  0  0  0  0  0
    1.1624    2.6074    0.4687 C   0  0  0  0  0  0  0  0  0  0  0  0
    1.9628    2.0839    1.2362 O   0  0  0  0  0  0  0  0  0  0  0  0
    1.2595    3.9778    0.0084 C   0  0  0  0  0  0  0  0  0  0  0  0
    2.1916    4.9588    0.2996 C   0  0  0  0  0  0  0  0  0  0  0  0
    1.8170    6.1121   -0.4321 C   0  0  0  0  0  0  0  0  0  0  0  0
    0.6812    5.7704   -1.1284 C   0  0  0  0  0  0  0  0  0  0  0  0
   -0.2818    6.9243   -2.2940 Br  0  0  0  0  0  0  0  0  0  0  0  0
    0.3350    4.4825   -0.8701 O   0  0  0  0  0  0  0  0  0  0  0  0
    1.8487   -0.3364    0.7362 H   0  0  0  0  0  0  0  0  0  0  0  0
    3.8261   -1.0635   -1.3568 H   0  0  0  0  0  0  0  0  0  0  0  0
    4.2169    0.0690   -0.0478 H   0  0  0  0  0  0  0  0  0  0  0  0
    4.0865   -3.7892   -0.5539 H   0  0  0  0  0  0  0  0  0  0  0  0
    4.4031   -4.8882    1.9302 H   0  0  0  0  0  0  0  0  0  0  0  0
    4.1416   -2.7488    3.6610 H   0  0  0  0  0  0  0  0  0  0  0  0
   -0.5526   -0.6088   -2.1315 H   0  0  0  0  0  0  0  0  0  0  0  0
   -2.3641    1.0676   -0.2781 H   0  0  0  0  0  0  0  0  0  0  0  0
   -4.0010    0.2595   -2.0106 H   0  0  0  0  0  0  0  0  0  0  0  0
   -2.9514   -1.0644   -2.4544 H   0  0  0  0  0  0  0  0  0  0  0  0
   -2.6532   -3.0374   -0.9436 H   0  0  0  0  0  0  0  0  0  0  0  0
   -3.7239   -4.4636    0.7640 H   0  0  0  0  0  0  0  0  0  0  0  0
   -5.6021   -3.5857    2.1253 H   0  0  0  0  0  0  0  0  0  0  0  0
   -6.4102   -1.2677    1.7733 H   0  0  0  0  0  0  0  0  0  0  0  0
   -5.3537    0.1728    0.0691 H   0  0  0  0  0  0  0  0  0  0  0  0
    3.0386    4.8420    0.9628 H   0  0  0  0  0  0  0  0  0  0  0  0
    2.3154    7.0712   -0.4500 H   0  0  0  0  0  0  0  0  0  0  0  0
  1  2  2  0
  2  3  1  0
  3  4  1  0
  4  5  1  0
  5  6  2  0
  6  7  1  0
  7  8  2  0
  8  9  1  0
  2 10  1  0
 10 11  1  0
 11 12  2  3
 12 13  1  0
 13 14  1  0
 14 15  2  0
 15 16  1  0
 16 17  2  0
 17 18  1  0
 18 19  2  0
 10 20  2  3
 20 21  1  0
 21 22  2  0
 21 23  1  0
 23 24  2  0
 24 25  1  0
 25 26  2  0
 26 27  1  0
 26 28  1  0
  9  5  1  0
 19 14  1  0
 28 23  1  0
  3 29  1  0
  4 30  1  0
  4 31  1  0
  6 32  1  0
  7 33  1  0
  8 34  1  0
 11 35  1  0
 12 36  1  0
 13 37  1  0
 13 38  1  0
 15 39  1  0
 16 40  1  0
 17 41  1  0
 18 42  1  0
 19 43  1  0
 24 44  1  0
 25 45  1  0
M  END
$$$$
