
     RDKit          3D

 93 99  0  0  0  0  0  0  0  0999 V2000
   -4.9005    1.3241   -2.3963 C   0  0  0  0  0  0  0  0  0  0  0  0
   -4.5530    0.7552   -1.0246 C   0  0  0  0  0  0  0  0  0  0  0  0
   -3.0713    0.4541   -0.8383 C   0  0  0  0  0  0  0  0  0  0  0  0
   -2.2392    1.4024   -0.3562 C   0  0  0  0  0  0  0  0  0  0  0  0
   -2.7124    2.6865   -0.0489 O   0  0  0  0  0  0  0  0  0  0  0  0
   -2.4316    3.6040   -1.0373 C   0  0  0  0  0  0  0  0  0  0  0  0
   -1.8556    3.3341   -2.0897 O   0  0  0  0  0  0  0  0  0  0  0  0
   -2.8990    4.8774   -0.7336 N   0  0  0  0  0  0  0  0  0  0  0  0
   -3.4902    5.2096    0.5595 C   0  0  0  0  0  0  0  0  0  0  0  0
   -4.9953    4.9848    0.5600 C   0  0  0  0  0  0  0  0  0  0  0  0
   -2.7085    5.9516   -1.6990 C   0  0  0  0  0  0  0  0  0  0  0  0
   -1.3743    6.6579   -1.5088 C   0  0  0  0  0  0  0  0  0  0  0  0
   -0.9137    1.1359   -0.0854 N   0  0  0  0  0  0  0  0  0  0  0  0
   -0.0630    1.9709    0.5941 C   0  0  0  0  0  0  0  0  0  0  0  0
   -0.2463    3.1120    0.9815 O   0  0  0  0  0  0  0  0  0  0  0  0
    1.0695    1.2885    0.8508 O   0  0  0  0  0  0  0  0  0  0  0  0
    0.9140    0.0256    0.3967 C   0  0  0  0  0  0  0  0  0  0  0  0
    1.6990   -0.9260    0.7586 N   0  0  0  0  0  0  0  0  0  0  0  0
    2.8059   -0.5927    1.6760 C   0  0  0  0  0  0  0  0  0  0  0  0
    2.3470   -0.7190    3.1320 C   0  0  0  0  0  0  0  0  0  0  0  0
    3.4817   -0.6045    4.0996 C   0  0  0  0  0  0  0  0  0  0  0  0
    4.0446   -1.6402    4.8203 C   0  0  0  0  0  0  0  0  0  0  0  0
    5.0596   -1.1321    5.5844 N   0  0  0  0  0  0  0  0  0  0  0  0
    5.1800    0.2226    5.3782 C   0  0  0  0  0  0  0  0  0  0  0  0
    6.0767    1.1430    5.9366 C   0  0  0  0  0  0  0  0  0  0  0  0
    5.9654    2.4783    5.5377 C   0  0  0  0  0  0  0  0  0  0  0  0
    4.9938    2.8740    4.6206 C   0  0  0  0  0  0  0  0  0  0  0  0
    4.1028    1.9404    4.0742 C   0  0  0  0  0  0  0  0  0  0  0  0
    4.1973    0.5853    4.4553 C   0  0  0  0  0  0  0  0  0  0  0  0
   -0.2506   -0.0948   -0.5781 C   0  0  0  0  0  0  0  0  0  0  0  0
    0.2520    0.1834   -2.0289 C   0  0  0  0  0  0  0  0  0  0  0  0
    1.0500   -0.8858   -2.7362 C   0  0  0  0  0  0  0  0  0  0  0  0
    2.3928   -1.1230   -2.4136 C   0  0  0  0  0  0  0  0  0  0  0  0
    3.1192   -2.1164   -3.0731 C   0  0  0  0  0  0  0  0  0  0  0  0
    2.5165   -2.8715   -4.0761 C   0  0  0  0  0  0  0  0  0  0  0  0
    1.1908   -2.6293   -4.4268 C   0  0  0  0  0  0  0  0  0  0  0  0
    0.4661   -1.6355   -3.7670 C   0  0  0  0  0  0  0  0  0  0  0  0
   -1.2320   -1.2896   -0.3867 C   0  0  0  0  0  0  0  0  0  0  0  0
   -2.5672   -0.9074   -1.1129 C   0  0  0  0  0  0  0  0  0  0  0  0
   -3.2067   -1.7275   -1.9747 C   0  0  0  0  0  0  0  0  0  0  0  0
   -2.7652   -3.0976   -2.3832 C   0  0  0  0  0  0  0  0  0  0  0  0
   -1.5339   -3.5296   -1.6830 C   0  0  0  0  0  0  0  0  0  0  0  0
   -0.7913   -2.7095   -0.7580 C   0  0  0  0  0  0  0  0  0  0  0  0
    0.1936   -3.5446   -0.2448 C   0  0  0  0  0  0  0  0  0  0  0  0
    1.1106   -3.3942    0.7004 O   0  0  0  0  0  0  0  0  0  0  0  0
    0.1255   -4.7563   -0.8919 N   0  0  0  0  0  0  0  0  0  0  0  0
    1.0278   -5.8739   -0.6647 C   0  0  0  0  0  0  0  0  0  0  0  0
    0.5181   -6.8140    0.4161 C   0  0  0  0  0  0  0  0  0  0  0  0
   -0.9262   -4.7641   -1.7663 C   0  0  0  0  0  0  0  0  0  0  0  0
   -1.2119   -5.8474   -2.4816 O   0  0  0  0  0  0  0  0  0  0  0  0
   -4.6025    0.6566   -3.2093 H   0  0  0  0  0  0  0  0  0  0  0  0
   -4.4152    2.2878   -2.5664 H   0  0  0  0  0  0  0  0  0  0  0  0
   -5.9823    1.4828   -2.4686 H   0  0  0  0  0  0  0  0  0  0  0  0
   -4.8892    1.4701   -0.2613 H   0  0  0  0  0  0  0  0  0  0  0  0
   -5.1520   -0.1435   -0.8343 H   0  0  0  0  0  0  0  0  0  0  0  0
   -3.0284    4.5989    1.3432 H   0  0  0  0  0  0  0  0  0  0  0  0
   -3.2657    6.2558    0.7954 H   0  0  0  0  0  0  0  0  0  0  0  0
   -5.2399    3.9402    0.3457 H   0  0  0  0  0  0  0  0  0  0  0  0
   -5.4160    5.2430    1.5379 H   0  0  0  0  0  0  0  0  0  0  0  0
   -5.4828    5.6029   -0.1997 H   0  0  0  0  0  0  0  0  0  0  0  0
   -3.5372    6.6618   -1.6021 H   0  0  0  0  0  0  0  0  0  0  0  0
   -2.7540    5.5376   -2.7135 H   0  0  0  0  0  0  0  0  0  0  0  0
   -1.2585    7.4518   -2.2533 H   0  0  0  0  0  0  0  0  0  0  0  0
   -1.3036    7.1087   -0.5125 H   0  0  0  0  0  0  0  0  0  0  0  0
   -0.5392    5.9585   -1.6215 H   0  0  0  0  0  0  0  0  0  0  0  0
    3.6172   -1.3043    1.4791 H   0  0  0  0  0  0  0  0  0  0  0  0
    3.2275    0.3987    1.4699 H   0  0  0  0  0  0  0  0  0  0  0  0
    1.5960    0.0482    3.3578 H   0  0  0  0  0  0  0  0  0  0  0  0
    1.8446   -1.6852    3.2720 H   0  0  0  0  0  0  0  0  0  0  0  0
    3.8068   -2.6957    4.8523 H   0  0  0  0  0  0  0  0  0  0  0  0
    5.6413   -1.6699    6.2121 H   0  0  0  0  0  0  0  0  0  0  0  0
    6.8336    0.8357    6.6514 H   0  0  0  0  0  0  0  0  0  0  0  0
    6.6501    3.2164    5.9499 H   0  0  0  0  0  0  0  0  0  0  0  0
    4.9238    3.9191    4.3271 H   0  0  0  0  0  0  0  0  0  0  0  0
    3.3479    2.2658    3.3652 H   0  0  0  0  0  0  0  0  0  0  0  0
   -0.6011    0.4563   -2.6652 H   0  0  0  0  0  0  0  0  0  0  0  0
    0.8762    1.0914   -2.0325 H   0  0  0  0  0  0  0  0  0  0  0  0
    2.8946   -0.5376   -1.6480 H   0  0  0  0  0  0  0  0  0  0  0  0
    4.1563   -2.3011   -2.7999 H   0  0  0  0  0  0  0  0  0  0  0  0
    3.0800   -3.6474   -4.5851 H   0  0  0  0  0  0  0  0  0  0  0  0
    0.7190   -3.2170   -5.2106 H   0  0  0  0  0  0  0  0  0  0  0  0
   -0.5663   -1.4585   -4.0578 H   0  0  0  0  0  0  0  0  0  0  0  0
   -1.4763   -1.3513    0.6869 H   0  0  0  0  0  0  0  0  0  0  0  0
   -4.1203   -1.4175   -2.4708 H   0  0  0  0  0  0  0  0  0  0  0  0
   -3.5736   -3.8055   -2.1665 H   0  0  0  0  0  0  0  0  0  0  0  0
   -2.5973   -3.1098   -3.4669 H   0  0  0  0  0  0  0  0  0  0  0  0
    1.2709   -2.4352    0.8064 H   0  0  0  0  0  0  0  0  0  0  0  0
    1.1508   -6.4085   -1.6134 H   0  0  0  0  0  0  0  0  0  0  0  0
    2.0101   -5.4722   -0.3956 H   0  0  0  0  0  0  0  0  0  0  0  0
    1.2112   -7.6518    0.5491 H   0  0  0  0  0  0  0  0  0  0  0  0
    0.4196   -6.2953    1.3769 H   0  0  0  0  0  0  0  0  0  0  0  0
   -0.4626   -7.2245    0.1545 H   0  0  0  0  0  0  0  0  0  0  0  0
   -1.9750   -5.6315   -3.0448 H   0  0  0  0  0  0  0  0  0  0  0  0
  1  2  1  0
  2  3  1  0
  3  4  2  0
  4  5  1  0
  5  6  1  0
  6  7  2  0
  6  8  1  0
  8  9  1  0
  9 10  1  0
  8 11  1  0
 11 12  1  0
  4 13  1  0
 13 14  1  0
 14 15  2  0
 14 16  1  0
 16 17  1  0
 17 18  2  3
 18 19  1  0
 19 20  1  0
 20 21  1  0
 21 22  2  0
 22 23  1  0
 23 24  1  0
 24 25  2  0
 25 26  1  0
 26 27  2  0
 27 28  1  0
 28 29  2  0
 17 30  1  0
 30 31  1  0
 31 32  1  0
 32 33  2  0
 33 34  1  0
 34 35  2  0
 35 36  1  0
 36 37  2  0
 30 38  1  0
 38 39  1  0
 39 40  2  0
 40 41  1  0
 41 42  1  0
 42 43  1  0
 43 44  2  0
 44 45  1  0
 44 46  1  0
 46 47  1  0
 47 48  1  0
 46 49  1  0
 49 50  1  0
 39  3  1  0
 49 42  2  0
 30 13  1  0
 37 32  1  0
 43 38  1  0
 29 21  1  0
 29 24  1  0
  1 51  1  0
  1 52  1  0
  1 53  1  0
  2 54  1  0
  2 55  1  0
  9 56  1  0
  9 57  1  0
 10 58  1  0
 10 59  1  0
 10 60  1  0
 11 61  1  0
 11 62  1  0
 12 63  1  0
 12 64  1  0
 12 65  1  0
 19 66  1  0
 19 67  1  0
 20 68  1  0
 20 69  1  0
 22 70  1  0
 23 71  1  0
 25 72  1  0
 26 73  1  0
 27 74  1  0
 28 75  1  0
 31 76  1  0
 31 77  1  0
 33 78  1  0
 34 79  1  0
 35 80  1  0
 36 81  1  0
 37 82  1  0
 38 83  1  0
 40 84  1  0
 41 85  1  0
 41 86  1  0
 45 87  1  0
 47 88  1  0
 47 89  1  0
 48 90  1  0
 48 91  1  0
 48 92  1  0
 50 93  1  0
M  END
$$$$
