
     RDKit          3D

 43 45  0  0  0  0  0  0  0  0999 V2000
    6.2552   -2.0483   -2.4759 C   0  0  0  0  0  0  0  0  0  0  0  0
    4.8945   -1.7472   -2.1978 O   0  0  0  0  0  0  0  0  0  0  0  0
    4.6466   -0.8653   -1.1799 C   0  0  0  0  0  0  0  0  0  0  0  0
    5.6090   -0.2505   -0.3815 C   0  0  0  0  0  0  0  0  0  0  0  0
    5.2440    0.6390    0.6374 C   0  0  0  0  0  0  0  0  0  0  0  0
    3.8811    0.8907    0.8290 C   0  0  0  0  0  0  0  0  0  0  0  0
    3.2534    1.7057    1.7385 N   0  0  0  0  0  0  0  0  0  0  0  0
    1.8954    1.6479    1.5683 C   0  0  0  0  0  0  0  0  0  0  0  0
    1.6170    0.7792    0.5248 C   0  0  0  0  0  0  0  0  0  0  0  0
    0.2806    0.4308    0.0112 C   0  0  0  0  0  0  0  0  0  0  0  0
    0.1623   -0.3230   -0.9541 O   0  0  0  0  0  0  0  0  0  0  0  0
   -0.9276    1.0575    0.7393 C   0  0  0  0  0  0  0  0  0  0  0  0
   -2.2449    0.6130    0.2275 N   0  0  0  0  0  0  0  0  0  0  0  0
   -2.4626   -0.8305    0.4400 C   0  0  0  0  0  0  0  0  0  0  0  0
   -3.9399   -1.2303    0.5815 C   0  0  0  0  0  0  0  0  0  0  0  0
   -4.8319   -0.3551   -0.2983 C   0  0  0  0  0  0  0  0  0  0  0  0
   -6.2955   -0.7780   -0.2112 C   0  0  0  0  0  0  0  0  0  0  0  0
   -4.6539    1.1265    0.0751 C   0  0  0  0  0  0  0  0  0  0  0  0
   -3.3288    1.4158    0.7921 C   0  0  0  0  0  0  0  0  0  0  0  0
    2.8862    0.2965    0.0526 C   0  0  0  0  0  0  0  0  0  0  0  0
    3.2876   -0.5952   -0.9663 C   0  0  0  0  0  0  0  0  0  0  0  0
    6.8040   -1.1514   -2.7820 H   0  0  0  0  0  0  0  0  0  0  0  0
    6.2776   -2.7532   -3.3125 H   0  0  0  0  0  0  0  0  0  0  0  0
    6.7351   -2.5334   -1.6195 H   0  0  0  0  0  0  0  0  0  0  0  0
    6.6678   -0.4411   -0.5237 H   0  0  0  0  0  0  0  0  0  0  0  0
    6.0012    1.1134    1.2533 H   0  0  0  0  0  0  0  0  0  0  0  0
    3.7332    2.2657    2.4302 H   0  0  0  0  0  0  0  0  0  0  0  0
    1.2503    2.2364    2.2070 H   0  0  0  0  0  0  0  0  0  0  0  0
   -0.8499    0.8429    1.8121 H   0  0  0  0  0  0  0  0  0  0  0  0
   -0.8400    2.1414    0.5918 H   0  0  0  0  0  0  0  0  0  0  0  0
   -2.0467   -1.3726   -0.4166 H   0  0  0  0  0  0  0  0  0  0  0  0
   -1.9363   -1.1900    1.3335 H   0  0  0  0  0  0  0  0  0  0  0  0
   -4.0560   -2.2881    0.3168 H   0  0  0  0  0  0  0  0  0  0  0  0
   -4.2469   -1.1320    1.6312 H   0  0  0  0  0  0  0  0  0  0  0  0
   -4.5117   -0.4853   -1.3412 H   0  0  0  0  0  0  0  0  0  0  0  0
   -6.9187   -0.1522   -0.8586 H   0  0  0  0  0  0  0  0  0  0  0  0
   -6.4180   -1.8184   -0.5301 H   0  0  0  0  0  0  0  0  0  0  0  0
   -6.6748   -0.6920    0.8127 H   0  0  0  0  0  0  0  0  0  0  0  0
   -4.7139    1.7244   -0.8436 H   0  0  0  0  0  0  0  0  0  0  0  0
   -5.4737    1.4703    0.7182 H   0  0  0  0  0  0  0  0  0  0  0  0
   -3.4321    1.2252    1.8686 H   0  0  0  0  0  0  0  0  0  0  0  0
   -3.1182    2.4869    0.6819 H   0  0  0  0  0  0  0  0  0  0  0  0
    2.5400   -1.0766   -1.5928 H   0  0  0  0  0  0  0  0  0  0  0  0
  1  2  1  0
  2  3  1  0
  3  4  2  0
  4  5  1  0
  5  6  2  0
  6  7  1  0
  7  8  1  0
  8  9  2  0
  9 10  1  0
 10 11  2  0
 10 12  1  0
 12 13  1  0
 13 14  1  0
 14 15  1  0
 15 16  1  0
 16 17  1  0
 16 18  1  0
 18 19  1  0
  9 20  1  0
 20 21  2  0
 21  3  1  0
 20  6  1  0
 19 13  1  0
  1 22  1  0
  1 23  1  0
  1 24  1  0
  4 25  1  0
  5 26  1  0
  7 27  1  0
  8 28  1  0
 12 29  1  0
 12 30  1  0
 14 31  1  0
 14 32  1  0
 15 33  1  0
 15 34  1  0
 16 35  1  0
 17 36  1  0
 17 37  1  0
 17 38  1  0
 18 39  1  0
 18 40  1  0
 19 41  1  0
 19 42  1  0
 21 43  1  0
M  END
$$$$
