
     RDKit          3D

 40 42  0  0  0  0  0  0  0  0999 V2000
    5.7836   -3.3763   -0.1571 C   0  0  0  0  0  0  0  0  0  0  0  0
    4.7675   -2.3580    0.2710 C   0  0  0  0  0  0  0  0  0  0  0  0
    3.3992   -2.6547    0.2005 C   0  0  0  0  0  0  0  0  0  0  0  0
    2.4517   -1.7246    0.6299 C   0  0  0  0  0  0  0  0  0  0  0  0
    2.8763   -0.4934    1.1358 C   0  0  0  0  0  0  0  0  0  0  0  0
    1.6614    0.6704    1.6897 S   0  0  0  0  0  6  0  0  0  0  0  0
    0.6419   -0.0577    2.4116 O   0  0  0  0  0  0  0  0  0  0  0  0
    2.3381    1.8077    2.2790 O   0  0  0  0  0  0  0  0  0  0  0  0
    1.0522    1.2377    0.1987 N   0  0  0  0  0  0  0  0  0  0  0  0
   -0.4143    1.3590    0.1541 C   0  0  0  0  0  0  0  0  0  0  0  0
   -1.2106    0.6860   -0.7361 C   0  0  0  0  0  0  0  0  0  0  0  0
   -2.5410    1.1134   -0.4620 C   0  0  0  0  0  0  0  0  0  0  0  0
   -3.7848    0.6999   -1.1269 C   0  0  0  0  0  0  0  0  0  0  0  0
   -5.0254    1.1763   -0.6735 C   0  0  0  0  0  0  0  0  0  0  0  0
   -6.2160    0.7910   -1.2960 C   0  0  0  0  0  0  0  0  0  0  0  0
   -6.1836   -0.0778   -2.3832 C   0  0  0  0  0  0  0  0  0  0  0  0
   -4.9626   -0.5603   -2.8476 C   0  0  0  0  0  0  0  0  0  0  0  0
   -3.7710   -0.1747   -2.2242 C   0  0  0  0  0  0  0  0  0  0  0  0
   -2.5444    2.0119    0.5400 N   0  0  0  0  0  0  0  0  0  0  0  0
   -1.2549    2.1304    0.9057 N   0  0  0  0  0  0  0  0  0  0  0  0
   -0.9095    3.0292    1.9797 C   0  0  0  0  0  0  0  0  0  0  0  0
    4.2362   -0.1917    1.2343 C   0  0  0  0  0  0  0  0  0  0  0  0
    5.1781   -1.1274    0.8030 C   0  0  0  0  0  0  0  0  0  0  0  0
    6.0116   -4.0494    0.6747 H   0  0  0  0  0  0  0  0  0  0  0  0
    5.4112   -3.9667   -1.0006 H   0  0  0  0  0  0  0  0  0  0  0  0
    6.7100   -2.8920   -0.4833 H   0  0  0  0  0  0  0  0  0  0  0  0
    3.0650   -3.6158   -0.1856 H   0  0  0  0  0  0  0  0  0  0  0  0
    1.3917   -1.9648    0.5750 H   0  0  0  0  0  0  0  0  0  0  0  0
    1.5110    2.1350    0.0197 H   0  0  0  0  0  0  0  0  0  0  0  0
   -0.8768   -0.0181   -1.4825 H   0  0  0  0  0  0  0  0  0  0  0  0
   -5.0721    1.8552    0.1762 H   0  0  0  0  0  0  0  0  0  0  0  0
   -7.1651    1.1709   -0.9279 H   0  0  0  0  0  0  0  0  0  0  0  0
   -7.1087   -0.3785   -2.8675 H   0  0  0  0  0  0  0  0  0  0  0  0
   -4.9355   -1.2387   -3.6963 H   0  0  0  0  0  0  0  0  0  0  0  0
   -2.8383   -0.5702   -2.6149 H   0  0  0  0  0  0  0  0  0  0  0  0
   -0.8688    2.4542    2.9070 H   0  0  0  0  0  0  0  0  0  0  0  0
    0.0575    3.4888    1.7651 H   0  0  0  0  0  0  0  0  0  0  0  0
   -1.6700    3.8108    2.0536 H   0  0  0  0  0  0  0  0  0  0  0  0
    4.5720    0.7563    1.6477 H   0  0  0  0  0  0  0  0  0  0  0  0
    6.2375   -0.8934    0.8874 H   0  0  0  0  0  0  0  0  0  0  0  0
  1  2  1  0
  2  3  2  0
  3  4  1  0
  4  5  2  0
  5  6  1  0
  6  7  2  0
  6  8  2  0
  6  9  1  0
  9 10  1  0
 10 11  2  0
 11 12  1  0
 12 13  1  0
 13 14  2  0
 14 15  1  0
 15 16  2  0
 16 17  1  0
 17 18  2  0
 12 19  2  0
 19 20  1  0
 20 21  1  0
  5 22  1  0
 22 23  2  0
 23  2  1  0
 20 10  1  0
 18 13  1  0
  1 24  1  0
  1 25  1  0
  1 26  1  0
  3 27  1  0
  4 28  1  0
  9 29  1  0
 11 30  1  0
 14 31  1  0
 15 32  1  0
 16 33  1  0
 17 34  1  0
 18 35  1  0
 21 36  1  0
 21 37  1  0
 21 38  1  0
 22 39  1  0
 23 40  1  0
M  END
$$$$
