
     RDKit          3D

 61 63  0  0  0  0  0  0  0  0999 V2000
    7.0429   -3.3219   -1.4398 C   0  0  0  0  0  0  0  0  0  0  0  0
    6.4905   -2.1066   -0.8694 N   0  0  0  0  0  0  0  0  0  0  0  0
    5.5674   -1.4025   -1.6248 C   0  0  0  0  0  0  0  0  0  0  0  0
    5.1622   -1.7555   -2.7303 O   0  0  0  0  0  0  0  0  0  0  0  0
    5.0375   -0.1638   -1.0363 C   0  0  0  0  0  0  0  0  0  0  0  0
    4.1636    0.6354   -1.7889 C   0  0  0  0  0  0  0  0  0  0  0  0
    3.6418    1.7976   -1.2240 C   0  0  0  0  0  0  0  0  0  0  0  0
    2.5349    2.8051   -2.1782 S   0  0  0  0  0  6  0  0  0  0  0  0
    2.2540    4.0068   -1.4255 O   0  0  0  0  0  0  0  0  0  0  0  0
    3.0391    2.8478   -3.5313 O   0  0  0  0  0  0  0  0  0  0  0  0
    1.1375    1.8789   -2.2136 N   0  0  0  0  0  0  0  0  0  0  0  0
    0.4916    1.4859   -0.9553 C   0  0  0  0  0  0  0  0  0  0  0  0
   -1.0162    1.4443   -1.1559 C   0  0  0  0  0  0  0  0  0  0  0  0
   -1.7122    0.9933    0.1083 C   0  0  0  0  0  0  0  0  0  0  0  0
   -1.1106    0.6224    1.1099 O   0  0  0  0  0  0  0  0  0  0  0  0
   -3.0874    1.0338    0.0098 N   0  0  0  0  0  0  0  0  0  0  0  0
   -3.9583    0.5459    1.0798 C   0  0  0  0  0  0  0  0  0  0  0  0
   -5.2925    1.3120    1.0605 C   0  0  0  0  0  0  0  0  0  0  0  0
   -6.2829    0.9369   -0.0447 C   0  0  0  0  0  0  0  0  0  0  0  0
   -7.3217   -0.1226    0.3479 C   0  0  0  0  0  0  0  0  0  0  0  0
   -6.8963   -1.5660    0.0875 C   0  0  0  0  0  0  0  0  0  0  0  0
   -6.2460   -2.2906    1.2668 C   0  0  0  0  0  0  0  0  0  0  0  0
   -5.0844   -1.5880    1.9668 C   0  0  0  0  0  0  0  0  0  0  0  0
   -4.0526   -0.9867    1.0142 C   0  0  0  0  0  0  0  0  0  0  0  0
    4.0000    2.1750    0.0689 C   0  0  0  0  0  0  0  0  0  0  0  0
    4.8768    1.3707    0.8065 C   0  0  0  0  0  0  0  0  0  0  0  0
    5.4069    0.1882    0.2621 C   0  0  0  0  0  0  0  0  0  0  0  0
    6.2914   -0.6513    0.9903 N   0  0  0  0  0  0  0  0  0  0  0  0
    6.6540   -0.3014    2.3583 C   0  0  0  0  0  0  0  0  0  0  0  0
    6.8346   -1.8121    0.4450 C   0  0  0  0  0  0  0  0  0  0  0  0
    7.5799   -2.5502    1.0936 O   0  0  0  0  0  0  0  0  0  0  0  0
    6.4835   -4.1747   -1.0414 H   0  0  0  0  0  0  0  0  0  0  0  0
    6.9715   -3.3269   -2.5313 H   0  0  0  0  0  0  0  0  0  0  0  0
    8.0952   -3.4296   -1.1581 H   0  0  0  0  0  0  0  0  0  0  0  0
    3.8985    0.3503   -2.8059 H   0  0  0  0  0  0  0  0  0  0  0  0
    1.0739    1.2576   -3.0188 H   0  0  0  0  0  0  0  0  0  0  0  0
    0.8679    0.4995   -0.6623 H   0  0  0  0  0  0  0  0  0  0  0  0
    0.7340    2.1917   -0.1536 H   0  0  0  0  0  0  0  0  0  0  0  0
   -1.3878    2.4380   -1.4320 H   0  0  0  0  0  0  0  0  0  0  0  0
   -1.2751    0.7488   -1.9628 H   0  0  0  0  0  0  0  0  0  0  0  0
   -3.4984    1.1925   -0.9020 H   0  0  0  0  0  0  0  0  0  0  0  0
   -3.4634    0.8039    2.0261 H   0  0  0  0  0  0  0  0  0  0  0  0
   -5.0567    2.3798    0.9448 H   0  0  0  0  0  0  0  0  0  0  0  0
   -5.7839    1.2359    2.0376 H   0  0  0  0  0  0  0  0  0  0  0  0
   -5.7687    0.6633   -0.9726 H   0  0  0  0  0  0  0  0  0  0  0  0
   -6.8483    1.8502   -0.2767 H   0  0  0  0  0  0  0  0  0  0  0  0
   -8.2033    0.0616   -0.2817 H   0  0  0  0  0  0  0  0  0  0  0  0
   -7.6606    0.0113    1.3815 H   0  0  0  0  0  0  0  0  0  0  0  0
   -7.7958   -2.1397   -0.1740 H   0  0  0  0  0  0  0  0  0  0  0  0
   -6.2555   -1.6221   -0.7997 H   0  0  0  0  0  0  0  0  0  0  0  0
   -5.8979   -3.2678    0.9071 H   0  0  0  0  0  0  0  0  0  0  0  0
   -7.0153   -2.5077    2.0191 H   0  0  0  0  0  0  0  0  0  0  0  0
   -5.4716   -0.8434    2.6696 H   0  0  0  0  0  0  0  0  0  0  0  0
   -4.5829   -2.3348    2.5968 H   0  0  0  0  0  0  0  0  0  0  0  0
   -4.2141   -1.3163   -0.0182 H   0  0  0  0  0  0  0  0  0  0  0  0
   -3.0680   -1.3955    1.2800 H   0  0  0  0  0  0  0  0  0  0  0  0
    3.6054    3.0876    0.5129 H   0  0  0  0  0  0  0  0  0  0  0  0
    5.1276    1.6994    1.8118 H   0  0  0  0  0  0  0  0  0  0  0  0
    7.1618    0.6685    2.3618 H   0  0  0  0  0  0  0  0  0  0  0  0
    7.3323   -1.0315    2.8085 H   0  0  0  0  0  0  0  0  0  0  0  0
    5.7506   -0.2619    2.9751 H   0  0  0  0  0  0  0  0  0  0  0  0
  1  2  1  0
  2  3  1  0
  3  4  2  0
  3  5  1  0
  5  6  2  0
  6  7  1  0
  7  8  1  0
  8  9  2  0
  8 10  2  0
  8 11  1  0
 11 12  1  0
 12 13  1  0
 13 14  1  0
 14 15  2  0
 14 16  1  0
 16 17  1  0
 17 18  1  0
 18 19  1  0
 19 20  1  0
 20 21  1  0
 21 22  1  0
 22 23  1  0
 23 24  1  0
  7 25  2  0
 25 26  1  0
 26 27  2  0
 27 28  1  0
 28 29  1  0
 28 30  1  0
 30 31  2  0
 30  2  1  0
 27  5  1  0
 24 17  1  0
  1 32  1  0
  1 33  1  0
  1 34  1  0
  6 35  1  0
 11 36  1  0
 12 37  1  0
 12 38  1  0
 13 39  1  0
 13 40  1  0
 16 41  1  0
 17 42  1  0
 18 43  1  0
 18 44  1  0
 19 45  1  0
 19 46  1  0
 20 47  1  0
 20 48  1  0
 21 49  1  0
 21 50  1  0
 22 51  1  0
 22 52  1  0
 23 53  1  0
 23 54  1  0
 24 55  1  0
 24 56  1  0
 25 57  1  0
 26 58  1  0
 29 59  1  0
 29 60  1  0
 29 61  1  0
M  END
$$$$
