
     RDKit          3D

 43 45  0  0  0  0  0  0  0  0999 V2000
   -7.8236    1.9919    0.8110 C   0  0  0  0  0  0  0  0  0  0  0  0
   -6.4478    1.3636    0.9589 C   0  0  0  0  0  0  0  0  0  0  0  0
   -6.0238    0.6398   -0.3161 C   0  0  0  0  0  0  0  0  0  0  0  0
   -4.6778    0.0070   -0.1334 C   0  0  0  0  0  0  0  0  0  0  0  0
   -4.5027   -1.1649    0.3902 N   0  0  0  0  0  0  0  0  0  0  0  0
   -3.1529   -1.4344    0.4272 N   0  0  0  0  0  0  0  0  0  0  0  0
   -2.6572   -2.6190    0.9238 C   0  0  0  0  0  0  0  0  0  0  0  0
   -3.3034   -3.5579    1.3781 O   0  0  0  0  0  0  0  0  0  0  0  0
   -1.1802   -2.7092    0.8708 C   0  0  0  0  0  0  0  0  0  0  0  0
   -0.4636   -1.6837    0.3780 C   0  0  0  0  0  0  0  0  0  0  0  0
    1.0453   -1.7663    0.3012 C   0  0  0  0  0  0  0  0  0  0  0  0
    1.8122   -0.8739    1.6985 S   0  0  0  0  0  0  0  0  0  0  0  0
    1.8470    0.8155    0.9989 C   0  0  0  0  0  0  0  0  0  0  0  0
    2.8369    0.9374   -0.1540 C   0  0  0  0  0  0  0  0  0  0  0  0
    2.5237    1.5110   -1.1929 O   0  0  0  0  0  0  0  0  0  0  0  0
    4.0784    0.3950    0.1382 N   0  0  0  0  0  0  0  0  0  0  0  0
    5.2265    0.3666   -0.6753 C   0  0  0  0  0  0  0  0  0  0  0  0
    6.3499   -0.3041   -0.1686 C   0  0  0  0  0  0  0  0  0  0  0  0
    7.5298   -0.3779   -0.9132 C   0  0  0  0  0  0  0  0  0  0  0  0
    7.5866    0.2203   -2.1645 C   0  0  0  0  0  0  0  0  0  0  0  0
    8.7166    0.1505   -2.8796 F   0  0  0  0  0  0  0  0  0  0  0  0
    6.4863    0.8901   -2.6820 C   0  0  0  0  0  0  0  0  0  0  0  0
    5.3050    0.9641   -1.9367 C   0  0  0  0  0  0  0  0  0  0  0  0
   -1.0322   -0.5278   -0.1186 N   0  0  0  0  0  0  0  0  0  0  0  0
   -2.3196   -0.4658   -0.0638 C   0  0  0  0  0  0  0  0  0  0  0  0
   -3.2486    0.8893   -0.6158 S   0  0  0  0  0  0  0  0  0  0  0  0
   -8.5815    1.2313    0.5980 H   0  0  0  0  0  0  0  0  0  0  0  0
   -7.8344    2.7254   -0.0016 H   0  0  0  0  0  0  0  0  0  0  0  0
   -8.1076    2.5048    1.7352 H   0  0  0  0  0  0  0  0  0  0  0  0
   -6.4583    0.6626    1.8023 H   0  0  0  0  0  0  0  0  0  0  0  0
   -5.7189    2.1436    1.2090 H   0  0  0  0  0  0  0  0  0  0  0  0
   -6.0004    1.3339   -1.1635 H   0  0  0  0  0  0  0  0  0  0  0  0
   -6.7445   -0.1504   -0.5574 H   0  0  0  0  0  0  0  0  0  0  0  0
   -0.7381   -3.6206    1.2529 H   0  0  0  0  0  0  0  0  0  0  0  0
    1.4121   -1.3906   -0.6595 H   0  0  0  0  0  0  0  0  0  0  0  0
    1.3740   -2.8097    0.3693 H   0  0  0  0  0  0  0  0  0  0  0  0
    2.1594    1.5096    1.7859 H   0  0  0  0  0  0  0  0  0  0  0  0
    0.8507    1.1163    0.6679 H   0  0  0  0  0  0  0  0  0  0  0  0
    4.1385   -0.0918    1.0274 H   0  0  0  0  0  0  0  0  0  0  0  0
    6.3227   -0.7775    0.8096 H   0  0  0  0  0  0  0  0  0  0  0  0
    8.4009   -0.8960   -0.5254 H   0  0  0  0  0  0  0  0  0  0  0  0
    6.5489    1.3535   -3.6616 H   0  0  0  0  0  0  0  0  0  0  0  0
    4.4656    1.4985   -2.3705 H   0  0  0  0  0  0  0  0  0  0  0  0
  1  2  1  0
  2  3  1  0
  3  4  1  0
  4  5  2  0
  5  6  1  0
  6  7  1  0
  7  8  2  0
  7  9  1  0
  9 10  2  0
 10 11  1  0
 11 12  1  0
 12 13  1  0
 13 14  1  0
 14 15  2  0
 14 16  1  0
 16 17  1  0
 17 18  2  0
 18 19  1  0
 19 20  2  0
 20 21  1  0
 20 22  1  0
 22 23  2  0
 10 24  1  0
 24 25  2  0
 25 26  1  0
 26  4  1  0
 25  6  1  0
 23 17  1  0
  1 27  1  0
  1 28  1  0
  1 29  1  0
  2 30  1  0
  2 31  1  0
  3 32  1  0
  3 33  1  0
  9 34  1  0
 11 35  1  0
 11 36  1  0
 13 37  1  0
 13 38  1  0
 16 39  1  0
 18 40  1  0
 19 41  1  0
 22 42  1  0
 23 43  1  0
M  END
$$$$
