
     RDKit          3D

 38 40  0  0  0  0  0  0  0  0999 V2000
   -0.7933   -1.6150   -2.0319 O   0  0  0  0  0  0  0  0  0  0  0  0
   -0.9055   -0.4405   -2.3608 C   0  0  0  0  0  0  0  0  0  0  0  0
   -2.1694    0.3820   -2.2402 C   0  0  0  0  0  0  0  0  0  0  0  0
   -2.8175    0.2395   -0.8827 C   0  0  0  0  0  0  0  0  0  0  0  0
   -3.9693   -0.5475   -0.7256 C   0  0  0  0  0  0  0  0  0  0  0  0
   -4.5513   -0.7039    0.5321 C   0  0  0  0  0  0  0  0  0  0  0  0
   -3.9814   -0.0854    1.6473 C   0  0  0  0  0  0  0  0  0  0  0  0
   -2.8168    0.6936    1.5185 C   0  0  0  0  0  0  0  0  0  0  0  0
   -2.1945    1.3522    2.7267 C   0  0  0  0  0  0  0  0  0  0  0  0
   -2.6941    2.5985    2.9534 F   0  0  0  0  0  0  0  0  0  0  0  0
   -0.8410    1.5017    2.6217 F   0  0  0  0  0  0  0  0  0  0  0  0
   -2.3961    0.6525    3.8808 F   0  0  0  0  0  0  0  0  0  0  0  0
   -2.2505    0.8623    0.2431 C   0  0  0  0  0  0  0  0  0  0  0  0
    0.0950    0.3197   -2.8817 O   0  0  0  0  0  0  0  0  0  0  0  0
    1.3873   -0.2889   -2.8559 C   0  0  0  0  0  0  0  0  0  0  0  0
    1.9185   -0.3234   -1.5160 N   0  0  0  0  0  0  0  0  0  0  0  0
    2.7215   -1.3336   -1.0673 C   0  0  0  0  0  0  0  0  0  0  0  0
    3.0713   -2.3489   -1.6378 O   0  0  0  0  0  0  0  0  0  0  0  0
    3.1858   -0.9373    0.2652 C   0  0  0  0  0  0  0  0  0  0  0  0
    3.9850   -1.6051    1.1734 C   0  0  0  0  0  0  0  0  0  0  0  0
    4.2940   -0.9376    2.3672 C   0  0  0  0  0  0  0  0  0  0  0  0
    3.7988    0.3594    2.6212 C   0  0  0  0  0  0  0  0  0  0  0  0
    2.9879    1.0118    1.6868 C   0  0  0  0  0  0  0  0  0  0  0  0
    2.7012    0.3338    0.5152 C   0  0  0  0  0  0  0  0  0  0  0  0
    1.9231    0.7427   -0.6542 C   0  0  0  0  0  0  0  0  0  0  0  0
    1.4226    1.8449   -0.7808 O   0  0  0  0  0  0  0  0  0  0  0  0
   -1.9499    1.4424   -2.4165 H   0  0  0  0  0  0  0  0  0  0  0  0
   -2.8508    0.0679   -3.0404 H   0  0  0  0  0  0  0  0  0  0  0  0
   -4.4171   -1.0522   -1.5816 H   0  0  0  0  0  0  0  0  0  0  0  0
   -5.4458   -1.3188    0.6398 H   0  0  0  0  0  0  0  0  0  0  0  0
   -4.4447   -0.2238    2.6242 H   0  0  0  0  0  0  0  0  0  0  0  0
   -1.3505    1.4735    0.1306 H   0  0  0  0  0  0  0  0  0  0  0  0
    2.0526    0.3411   -3.4570 H   0  0  0  0  0  0  0  0  0  0  0  0
    1.3698   -1.2863   -3.3111 H   0  0  0  0  0  0  0  0  0  0  0  0
    4.3607   -2.6023    0.9634 H   0  0  0  0  0  0  0  0  0  0  0  0
    4.9216   -1.4259    3.1123 H   0  0  0  0  0  0  0  0  0  0  0  0
    4.0467    0.8514    3.5597 H   0  0  0  0  0  0  0  0  0  0  0  0
    2.5960    2.0055    1.8733 H   0  0  0  0  0  0  0  0  0  0  0  0
  1  2  2  0
  2  3  1  0
  3  4  1  0
  4  5  2  0
  5  6  1  0
  6  7  2  0
  7  8  1  0
  8  9  1  0
  9 10  1  0
  9 11  1  0
  9 12  1  0
  8 13  2  0
  2 14  1  0
 14 15  1  0
 15 16  1  0
 16 17  1  0
 17 18  2  0
 17 19  1  0
 19 20  2  0
 20 21  1  0
 21 22  2  0
 22 23  1  0
 23 24  2  0
 24 25  1  0
 25 26  2  0
 13  4  1  0
 25 16  1  0
 24 19  1  0
  3 27  1  0
  3 28  1  0
  5 29  1  0
  6 30  1  0
  7 31  1  0
 13 32  1  0
 15 33  1  0
 15 34  1  0
 20 35  1  0
 21 36  1  0
 22 37  1  0
 23 38  1  0
M  END
$$$$
