
     RDKit          3D

 39 41  0  0  0  0  0  0  0  0999 V2000
    3.6357   -1.2439   -1.5710 O   0  0  0  0  0  0  0  0  0  0  0  0
    3.9661   -0.5760   -0.5974 C   0  0  0  0  0  0  0  0  0  0  0  0
    3.1180   -0.1192    0.3956 N   0  0  0  0  0  0  0  0  0  0  0  0
    1.7284   -0.3057    0.5141 C   0  0  0  0  0  0  0  0  0  0  0  0
    1.1021    0.2637    1.6297 C   0  0  0  0  0  0  0  0  0  0  0  0
   -0.2763    0.1275    1.8258 C   0  0  0  0  0  0  0  0  0  0  0  0
   -1.0581   -0.5771    0.9035 C   0  0  0  0  0  0  0  0  0  0  0  0
   -2.5473   -0.7480    1.1235 C   0  0  0  0  0  0  0  0  0  0  0  0
   -3.3572   -0.3811   -0.0473 N   0  0  0  0  0  0  0  0  0  0  0  0
   -3.3567    1.0725   -0.3222 C   0  0  0  0  0  0  0  0  0  0  0  0
   -4.6173    1.7926    0.1827 C   0  0  0  0  0  0  0  0  0  0  0  0
   -5.8318    1.2756   -0.3783 O   0  0  0  0  0  0  0  0  0  0  0  0
   -5.7303   -0.1013   -0.7674 C   0  0  0  0  0  0  0  0  0  0  0  0
   -4.7390   -0.8846    0.1043 C   0  0  0  0  0  0  0  0  0  0  0  0
   -0.4262   -1.1525   -0.2069 C   0  0  0  0  0  0  0  0  0  0  0  0
    0.9532   -1.0153   -0.4019 C   0  0  0  0  0  0  0  0  0  0  0  0
    5.3460   -0.1781   -0.3758 C   0  0  0  0  0  0  0  0  0  0  0  0
    6.4912   -0.4186   -1.1116 C   0  0  0  0  0  0  0  0  0  0  0  0
    7.5580    0.2094   -0.4240 C   0  0  0  0  0  0  0  0  0  0  0  0
    7.0037    0.7960    0.6899 C   0  0  0  0  0  0  0  0  0  0  0  0
    7.9593    1.7894    2.0003 Br  0  0  0  0  0  0  0  0  0  0  0  0
    5.6635    0.5685    0.7309 O   0  0  0  0  0  0  0  0  0  0  0  0
    3.5723    0.4183    1.1259 H   0  0  0  0  0  0  0  0  0  0  0  0
    1.6772    0.8208    2.3649 H   0  0  0  0  0  0  0  0  0  0  0  0
   -0.7324    0.5780    2.7042 H   0  0  0  0  0  0  0  0  0  0  0  0
   -2.8714   -0.1776    2.0040 H   0  0  0  0  0  0  0  0  0  0  0  0
   -2.7013   -1.8087    1.3640 H   0  0  0  0  0  0  0  0  0  0  0  0
   -2.4647    1.5716    0.0717 H   0  0  0  0  0  0  0  0  0  0  0  0
   -3.3122    1.1865   -1.4128 H   0  0  0  0  0  0  0  0  0  0  0  0
   -4.5685    2.8565   -0.0710 H   0  0  0  0  0  0  0  0  0  0  0  0
   -4.6907    1.7227    1.2743 H   0  0  0  0  0  0  0  0  0  0  0  0
   -5.4431   -0.1418   -1.8247 H   0  0  0  0  0  0  0  0  0  0  0  0
   -6.7308   -0.5382   -0.6856 H   0  0  0  0  0  0  0  0  0  0  0  0
   -5.0648   -0.7982    1.1496 H   0  0  0  0  0  0  0  0  0  0  0  0
   -4.7642   -1.9448   -0.1701 H   0  0  0  0  0  0  0  0  0  0  0  0
   -1.0122   -1.7090   -0.9365 H   0  0  0  0  0  0  0  0  0  0  0  0
    1.3854   -1.4774   -1.2837 H   0  0  0  0  0  0  0  0  0  0  0  0
    6.5356   -0.9826   -2.0342 H   0  0  0  0  0  0  0  0  0  0  0  0
    8.6009    0.2300   -0.7081 H   0  0  0  0  0  0  0  0  0  0  0  0
  1  2  2  0
  2  3  1  0
  3  4  1  0
  4  5  2  0
  5  6  1  0
  6  7  2  0
  7  8  1  0
  8  9  1  0
  9 10  1  0
 10 11  1  0
 11 12  1  0
 12 13  1  0
 13 14  1  0
  7 15  1  0
 15 16  2  0
  2 17  1  0
 17 18  2  0
 18 19  1  0
 19 20  2  0
 20 21  1  0
 20 22  1  0
 16  4  1  0
 22 17  1  0
 14  9  1  0
  3 23  1  0
  5 24  1  0
  6 25  1  0
  8 26  1  0
  8 27  1  0
 10 28  1  0
 10 29  1  0
 11 30  1  0
 11 31  1  0
 13 32  1  0
 13 33  1  0
 14 34  1  0
 14 35  1  0
 15 36  1  0
 16 37  1  0
 18 38  1  0
 19 39  1  0
M  END
$$$$
