
     RDKit          3D

 53 56  0  0  0  0  0  0  0  0999 V2000
   -0.8953   -0.4882    3.4841 C   0  0  0  0  0  0  0  0  0  0  0  0
   -1.2181   -0.8508    2.0627 C   0  0  0  0  0  0  0  0  0  0  0  0
   -0.4012   -1.7195    1.3317 C   0  0  0  0  0  0  0  0  0  0  0  0
    0.7144   -2.2847    1.8938 O   0  0  0  0  0  0  0  0  0  0  0  0
    1.8568   -1.4341    1.7446 C   0  0  0  0  0  0  0  0  0  0  0  0
    2.7835   -1.7181    2.9238 C   0  0  0  0  0  0  0  0  0  0  0  0
    2.6371   -1.6575    0.4316 C   0  0  0  0  0  0  0  0  0  0  0  0
    2.4982   -2.6400   -0.2933 O   0  0  0  0  0  0  0  0  0  0  0  0
    3.5172   -0.6456    0.1277 N   0  0  0  0  0  0  0  0  0  0  0  0
    4.3116   -0.6497   -1.0804 C   0  0  0  0  0  0  0  0  0  0  0  0
    5.0528    0.6585   -1.2595 C   0  0  0  0  0  0  0  0  0  0  0  0
    5.7860    0.8846   -2.4226 C   0  0  0  0  0  0  0  0  0  0  0  0
    6.4440    2.1022   -2.5743 C   0  0  0  0  0  0  0  0  0  0  0  0
    6.3593    3.0550   -1.5664 C   0  0  0  0  0  0  0  0  0  0  0  0
    5.6199    2.7493   -0.4350 C   0  0  0  0  0  0  0  0  0  0  0  0
    4.9669    1.5791   -0.2561 N   0  0  0  0  0  0  0  0  0  0  0  0
   -0.7294   -2.0790    0.0259 C   0  0  0  0  0  0  0  0  0  0  0  0
   -1.8500   -1.5227   -0.5962 C   0  0  0  0  0  0  0  0  0  0  0  0
   -2.6649   -0.6070    0.0805 C   0  0  0  0  0  0  0  0  0  0  0  0
   -3.8444    0.0315   -0.5299 C   0  0  0  0  0  0  0  0  0  0  0  0
   -4.5276    0.9591    0.1687 C   0  0  0  0  0  0  0  0  0  0  0  0
   -4.1651    1.3202    1.5616 C   0  0  0  0  0  0  0  0  0  0  0  0
   -4.7954    2.1584    2.1980 O   0  0  0  0  0  0  0  0  0  0  0  0
   -3.0855    0.6585    2.1186 O   0  0  0  0  0  0  0  0  0  0  0  0
   -2.3219   -0.2853    1.3989 C   0  0  0  0  0  0  0  0  0  0  0  0
   -5.7066    1.7137   -0.3946 C   0  0  0  0  0  0  0  0  0  0  0  0
   -5.8465    1.5793   -1.9109 C   0  0  0  0  0  0  0  0  0  0  0  0
   -5.6418    0.1356   -2.3421 C   0  0  0  0  0  0  0  0  0  0  0  0
   -4.2558   -0.3680   -1.9308 C   0  0  0  0  0  0  0  0  0  0  0  0
   -1.7975   -0.2364    4.0523 H   0  0  0  0  0  0  0  0  0  0  0  0
   -0.4262   -1.3275    4.0089 H   0  0  0  0  0  0  0  0  0  0  0  0
   -0.2150    0.3699    3.5059 H   0  0  0  0  0  0  0  0  0  0  0  0
    1.5659   -0.3750    1.7905 H   0  0  0  0  0  0  0  0  0  0  0  0
    3.1240   -2.7594    2.9067 H   0  0  0  0  0  0  0  0  0  0  0  0
    3.6663   -1.0718    2.9125 H   0  0  0  0  0  0  0  0  0  0  0  0
    2.2542   -1.5710    3.8716 H   0  0  0  0  0  0  0  0  0  0  0  0
    3.6208    0.1773    0.7151 H   0  0  0  0  0  0  0  0  0  0  0  0
    5.0232   -1.4804   -1.0157 H   0  0  0  0  0  0  0  0  0  0  0  0
    3.6428   -0.8219   -1.9316 H   0  0  0  0  0  0  0  0  0  0  0  0
    5.8404    0.1320   -3.2032 H   0  0  0  0  0  0  0  0  0  0  0  0
    7.0177    2.3066   -3.4745 H   0  0  0  0  0  0  0  0  0  0  0  0
    6.8585    4.0132   -1.6583 H   0  0  0  0  0  0  0  0  0  0  0  0
    5.5271    3.4617    0.3805 H   0  0  0  0  0  0  0  0  0  0  0  0
   -0.1072   -2.7892   -0.5150 H   0  0  0  0  0  0  0  0  0  0  0  0
   -2.0532   -1.8173   -1.6213 H   0  0  0  0  0  0  0  0  0  0  0  0
   -6.6202    1.3431    0.0885 H   0  0  0  0  0  0  0  0  0  0  0  0
   -5.6256    2.7824   -0.1586 H   0  0  0  0  0  0  0  0  0  0  0  0
   -5.1066    2.2200   -2.4088 H   0  0  0  0  0  0  0  0  0  0  0  0
   -6.8357    1.9319   -2.2242 H   0  0  0  0  0  0  0  0  0  0  0  0
   -5.7595    0.0448   -3.4281 H   0  0  0  0  0  0  0  0  0  0  0  0
   -6.4143   -0.4966   -1.8843 H   0  0  0  0  0  0  0  0  0  0  0  0
   -3.5120    0.0213   -2.6382 H   0  0  0  0  0  0  0  0  0  0  0  0
   -4.2663   -1.4599   -2.0311 H   0  0  0  0  0  0  0  0  0  0  0  0
  1  2  1  0
  2  3  2  0
  3  4  1  0
  4  5  1  0
  5  6  1  0
  5  7  1  0
  7  8  2  0
  7  9  1  0
  9 10  1  0
 10 11  1  0
 11 12  2  0
 12 13  1  0
 13 14  2  0
 14 15  1  0
 15 16  2  0
  3 17  1  0
 17 18  2  0
 18 19  1  0
 19 20  1  0
 20 21  2  0
 21 22  1  0
 22 23  2  0
 22 24  1  0
 24 25  1  0
 21 26  1  0
 26 27  1  0
 27 28  1  0
 28 29  1  0
 25  2  1  0
 16 11  1  0
 25 19  2  0
 29 20  1  0
  1 30  1  0
  1 31  1  0
  1 32  1  0
  5 33  1  0
  6 34  1  0
  6 35  1  0
  6 36  1  0
  9 37  1  0
 10 38  1  0
 10 39  1  0
 12 40  1  0
 13 41  1  0
 14 42  1  0
 15 43  1  0
 17 44  1  0
 18 45  1  0
 26 46  1  0
 26 47  1  0
 27 48  1  0
 27 49  1  0
 28 50  1  0
 28 51  1  0
 29 52  1  0
 29 53  1  0
M  END
$$$$
