
     RDKit          3D

 52 54  0  0  0  0  0  0  0  0999 V2000
    2.2711   -1.9953   -0.8352 C   0  0  0  0  0  0  0  0  0  0  0  0
    1.3967   -1.6156    0.3540 C   0  0  0  0  0  0  0  0  0  0  0  0
    0.7027   -0.3223    0.2073 N   0  0  0  0  0  0  0  0  0  0  0  0
    1.6121    0.8318    0.3572 C   0  0  0  0  0  0  0  0  0  0  0  0
    2.3259    1.2142   -0.9238 C   0  0  0  0  0  0  0  0  0  0  0  0
    1.5982    1.5003   -2.0889 C   0  0  0  0  0  0  0  0  0  0  0  0
    2.2530    1.8820   -3.2607 C   0  0  0  0  0  0  0  0  0  0  0  0
    3.6417    1.9933   -3.2786 C   0  0  0  0  0  0  0  0  0  0  0  0
    4.3758    1.7299   -2.1238 C   0  0  0  0  0  0  0  0  0  0  0  0
    3.7220    1.3489   -0.9504 C   0  0  0  0  0  0  0  0  0  0  0  0
   -0.4989   -0.2435    1.0842 C   0  0  0  0  0  0  0  0  0  0  0  0
   -0.2152   -0.2879    2.5916 C   0  0  0  0  0  0  0  0  0  0  0  0
   -0.3488   -1.5015    3.2865 C   0  0  0  0  0  0  0  0  0  0  0  0
   -0.0712   -1.5412    4.6450 C   0  0  0  0  0  0  0  0  0  0  0  0
    0.3269   -0.4712    5.3595 N   0  0  0  0  0  0  0  0  0  0  0  0
    0.4477    0.6913    4.6864 C   0  0  0  0  0  0  0  0  0  0  0  0
    0.1978    0.8292    3.3288 C   0  0  0  0  0  0  0  0  0  0  0  0
   -1.4387    0.8599    0.6506 C   0  0  0  0  0  0  0  0  0  0  0  0
   -1.4250    2.1097    1.0869 N   0  0  0  0  0  0  0  0  0  0  0  0
   -2.4286    2.7698    0.4480 N   0  0  0  0  0  0  0  0  0  0  0  0
   -3.0671    1.9635   -0.3773 N   0  0  0  0  0  0  0  0  0  0  0  0
   -2.4515    0.7629   -0.2870 N   0  0  0  0  0  0  0  0  0  0  0  0
   -2.9703   -0.3628   -1.0795 C   0  0  0  0  0  0  0  0  0  0  0  0
   -1.8563   -1.1060   -1.8409 C   0  0  0  0  0  0  0  0  0  0  0  0
   -3.9728    0.1276   -2.1615 C   0  0  0  0  0  0  0  0  0  0  0  0
   -3.7358   -1.3374   -0.1648 C   0  0  0  0  0  0  0  0  0  0  0  0
    1.7360   -1.8657   -1.7816 H   0  0  0  0  0  0  0  0  0  0  0  0
    2.5592   -3.0495   -0.7601 H   0  0  0  0  0  0  0  0  0  0  0  0
    3.1955   -1.4153   -0.8657 H   0  0  0  0  0  0  0  0  0  0  0  0
    1.9920   -1.6519    1.2746 H   0  0  0  0  0  0  0  0  0  0  0  0
    0.6514   -2.4175    0.4346 H   0  0  0  0  0  0  0  0  0  0  0  0
    1.0734    1.7411    0.6446 H   0  0  0  0  0  0  0  0  0  0  0  0
    2.3359    0.6522    1.1629 H   0  0  0  0  0  0  0  0  0  0  0  0
    0.5131    1.4336   -2.0816 H   0  0  0  0  0  0  0  0  0  0  0  0
    1.6777    2.0997   -4.1565 H   0  0  0  0  0  0  0  0  0  0  0  0
    4.1510    2.2934   -4.1904 H   0  0  0  0  0  0  0  0  0  0  0  0
    5.4583    1.8254   -2.1354 H   0  0  0  0  0  0  0  0  0  0  0  0
    4.3104    1.1533   -0.0571 H   0  0  0  0  0  0  0  0  0  0  0  0
   -1.0686   -1.1588    0.8966 H   0  0  0  0  0  0  0  0  0  0  0  0
   -0.6607   -2.4120    2.7850 H   0  0  0  0  0  0  0  0  0  0  0  0
   -0.1643   -2.4647    5.2094 H   0  0  0  0  0  0  0  0  0  0  0  0
    0.7609    1.5430    5.2840 H   0  0  0  0  0  0  0  0  0  0  0  0
    0.3187    1.8064    2.8725 H   0  0  0  0  0  0  0  0  0  0  0  0
   -1.2069   -0.4066   -2.3786 H   0  0  0  0  0  0  0  0  0  0  0  0
   -1.2324   -1.7135   -1.1833 H   0  0  0  0  0  0  0  0  0  0  0  0
   -2.2768   -1.8007   -2.5780 H   0  0  0  0  0  0  0  0  0  0  0  0
   -3.5001    0.8403   -2.8480 H   0  0  0  0  0  0  0  0  0  0  0  0
   -4.8459    0.6182   -1.7150 H   0  0  0  0  0  0  0  0  0  0  0  0
   -4.3498   -0.7088   -2.7622 H   0  0  0  0  0  0  0  0  0  0  0  0
   -4.1748   -2.1589   -0.7427 H   0  0  0  0  0  0  0  0  0  0  0  0
   -3.0935   -1.7863    0.5979 H   0  0  0  0  0  0  0  0  0  0  0  0
   -4.5511   -0.8261    0.3608 H   0  0  0  0  0  0  0  0  0  0  0  0
  1  2  1  0
  2  3  1  0
  3  4  1  0
  4  5  1  0
  5  6  2  0
  6  7  1  0
  7  8  2  0
  8  9  1  0
  9 10  2  0
  3 11  1  0
 11 12  1  0
 12 13  2  0
 13 14  1  0
 14 15  2  0
 15 16  1  0
 16 17  2  0
 11 18  1  0
 18 19  2  0
 19 20  1  0
 20 21  2  0
 21 22  1  0
 22 23  1  0
 23 24  1  0
 23 25  1  0
 23 26  1  0
 10  5  1  0
 17 12  1  0
 22 18  1  0
  1 27  1  0
  1 28  1  0
  1 29  1  0
  2 30  1  0
  2 31  1  0
  4 32  1  0
  4 33  1  0
  6 34  1  0
  7 35  1  0
  8 36  1  0
  9 37  1  0
 10 38  1  0
 11 39  1  0
 13 40  1  0
 14 41  1  0
 16 42  1  0
 17 43  1  0
 24 44  1  0
 24 45  1  0
 24 46  1  0
 25 47  1  0
 25 48  1  0
 25 49  1  0
 26 50  1  0
 26 51  1  0
 26 52  1  0
M  END
$$$$
