
     RDKit          3D

 55 57  0  0  0  0  0  0  0  0999 V2000
    0.4033    2.2199   -0.9953 O   0  0  0  0  0  0  0  0  0  0  0  0
    0.3963    1.0045   -1.1554 C   0  0  0  0  0  0  0  0  0  0  0  0
   -0.7168    0.2194   -0.9312 N   0  0  0  0  0  0  0  0  0  0  0  0
   -1.9919    0.8014   -0.5530 C   0  0  0  0  0  0  0  0  0  0  0  0
   -2.7790    1.2625   -1.7748 C   0  0  0  0  0  0  0  0  0  0  0  0
   -4.0844    2.0048   -1.4655 C   0  0  0  0  0  0  0  0  0  0  0  0
   -5.1720    1.2991   -0.6435 C   0  0  0  0  0  0  0  0  0  0  0  0
   -5.4002   -0.1953   -0.9113 C   0  0  0  0  0  0  0  0  0  0  0  0
   -5.6653   -0.8336    0.4542 C   0  0  0  0  0  0  0  0  0  0  0  0
   -5.9304    0.3257    1.4008 C   0  0  0  0  0  0  0  0  0  0  0  0
   -5.0156    1.4209    0.8745 C   0  0  0  0  0  0  0  0  0  0  0  0
    1.6209    0.2168   -1.5954 C   0  0  0  0  0  0  0  0  0  0  0  0
    2.7350    1.1302   -2.0917 C   0  0  0  0  0  0  0  0  0  0  0  0
    3.9053    0.2901   -2.5658 C   0  0  0  0  0  0  0  0  0  0  0  0
    4.3686   -0.7596   -1.5734 C   0  0  0  0  0  0  0  0  0  0  0  0
    5.5236   -1.1832   -1.6284 O   0  0  0  0  0  0  0  0  0  0  0  0
    3.4145   -1.2817   -0.7090 N   0  0  0  0  0  0  0  0  0  0  0  0
    3.8356   -2.3156    0.2376 C   0  0  0  0  0  0  0  0  0  0  0  0
    4.1971   -1.7610    1.5975 C   0  0  0  0  0  0  0  0  0  0  0  0
    5.4138   -1.0889    1.7896 C   0  0  0  0  0  0  0  0  0  0  0  0
    5.7423   -0.5573    3.0388 C   0  0  0  0  0  0  0  0  0  0  0  0
    4.8551   -0.6945    4.1039 C   0  0  0  0  0  0  0  0  0  0  0  0
    5.2569   -0.0389    5.6430 Cl  0  0  0  0  0  0  0  0  0  0  0  0
    3.6433   -1.3595    3.9308 C   0  0  0  0  0  0  0  0  0  0  0  0
    3.3144   -1.8910    2.6812 C   0  0  0  0  0  0  0  0  0  0  0  0
    2.1611   -0.5849   -0.4186 C   0  0  0  0  0  0  0  0  0  0  0  0
   -0.7203   -0.7361   -1.2639 H   0  0  0  0  0  0  0  0  0  0  0  0
   -2.5316    0.0193   -0.0120 H   0  0  0  0  0  0  0  0  0  0  0  0
   -1.8117    1.6406    0.1280 H   0  0  0  0  0  0  0  0  0  0  0  0
   -2.9779    0.4071   -2.4322 H   0  0  0  0  0  0  0  0  0  0  0  0
   -2.1498    1.9379   -2.3708 H   0  0  0  0  0  0  0  0  0  0  0  0
   -3.8421    2.9614   -0.9844 H   0  0  0  0  0  0  0  0  0  0  0  0
   -4.5278    2.2681   -2.4358 H   0  0  0  0  0  0  0  0  0  0  0  0
   -6.1154    1.8111   -0.8885 H   0  0  0  0  0  0  0  0  0  0  0  0
   -6.2681   -0.3252   -1.5698 H   0  0  0  0  0  0  0  0  0  0  0  0
   -4.5589   -0.6981   -1.3954 H   0  0  0  0  0  0  0  0  0  0  0  0
   -6.4975   -1.5438    0.4252 H   0  0  0  0  0  0  0  0  0  0  0  0
   -4.7717   -1.3814    0.7806 H   0  0  0  0  0  0  0  0  0  0  0  0
   -5.7177    0.0687    2.4422 H   0  0  0  0  0  0  0  0  0  0  0  0
   -6.9797    0.6398    1.3324 H   0  0  0  0  0  0  0  0  0  0  0  0
   -3.9877    1.2415    1.2030 H   0  0  0  0  0  0  0  0  0  0  0  0
   -5.3147    2.4099    1.2399 H   0  0  0  0  0  0  0  0  0  0  0  0
    1.3213   -0.4565   -2.4093 H   0  0  0  0  0  0  0  0  0  0  0  0
    3.0636    1.8044   -1.2900 H   0  0  0  0  0  0  0  0  0  0  0  0
    2.3782    1.7650   -2.9115 H   0  0  0  0  0  0  0  0  0  0  0  0
    3.6411   -0.2337   -3.4921 H   0  0  0  0  0  0  0  0  0  0  0  0
    4.7522    0.9501   -2.7855 H   0  0  0  0  0  0  0  0  0  0  0  0
    4.6898   -2.8767   -0.1591 H   0  0  0  0  0  0  0  0  0  0  0  0
    3.0157   -3.0389    0.3246 H   0  0  0  0  0  0  0  0  0  0  0  0
    6.1136   -0.9756    0.9618 H   0  0  0  0  0  0  0  0  0  0  0  0
    6.6878   -0.0384    3.1702 H   0  0  0  0  0  0  0  0  0  0  0  0
    2.9513   -1.4658    4.7627 H   0  0  0  0  0  0  0  0  0  0  0  0
    2.3635   -2.4053    2.5600 H   0  0  0  0  0  0  0  0  0  0  0  0
    2.3380    0.0754    0.4396 H   0  0  0  0  0  0  0  0  0  0  0  0
    1.4248   -1.3360   -0.1092 H   0  0  0  0  0  0  0  0  0  0  0  0
  1  2  2  0
  2  3  1  0
  3  4  1  0
  4  5  1  0
  5  6  1  0
  6  7  1  0
  7  8  1  0
  8  9  1  0
  9 10  1  0
 10 11  1  0
  2 12  1  0
 12 13  1  0
 13 14  1  0
 14 15  1  0
 15 16  2  0
 15 17  1  0
 17 18  1  0
 18 19  1  0
 19 20  2  0
 20 21  1  0
 21 22  2  0
 22 23  1  0
 22 24  1  0
 24 25  2  0
 17 26  1  0
 11  7  1  0
 26 12  1  0
 25 19  1  0
  3 27  1  0
  4 28  1  0
  4 29  1  0
  5 30  1  0
  5 31  1  0
  6 32  1  0
  6 33  1  0
  7 34  1  0
  8 35  1  0
  8 36  1  0
  9 37  1  0
  9 38  1  0
 10 39  1  0
 10 40  1  0
 11 41  1  0
 11 42  1  0
 12 43  1  0
 13 44  1  0
 13 45  1  0
 14 46  1  0
 14 47  1  0
 18 48  1  0
 18 49  1  0
 20 50  1  0
 21 51  1  0
 24 52  1  0
 25 53  1  0
 26 54  1  0
 26 55  1  0
M  END
$$$$
