
     RDKit          3D

 49 52  0  0  0  0  0  0  0  0999 V2000
   -7.6063   -1.1638   -0.8226 C   0  0  0  0  0  0  0  0  0  0  0  0
   -6.5102   -0.3521   -0.1958 C   0  0  0  0  0  0  0  0  0  0  0  0
   -5.3256   -0.9671    0.2316 C   0  0  0  0  0  0  0  0  0  0  0  0
   -4.2965   -0.2077    0.7890 C   0  0  0  0  0  0  0  0  0  0  0  0
   -4.4490    1.1773    0.9029 C   0  0  0  0  0  0  0  0  0  0  0  0
   -3.1313    2.1327    1.5982 S   0  0  0  0  0  6  0  0  0  0  0  0
   -2.7225    1.4946    2.8341 O   0  0  0  0  0  0  0  0  0  0  0  0
   -3.4712    3.5415    1.5381 O   0  0  0  0  0  0  0  0  0  0  0  0
   -1.8067    1.9423    0.4905 C   0  0  0  0  0  0  0  0  0  0  0  0
   -0.6819    1.1899    0.8309 N   0  0  0  0  0  0  0  0  0  0  0  0
    0.1840    1.1667   -0.1573 C   0  0  0  0  0  0  0  0  0  0  0  0
    1.3792    0.5488   -0.1815 N   0  0  0  0  0  0  0  0  0  0  0  0
    2.0141   -0.2644    0.7845 C   0  0  0  0  0  0  0  0  0  0  0  0
    1.4814   -0.5589    2.0433 C   0  0  0  0  0  0  0  0  0  0  0  0
    2.1745   -1.3809    2.9353 C   0  0  0  0  0  0  0  0  0  0  0  0
    3.4107   -1.9146    2.5823 C   0  0  0  0  0  0  0  0  0  0  0  0
    3.9644   -1.6260    1.3351 C   0  0  0  0  0  0  0  0  0  0  0  0
    3.2821   -0.8036    0.4263 C   0  0  0  0  0  0  0  0  0  0  0  0
    3.8171   -0.4533   -0.8440 N   0  0  0  0  0  0  0  0  0  0  0  0
    4.2699   -1.5986   -1.6726 C   0  0  0  0  0  0  0  0  0  0  0  0
    5.7982   -1.6238   -1.8313 C   0  0  0  0  0  0  0  0  0  0  0  0
    6.3367   -0.4200   -2.3991 O   0  0  0  0  0  0  0  0  0  0  0  0
    5.6049    0.7619   -2.0336 C   0  0  0  0  0  0  0  0  0  0  0  0
    4.8337    0.6218   -0.7124 C   0  0  0  0  0  0  0  0  0  0  0  0
   -0.3277    2.0358   -1.5645 S   0  0  0  0  0  0  0  0  0  0  0  0
   -1.7764    2.4502   -0.7834 C   0  0  0  0  0  0  0  0  0  0  0  0
   -2.9418    3.3696   -1.6432 Cl  0  0  0  0  0  0  0  0  0  0  0  0
   -5.6221    1.8053    0.4810 C   0  0  0  0  0  0  0  0  0  0  0  0
   -6.6466    1.0382   -0.0751 C   0  0  0  0  0  0  0  0  0  0  0  0
   -7.5260   -1.1212   -1.9131 H   0  0  0  0  0  0  0  0  0  0  0  0
   -8.5886   -0.7847   -0.5220 H   0  0  0  0  0  0  0  0  0  0  0  0
   -7.5519   -2.2111   -0.5076 H   0  0  0  0  0  0  0  0  0  0  0  0
   -5.2014   -2.0444    0.1385 H   0  0  0  0  0  0  0  0  0  0  0  0
   -3.3893   -0.7007    1.1341 H   0  0  0  0  0  0  0  0  0  0  0  0
    1.9452    0.5721   -1.0286 H   0  0  0  0  0  0  0  0  0  0  0  0
    0.5225   -0.1579    2.3568 H   0  0  0  0  0  0  0  0  0  0  0  0
    1.7438   -1.5989    3.9096 H   0  0  0  0  0  0  0  0  0  0  0  0
    3.9471   -2.5492    3.2827 H   0  0  0  0  0  0  0  0  0  0  0  0
    4.9380   -2.0369    1.0903 H   0  0  0  0  0  0  0  0  0  0  0  0
    3.9069   -2.5602   -1.2897 H   0  0  0  0  0  0  0  0  0  0  0  0
    3.8196   -1.4647   -2.6638 H   0  0  0  0  0  0  0  0  0  0  0  0
    6.0922   -2.4517   -2.4847 H   0  0  0  0  0  0  0  0  0  0  0  0
    6.2898   -1.7847   -0.8657 H   0  0  0  0  0  0  0  0  0  0  0  0
    6.3245    1.5845   -1.9666 H   0  0  0  0  0  0  0  0  0  0  0  0
    4.9166    0.9916   -2.8555 H   0  0  0  0  0  0  0  0  0  0  0  0
    5.5448    0.3946    0.0923 H   0  0  0  0  0  0  0  0  0  0  0  0
    4.3363    1.5696   -0.4770 H   0  0  0  0  0  0  0  0  0  0  0  0
   -5.7479    2.8820    0.5747 H   0  0  0  0  0  0  0  0  0  0  0  0
   -7.5569    1.5304   -0.4120 H   0  0  0  0  0  0  0  0  0  0  0  0
  1  2  1  0
  2  3  2  0
  3  4  1  0
  4  5  2  0
  5  6  1  0
  6  7  2  0
  6  8  2  0
  6  9  1  0
  9 10  1  0
 10 11  2  0
 11 12  1  0
 12 13  1  0
 13 14  2  0
 14 15  1  0
 15 16  2  0
 16 17  1  0
 17 18  2  0
 18 19  1  0
 19 20  1  0
 20 21  1  0
 21 22  1  0
 22 23  1  0
 23 24  1  0
 11 25  1  0
 25 26  1  0
 26 27  1  0
  5 28  1  0
 28 29  2  0
 29  2  1  0
 26  9  2  0
 18 13  1  0
 24 19  1  0
  1 30  1  0
  1 31  1  0
  1 32  1  0
  3 33  1  0
  4 34  1  0
 12 35  1  0
 14 36  1  0
 15 37  1  0
 16 38  1  0
 17 39  1  0
 20 40  1  0
 20 41  1  0
 21 42  1  0
 21 43  1  0
 23 44  1  0
 23 45  1  0
 24 46  1  0
 24 47  1  0
 28 48  1  0
 29 49  1  0
M  END
$$$$
