
     RDKit          3D

 52 57  0  0  0  0  0  0  0  0999 V2000
    0.8127    1.8101   -3.0997 C   0  0  0  0  0  0  0  0  0  0  0  0
    1.3110    0.8915   -2.0477 C   0  0  0  0  0  0  0  0  0  0  0  0
    2.6253    0.7092   -1.8968 N   0  0  0  0  0  0  0  0  0  0  0  0
    2.7628   -0.1846   -0.8646 N   0  0  0  0  0  0  0  0  0  0  0  0
    4.0689   -0.5849   -0.4457 C   0  0  0  0  0  0  0  0  0  0  0  0
    4.2702   -1.4862    0.6072 C   0  0  0  0  0  0  0  0  0  0  0  0
    5.5667   -1.8509    0.9867 C   0  0  0  0  0  0  0  0  0  0  0  0
    6.6708   -1.3214    0.3226 C   0  0  0  0  0  0  0  0  0  0  0  0
    6.4836   -0.4237   -0.7247 C   0  0  0  0  0  0  0  0  0  0  0  0
    5.1912   -0.0560   -1.1080 C   0  0  0  0  0  0  0  0  0  0  0  0
    1.5105   -0.5675   -0.3874 C   0  0  0  0  0  0  0  0  0  0  0  0
    0.5798    0.1352   -1.1174 C   0  0  0  0  0  0  0  0  0  0  0  0
   -0.8675   -0.0614   -0.8384 C   0  0  0  0  0  0  0  0  0  0  0  0
   -1.3356    1.2879   -0.2807 C   0  0  0  0  0  0  0  0  0  0  0  0
   -2.1283    2.1387   -1.0755 C   0  0  0  0  0  0  0  0  0  0  0  0
   -2.5682    3.3731   -0.5884 C   0  0  0  0  0  0  0  0  0  0  0  0
   -2.2154    3.7718    0.7066 C   0  0  0  0  0  0  0  0  0  0  0  0
   -2.6797    5.0662    1.2212 N   0  0  0  0  0  4  0  0  0  0  0  0
   -2.3658    5.3741    2.3795 O   0  0  0  0  0  0  0  0  0  0  0  0
   -3.3629    5.7732    0.4661 O   0  0  0  0  0  1  0  0  0  0  0  0
   -1.4255    2.9461    1.5129 C   0  0  0  0  0  0  0  0  0  0  0  0
   -0.9901    1.7134    1.0184 C   0  0  0  0  0  0  0  0  0  0  0  0
   -1.1269   -1.1634    0.1129 N   0  0  0  0  0  0  0  0  0  0  0  0
   -0.0285   -1.7247    0.7935 C   0  0  0  0  0  0  0  0  0  0  0  0
    1.2397   -1.4620    0.5966 N   0  0  0  0  0  0  0  0  0  0  0  0
   -0.2971   -2.7686    1.9050 C   0  0  0  0  0  0  0  0  0  0  0  0
    0.5992   -3.2291    2.5980 O   0  0  0  0  0  0  0  0  0  0  0  0
   -1.6036   -3.1455    2.0665 N   0  0  0  0  0  0  0  0  0  0  0  0
   -2.6623   -2.6342    1.3118 C   0  0  0  0  0  0  0  0  0  0  0  0
   -3.9431   -3.1365    1.5716 C   0  0  0  0  0  0  0  0  0  0  0  0
   -5.0334   -2.6679    0.8479 C   0  0  0  0  0  0  0  0  0  0  0  0
   -4.8400   -1.7032   -0.1326 C   0  0  0  0  0  0  0  0  0  0  0  0
   -3.5572   -1.2018   -0.3878 C   0  0  0  0  0  0  0  0  0  0  0  0
   -2.4336   -1.6452    0.3306 C   0  0  0  0  0  0  0  0  0  0  0  0
   -0.1131    1.4296   -3.5424 H   0  0  0  0  0  0  0  0  0  0  0  0
    0.6143    2.7997   -2.6763 H   0  0  0  0  0  0  0  0  0  0  0  0
    1.5434    1.9246   -3.9073 H   0  0  0  0  0  0  0  0  0  0  0  0
    3.4473   -1.9276    1.1607 H   0  0  0  0  0  0  0  0  0  0  0  0
    5.7093   -2.5516    1.8059 H   0  0  0  0  0  0  0  0  0  0  0  0
    7.6752   -1.6083    0.6221 H   0  0  0  0  0  0  0  0  0  0  0  0
    7.3416   -0.0071   -1.2457 H   0  0  0  0  0  0  0  0  0  0  0  0
    5.0754    0.6481   -1.9300 H   0  0  0  0  0  0  0  0  0  0  0  0
   -1.3574   -0.2801   -1.7960 H   0  0  0  0  0  0  0  0  0  0  0  0
   -2.4107    1.8471   -2.0860 H   0  0  0  0  0  0  0  0  0  0  0  0
   -3.1801    4.0083   -1.2264 H   0  0  0  0  0  0  0  0  0  0  0  0
   -1.1378    3.2433    2.5197 H   0  0  0  0  0  0  0  0  0  0  0  0
   -0.3681    1.0863    1.6569 H   0  0  0  0  0  0  0  0  0  0  0  0
   -1.7677   -3.8405    2.7818 H   0  0  0  0  0  0  0  0  0  0  0  0
   -4.1013   -3.8946    2.3344 H   0  0  0  0  0  0  0  0  0  0  0  0
   -6.0296   -3.0558    1.0458 H   0  0  0  0  0  0  0  0  0  0  0  0
   -5.6891   -1.3361   -0.7053 H   0  0  0  0  0  0  0  0  0  0  0  0
   -3.4792   -0.4573   -1.1723 H   0  0  0  0  0  0  0  0  0  0  0  0
  1  2  1  0
  2  3  2  0
  3  4  1  0
  4  5  1  0
  5  6  2  0
  6  7  1  0
  7  8  2  0
  8  9  1  0
  9 10  2  0
  4 11  1  0
 11 12  2  0
 12 13  1  0
 13 14  1  0
 14 15  2  0
 15 16  1  0
 16 17  2  0
 17 18  1  0
 18 19  2  0
 18 20  1  0
 17 21  1  0
 21 22  2  0
 13 23  1  0
 23 24  1  0
 24 25  2  0
 24 26  1  0
 26 27  2  0
 26 28  1  0
 28 29  1  0
 29 30  2  0
 30 31  1  0
 31 32  2  0
 32 33  1  0
 33 34  2  0
 12  2  1  0
 22 14  1  0
 34 23  1  0
 10  5  1  0
 25 11  1  0
 34 29  1  0
  1 35  1  0
  1 36  1  0
  1 37  1  0
  6 38  1  0
  7 39  1  0
  8 40  1  0
  9 41  1  0
 10 42  1  0
 13 43  1  0
 15 44  1  0
 16 45  1  0
 21 46  1  0
 22 47  1  0
 28 48  1  0
 30 49  1  0
 31 50  1  0
 32 51  1  0
 33 52  1  0
M  CHG  2  18   1  20  -1
M  END
$$$$
