
     RDKit          3D

 61 65  0  0  0  0  0  0  0  0999 V2000
   -3.7777   -0.4700   -3.7135 C   0  0  0  0  0  0  0  0  0  0  0  0
   -4.1206   -0.0205   -2.4086 O   0  0  0  0  0  0  0  0  0  0  0  0
   -4.4047   -0.9769   -1.4661 C   0  0  0  0  0  0  0  0  0  0  0  0
   -4.5956   -2.3339   -1.7535 C   0  0  0  0  0  0  0  0  0  0  0  0
   -4.8969   -3.2409   -0.7332 C   0  0  0  0  0  0  0  0  0  0  0  0
   -5.0123   -2.8025    0.5827 C   0  0  0  0  0  0  0  0  0  0  0  0
   -4.8284   -1.4536    0.8819 C   0  0  0  0  0  0  0  0  0  0  0  0
   -4.5276   -0.5309   -0.1338 C   0  0  0  0  0  0  0  0  0  0  0  0
   -4.3222    0.8787    0.2255 C   0  0  0  0  0  0  0  0  0  0  0  0
   -5.6964    1.8590    0.4936 S   0  0  0  0  0  0  0  0  0  0  0  0
   -4.7460    3.2576    0.8041 C   0  0  0  0  0  0  0  0  0  0  0  0
   -5.2194    4.5490    1.1128 C   0  0  0  0  0  0  0  0  0  0  0  0
   -4.2982    5.5741    1.3375 C   0  0  0  0  0  0  0  0  0  0  0  0
   -2.9359    5.3251    1.2598 C   0  0  0  0  0  0  0  0  0  0  0  0
   -2.4709    4.0426    0.9535 C   0  0  0  0  0  0  0  0  0  0  0  0
   -3.3802    2.9788    0.7164 C   0  0  0  0  0  0  0  0  0  0  0  0
   -3.1461    1.5923    0.3842 C   0  0  0  0  0  0  0  0  0  0  0  0
   -1.8437    0.9647    0.2041 C   0  0  0  0  0  0  0  0  0  0  0  0
   -1.1693    1.0930   -1.0124 C   0  0  0  0  0  0  0  0  0  0  0  0
    0.0782    0.4901   -1.1833 C   0  0  0  0  0  0  0  0  0  0  0  0
    0.6664   -0.2382   -0.1453 C   0  0  0  0  0  0  0  0  0  0  0  0
    1.8843   -0.7786   -0.4510 O   0  0  0  0  0  0  0  0  0  0  0  0
    2.5696   -1.4779    0.5892 C   0  0  0  0  0  0  0  0  0  0  0  0
    3.9311   -1.9813    0.0669 C   0  0  0  0  0  0  0  0  0  0  0  0
    4.8777   -0.9341   -0.3703 N   0  0  0  0  0  0  0  0  0  0  0  0
    6.0550   -1.5071   -1.0417 C   0  0  0  0  0  0  0  0  0  0  0  0
    7.0453   -2.1820   -0.0873 C   0  0  0  0  0  0  0  0  0  0  0  0
    7.4579   -1.2431    1.0431 C   0  0  0  0  0  0  0  0  0  0  0  0
    6.2369   -0.6272    1.7198 C   0  0  0  0  0  0  0  0  0  0  0  0
    5.2913   -0.0052    0.6893 C   0  0  0  0  0  0  0  0  0  0  0  0
   -0.0059   -0.3601    1.0721 C   0  0  0  0  0  0  0  0  0  0  0  0
   -1.2577    0.2416    1.2474 C   0  0  0  0  0  0  0  0  0  0  0  0
   -3.4816    0.4048   -4.2993 H   0  0  0  0  0  0  0  0  0  0  0  0
   -2.9240   -1.1573   -3.6882 H   0  0  0  0  0  0  0  0  0  0  0  0
   -4.6400   -0.9259   -4.2124 H   0  0  0  0  0  0  0  0  0  0  0  0
   -4.5242   -2.7183   -2.7654 H   0  0  0  0  0  0  0  0  0  0  0  0
   -5.0438   -4.2920   -0.9702 H   0  0  0  0  0  0  0  0  0  0  0  0
   -5.2465   -3.5083    1.3752 H   0  0  0  0  0  0  0  0  0  0  0  0
   -4.9184   -1.1191    1.9131 H   0  0  0  0  0  0  0  0  0  0  0  0
   -6.2860    4.7456    1.1727 H   0  0  0  0  0  0  0  0  0  0  0  0
   -4.6544    6.5741    1.5738 H   0  0  0  0  0  0  0  0  0  0  0  0
   -2.2248    6.1285    1.4357 H   0  0  0  0  0  0  0  0  0  0  0  0
   -1.4001    3.8604    0.8934 H   0  0  0  0  0  0  0  0  0  0  0  0
   -1.6156    1.6497   -1.8328 H   0  0  0  0  0  0  0  0  0  0  0  0
    0.5973    0.5870   -2.1338 H   0  0  0  0  0  0  0  0  0  0  0  0
    2.7068   -0.8363    1.4663 H   0  0  0  0  0  0  0  0  0  0  0  0
    1.9791   -2.3549    0.8829 H   0  0  0  0  0  0  0  0  0  0  0  0
    3.7163   -2.6200   -0.8003 H   0  0  0  0  0  0  0  0  0  0  0  0
    4.3788   -2.6230    0.8345 H   0  0  0  0  0  0  0  0  0  0  0  0
    6.5726   -0.6996   -1.5773 H   0  0  0  0  0  0  0  0  0  0  0  0
    5.7453   -2.2174   -1.8184 H   0  0  0  0  0  0  0  0  0  0  0  0
    7.9357   -2.4958   -0.6446 H   0  0  0  0  0  0  0  0  0  0  0  0
    6.6021   -3.0924    0.3344 H   0  0  0  0  0  0  0  0  0  0  0  0
    8.0632   -1.7835    1.7796 H   0  0  0  0  0  0  0  0  0  0  0  0
    8.0878   -0.4419    0.6357 H   0  0  0  0  0  0  0  0  0  0  0  0
    5.7111   -1.3929    2.3033 H   0  0  0  0  0  0  0  0  0  0  0  0
    6.5624    0.1419    2.4304 H   0  0  0  0  0  0  0  0  0  0  0  0
    4.4256    0.4348    1.1949 H   0  0  0  0  0  0  0  0  0  0  0  0
    5.7992    0.8467    0.2165 H   0  0  0  0  0  0  0  0  0  0  0  0
    0.4107   -0.9172    1.9037 H   0  0  0  0  0  0  0  0  0  0  0  0
   -1.7725    0.1399    2.1997 H   0  0  0  0  0  0  0  0  0  0  0  0
  1  2  1  0
  2  3  1  0
  3  4  2  0
  4  5  1  0
  5  6  2  0
  6  7  1  0
  7  8  2  0
  8  9  1  0
  9 10  1  0
 10 11  1  0
 11 12  2  0
 12 13  1  0
 13 14  2  0
 14 15  1  0
 15 16  2  0
 16 17  1  0
 17 18  1  0
 18 19  2  0
 19 20  1  0
 20 21  2  0
 21 22  1  0
 22 23  1  0
 23 24  1  0
 24 25  1  0
 25 26  1  0
 26 27  1  0
 27 28  1  0
 28 29  1  0
 29 30  1  0
 21 31  1  0
 31 32  2  0
  8  3  1  0
 17  9  2  0
 32 18  1  0
 16 11  1  0
 30 25  1  0
  1 33  1  0
  1 34  1  0
  1 35  1  0
  4 36  1  0
  5 37  1  0
  6 38  1  0
  7 39  1  0
 12 40  1  0
 13 41  1  0
 14 42  1  0
 15 43  1  0
 19 44  1  0
 20 45  1  0
 23 46  1  0
 23 47  1  0
 24 48  1  0
 24 49  1  0
 26 50  1  0
 26 51  1  0
 27 52  1  0
 27 53  1  0
 28 54  1  0
 28 55  1  0
 29 56  1  0
 29 57  1  0
 30 58  1  0
 30 59  1  0
 31 60  1  0
 32 61  1  0
M  END
$$$$
