
     RDKit          3D

 40 41  0  0  0  0  0  0  0  0999 V2000
    2.1771    3.4524    1.3002 O   0  0  0  0  0  0  0  0  0  0  0  0
    1.6980    3.2236    0.2023 C   0  0  0  0  0  0  0  0  0  0  0  0
    2.4655    3.2727   -0.9021 O   0  0  0  0  0  0  0  0  0  0  0  0
    0.2573    2.9283   -0.1038 C   0  0  0  0  0  0  0  0  0  0  0  0
   -0.3069    1.9394    0.9163 C   0  0  0  0  0  0  0  0  0  0  0  0
   -1.7990    1.9744    0.8274 N   0  0  0  0  0  0  0  0  0  0  0  0
   -2.4504    1.6334    2.0983 C   0  0  0  0  0  0  0  0  0  0  0  0
   -2.3312    0.1973    2.4629 C   0  0  0  0  0  0  0  0  0  0  0  0
   -3.0788   -0.9238    2.1655 C   0  0  0  0  0  0  0  0  0  0  0  0
   -2.4360   -2.0127    2.8028 C   0  0  0  0  0  0  0  0  0  0  0  0
   -1.3413   -1.4875    3.4479 C   0  0  0  0  0  0  0  0  0  0  0  0
   -1.2721   -0.1464    3.2507 O   0  0  0  0  0  0  0  0  0  0  0  0
    0.2630    0.5504    0.5727 C   0  0  0  0  0  0  0  0  0  0  0  0
    1.3828    0.1755    0.8997 O   0  0  0  0  0  0  0  0  0  0  0  0
   -0.6106   -0.1607   -0.2049 O   0  0  0  0  0  0  0  0  0  0  0  0
   -0.1147   -1.4091   -0.7179 C   0  0  0  0  0  0  0  0  0  0  0  0
    0.2783   -1.2276   -2.1900 C   0  0  0  0  0  0  0  0  0  0  0  0
    0.8340   -2.4997   -2.8083 C   0  0  0  0  0  0  0  0  0  0  0  0
    2.3101   -2.3881   -2.5152 C   0  0  0  0  0  0  0  0  0  0  0  0
    2.5503   -0.8999   -2.6460 C   0  0  0  0  0  0  0  0  0  0  0  0
    1.3246   -0.2425   -2.2979 O   0  0  0  0  0  0  0  0  0  0  0  0
    3.3659    3.4453   -0.5562 H   0  0  0  0  0  0  0  0  0  0  0  0
   -0.2748    3.8865   -0.0740 H   0  0  0  0  0  0  0  0  0  0  0  0
    0.1741    2.5295   -1.1227 H   0  0  0  0  0  0  0  0  0  0  0  0
    0.0109    2.1977    1.9336 H   0  0  0  0  0  0  0  0  0  0  0  0
   -2.0842    1.2944    0.1178 H   0  0  0  0  0  0  0  0  0  0  0  0
   -2.0755    2.2718    2.9070 H   0  0  0  0  0  0  0  0  0  0  0  0
   -3.5150    1.8758    1.9977 H   0  0  0  0  0  0  0  0  0  0  0  0
   -3.9735   -0.9493    1.5597 H   0  0  0  0  0  0  0  0  0  0  0  0
   -2.7320   -3.0520    2.7945 H   0  0  0  0  0  0  0  0  0  0  0  0
   -0.5540   -1.9095    4.0572 H   0  0  0  0  0  0  0  0  0  0  0  0
   -0.9309   -2.1353   -0.6368 H   0  0  0  0  0  0  0  0  0  0  0  0
    0.7175   -1.7910   -0.1168 H   0  0  0  0  0  0  0  0  0  0  0  0
   -0.5859   -0.8537   -2.7498 H   0  0  0  0  0  0  0  0  0  0  0  0
    0.6802   -2.4772   -3.8941 H   0  0  0  0  0  0  0  0  0  0  0  0
    0.3789   -3.4163   -2.4223 H   0  0  0  0  0  0  0  0  0  0  0  0
    2.9357   -2.9801   -3.1887 H   0  0  0  0  0  0  0  0  0  0  0  0
    2.5160   -2.7126   -1.4889 H   0  0  0  0  0  0  0  0  0  0  0  0
    2.7905   -0.6289   -3.6796 H   0  0  0  0  0  0  0  0  0  0  0  0
    3.3563   -0.5446   -1.9980 H   0  0  0  0  0  0  0  0  0  0  0  0
  1  2  2  0
  2  3  1  0
  2  4  1  0
  4  5  1  0
  5  6  1  0
  6  7  1  0
  7  8  1  0
  8  9  2  0
  9 10  1  0
 10 11  2  0
 11 12  1  0
  5 13  1  0
 13 14  2  0
 13 15  1  0
 15 16  1  0
 16 17  1  0
 17 18  1  0
 18 19  1  0
 19 20  1  0
 20 21  1  0
 12  8  1  0
 21 17  1  0
  3 22  1  0
  4 23  1  0
  4 24  1  0
  5 25  1  0
  6 26  1  0
  7 27  1  0
  7 28  1  0
  9 29  1  0
 10 30  1  0
 11 31  1  0
 16 32  1  0
 16 33  1  0
 17 34  1  0
 18 35  1  0
 18 36  1  0
 19 37  1  0
 19 38  1  0
 20 39  1  0
 20 40  1  0
M  END
$$$$
