
     RDKit          3D

 45 48  0  0  0  0  0  0  0  0999 V2000
   -1.7057    2.7701   -2.7687 C   0  0  0  0  0  0  0  0  0  0  0  0
   -2.3906    2.9651   -1.4295 C   0  0  0  0  0  0  0  0  0  0  0  0
   -2.2841    1.7800   -0.6280 O   0  0  0  0  0  0  0  0  0  0  0  0
   -1.1539    1.6749    0.1208 C   0  0  0  0  0  0  0  0  0  0  0  0
   -0.2148    2.4578    0.1220 O   0  0  0  0  0  0  0  0  0  0  0  0
   -1.2603    0.4888    1.0028 C   0  0  0  0  0  0  0  0  0  0  0  0
   -2.5263    0.4061    1.7620 C   0  0  0  0  0  0  0  0  0  0  0  0
   -2.9909    1.3190    2.4261 O   0  0  0  0  0  0  0  0  0  0  0  0
   -3.0950   -0.8144    1.5741 O   0  0  0  0  0  0  0  0  0  0  0  0
   -4.3574   -0.9807    2.2313 C   0  0  0  0  0  0  0  0  0  0  0  0
   -4.8357   -2.3977    1.9813 C   0  0  0  0  0  0  0  0  0  0  0  0
   -0.2159   -0.3455    1.2545 C   0  0  0  0  0  0  0  0  0  0  0  0
   -0.2094   -1.1893    2.5078 C   0  0  0  0  0  0  0  0  0  0  0  0
    0.9282   -1.6998    3.0461 C   0  0  0  0  0  0  0  0  0  0  0  0
    0.9003   -2.6761    4.6386 Br  0  0  0  0  0  0  0  0  0  0  0  0
    2.1804   -1.5129    2.3713 C   0  0  0  0  0  0  0  0  0  0  0  0
    3.4278   -1.8991    2.6637 N   0  0  0  0  0  0  0  0  0  0  0  0
    4.1929   -1.5444    1.5419 O   0  0  0  0  0  0  0  0  0  0  0  0
    3.3834   -0.9785    0.5948 C   0  0  0  0  0  0  0  0  0  0  0  0
    3.6918   -0.5637   -0.7066 C   0  0  0  0  0  0  0  0  0  0  0  0
    5.0085   -0.6456   -1.1962 C   0  0  0  0  0  0  0  0  0  0  0  0
    5.2754   -0.2494   -2.5020 C   0  0  0  0  0  0  0  0  0  0  0  0
    4.2423    0.2231   -3.3085 C   0  0  0  0  0  0  0  0  0  0  0  0
    2.9300    0.2955   -2.8199 C   0  0  0  0  0  0  0  0  0  0  0  0
    2.6053   -0.1043   -1.5030 C   0  0  0  0  0  0  0  0  0  0  0  0
    1.2887   -0.0734   -0.9384 C   0  0  0  0  0  0  0  0  0  0  0  0
    0.1911    0.1469   -1.7362 O   0  0  0  0  0  0  0  0  0  0  0  0
    1.0370   -0.3539    0.4176 C   0  0  0  0  0  0  0  0  0  0  0  0
    2.1224   -0.8831    1.1176 C   0  0  0  0  0  0  0  0  0  0  0  0
   -1.8748    3.6334   -3.4186 H   0  0  0  0  0  0  0  0  0  0  0  0
   -2.0813    1.8712   -3.2683 H   0  0  0  0  0  0  0  0  0  0  0  0
   -0.6264    2.6405   -2.6426 H   0  0  0  0  0  0  0  0  0  0  0  0
   -1.9941    3.8394   -0.9005 H   0  0  0  0  0  0  0  0  0  0  0  0
   -3.4590    3.1446   -1.5884 H   0  0  0  0  0  0  0  0  0  0  0  0
   -4.2407   -0.8149    3.3082 H   0  0  0  0  0  0  0  0  0  0  0  0
   -5.0808   -0.2662    1.8231 H   0  0  0  0  0  0  0  0  0  0  0  0
   -4.9334   -2.5886    0.9073 H   0  0  0  0  0  0  0  0  0  0  0  0
   -4.1110   -3.1218    2.3685 H   0  0  0  0  0  0  0  0  0  0  0  0
   -5.8024   -2.5739    2.4612 H   0  0  0  0  0  0  0  0  0  0  0  0
   -1.1412   -1.3371    3.0458 H   0  0  0  0  0  0  0  0  0  0  0  0
    5.8174   -1.0122   -0.5679 H   0  0  0  0  0  0  0  0  0  0  0  0
    6.2895   -0.3023   -2.8903 H   0  0  0  0  0  0  0  0  0  0  0  0
    4.4581    0.5465   -4.3246 H   0  0  0  0  0  0  0  0  0  0  0  0
    2.1744    0.7059   -3.4849 H   0  0  0  0  0  0  0  0  0  0  0  0
    0.4402    0.0195   -2.6653 H   0  0  0  0  0  0  0  0  0  0  0  0
  1  2  1  0
  2  3  1  0
  3  4  1  0
  4  5  2  0
  4  6  1  0
  6  7  1  0
  7  8  2  0
  7  9  1  0
  9 10  1  0
 10 11  1  0
  6 12  2  3
 12 13  1  0
 13 14  2  0
 14 15  1  0
 14 16  1  0
 16 17  2  0
 17 18  1  0
 18 19  1  0
 19 20  1  0
 20 21  2  0
 21 22  1  0
 22 23  2  0
 23 24  1  0
 24 25  2  0
 25 26  1  0
 26 27  1  0
 26 28  2  0
 28 29  1  0
 28 12  1  0
 29 16  1  0
 29 19  2  0
 25 20  1  0
  1 30  1  0
  1 31  1  0
  1 32  1  0
  2 33  1  0
  2 34  1  0
 10 35  1  0
 10 36  1  0
 11 37  1  0
 11 38  1  0
 11 39  1  0
 13 40  1  0
 21 41  1  0
 22 42  1  0
 23 43  1  0
 24 44  1  0
 27 45  1  0
M  END
$$$$
