
     RDKit          3D

 29 31  0  0  0  0  0  0  0  0999 V2000
   -5.0843    0.0186   -0.8226 O   0  0  0  0  0  0  0  0  0  0  0  0
   -4.0827    0.3049   -1.4594 C   0  0  0  0  0  0  0  0  0  0  0  0
   -4.0668    1.1248   -2.5525 N   0  0  0  0  0  0  0  0  0  0  0  0
   -2.8724    1.3470   -3.1658 C   0  0  0  0  0  0  0  0  0  0  0  0
   -2.6929    2.3116   -4.4984 S   0  0  0  0  0  0  0  0  0  0  0  0
   -1.6103    0.4743   -2.3330 S   0  0  0  0  0  0  0  0  0  0  0  0
   -2.7050   -0.1818   -1.1703 C   0  0  0  0  0  0  0  0  0  0  0  0
   -2.4849   -1.0022   -0.1342 C   0  0  0  0  0  0  0  0  0  0  0  0
   -1.2199   -1.5267    0.2523 C   0  0  0  0  0  0  0  0  0  0  0  0
   -0.9415   -2.4054    1.2917 C   0  0  0  0  0  0  0  0  0  0  0  0
    0.4539   -2.6451    1.2983 C   0  0  0  0  0  0  0  0  0  0  0  0
    0.9830   -1.8875    0.2833 C   0  0  0  0  0  0  0  0  0  0  0  0
    2.6463   -1.7421   -0.2103 S   0  0  0  0  0  0  0  0  0  0  0  0
    2.7449    0.0578   -0.4624 C   0  0  0  0  0  0  0  0  0  0  0  0
    2.8822    0.7751    0.8323 C   0  0  0  0  0  0  0  0  0  0  0  0
    3.9131    0.9048    1.7427 C   0  0  0  0  0  0  0  0  0  0  0  0
    3.4305    1.7428    2.7767 C   0  0  0  0  0  0  0  0  0  0  0  0
    2.1363    2.0648    2.4348 C   0  0  0  0  0  0  0  0  0  0  0  0
    1.7948    1.4843    1.2552 O   0  0  0  0  0  0  0  0  0  0  0  0
   -0.0238   -1.2305   -0.3541 O   0  0  0  0  0  0  0  0  0  0  0  0
   -4.9219    1.5432   -2.8866 H   0  0  0  0  0  0  0  0  0  0  0  0
   -3.3340   -1.3005    0.4786 H   0  0  0  0  0  0  0  0  0  0  0  0
   -1.6723   -2.8292    1.9675 H   0  0  0  0  0  0  0  0  0  0  0  0
    1.0075   -3.2875    1.9667 H   0  0  0  0  0  0  0  0  0  0  0  0
    3.6274    0.2600   -1.0812 H   0  0  0  0  0  0  0  0  0  0  0  0
    1.8774    0.4226   -1.0233 H   0  0  0  0  0  0  0  0  0  0  0  0
    4.8928    0.4528    1.6645 H   0  0  0  0  0  0  0  0  0  0  0  0
    3.9565    2.0782    3.6589 H   0  0  0  0  0  0  0  0  0  0  0  0
    1.3661    2.6707    2.8936 H   0  0  0  0  0  0  0  0  0  0  0  0
  1  2  2  0
  2  3  1  0
  3  4  1  0
  4  5  2  0
  4  6  1  0
  6  7  1  0
  7  8  2  3
  8  9  1  0
  9 10  2  0
 10 11  1  0
 11 12  2  0
 12 13  1  0
 13 14  1  0
 14 15  1  0
 15 16  2  0
 16 17  1  0
 17 18  2  0
 18 19  1  0
 12 20  1  0
  7  2  1  0
 20  9  1  0
 19 15  1  0
  3 21  1  0
  8 22  1  0
 10 23  1  0
 11 24  1  0
 14 25  1  0
 14 26  1  0
 16 27  1  0
 17 28  1  0
 18 29  1  0
M  END
$$$$
