
     RDKit          3D

 64 68  0  0  0  0  0  0  0  0999 V2000
   -2.7136    1.5585    0.9143 C   0  0  0  0  0  0  0  0  0  0  0  0
   -3.7244    1.6738   -0.2357 C   0  0  0  0  0  0  0  0  0  0  0  0
   -5.0706    1.0837    0.2068 C   0  0  0  0  0  0  0  0  0  0  0  0
   -3.9447    3.1720   -0.5339 C   0  0  0  0  0  0  0  0  0  0  0  0
   -3.1670    0.9916   -1.5151 C   0  0  0  0  0  0  0  0  0  0  0  0
   -2.8978    1.6322   -2.5340 O   0  0  0  0  0  0  0  0  0  0  0  0
   -2.9264   -0.4854   -1.5499 C   0  0  0  0  0  0  0  0  0  0  0  0
   -4.0961   -1.2897   -1.5735 C   0  0  0  0  0  0  0  0  0  0  0  0
   -5.0727   -1.9136   -1.5421 N   0  0  0  0  0  0  0  0  0  0  0  0
   -1.6616   -0.9696   -1.5509 C   0  0  0  0  0  0  0  0  0  0  0  0
   -0.2792    0.0614   -1.2326 S   0  0  0  0  0  0  0  0  0  0  0  0
    0.6778   -1.2857   -0.7715 C   0  0  0  0  0  0  0  0  0  0  0  0
    1.8234   -1.2761   -0.0705 C   0  0  0  0  0  0  0  0  0  0  0  0
    2.5010   -0.1382    0.4578 C   0  0  0  0  0  0  0  0  0  0  0  0
    2.9936    0.9132   -0.2777 C   0  0  0  0  0  0  0  0  0  0  0  0
    3.6026    1.7722    0.6098 N   0  0  0  0  0  0  0  0  0  0  0  0
    4.2283    3.0207    0.3338 C   0  0  0  0  0  0  0  0  0  0  0  0
    4.3226    3.5165   -0.9738 C   0  0  0  0  0  0  0  0  0  0  0  0
    4.9233    4.7568   -1.2098 C   0  0  0  0  0  0  0  0  0  0  0  0
    5.4280    5.5082   -0.1502 C   0  0  0  0  0  0  0  0  0  0  0  0
    5.3482    5.0166    1.1505 C   0  0  0  0  0  0  0  0  0  0  0  0
    4.7509    3.7782    1.3942 C   0  0  0  0  0  0  0  0  0  0  0  0
    3.5443    1.2919    1.8772 N   0  0  0  0  0  0  0  0  0  0  0  0
    2.8653    0.1383    1.8040 C   0  0  0  0  0  0  0  0  0  0  0  0
    2.5912   -0.6343    3.0118 C   0  0  0  0  0  0  0  0  0  0  0  0
    3.5401   -0.7451    4.0313 C   0  0  0  0  0  0  0  0  0  0  0  0
    3.2529   -1.4956    5.1708 C   0  0  0  0  0  0  0  0  0  0  0  0
    2.0152   -2.1111    5.2577 C   0  0  0  0  0  0  0  0  0  0  0  0
    1.0639   -2.0191    4.3039 N   0  0  0  0  0  0  0  0  0  0  0  0
    1.3733   -1.2768    3.2114 C   0  0  0  0  0  0  0  0  0  0  0  0
    0.0490   -2.5652   -1.1898 C   0  0  0  0  0  0  0  0  0  0  0  0
    0.6442   -3.6331   -1.1394 O   0  0  0  0  0  0  0  0  0  0  0  0
   -1.2573   -2.3089   -1.6489 N   0  0  0  0  0  0  0  0  0  0  0  0
   -1.9630   -3.3640   -2.3139 C   0  0  0  0  0  0  0  0  0  0  0  0
   -1.9691   -4.6677   -1.7945 C   0  0  0  0  0  0  0  0  0  0  0  0
   -2.6522   -5.6937   -2.4534 C   0  0  0  0  0  0  0  0  0  0  0  0
   -3.3241   -5.4228   -3.6359 C   0  0  0  0  0  0  0  0  0  0  0  0
   -3.9779   -6.4064   -4.2643 F   0  0  0  0  0  0  0  0  0  0  0  0
   -3.3117   -4.1482   -4.1852 C   0  0  0  0  0  0  0  0  0  0  0  0
   -2.6248   -3.1216   -3.5313 C   0  0  0  0  0  0  0  0  0  0  0  0
   -1.7615    2.0340    0.6503 H   0  0  0  0  0  0  0  0  0  0  0  0
   -2.5066    0.5131    1.1736 H   0  0  0  0  0  0  0  0  0  0  0  0
   -3.0846    2.0529    1.8204 H   0  0  0  0  0  0  0  0  0  0  0  0
   -5.7740    1.0264   -0.6308 H   0  0  0  0  0  0  0  0  0  0  0  0
   -4.9561    0.0789    0.6258 H   0  0  0  0  0  0  0  0  0  0  0  0
   -5.5337    1.6972    0.9881 H   0  0  0  0  0  0  0  0  0  0  0  0
   -4.7041    3.3116   -1.3131 H   0  0  0  0  0  0  0  0  0  0  0  0
   -3.0213    3.6541   -0.8797 H   0  0  0  0  0  0  0  0  0  0  0  0
   -4.2848    3.7108    0.3584 H   0  0  0  0  0  0  0  0  0  0  0  0
    2.2669   -2.2397    0.1884 H   0  0  0  0  0  0  0  0  0  0  0  0
    2.9599    1.1130   -1.3378 H   0  0  0  0  0  0  0  0  0  0  0  0
    3.9462    2.9674   -1.8296 H   0  0  0  0  0  0  0  0  0  0  0  0
    4.9904    5.1431   -2.2250 H   0  0  0  0  0  0  0  0  0  0  0  0
    5.8859    6.4759   -0.3366 H   0  0  0  0  0  0  0  0  0  0  0  0
    5.7377    5.6015    1.9790 H   0  0  0  0  0  0  0  0  0  0  0  0
    4.6913    3.4218    2.4209 H   0  0  0  0  0  0  0  0  0  0  0  0
    4.5045   -0.2496    3.9403 H   0  0  0  0  0  0  0  0  0  0  0  0
    3.9784   -1.5980    5.9706 H   0  0  0  0  0  0  0  0  0  0  0  0
    1.7478   -2.7087    6.1256 H   0  0  0  0  0  0  0  0  0  0  0  0
    0.5673   -1.2058    2.4890 H   0  0  0  0  0  0  0  0  0  0  0  0
   -1.4651   -4.9023   -0.8588 H   0  0  0  0  0  0  0  0  0  0  0  0
   -2.6722   -6.7001   -2.0437 H   0  0  0  0  0  0  0  0  0  0  0  0
   -3.8273   -3.9663   -5.1244 H   0  0  0  0  0  0  0  0  0  0  0  0
   -2.5900   -2.1448   -4.0083 H   0  0  0  0  0  0  0  0  0  0  0  0
  1  2  1  0
  2  3  1  0
  2  4  1  0
  2  5  1  0
  5  6  2  0
  5  7  1  0
  7  8  1  0
  8  9  3  0
  7 10  2  3
 10 11  1  0
 11 12  1  0
 12 13  2  3
 13 14  1  0
 14 15  2  0
 15 16  1  0
 16 17  1  0
 17 18  2  0
 18 19  1  0
 19 20  2  0
 20 21  1  0
 21 22  2  0
 16 23  1  0
 23 24  2  0
 24 25  1  0
 25 26  2  0
 26 27  1  0
 27 28  2  0
 28 29  1  0
 29 30  2  0
 12 31  1  0
 31 32  2  0
 31 33  1  0
 33 34  1  0
 34 35  2  0
 35 36  1  0
 36 37  2  0
 37 38  1  0
 37 39  1  0
 39 40  2  0
 33 10  1  0
 40 34  1  0
 24 14  1  0
 30 25  1  0
 22 17  1  0
  1 41  1  0
  1 42  1  0
  1 43  1  0
  3 44  1  0
  3 45  1  0
  3 46  1  0
  4 47  1  0
  4 48  1  0
  4 49  1  0
 13 50  1  0
 15 51  1  0
 18 52  1  0
 19 53  1  0
 20 54  1  0
 21 55  1  0
 22 56  1  0
 26 57  1  0
 27 58  1  0
 28 59  1  0
 30 60  1  0
 35 61  1  0
 36 62  1  0
 39 63  1  0
 40 64  1  0
M  END
$$$$
