
     RDKit          3D

 49 52  0  0  0  0  0  0  0  0999 V2000
   -6.0362    3.3788    0.0777 C   0  0  0  0  0  0  0  0  0  0  0  0
   -5.6985    1.9173    0.0840 C   0  0  0  0  0  0  0  0  0  0  0  0
   -6.6901    0.9649    0.3410 C   0  0  0  0  0  0  0  0  0  0  0  0
   -6.3761   -0.3988    0.3817 C   0  0  0  0  0  0  0  0  0  0  0  0
   -7.4582   -1.4166    0.6020 C   0  0  0  0  0  0  0  0  0  0  0  0
   -5.0537   -0.8087    0.1521 C   0  0  0  0  0  0  0  0  0  0  0  0
   -4.0461    0.1280   -0.0864 C   0  0  0  0  0  0  0  0  0  0  0  0
   -2.6960   -0.2092   -0.3244 N   0  0  0  0  0  0  0  0  0  0  0  0
   -2.1208   -1.4662   -0.2677 C   0  0  0  0  0  0  0  0  0  0  0  0
   -2.6591   -2.5077    0.0871 O   0  0  0  0  0  0  0  0  0  0  0  0
   -0.6764   -1.5121   -0.6396 C   0  0  0  0  0  0  0  0  0  0  0  0
    0.1510   -2.4411    0.0038 C   0  0  0  0  0  0  0  0  0  0  0  0
    1.5081   -2.5166   -0.3217 C   0  0  0  0  0  0  0  0  0  0  0  0
    2.0530   -1.6643   -1.2861 C   0  0  0  0  0  0  0  0  0  0  0  0
    3.4061   -1.7349   -1.6332 N   0  0  0  0  0  0  0  0  0  0  0  0
    4.2771   -1.2318   -0.8350 C   0  0  0  0  0  0  0  0  0  0  0  0
    4.1323   -0.5765    0.3584 N   0  0  0  0  0  0  0  0  0  0  0  0
    5.2945    0.1503    0.8352 C   0  0  0  0  0  0  0  0  0  0  0  0
    5.3409    1.5622    0.2730 C   0  0  0  0  0  0  0  0  0  0  0  0
    7.0587    1.9830    0.3613 S   0  0  0  0  0  6  0  0  0  0  0  0
    7.4140    2.7588   -0.8059 O   0  0  0  0  0  0  0  0  0  0  0  0
    7.3225    2.4487    1.7077 O   0  0  0  0  0  0  0  0  0  0  0  0
    7.7122    0.3328    0.2100 C   0  0  0  0  0  0  0  0  0  0  0  0
    6.5254   -0.6111    0.3133 C   0  0  0  0  0  0  0  0  0  0  0  0
    5.9807   -1.3072   -1.2918 S   0  0  0  0  0  0  0  0  0  0  0  0
    1.2178   -0.7632   -1.9518 C   0  0  0  0  0  0  0  0  0  0  0  0
   -0.1420   -0.6836   -1.6350 C   0  0  0  0  0  0  0  0  0  0  0  0
   -4.3785    1.4896   -0.1155 C   0  0  0  0  0  0  0  0  0  0  0  0
   -7.0510    3.5416   -0.3004 H   0  0  0  0  0  0  0  0  0  0  0  0
   -5.9655    3.7831    1.0927 H   0  0  0  0  0  0  0  0  0  0  0  0
   -5.3542    3.9364   -0.5738 H   0  0  0  0  0  0  0  0  0  0  0  0
   -7.7173    1.2848    0.5066 H   0  0  0  0  0  0  0  0  0  0  0  0
   -8.1971   -1.0478    1.3218 H   0  0  0  0  0  0  0  0  0  0  0  0
   -7.0491   -2.3484    1.0056 H   0  0  0  0  0  0  0  0  0  0  0  0
   -7.9620   -1.6341   -0.3457 H   0  0  0  0  0  0  0  0  0  0  0  0
   -4.8365   -1.8724    0.1608 H   0  0  0  0  0  0  0  0  0  0  0  0
   -2.0800    0.5730   -0.4971 H   0  0  0  0  0  0  0  0  0  0  0  0
   -0.2617   -3.1153    0.7521 H   0  0  0  0  0  0  0  0  0  0  0  0
    2.1415   -3.2512    0.1691 H   0  0  0  0  0  0  0  0  0  0  0  0
    3.2035   -0.2469    0.5958 H   0  0  0  0  0  0  0  0  0  0  0  0
    5.3071    0.1778    1.9312 H   0  0  0  0  0  0  0  0  0  0  0  0
    5.0263    1.6231   -0.7736 H   0  0  0  0  0  0  0  0  0  0  0  0
    4.7554    2.2702    0.8646 H   0  0  0  0  0  0  0  0  0  0  0  0
    8.3987    0.1869    1.0505 H   0  0  0  0  0  0  0  0  0  0  0  0
    8.2692    0.2466   -0.7262 H   0  0  0  0  0  0  0  0  0  0  0  0
    6.7609   -1.4677    0.9546 H   0  0  0  0  0  0  0  0  0  0  0  0
    1.6300   -0.1365   -2.7394 H   0  0  0  0  0  0  0  0  0  0  0  0
   -0.7721   -0.0037   -2.2020 H   0  0  0  0  0  0  0  0  0  0  0  0
   -3.6090    2.2358   -0.2976 H   0  0  0  0  0  0  0  0  0  0  0  0
  1  2  1  0
  2  3  2  0
  3  4  1  0
  4  5  1  0
  4  6  2  0
  6  7  1  0
  7  8  1  0
  8  9  1  0
  9 10  2  0
  9 11  1  0
 11 12  2  0
 12 13  1  0
 13 14  2  0
 14 15  1  0
 15 16  2  3
 16 17  1  0
 17 18  1  0
 18 19  1  0
 19 20  1  0
 20 21  2  0
 20 22  2  0
 20 23  1  0
 23 24  1  0
 24 25  1  0
 14 26  1  0
 26 27  2  0
  7 28  2  0
 28  2  1  0
 27 11  1  0
 25 16  1  0
 24 18  1  0
  1 29  1  0
  1 30  1  0
  1 31  1  0
  3 32  1  0
  5 33  1  0
  5 34  1  0
  5 35  1  0
  6 36  1  0
  8 37  1  0
 12 38  1  0
 13 39  1  0
 17 40  1  0
 18 41  1  0
 19 42  1  0
 19 43  1  0
 23 44  1  0
 23 45  1  0
 24 46  1  0
 26 47  1  0
 27 48  1  0
 28 49  1  0
M  END
$$$$
