
     RDKit          3D

 42 44  0  0  0  0  0  0  0  0999 V2000
   -3.0371   -0.0371    2.5212 O   0  0  0  0  0  0  0  0  0  0  0  0
   -2.5170   -0.2510    1.4233 C   0  0  0  0  0  0  0  0  0  0  0  0
   -3.0945   -1.3147    0.4576 C   0  0  0  0  0  0  0  0  0  0  0  0
   -4.3795   -1.9491    0.9841 C   0  0  0  0  0  0  0  0  0  0  0  0
   -5.0906   -2.3466   -0.2834 C   0  0  0  0  0  0  0  0  0  0  0  0
   -4.7395   -1.1957   -1.1943 C   0  0  0  0  0  0  0  0  0  0  0  0
   -3.4026   -0.8105   -0.8522 O   0  0  0  0  0  0  0  0  0  0  0  0
   -1.3557    0.4065    1.0340 N   0  0  0  0  0  0  0  0  0  0  0  0
   -0.6730    0.1906   -0.2451 C   0  0  0  0  0  0  0  0  0  0  0  0
    0.5871    1.0547   -0.4141 C   0  0  0  0  0  0  0  0  0  0  0  0
    1.4867    0.9028    0.7677 N   0  0  0  0  0  0  0  0  0  0  0  0
    2.9775    1.7241    0.6675 S   0  0  0  0  0  6  0  0  0  0  0  0
    2.6825    3.0947    0.3051 O   0  0  0  0  0  0  0  0  0  0  0  0
    3.7445    1.4079    1.8532 O   0  0  0  0  0  0  0  0  0  0  0  0
    3.7746    0.9305   -0.7041 C   0  0  0  0  0  0  0  0  0  0  0  0
    4.0477    1.6495   -1.8708 C   0  0  0  0  0  0  0  0  0  0  0  0
    4.6726    1.0059   -2.9389 C   0  0  0  0  0  0  0  0  0  0  0  0
    5.0237   -0.3419   -2.8353 C   0  0  0  0  0  0  0  0  0  0  0  0
    4.7557   -1.0523   -1.6634 C   0  0  0  0  0  0  0  0  0  0  0  0
    4.1313   -0.4169   -0.5910 C   0  0  0  0  0  0  0  0  0  0  0  0
    0.7838    1.1003    2.0848 C   0  0  0  0  0  0  0  0  0  0  0  0
   -0.7219    1.3631    1.9405 C   0  0  0  0  0  0  0  0  0  0  0  0
   -2.3356   -2.0972    0.3345 H   0  0  0  0  0  0  0  0  0  0  0  0
   -4.1868   -2.7927    1.6536 H   0  0  0  0  0  0  0  0  0  0  0  0
   -4.9929   -1.2231    1.5311 H   0  0  0  0  0  0  0  0  0  0  0  0
   -6.1678   -2.4834   -0.1597 H   0  0  0  0  0  0  0  0  0  0  0  0
   -4.6635   -3.2788   -0.6713 H   0  0  0  0  0  0  0  0  0  0  0  0
   -5.3940   -0.3345   -1.0213 H   0  0  0  0  0  0  0  0  0  0  0  0
   -4.7865   -1.4649   -2.2530 H   0  0  0  0  0  0  0  0  0  0  0  0
   -0.4083   -0.8712   -0.3026 H   0  0  0  0  0  0  0  0  0  0  0  0
   -1.3654    0.4179   -1.0598 H   0  0  0  0  0  0  0  0  0  0  0  0
    1.0997    0.7357   -1.3263 H   0  0  0  0  0  0  0  0  0  0  0  0
    0.3047    2.1076   -0.5307 H   0  0  0  0  0  0  0  0  0  0  0  0
    3.7835    2.7012   -1.9543 H   0  0  0  0  0  0  0  0  0  0  0  0
    4.8925    1.5553   -3.8514 H   0  0  0  0  0  0  0  0  0  0  0  0
    5.5153   -0.8387   -3.6688 H   0  0  0  0  0  0  0  0  0  0  0  0
    5.0397   -2.0991   -1.5854 H   0  0  0  0  0  0  0  0  0  0  0  0
    3.9281   -0.9664    0.3257 H   0  0  0  0  0  0  0  0  0  0  0  0
    1.2257    1.9271    2.6514 H   0  0  0  0  0  0  0  0  0  0  0  0
    0.9397    0.1817    2.6632 H   0  0  0  0  0  0  0  0  0  0  0  0
   -0.8943    2.3621    1.5218 H   0  0  0  0  0  0  0  0  0  0  0  0
   -1.1902    1.3466    2.9297 H   0  0  0  0  0  0  0  0  0  0  0  0
  1  2  2  0
  2  3  1  0
  3  4  1  0
  4  5  1  0
  5  6  1  0
  6  7  1  0
  2  8  1  0
  8  9  1  0
  9 10  1  0
 10 11  1  0
 11 12  1  0
 12 13  2  0
 12 14  2  0
 12 15  1  0
 15 16  2  0
 16 17  1  0
 17 18  2  0
 18 19  1  0
 19 20  2  0
 11 21  1  0
 21 22  1  0
  7  3  1  0
 22  8  1  0
 20 15  1  0
  3 23  1  0
  4 24  1  0
  4 25  1  0
  5 26  1  0
  5 27  1  0
  6 28  1  0
  6 29  1  0
  9 30  1  0
  9 31  1  0
 10 32  1  0
 10 33  1  0
 16 34  1  0
 17 35  1  0
 18 36  1  0
 19 37  1  0
 20 38  1  0
 21 39  1  0
 21 40  1  0
 22 41  1  0
 22 42  1  0
M  END
$$$$
