
     RDKit          3D

 46 48  0  0  0  0  0  0  0  0999 V2000
   -7.0030    1.4397   -1.0955 C   0  0  0  0  0  0  0  0  0  0  0  0
   -5.7351    0.7468   -1.5134 C   0  0  0  0  0  0  0  0  0  0  0  0
   -5.5375    0.3518   -2.8492 C   0  0  0  0  0  0  0  0  0  0  0  0
   -4.3449   -0.2674   -3.2234 C   0  0  0  0  0  0  0  0  0  0  0  0
   -3.3353   -0.4780   -2.2754 C   0  0  0  0  0  0  0  0  0  0  0  0
   -3.5243   -0.1158   -0.9353 C   0  0  0  0  0  0  0  0  0  0  0  0
   -2.4599   -0.3567   -0.0339 N   0  0  0  0  0  0  0  0  0  0  0  0
   -2.5481   -0.4515    1.3350 C   0  0  0  0  0  0  0  0  0  0  0  0
   -3.6147   -0.4634    1.9518 O   0  0  0  0  0  0  0  0  0  0  0  0
   -1.3165   -0.6422    2.0778 C   0  0  0  0  0  0  0  0  0  0  0  0
   -1.3733   -0.8561    3.4459 N   0  0  0  0  0  0  0  0  0  0  0  0
   -0.1108   -0.9528    3.9286 C   0  0  0  0  0  0  0  0  0  0  0  0
    0.7741   -0.8551    2.9737 N   0  0  0  0  0  0  0  0  0  0  0  0
    0.0426   -0.6777    1.7982 C   0  0  0  0  0  0  0  0  0  0  0  0
    0.7322   -0.5150    0.5210 C   0  0  0  0  0  0  0  0  0  0  0  0
    0.1418   -0.4159   -0.5482 O   0  0  0  0  0  0  0  0  0  0  0  0
    2.1033   -0.4691    0.6598 N   0  0  0  0  0  0  0  0  0  0  0  0
    2.9979   -0.0053   -0.3792 C   0  0  0  0  0  0  0  0  0  0  0  0
    3.0515   -0.9693   -1.5691 C   0  0  0  0  0  0  0  0  0  0  0  0
    4.3860    0.2658    0.1914 C   0  0  0  0  0  0  0  0  0  0  0  0
    4.7871    1.5899    0.4429 C   0  0  0  0  0  0  0  0  0  0  0  0
    6.0967    1.8733    0.8336 C   0  0  0  0  0  0  0  0  0  0  0  0
    7.0158    0.8389    1.0118 C   0  0  0  0  0  0  0  0  0  0  0  0
    6.6157   -0.4840    0.8336 C   0  0  0  0  0  0  0  0  0  0  0  0
    5.3031   -0.7712    0.4468 C   0  0  0  0  0  0  0  0  0  0  0  0
   -4.7358    0.4770   -0.5571 C   0  0  0  0  0  0  0  0  0  0  0  0
   -6.7659    2.2842   -0.4292 H   0  0  0  0  0  0  0  0  0  0  0  0
   -7.6754    0.7455   -0.5706 H   0  0  0  0  0  0  0  0  0  0  0  0
   -7.5384    1.8527   -1.9603 H   0  0  0  0  0  0  0  0  0  0  0  0
   -6.3103    0.5269   -3.5964 H   0  0  0  0  0  0  0  0  0  0  0  0
   -4.1947   -0.5796   -4.2602 H   0  0  0  0  0  0  0  0  0  0  0  0
   -2.4065   -0.9488   -2.5967 H   0  0  0  0  0  0  0  0  0  0  0  0
   -1.5487   -0.5085   -0.4602 H   0  0  0  0  0  0  0  0  0  0  0  0
   -2.2385   -0.9316    3.9657 H   0  0  0  0  0  0  0  0  0  0  0  0
    0.0960   -1.0983    4.9816 H   0  0  0  0  0  0  0  0  0  0  0  0
    2.4416   -0.5353    1.6161 H   0  0  0  0  0  0  0  0  0  0  0  0
    2.5899    0.9426   -0.7514 H   0  0  0  0  0  0  0  0  0  0  0  0
    2.1012   -0.9908   -2.1102 H   0  0  0  0  0  0  0  0  0  0  0  0
    3.8201   -0.6549   -2.2772 H   0  0  0  0  0  0  0  0  0  0  0  0
    3.2553   -1.9948   -1.2531 H   0  0  0  0  0  0  0  0  0  0  0  0
    4.0927    2.4134    0.2892 H   0  0  0  0  0  0  0  0  0  0  0  0
    6.4000    2.9088    0.9887 H   0  0  0  0  0  0  0  0  0  0  0  0
    8.0406    1.0572    1.2696 H   0  0  0  0  0  0  0  0  0  0  0  0
    7.3302   -1.2918    0.9795 H   0  0  0  0  0  0  0  0  0  0  0  0
    5.0154   -1.8149    0.3016 H   0  0  0  0  0  0  0  0  0  0  0  0
   -4.9132    0.7813    0.4732 H   0  0  0  0  0  0  0  0  0  0  0  0
  1  2  1  0
  2  3  2  0
  3  4  1  0
  4  5  2  0
  5  6  1  0
  6  7  1  0
  7  8  1  0
  8  9  2  0
  8 10  1  0
 10 11  1  0
 11 12  1  0
 12 13  2  0
 13 14  1  0
 14 15  1  0
 15 16  2  0
 15 17  1  0
 17 18  1  0
 18 19  1  0
 18 20  1  0
 20 21  2  0
 21 22  1  0
 22 23  2  0
 23 24  1  0
 24 25  2  0
  6 26  2  0
 26  2  1  0
 14 10  2  0
 25 20  1  0
  1 27  1  0
  1 28  1  0
  1 29  1  0
  3 30  1  0
  4 31  1  0
  5 32  1  0
  7 33  1  0
 11 34  1  0
 12 35  1  0
 17 36  1  0
 18 37  1  0
 19 38  1  0
 19 39  1  0
 19 40  1  0
 21 41  1  0
 22 42  1  0
 23 43  1  0
 24 44  1  0
 25 45  1  0
 26 46  1  0
M  END
$$$$
