
     RDKit          3D

 35 37  0  0  0  0  0  0  0  0999 V2000
   -2.0860   -3.1164    1.3905 C   0  0  0  0  0  0  0  0  0  0  0  0
   -1.2808   -1.9576    0.8987 C   0  0  0  0  0  0  0  0  0  0  0  0
    0.0188   -1.9049    0.9945 N   0  0  0  0  0  0  0  0  0  0  0  0
    0.3872   -0.6954    0.4378 N   0  0  0  0  0  0  0  0  0  0  0  0
    1.7079   -0.3035    0.3698 C   0  0  0  0  0  0  0  0  0  0  0  0
    2.7668   -0.9671    0.7914 N   0  0  0  0  0  0  0  0  0  0  0  0
    3.8470   -0.1700    0.5039 C   0  0  0  0  0  0  0  0  0  0  0  0
    5.2120   -0.3898    0.7379 C   0  0  0  0  0  0  0  0  0  0  0  0
    6.1281    0.5943    0.3441 C   0  0  0  0  0  0  0  0  0  0  0  0
    5.6936    1.7723   -0.2696 C   0  0  0  0  0  0  0  0  0  0  0  0
    4.3352    2.0094   -0.5114 C   0  0  0  0  0  0  0  0  0  0  0  0
    3.4461    1.0113   -0.1084 C   0  0  0  0  0  0  0  0  0  0  0  0
    2.0838    0.9002   -0.1810 N   0  0  0  0  0  0  0  0  0  0  0  0
   -0.6684    0.0863   -0.0442 C   0  0  0  0  0  0  0  0  0  0  0  0
   -0.6195    1.1813   -0.5783 O   0  0  0  0  0  0  0  0  0  0  0  0
   -1.8558   -0.7525    0.2551 C   0  0  0  0  0  0  0  0  0  0  0  0
   -3.1688   -0.5802    0.0516 C   0  0  0  0  0  0  0  0  0  0  0  0
   -3.9472    0.4277   -0.5090 N   0  0  0  0  0  0  0  0  0  0  0  0
   -3.3940    1.5955   -1.1956 C   0  0  0  0  0  0  0  0  0  0  0  0
   -5.3987    0.2742   -0.6514 C   0  0  0  0  0  0  0  0  0  0  0  0
   -2.7838   -2.7821    2.1629 H   0  0  0  0  0  0  0  0  0  0  0  0
   -2.6411   -3.5617    0.5606 H   0  0  0  0  0  0  0  0  0  0  0  0
   -1.4265   -3.8764    1.8190 H   0  0  0  0  0  0  0  0  0  0  0  0
    5.5402   -1.3065    1.2147 H   0  0  0  0  0  0  0  0  0  0  0  0
    7.1895    0.4363    0.5198 H   0  0  0  0  0  0  0  0  0  0  0  0
    6.4260    2.5208   -0.5657 H   0  0  0  0  0  0  0  0  0  0  0  0
    3.9977    2.9234   -0.9875 H   0  0  0  0  0  0  0  0  0  0  0  0
    1.4375    1.5747   -0.5689 H   0  0  0  0  0  0  0  0  0  0  0  0
   -3.8245   -1.3819    0.3895 H   0  0  0  0  0  0  0  0  0  0  0  0
   -2.8654    2.2381   -0.4855 H   0  0  0  0  0  0  0  0  0  0  0  0
   -2.7224    1.2865   -2.0026 H   0  0  0  0  0  0  0  0  0  0  0  0
   -4.1801    2.2070   -1.6533 H   0  0  0  0  0  0  0  0  0  0  0  0
   -5.8100   -0.3980    0.1098 H   0  0  0  0  0  0  0  0  0  0  0  0
   -5.9072    1.2376   -0.5351 H   0  0  0  0  0  0  0  0  0  0  0  0
   -5.6371   -0.1328   -1.6393 H   0  0  0  0  0  0  0  0  0  0  0  0
  1  2  1  0
  2  3  2  0
  3  4  1  0
  4  5  1  0
  5  6  2  0
  6  7  1  0
  7  8  2  0
  8  9  1  0
  9 10  2  0
 10 11  1  0
 11 12  2  0
 12 13  1  0
  4 14  1  0
 14 15  2  0
 14 16  1  0
 16 17  2  3
 17 18  1  0
 18 19  1  0
 18 20  1  0
 16  2  1  0
 13  5  1  0
 12  7  1  0
  1 21  1  0
  1 22  1  0
  1 23  1  0
  8 24  1  0
  9 25  1  0
 10 26  1  0
 11 27  1  0
 13 28  1  0
 17 29  1  0
 19 30  1  0
 19 31  1  0
 19 32  1  0
 20 33  1  0
 20 34  1  0
 20 35  1  0
M  END
$$$$
