
     RDKit          3D

 55 58  0  0  0  0  0  0  0  0999 V2000
    6.1145   -2.7913    4.3320 N   0  0  0  0  0  0  0  0  0  0  0  0
    5.9363   -1.6955    3.5300 C   0  0  0  0  0  0  0  0  0  0  0  0
    6.7716   -0.7948    3.5006 O   0  0  0  0  0  0  0  0  0  0  0  0
    4.6997   -1.7037    2.7300 C   0  0  0  0  0  0  0  0  0  0  0  0
    3.8823   -2.7691    2.7861 N   0  0  0  0  0  0  0  0  0  0  0  0
    2.6060   -2.5269    1.7609 S   0  0  0  0  0  0  0  0  0  0  0  0
    3.0599   -0.9625    1.2502 C   0  0  0  0  0  0  0  0  0  0  0  0
    2.2931   -0.2314    0.2584 C   0  0  0  0  0  0  0  0  0  0  0  0
    2.8623    0.2597   -0.7207 O   0  0  0  0  0  0  0  0  0  0  0  0
    0.8908   -0.1561    0.3921 N   0  0  0  0  0  0  0  0  0  0  0  0
    0.2198   -0.1748    1.6568 C   0  0  0  0  0  0  0  0  0  0  0  0
   -1.0277   -0.7932    1.8071 C   0  0  0  0  0  0  0  0  0  0  0  0
   -1.6754   -0.8084    3.0463 C   0  0  0  0  0  0  0  0  0  0  0  0
   -1.0887   -0.1969    4.1501 C   0  0  0  0  0  0  0  0  0  0  0  0
    0.1438    0.4344    4.0152 C   0  0  0  0  0  0  0  0  0  0  0  0
    0.7925    0.4468    2.7776 C   0  0  0  0  0  0  0  0  0  0  0  0
    0.1374    0.2188   -0.8210 C   0  0  0  0  0  0  0  0  0  0  0  0
   -1.0828    1.1611   -0.6356 C   0  0  0  0  0  0  0  0  0  0  0  0
   -0.9434    2.2845   -0.1421 O   0  0  0  0  0  0  0  0  0  0  0  0
   -2.3227    0.6985   -1.0174 N   0  0  0  0  0  0  0  0  0  0  0  0
   -3.5084    1.5195   -0.9686 C   0  0  0  0  0  0  0  0  0  0  0  0
   -3.8482    2.0351   -2.3439 C   0  0  0  0  0  0  0  0  0  0  0  0
   -4.8050    1.3837   -3.1389 C   0  0  0  0  0  0  0  0  0  0  0  0
   -5.0938    1.8552   -4.4207 C   0  0  0  0  0  0  0  0  0  0  0  0
   -4.4231    2.9703   -4.9097 C   0  0  0  0  0  0  0  0  0  0  0  0
   -4.7005    3.4183   -6.1409 F   0  0  0  0  0  0  0  0  0  0  0  0
   -3.4667    3.6242   -4.1426 C   0  0  0  0  0  0  0  0  0  0  0  0
   -3.1770    3.1559   -2.8607 C   0  0  0  0  0  0  0  0  0  0  0  0
   -0.1052   -1.0041   -1.6651 C   0  0  0  0  0  0  0  0  0  0  0  0
    0.5912   -1.5407   -2.7324 C   0  0  0  0  0  0  0  0  0  0  0  0
   -0.0930   -2.7185   -3.1130 C   0  0  0  0  0  0  0  0  0  0  0  0
   -1.1614   -2.8337   -2.2572 C   0  0  0  0  0  0  0  0  0  0  0  0
   -1.1808   -1.7988   -1.3790 O   0  0  0  0  0  0  0  0  0  0  0  0
    4.2665   -0.6474    1.8423 C   0  0  0  0  0  0  0  0  0  0  0  0
    4.9342    0.5147    1.6249 N   0  0  0  0  0  0  0  0  0  0  0  0
    5.4224   -3.5310    4.3250 H   0  0  0  0  0  0  0  0  0  0  0  0
    6.9451   -2.8625    4.8989 H   0  0  0  0  0  0  0  0  0  0  0  0
   -1.5062   -1.3096    0.9827 H   0  0  0  0  0  0  0  0  0  0  0  0
   -2.6371   -1.3056    3.1486 H   0  0  0  0  0  0  0  0  0  0  0  0
   -1.5933   -0.2064    5.1125 H   0  0  0  0  0  0  0  0  0  0  0  0
    0.6002    0.9278    4.8696 H   0  0  0  0  0  0  0  0  0  0  0  0
    1.7330    0.9884    2.7028 H   0  0  0  0  0  0  0  0  0  0  0  0
    0.7959    0.8514   -1.4354 H   0  0  0  0  0  0  0  0  0  0  0  0
   -2.3929   -0.2092   -1.4640 H   0  0  0  0  0  0  0  0  0  0  0  0
   -4.3211    0.8946   -0.5818 H   0  0  0  0  0  0  0  0  0  0  0  0
   -3.3827    2.3546   -0.2706 H   0  0  0  0  0  0  0  0  0  0  0  0
   -5.3302    0.5078   -2.7647 H   0  0  0  0  0  0  0  0  0  0  0  0
   -5.8347    1.3609   -5.0409 H   0  0  0  0  0  0  0  0  0  0  0  0
   -2.9518    4.4904   -4.5455 H   0  0  0  0  0  0  0  0  0  0  0  0
   -2.4216    3.6637   -2.2616 H   0  0  0  0  0  0  0  0  0  0  0  0
    1.4927   -1.1308   -3.1701 H   0  0  0  0  0  0  0  0  0  0  0  0
    0.1660   -3.4040   -3.9078 H   0  0  0  0  0  0  0  0  0  0  0  0
   -1.9560   -3.5590   -2.1474 H   0  0  0  0  0  0  0  0  0  0  0  0
    4.7777    1.0405    0.7638 H   0  0  0  0  0  0  0  0  0  0  0  0
    5.8967    0.6050    1.9635 H   0  0  0  0  0  0  0  0  0  0  0  0
  1  2  1  0
  2  3  2  0
  2  4  1  0
  4  5  2  0
  5  6  1  0
  6  7  1  0
  7  8  1  0
  8  9  2  0
  8 10  1  0
 10 11  1  0
 11 12  2  0
 12 13  1  0
 13 14  2  0
 14 15  1  0
 15 16  2  0
 10 17  1  0
 17 18  1  0
 18 19  2  0
 18 20  1  0
 20 21  1  0
 21 22  1  0
 22 23  2  0
 23 24  1  0
 24 25  2  0
 25 26  1  0
 25 27  1  0
 27 28  2  0
 17 29  1  0
 29 30  2  0
 30 31  1  0
 31 32  2  0
 32 33  1  0
  7 34  2  0
 34 35  1  0
 34  4  1  0
 16 11  1  0
 28 22  1  0
 33 29  1  0
  1 36  1  0
  1 37  1  0
 12 38  1  0
 13 39  1  0
 14 40  1  0
 15 41  1  0
 16 42  1  0
 17 43  1  0
 20 44  1  0
 21 45  1  0
 21 46  1  0
 23 47  1  0
 24 48  1  0
 27 49  1  0
 28 50  1  0
 30 51  1  0
 31 52  1  0
 32 53  1  0
 35 54  1  0
 35 55  1  0
M  END
$$$$
