
     RDKit          3D

 58 61  0  0  0  0  0  0  0  0999 V2000
    9.0217    0.3535    1.1810 C   0  0  0  0  0  0  0  0  0  0  0  0
    7.7655    0.2068    0.3741 C   0  0  0  0  0  0  0  0  0  0  0  0
    7.5429    1.0080   -0.7517 C   0  0  0  0  0  0  0  0  0  0  0  0
    6.3871    0.8459   -1.5200 C   0  0  0  0  0  0  0  0  0  0  0  0
    5.4416   -0.1323   -1.1845 C   0  0  0  0  0  0  0  0  0  0  0  0
    4.1822   -0.3002   -1.9944 C   0  0  0  0  0  0  0  0  0  0  0  0
    3.0990    0.4679   -1.4224 N   0  0  0  0  0  0  0  0  0  0  0  0
    2.1790   -0.1027   -0.5682 C   0  0  0  0  0  0  0  0  0  0  0  0
    2.1343   -1.3058   -0.3371 O   0  0  0  0  0  0  0  0  0  0  0  0
    1.2075    0.9121    0.0428 C   0  0  0  0  0  0  0  0  0  0  0  0
    0.2720    1.5062   -1.0270 C   0  0  0  0  0  0  0  0  0  0  0  0
   -1.1737    1.0045   -0.9442 C   0  0  0  0  0  0  0  0  0  0  0  0
   -1.2290   -0.4741   -0.5534 C   0  0  0  0  0  0  0  0  0  0  0  0
   -2.6277   -1.1021   -0.6930 C   0  0  0  0  0  0  0  0  0  0  0  0
   -3.6203   -0.4037    0.1185 N   0  0  0  0  0  0  0  0  0  0  0  0
   -4.8798   -0.8922    0.4537 C   0  0  0  0  0  0  0  0  0  0  0  0
   -5.0526   -2.2463    0.5768 N   0  0  0  0  0  0  0  0  0  0  0  0
   -6.2189   -2.8815    0.9088 C   0  0  0  0  0  0  0  0  0  0  0  0
   -6.1887   -4.5540    1.0350 S   0  0  0  0  0  0  0  0  0  0  0  0
   -7.3391   -2.1271    1.1156 N   0  0  0  0  0  0  0  0  0  0  0  0
   -7.2184   -0.8422    1.0213 C   0  0  0  0  0  0  0  0  0  0  0  0
   -8.4277   -0.0011    1.2490 C   0  0  0  0  0  0  0  0  0  0  0  0
   -8.3611    1.3340    1.1737 C   0  0  0  0  0  0  0  0  0  0  0  0
   -7.1290    2.0230    0.8830 C   0  0  0  0  0  0  0  0  0  0  0  0
   -5.9903    1.3522    0.6569 C   0  0  0  0  0  0  0  0  0  0  0  0
   -5.9530   -0.1021    0.6930 C   0  0  0  0  0  0  0  0  0  0  0  0
   -0.6452   -0.6859    0.8539 C   0  0  0  0  0  0  0  0  0  0  0  0
    0.4379    0.3291    1.2322 C   0  0  0  0  0  0  0  0  0  0  0  0
    5.6680   -0.9348   -0.0578 C   0  0  0  0  0  0  0  0  0  0  0  0
    6.8236   -0.7727    0.7091 C   0  0  0  0  0  0  0  0  0  0  0  0
    8.8246    0.1701    2.2428 H   0  0  0  0  0  0  0  0  0  0  0  0
    9.4270    1.3671    1.0973 H   0  0  0  0  0  0  0  0  0  0  0  0
    9.7769   -0.3571    0.8306 H   0  0  0  0  0  0  0  0  0  0  0  0
    8.2702    1.7650   -1.0385 H   0  0  0  0  0  0  0  0  0  0  0  0
    6.2348    1.4858   -2.3868 H   0  0  0  0  0  0  0  0  0  0  0  0
    3.9117   -1.3601   -2.0680 H   0  0  0  0  0  0  0  0  0  0  0  0
    4.3358    0.0661   -3.0159 H   0  0  0  0  0  0  0  0  0  0  0  0
    3.2093    1.4722   -1.4066 H   0  0  0  0  0  0  0  0  0  0  0  0
    1.8398    1.7226    0.4326 H   0  0  0  0  0  0  0  0  0  0  0  0
    0.6524    1.3039   -2.0360 H   0  0  0  0  0  0  0  0  0  0  0  0
    0.2581    2.5993   -0.9272 H   0  0  0  0  0  0  0  0  0  0  0  0
   -1.7138    1.6112   -0.2071 H   0  0  0  0  0  0  0  0  0  0  0  0
   -1.6675    1.1691   -1.9087 H   0  0  0  0  0  0  0  0  0  0  0  0
   -0.5852   -1.0191   -1.2592 H   0  0  0  0  0  0  0  0  0  0  0  0
   -2.9432   -1.0652   -1.7421 H   0  0  0  0  0  0  0  0  0  0  0  0
   -2.5563   -2.1578   -0.4119 H   0  0  0  0  0  0  0  0  0  0  0  0
   -3.6367    0.5895   -0.0810 H   0  0  0  0  0  0  0  0  0  0  0  0
   -4.2510   -2.8476    0.4725 H   0  0  0  0  0  0  0  0  0  0  0  0
   -9.3510   -0.5222    1.4730 H   0  0  0  0  0  0  0  0  0  0  0  0
   -9.2500    1.9348    1.3388 H   0  0  0  0  0  0  0  0  0  0  0  0
   -7.1490    3.1088    0.8613 H   0  0  0  0  0  0  0  0  0  0  0  0
   -5.0848    1.9105    0.4564 H   0  0  0  0  0  0  0  0  0  0  0  0
   -1.4291   -0.6450    1.6212 H   0  0  0  0  0  0  0  0  0  0  0  0
   -0.2336   -1.7023    0.9106 H   0  0  0  0  0  0  0  0  0  0  0  0
    1.1258   -0.1300    1.9515 H   0  0  0  0  0  0  0  0  0  0  0  0
   -0.0441    1.1589    1.7649 H   0  0  0  0  0  0  0  0  0  0  0  0
    4.9398   -1.6931    0.2272 H   0  0  0  0  0  0  0  0  0  0  0  0
    6.9815   -1.4180    1.5710 H   0  0  0  0  0  0  0  0  0  0  0  0
  1  2  1  0
  2  3  2  0
  3  4  1  0
  4  5  2  0
  5  6  1  0
  6  7  1  0
  7  8  1  0
  8  9  2  0
  8 10  1  0
 10 11  1  0
 11 12  1  0
 12 13  1  0
 13 14  1  0
 14 15  1  0
 15 16  1  0
 16 17  1  0
 17 18  1  0
 18 19  2  0
 18 20  1  0
 20 21  2  0
 21 22  1  0
 22 23  2  0
 23 24  1  0
 24 25  2  0
 25 26  1  0
 13 27  1  0
 27 28  1  0
  5 29  1  0
 29 30  2  0
 30  2  1  0
 28 10  1  0
 26 16  2  0
 26 21  1  0
  1 31  1  0
  1 32  1  0
  1 33  1  0
  3 34  1  0
  4 35  1  0
  6 36  1  0
  6 37  1  0
  7 38  1  0
 10 39  1  0
 11 40  1  0
 11 41  1  0
 12 42  1  0
 12 43  1  0
 13 44  1  0
 14 45  1  0
 14 46  1  0
 15 47  1  0
 17 48  1  0
 22 49  1  0
 23 50  1  0
 24 51  1  0
 25 52  1  0
 27 53  1  0
 27 54  1  0
 28 55  1  0
 28 56  1  0
 29 57  1  0
 30 58  1  0
M  END
$$$$
