
     RDKit          3D

 42 43  0  0  0  0  0  0  0  0999 V2000
   -1.9899    0.6945    1.4442 C   0  0  0  0  0  0  0  0  0  0  0  0
   -2.7651    0.7016    0.1180 C   0  0  0  0  0  0  0  0  0  0  0  0
   -2.6889    2.1007   -0.5154 C   0  0  0  0  0  0  0  0  0  0  0  0
   -4.2431    0.3902    0.4352 C   0  0  0  0  0  0  0  0  0  0  0  0
   -2.2471   -0.3876   -0.8564 C   0  0  0  0  0  0  0  0  0  0  0  0
   -0.9265   -0.0820   -1.4355 N   0  0  0  0  0  0  0  0  0  0  0  0
   -0.7304   -0.3507   -2.7647 C   0  0  0  0  0  0  0  0  0  0  0  0
   -1.5225    0.3038   -3.6337 N   0  0  0  0  0  0  0  0  0  0  0  0
    0.2193   -1.1619   -3.1218 N   0  0  0  0  0  0  0  0  0  0  0  0
    0.7513   -1.6544   -1.8207 C   0  0  0  0  0  0  0  0  0  0  0  0
    0.2463   -0.6634   -0.7516 C   0  0  0  0  0  0  0  0  0  0  0  0
    1.2817    0.4467   -0.4759 C   0  0  0  0  0  0  0  0  0  0  0  0
    2.4069   -0.0054    0.4272 C   0  0  0  0  0  0  0  0  0  0  0  0
    3.6771   -0.2763   -0.1002 C   0  0  0  0  0  0  0  0  0  0  0  0
    4.7115   -0.7048    0.7328 C   0  0  0  0  0  0  0  0  0  0  0  0
    4.4811   -0.8605    2.0938 C   0  0  0  0  0  0  0  0  0  0  0  0
    5.5200   -1.2808    2.8702 O   0  0  0  0  0  0  0  0  0  0  0  0
    3.2301   -0.5935    2.6390 C   0  0  0  0  0  0  0  0  0  0  0  0
    2.1943   -0.1657    1.8049 C   0  0  0  0  0  0  0  0  0  0  0  0
   -0.9579    1.0245    1.3140 H   0  0  0  0  0  0  0  0  0  0  0  0
   -1.9720   -0.3065    1.8891 H   0  0  0  0  0  0  0  0  0  0  0  0
   -2.4504    1.3720    2.1728 H   0  0  0  0  0  0  0  0  0  0  0  0
   -3.2323    2.1340   -1.4661 H   0  0  0  0  0  0  0  0  0  0  0  0
   -3.1287    2.8566    0.1452 H   0  0  0  0  0  0  0  0  0  0  0  0
   -1.6536    2.4015   -0.7086 H   0  0  0  0  0  0  0  0  0  0  0  0
   -4.6650    1.1259    1.1294 H   0  0  0  0  0  0  0  0  0  0  0  0
   -4.8563    0.4043   -0.4731 H   0  0  0  0  0  0  0  0  0  0  0  0
   -4.3478   -0.5994    0.8944 H   0  0  0  0  0  0  0  0  0  0  0  0
   -2.2241   -1.3661   -0.3581 H   0  0  0  0  0  0  0  0  0  0  0  0
   -2.9823   -0.4970   -1.6653 H   0  0  0  0  0  0  0  0  0  0  0  0
   -1.6851    1.2633   -3.3583 H   0  0  0  0  0  0  0  0  0  0  0  0
   -1.1542    0.2358   -4.5761 H   0  0  0  0  0  0  0  0  0  0  0  0
    0.3436   -2.6563   -1.6407 H   0  0  0  0  0  0  0  0  0  0  0  0
    1.8408   -1.7327   -1.8619 H   0  0  0  0  0  0  0  0  0  0  0  0
   -0.0190   -1.1911    0.1717 H   0  0  0  0  0  0  0  0  0  0  0  0
    1.6924    0.8331   -1.4186 H   0  0  0  0  0  0  0  0  0  0  0  0
    0.7989    1.3128   -0.0072 H   0  0  0  0  0  0  0  0  0  0  0  0
    3.8711   -0.1569   -1.1645 H   0  0  0  0  0  0  0  0  0  0  0  0
    5.6942   -0.9148    0.3201 H   0  0  0  0  0  0  0  0  0  0  0  0
    5.2176   -1.3315    3.7914 H   0  0  0  0  0  0  0  0  0  0  0  0
    3.0432   -0.7089    3.7017 H   0  0  0  0  0  0  0  0  0  0  0  0
    1.2202    0.0472    2.2391 H   0  0  0  0  0  0  0  0  0  0  0  0
  1  2  1  0
  2  3  1  0
  2  4  1  0
  2  5  1  0
  5  6  1  0
  6  7  1  0
  7  8  1  0
  7  9  2  0
  9 10  1  0
 10 11  1  0
 11 12  1  0
 12 13  1  0
 13 14  2  0
 14 15  1  0
 15 16  2  0
 16 17  1  0
 16 18  1  0
 18 19  2  0
 11  6  1  0
 19 13  1  0
  1 20  1  0
  1 21  1  0
  1 22  1  0
  3 23  1  0
  3 24  1  0
  3 25  1  0
  4 26  1  0
  4 27  1  0
  4 28  1  0
  5 29  1  0
  5 30  1  0
  8 31  1  0
  8 32  1  0
 10 33  1  0
 10 34  1  0
 11 35  1  0
 12 36  1  0
 12 37  1  0
 14 38  1  0
 15 39  1  0
 17 40  1  0
 18 41  1  0
 19 42  1  0
M  END
$$$$
