
     RDKit          3D

 57 61  0  0  0  0  0  0  0  0999 V2000
    6.4399    0.9170   -0.6573 C   0  0  0  0  0  0  0  0  0  0  0  0
    4.9819    0.8230   -1.1110 C   0  0  0  0  0  0  0  0  0  0  0  0
    4.7477    1.7450   -2.3064 C   0  0  0  0  0  0  0  0  0  0  0  0
    4.0391    1.2104    0.0310 C   0  0  0  0  0  0  0  0  0  0  0  0
    4.3980    2.0199    0.8893 O   0  0  0  0  0  0  0  0  0  0  0  0
    2.7568    0.6632    0.0361 N   0  0  0  0  0  0  0  0  0  0  0  0
    2.2726   -0.3236   -0.9252 C   0  0  0  0  0  0  0  0  0  0  0  0
    0.7500   -0.4207   -0.9200 C   0  0  0  0  0  0  0  0  0  0  0  0
    0.2236   -0.8703    0.4669 C   0  0  0  0  0  0  0  0  0  0  0  0
    1.0314   -0.1756    1.6051 C   0  0  0  0  0  0  0  0  0  0  0  0
    1.8594    1.0164    1.1324 C   0  0  0  0  0  0  0  0  0  0  0  0
    0.5566   -2.2810    0.6288 O   0  0  0  0  0  0  0  0  0  0  0  0
   -0.2735   -3.2055    0.0659 C   0  0  0  0  0  0  0  0  0  0  0  0
    0.2012   -4.5167    0.0319 C   0  0  0  0  0  0  0  0  0  0  0  0
   -0.5674   -5.5255   -0.5550 C   0  0  0  0  0  0  0  0  0  0  0  0
   -1.8123   -5.2195   -1.1055 C   0  0  0  0  0  0  0  0  0  0  0  0
   -2.7505   -6.4624   -1.8349 Cl  0  0  0  0  0  0  0  0  0  0  0  0
   -2.3002   -3.9163   -1.0665 C   0  0  0  0  0  0  0  0  0  0  0  0
   -1.5268   -2.9184   -0.4663 C   0  0  0  0  0  0  0  0  0  0  0  0
   -2.0174   -1.5363   -0.3898 C   0  0  0  0  0  0  0  0  0  0  0  0
   -2.9276   -1.1667   -1.1262 O   0  0  0  0  0  0  0  0  0  0  0  0
   -1.3078   -0.6420    0.6192 C   0  0  0  0  0  0  0  0  0  0  0  0
   -1.7675    0.8030    0.5064 C   0  0  0  0  0  0  0  0  0  0  0  0
   -2.8535    0.7759    1.5289 C   0  0  0  0  0  0  0  0  0  0  0  0
   -3.8627    1.8555    1.6394 C   0  0  0  0  0  0  0  0  0  0  0  0
   -3.7965    3.0062    0.8440 C   0  0  0  0  0  0  0  0  0  0  0  0
   -4.7655    4.0068    0.9785 C   0  0  0  0  0  0  0  0  0  0  0  0
   -5.7966    3.8591    1.9058 C   0  0  0  0  0  0  0  0  0  0  0  0
   -6.9843    5.0923    2.0662 Cl  0  0  0  0  0  0  0  0  0  0  0  0
   -5.8691    2.7191    2.7027 C   0  0  0  0  0  0  0  0  0  0  0  0
   -4.9023    1.7183    2.5703 C   0  0  0  0  0  0  0  0  0  0  0  0
   -2.8173   -0.2428    2.3279 N   0  0  0  0  0  0  0  0  0  0  0  0
   -1.7389   -1.0610    1.9259 O   0  0  0  0  0  0  0  0  0  0  0  0
    7.1147    0.5807   -1.4513 H   0  0  0  0  0  0  0  0  0  0  0  0
    6.7169    1.9435   -0.3914 H   0  0  0  0  0  0  0  0  0  0  0  0
    6.6131    0.2887    0.2236 H   0  0  0  0  0  0  0  0  0  0  0  0
    4.8024   -0.2170   -1.4009 H   0  0  0  0  0  0  0  0  0  0  0  0
    3.7075    1.7212   -2.6437 H   0  0  0  0  0  0  0  0  0  0  0  0
    4.9773    2.7866   -2.0516 H   0  0  0  0  0  0  0  0  0  0  0  0
    5.3831    1.4552   -3.1501 H   0  0  0  0  0  0  0  0  0  0  0  0
    2.6096   -0.0605   -1.9300 H   0  0  0  0  0  0  0  0  0  0  0  0
    2.7282   -1.2864   -0.6676 H   0  0  0  0  0  0  0  0  0  0  0  0
    0.3332    0.5559   -1.1938 H   0  0  0  0  0  0  0  0  0  0  0  0
    0.4533   -1.1270   -1.7034 H   0  0  0  0  0  0  0  0  0  0  0  0
    1.7181   -0.8983    2.0674 H   0  0  0  0  0  0  0  0  0  0  0  0
    0.3747    0.1588    2.4156 H   0  0  0  0  0  0  0  0  0  0  0  0
    1.2150    1.8234    0.7687 H   0  0  0  0  0  0  0  0  0  0  0  0
    2.4213    1.4196    1.9813 H   0  0  0  0  0  0  0  0  0  0  0  0
    1.1730   -4.7556    0.4578 H   0  0  0  0  0  0  0  0  0  0  0  0
   -0.1900   -6.5450   -0.5803 H   0  0  0  0  0  0  0  0  0  0  0  0
   -3.2748   -3.6787   -1.4866 H   0  0  0  0  0  0  0  0  0  0  0  0
   -2.1228    1.0839   -0.4875 H   0  0  0  0  0  0  0  0  0  0  0  0
   -1.0186    1.5237    0.8436 H   0  0  0  0  0  0  0  0  0  0  0  0
   -3.0044    3.1522    0.1153 H   0  0  0  0  0  0  0  0  0  0  0  0
   -4.7106    4.8976    0.3569 H   0  0  0  0  0  0  0  0  0  0  0  0
   -6.6715    2.5998    3.4266 H   0  0  0  0  0  0  0  0  0  0  0  0
   -4.9693    0.8305    3.1972 H   0  0  0  0  0  0  0  0  0  0  0  0
  1  2  1  0
  2  3  1  0
  2  4  1  0
  4  5  2  0
  4  6  1  0
  6  7  1  0
  7  8  1  0
  8  9  1  0
  9 10  1  0
 10 11  1  0
  9 12  1  0
 12 13  1  0
 13 14  2  0
 14 15  1  0
 15 16  2  0
 16 17  1  0
 16 18  1  0
 18 19  2  0
 19 20  1  0
 20 21  2  0
 20 22  1  0
 22 23  1  0
 23 24  1  0
 24 25  1  0
 25 26  2  0
 26 27  1  0
 27 28  2  0
 28 29  1  0
 28 30  1  0
 30 31  2  0
 24 32  2  0
 32 33  1  0
 11  6  1  0
 19 13  1  0
 33 22  1  0
 22  9  1  0
 31 25  1  0
  1 34  1  0
  1 35  1  0
  1 36  1  0
  2 37  1  0
  3 38  1  0
  3 39  1  0
  3 40  1  0
  7 41  1  0
  7 42  1  0
  8 43  1  0
  8 44  1  0
 10 45  1  0
 10 46  1  0
 11 47  1  0
 11 48  1  0
 14 49  1  0
 15 50  1  0
 18 51  1  0
 23 52  1  0
 23 53  1  0
 26 54  1  0
 27 55  1  0
 30 56  1  0
 31 57  1  0
M  END
$$$$
