
     RDKit          3D

 57 61  0  0  0  0  0  0  0  0999 V2000
   -7.7798    0.9398    3.9475 C   0  0  0  0  0  0  0  0  0  0  0  0
   -6.7695    0.7596    2.8544 C   0  0  0  0  0  0  0  0  0  0  0  0
   -7.1541    0.8313    1.5143 C   0  0  0  0  0  0  0  0  0  0  0  0
   -6.2038    0.6951    0.4961 C   0  0  0  0  0  0  0  0  0  0  0  0
   -4.8390    0.4975    0.7776 C   0  0  0  0  0  0  0  0  0  0  0  0
   -3.8553    0.3614   -0.3201 C   0  0  0  0  0  0  0  0  0  0  0  0
   -2.5192    0.6971   -0.1909 C   0  0  0  0  0  0  0  0  0  0  0  0
   -1.6755    0.5185   -1.2887 C   0  0  0  0  0  0  0  0  0  0  0  0
   -0.2435    0.8290   -1.0682 C   0  0  0  0  0  0  0  0  0  0  0  0
    0.0478    1.9454   -0.6619 O   0  0  0  0  0  0  0  0  0  0  0  0
    0.6036   -0.2377   -1.2999 N   0  0  0  0  0  0  0  0  0  0  0  0
    2.0102   -0.2500   -1.2089 C   0  0  0  0  0  0  0  0  0  0  0  0
    2.6549   -1.4695   -1.4626 C   0  0  0  0  0  0  0  0  0  0  0  0
    4.0478   -1.5663   -1.4051 C   0  0  0  0  0  0  0  0  0  0  0  0
    4.8027   -0.4362   -1.0851 C   0  0  0  0  0  0  0  0  0  0  0  0
    6.5750   -0.5541   -1.0573 S   0  0  0  0  0  6  0  0  0  0  0  0
    6.9411   -1.4033   -2.1749 O   0  0  0  0  0  0  0  0  0  0  0  0
    7.1455    0.7706   -0.9386 O   0  0  0  0  0  0  0  0  0  0  0  0
    6.8950   -1.4434    0.3083 N   0  0  0  0  0  0  0  0  0  0  0  0
    6.9105   -0.7643    1.5200 C   0  0  0  0  0  0  0  0  0  0  0  0
    5.9135    0.0727    1.8092 N   0  0  0  0  0  0  0  0  0  0  0  0
    5.9201    0.5748    3.0566 C   0  0  0  0  0  0  0  0  0  0  0  0
    6.8523    0.2284    4.0068 C   0  0  0  0  0  0  0  0  0  0  0  0
    7.7964   -0.6881    3.6052 C   0  0  0  0  0  0  0  0  0  0  0  0
    7.8367   -1.2202    2.3692 N   0  0  0  0  0  0  0  0  0  0  0  0
    4.1760    0.7865   -0.8433 C   0  0  0  0  0  0  0  0  0  0  0  0
    2.7806    0.8748   -0.9012 C   0  0  0  0  0  0  0  0  0  0  0  0
   -2.1704    0.0590   -2.5277 C   0  0  0  0  0  0  0  0  0  0  0  0
   -1.4069   -0.0772   -3.7169 C   0  0  0  0  0  0  0  0  0  0  0  0
   -1.9848   -0.5524   -4.8922 C   0  0  0  0  0  0  0  0  0  0  0  0
   -3.3301   -0.8884   -4.9020 C   0  0  0  0  0  0  0  0  0  0  0  0
   -4.0895   -0.7342   -3.7402 C   0  0  0  0  0  0  0  0  0  0  0  0
   -3.5387   -0.2593   -2.5574 C   0  0  0  0  0  0  0  0  0  0  0  0
   -4.3437   -0.1221   -1.4906 N   0  0  0  0  0  0  0  0  0  0  0  0
   -4.4714    0.4345    2.1341 C   0  0  0  0  0  0  0  0  0  0  0  0
   -5.4190    0.5707    3.1569 C   0  0  0  0  0  0  0  0  0  0  0  0
   -8.7588    0.5561    3.6414 H   0  0  0  0  0  0  0  0  0  0  0  0
   -7.8769    2.0010    4.1960 H   0  0  0  0  0  0  0  0  0  0  0  0
   -7.4838    0.3916    4.8477 H   0  0  0  0  0  0  0  0  0  0  0  0
   -8.1962    0.9922    1.2468 H   0  0  0  0  0  0  0  0  0  0  0  0
   -6.5395    0.7517   -0.5388 H   0  0  0  0  0  0  0  0  0  0  0  0
   -2.1206    1.1005    0.7343 H   0  0  0  0  0  0  0  0  0  0  0  0
    0.1688   -1.1193   -1.5477 H   0  0  0  0  0  0  0  0  0  0  0  0
    2.0839   -2.3607   -1.7115 H   0  0  0  0  0  0  0  0  0  0  0  0
    4.5351   -2.5166   -1.6125 H   0  0  0  0  0  0  0  0  0  0  0  0
    7.6745   -2.0817    0.2012 H   0  0  0  0  0  0  0  0  0  0  0  0
    5.1253    1.2819    3.2770 H   0  0  0  0  0  0  0  0  0  0  0  0
    6.8384    0.6430    5.0050 H   0  0  0  0  0  0  0  0  0  0  0  0
    8.5675   -1.0356    4.2870 H   0  0  0  0  0  0  0  0  0  0  0  0
    4.7595    1.6721   -0.6018 H   0  0  0  0  0  0  0  0  0  0  0  0
    2.3267    1.8413   -0.7042 H   0  0  0  0  0  0  0  0  0  0  0  0
   -0.3566    0.2079   -3.7441 H   0  0  0  0  0  0  0  0  0  0  0  0
   -1.3885   -0.6490   -5.7962 H   0  0  0  0  0  0  0  0  0  0  0  0
   -3.7979   -1.2575   -5.8112 H   0  0  0  0  0  0  0  0  0  0  0  0
   -5.1478   -0.9862   -3.7601 H   0  0  0  0  0  0  0  0  0  0  0  0
   -3.4374    0.2644    2.4239 H   0  0  0  0  0  0  0  0  0  0  0  0
   -5.0910    0.5229    4.1933 H   0  0  0  0  0  0  0  0  0  0  0  0
  1  2  1  0
  2  3  2  0
  3  4  1  0
  4  5  2  0
  5  6  1  0
  6  7  2  0
  7  8  1  0
  8  9  1  0
  9 10  2  0
  9 11  1  0
 11 12  1  0
 12 13  2  0
 13 14  1  0
 14 15  2  0
 15 16  1  0
 16 17  2  0
 16 18  2  0
 16 19  1  0
 19 20  1  0
 20 21  2  0
 21 22  1  0
 22 23  2  0
 23 24  1  0
 24 25  2  0
 15 26  1  0
 26 27  2  0
  8 28  2  0
 28 29  1  0
 29 30  2  0
 30 31  1  0
 31 32  2  0
 32 33  1  0
 33 34  2  0
  5 35  1  0
 35 36  2  0
 36  2  1  0
 34  6  1  0
 27 12  1  0
 33 28  1  0
 25 20  1  0
  1 37  1  0
  1 38  1  0
  1 39  1  0
  3 40  1  0
  4 41  1  0
  7 42  1  0
 11 43  1  0
 13 44  1  0
 14 45  1  0
 19 46  1  0
 22 47  1  0
 23 48  1  0
 24 49  1  0
 26 50  1  0
 27 51  1  0
 29 52  1  0
 30 53  1  0
 31 54  1  0
 32 55  1  0
 35 56  1  0
 36 57  1  0
M  END
$$$$
