
     RDKit          3D

 33 34  0  0  0  0  0  0  0  0999 V2000
    4.7332   -0.8067    1.9425 C   0  0  0  0  0  0  0  0  0  0  0  0
    5.9567   -0.1356    1.3366 C   0  0  0  0  0  0  0  0  0  0  0  0
    5.6443    0.9330    0.2879 C   0  0  0  0  0  0  0  0  0  0  0  0
    4.9906    0.2515   -1.2679 S   0  0  0  0  0  0  0  0  0  0  0  0
    3.2633    0.3444   -1.0170 C   0  0  0  0  0  0  0  0  0  0  0  0
    2.7099    0.9785   -0.0071 N   0  0  0  0  0  0  0  0  0  0  0  0
    1.3289    0.8945   -0.0338 N   0  0  0  0  0  0  0  0  0  0  0  0
    0.9068    0.2080   -1.0663 C   0  0  0  0  0  0  0  0  0  0  0  0
   -0.3614   -0.1034   -1.4753 N   0  0  0  0  0  0  0  0  0  0  0  0
   -1.4698    0.1808   -0.7023 C   0  0  0  0  0  0  0  0  0  0  0  0
   -1.4317    0.6717    0.4170 O   0  0  0  0  0  0  0  0  0  0  0  0
   -2.6310   -0.1744   -1.3783 N   0  0  0  0  0  0  0  0  0  0  0  0
   -3.9552   -0.1348   -0.8911 C   0  0  0  0  0  0  0  0  0  0  0  0
   -4.2916    0.1267    0.4384 C   0  0  0  0  0  0  0  0  0  0  0  0
   -5.6307    0.1339    0.8431 C   0  0  0  0  0  0  0  0  0  0  0  0
   -6.6444   -0.1235   -0.0765 C   0  0  0  0  0  0  0  0  0  0  0  0
   -6.3204   -0.3912   -1.4032 C   0  0  0  0  0  0  0  0  0  0  0  0
   -4.9827   -0.3986   -1.8078 C   0  0  0  0  0  0  0  0  0  0  0  0
    2.1387   -0.3857   -2.0895 S   0  0  0  0  0  0  0  0  0  0  0  0
    5.0375   -1.4664    2.7619 H   0  0  0  0  0  0  0  0  0  0  0  0
    4.2016   -1.4194    1.2090 H   0  0  0  0  0  0  0  0  0  0  0  0
    4.0391   -0.0652    2.3504 H   0  0  0  0  0  0  0  0  0  0  0  0
    6.6251   -0.8986    0.9189 H   0  0  0  0  0  0  0  0  0  0  0  0
    6.5133    0.3459    2.1505 H   0  0  0  0  0  0  0  0  0  0  0  0
    4.9901    1.7096    0.6964 H   0  0  0  0  0  0  0  0  0  0  0  0
    6.5837    1.4337    0.0276 H   0  0  0  0  0  0  0  0  0  0  0  0
   -0.4448   -0.6837   -2.2912 H   0  0  0  0  0  0  0  0  0  0  0  0
   -2.5361   -0.3631   -2.3636 H   0  0  0  0  0  0  0  0  0  0  0  0
   -3.5350    0.3226    1.1922 H   0  0  0  0  0  0  0  0  0  0  0  0
   -5.8767    0.3396    1.8824 H   0  0  0  0  0  0  0  0  0  0  0  0
   -7.6832   -0.1167    0.2428 H   0  0  0  0  0  0  0  0  0  0  0  0
   -7.1080   -0.5950   -2.1236 H   0  0  0  0  0  0  0  0  0  0  0  0
   -4.7602   -0.6124   -2.8494 H   0  0  0  0  0  0  0  0  0  0  0  0
  1  2  1  0
  2  3  1  0
  3  4  1  0
  4  5  1  0
  5  6  2  0
  6  7  1  0
  7  8  2  0
  8  9  1  0
  9 10  1  0
 10 11  2  0
 10 12  1  0
 12 13  1  0
 13 14  2  0
 14 15  1  0
 15 16  2  0
 16 17  1  0
 17 18  2  0
  8 19  1  0
 19  5  1  0
 18 13  1  0
  1 20  1  0
  1 21  1  0
  1 22  1  0
  2 23  1  0
  2 24  1  0
  3 25  1  0
  3 26  1  0
  9 27  1  0
 12 28  1  0
 14 29  1  0
 15 30  1  0
 16 31  1  0
 17 32  1  0
 18 33  1  0
M  END
$$$$
