
     RDKit          3D

 49 51  0  0  0  0  0  0  0  0999 V2000
   -9.5535    1.9521    3.3571 C   0  0  0  0  0  0  0  0  0  0  0  0
   -9.0305    2.3300    2.0897 O   0  0  0  0  0  0  0  0  0  0  0  0
   -7.7358    1.9795    1.8277 C   0  0  0  0  0  0  0  0  0  0  0  0
   -7.2690    2.3607    0.5705 C   0  0  0  0  0  0  0  0  0  0  0  0
   -5.9607    2.0642    0.1756 C   0  0  0  0  0  0  0  0  0  0  0  0
   -5.0939    1.3790    1.0350 C   0  0  0  0  0  0  0  0  0  0  0  0
   -3.7882    1.1215    0.5575 N   0  0  0  0  0  0  0  0  0  0  0  0
   -2.7630    0.4694    1.2235 C   0  0  0  0  0  0  0  0  0  0  0  0
   -2.8389    0.0029    2.3576 O   0  0  0  0  0  0  0  0  0  0  0  0
   -1.4722    0.3498    0.4526 C   0  0  0  0  0  0  0  0  0  0  0  0
   -1.3785    0.8708   -0.8660 C   0  0  0  0  0  0  0  0  0  0  0  0
   -1.3838    1.3116   -1.9396 N   0  0  0  0  0  0  0  0  0  0  0  0
   -0.4344   -0.2484    1.0723 C   0  0  0  0  0  0  0  0  0  0  0  0
    0.9019   -0.4455    0.4991 C   0  0  0  0  0  0  0  0  0  0  0  0
    1.9960    0.2014    1.0783 C   0  0  0  0  0  0  0  0  0  0  0  0
    3.2772    0.0202    0.5513 C   0  0  0  0  0  0  0  0  0  0  0  0
    3.4846   -0.8107   -0.5522 C   0  0  0  0  0  0  0  0  0  0  0  0
    4.7855   -0.8957   -0.9634 O   0  0  0  0  0  0  0  0  0  0  0  0
    5.0592   -1.7245   -2.0957 C   0  0  0  0  0  0  0  0  0  0  0  0
    6.5291   -1.6767   -2.4315 C   0  0  0  0  0  0  0  0  0  0  0  0
    7.3115   -0.5350   -2.2039 C   0  0  0  0  0  0  0  0  0  0  0  0
    8.6624   -0.5163   -2.5631 C   0  0  0  0  0  0  0  0  0  0  0  0
    9.2446   -1.6320   -3.1647 C   0  0  0  0  0  0  0  0  0  0  0  0
    8.4739   -2.7658   -3.4120 C   0  0  0  0  0  0  0  0  0  0  0  0
    7.1290   -2.7768   -3.0512 C   0  0  0  0  0  0  0  0  0  0  0  0
    6.4012   -3.8720   -3.3147 F   0  0  0  0  0  0  0  0  0  0  0  0
    2.3951   -1.4669   -1.1243 C   0  0  0  0  0  0  0  0  0  0  0  0
    1.1094   -1.2875   -0.5988 C   0  0  0  0  0  0  0  0  0  0  0  0
   -5.5647    0.9989    2.2921 C   0  0  0  0  0  0  0  0  0  0  0  0
   -6.8777    1.2970    2.6871 C   0  0  0  0  0  0  0  0  0  0  0  0
   -9.0020    2.4340    4.1715 H   0  0  0  0  0  0  0  0  0  0  0  0
  -10.5906    2.2980    3.4072 H   0  0  0  0  0  0  0  0  0  0  0  0
   -9.5597    0.8631    3.4728 H   0  0  0  0  0  0  0  0  0  0  0  0
   -7.9294    2.8941   -0.1092 H   0  0  0  0  0  0  0  0  0  0  0  0
   -5.6380    2.3801   -0.8132 H   0  0  0  0  0  0  0  0  0  0  0  0
   -3.6170    1.4708   -0.3789 H   0  0  0  0  0  0  0  0  0  0  0  0
   -0.5354   -0.6130    2.0946 H   0  0  0  0  0  0  0  0  0  0  0  0
    1.8664    0.8527    1.9400 H   0  0  0  0  0  0  0  0  0  0  0  0
    4.1228    0.5307    1.0066 H   0  0  0  0  0  0  0  0  0  0  0  0
    4.7758   -2.7569   -1.8568 H   0  0  0  0  0  0  0  0  0  0  0  0
    4.5009   -1.3696   -2.9707 H   0  0  0  0  0  0  0  0  0  0  0  0
    6.8730    0.3475   -1.7417 H   0  0  0  0  0  0  0  0  0  0  0  0
    9.2597    0.3726   -2.3734 H   0  0  0  0  0  0  0  0  0  0  0  0
   10.2951   -1.6151   -3.4433 H   0  0  0  0  0  0  0  0  0  0  0  0
    8.9096   -3.6397   -3.8860 H   0  0  0  0  0  0  0  0  0  0  0  0
    2.5059   -2.1288   -1.9770 H   0  0  0  0  0  0  0  0  0  0  0  0
    0.2782   -1.8199   -1.0564 H   0  0  0  0  0  0  0  0  0  0  0  0
   -4.9399    0.4656    3.0013 H   0  0  0  0  0  0  0  0  0  0  0  0
   -7.1911    0.9786    3.6758 H   0  0  0  0  0  0  0  0  0  0  0  0
  1  2  1  0
  2  3  1  0
  3  4  2  0
  4  5  1  0
  5  6  2  0
  6  7  1  0
  7  8  1  0
  8  9  2  0
  8 10  1  0
 10 11  1  0
 11 12  3  0
 10 13  2  3
 13 14  1  0
 14 15  2  0
 15 16  1  0
 16 17  2  0
 17 18  1  0
 18 19  1  0
 19 20  1  0
 20 21  2  0
 21 22  1  0
 22 23  2  0
 23 24  1  0
 24 25  2  0
 25 26  1  0
 17 27  1  0
 27 28  2  0
  6 29  1  0
 29 30  2  0
 30  3  1  0
 28 14  1  0
 25 20  1  0
  1 31  1  0
  1 32  1  0
  1 33  1  0
  4 34  1  0
  5 35  1  0
  7 36  1  0
 13 37  1  0
 15 38  1  0
 16 39  1  0
 19 40  1  0
 19 41  1  0
 21 42  1  0
 22 43  1  0
 23 44  1  0
 24 45  1  0
 27 46  1  0
 28 47  1  0
 29 48  1  0
 30 49  1  0
M  END
$$$$
