
     RDKit          3D

 52 56  0  0  0  0  0  0  0  0999 V2000
   -2.3078   -2.3600   -0.7721 O   0  0  0  0  0  0  0  0  0  0  0  0
   -2.7845   -2.3084    0.3478 C   0  0  0  0  0  0  0  0  0  0  0  0
   -3.7506   -3.1745    0.7808 O   0  0  0  0  0  0  0  0  0  0  0  0
   -3.8927   -3.0218    2.1942 C   0  0  0  0  0  0  0  0  0  0  0  0
   -3.2487   -1.7012    2.5155 C   0  0  0  0  0  0  0  0  0  0  0  0
   -2.4584   -1.4181    1.3553 N   0  0  0  0  0  0  0  0  0  0  0  0
   -1.4944   -0.4157    1.3835 C   0  0  0  0  0  0  0  0  0  0  0  0
   -1.1770    0.0868    2.4686 O   0  0  0  0  0  0  0  0  0  0  0  0
   -0.8056   -0.0221    0.0591 C   0  0  0  0  0  0  0  0  0  0  0  0
    0.5878   -0.6703    0.0109 C   0  0  0  0  0  0  0  0  0  0  0  0
    0.9100   -1.2852   -1.3424 C   0  0  0  0  0  0  0  0  0  0  0  0
    1.0707   -0.4918   -2.4928 C   0  0  0  0  0  0  0  0  0  0  0  0
    1.3599   -1.0789   -3.7254 C   0  0  0  0  0  0  0  0  0  0  0  0
    1.4818   -2.4589   -3.8157 C   0  0  0  0  0  0  0  0  0  0  0  0
    1.7586   -3.0220   -4.9992 F   0  0  0  0  0  0  0  0  0  0  0  0
    1.3168   -3.2644   -2.6964 C   0  0  0  0  0  0  0  0  0  0  0  0
    1.0284   -2.6804   -1.4617 C   0  0  0  0  0  0  0  0  0  0  0  0
    1.4399    0.5491    0.3232 C   0  0  0  0  0  0  0  0  0  0  0  0
    2.8943    0.4587    0.6197 C   0  0  0  0  0  0  0  0  0  0  0  0
    3.6216    1.6475    0.7804 C   0  0  0  0  0  0  0  0  0  0  0  0
    4.9893    1.6112    1.0602 C   0  0  0  0  0  0  0  0  0  0  0  0
    5.6397    0.3852    1.1838 C   0  0  0  0  0  0  0  0  0  0  0  0
    4.9178   -0.7966    1.0283 C   0  0  0  0  0  0  0  0  0  0  0  0
    5.7208   -2.3116    1.1866 Cl  0  0  0  0  0  0  0  0  0  0  0  0
    3.5505   -0.7690    0.7488 C   0  0  0  0  0  0  0  0  0  0  0  0
    0.8085    1.6860    0.2935 N   0  0  0  0  0  0  0  0  0  0  0  0
   -0.5024    1.4158    0.0368 N   0  0  0  0  0  0  0  0  0  0  0  0
   -1.4490    2.4354   -0.0484 C   0  0  0  0  0  0  0  0  0  0  0  0
   -2.7936    2.1899   -0.3727 C   0  0  0  0  0  0  0  0  0  0  0  0
   -3.7303    3.2278   -0.4581 C   0  0  0  0  0  0  0  0  0  0  0  0
   -3.3409    4.5419   -0.2234 C   0  0  0  0  0  0  0  0  0  0  0  0
   -2.0154    4.8171    0.0905 C   0  0  0  0  0  0  0  0  0  0  0  0
   -1.0858    3.7750    0.1718 C   0  0  0  0  0  0  0  0  0  0  0  0
   -4.9511   -3.0461    2.4705 H   0  0  0  0  0  0  0  0  0  0  0  0
   -3.3816   -3.8579    2.6835 H   0  0  0  0  0  0  0  0  0  0  0  0
   -3.9935   -0.9041    2.6200 H   0  0  0  0  0  0  0  0  0  0  0  0
   -2.6502   -1.7338    3.4313 H   0  0  0  0  0  0  0  0  0  0  0  0
   -1.4202   -0.2702   -0.8071 H   0  0  0  0  0  0  0  0  0  0  0  0
    0.7165   -1.4138    0.8066 H   0  0  0  0  0  0  0  0  0  0  0  0
    0.9674    0.5921   -2.4415 H   0  0  0  0  0  0  0  0  0  0  0  0
    1.4851   -0.4681   -4.6137 H   0  0  0  0  0  0  0  0  0  0  0  0
    1.4062   -4.3416   -2.7941 H   0  0  0  0  0  0  0  0  0  0  0  0
    0.8874   -3.3275   -0.5987 H   0  0  0  0  0  0  0  0  0  0  0  0
    3.1257    2.6128    0.6875 H   0  0  0  0  0  0  0  0  0  0  0  0
    5.5432    2.5390    1.1812 H   0  0  0  0  0  0  0  0  0  0  0  0
    6.7042    0.3577    1.4015 H   0  0  0  0  0  0  0  0  0  0  0  0
    3.0241   -1.7100    0.6376 H   0  0  0  0  0  0  0  0  0  0  0  0
   -3.1433    1.1852   -0.5858 H   0  0  0  0  0  0  0  0  0  0  0  0
   -4.7627    3.0061   -0.7153 H   0  0  0  0  0  0  0  0  0  0  0  0
   -4.0654    5.3485   -0.2894 H   0  0  0  0  0  0  0  0  0  0  0  0
   -1.6961    5.8392    0.2734 H   0  0  0  0  0  0  0  0  0  0  0  0
   -0.0547    4.0160    0.4217 H   0  0  0  0  0  0  0  0  0  0  0  0
  1  2  2  0
  2  3  1  0
  3  4  1  0
  4  5  1  0
  5  6  1  0
  6  7  1  0
  7  8  2  0
  7  9  1  0
  9 10  1  0
 10 11  1  0
 11 12  2  0
 12 13  1  0
 13 14  2  0
 14 15  1  0
 14 16  1  0
 16 17  2  0
 10 18  1  0
 18 19  1  0
 19 20  2  0
 20 21  1  0
 21 22  2  0
 22 23  1  0
 23 24  1  0
 23 25  2  0
 18 26  2  0
 26 27  1  0
 27 28  1  0
 28 29  2  0
 29 30  1  0
 30 31  2  0
 31 32  1  0
 32 33  2  0
  6  2  1  0
 27  9  1  0
 33 28  1  0
 17 11  1  0
 25 19  1  0
  4 34  1  0
  4 35  1  0
  5 36  1  0
  5 37  1  0
  9 38  1  0
 10 39  1  0
 12 40  1  0
 13 41  1  0
 16 42  1  0
 17 43  1  0
 20 44  1  0
 21 45  1  0
 22 46  1  0
 25 47  1  0
 29 48  1  0
 30 49  1  0
 31 50  1  0
 32 51  1  0
 33 52  1  0
M  END
$$$$
