
     RDKit          3D

 50 53  0  0  0  0  0  0  0  0999 V2000
  -10.1366    0.3349    0.1569 C   0  0  0  0  0  0  0  0  0  0  0  0
   -8.6890   -0.0216   -0.0281 C   0  0  0  0  0  0  0  0  0  0  0  0
   -8.3111   -1.3430   -0.2753 C   0  0  0  0  0  0  0  0  0  0  0  0
   -6.9630   -1.6869   -0.4302 C   0  0  0  0  0  0  0  0  0  0  0  0
   -5.9694   -0.6945   -0.3260 C   0  0  0  0  0  0  0  0  0  0  0  0
   -4.6070   -0.8912   -0.4621 N   0  0  0  0  0  0  0  0  0  0  0  0
   -3.9509    0.2413   -0.3004 C   0  0  0  0  0  0  0  0  0  0  0  0
   -2.4808    0.3575   -0.4054 C   0  0  0  0  0  0  0  0  0  0  0  0
   -1.7487   -0.7266   -0.9140 C   0  0  0  0  0  0  0  0  0  0  0  0
   -0.3535   -0.6750   -1.0481 C   0  0  0  0  0  0  0  0  0  0  0  0
    0.3497    0.4656   -0.6706 C   0  0  0  0  0  0  0  0  0  0  0  0
    1.7490    0.6078   -0.7788 N   0  0  0  0  0  0  0  0  0  0  0  0
    2.6475   -0.3040   -1.3065 C   0  0  0  0  0  0  0  0  0  0  0  0
    2.3807   -1.3851   -1.8170 O   0  0  0  0  0  0  0  0  0  0  0  0
    4.0717    0.2267   -1.2863 C   0  0  0  0  0  0  0  0  0  0  0  0
    5.0978   -0.8880   -1.4139 C   0  0  0  0  0  0  0  0  0  0  0  0
    5.4013   -1.7220    0.1365 S   0  0  0  0  0  6  0  0  0  0  0  0
    6.2550   -2.8660   -0.1211 O   0  0  0  0  0  0  0  0  0  0  0  0
    4.1505   -1.8667    0.8552 O   0  0  0  0  0  0  0  0  0  0  0  0
    6.3936   -0.5524    1.0460 C   0  0  0  0  0  0  0  0  0  0  0  0
    7.7340   -0.3751    0.6902 C   0  0  0  0  0  0  0  0  0  0  0  0
    8.5116    0.5455    1.3916 C   0  0  0  0  0  0  0  0  0  0  0  0
    7.9544    1.2705    2.4461 C   0  0  0  0  0  0  0  0  0  0  0  0
    6.6213    1.0721    2.8103 C   0  0  0  0  0  0  0  0  0  0  0  0
    5.8360    0.1540    2.1150 C   0  0  0  0  0  0  0  0  0  0  0  0
   -0.3655    1.5492   -0.1505 C   0  0  0  0  0  0  0  0  0  0  0  0
   -1.7611    1.4977   -0.0210 C   0  0  0  0  0  0  0  0  0  0  0  0
   -4.9545    1.6052    0.0166 S   0  0  0  0  0  0  0  0  0  0  0  0
   -6.3579    0.6171   -0.0646 C   0  0  0  0  0  0  0  0  0  0  0  0
   -7.7079    0.9758    0.0918 C   0  0  0  0  0  0  0  0  0  0  0  0
  -10.3609    0.4529    1.2217 H   0  0  0  0  0  0  0  0  0  0  0  0
  -10.7927   -0.4400   -0.2540 H   0  0  0  0  0  0  0  0  0  0  0  0
  -10.3707    1.2690   -0.3636 H   0  0  0  0  0  0  0  0  0  0  0  0
   -9.0636   -2.1257   -0.3540 H   0  0  0  0  0  0  0  0  0  0  0  0
   -6.6730   -2.7134   -0.6282 H   0  0  0  0  0  0  0  0  0  0  0  0
   -2.2651   -1.6363   -1.2192 H   0  0  0  0  0  0  0  0  0  0  0  0
    0.1459   -1.5516   -1.4481 H   0  0  0  0  0  0  0  0  0  0  0  0
    2.1265    1.4821   -0.4390 H   0  0  0  0  0  0  0  0  0  0  0  0
    4.1629    0.8958   -2.1496 H   0  0  0  0  0  0  0  0  0  0  0  0
    4.2397    0.8229   -0.3844 H   0  0  0  0  0  0  0  0  0  0  0  0
    6.0583   -0.4921   -1.7584 H   0  0  0  0  0  0  0  0  0  0  0  0
    4.7914   -1.6562   -2.1307 H   0  0  0  0  0  0  0  0  0  0  0  0
    8.1797   -0.9526   -0.1171 H   0  0  0  0  0  0  0  0  0  0  0  0
    9.5560    0.6904    1.1254 H   0  0  0  0  0  0  0  0  0  0  0  0
    8.5660    1.9825    2.9955 H   0  0  0  0  0  0  0  0  0  0  0  0
    6.1993    1.6245    3.6468 H   0  0  0  0  0  0  0  0  0  0  0  0
    4.8033   -0.0078    2.4168 H   0  0  0  0  0  0  0  0  0  0  0  0
    0.1464    2.4563    0.1604 H   0  0  0  0  0  0  0  0  0  0  0  0
   -2.2643    2.3694    0.3894 H   0  0  0  0  0  0  0  0  0  0  0  0
   -7.9824    2.0067    0.2969 H   0  0  0  0  0  0  0  0  0  0  0  0
  1  2  1  0
  2  3  2  0
  3  4  1  0
  4  5  2  0
  5  6  1  0
  6  7  2  0
  7  8  1  0
  8  9  2  0
  9 10  1  0
 10 11  2  0
 11 12  1  0
 12 13  1  0
 13 14  2  0
 13 15  1  0
 15 16  1  0
 16 17  1  0
 17 18  2  0
 17 19  2  0
 17 20  1  0
 20 21  2  0
 21 22  1  0
 22 23  2  0
 23 24  1  0
 24 25  2  0
 11 26  1  0
 26 27  2  0
  7 28  1  0
 28 29  1  0
 29 30  2  0
 30  2  1  0
 29  5  1  0
 27  8  1  0
 25 20  1  0
  1 31  1  0
  1 32  1  0
  1 33  1  0
  3 34  1  0
  4 35  1  0
  9 36  1  0
 10 37  1  0
 12 38  1  0
 15 39  1  0
 15 40  1  0
 16 41  1  0
 16 42  1  0
 21 43  1  0
 22 44  1  0
 23 45  1  0
 24 46  1  0
 25 47  1  0
 26 48  1  0
 27 49  1  0
 30 50  1  0
M  END
$$$$
