
     RDKit          3D

 37 38  0  0  0  0  0  0  0  0999 V2000
    6.8336    1.1957    1.1304 C   0  0  0  0  0  0  0  0  0  0  0  0
    6.2790    0.4815    0.0324 O   0  0  0  0  0  0  0  0  0  0  0  0
    4.9743    0.0900    0.1450 C   0  0  0  0  0  0  0  0  0  0  0  0
    4.4746   -0.5991   -0.9632 C   0  0  0  0  0  0  0  0  0  0  0  0
    3.1540   -1.0603   -0.9883 C   0  0  0  0  0  0  0  0  0  0  0  0
    2.3155   -0.8301    0.1060 C   0  0  0  0  0  0  0  0  0  0  0  0
    0.8995   -1.2996    0.1407 C   0  0  0  0  0  0  0  0  0  0  0  0
    0.2805   -1.2823    1.2034 O   0  0  0  0  0  0  0  0  0  0  0  0
    0.2685   -1.8118   -1.1279 C   0  0  0  0  0  0  0  0  0  0  0  0
   -1.2261   -1.8982   -1.0246 C   0  0  0  0  0  0  0  0  0  0  0  0
   -1.8719   -2.9343   -1.1570 O   0  0  0  0  0  0  0  0  0  0  0  0
   -1.9689   -0.5850   -0.7776 C   0  0  0  0  0  0  0  0  0  0  0  0
   -1.3919    0.4662   -1.0082 O   0  0  0  0  0  0  0  0  0  0  0  0
   -3.2575   -0.7976   -0.3364 N   0  0  0  0  0  0  0  0  0  0  0  0
   -4.2245    0.1654   -0.0047 C   0  0  0  0  0  0  0  0  0  0  0  0
   -5.4834   -0.3019    0.3952 C   0  0  0  0  0  0  0  0  0  0  0  0
   -6.4988    0.5947    0.7418 C   0  0  0  0  0  0  0  0  0  0  0  0
   -6.2574    1.9644    0.6905 C   0  0  0  0  0  0  0  0  0  0  0  0
   -7.5039    3.0704    1.1158 Cl  0  0  0  0  0  0  0  0  0  0  0  0
   -5.0103    2.4415    0.2969 C   0  0  0  0  0  0  0  0  0  0  0  0
   -3.9950    1.5426   -0.0499 C   0  0  0  0  0  0  0  0  0  0  0  0
    2.8181   -0.1445    1.2197 C   0  0  0  0  0  0  0  0  0  0  0  0
    4.1403    0.3151    1.2390 C   0  0  0  0  0  0  0  0  0  0  0  0
    6.8428    0.5809    2.0365 H   0  0  0  0  0  0  0  0  0  0  0  0
    6.3024    2.1387    1.2968 H   0  0  0  0  0  0  0  0  0  0  0  0
    7.8715    1.4375    0.8818 H   0  0  0  0  0  0  0  0  0  0  0  0
    5.1248   -0.7802   -1.8169 H   0  0  0  0  0  0  0  0  0  0  0  0
    2.8184   -1.5997   -1.8685 H   0  0  0  0  0  0  0  0  0  0  0  0
    0.6572   -2.8160   -1.3282 H   0  0  0  0  0  0  0  0  0  0  0  0
    0.5062   -1.1617   -1.9755 H   0  0  0  0  0  0  0  0  0  0  0  0
   -3.5221   -1.7778   -0.2654 H   0  0  0  0  0  0  0  0  0  0  0  0
   -5.6919   -1.3681    0.4428 H   0  0  0  0  0  0  0  0  0  0  0  0
   -7.4702    0.2175    1.0498 H   0  0  0  0  0  0  0  0  0  0  0  0
   -4.8157    3.5100    0.2573 H   0  0  0  0  0  0  0  0  0  0  0  0
   -3.0345    1.9524   -0.3473 H   0  0  0  0  0  0  0  0  0  0  0  0
    2.1804    0.0406    2.0831 H   0  0  0  0  0  0  0  0  0  0  0  0
    4.4825    0.8430    2.1232 H   0  0  0  0  0  0  0  0  0  0  0  0
  1  2  1  0
  2  3  1  0
  3  4  2  0
  4  5  1  0
  5  6  2  0
  6  7  1  0
  7  8  2  0
  7  9  1  0
  9 10  1  0
 10 11  2  0
 10 12  1  0
 12 13  2  0
 12 14  1  0
 14 15  1  0
 15 16  2  0
 16 17  1  0
 17 18  2  0
 18 19  1  0
 18 20  1  0
 20 21  2  0
  6 22  1  0
 22 23  2  0
 23  3  1  0
 21 15  1  0
  1 24  1  0
  1 25  1  0
  1 26  1  0
  4 27  1  0
  5 28  1  0
  9 29  1  0
  9 30  1  0
 14 31  1  0
 16 32  1  0
 17 33  1  0
 20 34  1  0
 21 35  1  0
 22 36  1  0
 23 37  1  0
M  END
$$$$
