
     RDKit          3D

 57 58  0  0  0  0  0  0  0  0999 V2000
    8.3575   -2.7466    1.0705 C   0  0  0  0  0  0  0  0  0  0  0  0
    7.5312   -2.3259   -0.1343 C   0  0  0  0  0  0  0  0  0  0  0  0
    6.8918   -0.9561    0.0769 C   0  0  0  0  0  0  0  0  0  0  0  0
    6.0669   -0.5292   -1.1361 C   0  0  0  0  0  0  0  0  0  0  0  0
    5.5156    0.7728   -0.9380 O   0  0  0  0  0  0  0  0  0  0  0  0
    4.3008    0.8889   -0.3239 C   0  0  0  0  0  0  0  0  0  0  0  0
    3.8059    2.1932   -0.2642 C   0  0  0  0  0  0  0  0  0  0  0  0
    2.5752    2.4677    0.3390 C   0  0  0  0  0  0  0  0  0  0  0  0
    1.8172    1.4369    0.9102 C   0  0  0  0  0  0  0  0  0  0  0  0
    0.4609    1.6873    1.5477 C   0  0  0  0  0  0  0  0  0  0  0  0
    0.4665    2.8831    2.5057 C   0  0  0  0  0  0  0  0  0  0  0  0
   -0.5375    1.8451    0.5012 N   0  0  0  0  0  0  0  0  0  0  0  0
   -1.8729    1.6411    0.7528 C   0  0  0  0  0  0  0  0  0  0  0  0
   -2.3414    1.4690    1.8741 O   0  0  0  0  0  0  0  0  0  0  0  0
   -2.7476    1.7194   -0.4813 C   0  0  0  0  0  0  0  0  0  0  0  0
   -3.9544    0.8053   -0.3400 C   0  0  0  0  0  0  0  0  0  0  0  0
   -3.5108   -0.8940   -0.6964 S   0  0  0  0  0  6  0  0  0  0  0  0
   -3.5135   -1.0494   -2.1405 O   0  0  0  0  0  0  0  0  0  0  0  0
   -2.3064   -1.2197    0.0465 O   0  0  0  0  0  0  0  0  0  0  0  0
   -4.8367   -1.8790   -0.0019 C   0  0  0  0  0  0  0  0  0  0  0  0
   -6.1843   -1.3874   -0.4613 C   0  0  0  0  0  0  0  0  0  0  0  0
   -7.0211   -0.6859    0.4213 C   0  0  0  0  0  0  0  0  0  0  0  0
   -8.2721   -0.2277    0.0029 C   0  0  0  0  0  0  0  0  0  0  0  0
   -8.7052   -0.4702   -1.2998 C   0  0  0  0  0  0  0  0  0  0  0  0
   -7.8865   -1.1736   -2.1795 C   0  0  0  0  0  0  0  0  0  0  0  0
   -8.4230   -1.4775   -3.7855 Cl  0  0  0  0  0  0  0  0  0  0  0  0
   -6.6349   -1.6333   -1.7678 C   0  0  0  0  0  0  0  0  0  0  0  0
    2.3147    0.1271    0.8345 C   0  0  0  0  0  0  0  0  0  0  0  0
    3.5481   -0.1442    0.2292 C   0  0  0  0  0  0  0  0  0  0  0  0
    8.8043   -3.7308    0.8987 H   0  0  0  0  0  0  0  0  0  0  0  0
    7.7367   -2.8075    1.9701 H   0  0  0  0  0  0  0  0  0  0  0  0
    9.1669   -2.0341    1.2591 H   0  0  0  0  0  0  0  0  0  0  0  0
    8.1744   -2.3045   -1.0216 H   0  0  0  0  0  0  0  0  0  0  0  0
    6.7523   -3.0757   -0.3155 H   0  0  0  0  0  0  0  0  0  0  0  0
    6.2639   -0.9715    0.9751 H   0  0  0  0  0  0  0  0  0  0  0  0
    7.6655   -0.2019    0.2685 H   0  0  0  0  0  0  0  0  0  0  0  0
    5.3050   -1.2659   -1.4150 H   0  0  0  0  0  0  0  0  0  0  0  0
    6.7330   -0.4492   -2.0035 H   0  0  0  0  0  0  0  0  0  0  0  0
    4.3846    3.0062   -0.6968 H   0  0  0  0  0  0  0  0  0  0  0  0
    2.2184    3.4945    0.3506 H   0  0  0  0  0  0  0  0  0  0  0  0
    0.1819    0.8044    2.1382 H   0  0  0  0  0  0  0  0  0  0  0  0
   -0.4831    2.9577    3.0464 H   0  0  0  0  0  0  0  0  0  0  0  0
    0.6047    3.8323    1.9767 H   0  0  0  0  0  0  0  0  0  0  0  0
    1.2659    2.7875    3.2488 H   0  0  0  0  0  0  0  0  0  0  0  0
   -0.2117    1.7516   -0.4528 H   0  0  0  0  0  0  0  0  0  0  0  0
   -2.1734    1.4784   -1.3821 H   0  0  0  0  0  0  0  0  0  0  0  0
   -3.0821    2.7599   -0.5626 H   0  0  0  0  0  0  0  0  0  0  0  0
   -4.7278    1.0898   -1.0602 H   0  0  0  0  0  0  0  0  0  0  0  0
   -4.3791    0.8349    0.6670 H   0  0  0  0  0  0  0  0  0  0  0  0
   -4.7422   -1.8297    1.0879 H   0  0  0  0  0  0  0  0  0  0  0  0
   -4.6762   -2.9176   -0.3085 H   0  0  0  0  0  0  0  0  0  0  0  0
   -6.7096   -0.4913    1.4470 H   0  0  0  0  0  0  0  0  0  0  0  0
   -8.9126    0.3150    0.6946 H   0  0  0  0  0  0  0  0  0  0  0  0
   -9.6805   -0.1137   -1.6207 H   0  0  0  0  0  0  0  0  0  0  0  0
   -6.0089   -2.1806   -2.4716 H   0  0  0  0  0  0  0  0  0  0  0  0
    1.7398   -0.7009    1.2470 H   0  0  0  0  0  0  0  0  0  0  0  0
    3.8860   -1.1745    0.2138 H   0  0  0  0  0  0  0  0  0  0  0  0
  1  2  1  0
  2  3  1  0
  3  4  1  0
  4  5  1  0
  5  6  1  0
  6  7  2  0
  7  8  1  0
  8  9  2  0
  9 10  1  0
 10 11  1  0
 10 12  1  0
 12 13  1  0
 13 14  2  0
 13 15  1  0
 15 16  1  0
 16 17  1  0
 17 18  2  0
 17 19  2  0
 17 20  1  0
 20 21  1  0
 21 22  2  0
 22 23  1  0
 23 24  2  0
 24 25  1  0
 25 26  1  0
 25 27  2  0
  9 28  1  0
 28 29  2  0
 29  6  1  0
 27 21  1  0
  1 30  1  0
  1 31  1  0
  1 32  1  0
  2 33  1  0
  2 34  1  0
  3 35  1  0
  3 36  1  0
  4 37  1  0
  4 38  1  0
  7 39  1  0
  8 40  1  0
 10 41  1  0
 11 42  1  0
 11 43  1  0
 11 44  1  0
 12 45  1  0
 15 46  1  0
 15 47  1  0
 16 48  1  0
 16 49  1  0
 20 50  1  0
 20 51  1  0
 22 52  1  0
 23 53  1  0
 24 54  1  0
 27 55  1  0
 28 56  1  0
 29 57  1  0
M  END
$$$$
