
     RDKit          3D

 37 38  0  0  0  0  0  0  0  0999 V2000
   -1.8988    1.5496    1.8723 C   0  0  0  0  0  0  0  0  0  0  0  0
   -1.4459    1.1504    0.5858 O   0  0  0  0  0  0  0  0  0  0  0  0
   -1.9257   -0.0359    0.0935 C   0  0  0  0  0  0  0  0  0  0  0  0
   -3.0182   -0.7319    0.6287 C   0  0  0  0  0  0  0  0  0  0  0  0
   -3.4414   -1.9477    0.0800 C   0  0  0  0  0  0  0  0  0  0  0  0
   -4.6021   -2.5718    0.5569 N   0  0  0  0  0  0  0  0  0  0  0  0
   -2.8281   -2.4087   -1.0838 C   0  0  0  0  0  0  0  0  0  0  0  0
   -1.7426   -1.7249   -1.6329 C   0  0  0  0  0  0  0  0  0  0  0  0
   -1.2735   -0.5389   -1.0464 C   0  0  0  0  0  0  0  0  0  0  0  0
   -0.0802    0.1726   -1.6586 C   0  0  0  0  0  0  0  0  0  0  0  0
    1.2186    0.0605   -0.8841 C   0  0  0  0  0  0  0  0  0  0  0  0
    1.6060   -1.1460   -0.2808 C   0  0  0  0  0  0  0  0  0  0  0  0
    2.8276   -1.2541    0.3939 C   0  0  0  0  0  0  0  0  0  0  0  0
    3.7236   -0.1856    0.4263 C   0  0  0  0  0  0  0  0  0  0  0  0
    4.8968   -0.2692    1.1870 N   0  0  0  0  0  0  0  0  0  0  0  0
    3.3304    1.0299   -0.1335 C   0  0  0  0  0  0  0  0  0  0  0  0
    2.0969    1.1488   -0.7864 C   0  0  0  0  0  0  0  0  0  0  0  0
    1.7705    2.3341   -1.3971 O   0  0  0  0  0  0  0  0  0  0  0  0
    1.4716    3.3354   -0.4236 C   0  0  0  0  0  0  0  0  0  0  0  0
   -1.3202    2.4289    2.1715 H   0  0  0  0  0  0  0  0  0  0  0  0
   -1.7246    0.7675    2.6189 H   0  0  0  0  0  0  0  0  0  0  0  0
   -2.9534    1.8414    1.8418 H   0  0  0  0  0  0  0  0  0  0  0  0
   -3.5657   -0.3371    1.4771 H   0  0  0  0  0  0  0  0  0  0  0  0
   -4.6590   -3.5591    0.3274 H   0  0  0  0  0  0  0  0  0  0  0  0
   -4.7912   -2.3934    1.5380 H   0  0  0  0  0  0  0  0  0  0  0  0
   -3.1898   -3.3075   -1.5759 H   0  0  0  0  0  0  0  0  0  0  0  0
   -1.2688   -2.1189   -2.5293 H   0  0  0  0  0  0  0  0  0  0  0  0
    0.1060   -0.2159   -2.6688 H   0  0  0  0  0  0  0  0  0  0  0  0
   -0.3675    1.2215   -1.8024 H   0  0  0  0  0  0  0  0  0  0  0  0
    0.9542   -2.0157   -0.3160 H   0  0  0  0  0  0  0  0  0  0  0  0
    3.0757   -2.1920    0.8835 H   0  0  0  0  0  0  0  0  0  0  0  0
    5.2569   -1.2142    1.2756 H   0  0  0  0  0  0  0  0  0  0  0  0
    5.6139    0.3902    0.9012 H   0  0  0  0  0  0  0  0  0  0  0  0
    3.9913    1.8893   -0.0814 H   0  0  0  0  0  0  0  0  0  0  0  0
    0.9791    4.1653   -0.9391 H   0  0  0  0  0  0  0  0  0  0  0  0
    2.3895    3.7197    0.0330 H   0  0  0  0  0  0  0  0  0  0  0  0
    0.7882    2.9636    0.3478 H   0  0  0  0  0  0  0  0  0  0  0  0
  1  2  1  0
  2  3  1  0
  3  4  2  0
  4  5  1  0
  5  6  1  0
  5  7  2  0
  7  8  1  0
  8  9  2  0
  9 10  1  0
 10 11  1  0
 11 12  2  0
 12 13  1  0
 13 14  2  0
 14 15  1  0
 14 16  1  0
 16 17  2  0
 17 18  1  0
 18 19  1  0
  9  3  1  0
 17 11  1  0
  1 20  1  0
  1 21  1  0
  1 22  1  0
  4 23  1  0
  6 24  1  0
  6 25  1  0
  7 26  1  0
  8 27  1  0
 10 28  1  0
 10 29  1  0
 12 30  1  0
 13 31  1  0
 15 32  1  0
 15 33  1  0
 16 34  1  0
 19 35  1  0
 19 36  1  0
 19 37  1  0
M  END
$$$$
