
     RDKit          3D

 67 71  0  0  0  0  0  0  0  0999 V2000
    7.1252    0.4752    1.9788 O   0  0  0  0  0  0  0  0  0  0  0  0
    8.0270   -0.1867    1.4920 C   0  0  0  0  0  0  0  0  0  0  0  0
    9.5010    0.1172    1.6138 C   0  0  0  0  0  0  0  0  0  0  0  0
   10.1641   -1.1367    1.0547 C   0  0  0  0  0  0  0  0  0  0  0  0
    9.1433   -1.6739    0.0719 C   0  0  0  0  0  0  0  0  0  0  0  0
    7.8885   -1.3022    0.6735 N   0  0  0  0  0  0  0  0  0  0  0  0
    6.6070   -1.7316    0.1373 C   0  0  0  0  0  0  0  0  0  0  0  0
    6.1581   -0.8670   -1.0393 C   0  0  0  0  0  0  0  0  0  0  0  0
    4.8351   -1.3266   -1.6390 C   0  0  0  0  0  0  0  0  0  0  0  0
    3.7318   -1.3713   -0.6791 N   0  0  0  0  0  0  0  0  0  0  0  0
    3.0651   -0.2168   -0.3280 C   0  0  0  0  0  0  0  0  0  0  0  0
    3.6825    0.7798    0.6008 C   0  0  0  0  0  0  0  0  0  0  0  0
    2.9952    1.8868    0.9050 C   0  0  0  0  0  0  0  0  0  0  0  0
    1.7151    2.0663    0.3498 C   0  0  0  0  0  0  0  0  0  0  0  0
    0.8319    3.0371    0.4362 N   0  0  0  0  0  0  0  0  0  0  0  0
   -0.2598    2.6764   -0.3202 N   0  0  0  0  0  0  0  0  0  0  0  0
   -0.0230    1.4854   -0.8411 C   0  0  0  0  0  0  0  0  0  0  0  0
   -0.9185    0.7037   -1.7383 C   0  0  0  0  0  0  0  0  0  0  0  0
   -2.3922    0.8952   -1.3826 C   0  0  0  0  0  0  0  0  0  0  0  0
   -2.7872    0.1421   -0.1201 C   0  0  0  0  0  0  0  0  0  0  0  0
   -2.0730   -0.7469    0.3444 O   0  0  0  0  0  0  0  0  0  0  0  0
   -4.0199    0.4559    0.4302 N   0  0  0  0  0  0  0  0  0  0  0  0
   -4.5157   -0.3011    1.5858 C   0  0  0  0  0  0  0  0  0  0  0  0
   -5.9948   -0.7028    1.4138 C   0  0  0  0  0  0  0  0  0  0  0  0
   -6.8597    0.4434    1.0254 N   0  0  0  0  0  0  0  0  0  0  0  0
   -8.0075    0.1141    0.3007 C   0  0  0  0  0  0  0  0  0  0  0  0
   -8.4154    0.7999   -0.8534 C   0  0  0  0  0  0  0  0  0  0  0  0
   -9.5753    0.4419   -1.5534 C   0  0  0  0  0  0  0  0  0  0  0  0
  -10.3646   -0.6120   -1.1089 C   0  0  0  0  0  0  0  0  0  0  0  0
   -9.9939   -1.3050    0.0365 C   0  0  0  0  0  0  0  0  0  0  0  0
   -8.8324   -0.9425    0.7281 C   0  0  0  0  0  0  0  0  0  0  0  0
   -6.1562    1.7189    0.8090 C   0  0  0  0  0  0  0  0  0  0  0  0
   -4.9024    1.5242   -0.0611 C   0  0  0  0  0  0  0  0  0  0  0  0
    1.2280    1.0605   -0.4574 N   0  0  0  0  0  0  0  0  0  0  0  0
    1.8644   -0.0912   -0.8311 N   0  0  0  0  0  0  0  0  0  0  0  0
    9.7310    0.9965    1.0041 H   0  0  0  0  0  0  0  0  0  0  0  0
    9.7810    0.2926    2.6555 H   0  0  0  0  0  0  0  0  0  0  0  0
   10.3181   -1.8603    1.8654 H   0  0  0  0  0  0  0  0  0  0  0  0
   11.1350   -0.9367    0.5937 H   0  0  0  0  0  0  0  0  0  0  0  0
    9.2287   -1.1827   -0.9030 H   0  0  0  0  0  0  0  0  0  0  0  0
    9.2082   -2.7588   -0.0468 H   0  0  0  0  0  0  0  0  0  0  0  0
    5.8762   -1.6668    0.9504 H   0  0  0  0  0  0  0  0  0  0  0  0
    6.6936   -2.7839   -0.1531 H   0  0  0  0  0  0  0  0  0  0  0  0
    6.0971    0.1837   -0.7369 H   0  0  0  0  0  0  0  0  0  0  0  0
    6.9222   -0.9021   -1.8261 H   0  0  0  0  0  0  0  0  0  0  0  0
    4.5652   -0.6812   -2.4833 H   0  0  0  0  0  0  0  0  0  0  0  0
    4.9669   -2.3356   -2.0477 H   0  0  0  0  0  0  0  0  0  0  0  0
    3.0190   -1.9941   -1.0629 H   0  0  0  0  0  0  0  0  0  0  0  0
    4.6525    0.5715    1.0317 H   0  0  0  0  0  0  0  0  0  0  0  0
    3.3912    2.6346    1.5816 H   0  0  0  0  0  0  0  0  0  0  0  0
   -0.6580   -0.3609   -1.7273 H   0  0  0  0  0  0  0  0  0  0  0  0
   -0.7566    1.0580   -2.7638 H   0  0  0  0  0  0  0  0  0  0  0  0
   -2.6133    1.9614   -1.2832 H   0  0  0  0  0  0  0  0  0  0  0  0
   -3.0078    0.4949   -2.1972 H   0  0  0  0  0  0  0  0  0  0  0  0
   -4.3952    0.3425    2.4659 H   0  0  0  0  0  0  0  0  0  0  0  0
   -3.9125   -1.1985    1.7582 H   0  0  0  0  0  0  0  0  0  0  0  0
   -6.3585   -1.1359    2.3529 H   0  0  0  0  0  0  0  0  0  0  0  0
   -6.0374   -1.4807    0.6390 H   0  0  0  0  0  0  0  0  0  0  0  0
   -7.8286    1.6173   -1.2586 H   0  0  0  0  0  0  0  0  0  0  0  0
   -9.8558    0.9904   -2.4489 H   0  0  0  0  0  0  0  0  0  0  0  0
  -11.2654   -0.8885   -1.6495 H   0  0  0  0  0  0  0  0  0  0  0  0
  -10.6075   -2.1235    0.4024 H   0  0  0  0  0  0  0  0  0  0  0  0
   -8.5888   -1.4887    1.6362 H   0  0  0  0  0  0  0  0  0  0  0  0
   -6.8015    2.5024    0.3981 H   0  0  0  0  0  0  0  0  0  0  0  0
   -5.8489    2.0960    1.7934 H   0  0  0  0  0  0  0  0  0  0  0  0
   -5.1864    1.2673   -1.0875 H   0  0  0  0  0  0  0  0  0  0  0  0
   -4.3356    2.4602   -0.0884 H   0  0  0  0  0  0  0  0  0  0  0  0
  1  2  2  0
  2  3  1  0
  3  4  1  0
  4  5  1  0
  5  6  1  0
  6  7  1  0
  7  8  1  0
  8  9  1  0
  9 10  1  0
 10 11  1  0
 11 12  1  0
 12 13  2  0
 13 14  1  0
 14 15  2  0
 15 16  1  0
 16 17  2  0
 17 18  1  0
 18 19  1  0
 19 20  1  0
 20 21  2  0
 20 22  1  0
 22 23  1  0
 23 24  1  0
 24 25  1  0
 25 26  1  0
 26 27  2  0
 27 28  1  0
 28 29  2  0
 29 30  1  0
 30 31  2  0
 25 32  1  0
 32 33  1  0
 17 34  1  0
 34 35  1  0
  6  2  1  0
 35 11  2  0
 34 14  1  0
 33 22  1  0
 31 26  1  0
  3 36  1  0
  3 37  1  0
  4 38  1  0
  4 39  1  0
  5 40  1  0
  5 41  1  0
  7 42  1  0
  7 43  1  0
  8 44  1  0
  8 45  1  0
  9 46  1  0
  9 47  1  0
 10 48  1  0
 12 49  1  0
 13 50  1  0
 18 51  1  0
 18 52  1  0
 19 53  1  0
 19 54  1  0
 23 55  1  0
 23 56  1  0
 24 57  1  0
 24 58  1  0
 27 59  1  0
 28 60  1  0
 29 61  1  0
 30 62  1  0
 31 63  1  0
 32 64  1  0
 32 65  1  0
 33 66  1  0
 33 67  1  0
M  END
$$$$
