
     RDKit          3D

 77 83  0  0  0  0  0  0  0  0999 V2000
   -6.7741   -2.2043   -1.5722 C   0  0  0  0  0  0  0  0  0  0  0  0
   -5.9960   -2.4819   -0.2809 C   0  0  0  0  0  0  0  0  0  0  0  0
   -5.9511   -4.0004   -0.0543 C   0  0  0  0  0  0  0  0  0  0  0  0
   -6.6517   -1.8230    0.9381 C   0  0  0  0  0  0  0  0  0  0  0  0
   -4.6054   -2.0901   -0.4075 O   0  0  0  0  0  0  0  0  0  0  0  0
   -4.2602   -0.7904   -0.6014 C   0  0  0  0  0  0  0  0  0  0  0  0
   -5.0599    0.1295   -0.7196 O   0  0  0  0  0  0  0  0  0  0  0  0
   -2.8915   -0.6295   -0.6385 N   0  0  0  0  0  0  0  0  0  0  0  0
   -1.9639   -1.7455   -0.4485 C   0  0  0  0  0  0  0  0  0  0  0  0
   -0.4901   -1.3369   -0.6325 C   0  0  0  0  0  0  0  0  0  0  0  0
   -0.1337   -0.2278    0.2487 N   0  0  0  0  0  0  0  0  0  0  0  0
   -1.1300    0.9090    0.2127 C   0  0  2  0  0  0  0  0  0  0  0  0
   -2.3060    0.7071   -0.7638 C   0  0  0  0  0  0  0  0  0  0  0  0
   -0.2753    2.0738   -0.0981 C   0  0  0  0  0  0  0  0  0  0  0  0
    1.0786    1.7450   -0.1218 C   0  0  0  0  0  0  0  0  0  0  0  0
    1.7969    2.8770   -0.4255 C   0  0  0  0  0  0  0  0  0  0  0  0
    3.1110    3.0504   -0.5473 O   0  0  0  0  0  0  0  0  0  0  0  0
    0.8749    3.9386   -0.5342 N   0  0  0  0  0  0  0  0  0  0  0  0
    1.1854    5.3269   -0.7006 C   0  0  0  0  0  0  0  0  0  0  0  0
    2.3314    5.7303   -1.3966 C   0  0  0  0  0  0  0  0  0  0  0  0
    2.6194    7.0891   -1.5554 C   0  0  0  0  0  0  0  0  0  0  0  0
    1.7729    8.0531   -1.0136 C   0  0  0  0  0  0  0  0  0  0  0  0
    0.6402    7.6626   -0.3042 C   0  0  0  0  0  0  0  0  0  0  0  0
    0.3478    6.3061   -0.1428 C   0  0  0  0  0  0  0  0  0  0  0  0
   -0.4202    3.3913   -0.4292 C   0  0  0  0  0  0  0  0  0  0  0  0
   -1.5530    4.0498   -0.6707 O   0  0  0  0  0  0  0  0  0  0  0  0
    1.2636    0.3063    0.1683 C   0  0  1  0  0  0  0  0  0  0  0  0
    1.9851    0.0354    1.5235 C   0  0  0  0  0  0  0  0  0  0  0  0
    1.6176    0.3588    2.6458 O   0  0  0  0  0  0  0  0  0  0  0  0
    3.1557   -0.6775    1.2186 N   0  0  0  0  0  0  0  0  0  0  0  0
    4.0452   -1.2051    2.2285 C   0  0  0  0  0  0  0  0  0  0  0  0
    3.8178   -2.6754    2.4981 C   0  0  0  0  0  0  0  0  0  0  0  0
    2.5848   -3.1260    2.9954 C   0  0  0  0  0  0  0  0  0  0  0  0
    2.3744   -4.4820    3.2489 C   0  0  0  0  0  0  0  0  0  0  0  0
    3.3946   -5.4017    3.0149 C   0  0  0  0  0  0  0  0  0  0  0  0
    4.6262   -4.9670    2.5292 C   0  0  0  0  0  0  0  0  0  0  0  0
    4.8388   -3.6108    2.2742 C   0  0  0  0  0  0  0  0  0  0  0  0
    3.3005   -0.8551   -0.1639 C   0  0  0  0  0  0  0  0  0  0  0  0
    4.3314   -1.4779   -0.8450 C   0  0  0  0  0  0  0  0  0  0  0  0
    4.2894   -1.4851   -2.2412 C   0  0  0  0  0  0  0  0  0  0  0  0
    3.2338   -0.8693   -2.9294 C   0  0  0  0  0  0  0  0  0  0  0  0
    2.1961   -0.2491   -2.2308 C   0  0  0  0  0  0  0  0  0  0  0  0
    2.2282   -0.2605   -0.8406 C   0  0  0  0  0  0  0  0  0  0  0  0
   -6.9000   -1.1329   -1.7527 H   0  0  0  0  0  0  0  0  0  0  0  0
   -6.2424   -2.6083   -2.4406 H   0  0  0  0  0  0  0  0  0  0  0  0
   -7.7743   -2.6496   -1.5376 H   0  0  0  0  0  0  0  0  0  0  0  0
   -5.4673   -4.5059   -0.8993 H   0  0  0  0  0  0  0  0  0  0  0  0
   -5.3557   -4.2454    0.8349 H   0  0  0  0  0  0  0  0  0  0  0  0
   -6.9528   -4.4239    0.0716 H   0  0  0  0  0  0  0  0  0  0  0  0
   -6.0228   -1.9331    1.8284 H   0  0  0  0  0  0  0  0  0  0  0  0
   -7.6345   -2.2587    1.1473 H   0  0  0  0  0  0  0  0  0  0  0  0
   -6.8002   -0.7500    0.7873 H   0  0  0  0  0  0  0  0  0  0  0  0
   -2.2226   -2.5399   -1.1579 H   0  0  0  0  0  0  0  0  0  0  0  0
   -2.1234   -2.1390    0.5633 H   0  0  0  0  0  0  0  0  0  0  0  0
   -0.3473   -1.0668   -1.6848 H   0  0  0  0  0  0  0  0  0  0  0  0
    0.1395   -2.2075   -0.4173 H   0  0  0  0  0  0  0  0  0  0  0  0
   -1.5277    1.0077    1.2309 H   0  0  0  0  0  0  0  0  0  0  0  0
   -1.9705    0.8041   -1.8044 H   0  0  0  0  0  0  0  0  0  0  0  0
   -3.0652    1.4802   -0.6032 H   0  0  0  0  0  0  0  0  0  0  0  0
    3.5477    2.1939   -0.3933 H   0  0  0  0  0  0  0  0  0  0  0  0
    3.0050    5.0099   -1.8510 H   0  0  0  0  0  0  0  0  0  0  0  0
    3.5083    7.3927   -2.1020 H   0  0  0  0  0  0  0  0  0  0  0  0
    2.0029    9.1082   -1.1341 H   0  0  0  0  0  0  0  0  0  0  0  0
   -0.0086    8.4134    0.1393 H   0  0  0  0  0  0  0  0  0  0  0  0
   -0.5100    6.0388    0.4714 H   0  0  0  0  0  0  0  0  0  0  0  0
   -1.3495    4.8420   -1.2002 H   0  0  0  0  0  0  0  0  0  0  0  0
    3.8954   -0.6583    3.1677 H   0  0  0  0  0  0  0  0  0  0  0  0
    5.0796   -1.0131    1.9206 H   0  0  0  0  0  0  0  0  0  0  0  0
    1.7809   -2.4190    3.1948 H   0  0  0  0  0  0  0  0  0  0  0  0
    1.4156   -4.8184    3.6344 H   0  0  0  0  0  0  0  0  0  0  0  0
    3.2305   -6.4573    3.2151 H   0  0  0  0  0  0  0  0  0  0  0  0
    5.4221   -5.6852    2.3524 H   0  0  0  0  0  0  0  0  0  0  0  0
    5.8085   -3.2918    1.9025 H   0  0  0  0  0  0  0  0  0  0  0  0
    5.1596   -1.9495   -0.3299 H   0  0  0  0  0  0  0  0  0  0  0  0
    5.0869   -1.9678   -2.8021 H   0  0  0  0  0  0  0  0  0  0  0  0
    3.2259   -0.8738   -4.0175 H   0  0  0  0  0  0  0  0  0  0  0  0
    1.3863    0.2362   -2.7689 H   0  0  0  0  0  0  0  0  0  0  0  0
  1  2  1  0
  2  3  1  0
  2  4  1  0
  2  5  1  0
  5  6  1  0
  6  7  2  0
  6  8  1  0
  8  9  1  0
  9 10  1  0
 10 11  1  0
 11 12  1  0
 12 13  1  0
 12 14  1  0
 14 15  1  0
 15 16  2  0
 16 17  1  0
 16 18  1  0
 18 19  1  0
 19 20  2  0
 20 21  1  0
 21 22  2  0
 22 23  1  0
 23 24  2  0
 18 25  1  0
 25 26  1  0
 15 27  1  0
 27 28  1  0
 28 29  2  0
 28 30  1  0
 30 31  1  0
 31 32  1  0
 32 33  2  0
 33 34  1  0
 34 35  2  0
 35 36  1  0
 36 37  2  0
 30 38  1  0
 38 39  2  0
 39 40  1  0
 40 41  2  0
 41 42  1  0
 42 43  2  0
 13  8  1  0
 25 14  2  0
 43 27  1  0
 27 11  1  1
 37 32  1  0
 43 38  1  0
 24 19  1  0
  1 44  1  0
  1 45  1  0
  1 46  1  0
  3 47  1  0
  3 48  1  0
  3 49  1  0
  4 50  1  0
  4 51  1  0
  4 52  1  0
  9 53  1  0
  9 54  1  0
 10 55  1  0
 10 56  1  0
 12 57  1  1
 13 58  1  0
 13 59  1  0
 17 60  1  0
 20 61  1  0
 21 62  1  0
 22 63  1  0
 23 64  1  0
 24 65  1  0
 26 66  1  0
 31 67  1  0
 31 68  1  0
 33 69  1  0
 34 70  1  0
 35 71  1  0
 36 72  1  0
 37 73  1  0
 39 74  1  0
 40 75  1  0
 41 76  1  0
 42 77  1  0
M  END
$$$$
