
     RDKit          3D

 28 29  0  0  0  0  0  0  0  0999 V2000
   -2.3789    2.5409    0.1846 O   0  0  0  0  0  0  0  0  0  0  0  0
   -1.8752    1.4386    0.0414 C   0  0  0  0  0  0  0  0  0  0  0  0
   -0.5847    1.2174   -0.3264 O   0  0  0  0  0  0  0  0  0  0  0  0
    0.1849    2.4100   -0.4900 C   0  0  0  0  0  0  0  0  0  0  0  0
    1.6463    2.1053   -0.7901 C   0  0  0  0  0  0  0  0  0  0  0  0
    2.3798    2.9069   -1.3667 O   0  0  0  0  0  0  0  0  0  0  0  0
    2.2029    0.7839   -0.4215 C   0  0  0  0  0  0  0  0  0  0  0  0
    2.8090    0.0472   -1.4503 C   0  0  0  0  0  0  0  0  0  0  0  0
    3.3324   -1.2197   -1.1914 C   0  0  0  0  0  0  0  0  0  0  0  0
    3.2628   -1.7506    0.0950 C   0  0  0  0  0  0  0  0  0  0  0  0
    2.6818   -1.0101    1.1268 C   0  0  0  0  0  0  0  0  0  0  0  0
    2.1561    0.2618    0.8754 C   0  0  0  0  0  0  0  0  0  0  0  0
    1.5150    1.1346    2.2187 Cl  0  0  0  0  0  0  0  0  0  0  0  0
   -2.5843    0.1414    0.2457 C   0  0  0  0  0  0  0  0  0  0  0  0
   -1.9366   -1.0820    0.1186 C   0  0  0  0  0  0  0  0  0  0  0  0
   -2.5666   -2.2718    0.3070 N   0  0  0  0  0  0  0  0  0  0  0  0
   -3.8771   -2.1866    0.6300 C   0  0  0  0  0  0  0  0  0  0  0  0
   -4.5299   -0.9725    0.7592 C   0  0  0  0  0  0  0  0  0  0  0  0
   -3.9047    0.2121    0.5717 N   0  0  0  0  0  0  0  0  0  0  0  0
    0.1399    3.0357    0.4080 H   0  0  0  0  0  0  0  0  0  0  0  0
   -0.2131    2.9611   -1.3501 H   0  0  0  0  0  0  0  0  0  0  0  0
    2.8736    0.4606   -2.4556 H   0  0  0  0  0  0  0  0  0  0  0  0
    3.7992   -1.7895   -1.9920 H   0  0  0  0  0  0  0  0  0  0  0  0
    3.6744   -2.7369    0.2992 H   0  0  0  0  0  0  0  0  0  0  0  0
    2.6543   -1.4288    2.1308 H   0  0  0  0  0  0  0  0  0  0  0  0
   -0.8863   -1.1626   -0.1379 H   0  0  0  0  0  0  0  0  0  0  0  0
   -4.3933   -3.1278    0.7838 H   0  0  0  0  0  0  0  0  0  0  0  0
   -5.5815   -0.9186    1.0192 H   0  0  0  0  0  0  0  0  0  0  0  0
  1  2  2  0
  2  3  1  0
  3  4  1  0
  4  5  1  0
  5  6  2  0
  5  7  1  0
  7  8  2  0
  8  9  1  0
  9 10  2  0
 10 11  1  0
 11 12  2  0
 12 13  1  0
  2 14  1  0
 14 15  2  0
 15 16  1  0
 16 17  2  0
 17 18  1  0
 18 19  2  0
 12  7  1  0
 19 14  1  0
  4 20  1  0
  4 21  1  0
  8 22  1  0
  9 23  1  0
 10 24  1  0
 11 25  1  0
 15 26  1  0
 17 27  1  0
 18 28  1  0
M  END
$$$$
