
     RDKit          3D

 47 48  0  0  0  0  0  0  0  0999 V2000
    1.2998   -2.9101    0.8894 C   0  0  0  0  0  0  0  0  0  0  0  0
    2.6138   -2.5437    0.2270 C   0  0  0  0  0  0  0  0  0  0  0  0
    2.5835   -1.1451   -0.0710 O   0  0  0  0  0  0  0  0  0  0  0  0
    3.6766   -0.6821   -0.7408 C   0  0  0  0  0  0  0  0  0  0  0  0
    4.6614   -1.3628   -1.0025 O   0  0  0  0  0  0  0  0  0  0  0  0
    3.5730    0.7451   -1.0485 C   0  0  0  0  0  0  0  0  0  0  0  0
    4.6521    1.5944   -1.2607 C   0  0  0  0  0  0  0  0  0  0  0  0
    6.1141    1.3156   -1.2734 C   0  0  0  0  0  0  0  0  0  0  0  0
    4.1646    2.8586   -1.4621 N   0  0  0  0  0  0  0  0  0  0  0  0
    2.7922    2.8548   -1.4136 C   0  0  0  0  0  0  0  0  0  0  0  0
    2.0246    4.1067   -1.6488 C   0  0  0  0  0  0  0  0  0  0  0  0
    2.3840    1.5480   -1.1750 C   0  0  0  0  0  0  0  0  0  0  0  0
    0.9998    1.0680   -1.1091 C   0  0  0  0  0  0  0  0  0  0  0  0
    0.6531    0.0687   -1.7390 O   0  0  0  0  0  0  0  0  0  0  0  0
    0.0263    1.8481   -0.2321 C   0  0  0  0  0  0  0  0  0  0  0  0
   -1.1058    1.0389    0.0929 O   0  0  0  0  0  0  0  0  0  0  0  0
   -2.0111    1.6528    0.8838 C   0  0  0  0  0  0  0  0  0  0  0  0
   -1.9305    2.7945    1.3069 O   0  0  0  0  0  0  0  0  0  0  0  0
   -3.1523    0.7719    1.2049 C   0  0  0  0  0  0  0  0  0  0  0  0
   -3.3176   -0.4602    0.6967 C   0  0  0  0  0  0  0  0  0  0  0  0
   -4.4624   -1.3257    1.0080 C   0  0  0  0  0  0  0  0  0  0  0  0
   -5.0278   -1.3924    2.2898 C   0  0  0  0  0  0  0  0  0  0  0  0
   -6.0969   -2.2557    2.5515 C   0  0  0  0  0  0  0  0  0  0  0  0
   -6.5986   -3.0644    1.5350 C   0  0  0  0  0  0  0  0  0  0  0  0
   -7.9072   -4.1306    1.8597 Cl  0  0  0  0  0  0  0  0  0  0  0  0
   -6.0389   -3.0203    0.2603 C   0  0  0  0  0  0  0  0  0  0  0  0
   -4.9703   -2.1570    0.0001 C   0  0  0  0  0  0  0  0  0  0  0  0
    0.4574   -2.6746    0.2313 H   0  0  0  0  0  0  0  0  0  0  0  0
    1.1621   -2.3315    1.8080 H   0  0  0  0  0  0  0  0  0  0  0  0
    1.2716   -3.9751    1.1388 H   0  0  0  0  0  0  0  0  0  0  0  0
    3.4437   -2.7553    0.9109 H   0  0  0  0  0  0  0  0  0  0  0  0
    2.7399   -3.1220   -0.6963 H   0  0  0  0  0  0  0  0  0  0  0  0
    6.3625    0.6170   -2.0802 H   0  0  0  0  0  0  0  0  0  0  0  0
    6.4274    0.8772   -0.3203 H   0  0  0  0  0  0  0  0  0  0  0  0
    6.6959    2.2306   -1.4295 H   0  0  0  0  0  0  0  0  0  0  0  0
    4.7365    3.6751   -1.6420 H   0  0  0  0  0  0  0  0  0  0  0  0
    1.2199    3.9349   -2.3694 H   0  0  0  0  0  0  0  0  0  0  0  0
    1.5855    4.4651   -0.7133 H   0  0  0  0  0  0  0  0  0  0  0  0
    2.6633    4.9008   -2.0477 H   0  0  0  0  0  0  0  0  0  0  0  0
   -0.3071    2.7313   -0.7869 H   0  0  0  0  0  0  0  0  0  0  0  0
    0.5404    2.1387    0.6913 H   0  0  0  0  0  0  0  0  0  0  0  0
   -3.8720    1.2183    1.8823 H   0  0  0  0  0  0  0  0  0  0  0  0
   -2.5973   -0.8722   -0.0088 H   0  0  0  0  0  0  0  0  0  0  0  0
   -4.6382   -0.7869    3.1048 H   0  0  0  0  0  0  0  0  0  0  0  0
   -6.5252   -2.2961    3.5499 H   0  0  0  0  0  0  0  0  0  0  0  0
   -6.4239   -3.6540   -0.5343 H   0  0  0  0  0  0  0  0  0  0  0  0
   -4.5419   -2.1368   -1.0009 H   0  0  0  0  0  0  0  0  0  0  0  0
  1  2  1  0
  2  3  1  0
  3  4  1  0
  4  5  2  0
  4  6  1  0
  6  7  2  0
  7  8  1  0
  7  9  1  0
  9 10  1  0
 10 11  1  0
 10 12  2  0
 12 13  1  0
 13 14  2  0
 13 15  1  0
 15 16  1  0
 16 17  1  0
 17 18  2  0
 17 19  1  0
 19 20  2  3
 20 21  1  0
 21 22  2  0
 22 23  1  0
 23 24  2  0
 24 25  1  0
 24 26  1  0
 26 27  2  0
 12  6  1  0
 27 21  1  0
  1 28  1  0
  1 29  1  0
  1 30  1  0
  2 31  1  0
  2 32  1  0
  8 33  1  0
  8 34  1  0
  8 35  1  0
  9 36  1  0
 11 37  1  0
 11 38  1  0
 11 39  1  0
 15 40  1  0
 15 41  1  0
 19 42  1  0
 20 43  1  0
 22 44  1  0
 23 45  1  0
 26 46  1  0
 27 47  1  0
M  END
$$$$
