
     RDKit          3D

 36 38  0  0  0  0  0  0  0  0999 V2000
   -1.0988    1.8109   -1.8988 C   0  0  0  0  0  0  0  0  0  0  0  0
   -1.6830    0.8076   -0.9674 C   0  0  0  0  0  0  0  0  0  0  0  0
   -2.6157    0.9990    0.0326 C   0  0  0  0  0  0  0  0  0  0  0  0
   -2.8891   -0.2547    0.6366 C   0  0  0  0  0  0  0  0  0  0  0  0
   -3.7430   -0.6649    1.6794 C   0  0  0  0  0  0  0  0  0  0  0  0
   -3.7893   -2.0146    2.0417 C   0  0  0  0  0  0  0  0  0  0  0  0
   -3.0015   -2.9506    1.3795 C   0  0  0  0  0  0  0  0  0  0  0  0
   -2.1464   -2.5664    0.3419 C   0  0  0  0  0  0  0  0  0  0  0  0
   -2.1031   -1.2073   -0.0142 C   0  0  0  0  0  0  0  0  0  0  0  0
   -1.3625   -0.5356   -0.9731 N   0  0  0  0  0  0  0  0  0  0  0  0
   -0.3888   -1.1756   -1.8488 C   0  0  0  0  0  0  0  0  0  0  0  0
    0.9408   -1.4682   -1.1527 C   0  0  0  0  0  0  0  0  0  0  0  0
    1.6314   -0.2688   -0.7191 N   0  0  0  0  0  0  0  0  0  0  0  0
    3.0039   -0.2120   -0.5996 C   0  0  0  0  0  0  0  0  0  0  0  0
    3.7411   -1.1027   -1.0117 O   0  0  0  0  0  0  0  0  0  0  0  0
    3.4852    0.9853    0.0571 C   0  0  0  0  0  0  0  0  0  0  0  0
    4.7667    1.4066    0.3575 C   0  0  0  0  0  0  0  0  0  0  0  0
    4.6424    2.6595    1.0064 C   0  0  0  0  0  0  0  0  0  0  0  0
    3.2948    2.9292    1.0645 C   0  0  0  0  0  0  0  0  0  0  0  0
    2.5161    4.4860    1.8305 Br  0  0  0  0  0  0  0  0  0  0  0  0
    2.5831    1.9216    0.4933 O   0  0  0  0  0  0  0  0  0  0  0  0
   -1.3688    1.5791   -2.9339 H   0  0  0  0  0  0  0  0  0  0  0  0
   -0.0086    1.8395   -1.8160 H   0  0  0  0  0  0  0  0  0  0  0  0
   -1.4743    2.8146   -1.6738 H   0  0  0  0  0  0  0  0  0  0  0  0
   -3.0668    1.9469    0.2970 H   0  0  0  0  0  0  0  0  0  0  0  0
   -4.3629    0.0607    2.1975 H   0  0  0  0  0  0  0  0  0  0  0  0
   -4.4484   -2.3324    2.8456 H   0  0  0  0  0  0  0  0  0  0  0  0
   -3.0511   -3.9970    1.6720 H   0  0  0  0  0  0  0  0  0  0  0  0
   -1.5400   -3.3094   -0.1653 H   0  0  0  0  0  0  0  0  0  0  0  0
   -0.8422   -2.1046   -2.2128 H   0  0  0  0  0  0  0  0  0  0  0  0
   -0.2333   -0.5344   -2.7221 H   0  0  0  0  0  0  0  0  0  0  0  0
    0.7971   -2.0892   -0.2620 H   0  0  0  0  0  0  0  0  0  0  0  0
    1.5886   -2.0259   -1.8379 H   0  0  0  0  0  0  0  0  0  0  0  0
    1.1137    0.4185   -0.1769 H   0  0  0  0  0  0  0  0  0  0  0  0
    5.6743    0.8636    0.1293 H   0  0  0  0  0  0  0  0  0  0  0  0
    5.4385    3.2858    1.3839 H   0  0  0  0  0  0  0  0  0  0  0  0
  1  2  1  0
  2  3  2  0
  3  4  1  0
  4  5  2  0
  5  6  1  0
  6  7  2  0
  7  8  1  0
  8  9  2  0
  9 10  1  0
 10 11  1  0
 11 12  1  0
 12 13  1  0
 13 14  1  0
 14 15  2  0
 14 16  1  0
 16 17  2  0
 17 18  1  0
 18 19  2  0
 19 20  1  0
 19 21  1  0
 10  2  1  0
 21 16  1  0
  9  4  1  0
  1 22  1  0
  1 23  1  0
  1 24  1  0
  3 25  1  0
  5 26  1  0
  6 27  1  0
  7 28  1  0
  8 29  1  0
 11 30  1  0
 11 31  1  0
 12 32  1  0
 12 33  1  0
 13 34  1  0
 17 35  1  0
 18 36  1  0
M  END
$$$$
