
     RDKit          3D

 54 58  0  0  0  0  0  0  0  0999 V2000
   -7.8263    0.2914    4.1549 O   0  0  0  0  0  0  0  0  0  0  0  0
   -7.4194   -0.4045    3.2433 C   0  0  0  0  0  0  0  0  0  0  0  0
   -8.1686   -1.4004    2.7380 O   0  0  0  0  0  0  0  0  0  0  0  0
   -6.1024   -0.2791    2.5747 C   0  0  0  0  0  0  0  0  0  0  0  0
   -5.7149   -1.1160    1.5270 C   0  0  0  0  0  0  0  0  0  0  0  0
   -4.4583   -0.9582    0.9248 C   0  0  0  0  0  0  0  0  0  0  0  0
   -3.5635    0.0377    1.3453 C   0  0  0  0  0  0  0  0  0  0  0  0
   -2.2829    0.2079    0.7303 N   0  0  0  0  0  0  0  0  0  0  0  0
   -1.1721    0.7227    1.4478 C   0  0  0  0  0  0  0  0  0  0  0  0
   -1.0661    1.1107    2.5983 O   0  0  0  0  0  0  0  0  0  0  0  0
   -0.0409    0.6685    0.4616 C   0  0  0  0  0  0  0  0  0  0  0  0
    1.1891    1.0709    0.8045 C   0  0  0  0  0  0  0  0  0  0  0  0
    2.3157    1.0749   -0.0607 C   0  0  0  0  0  0  0  0  0  0  0  0
    2.4388    1.3795   -1.4106 C   0  0  0  0  0  0  0  0  0  0  0  0
    3.8027    1.2461   -1.7680 C   0  0  0  0  0  0  0  0  0  0  0  0
    4.4723    0.8809   -0.6214 C   0  0  0  0  0  0  0  0  0  0  0  0
    5.8677    0.5936   -0.2945 C   0  0  0  0  0  0  0  0  0  0  0  0
    6.8692    0.7148   -1.2721 C   0  0  0  0  0  0  0  0  0  0  0  0
    8.2092    0.4403   -0.9721 C   0  0  0  0  0  0  0  0  0  0  0  0
    8.5589    0.0376    0.3214 C   0  0  0  0  0  0  0  0  0  0  0  0
    9.9621   -0.2528    0.6406 N   0  0  0  0  0  4  0  0  0  0  0  0
   10.8000   -0.1045   -0.2608 O   0  0  0  0  0  0  0  0  0  0  0  0
   10.2266   -0.6297    1.7911 O   0  0  0  0  0  1  0  0  0  0  0  0
    7.5791   -0.0900    1.3110 C   0  0  0  0  0  0  0  0  0  0  0  0
    6.2435    0.1884    0.9978 C   0  0  0  0  0  0  0  0  0  0  0  0
    3.5800    0.7917    0.4057 O   0  0  0  0  0  0  0  0  0  0  0  0
   -0.5732    0.1265   -0.7573 C   0  0  0  0  0  0  0  0  0  0  0  0
   -1.8771   -0.1288   -0.5645 C   0  0  0  0  0  0  0  0  0  0  0  0
   -2.7347   -0.5741   -1.6640 C   0  0  0  0  0  0  0  0  0  0  0  0
   -3.7594    0.2541   -2.1435 C   0  0  0  0  0  0  0  0  0  0  0  0
   -4.5637   -0.1601   -3.2071 C   0  0  0  0  0  0  0  0  0  0  0  0
   -4.3460   -1.4005   -3.8049 C   0  0  0  0  0  0  0  0  0  0  0  0
   -3.3243   -2.2280   -3.3423 C   0  0  0  0  0  0  0  0  0  0  0  0
   -2.5175   -1.8155   -2.2797 C   0  0  0  0  0  0  0  0  0  0  0  0
   -3.9669    0.8596    2.4101 C   0  0  0  0  0  0  0  0  0  0  0  0
   -5.2210    0.7081    3.0171 C   0  0  0  0  0  0  0  0  0  0  0  0
   -8.9905   -1.3663    3.2712 H   0  0  0  0  0  0  0  0  0  0  0  0
   -6.3753   -1.9031    1.1706 H   0  0  0  0  0  0  0  0  0  0  0  0
   -4.1910   -1.6685    0.1492 H   0  0  0  0  0  0  0  0  0  0  0  0
    1.3753    1.3913    1.8278 H   0  0  0  0  0  0  0  0  0  0  0  0
    1.6349    1.6861   -2.0656 H   0  0  0  0  0  0  0  0  0  0  0  0
    4.2364    1.4106   -2.7438 H   0  0  0  0  0  0  0  0  0  0  0  0
    6.6204    1.0274   -2.2842 H   0  0  0  0  0  0  0  0  0  0  0  0
    8.9589    0.5454   -1.7540 H   0  0  0  0  0  0  0  0  0  0  0  0
    7.8307   -0.4015    2.3229 H   0  0  0  0  0  0  0  0  0  0  0  0
    5.4922    0.0838    1.7798 H   0  0  0  0  0  0  0  0  0  0  0  0
   -0.0276   -0.0246   -1.6742 H   0  0  0  0  0  0  0  0  0  0  0  0
   -3.9387    1.2268   -1.6896 H   0  0  0  0  0  0  0  0  0  0  0  0
   -5.3573    0.4877   -3.5705 H   0  0  0  0  0  0  0  0  0  0  0  0
   -4.9727   -1.7216   -4.6335 H   0  0  0  0  0  0  0  0  0  0  0  0
   -3.1544   -3.1948   -3.8101 H   0  0  0  0  0  0  0  0  0  0  0  0
   -1.7258   -2.4746   -1.9291 H   0  0  0  0  0  0  0  0  0  0  0  0
   -3.3293    1.6607    2.7776 H   0  0  0  0  0  0  0  0  0  0  0  0
   -5.5019    1.3712    3.8335 H   0  0  0  0  0  0  0  0  0  0  0  0
  1  2  2  0
  2  3  1  0
  2  4  1  0
  4  5  2  0
  5  6  1  0
  6  7  2  0
  7  8  1  0
  8  9  1  0
  9 10  2  0
  9 11  1  0
 11 12  2  3
 12 13  1  0
 13 14  2  0
 14 15  1  0
 15 16  2  0
 16 17  1  0
 17 18  2  0
 18 19  1  0
 19 20  2  0
 20 21  1  0
 21 22  2  0
 21 23  1  0
 20 24  1  0
 24 25  2  0
 16 26  1  0
 11 27  1  0
 27 28  2  0
 28 29  1  0
 29 30  2  0
 30 31  1  0
 31 32  2  0
 32 33  1  0
 33 34  2  0
  7 35  1  0
 35 36  2  0
 36  4  1  0
 28  8  1  0
 34 29  1  0
 26 13  1  0
 25 17  1  0
  3 37  1  0
  5 38  1  0
  6 39  1  0
 12 40  1  0
 14 41  1  0
 15 42  1  0
 18 43  1  0
 19 44  1  0
 24 45  1  0
 25 46  1  0
 27 47  1  0
 30 48  1  0
 31 49  1  0
 32 50  1  0
 33 51  1  0
 34 52  1  0
 35 53  1  0
 36 54  1  0
M  CHG  2  21   1  23  -1
M  END
$$$$
