
     RDKit          3D

 58 62  0  0  0  0  0  0  0  0999 V2000
   -3.2067    2.6021   -1.6565 C   0  0  0  0  0  0  0  0  0  0  0  0
   -3.6420    1.4065   -2.3004 O   0  0  0  0  0  0  0  0  0  0  0  0
   -4.6970    0.7776   -1.6951 C   0  0  0  0  0  0  0  0  0  0  0  0
   -5.7912    1.4766   -1.1722 C   0  0  0  0  0  0  0  0  0  0  0  0
   -6.8706    0.7869   -0.6192 C   0  0  0  0  0  0  0  0  0  0  0  0
   -6.8696   -0.6037   -0.5984 C   0  0  0  0  0  0  0  0  0  0  0  0
   -5.7869   -1.3063   -1.1275 C   0  0  0  0  0  0  0  0  0  0  0  0
   -4.6881   -0.6268   -1.6841 C   0  0  0  0  0  0  0  0  0  0  0  0
   -3.5217   -1.4252   -2.2334 C   0  0  0  0  0  0  0  0  0  0  0  0
   -2.6522   -1.9465   -1.1781 N   0  0  0  0  0  0  0  0  0  0  0  0
   -2.8996   -3.2088   -0.6488 C   0  0  0  0  0  0  0  0  0  0  0  0
   -3.7900   -3.9529   -1.0574 O   0  0  0  0  0  0  0  0  0  0  0  0
   -2.0362   -3.6808    0.4717 C   0  0  0  0  0  0  0  0  0  0  0  0
   -2.3143   -4.9322    1.0447 C   0  0  0  0  0  0  0  0  0  0  0  0
   -1.5370   -5.4131    2.0953 C   0  0  0  0  0  0  0  0  0  0  0  0
   -0.4874   -4.6427    2.5832 C   0  0  0  0  0  0  0  0  0  0  0  0
   -0.2000   -3.3923    2.0187 C   0  0  0  0  0  0  0  0  0  0  0  0
   -0.9662   -2.9083    0.9523 C   0  0  0  0  0  0  0  0  0  0  0  0
   -0.7411   -1.6700    0.3090 N   0  0  0  0  0  0  0  0  0  0  0  0
    0.2167   -0.6794    0.4126 C   0  0  0  0  0  0  0  0  0  0  0  0
    1.6277   -0.6835    1.4133 S   0  0  0  0  0  0  0  0  0  0  0  0
    2.6343    0.5751    0.5704 C   0  0  0  0  0  0  0  0  0  0  0  0
    4.0187    0.7239    1.1928 C   0  0  0  0  0  0  0  0  0  0  0  0
    4.4377   -0.0263    2.0803 O   0  0  0  0  0  0  0  0  0  0  0  0
    4.8103    1.7623    0.6977 N   0  0  0  0  0  0  0  0  0  0  0  0
    6.1355    1.9498    1.2914 C   0  0  0  0  0  0  0  0  0  0  0  0
    6.7386    3.3118    0.9600 C   0  0  0  0  0  0  0  0  0  0  0  0
    6.8237    3.5383   -0.5489 C   0  0  0  0  0  0  0  0  0  0  0  0
    5.6464    2.9271   -1.3124 C   0  0  0  0  0  0  0  0  0  0  0  0
    4.4447    2.6410   -0.4154 C   0  0  0  0  0  0  0  0  0  0  0  0
   -0.0574    0.3001   -0.4202 N   0  0  0  0  0  0  0  0  0  0  0  0
   -1.1800   -0.0382   -1.1161 N   0  0  0  0  0  0  0  0  0  0  0  0
   -1.5774   -1.2168   -0.6991 C   0  0  0  0  0  0  0  0  0  0  0  0
   -3.1748    2.4918   -0.5669 H   0  0  0  0  0  0  0  0  0  0  0  0
   -2.1890    2.8146   -2.0047 H   0  0  0  0  0  0  0  0  0  0  0  0
   -3.8424    3.4469   -1.9444 H   0  0  0  0  0  0  0  0  0  0  0  0
   -5.8339    2.5613   -1.2055 H   0  0  0  0  0  0  0  0  0  0  0  0
   -7.7201    1.3368   -0.2190 H   0  0  0  0  0  0  0  0  0  0  0  0
   -7.7138   -1.1454   -0.1786 H   0  0  0  0  0  0  0  0  0  0  0  0
   -5.8056   -2.3952   -1.1134 H   0  0  0  0  0  0  0  0  0  0  0  0
   -2.9189   -0.8416   -2.9418 H   0  0  0  0  0  0  0  0  0  0  0  0
   -3.9213   -2.2649   -2.8243 H   0  0  0  0  0  0  0  0  0  0  0  0
   -3.1398   -5.5392    0.6740 H   0  0  0  0  0  0  0  0  0  0  0  0
   -1.7522   -6.3859    2.5325 H   0  0  0  0  0  0  0  0  0  0  0  0
    0.1155   -5.0152    3.4115 H   0  0  0  0  0  0  0  0  0  0  0  0
    0.6230   -2.8446    2.4604 H   0  0  0  0  0  0  0  0  0  0  0  0
    2.1203    1.5352    0.6262 H   0  0  0  0  0  0  0  0  0  0  0  0
    2.7581    0.2714   -0.4749 H   0  0  0  0  0  0  0  0  0  0  0  0
    6.7792    1.1446    0.9121 H   0  0  0  0  0  0  0  0  0  0  0  0
    6.0670    1.8298    2.3795 H   0  0  0  0  0  0  0  0  0  0  0  0
    6.1199    4.1002    1.4060 H   0  0  0  0  0  0  0  0  0  0  0  0
    7.7347    3.4051    1.4067 H   0  0  0  0  0  0  0  0  0  0  0  0
    7.7575    3.1047   -0.9350 H   0  0  0  0  0  0  0  0  0  0  0  0
    6.8828    4.6169   -0.7475 H   0  0  0  0  0  0  0  0  0  0  0  0
    5.9750    1.9856   -1.7713 H   0  0  0  0  0  0  0  0  0  0  0  0
    5.3560    3.5887   -2.1342 H   0  0  0  0  0  0  0  0  0  0  0  0
    3.6449    2.2000   -1.0171 H   0  0  0  0  0  0  0  0  0  0  0  0
    4.0562    3.5731    0.0173 H   0  0  0  0  0  0  0  0  0  0  0  0
  1  2  1  0
  2  3  1  0
  3  4  2  0
  4  5  1  0
  5  6  2  0
  6  7  1  0
  7  8  2  0
  8  9  1  0
  9 10  1  0
 10 11  1  0
 11 12  2  0
 11 13  1  0
 13 14  2  0
 14 15  1  0
 15 16  2  0
 16 17  1  0
 17 18  2  0
 18 19  1  0
 19 20  1  0
 20 21  1  0
 21 22  1  0
 22 23  1  0
 23 24  2  0
 23 25  1  0
 25 26  1  0
 26 27  1  0
 27 28  1  0
 28 29  1  0
 29 30  1  0
 20 31  2  0
 31 32  1  0
 32 33  2  0
  8  3  1  0
 33 10  1  0
 18 13  1  0
 33 19  1  0
 30 25  1  0
  1 34  1  0
  1 35  1  0
  1 36  1  0
  4 37  1  0
  5 38  1  0
  6 39  1  0
  7 40  1  0
  9 41  1  0
  9 42  1  0
 14 43  1  0
 15 44  1  0
 16 45  1  0
 17 46  1  0
 22 47  1  0
 22 48  1  0
 26 49  1  0
 26 50  1  0
 27 51  1  0
 27 52  1  0
 28 53  1  0
 28 54  1  0
 29 55  1  0
 29 56  1  0
 30 57  1  0
 30 58  1  0
M  END
$$$$
