
     RDKit          3D

 37 39  0  0  0  0  0  0  0  0999 V2000
   -0.2306   -3.0609   -1.9446 C   0  0  0  0  0  0  0  0  0  0  0  0
   -1.0796   -2.3386   -2.8310 O   0  0  0  0  0  0  0  0  0  0  0  0
   -1.4752   -1.0770   -2.3954 C   0  0  0  0  0  0  0  0  0  0  0  0
   -2.4917   -0.5150   -3.1771 C   0  0  0  0  0  0  0  0  0  0  0  0
   -3.0152    0.7406   -2.8842 C   0  0  0  0  0  0  0  0  0  0  0  0
   -2.5375    1.4884   -1.8031 C   0  0  0  0  0  0  0  0  0  0  0  0
   -2.9928    2.7309   -1.4454 O   0  0  0  0  0  0  0  0  0  0  0  0
   -4.0659    3.2774   -2.2005 C   0  0  0  0  0  0  0  0  0  0  0  0
   -1.4923    0.9235   -1.0368 C   0  0  0  0  0  0  0  0  0  0  0  0
   -0.6692    1.6031    0.3177 S   0  0  0  0  0  0  0  0  0  0  0  0
    0.3561    0.2210    0.4384 C   0  0  0  0  0  0  0  0  0  0  0  0
    1.3881    0.1145    1.3431 N   0  0  0  0  0  0  0  0  0  0  0  0
    1.2263    0.7012    2.6810 C   0  0  0  0  0  0  0  0  0  0  0  0
    2.5858    0.8714    3.3621 C   0  0  0  0  0  0  0  0  0  0  0  0
    3.3605   -0.4398    3.3962 C   0  0  0  0  0  0  0  0  0  0  0  0
    3.4911   -1.0095    1.9892 C   0  0  0  0  0  0  0  0  0  0  0  0
    2.1286   -1.1567    1.3138 C   0  0  0  0  0  0  0  0  0  0  0  0
    0.0820   -0.7077   -0.4526 N   0  0  0  0  0  0  0  0  0  0  0  0
   -0.9494   -0.3350   -1.3050 C   0  0  0  0  0  0  0  0  0  0  0  0
   -0.6729   -3.1466   -0.9439 H   0  0  0  0  0  0  0  0  0  0  0  0
    0.7716   -2.6161   -1.9085 H   0  0  0  0  0  0  0  0  0  0  0  0
   -0.1211   -4.0753   -2.3404 H   0  0  0  0  0  0  0  0  0  0  0  0
   -2.8842   -1.0772   -4.0238 H   0  0  0  0  0  0  0  0  0  0  0  0
   -3.7957    1.1196   -3.5349 H   0  0  0  0  0  0  0  0  0  0  0  0
   -4.3251    4.2431   -1.7592 H   0  0  0  0  0  0  0  0  0  0  0  0
   -3.7666    3.4534   -3.2387 H   0  0  0  0  0  0  0  0  0  0  0  0
   -4.9555    2.6419   -2.1445 H   0  0  0  0  0  0  0  0  0  0  0  0
    0.5794    0.0557    3.2931 H   0  0  0  0  0  0  0  0  0  0  0  0
    0.7616    1.6918    2.6446 H   0  0  0  0  0  0  0  0  0  0  0  0
    2.4436    1.2449    4.3820 H   0  0  0  0  0  0  0  0  0  0  0  0
    3.1726    1.6255    2.8216 H   0  0  0  0  0  0  0  0  0  0  0  0
    4.3555   -0.2733    3.8244 H   0  0  0  0  0  0  0  0  0  0  0  0
    2.8452   -1.1605    4.0423 H   0  0  0  0  0  0  0  0  0  0  0  0
    3.9911   -1.9849    2.0283 H   0  0  0  0  0  0  0  0  0  0  0  0
    4.1305   -0.3478    1.3925 H   0  0  0  0  0  0  0  0  0  0  0  0
    1.5440   -1.9395    1.8165 H   0  0  0  0  0  0  0  0  0  0  0  0
    2.3073   -1.4862    0.2827 H   0  0  0  0  0  0  0  0  0  0  0  0
  1  2  1  0
  2  3  1  0
  3  4  2  0
  4  5  1  0
  5  6  2  0
  6  7  1  0
  7  8  1  0
  6  9  1  0
  9 10  1  0
 10 11  1  0
 11 12  1  0
 12 13  1  0
 13 14  1  0
 14 15  1  0
 15 16  1  0
 16 17  1  0
 11 18  2  0
 18 19  1  0
 19  3  1  0
 19  9  2  0
 17 12  1  0
  1 20  1  0
  1 21  1  0
  1 22  1  0
  4 23  1  0
  5 24  1  0
  8 25  1  0
  8 26  1  0
  8 27  1  0
 13 28  1  0
 13 29  1  0
 14 30  1  0
 14 31  1  0
 15 32  1  0
 15 33  1  0
 16 34  1  0
 16 35  1  0
 17 36  1  0
 17 37  1  0
M  END
$$$$
