
     RDKit          3D

 45 47  0  0  0  0  0  0  0  0999 V2000
    1.8169   -3.0341    1.6466 O   0  0  0  0  0  0  0  0  0  0  0  0
    1.5398   -2.2537    0.7321 C   0  0  0  0  0  0  0  0  0  0  0  0
    2.3869   -1.0073    0.5155 C   0  0  0  0  0  0  0  0  0  0  0  0
    1.6490    0.3923    1.4246 S   0  0  0  0  0  0  0  0  0  0  0  0
    2.6605    1.7200    0.8034 C   0  0  0  0  0  0  0  0  0  0  0  0
    2.0449    2.7983    0.1590 C   0  0  0  0  0  0  0  0  0  0  0  0
    2.8106    3.8573   -0.3357 C   0  0  0  0  0  0  0  0  0  0  0  0
    4.1946    3.8411   -0.1769 C   0  0  0  0  0  0  0  0  0  0  0  0
    5.2325    5.2722   -0.8446 Br  0  0  0  0  0  0  0  0  0  0  0  0
    4.8179    2.7797    0.4762 C   0  0  0  0  0  0  0  0  0  0  0  0
    4.0494    1.7215    0.9696 C   0  0  0  0  0  0  0  0  0  0  0  0
    0.4613   -2.4749   -0.1159 N   0  0  0  0  0  0  0  0  0  0  0  0
    0.0534   -1.5707   -1.1980 C   0  0  0  0  0  0  0  0  0  0  0  0
   -1.1596   -2.0754   -1.9946 C   0  0  0  0  0  0  0  0  0  0  0  0
   -2.2893   -2.4557   -1.1065 N   0  0  0  0  0  0  0  0  0  0  0  0
   -3.6651   -1.4682   -1.0885 S   0  0  0  0  0  6  0  0  0  0  0  0
   -4.6284   -2.0560   -0.1824 O   0  0  0  0  0  0  0  0  0  0  0  0
   -4.0111   -1.1718   -2.4631 O   0  0  0  0  0  0  0  0  0  0  0  0
   -3.0819    0.0457   -0.3516 C   0  0  0  0  0  0  0  0  0  0  0  0
   -2.6676    1.0994   -1.1746 C   0  0  0  0  0  0  0  0  0  0  0  0
   -2.2237    2.2898   -0.5988 C   0  0  0  0  0  0  0  0  0  0  0  0
   -2.2067    2.4291    0.7896 C   0  0  0  0  0  0  0  0  0  0  0  0
   -2.6472    1.3864    1.6064 C   0  0  0  0  0  0  0  0  0  0  0  0
   -3.0986    0.1954    1.0379 C   0  0  0  0  0  0  0  0  0  0  0  0
   -1.9064   -3.1179    0.1745 C   0  0  0  0  0  0  0  0  0  0  0  0
   -0.4480   -3.5923    0.1602 C   0  0  0  0  0  0  0  0  0  0  0  0
    2.4881   -0.7774   -0.5474 H   0  0  0  0  0  0  0  0  0  0  0  0
    3.3916   -1.2119    0.9005 H   0  0  0  0  0  0  0  0  0  0  0  0
    0.9646    2.8232    0.0377 H   0  0  0  0  0  0  0  0  0  0  0  0
    2.3189    4.6875   -0.8359 H   0  0  0  0  0  0  0  0  0  0  0  0
    5.8962    2.7689    0.6138 H   0  0  0  0  0  0  0  0  0  0  0  0
    4.5470    0.9107    1.4965 H   0  0  0  0  0  0  0  0  0  0  0  0
   -0.1763   -0.6013   -0.7473 H   0  0  0  0  0  0  0  0  0  0  0  0
    0.9019   -1.4330   -1.8756 H   0  0  0  0  0  0  0  0  0  0  0  0
   -1.4574   -1.3202   -2.7281 H   0  0  0  0  0  0  0  0  0  0  0  0
   -0.8825   -2.9663   -2.5718 H   0  0  0  0  0  0  0  0  0  0  0  0
   -2.6966    1.0051   -2.2578 H   0  0  0  0  0  0  0  0  0  0  0  0
   -1.9025    3.1141   -1.2310 H   0  0  0  0  0  0  0  0  0  0  0  0
   -1.8634    3.3582    1.2392 H   0  0  0  0  0  0  0  0  0  0  0  0
   -2.6465    1.5068    2.6875 H   0  0  0  0  0  0  0  0  0  0  0  0
   -3.4628   -0.6021    1.6814 H   0  0  0  0  0  0  0  0  0  0  0  0
   -2.0359   -2.4253    1.0109 H   0  0  0  0  0  0  0  0  0  0  0  0
   -2.5661   -3.9777    0.3324 H   0  0  0  0  0  0  0  0  0  0  0  0
   -0.2103   -4.0724    1.1145 H   0  0  0  0  0  0  0  0  0  0  0  0
   -0.2924   -4.3376   -0.6289 H   0  0  0  0  0  0  0  0  0  0  0  0
  1  2  2  0
  2  3  1  0
  3  4  1  0
  4  5  1  0
  5  6  2  0
  6  7  1  0
  7  8  2  0
  8  9  1  0
  8 10  1  0
 10 11  2  0
  2 12  1  0
 12 13  1  0
 13 14  1  0
 14 15  1  0
 15 16  1  0
 16 17  2  0
 16 18  2  0
 16 19  1  0
 19 20  2  0
 20 21  1  0
 21 22  2  0
 22 23  1  0
 23 24  2  0
 15 25  1  0
 25 26  1  0
 11  5  1  0
 26 12  1  0
 24 19  1  0
  3 27  1  0
  3 28  1  0
  6 29  1  0
  7 30  1  0
 10 31  1  0
 11 32  1  0
 13 33  1  0
 13 34  1  0
 14 35  1  0
 14 36  1  0
 20 37  1  0
 21 38  1  0
 22 39  1  0
 23 40  1  0
 24 41  1  0
 25 42  1  0
 25 43  1  0
 26 44  1  0
 26 45  1  0
M  END
$$$$
