
     RDKit          3D

 48 50  0  0  0  0  0  0  0  0999 V2000
    8.8431   -0.6896    0.6920 C   0  0  0  0  0  0  0  0  0  0  0  0
    7.4942   -0.1103    1.0871 C   0  0  0  0  0  0  0  0  0  0  0  0
    6.3591   -0.7374    0.2826 C   0  0  0  0  0  0  0  0  0  0  0  0
    5.0020   -0.1587    0.6758 C   0  0  0  0  0  0  0  0  0  0  0  0
    4.0066   -0.7997   -0.1217 O   0  0  0  0  0  0  0  0  0  0  0  0
    2.7117   -0.4029    0.0607 C   0  0  0  0  0  0  0  0  0  0  0  0
    1.7834   -1.0348   -0.7651 C   0  0  0  0  0  0  0  0  0  0  0  0
    0.4208   -0.7230   -0.6837 C   0  0  0  0  0  0  0  0  0  0  0  0
   -0.0459    0.2409    0.2134 C   0  0  0  0  0  0  0  0  0  0  0  0
   -1.4093    0.5598    0.3746 N   0  0  0  0  0  0  0  0  0  0  0  0
   -2.4274    0.3833   -0.5256 C   0  0  0  0  0  0  0  0  0  0  0  0
   -2.3235   -0.0216   -1.7446 N   0  0  0  0  0  0  0  0  0  0  0  0
   -3.4454   -0.0538   -2.5072 C   0  0  0  0  0  0  0  0  0  0  0  0
   -3.2589   -0.2405   -3.8368 N   0  0  0  0  0  0  0  0  0  0  0  0
   -4.6497    0.0440   -2.0655 N   0  0  0  0  0  0  0  0  0  0  0  0
   -4.7915    0.2155   -0.6358 C   0  0  0  0  0  0  0  0  0  0  0  0
   -5.9771    1.1458   -0.3606 C   0  0  0  0  0  0  0  0  0  0  0  0
   -6.4653    0.7615    1.0329 C   0  0  0  0  0  0  0  0  0  0  0  0
   -6.0727   -0.7014    1.2281 C   0  0  0  0  0  0  0  0  0  0  0  0
   -5.2714   -1.1020   -0.0102 C   0  0  0  0  0  0  0  0  0  0  0  0
   -3.6186    0.7097    0.0422 N   0  0  0  0  0  0  0  0  0  0  0  0
    0.8961    0.8497    1.0585 C   0  0  0  0  0  0  0  0  0  0  0  0
    2.2615    0.5406    0.9796 C   0  0  0  0  0  0  0  0  0  0  0  0
    9.0528   -0.5087   -0.3671 H   0  0  0  0  0  0  0  0  0  0  0  0
    8.8733   -1.7695    0.8690 H   0  0  0  0  0  0  0  0  0  0  0  0
    9.6415   -0.2266    1.2803 H   0  0  0  0  0  0  0  0  0  0  0  0
    7.3298   -0.2795    2.1576 H   0  0  0  0  0  0  0  0  0  0  0  0
    7.5083    0.9743    0.9284 H   0  0  0  0  0  0  0  0  0  0  0  0
    6.5228   -0.5809   -0.7911 H   0  0  0  0  0  0  0  0  0  0  0  0
    6.3457   -1.8249    0.4284 H   0  0  0  0  0  0  0  0  0  0  0  0
    4.9976    0.9217    0.4875 H   0  0  0  0  0  0  0  0  0  0  0  0
    4.8156   -0.3556    1.7384 H   0  0  0  0  0  0  0  0  0  0  0  0
    2.1178   -1.7831   -1.4793 H   0  0  0  0  0  0  0  0  0  0  0  0
   -0.2660   -1.2588   -1.3322 H   0  0  0  0  0  0  0  0  0  0  0  0
   -1.5594    1.3492    0.9872 H   0  0  0  0  0  0  0  0  0  0  0  0
   -2.3846   -0.7060   -4.0357 H   0  0  0  0  0  0  0  0  0  0  0  0
   -4.0698   -0.6444   -4.2833 H   0  0  0  0  0  0  0  0  0  0  0  0
   -6.7841    0.9714   -1.0846 H   0  0  0  0  0  0  0  0  0  0  0  0
   -5.7124    2.2074   -0.4178 H   0  0  0  0  0  0  0  0  0  0  0  0
   -7.5445    0.9124    1.1362 H   0  0  0  0  0  0  0  0  0  0  0  0
   -5.9748    1.3819    1.7921 H   0  0  0  0  0  0  0  0  0  0  0  0
   -6.9525   -1.3420    1.3487 H   0  0  0  0  0  0  0  0  0  0  0  0
   -5.4650   -0.8091    2.1337 H   0  0  0  0  0  0  0  0  0  0  0  0
   -4.4507   -1.7818    0.2446 H   0  0  0  0  0  0  0  0  0  0  0  0
   -5.9324   -1.6404   -0.7023 H   0  0  0  0  0  0  0  0  0  0  0  0
   -3.6481    0.5777    1.0442 H   0  0  0  0  0  0  0  0  0  0  0  0
    0.5776    1.5851    1.7934 H   0  0  0  0  0  0  0  0  0  0  0  0
    2.9396    1.0530    1.6531 H   0  0  0  0  0  0  0  0  0  0  0  0
  1  2  1  0
  2  3  1  0
  3  4  1  0
  4  5  1  0
  5  6  1  0
  6  7  2  0
  7  8  1  0
  8  9  2  0
  9 10  1  0
 10 11  1  0
 11 12  2  0
 12 13  1  0
 13 14  1  0
 13 15  2  0
 15 16  1  0
 16 17  1  0
 17 18  1  0
 18 19  1  0
 19 20  1  0
 16 21  1  0
  9 22  1  0
 22 23  2  0
 23  6  1  0
 21 11  1  0
 20 16  1  0
  1 24  1  0
  1 25  1  0
  1 26  1  0
  2 27  1  0
  2 28  1  0
  3 29  1  0
  3 30  1  0
  4 31  1  0
  4 32  1  0
  7 33  1  0
  8 34  1  0
 10 35  1  0
 14 36  1  0
 14 37  1  0
 17 38  1  0
 17 39  1  0
 18 40  1  0
 18 41  1  0
 19 42  1  0
 19 43  1  0
 20 44  1  0
 20 45  1  0
 21 46  1  0
 22 47  1  0
 23 48  1  0
M  END
$$$$
