
     RDKit          3D

 46 48  0  0  0  0  0  0  0  0999 V2000
   -0.9406    0.0383    2.0135 O   0  0  0  0  0  0  0  0  0  0  0  0
   -0.6405    0.0101    0.8265 C   0  0  0  0  0  0  0  0  0  0  0  0
    0.7981   -0.1298    0.3541 C   0  0  0  0  0  0  0  0  0  0  0  0
    1.7755   -0.2076    1.5327 C   0  0  0  0  0  0  0  0  0  0  0  0
    3.2110   -0.3097    1.1853 N   0  0  0  0  0  0  0  0  0  0  0  0
    3.4955   -1.5401    0.4323 C   0  0  0  0  0  0  0  0  0  0  0  0
    4.9601   -1.9799    0.4631 C   0  0  0  0  0  0  0  0  0  0  0  0
    5.9662   -0.9554   -0.0565 C   0  0  0  0  0  0  0  0  0  0  0  0
    6.1700    0.1996    0.9162 C   0  0  0  0  0  0  0  0  0  0  0  0
    5.1074    1.2939    0.8647 C   0  0  0  0  0  0  0  0  0  0  0  0
    3.6864    0.8845    0.4774 C   0  0  0  0  0  0  0  0  0  0  0  0
   -1.5158    0.0941   -0.2465 N   0  0  0  0  0  0  0  0  0  0  0  0
   -2.9195    0.2302   -0.2048 C   0  0  0  0  0  0  0  0  0  0  0  0
   -3.6643    0.2999    0.9755 C   0  0  0  0  0  0  0  0  0  0  0  0
   -5.0563    0.4423    0.9314 C   0  0  0  0  0  0  0  0  0  0  0  0
   -5.7114    0.5187   -0.2930 C   0  0  0  0  0  0  0  0  0  0  0  0
   -4.9790    0.4223   -1.4773 C   0  0  0  0  0  0  0  0  0  0  0  0
   -3.5899    0.2938   -1.4339 C   0  0  0  0  0  0  0  0  0  0  0  0
   -5.5551    0.4547   -2.7224 O   0  0  0  0  0  0  0  0  0  0  0  0
   -6.9706    0.2450   -2.6464 C   0  0  0  0  0  0  0  0  0  0  0  0
   -7.5798    1.0851   -1.5360 C   0  0  0  0  0  0  0  0  0  0  0  0
   -7.0720    0.6801   -0.2598 O   0  0  0  0  0  0  0  0  0  0  0  0
    0.8609   -1.0374   -0.2567 H   0  0  0  0  0  0  0  0  0  0  0  0
    1.0291    0.7328   -0.2812 H   0  0  0  0  0  0  0  0  0  0  0  0
    1.6393    0.6681    2.1817 H   0  0  0  0  0  0  0  0  0  0  0  0
    1.5115   -1.0640    2.1677 H   0  0  0  0  0  0  0  0  0  0  0  0
    2.9207   -2.3702    0.8644 H   0  0  0  0  0  0  0  0  0  0  0  0
    3.1644   -1.4523   -0.6107 H   0  0  0  0  0  0  0  0  0  0  0  0
    5.2303   -2.2769    1.4847 H   0  0  0  0  0  0  0  0  0  0  0  0
    5.0490   -2.8867   -0.1488 H   0  0  0  0  0  0  0  0  0  0  0  0
    5.6835   -0.5928   -1.0513 H   0  0  0  0  0  0  0  0  0  0  0  0
    6.9288   -1.4692   -0.1736 H   0  0  0  0  0  0  0  0  0  0  0  0
    6.2363   -0.1906    1.9399 H   0  0  0  0  0  0  0  0  0  0  0  0
    7.1431    0.6658    0.7157 H   0  0  0  0  0  0  0  0  0  0  0  0
    5.0861    1.7922    1.8429 H   0  0  0  0  0  0  0  0  0  0  0  0
    5.4345    2.0608    0.1503 H   0  0  0  0  0  0  0  0  0  0  0  0
    3.0529    1.7497    0.7165 H   0  0  0  0  0  0  0  0  0  0  0  0
    3.6082    0.7651   -0.6111 H   0  0  0  0  0  0  0  0  0  0  0  0
   -1.1053    0.0551   -1.1713 H   0  0  0  0  0  0  0  0  0  0  0  0
   -3.1943    0.2509    1.9529 H   0  0  0  0  0  0  0  0  0  0  0  0
   -5.6223    0.5039    1.8571 H   0  0  0  0  0  0  0  0  0  0  0  0
   -3.0461    0.2345   -2.3722 H   0  0  0  0  0  0  0  0  0  0  0  0
   -7.3995    0.5267   -3.6130 H   0  0  0  0  0  0  0  0  0  0  0  0
   -7.1560   -0.8248   -2.4886 H   0  0  0  0  0  0  0  0  0  0  0  0
   -7.3641    2.1518   -1.6748 H   0  0  0  0  0  0  0  0  0  0  0  0
   -8.6665    0.9563   -1.5166 H   0  0  0  0  0  0  0  0  0  0  0  0
  1  2  2  0
  2  3  1  0
  3  4  1  0
  4  5  1  0
  5  6  1  0
  6  7  1  0
  7  8  1  0
  8  9  1  0
  9 10  1  0
 10 11  1  0
  2 12  1  0
 12 13  1  0
 13 14  2  0
 14 15  1  0
 15 16  2  0
 16 17  1  0
 17 18  2  0
 17 19  1  0
 19 20  1  0
 20 21  1  0
 21 22  1  0
 11  5  1  0
 18 13  1  0
 22 16  1  0
  3 23  1  0
  3 24  1  0
  4 25  1  0
  4 26  1  0
  6 27  1  0
  6 28  1  0
  7 29  1  0
  7 30  1  0
  8 31  1  0
  8 32  1  0
  9 33  1  0
  9 34  1  0
 10 35  1  0
 10 36  1  0
 11 37  1  0
 11 38  1  0
 12 39  1  0
 14 40  1  0
 15 41  1  0
 18 42  1  0
 20 43  1  0
 20 44  1  0
 21 45  1  0
 21 46  1  0
M  END
$$$$
