
     RDKit          3D

 53 56  0  0  0  0  0  0  0  0999 V2000
    7.6195    4.3057   -0.0385 C   0  0  0  0  0  0  0  0  0  0  0  0
    6.2204    4.0894   -0.1787 O   0  0  0  0  0  0  0  0  0  0  0  0
    5.8082    2.7950   -0.3436 C   0  0  0  0  0  0  0  0  0  0  0  0
    6.6389    1.6782   -0.4393 C   0  0  0  0  0  0  0  0  0  0  0  0
    6.0849    0.4061   -0.6013 C   0  0  0  0  0  0  0  0  0  0  0  0
    4.6991    0.2468   -0.6579 C   0  0  0  0  0  0  0  0  0  0  0  0
    4.2071   -1.0123   -0.8900 O   0  0  0  0  0  0  0  0  0  0  0  0
    4.0814   -1.7295    0.3412 C   0  0  0  0  0  0  0  0  0  0  0  0
    3.8490    1.3604   -0.5897 C   0  0  0  0  0  0  0  0  0  0  0  0
    2.4046    1.2177   -0.6584 C   0  0  0  0  0  0  0  0  0  0  0  0
    1.5986    1.9515   -1.5079 C   0  0  0  0  0  0  0  0  0  0  0  0
   -0.0403    1.4748   -1.3049 S   0  0  0  0  0  0  0  0  0  0  0  0
    0.4562    0.3480   -0.1212 C   0  0  0  0  0  0  0  0  0  0  0  0
   -0.5587   -0.4043    0.3992 N   0  0  0  0  0  0  0  0  0  0  0  0
   -0.3441   -1.4107    1.3142 C   0  0  0  0  0  0  0  0  0  0  0  0
    0.7503   -1.7141    1.7975 O   0  0  0  0  0  0  0  0  0  0  0  0
   -1.5681   -2.1965    1.7569 C   0  0  0  0  0  0  0  0  0  0  0  0
   -2.8264   -1.8111    1.1327 N   0  0  0  0  0  0  0  0  0  0  0  0
   -3.7512   -0.9499    1.6752 C   0  0  0  0  0  0  0  0  0  0  0  0
   -3.5353   -0.3746    2.8499 O   0  0  0  0  0  0  0  0  0  0  0  0
   -4.8085   -0.8656    0.7953 C   0  0  0  0  0  0  0  0  0  0  0  0
   -4.4941   -1.6862   -0.3313 C   0  0  0  0  0  0  0  0  0  0  0  0
   -3.2544   -2.2422   -0.1026 C   0  0  0  0  0  0  0  0  0  0  0  0
   -2.4920   -3.0356   -0.8404 O   0  0  0  0  0  0  0  0  0  0  0  0
   -5.4010   -1.8221   -1.5105 C   0  0  0  0  0  0  0  0  0  0  0  0
   -6.8331   -1.3877   -1.1592 C   0  0  0  0  0  0  0  0  0  0  0  0
   -6.8455   -0.0413   -0.4176 C   0  0  0  0  0  0  0  0  0  0  0  0
   -6.0959   -0.1198    0.9232 C   0  0  0  0  0  0  0  0  0  0  0  0
    1.7326    0.3199    0.1529 N   0  0  0  0  0  0  0  0  0  0  0  0
    4.4205    2.6310   -0.4237 C   0  0  0  0  0  0  0  0  0  0  0  0
    8.0191    3.7697    0.8284 H   0  0  0  0  0  0  0  0  0  0  0  0
    7.7767    5.3752    0.1314 H   0  0  0  0  0  0  0  0  0  0  0  0
    8.1526    4.0307   -0.9543 H   0  0  0  0  0  0  0  0  0  0  0  0
    7.7189    1.7605   -0.3968 H   0  0  0  0  0  0  0  0  0  0  0  0
    6.7324   -0.4621   -0.6912 H   0  0  0  0  0  0  0  0  0  0  0  0
    3.7201   -1.1050    1.1660 H   0  0  0  0  0  0  0  0  0  0  0  0
    3.3647   -2.5405    0.1849 H   0  0  0  0  0  0  0  0  0  0  0  0
    5.0463   -2.1724    0.6097 H   0  0  0  0  0  0  0  0  0  0  0  0
    1.8826    2.7068   -2.2268 H   0  0  0  0  0  0  0  0  0  0  0  0
   -1.4771   -0.2304    0.0181 H   0  0  0  0  0  0  0  0  0  0  0  0
   -1.4052   -3.2573    1.5383 H   0  0  0  0  0  0  0  0  0  0  0  0
   -1.6789   -2.0873    2.8395 H   0  0  0  0  0  0  0  0  0  0  0  0
   -4.3007    0.1941    3.0436 H   0  0  0  0  0  0  0  0  0  0  0  0
   -2.9900   -3.2604   -1.6470 H   0  0  0  0  0  0  0  0  0  0  0  0
   -5.4080   -2.8549   -1.8751 H   0  0  0  0  0  0  0  0  0  0  0  0
   -5.0207   -1.1838   -2.3166 H   0  0  0  0  0  0  0  0  0  0  0  0
   -7.3001   -2.1498   -0.5223 H   0  0  0  0  0  0  0  0  0  0  0  0
   -7.4363   -1.3197   -2.0704 H   0  0  0  0  0  0  0  0  0  0  0  0
   -7.8777    0.2751   -0.2364 H   0  0  0  0  0  0  0  0  0  0  0  0
   -6.3815    0.7233   -1.0538 H   0  0  0  0  0  0  0  0  0  0  0  0
   -6.7264   -0.6375    1.6575 H   0  0  0  0  0  0  0  0  0  0  0  0
   -5.9175    0.8932    1.3012 H   0  0  0  0  0  0  0  0  0  0  0  0
    3.7839    3.5116   -0.3490 H   0  0  0  0  0  0  0  0  0  0  0  0
  1  2  1  0
  2  3  1  0
  3  4  2  0
  4  5  1  0
  5  6  2  0
  6  7  1  0
  7  8  1  0
  6  9  1  0
  9 10  1  0
 10 11  2  0
 11 12  1  0
 12 13  1  0
 13 14  1  0
 14 15  1  0
 15 16  2  0
 15 17  1  0
 17 18  1  0
 18 19  1  0
 19 20  1  0
 19 21  2  0
 21 22  1  0
 22 23  2  0
 23 24  1  0
 22 25  1  0
 25 26  1  0
 26 27  1  0
 27 28  1  0
 13 29  2  0
  9 30  2  0
 30  3  1  0
 29 10  1  0
 23 18  1  0
 28 21  1  0
  1 31  1  0
  1 32  1  0
  1 33  1  0
  4 34  1  0
  5 35  1  0
  8 36  1  0
  8 37  1  0
  8 38  1  0
 11 39  1  0
 14 40  1  0
 17 41  1  0
 17 42  1  0
 20 43  1  0
 24 44  1  0
 25 45  1  0
 25 46  1  0
 26 47  1  0
 26 48  1  0
 27 49  1  0
 27 50  1  0
 28 51  1  0
 28 52  1  0
 30 53  1  0
M  END
$$$$
