
     RDKit          3D

 31 32  0  0  0  0  0  0  0  0999 V2000
    4.2683   -0.8279   -4.7622 N   0  0  0  0  0  0  0  0  0  0  0  0
    3.4858    0.1226   -4.2139 C   0  0  0  0  0  0  0  0  0  0  0  0
    2.1986    0.2526   -4.4445 N   0  0  0  0  0  0  0  0  0  0  0  0
    1.6397    1.3021   -3.7390 N   0  0  0  0  0  0  0  0  0  0  0  0
    2.5317    1.9187   -2.9978 C   0  0  0  0  0  0  0  0  0  0  0  0
    2.0913    3.2857   -2.0004 S   0  0  0  0  0  0  0  0  0  0  0  0
    2.2400    2.5543   -0.3498 C   0  0  0  0  0  0  0  0  0  0  0  0
    1.3894    1.3093   -0.2134 C   0  0  0  0  0  0  0  0  0  0  0  0
    1.8722    0.1765   -0.1964 O   0  0  0  0  0  0  0  0  0  0  0  0
    0.0327    1.5455   -0.1055 N   0  0  0  0  0  0  0  0  0  0  0  0
   -0.7821    0.4570    0.2505 N   0  0  0  0  0  0  0  0  0  0  0  0
   -1.6715    0.6594    1.2896 C   0  0  0  0  0  0  0  0  0  0  0  0
   -1.8691    1.7685    1.7809 O   0  0  0  0  0  0  0  0  0  0  0  0
   -2.3637   -0.5475    1.8208 C   0  0  0  0  0  0  0  0  0  0  0  0
   -2.5266   -1.7128    1.0582 C   0  0  0  0  0  0  0  0  0  0  0  0
   -3.1881   -2.8186    1.6029 C   0  0  0  0  0  0  0  0  0  0  0  0
   -3.6917   -2.7590    2.9020 C   0  0  0  0  0  0  0  0  0  0  0  0
   -4.5042   -4.1216    3.5662 Cl  0  0  0  0  0  0  0  0  0  0  0  0
   -3.5466   -1.6005    3.6624 C   0  0  0  0  0  0  0  0  0  0  0  0
   -2.8868   -0.4939    3.1208 C   0  0  0  0  0  0  0  0  0  0  0  0
    4.1159    1.2827   -3.1134 S   0  0  0  0  0  0  0  0  0  0  0  0
    5.1019   -1.0933   -4.2511 H   0  0  0  0  0  0  0  0  0  0  0  0
    3.7685   -1.6194   -5.1546 H   0  0  0  0  0  0  0  0  0  0  0  0
    1.9248    3.2890    0.3982 H   0  0  0  0  0  0  0  0  0  0  0  0
    3.2837    2.3015   -0.1371 H   0  0  0  0  0  0  0  0  0  0  0  0
   -0.3284    2.4615    0.1629 H   0  0  0  0  0  0  0  0  0  0  0  0
   -0.3741   -0.4602    0.0720 H   0  0  0  0  0  0  0  0  0  0  0  0
   -2.1711   -1.7746    0.0330 H   0  0  0  0  0  0  0  0  0  0  0  0
   -3.3145   -3.7192    1.0065 H   0  0  0  0  0  0  0  0  0  0  0  0
   -3.9453   -1.5492    4.6724 H   0  0  0  0  0  0  0  0  0  0  0  0
   -2.7808    0.4108    3.7174 H   0  0  0  0  0  0  0  0  0  0  0  0
  1  2  1  0
  2  3  2  0
  3  4  1  0
  4  5  2  0
  5  6  1  0
  6  7  1  0
  7  8  1  0
  8  9  2  0
  8 10  1  0
 10 11  1  0
 11 12  1  0
 12 13  2  0
 12 14  1  0
 14 15  2  0
 15 16  1  0
 16 17  2  0
 17 18  1  0
 17 19  1  0
 19 20  2  0
  5 21  1  0
 21  2  1  0
 20 14  1  0
  1 22  1  0
  1 23  1  0
  7 24  1  0
  7 25  1  0
 10 26  1  0
 11 27  1  0
 15 28  1  0
 16 29  1  0
 19 30  1  0
 20 31  1  0
M  END
$$$$
