
     RDKit          3D

 62 65  0  0  0  0  0  0  0  0999 V2000
   -1.2172   -2.1962    2.3136 C   0  0  0  0  0  0  0  0  0  0  0  0
   -1.2790   -0.7317    1.9783 C   0  0  0  0  0  0  0  0  0  0  0  0
   -2.4812   -0.0752    2.3300 C   0  0  0  0  0  0  0  0  0  0  0  0
   -2.6788    1.2844    2.0931 C   0  0  0  0  0  0  0  0  0  0  0  0
   -3.8606    1.8651    2.4526 O   0  0  0  0  0  0  0  0  0  0  0  0
   -1.6854    2.0533    1.5017 C   0  0  0  0  0  0  0  0  0  0  0  0
   -1.8176    3.5406    1.2185 C   0  0  0  0  0  0  0  0  0  0  0  0
   -2.9359    3.8467    0.2186 C   0  0  0  0  0  0  0  0  0  0  0  0
   -1.9723    4.3660    2.4983 C   0  0  0  0  0  0  0  0  0  0  0  0
   -0.4892    1.4014    1.1529 C   0  0  0  0  0  0  0  0  0  0  0  0
   -0.2516    0.0070    1.3507 C   0  0  0  0  0  0  0  0  0  0  0  0
    1.1393   -0.4966    0.8586 C   0  0  0  0  0  0  0  0  0  0  0  0
    1.3981   -0.1379   -0.6362 C   0  0  0  0  0  0  0  0  0  0  0  0
    0.3327   -0.3604   -1.5545 C   0  0  0  0  0  0  0  0  0  0  0  0
    0.4183   -0.0780   -2.9306 C   0  0  0  0  0  0  0  0  0  0  0  0
   -0.7774   -0.2997   -3.8447 C   0  0  0  0  0  0  0  0  0  0  0  0
   -0.7818   -1.7380   -4.3663 C   0  0  0  0  0  0  0  0  0  0  0  0
   -2.1313    0.0393   -3.2079 C   0  0  0  0  0  0  0  0  0  0  0  0
    1.6452    0.3899   -3.4023 C   0  0  0  0  0  0  0  0  0  0  0  0
    1.8982    0.6540   -4.7187 O   0  0  0  0  0  0  0  0  0  0  0  0
    2.7153    0.6075   -2.5357 C   0  0  0  0  0  0  0  0  0  0  0  0
    2.6192    0.3448   -1.1567 C   0  0  0  0  0  0  0  0  0  0  0  0
    3.8488    0.6017   -0.3289 C   0  0  0  0  0  0  0  0  0  0  0  0
    2.0409    0.2207    1.7581 O   0  0  0  0  0  0  0  0  0  0  0  0
    2.6812   -0.5997    2.6351 C   0  0  0  0  0  0  0  0  0  0  0  0
    3.3887   -0.2664    3.5640 O   0  0  0  0  0  0  0  0  0  0  0  0
    2.4191   -1.9556    2.1901 C   0  0  0  0  0  0  0  0  0  0  0  0
    2.9793   -3.1283    2.6704 C   0  0  0  0  0  0  0  0  0  0  0  0
    2.6520   -4.3155    2.0175 C   0  0  0  0  0  0  0  0  0  0  0  0
    1.7990   -4.2972    0.9033 C   0  0  0  0  0  0  0  0  0  0  0  0
    1.2511   -3.0947    0.4416 C   0  0  0  0  0  0  0  0  0  0  0  0
    1.5491   -1.9162    1.1183 C   0  0  0  0  0  0  0  0  0  0  0  0
   -0.3498   -2.4223    2.9383 H   0  0  0  0  0  0  0  0  0  0  0  0
   -1.2264   -2.7962    1.4017 H   0  0  0  0  0  0  0  0  0  0  0  0
   -2.0885   -2.5133    2.8964 H   0  0  0  0  0  0  0  0  0  0  0  0
   -3.2749   -0.6463    2.8057 H   0  0  0  0  0  0  0  0  0  0  0  0
   -4.4201    1.2052    2.8908 H   0  0  0  0  0  0  0  0  0  0  0  0
   -0.8855    3.8802    0.7464 H   0  0  0  0  0  0  0  0  0  0  0  0
   -2.8134    3.2573   -0.6979 H   0  0  0  0  0  0  0  0  0  0  0  0
   -3.9285    3.6313    0.6257 H   0  0  0  0  0  0  0  0  0  0  0  0
   -2.9199    4.9063   -0.0603 H   0  0  0  0  0  0  0  0  0  0  0  0
   -2.9196    4.1689    3.0096 H   0  0  0  0  0  0  0  0  0  0  0  0
   -1.1607    4.1508    3.2031 H   0  0  0  0  0  0  0  0  0  0  0  0
   -1.9404    5.4367    2.2685 H   0  0  0  0  0  0  0  0  0  0  0  0
    0.3044    2.0017    0.7013 H   0  0  0  0  0  0  0  0  0  0  0  0
   -0.6019   -0.7644   -1.1671 H   0  0  0  0  0  0  0  0  0  0  0  0
   -0.6908    0.3784   -4.7022 H   0  0  0  0  0  0  0  0  0  0  0  0
    0.1501   -1.9718   -4.8932 H   0  0  0  0  0  0  0  0  0  0  0  0
   -1.6090   -1.8950   -5.0667 H   0  0  0  0  0  0  0  0  0  0  0  0
   -0.8905   -2.4603   -3.5487 H   0  0  0  0  0  0  0  0  0  0  0  0
   -2.9232    0.0111   -3.9645 H   0  0  0  0  0  0  0  0  0  0  0  0
   -2.1224    1.0430   -2.7706 H   0  0  0  0  0  0  0  0  0  0  0  0
   -2.4112   -0.6715   -2.4238 H   0  0  0  0  0  0  0  0  0  0  0  0
    1.2156    0.2430   -5.2689 H   0  0  0  0  0  0  0  0  0  0  0  0
    3.6479    0.9808   -2.9572 H   0  0  0  0  0  0  0  0  0  0  0  0
    4.1406   -0.2981    0.2185 H   0  0  0  0  0  0  0  0  0  0  0  0
    3.6846    1.4374    0.3571 H   0  0  0  0  0  0  0  0  0  0  0  0
    4.7072    0.8699   -0.9556 H   0  0  0  0  0  0  0  0  0  0  0  0
    3.6645   -3.1155    3.5123 H   0  0  0  0  0  0  0  0  0  0  0  0
    3.0744   -5.2578    2.3599 H   0  0  0  0  0  0  0  0  0  0  0  0
    1.5679   -5.2280    0.3888 H   0  0  0  0  0  0  0  0  0  0  0  0
    0.6031   -3.0964   -0.4302 H   0  0  0  0  0  0  0  0  0  0  0  0
  1  2  1  0
  2  3  2  0
  3  4  1  0
  4  5  1  0
  4  6  2  0
  6  7  1  0
  7  8  1  0
  7  9  1  0
  6 10  1  0
 10 11  2  0
 11 12  1  0
 12 13  1  0
 13 14  2  0
 14 15  1  0
 15 16  1  0
 16 17  1  0
 16 18  1  0
 15 19  2  0
 19 20  1  0
 19 21  1  0
 21 22  2  0
 22 23  1  0
 12 24  1  0
 24 25  1  0
 25 26  2  0
 25 27  1  0
 27 28  2  0
 28 29  1  0
 29 30  2  0
 30 31  1  0
 31 32  2  0
 11  2  1  0
 32 12  1  0
 22 13  1  0
 32 27  1  0
  1 33  1  0
  1 34  1  0
  1 35  1  0
  3 36  1  0
  5 37  1  0
  7 38  1  0
  8 39  1  0
  8 40  1  0
  8 41  1  0
  9 42  1  0
  9 43  1  0
  9 44  1  0
 10 45  1  0
 14 46  1  0
 16 47  1  0
 17 48  1  0
 17 49  1  0
 17 50  1  0
 18 51  1  0
 18 52  1  0
 18 53  1  0
 20 54  1  0
 21 55  1  0
 23 56  1  0
 23 57  1  0
 23 58  1  0
 28 59  1  0
 29 60  1  0
 30 61  1  0
 31 62  1  0
M  END
$$$$
