
     RDKit          3D

 38 40  0  0  0  0  0  0  0  0999 V2000
    1.3697    2.0719   -0.0091 O   0  0  0  0  0  0  0  0  0  0  0  0
    1.7343    0.9326   -0.2875 C   0  0  0  0  0  0  0  0  0  0  0  0
    0.8864   -0.1576   -0.2410 N   0  0  0  0  0  0  0  0  0  0  0  0
   -0.3805    0.0474    0.3279 N   0  0  0  0  0  0  0  0  0  0  0  0
   -0.8450   -0.9028    1.2189 C   0  0  0  0  0  0  0  0  0  0  0  0
   -0.2735   -1.9822    1.3787 O   0  0  0  0  0  0  0  0  0  0  0  0
   -2.0596   -0.4498    2.0415 C   0  0  0  0  0  0  0  0  0  0  0  0
   -2.9754   -1.6216    2.3739 C   0  0  0  0  0  0  0  0  0  0  0  0
   -3.6579   -2.1132    1.2142 O   0  0  0  0  0  0  0  0  0  0  0  0
   -4.1471   -1.0946    0.4419 C   0  0  0  0  0  0  0  0  0  0  0  0
   -5.0933   -1.4390   -0.5215 C   0  0  0  0  0  0  0  0  0  0  0  0
   -5.6490   -0.4512   -1.3360 C   0  0  0  0  0  0  0  0  0  0  0  0
   -5.2549    0.8792   -1.1878 C   0  0  0  0  0  0  0  0  0  0  0  0
   -4.2968    1.2217   -0.2324 C   0  0  0  0  0  0  0  0  0  0  0  0
   -3.7337    0.2327    0.5727 C   0  0  0  0  0  0  0  0  0  0  0  0
   -2.7779    0.6411    1.4646 O   0  0  0  0  0  0  0  0  0  0  0  0
    3.1492    0.6619   -0.6629 C   0  0  0  0  0  0  0  0  0  0  0  0
    3.5155   -0.4593   -1.4227 C   0  0  0  0  0  0  0  0  0  0  0  0
    4.8544   -0.6740   -1.7619 C   0  0  0  0  0  0  0  0  0  0  0  0
    5.8350    0.2302   -1.3520 C   0  0  0  0  0  0  0  0  0  0  0  0
    5.4673    1.3570   -0.6040 C   0  0  0  0  0  0  0  0  0  0  0  0
    6.4980    2.3112   -0.1763 N   0  0  0  0  0  4  0  0  0  0  0  0
    7.6532    2.1320   -0.5877 O   0  0  0  0  0  0  0  0  0  0  0  0
    6.1536    3.2348    0.5734 O   0  0  0  0  0  1  0  0  0  0  0  0
    4.1281    1.5806   -0.2601 C   0  0  0  0  0  0  0  0  0  0  0  0
    1.2451   -1.1075   -0.1487 H   0  0  0  0  0  0  0  0  0  0  0  0
   -0.6958    1.0172    0.3957 H   0  0  0  0  0  0  0  0  0  0  0  0
   -1.6395   -0.0705    2.9817 H   0  0  0  0  0  0  0  0  0  0  0  0
   -3.7355   -1.3201    3.1062 H   0  0  0  0  0  0  0  0  0  0  0  0
   -2.4162   -2.4578    2.8067 H   0  0  0  0  0  0  0  0  0  0  0  0
   -5.4040   -2.4744   -0.6315 H   0  0  0  0  0  0  0  0  0  0  0  0
   -6.3917   -0.7190   -2.0834 H   0  0  0  0  0  0  0  0  0  0  0  0
   -5.6905    1.6490   -1.8200 H   0  0  0  0  0  0  0  0  0  0  0  0
   -3.9846    2.2569   -0.1246 H   0  0  0  0  0  0  0  0  0  0  0  0
    2.7706   -1.1651   -1.7832 H   0  0  0  0  0  0  0  0  0  0  0  0
    5.1325   -1.5440   -2.3543 H   0  0  0  0  0  0  0  0  0  0  0  0
    6.8727    0.0476   -1.6262 H   0  0  0  0  0  0  0  0  0  0  0  0
    3.8368    2.4579    0.3167 H   0  0  0  0  0  0  0  0  0  0  0  0
  1  2  2  0
  2  3  1  0
  3  4  1  0
  4  5  1  0
  5  6  2  0
  5  7  1  0
  7  8  1  0
  8  9  1  0
  9 10  1  0
 10 11  2  0
 11 12  1  0
 12 13  2  0
 13 14  1  0
 14 15  2  0
 15 16  1  0
  2 17  1  0
 17 18  2  0
 18 19  1  0
 19 20  2  0
 20 21  1  0
 21 22  1  0
 22 23  2  0
 22 24  1  0
 21 25  2  0
 16  7  1  0
 25 17  1  0
 15 10  1  0
  3 26  1  0
  4 27  1  0
  7 28  1  0
  8 29  1  0
  8 30  1  0
 11 31  1  0
 12 32  1  0
 13 33  1  0
 14 34  1  0
 18 35  1  0
 19 36  1  0
 20 37  1  0
 25 38  1  0
M  CHG  2  22   1  24  -1
M  END
$$$$
