
     RDKit          3D

 57 60  0  0  0  0  0  0  0  0999 V2000
   -2.2160   -0.9357   -2.2958 O   0  0  0  0  0  0  0  0  0  0  0  0
   -1.9706   -1.0915   -1.1052 C   0  0  0  0  0  0  0  0  0  0  0  0
   -0.5892   -0.9379   -0.4946 C   0  0  0  0  0  0  0  0  0  0  0  0
    0.5255   -0.7796   -1.5282 C   0  0  0  0  0  0  0  0  0  0  0  0
    0.8491   -2.0995   -2.2376 C   0  0  0  0  0  0  0  0  0  0  0  0
    2.0265   -1.9883   -3.2134 C   0  0  0  0  0  0  0  0  0  0  0  0
    3.3967   -2.3166   -2.6018 C   0  0  0  0  0  0  0  0  0  0  0  0
    3.8730   -1.3294   -1.6407 N   0  0  0  0  0  0  0  0  0  0  0  0
    4.4137   -0.1543   -2.1408 C   0  0  0  0  0  0  0  0  0  0  0  0
    4.5226    0.1038   -3.3387 O   0  0  0  0  0  0  0  0  0  0  0  0
    4.8490    0.7617   -1.2264 N   0  0  0  0  0  0  0  0  0  0  0  0
    4.7873    0.5756    0.1504 C   0  0  0  0  0  0  0  0  0  0  0  0
    5.2572    1.5679    1.0109 C   0  0  0  0  0  0  0  0  0  0  0  0
    5.1910    1.3716    2.3923 C   0  0  0  0  0  0  0  0  0  0  0  0
    4.6579    0.1893    2.9093 C   0  0  0  0  0  0  0  0  0  0  0  0
    4.1889   -0.8010    2.0450 C   0  0  0  0  0  0  0  0  0  0  0  0
    4.2567   -0.6022    0.6621 C   0  0  0  0  0  0  0  0  0  0  0  0
    3.7659   -1.6250   -0.2817 C   0  0  0  0  0  0  0  0  0  0  0  0
    3.2835   -2.6629    0.1663 O   0  0  0  0  0  0  0  0  0  0  0  0
   -2.9334   -1.4004   -0.1680 N   0  0  0  0  0  0  0  0  0  0  0  0
   -4.3423   -1.4507   -0.5178 C   0  0  0  0  0  0  0  0  0  0  0  0
   -4.9917   -0.0650   -0.6091 C   0  0  0  0  0  0  0  0  0  0  0  0
   -4.9685    0.6719    0.6977 C   0  0  0  0  0  0  0  0  0  0  0  0
   -5.8630    0.5234    1.7402 C   0  0  0  0  0  0  0  0  0  0  0  0
   -5.4859    1.3626    2.7538 N   0  0  0  0  0  0  0  0  0  0  0  0
   -4.3542    2.0587    2.3999 C   0  0  0  0  0  0  0  0  0  0  0  0
   -3.6186    3.0098    3.1173 C   0  0  0  0  0  0  0  0  0  0  0  0
   -2.4990    3.5686    2.4937 C   0  0  0  0  0  0  0  0  0  0  0  0
   -2.1343    3.1925    1.2035 C   0  0  0  0  0  0  0  0  0  0  0  0
   -2.8817    2.2407    0.5008 C   0  0  0  0  0  0  0  0  0  0  0  0
   -4.0124    1.6566    1.1087 C   0  0  0  0  0  0  0  0  0  0  0  0
   -0.6144   -0.0395    0.1339 H   0  0  0  0  0  0  0  0  0  0  0  0
   -0.3845   -1.7951    0.1572 H   0  0  0  0  0  0  0  0  0  0  0  0
    0.2513   -0.0198   -2.2701 H   0  0  0  0  0  0  0  0  0  0  0  0
    1.4122   -0.4043   -1.0111 H   0  0  0  0  0  0  0  0  0  0  0  0
   -0.0334   -2.4082   -2.8111 H   0  0  0  0  0  0  0  0  0  0  0  0
    1.0346   -2.8950   -1.5069 H   0  0  0  0  0  0  0  0  0  0  0  0
    1.8574   -2.7164   -4.0174 H   0  0  0  0  0  0  0  0  0  0  0  0
    2.0364   -1.0009   -3.6888 H   0  0  0  0  0  0  0  0  0  0  0  0
    3.3665   -3.3109   -2.1418 H   0  0  0  0  0  0  0  0  0  0  0  0
    4.1310   -2.3757   -3.4152 H   0  0  0  0  0  0  0  0  0  0  0  0
    5.2364    1.6106   -1.6173 H   0  0  0  0  0  0  0  0  0  0  0  0
    5.6752    2.4932    0.6238 H   0  0  0  0  0  0  0  0  0  0  0  0
    5.5564    2.1416    3.0683 H   0  0  0  0  0  0  0  0  0  0  0  0
    4.6079    0.0387    3.9854 H   0  0  0  0  0  0  0  0  0  0  0  0
    3.7738   -1.7221    2.4486 H   0  0  0  0  0  0  0  0  0  0  0  0
   -2.7095   -1.2439    0.8076 H   0  0  0  0  0  0  0  0  0  0  0  0
   -4.8365   -2.0616    0.2455 H   0  0  0  0  0  0  0  0  0  0  0  0
   -4.4440   -1.9648   -1.4802 H   0  0  0  0  0  0  0  0  0  0  0  0
   -6.0339   -0.1830   -0.9312 H   0  0  0  0  0  0  0  0  0  0  0  0
   -4.4950    0.5345   -1.3811 H   0  0  0  0  0  0  0  0  0  0  0  0
   -6.7357   -0.1075    1.8454 H   0  0  0  0  0  0  0  0  0  0  0  0
   -5.9661    1.4626    3.6372 H   0  0  0  0  0  0  0  0  0  0  0  0
   -3.9037    3.3104    4.1201 H   0  0  0  0  0  0  0  0  0  0  0  0
   -1.9084    4.3129    3.0228 H   0  0  0  0  0  0  0  0  0  0  0  0
   -1.2649    3.6445    0.7327 H   0  0  0  0  0  0  0  0  0  0  0  0
   -2.5927    1.9606   -0.5085 H   0  0  0  0  0  0  0  0  0  0  0  0
  1  2  2  0
  2  3  1  0
  3  4  1  0
  4  5  1  0
  5  6  1  0
  6  7  1  0
  7  8  1  0
  8  9  1  0
  9 10  2  0
  9 11  1  0
 11 12  1  0
 12 13  2  0
 13 14  1  0
 14 15  2  0
 15 16  1  0
 16 17  2  0
 17 18  1  0
 18 19  2  0
  2 20  1  0
 20 21  1  0
 21 22  1  0
 22 23  1  0
 23 24  2  0
 24 25  1  0
 25 26  1  0
 26 27  2  0
 27 28  1  0
 28 29  2  0
 29 30  1  0
 30 31  2  0
 18  8  1  0
 31 23  1  0
 17 12  1  0
 31 26  1  0
  3 32  1  0
  3 33  1  0
  4 34  1  0
  4 35  1  0
  5 36  1  0
  5 37  1  0
  6 38  1  0
  6 39  1  0
  7 40  1  0
  7 41  1  0
 11 42  1  0
 13 43  1  0
 14 44  1  0
 15 45  1  0
 16 46  1  0
 20 47  1  0
 21 48  1  0
 21 49  1  0
 22 50  1  0
 22 51  1  0
 24 52  1  0
 25 53  1  0
 27 54  1  0
 28 55  1  0
 29 56  1  0
 30 57  1  0
M  END
$$$$
