
     RDKit          3D

 51 53  0  0  0  0  0  0  0  0999 V2000
   -6.0406    4.4125   -3.1577 C   0  0  0  0  0  0  0  0  0  0  0  0
   -5.8143    3.4914   -1.9881 C   0  0  0  0  0  0  0  0  0  0  0  0
   -6.9255    3.1183   -1.2184 C   0  0  0  0  0  0  0  0  0  0  0  0
   -6.7800    2.2680   -0.1294 C   0  0  0  0  0  0  0  0  0  0  0  0
   -5.5220    1.7724    0.2066 C   0  0  0  0  0  0  0  0  0  0  0  0
   -4.3898    2.1194   -0.5380 C   0  0  0  0  0  0  0  0  0  0  0  0
   -3.1038    1.6217   -0.2163 N   0  0  0  0  0  0  0  0  0  0  0  0
   -2.7512    0.7095    0.7689 C   0  0  0  0  0  0  0  0  0  0  0  0
   -3.5063    0.1443    1.5543 O   0  0  0  0  0  0  0  0  0  0  0  0
   -1.2509    0.4671    0.8251 C   0  0  0  0  0  0  0  0  0  0  0  0
   -0.7088   -0.3955   -0.6827 S   0  0  0  0  0  0  0  0  0  0  0  0
    0.9831   -0.6016   -0.3076 C   0  0  0  0  0  0  0  0  0  0  0  0
    1.5690    0.2032    0.5072 N   0  0  0  0  0  0  0  0  0  0  0  0
    2.9116    0.0096    0.7553 C   0  0  0  0  0  0  0  0  0  0  0  0
    3.5538    0.8060    1.4323 O   0  0  0  0  0  0  0  0  0  0  0  0
    3.5998   -1.2080    0.1768 C   0  0  0  0  0  0  0  0  0  0  0  0
    5.0364   -1.4070    0.5888 C   0  0  0  0  0  0  0  0  0  0  0  0
    5.1901   -2.3159    1.7895 C   0  0  0  0  0  0  0  0  0  0  0  0
    4.9084   -1.8430    3.0799 C   0  0  0  0  0  0  0  0  0  0  0  0
    5.0342   -2.6822    4.1878 C   0  0  0  0  0  0  0  0  0  0  0  0
    5.4480   -4.0020    4.0198 C   0  0  0  0  0  0  0  0  0  0  0  0
    5.7345   -4.4838    2.7446 C   0  0  0  0  0  0  0  0  0  0  0  0
    5.6060   -3.6463    1.6350 C   0  0  0  0  0  0  0  0  0  0  0  0
    2.8928   -1.9732   -0.6822 C   0  0  0  0  0  0  0  0  0  0  0  0
    3.4114   -3.1959   -1.3855 C   0  0  0  0  0  0  0  0  0  0  0  0
    1.5860   -1.6376   -0.9419 N   0  0  0  0  0  0  0  0  0  0  0  0
   -4.5289    2.9993   -1.6456 C   0  0  0  0  0  0  0  0  0  0  0  0
   -3.3183    3.3952   -2.4591 C   0  0  0  0  0  0  0  0  0  0  0  0
   -7.1022    4.6544   -3.2813 H   0  0  0  0  0  0  0  0  0  0  0  0
   -5.5070    5.3560   -3.0085 H   0  0  0  0  0  0  0  0  0  0  0  0
   -5.7078    3.9379   -4.0865 H   0  0  0  0  0  0  0  0  0  0  0  0
   -7.9183    3.4903   -1.4635 H   0  0  0  0  0  0  0  0  0  0  0  0
   -7.6470    1.9859    0.4628 H   0  0  0  0  0  0  0  0  0  0  0  0
   -5.4622    1.1139    1.0666 H   0  0  0  0  0  0  0  0  0  0  0  0
   -2.3443    1.9105   -0.8185 H   0  0  0  0  0  0  0  0  0  0  0  0
   -1.0250   -0.1430    1.7050 H   0  0  0  0  0  0  0  0  0  0  0  0
   -0.7447    1.4324    0.9278 H   0  0  0  0  0  0  0  0  0  0  0  0
    5.6215   -1.8040   -0.2502 H   0  0  0  0  0  0  0  0  0  0  0  0
    5.5264   -0.4493    0.8069 H   0  0  0  0  0  0  0  0  0  0  0  0
    4.5915   -0.8124    3.2334 H   0  0  0  0  0  0  0  0  0  0  0  0
    4.8126   -2.3023    5.1818 H   0  0  0  0  0  0  0  0  0  0  0  0
    5.5487   -4.6535    4.8835 H   0  0  0  0  0  0  0  0  0  0  0  0
    6.0612   -5.5124    2.6144 H   0  0  0  0  0  0  0  0  0  0  0  0
    5.8405   -4.0429    0.6510 H   0  0  0  0  0  0  0  0  0  0  0  0
    2.8978   -4.0887   -1.0126 H   0  0  0  0  0  0  0  0  0  0  0  0
    3.2227   -3.1201   -2.4624 H   0  0  0  0  0  0  0  0  0  0  0  0
    4.4844   -3.3507   -1.2606 H   0  0  0  0  0  0  0  0  0  0  0  0
    1.0227   -2.2465   -1.5235 H   0  0  0  0  0  0  0  0  0  0  0  0
   -2.8982    2.5159   -2.9584 H   0  0  0  0  0  0  0  0  0  0  0  0
   -2.5602    3.8489   -1.8107 H   0  0  0  0  0  0  0  0  0  0  0  0
   -3.5379    4.1338   -3.2329 H   0  0  0  0  0  0  0  0  0  0  0  0
  1  2  1  0
  2  3  2  0
  3  4  1  0
  4  5  2  0
  5  6  1  0
  6  7  1  0
  7  8  1  0
  8  9  2  0
  8 10  1  0
 10 11  1  0
 11 12  1  0
 12 13  2  0
 13 14  1  0
 14 15  2  0
 14 16  1  0
 16 17  1  0
 17 18  1  0
 18 19  2  0
 19 20  1  0
 20 21  2  0
 21 22  1  0
 22 23  2  0
 16 24  2  0
 24 25  1  0
 24 26  1  0
  6 27  2  0
 27 28  1  0
 27  2  1  0
 26 12  1  0
 23 18  1  0
  1 29  1  0
  1 30  1  0
  1 31  1  0
  3 32  1  0
  4 33  1  0
  5 34  1  0
  7 35  1  0
 10 36  1  0
 10 37  1  0
 17 38  1  0
 17 39  1  0
 19 40  1  0
 20 41  1  0
 21 42  1  0
 22 43  1  0
 23 44  1  0
 25 45  1  0
 25 46  1  0
 25 47  1  0
 26 48  1  0
 28 49  1  0
 28 50  1  0
 28 51  1  0
M  END
$$$$
