
     RDKit          3D

 42 45  0  0  0  0  0  0  0  0999 V2000
   -1.7306   -1.6216    0.0915 O   0  0  0  0  0  0  0  0  0  0  0  0
   -1.7900   -0.6125   -0.5977 C   0  0  0  0  0  0  0  0  0  0  0  0
   -0.6344    0.3008   -0.8207 C   0  0  0  0  0  0  0  0  0  0  0  0
    0.5619    0.0051   -0.2970 C   0  0  0  0  0  0  0  0  0  0  0  0
    1.7672    0.7520   -0.4197 C   0  0  0  0  0  0  0  0  0  0  0  0
    2.0312    2.0902   -0.6849 C   0  0  0  0  0  0  0  0  0  0  0  0
    3.4358    2.2768   -0.6709 C   0  0  0  0  0  0  0  0  0  0  0  0
    3.9890    1.0497   -0.3903 C   0  0  0  0  0  0  0  0  0  0  0  0
    5.3454    0.5337   -0.2203 C   0  0  0  0  0  0  0  0  0  0  0  0
    5.5749   -0.4374    0.7742 C   0  0  0  0  0  0  0  0  0  0  0  0
    6.8505   -0.9606    1.0022 C   0  0  0  0  0  0  0  0  0  0  0  0
    7.9258   -0.5244    0.2367 C   0  0  0  0  0  0  0  0  0  0  0  0
    7.7227    0.4303   -0.7583 C   0  0  0  0  0  0  0  0  0  0  0  0
    6.4437    0.9571   -0.9900 C   0  0  0  0  0  0  0  0  0  0  0  0
    6.3061    2.1014   -2.2824 Cl  0  0  0  0  0  0  0  0  0  0  0  0
    2.9876    0.1400   -0.2188 O   0  0  0  0  0  0  0  0  0  0  0  0
   -1.1208    1.6176   -1.8041 S   0  0  0  0  0  0  0  0  0  0  0  0
   -2.7730    1.0355   -1.9522 C   0  0  0  0  0  0  0  0  0  0  0  0
   -3.9259    1.8677   -2.8228 S   0  0  0  0  0  0  0  0  0  0  0  0
   -2.9137   -0.1467   -1.2569 N   0  0  0  0  0  0  0  0  0  0  0  0
   -4.1624   -0.9068   -1.1535 C   0  0  0  0  0  0  0  0  0  0  0  0
   -5.0789   -0.4196   -0.0249 C   0  0  0  0  0  0  0  0  0  0  0  0
   -4.5644   -0.6935    1.3794 C   0  0  0  0  0  0  0  0  0  0  0  0
   -5.8462   -0.6904    2.1745 C   0  0  0  0  0  0  0  0  0  0  0  0
   -6.8049   -1.3765    1.2249 C   0  0  0  0  0  0  0  0  0  0  0  0
   -6.3536   -1.0881   -0.1078 O   0  0  0  0  0  0  0  0  0  0  0  0
    0.6648   -0.9230    0.2641 H   0  0  0  0  0  0  0  0  0  0  0  0
    1.3003    2.8669   -0.8581 H   0  0  0  0  0  0  0  0  0  0  0  0
    3.9694    3.2028   -0.8327 H   0  0  0  0  0  0  0  0  0  0  0  0
    4.7486   -0.7914    1.3895 H   0  0  0  0  0  0  0  0  0  0  0  0
    6.9992   -1.7081    1.7778 H   0  0  0  0  0  0  0  0  0  0  0  0
    8.9196   -0.9299    0.4091 H   0  0  0  0  0  0  0  0  0  0  0  0
    8.5674    0.7583   -1.3599 H   0  0  0  0  0  0  0  0  0  0  0  0
   -3.9342   -1.9704   -1.0095 H   0  0  0  0  0  0  0  0  0  0  0  0
   -4.6993   -0.8524   -2.1076 H   0  0  0  0  0  0  0  0  0  0  0  0
   -5.2808    0.6525   -0.1367 H   0  0  0  0  0  0  0  0  0  0  0  0
   -3.8411    0.0509    1.7232 H   0  0  0  0  0  0  0  0  0  0  0  0
   -4.1020   -1.6854    1.4437 H   0  0  0  0  0  0  0  0  0  0  0  0
   -6.1705    0.3414    2.3540 H   0  0  0  0  0  0  0  0  0  0  0  0
   -5.7670   -1.1965    3.1401 H   0  0  0  0  0  0  0  0  0  0  0  0
   -7.8355   -1.0318    1.3474 H   0  0  0  0  0  0  0  0  0  0  0  0
   -6.7820   -2.4636    1.3548 H   0  0  0  0  0  0  0  0  0  0  0  0
  1  2  2  0
  2  3  1  0
  3  4  2  3
  4  5  1  0
  5  6  2  0
  6  7  1  0
  7  8  2  0
  8  9  1  0
  9 10  2  0
 10 11  1  0
 11 12  2  0
 12 13  1  0
 13 14  2  0
 14 15  1  0
  8 16  1  0
  3 17  1  0
 17 18  1  0
 18 19  2  0
 18 20  1  0
 20 21  1  0
 21 22  1  0
 22 23  1  0
 23 24  1  0
 24 25  1  0
 25 26  1  0
 20  2  1  0
 26 22  1  0
 16  5  1  0
 14  9  1  0
  4 27  1  0
  6 28  1  0
  7 29  1  0
 10 30  1  0
 11 31  1  0
 12 32  1  0
 13 33  1  0
 21 34  1  0
 21 35  1  0
 22 36  1  0
 23 37  1  0
 23 38  1  0
 24 39  1  0
 24 40  1  0
 25 41  1  0
 25 42  1  0
M  END
$$$$
