
     RDKit          3D

 40 43  0  0  0  0  0  0  0  0999 V2000
    7.5965    1.7095    0.4740 C   0  0  0  0  0  0  0  0  0  0  0  0
    6.3072    0.9915    0.2807 C   0  0  0  0  0  0  0  0  0  0  0  0
    5.9908   -0.1361    0.8781 N   0  0  0  0  0  0  0  0  0  0  0  0
    4.7245   -0.5364    0.4853 C   0  0  0  0  0  0  0  0  0  0  0  0
    4.0577   -1.7002    0.9112 C   0  0  0  0  0  0  0  0  0  0  0  0
    2.7686   -1.9744    0.4353 C   0  0  0  0  0  0  0  0  0  0  0  0
    2.1274   -1.1126   -0.4627 C   0  0  0  0  0  0  0  0  0  0  0  0
    0.8261   -1.4755   -0.8689 N   0  0  0  0  0  0  0  0  0  0  0  0
   -0.0168   -0.7890   -1.7315 C   0  0  0  0  0  0  0  0  0  0  0  0
    0.2436    0.2503   -2.3336 O   0  0  0  0  0  0  0  0  0  0  0  0
   -1.3757   -1.4608   -1.8799 C   0  0  0  0  0  0  0  0  0  0  0  0
   -2.3994   -0.9105   -0.9184 C   0  0  0  0  0  0  0  0  0  0  0  0
   -2.4921   -1.4099    0.3938 C   0  0  0  0  0  0  0  0  0  0  0  0
   -3.4219   -0.8774    1.2901 C   0  0  0  0  0  0  0  0  0  0  0  0
   -4.2672    0.1545    0.8845 C   0  0  0  0  0  0  0  0  0  0  0  0
   -4.2030    0.6384   -0.4260 C   0  0  0  0  0  0  0  0  0  0  0  0
   -3.2582    0.1268   -1.3164 C   0  0  0  0  0  0  0  0  0  0  0  0
   -5.0330    1.6209   -0.9058 O   0  0  0  0  0  0  0  0  0  0  0  0
   -6.1599    1.8127   -0.0417 C   0  0  0  0  0  0  0  0  0  0  0  0
   -5.7127    1.8858    1.4101 C   0  0  0  0  0  0  0  0  0  0  0  0
   -5.1389    0.6402    1.8269 O   0  0  0  0  0  0  0  0  0  0  0  0
    2.7817    0.0449   -0.8986 C   0  0  0  0  0  0  0  0  0  0  0  0
    4.0778    0.3118   -0.4144 C   0  0  0  0  0  0  0  0  0  0  0  0
    5.1175    1.6369   -0.7754 S   0  0  0  0  0  0  0  0  0  0  0  0
    8.0657    1.9435   -0.4875 H   0  0  0  0  0  0  0  0  0  0  0  0
    8.2966    1.0911    1.0496 H   0  0  0  0  0  0  0  0  0  0  0  0
    7.4391    2.6430    1.0254 H   0  0  0  0  0  0  0  0  0  0  0  0
    4.5495   -2.3750    1.6044 H   0  0  0  0  0  0  0  0  0  0  0  0
    2.2785   -2.8786    0.7892 H   0  0  0  0  0  0  0  0  0  0  0  0
    0.4607   -2.3287   -0.4621 H   0  0  0  0  0  0  0  0  0  0  0  0
   -1.2839   -2.5443   -1.7427 H   0  0  0  0  0  0  0  0  0  0  0  0
   -1.7100   -1.3271   -2.9164 H   0  0  0  0  0  0  0  0  0  0  0  0
   -1.8326   -2.2042    0.7381 H   0  0  0  0  0  0  0  0  0  0  0  0
   -3.4763   -1.2538    2.3112 H   0  0  0  0  0  0  0  0  0  0  0  0
   -3.2002    0.5381   -2.3227 H   0  0  0  0  0  0  0  0  0  0  0  0
   -6.6453    2.7483   -0.3348 H   0  0  0  0  0  0  0  0  0  0  0  0
   -6.8690    0.9929   -0.2062 H   0  0  0  0  0  0  0  0  0  0  0  0
   -6.5684    2.0903    2.0611 H   0  0  0  0  0  0  0  0  0  0  0  0
   -4.9713    2.6805    1.5572 H   0  0  0  0  0  0  0  0  0  0  0  0
    2.3266    0.7426   -1.5935 H   0  0  0  0  0  0  0  0  0  0  0  0
  1  2  1  0
  2  3  2  0
  3  4  1  0
  4  5  2  0
  5  6  1  0
  6  7  2  0
  7  8  1  0
  8  9  1  0
  9 10  2  0
  9 11  1  0
 11 12  1  0
 12 13  2  0
 13 14  1  0
 14 15  2  0
 15 16  1  0
 16 17  2  0
 16 18  1  0
 18 19  1  0
 19 20  1  0
 20 21  1  0
  7 22  1  0
 22 23  2  0
 23 24  1  0
 24  2  1  0
 23  4  1  0
 17 12  1  0
 21 15  1  0
  1 25  1  0
  1 26  1  0
  1 27  1  0
  5 28  1  0
  6 29  1  0
  8 30  1  0
 11 31  1  0
 11 32  1  0
 13 33  1  0
 14 34  1  0
 17 35  1  0
 19 36  1  0
 19 37  1  0
 20 38  1  0
 20 39  1  0
 22 40  1  0
M  END
$$$$
