
     RDKit          3D

 41 43  0  0  0  0  0  0  0  0999 V2000
   -8.0025    0.1848    0.0405 C   0  0  0  0  0  0  0  0  0  0  0  0
   -6.5954    0.3265    0.5925 C   0  0  0  0  0  0  0  0  0  0  0  0
   -5.6826   -0.1140   -0.4113 O   0  0  0  0  0  0  0  0  0  0  0  0
   -4.3520   -0.0807   -0.1016 C   0  0  0  0  0  0  0  0  0  0  0  0
   -3.7969    0.3668    1.0950 C   0  0  0  0  0  0  0  0  0  0  0  0
   -2.4076    0.3440    1.2814 C   0  0  0  0  0  0  0  0  0  0  0  0
   -1.5506   -0.1356    0.2798 C   0  0  0  0  0  0  0  0  0  0  0  0
   -0.1185   -0.1520    0.4650 N   0  0  0  0  0  0  0  0  0  0  0  0
    0.6458    0.4457   -0.5549 C   0  0  0  0  0  0  0  0  0  0  0  0
    0.1763    0.9947   -1.5540 O   0  0  0  0  0  0  0  0  0  0  0  0
    2.1231    0.4124   -0.3703 C   0  0  0  0  0  0  0  0  0  0  0  0
    2.8691    0.6562   -1.4652 C   0  0  0  0  0  0  0  0  0  0  0  0
    4.2807    0.5189   -1.5290 C   0  0  0  0  0  0  0  0  0  0  0  0
    5.1933    1.2746   -2.2548 C   0  0  0  0  0  0  0  0  0  0  0  0
    6.4820    0.7347   -2.0310 C   0  0  0  0  0  0  0  0  0  0  0  0
    6.3003   -0.3408   -1.1960 C   0  0  0  0  0  0  0  0  0  0  0  0
    7.2152   -1.3201   -0.5795 C   0  0  0  0  0  0  0  0  0  0  0  0
    4.9809   -0.4894   -0.9081 O   0  0  0  0  0  0  0  0  0  0  0  0
    2.6657    0.1311    0.9685 C   0  0  0  0  0  0  0  0  0  0  0  0
    3.7492    0.5110    1.3906 O   0  0  0  0  0  0  0  0  0  0  0  0
    1.8031   -0.5484    1.7774 N   0  0  0  0  0  0  0  0  0  0  0  0
    0.4531   -0.7283    1.6103 C   0  0  0  0  0  0  0  0  0  0  0  0
   -0.2859   -1.6603    2.8015 S   0  0  0  0  0  0  0  0  0  0  0  0
   -2.1194   -0.5634   -0.9273 C   0  0  0  0  0  0  0  0  0  0  0  0
   -3.5058   -0.5402   -1.1108 C   0  0  0  0  0  0  0  0  0  0  0  0
   -8.7442    0.5114    0.7748 H   0  0  0  0  0  0  0  0  0  0  0  0
   -8.2074   -0.8563   -0.2302 H   0  0  0  0  0  0  0  0  0  0  0  0
   -8.1209    0.7803   -0.8708 H   0  0  0  0  0  0  0  0  0  0  0  0
   -6.5001   -0.2923    1.4923 H   0  0  0  0  0  0  0  0  0  0  0  0
   -6.4117    1.3790    0.8376 H   0  0  0  0  0  0  0  0  0  0  0  0
   -4.4118    0.7475    1.9038 H   0  0  0  0  0  0  0  0  0  0  0  0
   -2.0120    0.7374    2.2148 H   0  0  0  0  0  0  0  0  0  0  0  0
    2.3879    0.9283   -2.4025 H   0  0  0  0  0  0  0  0  0  0  0  0
    4.9495    2.1312   -2.8683 H   0  0  0  0  0  0  0  0  0  0  0  0
    7.4235    1.0867   -2.4282 H   0  0  0  0  0  0  0  0  0  0  0  0
    7.1390   -1.2812    0.5115 H   0  0  0  0  0  0  0  0  0  0  0  0
    6.9680   -2.3343   -0.9077 H   0  0  0  0  0  0  0  0  0  0  0  0
    8.2540   -1.1158   -0.8562 H   0  0  0  0  0  0  0  0  0  0  0  0
    2.1917   -0.8332    2.6682 H   0  0  0  0  0  0  0  0  0  0  0  0
   -1.4980   -0.9341   -1.7391 H   0  0  0  0  0  0  0  0  0  0  0  0
   -3.9281   -0.8831   -2.0525 H   0  0  0  0  0  0  0  0  0  0  0  0
  1  2  1  0
  2  3  1  0
  3  4  1  0
  4  5  2  0
  5  6  1  0
  6  7  2  0
  7  8  1  0
  8  9  1  0
  9 10  2  0
  9 11  1  0
 11 12  2  3
 12 13  1  0
 13 14  2  0
 14 15  1  0
 15 16  2  0
 16 17  1  0
 16 18  1  0
 11 19  1  0
 19 20  2  0
 19 21  1  0
 21 22  1  0
 22 23  2  0
  7 24  1  0
 24 25  2  0
 25  4  1  0
 22  8  1  0
 18 13  1  0
  1 26  1  0
  1 27  1  0
  1 28  1  0
  2 29  1  0
  2 30  1  0
  5 31  1  0
  6 32  1  0
 12 33  1  0
 14 34  1  0
 15 35  1  0
 17 36  1  0
 17 37  1  0
 17 38  1  0
 21 39  1  0
 24 40  1  0
 25 41  1  0
M  END
$$$$
