
     RDKit          3D

 40 42  0  0  0  0  0  0  0  0999 V2000
    5.4237   -0.6720   -3.1219 C   0  0  0  0  0  0  0  0  0  0  0  0
    6.0161   -0.1455   -1.9420 O   0  0  0  0  0  0  0  0  0  0  0  0
    5.1715    0.2215   -0.9302 C   0  0  0  0  0  0  0  0  0  0  0  0
    5.8099    0.7087    0.2102 C   0  0  0  0  0  0  0  0  0  0  0  0
    5.0654    1.1186    1.3140 C   0  0  0  0  0  0  0  0  0  0  0  0
    3.6716    1.0434    1.2854 C   0  0  0  0  0  0  0  0  0  0  0  0
    3.0152    0.5564    0.1545 C   0  0  0  0  0  0  0  0  0  0  0  0
    1.6107    0.4567    0.0447 N   0  0  0  0  0  0  0  0  0  0  0  0
    0.6703    0.7187    1.0254 C   0  0  0  0  0  0  0  0  0  0  0  0
    0.8856    1.0179    2.1933 O   0  0  0  0  0  0  0  0  0  0  0  0
   -0.7448    0.5675    0.5835 C   0  0  0  0  0  0  0  0  0  0  0  0
   -1.1618    0.9756   -0.6912 C   0  0  0  0  0  0  0  0  0  0  0  0
   -2.4973    0.8256   -1.0717 C   0  0  0  0  0  0  0  0  0  0  0  0
   -3.4188    0.2632   -0.1837 C   0  0  0  0  0  0  0  0  0  0  0  0
   -3.0071   -0.1297    1.1015 C   0  0  0  0  0  0  0  0  0  0  0  0
   -1.6733    0.0355    1.4863 C   0  0  0  0  0  0  0  0  0  0  0  0
   -4.0467   -0.6629    2.0507 C   0  0  0  0  0  0  0  0  0  0  0  0
   -4.9852   -1.6452    1.3475 C   0  0  0  0  0  0  0  0  0  0  0  0
   -5.4320   -1.2204   -0.0597 C   0  0  0  0  0  0  0  0  0  0  0  0
   -4.8769    0.1239   -0.5339 C   0  0  0  0  0  0  0  0  0  0  0  0
    3.7755    0.1490   -0.9547 C   0  0  0  0  0  0  0  0  0  0  0  0
    4.8694   -1.5920   -2.9091 H   0  0  0  0  0  0  0  0  0  0  0  0
    4.7841    0.0722   -3.6078 H   0  0  0  0  0  0  0  0  0  0  0  0
    6.2300   -0.9228   -3.8179 H   0  0  0  0  0  0  0  0  0  0  0  0
    6.8950    0.7695    0.2387 H   0  0  0  0  0  0  0  0  0  0  0  0
    5.5681    1.4987    2.1995 H   0  0  0  0  0  0  0  0  0  0  0  0
    3.1272    1.3781    2.1628 H   0  0  0  0  0  0  0  0  0  0  0  0
    1.2634    0.0864   -0.8298 H   0  0  0  0  0  0  0  0  0  0  0  0
   -0.4683    1.4460   -1.3829 H   0  0  0  0  0  0  0  0  0  0  0  0
   -2.8165    1.1615   -2.0556 H   0  0  0  0  0  0  0  0  0  0  0  0
   -1.3508   -0.2476    2.4866 H   0  0  0  0  0  0  0  0  0  0  0  0
   -4.6193    0.1835    2.4498 H   0  0  0  0  0  0  0  0  0  0  0  0
   -3.5757   -1.1649    2.9039 H   0  0  0  0  0  0  0  0  0  0  0  0
   -5.8639   -1.8233    1.9791 H   0  0  0  0  0  0  0  0  0  0  0  0
   -4.4787   -2.6162    1.2629 H   0  0  0  0  0  0  0  0  0  0  0  0
   -6.5271   -1.2007   -0.1124 H   0  0  0  0  0  0  0  0  0  0  0  0
   -5.1145   -2.0001   -0.7654 H   0  0  0  0  0  0  0  0  0  0  0  0
   -5.4283    0.9464   -0.0618 H   0  0  0  0  0  0  0  0  0  0  0  0
   -5.0280    0.2127   -1.6160 H   0  0  0  0  0  0  0  0  0  0  0  0
    3.2623   -0.2259   -1.8326 H   0  0  0  0  0  0  0  0  0  0  0  0
  1  2  1  0
  2  3  1  0
  3  4  2  0
  4  5  1  0
  5  6  2  0
  6  7  1  0
  7  8  1  0
  8  9  1  0
  9 10  2  0
  9 11  1  0
 11 12  2  0
 12 13  1  0
 13 14  2  0
 14 15  1  0
 15 16  2  0
 15 17  1  0
 17 18  1  0
 18 19  1  0
 19 20  1  0
  7 21  2  0
 21  3  1  0
 16 11  1  0
 20 14  1  0
  1 22  1  0
  1 23  1  0
  1 24  1  0
  4 25  1  0
  5 26  1  0
  6 27  1  0
  8 28  1  0
 12 29  1  0
 13 30  1  0
 16 31  1  0
 17 32  1  0
 17 33  1  0
 18 34  1  0
 18 35  1  0
 19 36  1  0
 19 37  1  0
 20 38  1  0
 20 39  1  0
 21 40  1  0
M  END
$$$$
