
     RDKit          3D

 55 57  0  0  0  0  0  0  0  0999 V2000
   -5.6818    0.1110    4.0079 C   0  0  0  0  0  0  0  0  0  0  0  0
   -6.2240   -0.5315    2.8638 O   0  0  0  0  0  0  0  0  0  0  0  0
   -5.3472   -0.8937    1.8712 C   0  0  0  0  0  0  0  0  0  0  0  0
   -3.9563   -0.8981    2.0134 C   0  0  0  0  0  0  0  0  0  0  0  0
   -3.1389   -1.2928    0.9525 C   0  0  0  0  0  0  0  0  0  0  0  0
   -3.7010   -1.6829   -0.2645 C   0  0  0  0  0  0  0  0  0  0  0  0
   -2.8587   -2.1420   -1.3732 C   0  0  0  0  0  0  0  0  0  0  0  0
   -1.9802   -1.4069   -2.0703 C   0  0  0  0  0  0  0  0  0  0  0  0
   -1.0193   -2.0816   -3.3353 S   0  0  0  0  0  0  0  0  0  0  0  0
   -0.1796   -0.5692   -3.6446 C   0  0  0  0  0  0  0  0  0  0  0  0
    1.0087   -0.4488   -4.8103 S   0  0  0  0  0  0  0  0  0  0  0  0
   -0.6493    0.4097   -2.7951 N   0  0  0  0  0  0  0  0  0  0  0  0
   -0.1899    1.8020   -2.7741 C   0  0  0  0  0  0  0  0  0  0  0  0
    0.7157    2.1201   -1.5785 C   0  0  0  0  0  0  0  0  0  0  0  0
    2.0583    1.3905   -1.6269 C   0  0  0  0  0  0  0  0  0  0  0  0
    2.9497    1.7434   -0.4453 C   0  0  0  0  0  0  0  0  0  0  0  0
    2.6279    2.5869    0.3825 O   0  0  0  0  0  0  0  0  0  0  0  0
    4.1197    1.0001   -0.4576 N   0  0  0  0  0  0  0  0  0  0  0  0
    5.1518    1.0075    0.5043 C   0  0  0  0  0  0  0  0  0  0  0  0
    5.1352    1.7897    1.6606 C   0  0  0  0  0  0  0  0  0  0  0  0
    6.1885    1.7273    2.5781 C   0  0  0  0  0  0  0  0  0  0  0  0
    7.2681    0.8766    2.3495 C   0  0  0  0  0  0  0  0  0  0  0  0
    7.2993    0.0895    1.1963 C   0  0  0  0  0  0  0  0  0  0  0  0
    8.4562   -0.8138    0.9959 C   0  0  0  0  0  0  0  0  0  0  0  0
    9.3989   -0.9459    1.7540 O   0  0  0  0  0  0  0  0  0  0  0  0
    8.3753   -1.5190   -0.1482 O   0  0  0  0  0  0  0  0  0  0  0  0
    6.2441    0.1600    0.2746 C   0  0  0  0  0  0  0  0  0  0  0  0
   -1.6653    0.0427   -1.9223 C   0  0  0  0  0  0  0  0  0  0  0  0
   -2.2307    0.8018   -1.1500 O   0  0  0  0  0  0  0  0  0  0  0  0
   -5.0938   -1.6942   -0.4078 C   0  0  0  0  0  0  0  0  0  0  0  0
   -5.9222   -1.2996    0.6505 C   0  0  0  0  0  0  0  0  0  0  0  0
   -7.2946   -1.2799    0.5958 O   0  0  0  0  0  0  0  0  0  0  0  0
   -7.9110   -1.5973   -0.6432 C   0  0  0  0  0  0  0  0  0  0  0  0
   -5.1105    1.0014    3.7327 H   0  0  0  0  0  0  0  0  0  0  0  0
   -6.5162    0.4321    4.6351 H   0  0  0  0  0  0  0  0  0  0  0  0
   -5.0731   -0.5823    4.5970 H   0  0  0  0  0  0  0  0  0  0  0  0
   -3.4753   -0.6053    2.9400 H   0  0  0  0  0  0  0  0  0  0  0  0
   -2.0602   -1.2872    1.0894 H   0  0  0  0  0  0  0  0  0  0  0  0
   -2.9977   -3.1937   -1.6175 H   0  0  0  0  0  0  0  0  0  0  0  0
    0.3176    2.0591   -3.7073 H   0  0  0  0  0  0  0  0  0  0  0  0
   -1.0780    2.4432   -2.7155 H   0  0  0  0  0  0  0  0  0  0  0  0
    0.2030    1.8773   -0.6394 H   0  0  0  0  0  0  0  0  0  0  0  0
    0.8953    3.2030   -1.5619 H   0  0  0  0  0  0  0  0  0  0  0  0
    1.8978    0.3068   -1.6115 H   0  0  0  0  0  0  0  0  0  0  0  0
    2.5932    1.6548   -2.5464 H   0  0  0  0  0  0  0  0  0  0  0  0
    4.2541    0.3773   -1.2451 H   0  0  0  0  0  0  0  0  0  0  0  0
    4.3127    2.4624    1.8842 H   0  0  0  0  0  0  0  0  0  0  0  0
    6.1590    2.3423    3.4757 H   0  0  0  0  0  0  0  0  0  0  0  0
    8.0799    0.8303    3.0727 H   0  0  0  0  0  0  0  0  0  0  0  0
    9.1845   -2.0712   -0.1354 H   0  0  0  0  0  0  0  0  0  0  0  0
    6.2775   -0.4558   -0.6207 H   0  0  0  0  0  0  0  0  0  0  0  0
   -5.5134   -2.0141   -1.3558 H   0  0  0  0  0  0  0  0  0  0  0  0
   -7.6009   -0.9024   -1.4297 H   0  0  0  0  0  0  0  0  0  0  0  0
   -8.9924   -1.4921   -0.5157 H   0  0  0  0  0  0  0  0  0  0  0  0
   -7.7106   -2.6351   -0.9284 H   0  0  0  0  0  0  0  0  0  0  0  0
  1  2  1  0
  2  3  1  0
  3  4  2  0
  4  5  1  0
  5  6  2  0
  6  7  1  0
  7  8  2  3
  8  9  1  0
  9 10  1  0
 10 11  2  0
 10 12  1  0
 12 13  1  0
 13 14  1  0
 14 15  1  0
 15 16  1  0
 16 17  2  0
 16 18  1  0
 18 19  1  0
 19 20  2  0
 20 21  1  0
 21 22  2  0
 22 23  1  0
 23 24  1  0
 24 25  2  0
 24 26  1  0
 23 27  2  0
 12 28  1  0
 28 29  2  0
  6 30  1  0
 30 31  2  0
 31 32  1  0
 32 33  1  0
 31  3  1  0
 28  8  1  0
 27 19  1  0
  1 34  1  0
  1 35  1  0
  1 36  1  0
  4 37  1  0
  5 38  1  0
  7 39  1  0
 13 40  1  0
 13 41  1  0
 14 42  1  0
 14 43  1  0
 15 44  1  0
 15 45  1  0
 18 46  1  0
 20 47  1  0
 21 48  1  0
 22 49  1  0
 26 50  1  0
 27 51  1  0
 30 52  1  0
 33 53  1  0
 33 54  1  0
 33 55  1  0
M  END
$$$$
