
     RDKit          3D

 49 50  0  0  0  0  0  0  0  0999 V2000
   -5.3308    1.7135    4.0396 C   0  0  0  0  0  0  0  0  0  0  0  0
   -5.8524    1.8047    2.7207 O   0  0  0  0  0  0  0  0  0  0  0  0
   -5.0342    1.4365    1.6813 C   0  0  0  0  0  0  0  0  0  0  0  0
   -3.7223    0.9685    1.8317 C   0  0  0  0  0  0  0  0  0  0  0  0
   -2.9566    0.6032    0.7159 C   0  0  0  0  0  0  0  0  0  0  0  0
   -1.5742    0.1476    0.9231 C   0  0  0  0  0  0  0  0  0  0  0  0
   -0.9938   -0.8237    0.2007 C   0  0  0  0  0  0  0  0  0  0  0  0
    0.3926   -1.2906    0.4012 C   0  0  0  0  0  0  0  0  0  0  0  0
    0.9114   -2.1215   -0.3323 O   0  0  0  0  0  0  0  0  0  0  0  0
    0.9848   -0.6944    1.4607 O   0  0  0  0  0  0  0  0  0  0  0  0
    2.3276   -1.1056    1.7200 C   0  0  0  0  0  0  0  0  0  0  0  0
    3.3466   -0.4654    0.7750 C   0  0  0  0  0  0  0  0  0  0  0  0
    3.9781    0.5424    1.0787 O   0  0  0  0  0  0  0  0  0  0  0  0
    3.4937   -1.1215   -0.4289 N   0  0  0  0  0  0  0  0  0  0  0  0
    4.3007   -0.5730   -1.5028 C   0  0  0  0  0  0  0  0  0  0  0  0
    5.8169   -0.5809   -1.2409 C   0  0  0  0  0  0  0  0  0  0  0  0
    6.3912   -1.9748   -0.9989 C   0  0  0  0  0  0  0  0  0  0  0  0
    6.8125   -2.4097   -2.3799 C   0  0  0  0  0  0  0  0  0  0  0  0
    7.3038   -1.1084   -2.9727 C   0  0  0  0  0  0  0  0  0  0  0  0
    6.4787   -0.0732   -2.4227 O   0  0  0  0  0  0  0  0  0  0  0  0
   -3.5135    0.7385   -0.5595 C   0  0  0  0  0  0  0  0  0  0  0  0
   -4.8223    1.2055   -0.7221 C   0  0  0  0  0  0  0  0  0  0  0  0
   -5.5897    1.5555    0.3920 C   0  0  0  0  0  0  0  0  0  0  0  0
   -6.8795    2.0218    0.3373 O   0  0  0  0  0  0  0  0  0  0  0  0
   -7.4620    2.2328   -0.9475 C   0  0  0  0  0  0  0  0  0  0  0  0
   -8.8218    2.7786   -0.8017 C   0  0  0  0  0  0  0  0  0  0  0  0
   -9.8972    3.2109   -0.7279 N   0  0  0  0  0  0  0  0  0  0  0  0
   -4.4671    2.3757    4.1704 H   0  0  0  0  0  0  0  0  0  0  0  0
   -6.1116    2.0453    4.7309 H   0  0  0  0  0  0  0  0  0  0  0  0
   -5.0792    0.6775    4.2944 H   0  0  0  0  0  0  0  0  0  0  0  0
   -3.2773    0.8736    2.8173 H   0  0  0  0  0  0  0  0  0  0  0  0
   -1.0346    0.6440    1.7280 H   0  0  0  0  0  0  0  0  0  0  0  0
   -1.5186   -1.3428   -0.5942 H   0  0  0  0  0  0  0  0  0  0  0  0
    2.5768   -0.7966    2.7414 H   0  0  0  0  0  0  0  0  0  0  0  0
    2.4182   -2.1989    1.6957 H   0  0  0  0  0  0  0  0  0  0  0  0
    2.7432   -1.7625   -0.6893 H   0  0  0  0  0  0  0  0  0  0  0  0
    3.9668    0.4543   -1.6943 H   0  0  0  0  0  0  0  0  0  0  0  0
    4.0679   -1.1454   -2.4087 H   0  0  0  0  0  0  0  0  0  0  0  0
    6.0596    0.0819   -0.4028 H   0  0  0  0  0  0  0  0  0  0  0  0
    5.7023   -2.6732   -0.5164 H   0  0  0  0  0  0  0  0  0  0  0  0
    7.2813   -1.8945   -0.3593 H   0  0  0  0  0  0  0  0  0  0  0  0
    7.5749   -3.1943   -2.3797 H   0  0  0  0  0  0  0  0  0  0  0  0
    5.9421   -2.7752   -2.9388 H   0  0  0  0  0  0  0  0  0  0  0  0
    7.2385   -1.0908   -4.0645 H   0  0  0  0  0  0  0  0  0  0  0  0
    8.3402   -0.9041   -2.6789 H   0  0  0  0  0  0  0  0  0  0  0  0
   -2.9341    0.4958   -1.4478 H   0  0  0  0  0  0  0  0  0  0  0  0
   -5.2015    1.2862   -1.7353 H   0  0  0  0  0  0  0  0  0  0  0  0
   -6.8565    2.9452   -1.5204 H   0  0  0  0  0  0  0  0  0  0  0  0
   -7.5196    1.2814   -1.4895 H   0  0  0  0  0  0  0  0  0  0  0  0
  1  2  1  0
  2  3  1  0
  3  4  2  0
  4  5  1  0
  5  6  1  0
  6  7  2  3
  7  8  1  0
  8  9  2  0
  8 10  1  0
 10 11  1  0
 11 12  1  0
 12 13  2  0
 12 14  1  0
 14 15  1  0
 15 16  1  0
 16 17  1  0
 17 18  1  0
 18 19  1  0
 19 20  1  0
  5 21  2  0
 21 22  1  0
 22 23  2  0
 23 24  1  0
 24 25  1  0
 25 26  1  0
 26 27  3  0
 23  3  1  0
 20 16  1  0
  1 28  1  0
  1 29  1  0
  1 30  1  0
  4 31  1  0
  6 32  1  0
  7 33  1  0
 11 34  1  0
 11 35  1  0
 14 36  1  0
 15 37  1  0
 15 38  1  0
 16 39  1  0
 17 40  1  0
 17 41  1  0
 18 42  1  0
 18 43  1  0
 19 44  1  0
 19 45  1  0
 21 46  1  0
 22 47  1  0
 25 48  1  0
 25 49  1  0
M  END
$$$$
