
     RDKit          3D

 59 62  0  0  0  0  0  0  0  0999 V2000
   -6.9380    2.0489    1.4155 C   0  0  0  0  0  0  0  0  0  0  0  0
   -5.5758    2.3012    0.7924 C   0  0  0  0  0  0  0  0  0  0  0  0
   -5.1163    1.1834   -0.0096 N   0  0  0  0  0  0  0  0  0  0  0  0
   -4.2632    0.1634    0.3693 C   0  0  0  0  0  0  0  0  0  0  0  0
   -3.7133    0.0149    1.7087 C   0  0  0  0  0  0  0  0  0  0  0  0
   -4.4067    0.2121    2.7066 O   0  0  0  0  0  0  0  0  0  0  0  0
   -2.3772   -0.3765    1.8380 N   0  0  0  0  0  0  0  0  0  0  0  0
   -1.9056   -0.6820    3.1850 C   0  0  0  0  0  0  0  0  0  0  0  0
   -0.4405   -1.1158    3.2288 C   0  0  0  0  0  0  0  0  0  0  0  0
   -0.0977   -2.0463    2.0666 C   0  0  0  0  0  0  0  0  0  0  0  0
   -0.4726   -1.4420    0.6991 C   0  0  0  0  0  0  0  0  0  0  0  0
    0.7443   -1.1356   -0.1608 C   0  0  0  0  0  0  0  0  0  0  0  0
    0.8628   -1.5989   -1.2917 O   0  0  0  0  0  0  0  0  0  0  0  0
    1.6746   -0.2887    0.3993 N   0  0  0  0  0  0  0  0  0  0  0  0
    2.8986    0.0600   -0.3014 C   0  0  0  0  0  0  0  0  0  0  0  0
    3.9488   -1.0502   -0.2183 C   0  0  0  0  0  0  0  0  0  0  0  0
    5.2338   -0.6522   -0.8986 C   0  0  0  0  0  0  0  0  0  0  0  0
    6.2914   -0.1021   -0.1648 C   0  0  0  0  0  0  0  0  0  0  0  0
    7.4718    0.2833   -0.8049 C   0  0  0  0  0  0  0  0  0  0  0  0
    7.6092    0.1386   -2.1900 C   0  0  0  0  0  0  0  0  0  0  0  0
    8.8895    0.5205   -2.8713 C   0  0  0  0  0  0  0  0  0  0  0  0
    6.5563   -0.4209   -2.9219 C   0  0  0  0  0  0  0  0  0  0  0  0
    5.3759   -0.8068   -2.2830 C   0  0  0  0  0  0  0  0  0  0  0  0
   -1.3448   -0.1902    0.8172 C   0  0  0  0  0  0  0  0  0  0  0  0
   -4.1299   -0.7017   -0.7110 C   0  0  0  0  0  0  0  0  0  0  0  0
   -4.8807   -0.1399   -1.7782 C   0  0  0  0  0  0  0  0  0  0  0  0
   -5.2656   -0.4789   -3.4315 S   0  0  0  0  0  0  0  0  0  0  0  0
   -6.2214    0.9495   -3.4973 C   0  0  0  0  0  0  0  0  0  0  0  0
   -6.2583    1.6599   -2.3163 C   0  0  0  0  0  0  0  0  0  0  0  0
   -5.4686    1.0039   -1.3309 C   0  0  0  0  0  0  0  0  0  0  0  0
   -6.9244    1.1635    2.0590 H   0  0  0  0  0  0  0  0  0  0  0  0
   -7.2420    2.9076    2.0219 H   0  0  0  0  0  0  0  0  0  0  0  0
   -7.7015    1.8886    0.6470 H   0  0  0  0  0  0  0  0  0  0  0  0
   -4.8271    2.5057    1.5640 H   0  0  0  0  0  0  0  0  0  0  0  0
   -5.6099    3.1848    0.1448 H   0  0  0  0  0  0  0  0  0  0  0  0
   -2.0488    0.2020    3.8177 H   0  0  0  0  0  0  0  0  0  0  0  0
   -2.5462   -1.4771    3.5859 H   0  0  0  0  0  0  0  0  0  0  0  0
   -0.2281   -1.6064    4.1853 H   0  0  0  0  0  0  0  0  0  0  0  0
    0.2034   -0.2291    3.1846 H   0  0  0  0  0  0  0  0  0  0  0  0
   -0.6611   -2.9795    2.1997 H   0  0  0  0  0  0  0  0  0  0  0  0
    0.9614   -2.3252    2.1116 H   0  0  0  0  0  0  0  0  0  0  0  0
   -1.0431   -2.2104    0.1584 H   0  0  0  0  0  0  0  0  0  0  0  0
    1.6040   -0.0369    1.3755 H   0  0  0  0  0  0  0  0  0  0  0  0
    3.2732    0.9835    0.1543 H   0  0  0  0  0  0  0  0  0  0  0  0
    2.6516    0.2810   -1.3466 H   0  0  0  0  0  0  0  0  0  0  0  0
    3.5699   -1.9756   -0.6702 H   0  0  0  0  0  0  0  0  0  0  0  0
    4.1468   -1.2987    0.8325 H   0  0  0  0  0  0  0  0  0  0  0  0
    6.2078    0.0266    0.9117 H   0  0  0  0  0  0  0  0  0  0  0  0
    8.2854    0.6984   -0.2143 H   0  0  0  0  0  0  0  0  0  0  0  0
    9.3699    1.3599   -2.3575 H   0  0  0  0  0  0  0  0  0  0  0  0
    9.5775   -0.3305   -2.8790 H   0  0  0  0  0  0  0  0  0  0  0  0
    8.7042    0.8354   -3.9036 H   0  0  0  0  0  0  0  0  0  0  0  0
    6.6469   -0.5600   -3.9969 H   0  0  0  0  0  0  0  0  0  0  0  0
    4.5667   -1.2332   -2.8734 H   0  0  0  0  0  0  0  0  0  0  0  0
   -1.7571    0.0809   -0.1566 H   0  0  0  0  0  0  0  0  0  0  0  0
   -0.7580    0.6849    1.1260 H   0  0  0  0  0  0  0  0  0  0  0  0
   -3.5670   -1.6251   -0.7326 H   0  0  0  0  0  0  0  0  0  0  0  0
   -6.7217    1.1964   -4.4238 H   0  0  0  0  0  0  0  0  0  0  0  0
   -6.8134    2.5779   -2.1755 H   0  0  0  0  0  0  0  0  0  0  0  0
  1  2  1  0
  2  3  1  0
  3  4  1  0
  4  5  1  0
  5  6  2  0
  5  7  1  0
  7  8  1  0
  8  9  1  0
  9 10  1  0
 10 11  1  0
 11 12  1  0
 12 13  2  0
 12 14  1  0
 14 15  1  0
 15 16  1  0
 16 17  1  0
 17 18  2  0
 18 19  1  0
 19 20  2  0
 20 21  1  0
 20 22  1  0
 22 23  2  0
 11 24  1  0
  4 25  2  0
 25 26  1  0
 26 27  1  0
 27 28  1  0
 28 29  2  0
 29 30  1  0
 30  3  1  0
 24  7  1  0
 30 26  2  0
 23 17  1  0
  1 31  1  0
  1 32  1  0
  1 33  1  0
  2 34  1  0
  2 35  1  0
  8 36  1  0
  8 37  1  0
  9 38  1  0
  9 39  1  0
 10 40  1  0
 10 41  1  0
 11 42  1  0
 14 43  1  0
 15 44  1  0
 15 45  1  0
 16 46  1  0
 16 47  1  0
 18 48  1  0
 19 49  1  0
 21 50  1  0
 21 51  1  0
 21 52  1  0
 22 53  1  0
 23 54  1  0
 24 55  1  0
 24 56  1  0
 25 57  1  0
 28 58  1  0
 29 59  1  0
M  END
$$$$
