
     RDKit          3D

 62 66  0  0  0  0  0  0  0  0999 V2000
   -4.3559   -5.0161   -0.0767 C   0  0  0  0  0  0  0  0  0  0  0  0
   -3.5035   -4.8054   -1.1952 O   0  0  0  0  0  0  0  0  0  0  0  0
   -3.1382   -3.5136   -1.4600 C   0  0  0  0  0  0  0  0  0  0  0  0
   -2.3510   -3.3538   -2.6026 C   0  0  0  0  0  0  0  0  0  0  0  0
   -1.9060   -2.0899   -2.9881 C   0  0  0  0  0  0  0  0  0  0  0  0
   -2.2479   -0.9725   -2.2282 C   0  0  0  0  0  0  0  0  0  0  0  0
   -3.0352   -1.1122   -1.0778 C   0  0  0  0  0  0  0  0  0  0  0  0
   -3.3752    0.0666   -0.2682 C   0  0  0  0  0  0  0  0  0  0  0  0
   -5.0250    0.4960   -0.1111 S   0  0  0  0  0  0  0  0  0  0  0  0
   -4.6722    1.8656    0.8608 C   0  0  0  0  0  0  0  0  0  0  0  0
   -5.5989    2.7729    1.4094 C   0  0  0  0  0  0  0  0  0  0  0  0
   -5.1351    3.8394    2.1879 C   0  0  0  0  0  0  0  0  0  0  0  0
   -3.7773    4.0050    2.4225 C   0  0  0  0  0  0  0  0  0  0  0  0
   -3.2043    5.0008    3.1654 O   0  0  0  0  0  0  0  0  0  0  0  0
   -4.0806    5.9573    3.7478 C   0  0  0  0  0  0  0  0  0  0  0  0
   -2.8669    3.0956    1.8708 C   0  0  0  0  0  0  0  0  0  0  0  0
   -3.3004    2.0053    1.0706 C   0  0  0  0  0  0  0  0  0  0  0  0
   -2.5532    0.9583    0.4060 C   0  0  0  0  0  0  0  0  0  0  0  0
   -1.1001    0.8124    0.4145 C   0  0  0  0  0  0  0  0  0  0  0  0
   -0.2979    1.7710   -0.2112 C   0  0  0  0  0  0  0  0  0  0  0  0
    1.0915    1.6281   -0.2089 C   0  0  0  0  0  0  0  0  0  0  0  0
    1.6954    0.5330    0.4140 C   0  0  0  0  0  0  0  0  0  0  0  0
    3.0600    0.5172    0.3387 O   0  0  0  0  0  0  0  0  0  0  0  0
    3.7294   -0.6320    0.8607 C   0  0  0  0  0  0  0  0  0  0  0  0
    5.2462   -0.4977    0.6256 C   0  0  0  0  0  0  0  0  0  0  0  0
    5.6527   -0.5286   -0.7869 N   0  0  0  0  0  0  0  0  0  0  0  0
    5.3797   -1.7990   -1.4579 C   0  0  0  0  0  0  0  0  0  0  0  0
    6.2599   -1.7483   -2.7004 C   0  0  0  0  0  0  0  0  0  0  0  0
    7.3213   -0.6961   -2.4017 C   0  0  0  0  0  0  0  0  0  0  0  0
    7.0898   -0.3089   -0.9513 C   0  0  0  0  0  0  0  0  0  0  0  0
    0.8959   -0.4189    1.0472 C   0  0  0  0  0  0  0  0  0  0  0  0
   -0.4968   -0.2790    1.0490 C   0  0  0  0  0  0  0  0  0  0  0  0
   -3.4757   -2.3923   -0.6989 C   0  0  0  0  0  0  0  0  0  0  0  0
   -4.5775   -6.0863   -0.0224 H   0  0  0  0  0  0  0  0  0  0  0  0
   -5.3061   -4.4852   -0.1971 H   0  0  0  0  0  0  0  0  0  0  0  0
   -3.8583   -4.7317    0.8563 H   0  0  0  0  0  0  0  0  0  0  0  0
   -2.0827   -4.2235   -3.1974 H   0  0  0  0  0  0  0  0  0  0  0  0
   -1.2926   -1.9764   -3.8779 H   0  0  0  0  0  0  0  0  0  0  0  0
   -1.8946    0.0085   -2.5380 H   0  0  0  0  0  0  0  0  0  0  0  0
   -6.6637    2.6480    1.2318 H   0  0  0  0  0  0  0  0  0  0  0  0
   -5.8731    4.5218    2.5969 H   0  0  0  0  0  0  0  0  0  0  0  0
   -4.7639    5.4841    4.4607 H   0  0  0  0  0  0  0  0  0  0  0  0
   -3.4696    6.6775    4.3005 H   0  0  0  0  0  0  0  0  0  0  0  0
   -4.6308    6.5088    2.9782 H   0  0  0  0  0  0  0  0  0  0  0  0
   -1.8047    3.2300    2.0642 H   0  0  0  0  0  0  0  0  0  0  0  0
   -0.7445    2.6285   -0.7087 H   0  0  0  0  0  0  0  0  0  0  0  0
    1.7112    2.3738   -0.7014 H   0  0  0  0  0  0  0  0  0  0  0  0
    3.5602   -0.6849    1.9434 H   0  0  0  0  0  0  0  0  0  0  0  0
    3.3512   -1.5491    0.3945 H   0  0  0  0  0  0  0  0  0  0  0  0
    5.7598   -1.2892    1.1859 H   0  0  0  0  0  0  0  0  0  0  0  0
    5.5631    0.4640    1.0489 H   0  0  0  0  0  0  0  0  0  0  0  0
    4.3251   -1.9081   -1.7292 H   0  0  0  0  0  0  0  0  0  0  0  0
    5.6706   -2.6551   -0.8360 H   0  0  0  0  0  0  0  0  0  0  0  0
    5.6808   -1.4552   -3.5836 H   0  0  0  0  0  0  0  0  0  0  0  0
    6.7107   -2.7253   -2.9033 H   0  0  0  0  0  0  0  0  0  0  0  0
    7.1776    0.1701   -3.0589 H   0  0  0  0  0  0  0  0  0  0  0  0
    8.3339   -1.0776   -2.5661 H   0  0  0  0  0  0  0  0  0  0  0  0
    7.3746    0.7310   -0.7629 H   0  0  0  0  0  0  0  0  0  0  0  0
    7.6777   -0.9600   -0.2918 H   0  0  0  0  0  0  0  0  0  0  0  0
    1.3205   -1.2810    1.5497 H   0  0  0  0  0  0  0  0  0  0  0  0
   -1.1050   -1.0303    1.5474 H   0  0  0  0  0  0  0  0  0  0  0  0
   -4.0744   -2.4873    0.2011 H   0  0  0  0  0  0  0  0  0  0  0  0
  1  2  1  0
  2  3  1  0
  3  4  2  0
  4  5  1  0
  5  6  2  0
  6  7  1  0
  7  8  1  0
  8  9  1  0
  9 10  1  0
 10 11  2  0
 11 12  1  0
 12 13  2  0
 13 14  1  0
 14 15  1  0
 13 16  1  0
 16 17  2  0
 17 18  1  0
 18 19  1  0
 19 20  2  0
 20 21  1  0
 21 22  2  0
 22 23  1  0
 23 24  1  0
 24 25  1  0
 25 26  1  0
 26 27  1  0
 27 28  1  0
 28 29  1  0
 29 30  1  0
 22 31  1  0
 31 32  2  0
  7 33  2  0
 33  3  1  0
 18  8  2  0
 32 19  1  0
 17 10  1  0
 30 26  1  0
  1 34  1  0
  1 35  1  0
  1 36  1  0
  4 37  1  0
  5 38  1  0
  6 39  1  0
 11 40  1  0
 12 41  1  0
 15 42  1  0
 15 43  1  0
 15 44  1  0
 16 45  1  0
 20 46  1  0
 21 47  1  0
 24 48  1  0
 24 49  1  0
 25 50  1  0
 25 51  1  0
 27 52  1  0
 27 53  1  0
 28 54  1  0
 28 55  1  0
 29 56  1  0
 29 57  1  0
 30 58  1  0
 30 59  1  0
 31 60  1  0
 32 61  1  0
 33 62  1  0
M  END
$$$$
