
     RDKit          3D

 44 46  0  0  0  0  0  0  0  0999 V2000
    7.7455    1.1968    1.2792 C   0  0  0  0  0  0  0  0  0  0  0  0
    6.6272    1.5266    0.4639 O   0  0  0  0  0  0  0  0  0  0  0  0
    5.7073    0.5399    0.2437 C   0  0  0  0  0  0  0  0  0  0  0  0
    4.6207    0.9214   -0.5457 C   0  0  0  0  0  0  0  0  0  0  0  0
    3.6003    0.0153   -0.8555 C   0  0  0  0  0  0  0  0  0  0  0  0
    3.6605   -1.2973   -0.3839 C   0  0  0  0  0  0  0  0  0  0  0  0
    2.7019   -2.2485   -0.6166 O   0  0  0  0  0  0  0  0  0  0  0  0
    1.8488   -2.0901   -1.7523 C   0  0  0  0  0  0  0  0  0  0  0  0
    0.6007   -1.4200   -1.3250 C   0  0  0  0  0  0  0  0  0  0  0  0
   -0.1535   -1.4186   -0.1780 C   0  0  0  0  0  0  0  0  0  0  0  0
   -1.2395   -0.5451   -0.4541 C   0  0  0  0  0  0  0  0  0  0  0  0
   -2.3054   -0.1648    0.4865 C   0  0  0  0  0  0  0  0  0  0  0  0
   -2.1194   -0.2835    1.6998 O   0  0  0  0  0  0  0  0  0  0  0  0
   -3.5141    0.3633   -0.0068 N   0  0  0  0  0  0  0  0  0  0  0  0
   -4.0548   -0.0260   -1.3072 C   0  0  0  0  0  0  0  0  0  0  0  0
   -4.4064    1.0046    0.9802 C   0  0  0  0  0  0  0  0  0  0  0  0
   -5.3209    2.0787    0.4252 C   0  0  0  0  0  0  0  0  0  0  0  0
   -6.6246    1.3589    0.1461 C   0  0  0  0  0  0  0  0  0  0  0  0
   -6.6237    0.1314    0.8842 O   0  0  0  0  0  0  0  0  0  0  0  0
   -5.3947    0.0367    1.6236 C   0  0  0  0  0  0  0  0  0  0  0  0
   -1.1156   -0.0299   -1.6911 N   0  0  0  0  0  0  0  0  0  0  0  0
    0.0194   -0.5963   -2.2355 O   0  0  0  0  0  0  0  0  0  0  0  0
    4.7474   -1.6717    0.4223 C   0  0  0  0  0  0  0  0  0  0  0  0
    4.8786   -3.2774    1.0571 Cl  0  0  0  0  0  0  0  0  0  0  0  0
    5.7675   -0.7631    0.7310 C   0  0  0  0  0  0  0  0  0  0  0  0
    8.3470    0.4046    0.8213 H   0  0  0  0  0  0  0  0  0  0  0  0
    8.3747    2.0884    1.3601 H   0  0  0  0  0  0  0  0  0  0  0  0
    7.4287    0.9193    2.2900 H   0  0  0  0  0  0  0  0  0  0  0  0
    4.5616    1.9422   -0.9186 H   0  0  0  0  0  0  0  0  0  0  0  0
    2.7677    0.3793   -1.4493 H   0  0  0  0  0  0  0  0  0  0  0  0
    1.6019   -3.0969   -2.1073 H   0  0  0  0  0  0  0  0  0  0  0  0
    2.3494   -1.5808   -2.5839 H   0  0  0  0  0  0  0  0  0  0  0  0
    0.0459   -1.9555    0.7385 H   0  0  0  0  0  0  0  0  0  0  0  0
   -3.4292   -0.7521   -1.8274 H   0  0  0  0  0  0  0  0  0  0  0  0
   -5.0217   -0.5149   -1.1650 H   0  0  0  0  0  0  0  0  0  0  0  0
   -4.1759    0.8666   -1.9257 H   0  0  0  0  0  0  0  0  0  0  0  0
   -3.7631    1.4397    1.7545 H   0  0  0  0  0  0  0  0  0  0  0  0
   -4.9312    2.6110   -0.4471 H   0  0  0  0  0  0  0  0  0  0  0  0
   -5.5023    2.8309    1.2037 H   0  0  0  0  0  0  0  0  0  0  0  0
   -7.4917    1.9566    0.4435 H   0  0  0  0  0  0  0  0  0  0  0  0
   -6.7339    1.1176   -0.9157 H   0  0  0  0  0  0  0  0  0  0  0  0
   -5.6163    0.3395    2.6530 H   0  0  0  0  0  0  0  0  0  0  0  0
   -5.0557   -1.0033    1.6323 H   0  0  0  0  0  0  0  0  0  0  0  0
    6.5908   -1.0989    1.3519 H   0  0  0  0  0  0  0  0  0  0  0  0
  1  2  1  0
  2  3  1  0
  3  4  2  0
  4  5  1  0
  5  6  2  0
  6  7  1  0
  7  8  1  0
  8  9  1  0
  9 10  2  0
 10 11  1  0
 11 12  1  0
 12 13  2  0
 12 14  1  0
 14 15  1  0
 14 16  1  0
 16 17  1  0
 17 18  1  0
 18 19  1  0
 19 20  1  0
 11 21  2  0
 21 22  1  0
  6 23  1  0
 23 24  1  0
 23 25  2  0
 25  3  1  0
 22  9  1  0
 20 16  1  0
  1 26  1  0
  1 27  1  0
  1 28  1  0
  4 29  1  0
  5 30  1  0
  8 31  1  0
  8 32  1  0
 10 33  1  0
 15 34  1  0
 15 35  1  0
 15 36  1  0
 16 37  1  0
 17 38  1  0
 17 39  1  0
 18 40  1  0
 18 41  1  0
 20 42  1  0
 20 43  1  0
 25 44  1  0
M  END
$$$$
