
     RDKit          3D

 42 42  0  0  0  0  0  0  0  0999 V2000
   -3.2073   -2.9054    2.3930 C   0  0  0  0  0  0  0  0  0  0  0  0
   -1.8887   -2.2344    2.7454 C   0  0  0  0  0  0  0  0  0  0  0  0
   -1.5588   -1.0267    1.8618 C   0  0  0  0  0  0  0  0  0  0  0  0
   -1.3157   -1.4039    0.3946 C   0  0  0  0  0  0  0  0  0  0  0  0
   -0.8560   -0.2477   -0.5247 C   0  0  0  0  0  0  0  0  0  0  0  0
   -1.9486    0.7996   -0.6478 C   0  0  0  0  0  0  0  0  0  0  0  0
   -2.8448    0.8069   -1.4772 O   0  0  0  0  0  0  0  0  0  0  0  0
   -1.8280    1.7287    0.3492 O   0  0  0  0  0  0  0  0  0  0  0  0
   -2.8247    2.7629    0.3714 C   0  0  0  0  0  0  0  0  0  0  0  0
   -2.4156    3.9014   -0.5438 C   0  0  0  0  0  0  0  0  0  0  0  0
    0.4870    0.3835   -0.1569 C   0  0  0  0  0  0  0  0  0  0  0  0
    1.4984   -0.5452   -0.7908 C   0  0  0  0  0  0  0  0  0  0  0  0
    2.8246    0.1582   -1.0787 C   0  0  0  0  0  0  0  0  0  0  0  0
    4.0810   -1.0366   -1.6404 S   0  0  0  0  0  0  0  0  0  0  0  0
    5.4007    0.0433   -1.9736 C   0  0  0  0  0  0  0  0  0  0  0  0
    5.4480    1.2117   -1.4473 N   0  0  0  0  0  0  0  0  0  0  0  0
    6.3535   -0.4614   -2.7857 N   0  0  0  0  0  0  0  0  0  0  0  0
    0.8574   -0.9581   -2.0002 O   0  0  0  0  0  0  0  0  0  0  0  0
   -0.5019   -0.8606   -1.8638 C   0  0  0  0  0  0  0  0  0  0  0  0
   -1.2745   -1.2870   -2.7056 O   0  0  0  0  0  0  0  0  0  0  0  0
   -3.1684   -3.3734    1.4052 H   0  0  0  0  0  0  0  0  0  0  0  0
   -4.0307   -2.1844    2.4036 H   0  0  0  0  0  0  0  0  0  0  0  0
   -3.4351   -3.6904    3.1214 H   0  0  0  0  0  0  0  0  0  0  0  0
   -1.0780   -2.9703    2.6902 H   0  0  0  0  0  0  0  0  0  0  0  0
   -1.9388   -1.8968    3.7876 H   0  0  0  0  0  0  0  0  0  0  0  0
   -0.6667   -0.5481    2.2779 H   0  0  0  0  0  0  0  0  0  0  0  0
   -2.3761   -0.3007    1.9347 H   0  0  0  0  0  0  0  0  0  0  0  0
   -2.2438   -1.8209   -0.0185 H   0  0  0  0  0  0  0  0  0  0  0  0
   -0.5830   -2.2210    0.3587 H   0  0  0  0  0  0  0  0  0  0  0  0
   -3.8135    2.3696    0.1094 H   0  0  0  0  0  0  0  0  0  0  0  0
   -2.8859    3.1239    1.4033 H   0  0  0  0  0  0  0  0  0  0  0  0
   -3.1370    4.7215   -0.4891 H   0  0  0  0  0  0  0  0  0  0  0  0
   -2.3467    3.5653   -1.5831 H   0  0  0  0  0  0  0  0  0  0  0  0
   -1.4268    4.2811   -0.2661 H   0  0  0  0  0  0  0  0  0  0  0  0
    0.6584    0.5042    0.9159 H   0  0  0  0  0  0  0  0  0  0  0  0
    0.5684    1.3835   -0.6062 H   0  0  0  0  0  0  0  0  0  0  0  0
    1.6557   -1.4300   -0.1607 H   0  0  0  0  0  0  0  0  0  0  0  0
    3.1866    0.6470   -0.1683 H   0  0  0  0  0  0  0  0  0  0  0  0
    2.6902    0.9100   -1.8640 H   0  0  0  0  0  0  0  0  0  0  0  0
    6.2858    1.6890   -1.7867 H   0  0  0  0  0  0  0  0  0  0  0  0
    6.3069   -1.4702   -2.8824 H   0  0  0  0  0  0  0  0  0  0  0  0
    7.2926   -0.1180   -2.6389 H   0  0  0  0  0  0  0  0  0  0  0  0
  1  2  1  0
  2  3  1  0
  3  4  1  0
  4  5  1  0
  5  6  1  0
  6  7  2  0
  6  8  1  0
  8  9  1  0
  9 10  1  0
  5 11  1  0
 11 12  1  0
 12 13  1  0
 13 14  1  0
 14 15  1  0
 15 16  2  3
 15 17  1  0
 12 18  1  0
 18 19  1  0
 19 20  2  0
 19  5  1  0
  1 21  1  0
  1 22  1  0
  1 23  1  0
  2 24  1  0
  2 25  1  0
  3 26  1  0
  3 27  1  0
  4 28  1  0
  4 29  1  0
  9 30  1  0
  9 31  1  0
 10 32  1  0
 10 33  1  0
 10 34  1  0
 11 35  1  0
 11 36  1  0
 12 37  1  0
 13 38  1  0
 13 39  1  0
 16 40  1  0
 17 41  1  0
 17 42  1  0
M  END
$$$$
