
     RDKit          3D

 47 49  0  0  0  0  0  0  0  0999 V2000
    6.1465    0.4914   -4.3056 C   0  0  0  0  0  0  0  0  0  0  0  0
    5.8857    0.0808   -2.9698 O   0  0  0  0  0  0  0  0  0  0  0  0
    4.7385    0.5510   -2.3912 C   0  0  0  0  0  0  0  0  0  0  0  0
    3.8001    1.3889   -2.9927 C   0  0  0  0  0  0  0  0  0  0  0  0
    2.6713    1.7980   -2.2794 C   0  0  0  0  0  0  0  0  0  0  0  0
    2.4709    1.3647   -0.9674 C   0  0  0  0  0  0  0  0  0  0  0  0
    3.3916    0.5084   -0.3625 C   0  0  0  0  0  0  0  0  0  0  0  0
    3.2736    0.0532    0.9721 N   0  0  0  0  0  0  0  0  0  0  0  0
    2.2411    0.2652    1.8457 C   0  0  0  0  0  0  0  0  0  0  0  0
    2.6672    0.7668    3.3929 S   0  0  0  0  0  0  0  0  0  0  0  0
    0.9480   -0.0302    1.4306 N   0  0  0  0  0  0  0  0  0  0  0  0
    0.6874   -1.0130    0.3618 C   0  0  0  0  0  0  0  0  0  0  0  0
   -0.5159   -1.9135    0.6456 C   0  0  0  0  0  0  0  0  0  0  0  0
   -1.7311   -1.0559    0.8720 C   0  0  0  0  0  0  0  0  0  0  0  0
   -2.9966   -1.4315    0.3954 C   0  0  0  0  0  0  0  0  0  0  0  0
   -4.1071   -0.6130    0.6186 C   0  0  0  0  0  0  0  0  0  0  0  0
   -5.3759   -0.8762    0.1737 O   0  0  0  0  0  0  0  0  0  0  0  0
   -5.5292   -1.9300   -0.7675 C   0  0  0  0  0  0  0  0  0  0  0  0
   -3.9361    0.5641    1.3626 C   0  0  0  0  0  0  0  0  0  0  0  0
   -4.9803    1.4239    1.6029 O   0  0  0  0  0  0  0  0  0  0  0  0
   -5.7721    0.9470    2.6892 C   0  0  0  0  0  0  0  0  0  0  0  0
   -2.6774    0.9473    1.8325 C   0  0  0  0  0  0  0  0  0  0  0  0
   -1.5640    0.1380    1.5908 C   0  0  0  0  0  0  0  0  0  0  0  0
   -0.2163    0.4878    2.1735 C   0  0  0  0  0  0  0  0  0  0  0  0
    4.5323    0.1236   -1.0751 C   0  0  0  0  0  0  0  0  0  0  0  0
    5.3629    0.1413   -4.9857 H   0  0  0  0  0  0  0  0  0  0  0  0
    7.0888    0.0309   -4.6189 H   0  0  0  0  0  0  0  0  0  0  0  0
    6.2688    1.5773   -4.3674 H   0  0  0  0  0  0  0  0  0  0  0  0
    3.9196    1.7486   -4.0093 H   0  0  0  0  0  0  0  0  0  0  0  0
    1.9484    2.4656   -2.7434 H   0  0  0  0  0  0  0  0  0  0  0  0
    1.6012    1.7292   -0.4286 H   0  0  0  0  0  0  0  0  0  0  0  0
    4.1678   -0.0828    1.4328 H   0  0  0  0  0  0  0  0  0  0  0  0
    0.5000   -0.4516   -0.5600 H   0  0  0  0  0  0  0  0  0  0  0  0
    1.5692   -1.6424    0.2045 H   0  0  0  0  0  0  0  0  0  0  0  0
   -0.6703   -2.5838   -0.2075 H   0  0  0  0  0  0  0  0  0  0  0  0
   -0.3406   -2.5292    1.5356 H   0  0  0  0  0  0  0  0  0  0  0  0
   -3.0877   -2.3655   -0.1487 H   0  0  0  0  0  0  0  0  0  0  0  0
   -4.8933   -1.7792   -1.6459 H   0  0  0  0  0  0  0  0  0  0  0  0
   -5.3357   -2.9007   -0.2998 H   0  0  0  0  0  0  0  0  0  0  0  0
   -6.5694   -1.9269   -1.1070 H   0  0  0  0  0  0  0  0  0  0  0  0
   -5.1813    0.9045    3.6112 H   0  0  0  0  0  0  0  0  0  0  0  0
   -6.2147   -0.0311    2.4782 H   0  0  0  0  0  0  0  0  0  0  0  0
   -6.5910    1.6567    2.8446 H   0  0  0  0  0  0  0  0  0  0  0  0
   -2.5783    1.8727    2.3944 H   0  0  0  0  0  0  0  0  0  0  0  0
   -0.1052    1.5769    2.2314 H   0  0  0  0  0  0  0  0  0  0  0  0
   -0.1827    0.0833    3.1919 H   0  0  0  0  0  0  0  0  0  0  0  0
    5.2713   -0.5307   -0.6181 H   0  0  0  0  0  0  0  0  0  0  0  0
  1  2  1  0
  2  3  1  0
  3  4  2  0
  4  5  1  0
  5  6  2  0
  6  7  1  0
  7  8  1  0
  8  9  1  0
  9 10  2  0
  9 11  1  0
 11 12  1  0
 12 13  1  0
 13 14  1  0
 14 15  2  0
 15 16  1  0
 16 17  1  0
 17 18  1  0
 16 19  2  0
 19 20  1  0
 20 21  1  0
 19 22  1  0
 22 23  2  0
 23 24  1  0
  7 25  2  0
 25  3  1  0
 24 11  1  0
 23 14  1  0
  1 26  1  0
  1 27  1  0
  1 28  1  0
  4 29  1  0
  5 30  1  0
  6 31  1  0
  8 32  1  0
 12 33  1  0
 12 34  1  0
 13 35  1  0
 13 36  1  0
 15 37  1  0
 18 38  1  0
 18 39  1  0
 18 40  1  0
 21 41  1  0
 21 42  1  0
 21 43  1  0
 22 44  1  0
 24 45  1  0
 24 46  1  0
 25 47  1  0
M  END
$$$$
