
     RDKit          3D

 43 45  0  0  0  0  0  0  0  0999 V2000
   -7.4911    1.4186   -0.0027 C   0  0  0  0  0  0  0  0  0  0  0  0
   -6.7024    0.4848   -0.5511 C   0  0  0  0  0  0  0  0  0  0  0  0
   -6.2332   -0.7568    0.1562 C   0  0  0  0  0  0  0  0  0  0  0  0
   -4.8217   -0.6137    0.4737 N   0  0  0  0  0  0  0  0  0  0  0  0
   -4.4855   -0.1240    1.7277 C   0  0  0  0  0  0  0  0  0  0  0  0
   -5.2995    0.1740    2.5993 O   0  0  0  0  0  0  0  0  0  0  0  0
   -3.1561    0.0177    1.9857 N   0  0  0  0  0  0  0  0  0  0  0  0
   -2.1562   -0.2981    1.0852 C   0  0  0  0  0  0  0  0  0  0  0  0
   -0.8820   -0.1029    1.4804 N   0  0  0  0  0  0  0  0  0  0  0  0
    0.0807   -0.4231    0.5877 C   0  0  0  0  0  0  0  0  0  0  0  0
    1.4139   -0.2468    0.9253 C   0  0  0  0  0  0  0  0  0  0  0  0
    2.4456   -0.5523    0.0318 C   0  0  0  0  0  0  0  0  0  0  0  0
    3.7772   -0.3707    0.4316 N   0  0  0  0  0  0  0  0  0  0  0  0
    4.2713    0.8101    0.2486 C   0  0  0  0  0  0  0  0  0  0  0  0
    5.5483    1.2128    0.5671 N   0  0  0  0  0  0  0  0  0  0  0  0
    6.5334    0.2118    0.9549 C   0  0  0  0  0  0  0  0  0  0  0  0
    6.0775    2.4546    0.0275 C   0  0  0  0  0  0  0  0  0  0  0  0
    2.1324   -1.0800   -1.2271 C   0  0  0  0  0  0  0  0  0  0  0  0
    3.2150   -1.4472   -2.2018 C   0  0  0  0  0  0  0  0  0  0  0  0
    0.7847   -1.2537   -1.5746 C   0  0  0  0  0  0  0  0  0  0  0  0
   -0.2413   -0.9357   -0.6957 C   0  0  0  0  0  0  0  0  0  0  0  0
   -1.5176   -1.1220   -1.0775 N   0  0  0  0  0  0  0  0  0  0  0  0
   -2.4658   -0.7950   -0.1639 C   0  0  0  0  0  0  0  0  0  0  0  0
   -3.8929   -0.9733   -0.5090 C   0  0  0  0  0  0  0  0  0  0  0  0
   -4.2113   -1.4143   -1.6116 O   0  0  0  0  0  0  0  0  0  0  0  0
   -7.8036    2.2883   -0.5724 H   0  0  0  0  0  0  0  0  0  0  0  0
   -7.8316    1.3429    1.0265 H   0  0  0  0  0  0  0  0  0  0  0  0
   -6.3843    0.5995   -1.5860 H   0  0  0  0  0  0  0  0  0  0  0  0
   -6.8130   -0.9329    1.0695 H   0  0  0  0  0  0  0  0  0  0  0  0
   -6.3898   -1.6242   -0.4949 H   0  0  0  0  0  0  0  0  0  0  0  0
   -2.8825    0.3742    2.8907 H   0  0  0  0  0  0  0  0  0  0  0  0
    1.6655    0.1356    1.9114 H   0  0  0  0  0  0  0  0  0  0  0  0
    3.6711    1.6242   -0.2020 H   0  0  0  0  0  0  0  0  0  0  0  0
    6.1249   -0.4717    1.7069 H   0  0  0  0  0  0  0  0  0  0  0  0
    6.8484   -0.3708    0.0830 H   0  0  0  0  0  0  0  0  0  0  0  0
    7.4202    0.6802    1.3953 H   0  0  0  0  0  0  0  0  0  0  0  0
    6.9410    2.7999    0.6057 H   0  0  0  0  0  0  0  0  0  0  0  0
    6.3880    2.3155   -1.0131 H   0  0  0  0  0  0  0  0  0  0  0  0
    5.3247    3.2494    0.0630 H   0  0  0  0  0  0  0  0  0  0  0  0
    3.7437   -0.5490   -2.5362 H   0  0  0  0  0  0  0  0  0  0  0  0
    3.9276   -2.1387   -1.7405 H   0  0  0  0  0  0  0  0  0  0  0  0
    2.8046   -1.9441   -3.0873 H   0  0  0  0  0  0  0  0  0  0  0  0
    0.5214   -1.6534   -2.5523 H   0  0  0  0  0  0  0  0  0  0  0  0
  1  2  2  0
  2  3  1  0
  3  4  1  0
  4  5  1  0
  5  6  2  0
  5  7  1  0
  7  8  1  0
  8  9  2  0
  9 10  1  0
 10 11  2  0
 11 12  1  0
 12 13  1  0
 13 14  2  3
 14 15  1  0
 15 16  1  0
 15 17  1  0
 12 18  2  0
 18 19  1  0
 18 20  1  0
 20 21  2  0
 21 22  1  0
 22 23  2  0
 23 24  1  0
 24 25  2  0
 24  4  1  0
 23  8  1  0
 21 10  1  0
  1 26  1  0
  1 27  1  0
  2 28  1  0
  3 29  1  0
  3 30  1  0
  7 31  1  0
 11 32  1  0
 14 33  1  0
 16 34  1  0
 16 35  1  0
 16 36  1  0
 17 37  1  0
 17 38  1  0
 17 39  1  0
 19 40  1  0
 19 41  1  0
 19 42  1  0
 20 43  1  0
M  END
$$$$
