
     RDKit          3D

 49 52  0  0  0  0  0  0  0  0999 V2000
    1.2213    1.1200    0.9200 O   0  0  0  0  0  0  0  0  0  0  0  0
    1.0147    1.3355   -0.2703 C   0  0  0  0  0  0  0  0  0  0  0  0
    2.1391    1.5975   -1.2826 C   0  0  0  0  0  0  0  0  0  0  0  0
    3.4518    1.3575   -0.7073 N   0  0  0  0  0  0  0  0  0  0  0  0
    3.9656    0.0850   -0.8508 N   0  0  0  0  0  0  0  0  0  0  0  0
    5.0804   -0.1871   -0.2432 C   0  0  0  0  0  0  0  0  0  0  0  0
    5.6532   -1.5583   -0.3640 C   0  0  0  0  0  0  0  0  0  0  0  0
    5.5063   -2.2421   -1.5809 C   0  0  0  0  0  0  0  0  0  0  0  0
    6.0261   -3.5300   -1.7289 C   0  0  0  0  0  0  0  0  0  0  0  0
    6.6790   -4.1326   -0.6590 C   0  0  0  0  0  0  0  0  0  0  0  0
    7.1759   -5.3685   -0.8005 F   0  0  0  0  0  0  0  0  0  0  0  0
    6.8176   -3.4745    0.5589 C   0  0  0  0  0  0  0  0  0  0  0  0
    6.3004   -2.1850    0.7119 C   0  0  0  0  0  0  0  0  0  0  0  0
    5.8513    0.7923    0.5564 C   0  0  0  0  0  0  0  0  0  0  0  0
    5.3409    2.0207    0.6653 C   0  0  0  0  0  0  0  0  0  0  0  0
    4.0615    2.3715    0.0169 C   0  0  0  0  0  0  0  0  0  0  0  0
    3.6259    3.5155    0.1300 O   0  0  0  0  0  0  0  0  0  0  0  0
   -0.2389    1.3970   -0.8772 N   0  0  0  0  0  0  0  0  0  0  0  0
   -1.4991    1.2243   -0.2670 C   0  0  0  0  0  0  0  0  0  0  0  0
   -2.6265    1.3005   -1.0981 C   0  0  0  0  0  0  0  0  0  0  0  0
   -3.9165    1.1332   -0.5789 C   0  0  0  0  0  0  0  0  0  0  0  0
   -4.0923    0.8807    0.7851 C   0  0  0  0  0  0  0  0  0  0  0  0
   -5.4407    0.6898    1.3872 C   0  0  0  0  0  0  0  0  0  0  0  0
   -5.6419    1.0093    2.5528 O   0  0  0  0  0  0  0  0  0  0  0  0
   -6.3912    0.1070    0.5690 N   0  0  0  0  0  0  0  0  0  0  0  0
   -7.7151   -0.1819    1.0241 C   0  0  0  0  0  0  0  0  0  0  0  0
   -8.6609   -0.9826    0.1701 C   0  0  0  0  0  0  0  0  0  0  0  0
   -8.8992    0.4848    0.3788 C   0  0  0  0  0  0  0  0  0  0  0  0
   -2.9731    0.8285    1.6216 C   0  0  0  0  0  0  0  0  0  0  0  0
   -1.6847    0.9930    1.0967 C   0  0  0  0  0  0  0  0  0  0  0  0
    2.0100    0.9396   -2.1494 H   0  0  0  0  0  0  0  0  0  0  0  0
    2.0652    2.6387   -1.6165 H   0  0  0  0  0  0  0  0  0  0  0  0
    4.9896   -1.7731   -2.4171 H   0  0  0  0  0  0  0  0  0  0  0  0
    5.9220   -4.0662   -2.6668 H   0  0  0  0  0  0  0  0  0  0  0  0
    7.3163   -3.9743    1.3850 H   0  0  0  0  0  0  0  0  0  0  0  0
    6.3846   -1.6993    1.6794 H   0  0  0  0  0  0  0  0  0  0  0  0
    6.7986    0.5288    1.0054 H   0  0  0  0  0  0  0  0  0  0  0  0
    5.8315    2.8090    1.2204 H   0  0  0  0  0  0  0  0  0  0  0  0
   -0.2517    1.5773   -1.8737 H   0  0  0  0  0  0  0  0  0  0  0  0
   -2.5185    1.4945   -2.1630 H   0  0  0  0  0  0  0  0  0  0  0  0
   -4.7682    1.2302   -1.2464 H   0  0  0  0  0  0  0  0  0  0  0  0
   -6.0967   -0.2979   -0.3098 H   0  0  0  0  0  0  0  0  0  0  0  0
   -7.7754   -0.3530    2.1001 H   0  0  0  0  0  0  0  0  0  0  0  0
   -9.3209   -1.6794    0.6735 H   0  0  0  0  0  0  0  0  0  0  0  0
   -8.3350   -1.3104   -0.8107 H   0  0  0  0  0  0  0  0  0  0  0  0
   -9.7158    0.7854    1.0258 H   0  0  0  0  0  0  0  0  0  0  0  0
   -8.7225    1.1571   -0.4527 H   0  0  0  0  0  0  0  0  0  0  0  0
   -3.0951    0.6537    2.6895 H   0  0  0  0  0  0  0  0  0  0  0  0
   -0.8493    0.9380    1.7884 H   0  0  0  0  0  0  0  0  0  0  0  0
  1  2  2  0
  2  3  1  0
  3  4  1  0
  4  5  1  0
  5  6  2  0
  6  7  1  0
  7  8  2  0
  8  9  1  0
  9 10  2  0
 10 11  1  0
 10 12  1  0
 12 13  2  0
  6 14  1  0
 14 15  2  0
 15 16  1  0
 16 17  2  0
  2 18  1  0
 18 19  1  0
 19 20  2  0
 20 21  1  0
 21 22  2  0
 22 23  1  0
 23 24  2  0
 23 25  1  0
 25 26  1  0
 26 27  1  0
 27 28  1  0
 22 29  1  0
 29 30  2  0
 16  4  1  0
 30 19  1  0
 13  7  1  0
 28 26  1  0
  3 31  1  0
  3 32  1  0
  8 33  1  0
  9 34  1  0
 12 35  1  0
 13 36  1  0
 14 37  1  0
 15 38  1  0
 18 39  1  0
 20 40  1  0
 21 41  1  0
 25 42  1  0
 26 43  1  0
 27 44  1  0
 27 45  1  0
 28 46  1  0
 28 47  1  0
 29 48  1  0
 30 49  1  0
M  END
$$$$
