
     RDKit          3D

 37 39  0  0  0  0  0  0  0  0999 V2000
    0.3651   -1.2322    0.2615 O   0  0  0  0  0  0  0  0  0  0  0  0
    0.6804   -0.0497    0.1990 C   0  0  0  0  0  0  0  0  0  0  0  0
    2.1012    0.3964    0.1259 C   0  0  0  0  0  0  0  0  0  0  0  0
    3.1075   -0.4833    0.0234 C   0  0  0  0  0  0  0  0  0  0  0  0
    4.5328   -0.1497   -0.0602 C   0  0  0  0  0  0  0  0  0  0  0  0
    5.2168    0.3803    1.0411 C   0  0  0  0  0  0  0  0  0  0  0  0
    6.5767    0.6843    0.9472 C   0  0  0  0  0  0  0  0  0  0  0  0
    7.2624    0.4553   -0.2452 C   0  0  0  0  0  0  0  0  0  0  0  0
    6.5839   -0.0798   -1.3386 C   0  0  0  0  0  0  0  0  0  0  0  0
    7.5137   -0.3945   -2.9548 Br  0  0  0  0  0  0  0  0  0  0  0  0
    5.2255   -0.3864   -1.2527 C   0  0  0  0  0  0  0  0  0  0  0  0
    2.2049    2.1104    0.1837 S   0  0  0  0  0  0  0  0  0  0  0  0
    0.4617    2.3082    0.2997 C   0  0  0  0  0  0  0  0  0  0  0  0
   -0.2644    3.8058    0.4527 S   0  0  0  0  0  0  0  0  0  0  0  0
   -0.1562    1.0670    0.2260 N   0  0  0  0  0  0  0  0  0  0  0  0
   -1.5369    1.0012    0.3659 N   0  0  0  0  0  0  0  0  0  0  0  0
   -2.1691   -0.0383   -0.0781 C   0  0  0  0  0  0  0  0  0  0  0  0
   -3.6331   -0.1711    0.0989 C   0  0  0  0  0  0  0  0  0  0  0  0
   -4.2416   -1.3382   -0.3787 C   0  0  0  0  0  0  0  0  0  0  0  0
   -5.6271   -1.5032   -0.2269 C   0  0  0  0  0  0  0  0  0  0  0  0
   -6.2707   -2.7246   -0.7281 N   0  0  0  0  0  4  0  0  0  0  0  0
   -5.5560   -3.5472   -1.3177 O   0  0  0  0  0  0  0  0  0  0  0  0
   -7.4864   -2.8584   -0.5335 O   0  0  0  0  0  1  0  0  0  0  0  0
   -6.4031   -0.5165    0.3955 C   0  0  0  0  0  0  0  0  0  0  0  0
   -5.7870    0.6433    0.8682 C   0  0  0  0  0  0  0  0  0  0  0  0
   -4.4108    0.8152    0.7203 C   0  0  0  0  0  0  0  0  0  0  0  0
   -3.8990    1.9835    1.2103 O   0  0  0  0  0  0  0  0  0  0  0  0
    2.8928   -1.5505   -0.0220 H   0  0  0  0  0  0  0  0  0  0  0  0
    4.6989    0.5604    1.9808 H   0  0  0  0  0  0  0  0  0  0  0  0
    7.1011    1.0991    1.8047 H   0  0  0  0  0  0  0  0  0  0  0  0
    8.3206    0.6950   -0.3109 H   0  0  0  0  0  0  0  0  0  0  0  0
    4.7081   -0.8037   -2.1131 H   0  0  0  0  0  0  0  0  0  0  0  0
   -1.6797   -0.8560   -0.6325 H   0  0  0  0  0  0  0  0  0  0  0  0
   -3.6424   -2.1099   -0.8584 H   0  0  0  0  0  0  0  0  0  0  0  0
   -7.4783   -0.6323    0.5195 H   0  0  0  0  0  0  0  0  0  0  0  0
   -6.3785    1.4175    1.3527 H   0  0  0  0  0  0  0  0  0  0  0  0
   -2.9339    2.0025    1.0354 H   0  0  0  0  0  0  0  0  0  0  0  0
  1  2  2  0
  2  3  1  0
  3  4  2  3
  4  5  1  0
  5  6  2  0
  6  7  1  0
  7  8  2  0
  8  9  1  0
  9 10  1  0
  9 11  2  0
  3 12  1  0
 12 13  1  0
 13 14  2  0
 13 15  1  0
 15 16  1  0
 16 17  2  3
 17 18  1  0
 18 19  2  0
 19 20  1  0
 20 21  1  0
 21 22  2  0
 21 23  1  0
 20 24  2  0
 24 25  1  0
 25 26  2  0
 26 27  1  0
 15  2  1  0
 26 18  1  0
 11  5  1  0
  4 28  1  0
  6 29  1  0
  7 30  1  0
  8 31  1  0
 11 32  1  0
 17 33  1  0
 19 34  1  0
 24 35  1  0
 25 36  1  0
 27 37  1  0
M  CHG  2  21   1  23  -1
M  END
$$$$
