
     RDKit          3D

 48 50  0  0  0  0  0  0  0  0999 V2000
    1.1040   -4.1059   -0.5275 C   0  0  0  0  0  0  0  0  0  0  0  0
    1.1197   -2.9012   -1.4563 C   0  0  0  0  0  0  0  0  0  0  0  0
    1.8113   -1.7290   -0.8310 C   0  0  0  0  0  0  0  0  0  0  0  0
    1.2907   -0.5981   -0.3591 C   0  0  0  0  0  0  0  0  0  0  0  0
   -0.1302   -0.2612   -0.3192 C   0  0  0  0  0  0  0  0  0  0  0  0
   -0.9158   -0.6878    0.7612 C   0  0  0  0  0  0  0  0  0  0  0  0
   -2.2800   -0.3953    0.8051 C   0  0  0  0  0  0  0  0  0  0  0  0
   -3.1273   -0.7611    1.8187 O   0  0  0  0  0  0  0  0  0  0  0  0
   -2.6217   -1.6473    2.8075 C   0  0  0  0  0  0  0  0  0  0  0  0
   -2.8487    0.3401   -0.2487 C   0  0  0  0  0  0  0  0  0  0  0  0
   -4.2024    0.5986   -0.2357 O   0  0  0  0  0  0  0  0  0  0  0  0
   -4.4485    1.8506    0.4020 C   0  0  0  0  0  0  0  0  0  0  0  0
   -2.0835    0.7421   -1.3569 C   0  0  0  0  0  0  0  0  0  0  0  0
   -2.7510    1.4258   -2.3401 O   0  0  0  0  0  0  0  0  0  0  0  0
   -2.0391    1.7218   -3.5334 C   0  0  0  0  0  0  0  0  0  0  0  0
   -0.7212    0.4366   -1.3811 C   0  0  0  0  0  0  0  0  0  0  0  0
    2.3785    0.2786    0.1619 C   0  0  0  0  0  0  0  0  0  0  0  0
    2.3147    0.5873    1.6667 C   0  0  0  0  0  0  0  0  0  0  0  0
    2.9944    1.9449    1.7968 C   0  0  0  0  0  0  0  0  0  0  0  0
    2.5275    2.6834    0.5549 C   0  0  0  0  0  0  0  0  0  0  0  0
    2.5640    1.6315   -0.5521 C   0  0  0  0  0  0  0  0  0  0  0  0
    3.5709   -0.6379   -0.1306 C   0  0  0  0  0  0  0  0  0  0  0  0
    4.7378   -0.3741    0.1362 O   0  0  0  0  0  0  0  0  0  0  0  0
    3.1981   -1.8134   -0.7370 O   0  0  0  0  0  0  0  0  0  0  0  0
    2.1197   -4.4272   -0.2737 H   0  0  0  0  0  0  0  0  0  0  0  0
    0.5747   -3.8799    0.4045 H   0  0  0  0  0  0  0  0  0  0  0  0
    0.5955   -4.9471   -1.0093 H   0  0  0  0  0  0  0  0  0  0  0  0
    1.6324   -3.1644   -2.3890 H   0  0  0  0  0  0  0  0  0  0  0  0
    0.0895   -2.6508   -1.7325 H   0  0  0  0  0  0  0  0  0  0  0  0
   -0.4383   -1.2476    1.5593 H   0  0  0  0  0  0  0  0  0  0  0  0
   -2.2609   -2.5794    2.3598 H   0  0  0  0  0  0  0  0  0  0  0  0
   -3.4448   -1.8995    3.4830 H   0  0  0  0  0  0  0  0  0  0  0  0
   -1.8394   -1.1650    3.4026 H   0  0  0  0  0  0  0  0  0  0  0  0
   -4.1171    1.8396    1.4461 H   0  0  0  0  0  0  0  0  0  0  0  0
   -5.5288    2.0236    0.3933 H   0  0  0  0  0  0  0  0  0  0  0  0
   -3.9706    2.6753   -0.1380 H   0  0  0  0  0  0  0  0  0  0  0  0
   -1.2229    2.4251   -3.3392 H   0  0  0  0  0  0  0  0  0  0  0  0
   -1.6701    0.8089   -4.0128 H   0  0  0  0  0  0  0  0  0  0  0  0
   -2.7348    2.2038   -4.2271 H   0  0  0  0  0  0  0  0  0  0  0  0
   -0.0995    0.7271   -2.2216 H   0  0  0  0  0  0  0  0  0  0  0  0
    2.8146   -0.1634    2.2884 H   0  0  0  0  0  0  0  0  0  0  0  0
    1.2815    0.6772    2.0197 H   0  0  0  0  0  0  0  0  0  0  0  0
    4.0846    1.8323    1.7878 H   0  0  0  0  0  0  0  0  0  0  0  0
    2.7118    2.4622    2.7182 H   0  0  0  0  0  0  0  0  0  0  0  0
    1.4994    3.0389    0.6949 H   0  0  0  0  0  0  0  0  0  0  0  0
    3.1554    3.5488    0.3239 H   0  0  0  0  0  0  0  0  0  0  0  0
    1.7963    1.8484   -1.3001 H   0  0  0  0  0  0  0  0  0  0  0  0
    3.5299    1.6841   -1.0694 H   0  0  0  0  0  0  0  0  0  0  0  0
  1  2  1  0
  2  3  1  0
  3  4  2  0
  4  5  1  0
  5  6  2  0
  6  7  1  0
  7  8  1  0
  8  9  1  0
  7 10  2  0
 10 11  1  0
 11 12  1  0
 10 13  1  0
 13 14  1  0
 14 15  1  0
 13 16  2  0
  4 17  1  0
 17 18  1  0
 18 19  1  0
 19 20  1  0
 20 21  1  0
 17 22  1  0
 22 23  2  0
 22 24  1  0
 24  3  1  0
 16  5  1  0
 21 17  1  0
  1 25  1  0
  1 26  1  0
  1 27  1  0
  2 28  1  0
  2 29  1  0
  6 30  1  0
  9 31  1  0
  9 32  1  0
  9 33  1  0
 12 34  1  0
 12 35  1  0
 12 36  1  0
 15 37  1  0
 15 38  1  0
 15 39  1  0
 16 40  1  0
 18 41  1  0
 18 42  1  0
 19 43  1  0
 19 44  1  0
 20 45  1  0
 20 46  1  0
 21 47  1  0
 21 48  1  0
M  END
$$$$
