
     RDKit          3D

 46 48  0  0  0  0  0  0  0  0999 V2000
   -3.6986    1.7766   -0.4568 C   0  0  0  0  0  0  0  0  0  0  0  0
   -3.6238    0.3321   -0.0316 C   0  0  0  0  0  0  0  0  0  0  0  0
   -4.7060   -0.4776   -0.0358 C   0  0  0  0  0  0  0  0  0  0  0  0
   -6.0605   -0.0910   -0.4401 C   0  0  0  0  0  0  0  0  0  0  0  0
   -6.4573   -0.2126   -1.7759 C   0  0  0  0  0  0  0  0  0  0  0  0
   -7.7469    0.1590   -2.1604 C   0  0  0  0  0  0  0  0  0  0  0  0
   -8.6429    0.6526   -1.2125 C   0  0  0  0  0  0  0  0  0  0  0  0
   -8.2515    0.7755    0.1205 C   0  0  0  0  0  0  0  0  0  0  0  0
   -6.9624    0.4045    0.5073 C   0  0  0  0  0  0  0  0  0  0  0  0
   -2.3461   -0.2434    0.4067 C   0  0  0  0  0  0  0  0  0  0  0  0
   -1.1097    0.2678    0.5243 C   0  0  0  0  0  0  0  0  0  0  0  0
   -0.5264    1.8548    0.1907 S   0  0  0  0  0  0  0  0  0  0  0  0
    1.1235    1.4657    0.6357 C   0  0  0  0  0  0  0  0  0  0  0  0
    2.3926    2.5460    0.5835 S   0  0  0  0  0  0  0  0  0  0  0  0
    1.1750    0.1559    1.0530 N   0  0  0  0  0  0  0  0  0  0  0  0
    2.4926   -0.5133    1.3944 N   0  0  0  0  0  0  0  0  0  0  0  0
    3.0902   -1.5083    0.1379 S   0  0  0  0  0  6  0  0  0  0  0  0
    2.9931   -2.8897    0.5491 O   0  0  0  0  0  0  0  0  0  0  0  0
    2.5178   -1.0336   -1.1057 O   0  0  0  0  0  0  0  0  0  0  0  0
    4.8087   -1.0587    0.1565 C   0  0  0  0  0  0  0  0  0  0  0  0
    5.2840   -0.0866   -0.7261 C   0  0  0  0  0  0  0  0  0  0  0  0
    6.6348    0.2631   -0.6970 C   0  0  0  0  0  0  0  0  0  0  0  0
    7.5100   -0.3531    0.2083 C   0  0  0  0  0  0  0  0  0  0  0  0
    8.9693   -0.0007    0.2087 C   0  0  0  0  0  0  0  0  0  0  0  0
    7.0229   -1.3482    1.0669 C   0  0  0  0  0  0  0  0  0  0  0  0
    5.6734   -1.7023    1.0452 C   0  0  0  0  0  0  0  0  0  0  0  0
    0.0126   -0.5969    1.0120 C   0  0  0  0  0  0  0  0  0  0  0  0
   -0.1113   -1.7724    1.3246 O   0  0  0  0  0  0  0  0  0  0  0  0
   -4.7032    2.0896   -0.7562 H   0  0  0  0  0  0  0  0  0  0  0  0
   -3.0539    1.9584   -1.3226 H   0  0  0  0  0  0  0  0  0  0  0  0
   -3.4093    2.4372    0.3668 H   0  0  0  0  0  0  0  0  0  0  0  0
   -4.6360   -1.5193    0.2737 H   0  0  0  0  0  0  0  0  0  0  0  0
   -5.7652   -0.5948   -2.5223 H   0  0  0  0  0  0  0  0  0  0  0  0
   -8.0518    0.0634   -3.1991 H   0  0  0  0  0  0  0  0  0  0  0  0
   -9.6468    0.9415   -1.5128 H   0  0  0  0  0  0  0  0  0  0  0  0
   -8.9499    1.1604    0.8589 H   0  0  0  0  0  0  0  0  0  0  0  0
   -6.6659    0.5057    1.5484 H   0  0  0  0  0  0  0  0  0  0  0  0
   -2.4358   -1.2982    0.6870 H   0  0  0  0  0  0  0  0  0  0  0  0
    3.2016    0.1374    1.7445 H   0  0  0  0  0  0  0  0  0  0  0  0
    4.6205    0.3991   -1.4386 H   0  0  0  0  0  0  0  0  0  0  0  0
    7.0040    1.0175   -1.3895 H   0  0  0  0  0  0  0  0  0  0  0  0
    9.4016   -0.1296    1.2066 H   0  0  0  0  0  0  0  0  0  0  0  0
    9.1180    1.0461   -0.0766 H   0  0  0  0  0  0  0  0  0  0  0  0
    9.5086   -0.6403   -0.4965 H   0  0  0  0  0  0  0  0  0  0  0  0
    7.6964   -1.8576    1.7538 H   0  0  0  0  0  0  0  0  0  0  0  0
    5.3099   -2.4815    1.7127 H   0  0  0  0  0  0  0  0  0  0  0  0
  1  2  1  0
  2  3  2  3
  3  4  1  0
  4  5  2  0
  5  6  1  0
  6  7  2  0
  7  8  1  0
  8  9  2  0
  2 10  1  0
 10 11  2  3
 11 12  1  0
 12 13  1  0
 13 14  2  0
 13 15  1  0
 15 16  1  0
 16 17  1  0
 17 18  2  0
 17 19  2  0
 17 20  1  0
 20 21  2  0
 21 22  1  0
 22 23  2  0
 23 24  1  0
 23 25  1  0
 25 26  2  0
 15 27  1  0
 27 28  2  0
  9  4  1  0
 27 11  1  0
 26 20  1  0
  1 29  1  0
  1 30  1  0
  1 31  1  0
  3 32  1  0
  5 33  1  0
  6 34  1  0
  7 35  1  0
  8 36  1  0
  9 37  1  0
 10 38  1  0
 16 39  1  0
 21 40  1  0
 22 41  1  0
 24 42  1  0
 24 43  1  0
 24 44  1  0
 25 45  1  0
 26 46  1  0
M  END
$$$$
