
     RDKit          3D

 51 54  0  0  0  0  0  0  0  0999 V2000
    1.2795    3.1250   -0.5169 O   0  0  0  0  0  0  0  0  0  0  0  0
    1.2033    1.9495   -0.1646 C   0  0  0  0  0  0  0  0  0  0  0  0
   -0.0112    1.0395   -0.4325 C   0  0  0  0  0  0  0  0  0  0  0  0
   -0.7630    1.4253   -1.6544 N   0  0  0  0  0  0  0  0  0  0  0  0
   -1.6405    2.5944   -1.3983 C   0  0  0  0  0  0  0  0  0  0  0  0
   -3.1039    2.2774   -0.9775 C   0  0  0  0  0  0  0  0  0  0  0  0
   -3.2244    0.9815   -0.2957 N   0  0  0  0  0  0  0  0  0  0  0  0
   -4.5824    0.7605    0.2138 C   0  0  0  0  0  0  0  0  0  0  0  0
   -4.6689   -0.3995    1.1843 C   0  0  0  0  0  0  0  0  0  0  0  0
   -5.2070   -1.6229    0.7427 C   0  0  0  0  0  0  0  0  0  0  0  0
   -5.2909   -2.7215    1.5997 C   0  0  0  0  0  0  0  0  0  0  0  0
   -4.8387   -2.6177    2.9129 C   0  0  0  0  0  0  0  0  0  0  0  0
   -4.3027   -1.4138    3.3679 C   0  0  0  0  0  0  0  0  0  0  0  0
   -4.2153   -0.3105    2.5111 C   0  0  0  0  0  0  0  0  0  0  0  0
   -3.5380    1.1434    3.1563 Cl  0  0  0  0  0  0  0  0  0  0  0  0
   -2.7584   -0.1047   -1.1794 C   0  0  0  0  0  0  0  0  0  0  0  0
   -1.5955    0.3020   -2.1242 C   0  0  0  0  0  0  0  0  0  0  0  0
    2.1685    1.3137    0.5946 N   0  0  0  0  0  0  0  0  0  0  0  0
    3.2076    1.1587   -0.0833 N   0  0  0  0  0  0  0  0  0  0  0  0
    4.2199    0.4700    0.5990 C   0  0  0  0  0  0  0  0  0  0  0  0
    4.5316    0.5332    1.9394 C   0  0  0  0  0  0  0  0  0  0  0  0
    4.0178    1.2141    2.9564 O   0  0  0  0  0  0  0  0  0  0  0  0
    5.5933   -0.3055    2.1458 N   0  0  0  0  0  0  0  0  0  0  0  0
    5.9842   -0.8928    0.9616 C   0  0  0  0  0  0  0  0  0  0  0  0
    7.0157   -1.8025    0.7010 C   0  0  0  0  0  0  0  0  0  0  0  0
    7.1848   -2.2279   -0.6205 C   0  0  0  0  0  0  0  0  0  0  0  0
    6.3567   -1.7609   -1.6390 C   0  0  0  0  0  0  0  0  0  0  0  0
    5.3284   -0.8528   -1.3626 C   0  0  0  0  0  0  0  0  0  0  0  0
    5.1353   -0.4097   -0.0380 C   0  0  0  0  0  0  0  0  0  0  0  0
   -0.6337    1.0278    0.4686 H   0  0  0  0  0  0  0  0  0  0  0  0
    0.3933    0.0284   -0.5730 H   0  0  0  0  0  0  0  0  0  0  0  0
   -1.6822    3.1819   -2.3244 H   0  0  0  0  0  0  0  0  0  0  0  0
   -1.1987    3.2613   -0.6502 H   0  0  0  0  0  0  0  0  0  0  0  0
   -3.7452    2.2908   -1.8694 H   0  0  0  0  0  0  0  0  0  0  0  0
   -3.4480    3.0868   -0.3214 H   0  0  0  0  0  0  0  0  0  0  0  0
   -4.9467    1.6556    0.7354 H   0  0  0  0  0  0  0  0  0  0  0  0
   -5.2878    0.6137   -0.6156 H   0  0  0  0  0  0  0  0  0  0  0  0
   -5.5602   -1.7274   -0.2813 H   0  0  0  0  0  0  0  0  0  0  0  0
   -5.7069   -3.6600    1.2414 H   0  0  0  0  0  0  0  0  0  0  0  0
   -4.9005   -3.4729    3.5819 H   0  0  0  0  0  0  0  0  0  0  0  0
   -3.9519   -1.3399    4.3947 H   0  0  0  0  0  0  0  0  0  0  0  0
   -2.4151   -0.9337   -0.5492 H   0  0  0  0  0  0  0  0  0  0  0  0
   -3.5751   -0.4831   -1.8077 H   0  0  0  0  0  0  0  0  0  0  0  0
   -2.0233    0.5935   -3.0933 H   0  0  0  0  0  0  0  0  0  0  0  0
   -0.9709   -0.5742   -2.3390 H   0  0  0  0  0  0  0  0  0  0  0  0
    3.2995    1.7587    2.5783 H   0  0  0  0  0  0  0  0  0  0  0  0
    6.0282   -0.4555    3.0440 H   0  0  0  0  0  0  0  0  0  0  0  0
    7.6652   -2.1674    1.4901 H   0  0  0  0  0  0  0  0  0  0  0  0
    7.9782   -2.9341   -0.8567 H   0  0  0  0  0  0  0  0  0  0  0  0
    6.5093   -2.1037   -2.6598 H   0  0  0  0  0  0  0  0  0  0  0  0
    4.6871   -0.4921   -2.1615 H   0  0  0  0  0  0  0  0  0  0  0  0
  1  2  2  0
  2  3  1  0
  3  4  1  0
  4  5  1  0
  5  6  1  0
  6  7  1  0
  7  8  1  0
  8  9  1  0
  9 10  2  0
 10 11  1  0
 11 12  2  0
 12 13  1  0
 13 14  2  0
 14 15  1  0
  7 16  1  0
 16 17  1  0
  2 18  1  0
 18 19  2  3
 19 20  1  0
 20 21  2  0
 21 22  1  0
 21 23  1  0
 23 24  1  0
 24 25  2  0
 25 26  1  0
 26 27  2  0
 27 28  1  0
 28 29  2  0
 17  4  1  0
 29 20  1  0
 14  9  1  0
 29 24  1  0
  3 30  1  0
  3 31  1  0
  5 32  1  0
  5 33  1  0
  6 34  1  0
  6 35  1  0
  8 36  1  0
  8 37  1  0
 10 38  1  0
 11 39  1  0
 12 40  1  0
 13 41  1  0
 16 42  1  0
 16 43  1  0
 17 44  1  0
 17 45  1  0
 22 46  1  0
 23 47  1  0
 25 48  1  0
 26 49  1  0
 27 50  1  0
 28 51  1  0
M  END
$$$$
