
     RDKit          3D

 72 76  0  0  0  0  0  0  0  0999 V2000
   10.8651   -0.9355    0.2456 C   0  0  0  0  0  0  0  0  0  0  0  0
    9.9424   -0.0054   -0.3090 O   0  0  0  0  0  0  0  0  0  0  0  0
    8.6133   -0.2749   -0.1175 C   0  0  0  0  0  0  0  0  0  0  0  0
    7.7504    0.7561   -0.4902 C   0  0  0  0  0  0  0  0  0  0  0  0
    6.3663    0.6124   -0.3538 C   0  0  0  0  0  0  0  0  0  0  0  0
    5.8199   -0.5820    0.1370 C   0  0  0  0  0  0  0  0  0  0  0  0
    4.3648   -0.7627    0.2637 C   0  0  0  0  0  0  0  0  0  0  0  0
    3.8846   -1.4192    1.3275 N   0  0  0  0  0  0  0  0  0  0  0  0
    2.2379   -1.4974    1.2388 S   0  0  0  0  0  0  0  0  0  0  0  0
    2.0801   -0.6127   -0.2097 C   0  0  0  0  0  0  0  0  0  0  0  0
    0.7954   -0.3726   -0.8352 C   0  0  0  0  0  0  0  0  0  0  0  0
    0.6505   -0.6010   -2.0414 O   0  0  0  0  0  0  0  0  0  0  0  0
   -0.2850    0.1140   -0.0669 N   0  0  0  0  0  0  0  0  0  0  0  0
   -0.1213    0.8518    1.1462 C   0  0  0  0  0  0  0  0  0  0  0  0
   -0.9703    0.6439    2.2427 C   0  0  0  0  0  0  0  0  0  0  0  0
   -0.8305    1.4025    3.4082 C   0  0  0  0  0  0  0  0  0  0  0  0
    0.1575    2.3765    3.4804 C   0  0  0  0  0  0  0  0  0  0  0  0
    0.2856    3.1009    4.6018 F   0  0  0  0  0  0  0  0  0  0  0  0
    1.0149    2.5964    2.4125 C   0  0  0  0  0  0  0  0  0  0  0  0
    0.8747    1.8404    1.2452 C   0  0  0  0  0  0  0  0  0  0  0  0
   -1.6320   -0.0329   -0.6669 C   0  0  0  0  0  0  0  0  0  0  0  0
   -2.2937   -1.3822   -0.2751 C   0  0  0  0  0  0  0  0  0  0  0  0
   -1.9205   -2.0771    0.6693 O   0  0  0  0  0  0  0  0  0  0  0  0
   -3.3578   -1.7495   -1.0905 N   0  0  0  0  0  0  0  0  0  0  0  0
   -4.1768   -2.9071   -0.7979 C   0  0  0  0  0  0  0  0  0  0  0  0
   -4.8388   -3.4795   -2.0509 C   0  0  0  0  0  0  0  0  0  0  0  0
   -6.0732   -4.1753   -1.5047 C   0  0  0  0  0  0  0  0  0  0  0  0
   -6.5909   -3.1830   -0.4743 C   0  0  0  0  0  0  0  0  0  0  0  0
   -5.3368   -2.5791    0.1576 C   0  0  0  0  0  0  0  0  0  0  0  0
   -2.5367    1.1954   -0.5225 C   0  0  0  0  0  0  0  0  0  0  0  0
   -3.6488    1.2303    0.3319 C   0  0  0  0  0  0  0  0  0  0  0  0
   -4.4443    2.3763    0.4368 C   0  0  0  0  0  0  0  0  0  0  0  0
   -4.1392    3.5130   -0.3084 C   0  0  0  0  0  0  0  0  0  0  0  0
   -4.8322    4.6902   -0.2958 O   0  0  0  0  0  0  0  0  0  0  0  0
   -5.9606    4.7667    0.5650 C   0  0  0  0  0  0  0  0  0  0  0  0
   -3.0291    3.4929   -1.1524 C   0  0  0  0  0  0  0  0  0  0  0  0
   -2.2349    2.3485   -1.2626 C   0  0  0  0  0  0  0  0  0  0  0  0
    3.3476   -0.3284   -0.6806 C   0  0  0  0  0  0  0  0  0  0  0  0
    3.5715    0.2878   -1.8743 N   0  0  0  0  0  0  0  0  0  0  0  0
    6.6938   -1.6120    0.5118 C   0  0  0  0  0  0  0  0  0  0  0  0
    8.0792   -1.4595    0.3884 C   0  0  0  0  0  0  0  0  0  0  0  0
   10.7239   -1.0434    1.3251 H   0  0  0  0  0  0  0  0  0  0  0  0
   10.8049   -1.9047   -0.2601 H   0  0  0  0  0  0  0  0  0  0  0  0
   11.8712   -0.5433    0.0791 H   0  0  0  0  0  0  0  0  0  0  0  0
    8.1584    1.6821   -0.8859 H   0  0  0  0  0  0  0  0  0  0  0  0
    5.7251    1.4495   -0.6200 H   0  0  0  0  0  0  0  0  0  0  0  0
   -1.7294   -0.1304    2.2246 H   0  0  0  0  0  0  0  0  0  0  0  0
   -1.4882    1.2438    4.2582 H   0  0  0  0  0  0  0  0  0  0  0  0
    1.7782    3.3651    2.4855 H   0  0  0  0  0  0  0  0  0  0  0  0
    1.5343    2.0629    0.4094 H   0  0  0  0  0  0  0  0  0  0  0  0
   -1.5011   -0.1343   -1.7542 H   0  0  0  0  0  0  0  0  0  0  0  0
   -3.7234   -1.0567   -1.7332 H   0  0  0  0  0  0  0  0  0  0  0  0
   -3.5486   -3.6790   -0.3349 H   0  0  0  0  0  0  0  0  0  0  0  0
   -4.1768   -4.1668   -2.5858 H   0  0  0  0  0  0  0  0  0  0  0  0
   -5.1294   -2.6822   -2.7463 H   0  0  0  0  0  0  0  0  0  0  0  0
   -6.8145   -4.3935   -2.2766 H   0  0  0  0  0  0  0  0  0  0  0  0
   -5.7919   -5.1155   -1.0192 H   0  0  0  0  0  0  0  0  0  0  0  0
   -7.1634   -2.3943   -0.9781 H   0  0  0  0  0  0  0  0  0  0  0  0
   -7.2464   -3.6523    0.2654 H   0  0  0  0  0  0  0  0  0  0  0  0
   -5.1479   -3.0329    1.1377 H   0  0  0  0  0  0  0  0  0  0  0  0
   -5.4704   -1.5054    0.3202 H   0  0  0  0  0  0  0  0  0  0  0  0
   -3.9081    0.3711    0.9489 H   0  0  0  0  0  0  0  0  0  0  0  0
   -5.2867    2.3513    1.1219 H   0  0  0  0  0  0  0  0  0  0  0  0
   -5.6690    4.6290    1.6105 H   0  0  0  0  0  0  0  0  0  0  0  0
   -6.3875    5.7698    0.4722 H   0  0  0  0  0  0  0  0  0  0  0  0
   -6.7305    4.0445    0.2736 H   0  0  0  0  0  0  0  0  0  0  0  0
   -2.7752    4.3802   -1.7254 H   0  0  0  0  0  0  0  0  0  0  0  0
   -1.3709    2.3687   -1.9214 H   0  0  0  0  0  0  0  0  0  0  0  0
    4.4818    0.1664   -2.3129 H   0  0  0  0  0  0  0  0  0  0  0  0
    2.8306    0.2163   -2.5788 H   0  0  0  0  0  0  0  0  0  0  0  0
    6.2980   -2.5445    0.9124 H   0  0  0  0  0  0  0  0  0  0  0  0
    8.7111   -2.2881    0.6894 H   0  0  0  0  0  0  0  0  0  0  0  0
  1  2  1  0
  2  3  1  0
  3  4  2  0
  4  5  1  0
  5  6  2  0
  6  7  1  0
  7  8  2  0
  8  9  1  0
  9 10  1  0
 10 11  1  0
 11 12  2  0
 11 13  1  0
 13 14  1  0
 14 15  2  0
 15 16  1  0
 16 17  2  0
 17 18  1  0
 17 19  1  0
 19 20  2  0
 13 21  1  0
 21 22  1  0
 22 23  2  0
 22 24  1  0
 24 25  1  0
 25 26  1  0
 26 27  1  0
 27 28  1  0
 28 29  1  0
 21 30  1  0
 30 31  2  0
 31 32  1  0
 32 33  2  0
 33 34  1  0
 34 35  1  0
 33 36  1  0
 36 37  2  0
 10 38  2  0
 38 39  1  0
  6 40  1  0
 40 41  2  0
 41  3  1  0
 38  7  1  0
 20 14  1  0
 29 25  1  0
 37 30  1  0
  1 42  1  0
  1 43  1  0
  1 44  1  0
  4 45  1  0
  5 46  1  0
 15 47  1  0
 16 48  1  0
 19 49  1  0
 20 50  1  0
 21 51  1  0
 24 52  1  0
 25 53  1  0
 26 54  1  0
 26 55  1  0
 27 56  1  0
 27 57  1  0
 28 58  1  0
 28 59  1  0
 29 60  1  0
 29 61  1  0
 31 62  1  0
 32 63  1  0
 35 64  1  0
 35 65  1  0
 35 66  1  0
 36 67  1  0
 37 68  1  0
 39 69  1  0
 39 70  1  0
 40 71  1  0
 41 72  1  0
M  END
$$$$
