
     RDKit          3D

 37 39  0  0  0  0  0  0  0  0999 V2000
    0.6309   -1.0641    0.0032 O   0  0  0  0  0  0  0  0  0  0  0  0
    0.0843   -0.8453    1.0751 C   0  0  0  0  0  0  0  0  0  0  0  0
    0.6627    0.0197    2.1431 C   0  0  0  0  0  0  0  0  0  0  0  0
    1.7857    0.7516    2.0925 C   0  0  0  0  0  0  0  0  0  0  0  0
    2.6853    0.8710    0.9373 C   0  0  0  0  0  0  0  0  0  0  0  0
    2.2383    1.5319   -0.2169 C   0  0  0  0  0  0  0  0  0  0  0  0
    3.0886    1.6599   -1.3255 C   0  0  0  0  0  0  0  0  0  0  0  0
    2.6013    2.3283   -2.5384 N   0  0  0  0  0  4  0  0  0  0  0  0
    3.3863    2.4403   -3.4906 O   0  0  0  0  0  0  0  0  0  0  0  0
    1.4342    2.7461   -2.5371 O   0  0  0  0  0  1  0  0  0  0  0  0
    4.3947    1.1573   -1.2872 C   0  0  0  0  0  0  0  0  0  0  0  0
    4.8460    0.5168   -0.1332 C   0  0  0  0  0  0  0  0  0  0  0  0
    3.9967    0.3724    0.9646 C   0  0  0  0  0  0  0  0  0  0  0  0
    4.5235   -0.2804    2.0447 O   0  0  0  0  0  0  0  0  0  0  0  0
   -0.3452   -0.0327    3.5392 S   0  0  0  0  0  0  0  0  0  0  0  0
   -1.5304   -1.0814    2.7685 C   0  0  0  0  0  0  0  0  0  0  0  0
   -2.8900   -1.6044    3.5808 S   0  0  0  0  0  0  0  0  0  0  0  0
   -1.1311   -1.3695    1.4814 N   0  0  0  0  0  0  0  0  0  0  0  0
   -1.8900   -2.1864    0.5351 C   0  0  0  0  0  0  0  0  0  0  0  0
   -2.8456   -1.3539   -0.2961 C   0  0  0  0  0  0  0  0  0  0  0  0
   -4.2165   -1.3226    0.0017 C   0  0  0  0  0  0  0  0  0  0  0  0
   -5.0909   -0.5372   -0.7543 C   0  0  0  0  0  0  0  0  0  0  0  0
   -4.6020    0.2216   -1.8147 C   0  0  0  0  0  0  0  0  0  0  0  0
   -5.6799    1.1886   -2.7429 Cl  0  0  0  0  0  0  0  0  0  0  0  0
   -3.2458    0.1995   -2.1277 C   0  0  0  0  0  0  0  0  0  0  0  0
   -2.3715   -0.5862   -1.3724 C   0  0  0  0  0  0  0  0  0  0  0  0
    2.0969    1.3367    2.9569 H   0  0  0  0  0  0  0  0  0  0  0  0
    1.2259    1.9306   -0.2533 H   0  0  0  0  0  0  0  0  0  0  0  0
    5.0659    1.2520   -2.1382 H   0  0  0  0  0  0  0  0  0  0  0  0
    5.8579    0.1205   -0.0900 H   0  0  0  0  0  0  0  0  0  0  0  0
    3.8197   -0.4628    2.6878 H   0  0  0  0  0  0  0  0  0  0  0  0
   -1.2001   -2.7097   -0.1388 H   0  0  0  0  0  0  0  0  0  0  0  0
   -2.4384   -2.9695    1.0698 H   0  0  0  0  0  0  0  0  0  0  0  0
   -4.6211   -1.9098    0.8239 H   0  0  0  0  0  0  0  0  0  0  0  0
   -6.1500   -0.5222   -0.5100 H   0  0  0  0  0  0  0  0  0  0  0  0
   -2.8611    0.7888   -2.9565 H   0  0  0  0  0  0  0  0  0  0  0  0
   -1.3152   -0.5954   -1.6380 H   0  0  0  0  0  0  0  0  0  0  0  0
  1  2  2  0
  2  3  1  0
  3  4  2  3
  4  5  1  0
  5  6  2  0
  6  7  1  0
  7  8  1  0
  8  9  2  0
  8 10  1  0
  7 11  2  0
 11 12  1  0
 12 13  2  0
 13 14  1  0
  3 15  1  0
 15 16  1  0
 16 17  2  0
 16 18  1  0
 18 19  1  0
 19 20  1  0
 20 21  2  0
 21 22  1  0
 22 23  2  0
 23 24  1  0
 23 25  1  0
 25 26  2  0
 18  2  1  0
 26 20  1  0
 13  5  1  0
  4 27  1  0
  6 28  1  0
 11 29  1  0
 12 30  1  0
 14 31  1  0
 19 32  1  0
 19 33  1  0
 21 34  1  0
 22 35  1  0
 25 36  1  0
 26 37  1  0
M  CHG  2   8   1  10  -1
M  END
$$$$
