
     RDKit          3D

 52 56  0  0  0  0  0  0  0  0999 V2000
   -3.8361   -0.6429    0.2084 C   0  0  0  0  0  0  0  0  0  0  0  0
   -2.4824   -1.3131    0.4065 C   0  0  0  0  0  0  0  0  0  0  0  0
   -1.3222   -0.3146    0.3191 C   0  0  0  0  0  0  0  0  0  0  0  0
   -1.3769    0.8420    1.2982 C   0  0  0  0  0  0  0  0  0  0  0  0
   -1.5449    1.9753    0.8601 O   0  0  0  0  0  0  0  0  0  0  0  0
   -1.3088    0.6037    2.7698 C   0  0  0  0  0  0  0  0  0  0  0  0
   -1.7098    1.6424    3.6240 C   0  0  0  0  0  0  0  0  0  0  0  0
   -1.6801    1.4721    5.0110 C   0  0  0  0  0  0  0  0  0  0  0  0
   -1.2433    0.2642    5.5492 C   0  0  0  0  0  0  0  0  0  0  0  0
   -1.2054    0.0520    7.2556 Cl  0  0  0  0  0  0  0  0  0  0  0  0
   -0.8335   -0.7718    4.7123 C   0  0  0  0  0  0  0  0  0  0  0  0
   -0.8652   -0.6034    3.3236 C   0  0  0  0  0  0  0  0  0  0  0  0
   -0.8115    0.0319   -1.0842 C   0  0  0  0  0  0  0  0  0  0  0  0
   -1.2034   -0.6673   -2.3488 C   0  0  0  0  0  0  0  0  0  0  0  0
   -2.0073   -0.0467   -3.3152 C   0  0  0  0  0  0  0  0  0  0  0  0
   -2.3202   -0.6895   -4.5171 C   0  0  0  0  0  0  0  0  0  0  0  0
   -1.8301   -1.9684   -4.7766 C   0  0  0  0  0  0  0  0  0  0  0  0
   -1.0340   -2.6085   -3.8317 C   0  0  0  0  0  0  0  0  0  0  0  0
   -0.7353   -1.9541   -2.6367 C   0  0  0  0  0  0  0  0  0  0  0  0
    0.0259   -2.6880   -1.6986 O   0  0  0  0  0  0  0  0  0  0  0  0
    0.2664   -2.2299   -0.3993 C   0  0  0  0  0  0  0  0  0  0  0  0
    0.6167   -2.9836    0.4993 O   0  0  0  0  0  0  0  0  0  0  0  0
    0.0858   -0.7709   -0.1619 C   0  0  0  0  0  0  0  0  0  0  0  0
    1.3244   -0.0630    0.3069 C   0  0  0  0  0  0  0  0  0  0  0  0
    1.5256    0.0539    1.5055 O   0  0  0  0  0  0  0  0  0  0  0  0
    2.1323    0.3752   -0.7258 N   0  0  0  0  0  0  0  0  0  0  0  0
    3.3561    1.0684   -0.6195 C   0  0  0  0  0  0  0  0  0  0  0  0
    3.9512    1.4246    0.5918 C   0  0  0  0  0  0  0  0  0  0  0  0
    5.1688    2.1131    0.6076 C   0  0  0  0  0  0  0  0  0  0  0  0
    5.8010    2.4511   -0.5863 C   0  0  0  0  0  0  0  0  0  0  0  0
    5.2162    2.1011   -1.7997 C   0  0  0  0  0  0  0  0  0  0  0  0
    3.9998    1.4133   -1.8159 C   0  0  0  0  0  0  0  0  0  0  0  0
   -3.8862   -0.1232   -0.7531 H   0  0  0  0  0  0  0  0  0  0  0  0
   -4.6347   -1.3910    0.2340 H   0  0  0  0  0  0  0  0  0  0  0  0
   -4.0386    0.0892    0.9964 H   0  0  0  0  0  0  0  0  0  0  0  0
   -2.3896   -2.1171   -0.3294 H   0  0  0  0  0  0  0  0  0  0  0  0
   -2.4720   -1.8074    1.3832 H   0  0  0  0  0  0  0  0  0  0  0  0
   -2.0474    2.5921    3.2122 H   0  0  0  0  0  0  0  0  0  0  0  0
   -1.9933    2.2852    5.6605 H   0  0  0  0  0  0  0  0  0  0  0  0
   -0.4753   -1.7092    5.1308 H   0  0  0  0  0  0  0  0  0  0  0  0
   -0.5065   -1.4185    2.7007 H   0  0  0  0  0  0  0  0  0  0  0  0
   -0.5532    1.0831   -1.2273 H   0  0  0  0  0  0  0  0  0  0  0  0
   -2.3946    0.9550   -3.1340 H   0  0  0  0  0  0  0  0  0  0  0  0
   -2.9466   -0.1886   -5.2520 H   0  0  0  0  0  0  0  0  0  0  0  0
   -2.0761   -2.4672   -5.7109 H   0  0  0  0  0  0  0  0  0  0  0  0
   -0.6615   -3.6120   -4.0183 H   0  0  0  0  0  0  0  0  0  0  0  0
    1.8196    0.1898   -1.6706 H   0  0  0  0  0  0  0  0  0  0  0  0
    3.4964    1.1839    1.5475 H   0  0  0  0  0  0  0  0  0  0  0  0
    5.6205    2.3843    1.5587 H   0  0  0  0  0  0  0  0  0  0  0  0
    6.7467    2.9863   -0.5689 H   0  0  0  0  0  0  0  0  0  0  0  0
    5.7059    2.3632   -2.7339 H   0  0  0  0  0  0  0  0  0  0  0  0
    3.5670    1.1536   -2.7783 H   0  0  0  0  0  0  0  0  0  0  0  0
  1  2  1  0
  2  3  1  0
  3  4  1  0
  4  5  2  0
  4  6  1  0
  6  7  2  0
  7  8  1  0
  8  9  2  0
  9 10  1  0
  9 11  1  0
 11 12  2  0
  3 13  1  0
 13 14  1  0
 14 15  2  0
 15 16  1  0
 16 17  2  0
 17 18  1  0
 18 19  2  0
 19 20  1  0
 20 21  1  0
 21 22  2  0
 21 23  1  0
 23 24  1  0
 24 25  2  0
 24 26  1  0
 26 27  1  0
 27 28  2  0
 28 29  1  0
 29 30  2  0
 30 31  1  0
 31 32  2  0
 23  3  1  0
 32 27  1  0
 12  6  1  0
 23 13  1  0
 19 14  1  0
  1 33  1  0
  1 34  1  0
  1 35  1  0
  2 36  1  0
  2 37  1  0
  7 38  1  0
  8 39  1  0
 11 40  1  0
 12 41  1  0
 13 42  1  0
 15 43  1  0
 16 44  1  0
 17 45  1  0
 18 46  1  0
 26 47  1  0
 28 48  1  0
 29 49  1  0
 30 50  1  0
 31 51  1  0
 32 52  1  0
M  END
$$$$
