
     RDKit          3D

 57 61  0  0  0  0  0  0  0  0999 V2000
    3.4075   -4.3364   -1.0691 C   0  0  0  0  0  0  0  0  0  0  0  0
    3.8809   -3.1470   -1.6150 C   0  0  0  0  0  0  0  0  0  0  0  0
    3.0454   -2.0305   -1.6893 C   0  0  0  0  0  0  0  0  0  0  0  0
    1.7278   -2.0802   -1.2060 C   0  0  0  0  0  0  0  0  0  0  0  0
    0.8268   -0.8628   -1.2927 C   0  0  0  0  0  0  0  0  0  0  0  0
    0.8093    0.0888   -0.1453 N   0  0  0  0  0  0  0  0  0  0  0  0
    2.1569    0.6692    0.0755 C   0  0  0  0  0  0  0  0  0  0  0  0
    2.5541    1.6059   -1.0197 C   0  0  0  0  0  0  0  0  0  0  0  0
    1.9280    2.6727   -1.6336 C   0  0  0  0  0  0  0  0  0  0  0  0
    2.8353    3.1672   -2.6006 C   0  0  0  0  0  0  0  0  0  0  0  0
    3.9573    2.3777   -2.5118 C   0  0  0  0  0  0  0  0  0  0  0  0
    3.7970    1.4292   -1.5541 O   0  0  0  0  0  0  0  0  0  0  0  0
    0.2528   -0.4908    1.1102 C   0  0  0  0  0  0  0  0  0  0  0  0
    0.1271    0.5029    2.2772 C   0  0  0  0  0  0  0  0  0  0  0  0
    0.2278    0.0238    3.5925 C   0  0  0  0  0  0  0  0  0  0  0  0
    0.0765    0.9103    4.6472 C   0  0  0  0  0  0  0  0  0  0  0  0
   -0.1660    2.2276    4.4890 N   0  0  0  0  0  0  0  0  0  0  0  0
   -0.2687    2.6769    3.2225 C   0  0  0  0  0  0  0  0  0  0  0  0
   -0.1400    1.8680    2.1036 C   0  0  0  0  0  0  0  0  0  0  0  0
   -1.0788   -1.1861    0.9475 C   0  0  0  0  0  0  0  0  0  0  0  0
   -1.3537   -2.4060    1.3791 N   0  0  0  0  0  0  0  0  0  0  0  0
   -2.6560   -2.6562    1.0509 N   0  0  0  0  0  0  0  0  0  0  0  0
   -3.1953   -1.6167    0.4391 N   0  0  0  0  0  0  0  0  0  0  0  0
   -2.2261   -0.6824    0.3808 N   0  0  0  0  0  0  0  0  0  0  0  0
   -2.4861    0.6039   -0.2309 C   0  0  0  0  0  0  0  0  0  0  0  0
   -3.2015    0.5249   -1.5832 C   0  0  0  0  0  0  0  0  0  0  0  0
   -4.6957    0.6387   -1.2818 C   0  0  0  0  0  0  0  0  0  0  0  0
   -4.8193    1.1317    0.1578 C   0  0  0  0  0  0  0  0  0  0  0  0
   -3.4078    1.4944    0.6027 C   0  0  0  0  0  0  0  0  0  0  0  0
    1.2610   -3.2941   -0.6823 C   0  0  0  0  0  0  0  0  0  0  0  0
    2.0962   -4.4114   -0.6079 C   0  0  0  0  0  0  0  0  0  0  0  0
    4.0553   -5.2070   -1.0126 H   0  0  0  0  0  0  0  0  0  0  0  0
    4.9001   -3.0871   -1.9881 H   0  0  0  0  0  0  0  0  0  0  0  0
    3.4348   -1.1172   -2.1341 H   0  0  0  0  0  0  0  0  0  0  0  0
   -0.1929   -1.2020   -1.5135 H   0  0  0  0  0  0  0  0  0  0  0  0
    1.0895   -0.3104   -2.2053 H   0  0  0  0  0  0  0  0  0  0  0  0
    2.1893    1.2771    0.9855 H   0  0  0  0  0  0  0  0  0  0  0  0
    2.9160   -0.1046    0.2329 H   0  0  0  0  0  0  0  0  0  0  0  0
    0.9373    3.0413   -1.4095 H   0  0  0  0  0  0  0  0  0  0  0  0
    2.6931    3.9977   -3.2775 H   0  0  0  0  0  0  0  0  0  0  0  0
    4.9058    2.3624   -3.0306 H   0  0  0  0  0  0  0  0  0  0  0  0
    0.9687   -1.2563    1.4448 H   0  0  0  0  0  0  0  0  0  0  0  0
    0.4078   -1.0279    3.7984 H   0  0  0  0  0  0  0  0  0  0  0  0
    0.1447    0.5713    5.6771 H   0  0  0  0  0  0  0  0  0  0  0  0
   -0.4637    3.7413    3.1251 H   0  0  0  0  0  0  0  0  0  0  0  0
   -0.2295    2.3113    1.1184 H   0  0  0  0  0  0  0  0  0  0  0  0
   -1.5245    1.0966   -0.3760 H   0  0  0  0  0  0  0  0  0  0  0  0
   -2.9647   -0.3813   -2.1506 H   0  0  0  0  0  0  0  0  0  0  0  0
   -2.9025    1.3819   -2.2000 H   0  0  0  0  0  0  0  0  0  0  0  0
   -5.1773    1.3310   -1.9809 H   0  0  0  0  0  0  0  0  0  0  0  0
   -5.1933   -0.3309   -1.3948 H   0  0  0  0  0  0  0  0  0  0  0  0
   -5.2251    0.3349    0.7916 H   0  0  0  0  0  0  0  0  0  0  0  0
   -5.4993    1.9856    0.2394 H   0  0  0  0  0  0  0  0  0  0  0  0
   -3.2778    1.3706    1.6825 H   0  0  0  0  0  0  0  0  0  0  0  0
   -3.2154    2.5470    0.3601 H   0  0  0  0  0  0  0  0  0  0  0  0
    0.2346   -3.3957   -0.3394 H   0  0  0  0  0  0  0  0  0  0  0  0
    1.7164   -5.3429   -0.1952 H   0  0  0  0  0  0  0  0  0  0  0  0
  1  2  2  0
  2  3  1  0
  3  4  2  0
  4  5  1  0
  5  6  1  0
  6  7  1  0
  7  8  1  0
  8  9  2  0
  9 10  1  0
 10 11  2  0
 11 12  1  0
  6 13  1  0
 13 14  1  0
 14 15  2  0
 15 16  1  0
 16 17  2  0
 17 18  1  0
 18 19  2  0
 13 20  1  0
 20 21  2  0
 21 22  1  0
 22 23  2  0
 23 24  1  0
 24 25  1  0
 25 26  1  0
 26 27  1  0
 27 28  1  0
 28 29  1  0
  4 30  1  0
 30 31  2  0
 31  1  1  0
 12  8  1  0
 19 14  1  0
 24 20  1  0
 29 25  1  0
  1 32  1  0
  2 33  1  0
  3 34  1  0
  5 35  1  0
  5 36  1  0
  7 37  1  0
  7 38  1  0
  9 39  1  0
 10 40  1  0
 11 41  1  0
 13 42  1  0
 15 43  1  0
 16 44  1  0
 18 45  1  0
 19 46  1  0
 25 47  1  0
 26 48  1  0
 26 49  1  0
 27 50  1  0
 27 51  1  0
 28 52  1  0
 28 53  1  0
 29 54  1  0
 29 55  1  0
 30 56  1  0
 31 57  1  0
M  END
$$$$
