
     RDKit          3D

 33 36  0  0  0  0  0  0  0  0999 V2000
    6.8604   -0.0067   -0.8633 C   0  0  0  0  0  0  0  0  0  0  0  0
    5.3955    0.0386   -0.5439 C   0  0  0  0  0  0  0  0  0  0  0  0
    4.4529   -0.4135   -1.4736 C   0  0  0  0  0  0  0  0  0  0  0  0
    3.0854   -0.3423   -1.1891 C   0  0  0  0  0  0  0  0  0  0  0  0
    2.6345    0.1921    0.0257 C   0  0  0  0  0  0  0  0  0  0  0  0
    1.2077    0.2700    0.3300 C   0  0  0  0  0  0  0  0  0  0  0  0
    0.7390    0.8010    1.5295 N   0  0  0  0  0  0  0  0  0  0  0  0
   -0.5485    0.6819    1.3901 C   0  0  0  0  0  0  0  0  0  0  0  0
   -1.9162    1.0622    2.3436 S   0  0  0  0  0  0  0  0  0  0  0  0
   -2.9811    0.4152    1.0777 C   0  0  0  0  0  0  0  0  0  0  0  0
   -4.3107    0.4459    1.2489 C   0  0  0  0  0  0  0  0  0  0  0  0
   -5.2986   -0.0264    0.3445 C   0  0  0  0  0  0  0  0  0  0  0  0
   -5.3534   -1.1396   -0.4867 C   0  0  0  0  0  0  0  0  0  0  0  0
   -6.6053   -1.1370   -1.1481 C   0  0  0  0  0  0  0  0  0  0  0  0
   -7.2729   -0.0384   -0.6764 C   0  0  0  0  0  0  0  0  0  0  0  0
   -6.5109    0.6226    0.2263 O   0  0  0  0  0  0  0  0  0  0  0  0
   -2.1937   -0.0795   -0.1027 C   0  0  0  0  0  0  0  0  0  0  0  0
   -2.5556   -0.5654   -1.1566 O   0  0  0  0  0  0  0  0  0  0  0  0
   -0.8652    0.1242    0.2090 N   0  0  0  0  0  0  0  0  0  0  0  0
    0.2362   -0.1589   -0.5072 N   0  0  0  0  0  0  0  0  0  0  0  0
    3.5818    0.6573    0.9477 C   0  0  0  0  0  0  0  0  0  0  0  0
    4.9494    0.5863    0.6637 C   0  0  0  0  0  0  0  0  0  0  0  0
    7.0922   -0.8565   -1.5139 H   0  0  0  0  0  0  0  0  0  0  0  0
    7.4554   -0.1245    0.0484 H   0  0  0  0  0  0  0  0  0  0  0  0
    7.1624    0.9171   -1.3662 H   0  0  0  0  0  0  0  0  0  0  0  0
    4.7745   -0.8260   -2.4275 H   0  0  0  0  0  0  0  0  0  0  0  0
    2.3736   -0.7059   -1.9281 H   0  0  0  0  0  0  0  0  0  0  0  0
   -4.7159    0.9088    2.1470 H   0  0  0  0  0  0  0  0  0  0  0  0
   -4.5770   -1.8828   -0.6082 H   0  0  0  0  0  0  0  0  0  0  0  0
   -6.9718   -1.8516   -1.8712 H   0  0  0  0  0  0  0  0  0  0  0  0
   -8.2481    0.3869   -0.8680 H   0  0  0  0  0  0  0  0  0  0  0  0
    3.2616    1.0832    1.8969 H   0  0  0  0  0  0  0  0  0  0  0  0
    5.6627    0.9617    1.3942 H   0  0  0  0  0  0  0  0  0  0  0  0
  1  2  1  0
  2  3  2  0
  3  4  1  0
  4  5  2  0
  5  6  1  0
  6  7  1  0
  7  8  2  0
  8  9  1  0
  9 10  1  0
 10 11  2  3
 11 12  1  0
 12 13  2  0
 13 14  1  0
 14 15  2  0
 15 16  1  0
 10 17  1  0
 17 18  2  0
 17 19  1  0
 19 20  1  0
  5 21  1  0
 21 22  2  0
 22  2  1  0
 20  6  2  0
 19  8  1  0
 16 12  1  0
  1 23  1  0
  1 24  1  0
  1 25  1  0
  3 26  1  0
  4 27  1  0
 11 28  1  0
 13 29  1  0
 14 30  1  0
 15 31  1  0
 21 32  1  0
 22 33  1  0
M  END
$$$$
