
     RDKit          3D

 52 53  0  0  0  0  0  0  0  0999 V2000
    3.6207   -3.6614    1.8846 C   0  0  0  0  0  0  0  0  0  0  0  0
    4.3735   -2.8136    2.7427 O   0  0  0  0  0  0  0  0  0  0  0  0
    4.4398   -1.4895    2.4045 C   0  0  0  0  0  0  0  0  0  0  0  0
    5.1982   -0.7046    3.2732 C   0  0  0  0  0  0  0  0  0  0  0  0
    5.3463    0.6618    3.0425 C   0  0  0  0  0  0  0  0  0  0  0  0
    4.7334    1.2557    1.9376 C   0  0  0  0  0  0  0  0  0  0  0  0
    3.9692    0.4861    1.0606 C   0  0  0  0  0  0  0  0  0  0  0  0
    3.3193    1.0058   -0.0750 N   0  0  0  0  0  0  0  0  0  0  0  0
    3.2398    2.3262   -0.4864 C   0  0  0  0  0  0  0  0  0  0  0  0
    3.7108    3.3063    0.0837 O   0  0  0  0  0  0  0  0  0  0  0  0
    2.4273    2.4826   -1.7770 C   0  0  0  0  0  0  0  0  0  0  0  0
    0.9914    2.3428   -1.5210 N   0  0  0  0  0  0  0  0  0  0  0  0
    0.3035    3.5316   -1.0350 C   0  0  0  0  0  0  0  0  0  0  0  0
    0.4823    1.0551   -1.4589 C   0  0  0  0  0  0  0  0  0  0  0  0
    1.1804    0.0678   -1.6995 O   0  0  0  0  0  0  0  0  0  0  0  0
   -0.9301    0.8888   -1.0398 C   0  0  0  0  0  0  0  0  0  0  0  0
   -1.6062   -0.2065   -1.4183 C   0  0  0  0  0  0  0  0  0  0  0  0
   -2.9999   -0.4708   -1.0190 C   0  0  0  0  0  0  0  0  0  0  0  0
   -3.2744   -1.7423   -0.4807 C   0  0  0  0  0  0  0  0  0  0  0  0
   -4.5669   -2.0865   -0.0872 C   0  0  0  0  0  0  0  0  0  0  0  0
   -4.9555   -3.2802    0.4540 O   0  0  0  0  0  0  0  0  0  0  0  0
   -3.9474   -4.2678    0.6303 C   0  0  0  0  0  0  0  0  0  0  0  0
   -5.5929   -1.1558   -0.2408 C   0  0  0  0  0  0  0  0  0  0  0  0
   -5.3407    0.1062   -0.7865 C   0  0  0  0  0  0  0  0  0  0  0  0
   -4.0485    0.4587   -1.1870 C   0  0  0  0  0  0  0  0  0  0  0  0
   -3.7195    1.6676   -1.7475 O   0  0  0  0  0  0  0  0  0  0  0  0
   -4.7792    2.5715   -2.0319 C   0  0  0  0  0  0  0  0  0  0  0  0
    3.8284   -0.8906    1.2998 C   0  0  0  0  0  0  0  0  0  0  0  0
    3.6711   -4.6766    2.2896 H   0  0  0  0  0  0  0  0  0  0  0  0
    2.5670   -3.3644    1.8618 H   0  0  0  0  0  0  0  0  0  0  0  0
    4.0483   -3.6834    0.8768 H   0  0  0  0  0  0  0  0  0  0  0  0
    5.6776   -1.1613    4.1354 H   0  0  0  0  0  0  0  0  0  0  0  0
    5.9398    1.2674    3.7224 H   0  0  0  0  0  0  0  0  0  0  0  0
    4.8744    2.3215    1.7886 H   0  0  0  0  0  0  0  0  0  0  0  0
    2.7796    0.3420   -0.6337 H   0  0  0  0  0  0  0  0  0  0  0  0
    2.6307    3.4625   -2.2219 H   0  0  0  0  0  0  0  0  0  0  0  0
    2.7598    1.7288   -2.5003 H   0  0  0  0  0  0  0  0  0  0  0  0
    0.4200    3.5858    0.0511 H   0  0  0  0  0  0  0  0  0  0  0  0
    0.7311    4.4255   -1.4981 H   0  0  0  0  0  0  0  0  0  0  0  0
   -0.7589    3.4994   -1.2879 H   0  0  0  0  0  0  0  0  0  0  0  0
   -1.3854    1.6356   -0.4055 H   0  0  0  0  0  0  0  0  0  0  0  0
   -1.1322   -0.9699   -2.0310 H   0  0  0  0  0  0  0  0  0  0  0  0
   -2.4539   -2.4449   -0.3707 H   0  0  0  0  0  0  0  0  0  0  0  0
   -3.1754   -3.9242    1.3269 H   0  0  0  0  0  0  0  0  0  0  0  0
   -4.4200   -5.1529    1.0673 H   0  0  0  0  0  0  0  0  0  0  0  0
   -3.5116   -4.5629   -0.3298 H   0  0  0  0  0  0  0  0  0  0  0  0
   -6.6036   -1.4164    0.0655 H   0  0  0  0  0  0  0  0  0  0  0  0
   -6.1798    0.7867   -0.8845 H   0  0  0  0  0  0  0  0  0  0  0  0
   -5.2656    2.9089   -1.1109 H   0  0  0  0  0  0  0  0  0  0  0  0
   -5.5026    2.1305   -2.7258 H   0  0  0  0  0  0  0  0  0  0  0  0
   -4.3459    3.4505   -2.5187 H   0  0  0  0  0  0  0  0  0  0  0  0
    3.2326   -1.4806    0.6113 H   0  0  0  0  0  0  0  0  0  0  0  0
  1  2  1  0
  2  3  1  0
  3  4  2  0
  4  5  1  0
  5  6  2  0
  6  7  1  0
  7  8  1  0
  8  9  1  0
  9 10  2  0
  9 11  1  0
 11 12  1  0
 12 13  1  0
 12 14  1  0
 14 15  2  0
 14 16  1  0
 16 17  2  3
 17 18  1  0
 18 19  2  0
 19 20  1  0
 20 21  1  0
 21 22  1  0
 20 23  2  0
 23 24  1  0
 24 25  2  0
 25 26  1  0
 26 27  1  0
  7 28  2  0
 28  3  1  0
 25 18  1  0
  1 29  1  0
  1 30  1  0
  1 31  1  0
  4 32  1  0
  5 33  1  0
  6 34  1  0
  8 35  1  0
 11 36  1  0
 11 37  1  0
 13 38  1  0
 13 39  1  0
 13 40  1  0
 16 41  1  0
 17 42  1  0
 19 43  1  0
 22 44  1  0
 22 45  1  0
 22 46  1  0
 23 47  1  0
 24 48  1  0
 27 49  1  0
 27 50  1  0
 27 51  1  0
 28 52  1  0
M  END
$$$$
