
     RDKit          3D

 48 50  0  0  0  0  0  0  0  0999 V2000
    6.8088   -2.1049    1.1720 C   0  0  0  0  0  0  0  0  0  0  0  0
    7.0293   -0.6022    1.2479 C   0  0  0  0  0  0  0  0  0  0  0  0
    6.5843    0.1444   -0.0135 C   0  0  0  0  0  0  0  0  0  0  0  0
    5.0889    0.0428   -0.3166 C   0  0  0  0  0  0  0  0  0  0  0  0
    4.3552    0.5466    0.7982 O   0  0  0  0  0  0  0  0  0  0  0  0
    2.9923    0.5368    0.7025 C   0  0  0  0  0  0  0  0  0  0  0  0
    2.2455    0.0817   -0.3803 C   0  0  0  0  0  0  0  0  0  0  0  0
    0.8438    0.1302   -0.3436 C   0  0  0  0  0  0  0  0  0  0  0  0
    0.1594    0.6492    0.7599 C   0  0  0  0  0  0  0  0  0  0  0  0
   -1.2459    0.6743    0.8653 N   0  0  0  0  0  0  0  0  0  0  0  0
   -2.1705    0.6331   -0.1452 C   0  0  0  0  0  0  0  0  0  0  0  0
   -1.9374    0.6531   -1.4129 N   0  0  0  0  0  0  0  0  0  0  0  0
   -2.9989    0.6913   -2.2584 C   0  0  0  0  0  0  0  0  0  0  0  0
   -2.7219    0.9757   -3.5544 N   0  0  0  0  0  0  0  0  0  0  0  0
   -4.2201    0.4474   -1.9335 N   0  0  0  0  0  0  0  0  0  0  0  0
   -4.4522    0.1240   -0.5385 C   0  0  0  0  0  0  0  0  0  0  0  0
   -5.8082    0.7375   -0.1222 C   0  0  0  0  0  0  0  0  0  0  0  0
   -6.6443   -0.4208    0.4109 C   0  0  0  0  0  0  0  0  0  0  0  0
   -6.1540   -1.6125   -0.3886 C   0  0  0  0  0  0  0  0  0  0  0  0
   -4.6461   -1.4055   -0.4158 C   0  0  0  0  0  0  0  0  0  0  0  0
   -3.4278    0.5738    0.3676 N   0  0  0  0  0  0  0  0  0  0  0  0
    0.9260    1.0790    1.8533 C   0  0  0  0  0  0  0  0  0  0  0  0
    2.3240    1.0319    1.8207 C   0  0  0  0  0  0  0  0  0  0  0  0
    5.7437   -2.3527    1.1435 H   0  0  0  0  0  0  0  0  0  0  0  0
    7.2880   -2.5284    0.2838 H   0  0  0  0  0  0  0  0  0  0  0  0
    7.2381   -2.5923    2.0534 H   0  0  0  0  0  0  0  0  0  0  0  0
    6.5124   -0.2027    2.1280 H   0  0  0  0  0  0  0  0  0  0  0  0
    8.0987   -0.4138    1.4012 H   0  0  0  0  0  0  0  0  0  0  0  0
    7.1529   -0.2189   -0.8774 H   0  0  0  0  0  0  0  0  0  0  0  0
    6.8419    1.2025    0.1209 H   0  0  0  0  0  0  0  0  0  0  0  0
    4.8748    0.6470   -1.2066 H   0  0  0  0  0  0  0  0  0  0  0  0
    4.8185   -1.0005   -0.5152 H   0  0  0  0  0  0  0  0  0  0  0  0
    2.7130   -0.3235   -1.2710 H   0  0  0  0  0  0  0  0  0  0  0  0
    0.2985   -0.2573   -1.1994 H   0  0  0  0  0  0  0  0  0  0  0  0
   -1.5684    1.1856    1.6750 H   0  0  0  0  0  0  0  0  0  0  0  0
   -1.7704    0.7421   -3.8003 H   0  0  0  0  0  0  0  0  0  0  0  0
   -3.4269    0.6176   -4.1827 H   0  0  0  0  0  0  0  0  0  0  0  0
   -5.7139    1.5266    0.6325 H   0  0  0  0  0  0  0  0  0  0  0  0
   -6.3219    1.1803   -0.9854 H   0  0  0  0  0  0  0  0  0  0  0  0
   -7.7173   -0.2481    0.2878 H   0  0  0  0  0  0  0  0  0  0  0  0
   -6.4423   -0.5705    1.4782 H   0  0  0  0  0  0  0  0  0  0  0  0
   -6.5613   -1.5857   -1.4061 H   0  0  0  0  0  0  0  0  0  0  0  0
   -6.4336   -2.5655    0.0693 H   0  0  0  0  0  0  0  0  0  0  0  0
   -4.1836   -1.9659   -1.2358 H   0  0  0  0  0  0  0  0  0  0  0  0
   -4.2187   -1.7894    0.5196 H   0  0  0  0  0  0  0  0  0  0  0  0
   -3.4920    0.1574    1.2865 H   0  0  0  0  0  0  0  0  0  0  0  0
    0.4448    1.4645    2.7483 H   0  0  0  0  0  0  0  0  0  0  0  0
    2.8948    1.3822    2.6771 H   0  0  0  0  0  0  0  0  0  0  0  0
  1  2  1  0
  2  3  1  0
  3  4  1  0
  4  5  1  0
  5  6  1  0
  6  7  2  0
  7  8  1  0
  8  9  2  0
  9 10  1  0
 10 11  1  0
 11 12  2  0
 12 13  1  0
 13 14  1  0
 13 15  2  0
 15 16  1  0
 16 17  1  0
 17 18  1  0
 18 19  1  0
 19 20  1  0
 16 21  1  0
  9 22  1  0
 22 23  2  0
 23  6  1  0
 21 11  1  0
 20 16  1  0
  1 24  1  0
  1 25  1  0
  1 26  1  0
  2 27  1  0
  2 28  1  0
  3 29  1  0
  3 30  1  0
  4 31  1  0
  4 32  1  0
  7 33  1  0
  8 34  1  0
 10 35  1  0
 14 36  1  0
 14 37  1  0
 17 38  1  0
 17 39  1  0
 18 40  1  0
 18 41  1  0
 19 42  1  0
 19 43  1  0
 20 44  1  0
 20 45  1  0
 21 46  1  0
 22 47  1  0
 23 48  1  0
M  END
$$$$
