
     RDKit          3D

 59 62  0  0  0  0  0  0  0  0999 V2000
    1.5462    3.1047    3.0842 C   0  0  0  0  0  0  0  0  0  0  0  0
    0.6925    1.8689    3.3262 C   0  0  0  0  0  0  0  0  0  0  0  0
    1.2684    0.5995    2.6966 C   0  0  0  0  0  0  0  0  0  0  0  0
    1.2696    0.6064    1.2447 N   0  0  0  0  0  0  0  0  0  0  0  0
    0.1807    0.3707    0.4153 C   0  0  0  0  0  0  0  0  0  0  0  0
   -1.1705    0.0411    0.8648 C   0  0  0  0  0  0  0  0  0  0  0  0
   -1.4400   -1.1900    1.4795 C   0  0  0  0  0  0  0  0  0  0  0  0
   -2.7315   -1.4961    1.9109 C   0  0  0  0  0  0  0  0  0  0  0  0
   -3.0944   -2.6614    2.5348 O   0  0  0  0  0  0  0  0  0  0  0  0
   -2.0758   -3.6184    2.7889 C   0  0  0  0  0  0  0  0  0  0  0  0
   -3.7581   -0.5598    1.6940 C   0  0  0  0  0  0  0  0  0  0  0  0
   -5.0253   -0.8324    2.1627 O   0  0  0  0  0  0  0  0  0  0  0  0
   -5.7876   -1.4807    1.1458 C   0  0  0  0  0  0  0  0  0  0  0  0
   -3.5058    0.6752    1.0712 C   0  0  0  0  0  0  0  0  0  0  0  0
   -4.5806    1.5131    0.9240 O   0  0  0  0  0  0  0  0  0  0  0  0
   -4.3478    2.7793    0.3224 C   0  0  0  0  0  0  0  0  0  0  0  0
   -2.2074    0.9596    0.6471 C   0  0  0  0  0  0  0  0  0  0  0  0
    0.5224    0.5262   -0.8539 N   0  0  0  0  0  0  0  0  0  0  0  0
    1.8513    0.8041   -0.8393 C   0  0  0  0  0  0  0  0  0  0  0  0
    2.3432    0.8656    0.4326 C   0  0  0  0  0  0  0  0  0  0  0  0
    3.7086    1.1620    0.7031 C   0  0  0  0  0  0  0  0  0  0  0  0
    4.2141    1.2391    1.8168 O   0  0  0  0  0  0  0  0  0  0  0  0
    4.4419    1.3686   -0.4435 N   0  0  0  0  0  0  0  0  0  0  0  0
    3.9926    1.3115   -1.7491 C   0  0  0  0  0  0  0  0  0  0  0  0
    4.7916    1.5274   -2.6610 O   0  0  0  0  0  0  0  0  0  0  0  0
    2.6483    1.0194   -1.9444 N   0  0  0  0  0  0  0  0  0  0  0  0
    2.1236    0.8947   -3.2960 C   0  0  0  0  0  0  0  0  0  0  0  0
    2.2100   -0.5224   -3.8179 C   0  0  0  0  0  0  0  0  0  0  0  0
    1.1576   -1.4244   -3.6048 C   0  0  0  0  0  0  0  0  0  0  0  0
    1.2432   -2.7370   -4.0714 C   0  0  0  0  0  0  0  0  0  0  0  0
    2.3833   -3.1633   -4.7499 C   0  0  0  0  0  0  0  0  0  0  0  0
    3.4403   -2.2793   -4.9589 C   0  0  0  0  0  0  0  0  0  0  0  0
    3.3563   -0.9662   -4.4929 C   0  0  0  0  0  0  0  0  0  0  0  0
    1.5931    3.3575    2.0209 H   0  0  0  0  0  0  0  0  0  0  0  0
    2.5659    2.9563    3.4525 H   0  0  0  0  0  0  0  0  0  0  0  0
    1.1196    3.9642    3.6114 H   0  0  0  0  0  0  0  0  0  0  0  0
    0.6098    1.7118    4.4082 H   0  0  0  0  0  0  0  0  0  0  0  0
   -0.3212    2.0576    2.9562 H   0  0  0  0  0  0  0  0  0  0  0  0
    0.6871   -0.2699    3.0199 H   0  0  0  0  0  0  0  0  0  0  0  0
    2.2878    0.4203    3.0494 H   0  0  0  0  0  0  0  0  0  0  0  0
   -0.6252   -1.8966    1.6002 H   0  0  0  0  0  0  0  0  0  0  0  0
   -1.3028   -3.2081    3.4470 H   0  0  0  0  0  0  0  0  0  0  0  0
   -2.5351   -4.4672    3.3045 H   0  0  0  0  0  0  0  0  0  0  0  0
   -1.6436   -3.9912    1.8545 H   0  0  0  0  0  0  0  0  0  0  0  0
   -5.9119   -0.8380    0.2675 H   0  0  0  0  0  0  0  0  0  0  0  0
   -5.3364   -2.4357    0.8550 H   0  0  0  0  0  0  0  0  0  0  0  0
   -6.7812   -1.6883    1.5543 H   0  0  0  0  0  0  0  0  0  0  0  0
   -4.0063    2.6674   -0.7118 H   0  0  0  0  0  0  0  0  0  0  0  0
   -3.6413    3.3733    0.9115 H   0  0  0  0  0  0  0  0  0  0  0  0
   -5.2993    3.3193    0.3014 H   0  0  0  0  0  0  0  0  0  0  0  0
   -1.9667    1.8915    0.1441 H   0  0  0  0  0  0  0  0  0  0  0  0
    5.4196    1.5804   -0.3226 H   0  0  0  0  0  0  0  0  0  0  0  0
    2.6793    1.5617   -3.9670 H   0  0  0  0  0  0  0  0  0  0  0  0
    1.0850    1.2482   -3.3214 H   0  0  0  0  0  0  0  0  0  0  0  0
    0.2662   -1.1070   -3.0660 H   0  0  0  0  0  0  0  0  0  0  0  0
    0.4206   -3.4265   -3.9017 H   0  0  0  0  0  0  0  0  0  0  0  0
    2.4500   -4.1855   -5.1124 H   0  0  0  0  0  0  0  0  0  0  0  0
    4.3326   -2.6120   -5.4825 H   0  0  0  0  0  0  0  0  0  0  0  0
    4.1935   -0.2893   -4.6558 H   0  0  0  0  0  0  0  0  0  0  0  0
  1  2  1  0
  2  3  1  0
  3  4  1  0
  4  5  1  0
  5  6  1  0
  6  7  2  0
  7  8  1  0
  8  9  1  0
  9 10  1  0
  8 11  2  0
 11 12  1  0
 12 13  1  0
 11 14  1  0
 14 15  1  0
 15 16  1  0
 14 17  2  0
  5 18  2  0
 18 19  1  0
 19 20  2  0
 20 21  1  0
 21 22  2  0
 21 23  1  0
 23 24  1  0
 24 25  2  0
 24 26  1  0
 26 27  1  0
 27 28  1  0
 28 29  2  0
 29 30  1  0
 30 31  2  0
 31 32  1  0
 32 33  2  0
 20  4  1  0
 33 28  1  0
 17  6  1  0
 26 19  1  0
  1 34  1  0
  1 35  1  0
  1 36  1  0
  2 37  1  0
  2 38  1  0
  3 39  1  0
  3 40  1  0
  7 41  1  0
 10 42  1  0
 10 43  1  0
 10 44  1  0
 13 45  1  0
 13 46  1  0
 13 47  1  0
 16 48  1  0
 16 49  1  0
 16 50  1  0
 17 51  1  0
 23 52  1  0
 27 53  1  0
 27 54  1  0
 29 55  1  0
 30 56  1  0
 31 57  1  0
 32 58  1  0
 33 59  1  0
M  END
$$$$
