
     RDKit          3D

 35 37  0  0  0  0  0  0  0  0999 V2000
   -2.0988   -2.4745    0.4026 C   0  0  0  0  0  0  0  0  0  0  0  0
   -1.2551   -1.2543    0.2434 C   0  0  0  0  0  0  0  0  0  0  0  0
    0.0523   -1.2880    0.3042 N   0  0  0  0  0  0  0  0  0  0  0  0
    0.4655    0.0337    0.1643 N   0  0  0  0  0  0  0  0  0  0  0  0
    1.7978    0.3650    0.1978 C   0  0  0  0  0  0  0  0  0  0  0  0
    2.3692    1.5442    0.0860 N   0  0  0  0  0  0  0  0  0  0  0  0
    3.7196    1.3149    0.1878 C   0  0  0  0  0  0  0  0  0  0  0  0
    4.7897    2.2194    0.1372 C   0  0  0  0  0  0  0  0  0  0  0  0
    6.0938    1.7247    0.2685 C   0  0  0  0  0  0  0  0  0  0  0  0
    6.3268    0.3581    0.4466 C   0  0  0  0  0  0  0  0  0  0  0  0
    5.2713   -0.5602    0.4997 C   0  0  0  0  0  0  0  0  0  0  0  0
    3.9835   -0.0384    0.3659 C   0  0  0  0  0  0  0  0  0  0  0  0
    2.7434   -0.6160    0.3679 N   0  0  0  0  0  0  0  0  0  0  0  0
   -0.5597    0.9713    0.0093 C   0  0  0  0  0  0  0  0  0  0  0  0
   -0.5670    2.1811   -0.1210 O   0  0  0  0  0  0  0  0  0  0  0  0
   -1.7665    0.1061    0.0215 C   0  0  0  0  0  0  0  0  0  0  0  0
   -3.0015    0.5951   -0.1312 C   0  0  0  0  0  0  0  0  0  0  0  0
   -4.2354   -0.0484   -0.2149 N   0  0  0  0  0  0  0  0  0  0  0  0
   -5.4321    0.6891    0.2250 C   0  0  0  0  0  0  0  0  0  0  0  0
   -4.5168   -0.8956   -1.3860 C   0  0  0  0  0  0  0  0  0  0  0  0
   -2.2690   -2.9309   -0.5754 H   0  0  0  0  0  0  0  0  0  0  0  0
   -1.5761   -3.1978    1.0359 H   0  0  0  0  0  0  0  0  0  0  0  0
   -3.0532   -2.2381    0.8766 H   0  0  0  0  0  0  0  0  0  0  0  0
    4.5997    3.2779   -0.0010 H   0  0  0  0  0  0  0  0  0  0  0  0
    6.9327    2.4156    0.2312 H   0  0  0  0  0  0  0  0  0  0  0  0
    7.3498    0.0005    0.5462 H   0  0  0  0  0  0  0  0  0  0  0  0
    5.4523   -1.6203    0.6381 H   0  0  0  0  0  0  0  0  0  0  0  0
    2.5181   -1.5930    0.4749 H   0  0  0  0  0  0  0  0  0  0  0  0
   -3.1131    1.6805   -0.1884 H   0  0  0  0  0  0  0  0  0  0  0  0
   -6.2836    0.0089    0.3344 H   0  0  0  0  0  0  0  0  0  0  0  0
   -5.6949    1.4696   -0.4973 H   0  0  0  0  0  0  0  0  0  0  0  0
   -5.2564    1.1565    1.2002 H   0  0  0  0  0  0  0  0  0  0  0  0
   -3.6226   -1.4180   -1.7377 H   0  0  0  0  0  0  0  0  0  0  0  0
   -5.2682   -1.6505   -1.1322 H   0  0  0  0  0  0  0  0  0  0  0  0
   -4.8953   -0.2879   -2.2156 H   0  0  0  0  0  0  0  0  0  0  0  0
  1  2  1  0
  2  3  2  0
  3  4  1  0
  4  5  1  0
  5  6  2  0
  6  7  1  0
  7  8  2  0
  8  9  1  0
  9 10  2  0
 10 11  1  0
 11 12  2  0
 12 13  1  0
  4 14  1  0
 14 15  2  0
 14 16  1  0
 16 17  2  3
 17 18  1  0
 18 19  1  0
 18 20  1  0
 16  2  1  0
 13  5  1  0
 12  7  1  0
  1 21  1  0
  1 22  1  0
  1 23  1  0
  8 24  1  0
  9 25  1  0
 10 26  1  0
 11 27  1  0
 13 28  1  0
 17 29  1  0
 19 30  1  0
 19 31  1  0
 19 32  1  0
 20 33  1  0
 20 34  1  0
 20 35  1  0
M  END
$$$$
