
     RDKit          3D

 33 34  0  0  0  0  0  0  0  0999 V2000
   -5.5105    0.7249    1.6080 C   0  0  0  0  0  0  0  0  0  0  0  0
   -4.5296   -0.1619    1.0781 O   0  0  0  0  0  0  0  0  0  0  0  0
   -3.2804    0.3543    0.8676 C   0  0  0  0  0  0  0  0  0  0  0  0
   -2.8309    1.6056    1.2852 C   0  0  0  0  0  0  0  0  0  0  0  0
   -1.5302    2.0215    0.9731 C   0  0  0  0  0  0  0  0  0  0  0  0
   -0.6530    1.1855    0.2629 C   0  0  0  0  0  0  0  0  0  0  0  0
    0.6980    1.7348   -0.0579 C   0  0  0  0  0  0  0  0  0  0  0  0
    1.1735    2.5924    0.6910 O   0  0  0  0  0  0  0  0  0  0  0  0
    1.4116    1.3026   -1.3188 C   0  0  0  0  0  0  0  0  0  0  0  0
    2.5383    0.3821   -1.0069 C   0  0  0  0  0  0  0  0  0  0  0  0
    2.8283   -0.1346    0.1716 N   0  0  0  0  0  0  0  0  0  0  0  0
    3.9013   -0.9988    0.1212 N   0  0  0  0  0  0  0  0  0  0  0  0
    4.3784   -1.1253   -1.1000 C   0  0  0  0  0  0  0  0  0  0  0  0
    5.5058   -2.0118   -1.4842 C   0  0  0  0  0  0  0  0  0  0  0  0
    3.5658   -0.1735   -2.2758 S   0  0  0  0  0  0  0  0  0  0  0  0
   -1.0894   -0.0947   -0.0947 C   0  0  0  0  0  0  0  0  0  0  0  0
   -0.2683   -0.9750   -0.7471 O   0  0  0  0  0  0  0  0  0  0  0  0
    0.1564   -2.0194    0.1388 C   0  0  0  0  0  0  0  0  0  0  0  0
   -2.4060   -0.4889    0.1780 C   0  0  0  0  0  0  0  0  0  0  0  0
   -6.4686    0.1947    1.6271 H   0  0  0  0  0  0  0  0  0  0  0  0
   -5.6348    1.6075    0.9715 H   0  0  0  0  0  0  0  0  0  0  0  0
   -5.2665    1.0141    2.6362 H   0  0  0  0  0  0  0  0  0  0  0  0
   -3.4607    2.2848    1.8539 H   0  0  0  0  0  0  0  0  0  0  0  0
   -1.2004    3.0086    1.2957 H   0  0  0  0  0  0  0  0  0  0  0  0
    1.7786    2.2078   -1.8122 H   0  0  0  0  0  0  0  0  0  0  0  0
    0.7159    0.8426   -2.0244 H   0  0  0  0  0  0  0  0  0  0  0  0
    5.9781   -2.4303   -0.5915 H   0  0  0  0  0  0  0  0  0  0  0  0
    6.2667   -1.4619   -2.0500 H   0  0  0  0  0  0  0  0  0  0  0  0
    5.1464   -2.8449   -2.0962 H   0  0  0  0  0  0  0  0  0  0  0  0
    0.8636   -2.6496   -0.4106 H   0  0  0  0  0  0  0  0  0  0  0  0
    0.6649   -1.6118    1.0191 H   0  0  0  0  0  0  0  0  0  0  0  0
   -0.6847   -2.6492    0.4478 H   0  0  0  0  0  0  0  0  0  0  0  0
   -2.7578   -1.4620   -0.1568 H   0  0  0  0  0  0  0  0  0  0  0  0
  1  2  1  0
  2  3  1  0
  3  4  2  0
  4  5  1  0
  5  6  2  0
  6  7  1  0
  7  8  2  0
  7  9  1  0
  9 10  1  0
 10 11  2  0
 11 12  1  0
 12 13  2  0
 13 14  1  0
 13 15  1  0
  6 16  1  0
 16 17  1  0
 17 18  1  0
 16 19  2  0
 19  3  1  0
 15 10  1  0
  1 20  1  0
  1 21  1  0
  1 22  1  0
  4 23  1  0
  5 24  1  0
  9 25  1  0
  9 26  1  0
 14 27  1  0
 14 28  1  0
 14 29  1  0
 18 30  1  0
 18 31  1  0
 18 32  1  0
 19 33  1  0
M  END
$$$$
