
     RDKit          3D

 44 46  0  0  0  0  0  0  0  0999 V2000
    0.8023   -0.9114   -0.5477 O   0  0  0  0  0  0  0  0  0  0  0  0
    1.1335   -1.1865    0.6048 C   0  0  0  0  0  0  0  0  0  0  0  0
    0.1430   -1.4665    1.7348 C   0  0  0  0  0  0  0  0  0  0  0  0
   -1.1980   -1.6631    1.2898 O   0  0  0  0  0  0  0  0  0  0  0  0
   -1.4123   -2.8500    0.6580 C   0  0  0  0  0  0  0  0  0  0  0  0
   -0.5689   -3.7346    0.5531 O   0  0  0  0  0  0  0  0  0  0  0  0
   -2.8442   -3.0059    0.1575 C   0  0  0  0  0  0  0  0  0  0  0  0
   -3.6796   -1.8323    0.3811 N   0  0  0  0  0  0  0  0  0  0  0  0
   -4.3547   -1.6867    1.5682 C   0  0  0  0  0  0  0  0  0  0  0  0
   -5.0926   -0.6768    1.8823 N   0  0  0  0  0  0  0  0  0  0  0  0
   -5.2082    0.3583    0.9424 C   0  0  0  0  0  0  0  0  0  0  0  0
   -5.9974    1.4676    1.2541 C   0  0  0  0  0  0  0  0  0  0  0  0
   -6.1352    2.5215    0.3457 C   0  0  0  0  0  0  0  0  0  0  0  0
   -5.4819    2.4744   -0.8860 C   0  0  0  0  0  0  0  0  0  0  0  0
   -4.6909    1.3731   -1.2106 C   0  0  0  0  0  0  0  0  0  0  0  0
   -4.5608    0.3234   -0.2940 C   0  0  0  0  0  0  0  0  0  0  0  0
   -3.7342   -0.8583   -0.6038 C   0  0  0  0  0  0  0  0  0  0  0  0
   -3.1515   -0.9421   -1.6805 O   0  0  0  0  0  0  0  0  0  0  0  0
    2.4592   -1.2576    0.9982 N   0  0  0  0  0  0  0  0  0  0  0  0
    3.4128   -0.7605    0.0862 N   0  0  0  0  0  0  0  0  0  0  0  0
    4.3651    0.1009    0.6006 C   0  0  0  0  0  0  0  0  0  0  0  0
    4.4957    0.2853    1.8090 O   0  0  0  0  0  0  0  0  0  0  0  0
    5.2104    0.8320   -0.3841 C   0  0  0  0  0  0  0  0  0  0  0  0
    5.3953    0.3765   -1.6971 C   0  0  0  0  0  0  0  0  0  0  0  0
    6.2023    1.0991   -2.5822 C   0  0  0  0  0  0  0  0  0  0  0  0
    6.8285    2.2695   -2.1546 C   0  0  0  0  0  0  0  0  0  0  0  0
    7.9189    3.2414   -3.3540 Br  0  0  0  0  0  0  0  0  0  0  0  0
    6.6617    2.7240   -0.8480 C   0  0  0  0  0  0  0  0  0  0  0  0
    5.8562    2.0032    0.0375 C   0  0  0  0  0  0  0  0  0  0  0  0
    0.1381   -0.5885    2.3898 H   0  0  0  0  0  0  0  0  0  0  0  0
    0.4776   -2.3214    2.3348 H   0  0  0  0  0  0  0  0  0  0  0  0
   -2.8035   -3.2334   -0.9126 H   0  0  0  0  0  0  0  0  0  0  0  0
   -3.2853   -3.8545    0.6917 H   0  0  0  0  0  0  0  0  0  0  0  0
   -4.2289   -2.5201    2.2780 H   0  0  0  0  0  0  0  0  0  0  0  0
   -6.5073    1.5087    2.2133 H   0  0  0  0  0  0  0  0  0  0  0  0
   -6.7527    3.3790    0.6020 H   0  0  0  0  0  0  0  0  0  0  0  0
   -5.5884    3.2947   -1.5918 H   0  0  0  0  0  0  0  0  0  0  0  0
   -4.1786    1.3326   -2.1691 H   0  0  0  0  0  0  0  0  0  0  0  0
    2.7182   -1.1462    1.9794 H   0  0  0  0  0  0  0  0  0  0  0  0
    3.0676   -0.6516   -0.8682 H   0  0  0  0  0  0  0  0  0  0  0  0
    4.9421   -0.5470   -2.0470 H   0  0  0  0  0  0  0  0  0  0  0  0
    6.3412    0.7376   -3.5984 H   0  0  0  0  0  0  0  0  0  0  0  0
    7.1530    3.6321   -0.5077 H   0  0  0  0  0  0  0  0  0  0  0  0
    5.7321    2.3602    1.0586 H   0  0  0  0  0  0  0  0  0  0  0  0
  1  2  2  0
  2  3  1  0
  3  4  1  0
  4  5  1  0
  5  6  2  0
  5  7  1  0
  7  8  1  0
  8  9  1  0
  9 10  2  0
 10 11  1  0
 11 12  2  0
 12 13  1  0
 13 14  2  0
 14 15  1  0
 15 16  2  0
 16 17  1  0
 17 18  2  0
  2 19  1  0
 19 20  1  0
 20 21  1  0
 21 22  2  0
 21 23  1  0
 23 24  2  0
 24 25  1  0
 25 26  2  0
 26 27  1  0
 26 28  1  0
 28 29  2  0
 17  8  1  0
 29 23  1  0
 16 11  1  0
  3 30  1  0
  3 31  1  0
  7 32  1  0
  7 33  1  0
  9 34  1  0
 12 35  1  0
 13 36  1  0
 14 37  1  0
 15 38  1  0
 19 39  1  0
 20 40  1  0
 24 41  1  0
 25 42  1  0
 28 43  1  0
 29 44  1  0
M  END
$$$$
