
     RDKit          3D

 55 57  0  0  0  0  0  0  0  0999 V2000
    1.9082   -0.0879   -4.3300 O   0  0  0  0  0  0  0  0  0  0  0  0
    1.1999   -0.4552   -3.3983 C   0  0  0  0  0  0  0  0  0  0  0  0
   -0.3196   -0.5707   -3.5079 C   0  0  0  0  0  0  0  0  0  0  0  0
   -0.9624   -0.3560   -2.2461 O   0  0  0  0  0  0  0  0  0  0  0  0
   -1.1749    0.9516   -1.9222 C   0  0  0  0  0  0  0  0  0  0  0  0
   -0.8226    1.9003   -2.6141 O   0  0  0  0  0  0  0  0  0  0  0  0
   -1.8436    1.1157   -0.5455 C   0  0  0  0  0  0  0  0  0  0  0  0
   -0.8725    1.9170    0.3413 C   0  0  0  0  0  0  0  0  0  0  0  0
   -1.4285    2.2280    1.7125 C   0  0  0  0  0  0  0  0  0  0  0  0
   -0.8464    1.6673    2.8595 C   0  0  0  0  0  0  0  0  0  0  0  0
   -1.3729    1.9415    4.1231 C   0  0  0  0  0  0  0  0  0  0  0  0
   -2.4808    2.7806    4.2535 C   0  0  0  0  0  0  0  0  0  0  0  0
   -3.0616    3.3490    3.1213 C   0  0  0  0  0  0  0  0  0  0  0  0
   -2.5375    3.0771    1.8563 C   0  0  0  0  0  0  0  0  0  0  0  0
   -2.2066   -0.1593    0.0796 N   0  0  0  0  0  0  0  0  0  0  0  0
   -3.3267   -0.8548   -0.3262 C   0  0  0  0  0  0  0  0  0  0  0  0
   -3.9697   -0.4985   -1.3106 O   0  0  0  0  0  0  0  0  0  0  0  0
   -3.6891   -2.0087    0.4862 C   0  0  0  0  0  0  0  0  0  0  0  0
   -4.7988   -2.8178    0.3209 C   0  0  0  0  0  0  0  0  0  0  0  0
   -4.8602   -3.8708    1.2792 C   0  0  0  0  0  0  0  0  0  0  0  0
   -3.7935   -3.8369    2.1474 C   0  0  0  0  0  0  0  0  0  0  0  0
   -2.7359   -2.5361    1.8130 S   0  0  0  0  0  0  0  0  0  0  0  0
    1.6962   -0.8655   -2.1735 N   0  0  0  0  0  0  0  0  0  0  0  0
    3.0930   -0.6849   -1.8114 C   0  0  0  0  0  0  0  0  0  0  0  0
    3.4938   -1.6606   -0.7049 C   0  0  0  0  0  0  0  0  0  0  0  0
    4.9825   -1.5597   -0.3630 C   0  0  0  0  0  0  0  0  0  0  0  0
    5.5768   -0.1729   -0.6225 C   0  0  0  0  0  0  0  0  0  0  0  0
    4.5424    0.9272   -0.4326 C   0  0  0  0  0  0  0  0  0  0  0  0
    3.3593    0.7716   -1.3923 C   0  0  0  0  0  0  0  0  0  0  0  0
   -0.5568   -1.5890   -3.8322 H   0  0  0  0  0  0  0  0  0  0  0  0
   -0.6949    0.1213   -4.2698 H   0  0  0  0  0  0  0  0  0  0  0  0
   -2.7732    1.6739   -0.7136 H   0  0  0  0  0  0  0  0  0  0  0  0
   -0.6049    2.8658   -0.1397 H   0  0  0  0  0  0  0  0  0  0  0  0
    0.0689    1.3622    0.4438 H   0  0  0  0  0  0  0  0  0  0  0  0
    0.0239    1.0160    2.7816 H   0  0  0  0  0  0  0  0  0  0  0  0
   -0.9176    1.5040    5.0079 H   0  0  0  0  0  0  0  0  0  0  0  0
   -2.8896    2.9955    5.2377 H   0  0  0  0  0  0  0  0  0  0  0  0
   -3.9234    4.0074    3.2228 H   0  0  0  0  0  0  0  0  0  0  0  0
   -3.0037    3.5360    0.9854 H   0  0  0  0  0  0  0  0  0  0  0  0
   -1.8363   -0.3863    0.9945 H   0  0  0  0  0  0  0  0  0  0  0  0
   -5.5329   -2.6534   -0.4622 H   0  0  0  0  0  0  0  0  0  0  0  0
   -5.6444   -4.6171    1.3245 H   0  0  0  0  0  0  0  0  0  0  0  0
   -3.5848   -4.5122    2.9676 H   0  0  0  0  0  0  0  0  0  0  0  0
    1.0171   -1.0269   -1.4375 H   0  0  0  0  0  0  0  0  0  0  0  0
    3.6940   -0.9058   -2.7030 H   0  0  0  0  0  0  0  0  0  0  0  0
    2.9008   -1.4529    0.1954 H   0  0  0  0  0  0  0  0  0  0  0  0
    3.2542   -2.6917   -0.9903 H   0  0  0  0  0  0  0  0  0  0  0  0
    5.1201   -1.8313    0.6918 H   0  0  0  0  0  0  0  0  0  0  0  0
    5.5474   -2.2994   -0.9445 H   0  0  0  0  0  0  0  0  0  0  0  0
    5.9648   -0.1284   -1.6487 H   0  0  0  0  0  0  0  0  0  0  0  0
    6.4334   -0.0092    0.0423 H   0  0  0  0  0  0  0  0  0  0  0  0
    5.0036    1.9118   -0.5738 H   0  0  0  0  0  0  0  0  0  0  0  0
    4.1758    0.8998    0.6018 H   0  0  0  0  0  0  0  0  0  0  0  0
    3.5392    1.3686   -2.2956 H   0  0  0  0  0  0  0  0  0  0  0  0
    2.4708    1.2104   -0.9207 H   0  0  0  0  0  0  0  0  0  0  0  0
  1  2  2  0
  2  3  1  0
  3  4  1  0
  4  5  1  0
  5  6  2  0
  5  7  1  0
  7  8  1  0
  8  9  1  0
  9 10  2  0
 10 11  1  0
 11 12  2  0
 12 13  1  0
 13 14  2  0
  7 15  1  0
 15 16  1  0
 16 17  2  0
 16 18  1  0
 18 19  2  0
 19 20  1  0
 20 21  2  0
 21 22  1  0
  2 23  1  0
 23 24  1  0
 24 25  1  0
 25 26  1  0
 26 27  1  0
 27 28  1  0
 28 29  1  0
 14  9  1  0
 22 18  1  0
 29 24  1  0
  3 30  1  0
  3 31  1  0
  7 32  1  0
  8 33  1  0
  8 34  1  0
 10 35  1  0
 11 36  1  0
 12 37  1  0
 13 38  1  0
 14 39  1  0
 15 40  1  0
 19 41  1  0
 20 42  1  0
 21 43  1  0
 23 44  1  0
 24 45  1  0
 25 46  1  0
 25 47  1  0
 26 48  1  0
 26 49  1  0
 27 50  1  0
 27 51  1  0
 28 52  1  0
 28 53  1  0
 29 54  1  0
 29 55  1  0
M  END
$$$$
