
     RDKit          3D

 49 52  0  0  0  0  0  0  0  0999 V2000
   -7.4335   -1.7877    0.8282 C   0  0  0  0  0  0  0  0  0  0  0  0
   -6.5083   -0.6793    0.4206 C   0  0  0  0  0  0  0  0  0  0  0  0
   -7.0036    0.6098    0.1998 C   0  0  0  0  0  0  0  0  0  0  0  0
   -6.1490    1.6419   -0.2035 C   0  0  0  0  0  0  0  0  0  0  0  0
   -6.6875    3.0186   -0.4625 C   0  0  0  0  0  0  0  0  0  0  0  0
   -4.7903    1.3659   -0.4224 C   0  0  0  0  0  0  0  0  0  0  0  0
   -4.2805    0.0816   -0.2255 C   0  0  0  0  0  0  0  0  0  0  0  0
   -2.9267   -0.2676   -0.4182 N   0  0  0  0  0  0  0  0  0  0  0  0
   -1.9116    0.5378   -0.8990 C   0  0  0  0  0  0  0  0  0  0  0  0
   -2.0039    1.6873   -1.3108 O   0  0  0  0  0  0  0  0  0  0  0  0
   -0.5719   -0.1100   -0.9367 C   0  0  0  0  0  0  0  0  0  0  0  0
   -0.1324   -0.9446    0.0985 C   0  0  0  0  0  0  0  0  0  0  0  0
    1.1381   -1.5234    0.0305 C   0  0  0  0  0  0  0  0  0  0  0  0
    1.9810   -1.2639   -1.0539 C   0  0  0  0  0  0  0  0  0  0  0  0
    3.2457   -1.8589   -1.1031 N   0  0  0  0  0  0  0  0  0  0  0  0
    4.2736   -1.1411   -0.8228 C   0  0  0  0  0  0  0  0  0  0  0  0
    4.3799    0.1693   -0.4409 N   0  0  0  0  0  0  0  0  0  0  0  0
    5.6584    0.5714    0.1159 C   0  0  0  0  0  0  0  0  0  0  0  0
    5.7253    0.3074    1.6120 C   0  0  0  0  0  0  0  0  0  0  0  0
    7.4613    0.1544    1.9295 S   0  0  0  0  0  6  0  0  0  0  0  0
    7.9893    1.4907    2.1166 O   0  0  0  0  0  0  0  0  0  0  0  0
    7.6725   -0.9006    2.8956 O   0  0  0  0  0  0  0  0  0  0  0  0
    7.9509   -0.4087    0.3124 C   0  0  0  0  0  0  0  0  0  0  0  0
    6.7199   -0.3046   -0.5709 C   0  0  0  0  0  0  0  0  0  0  0  0
    5.8675   -1.8992   -0.8666 S   0  0  0  0  0  0  0  0  0  0  0  0
    1.5343   -0.4346   -2.0870 C   0  0  0  0  0  0  0  0  0  0  0  0
    0.2686    0.1530   -2.0246 C   0  0  0  0  0  0  0  0  0  0  0  0
   -5.1482   -0.9349    0.1966 C   0  0  0  0  0  0  0  0  0  0  0  0
   -8.2619   -1.4031    1.4324 H   0  0  0  0  0  0  0  0  0  0  0  0
   -6.9077   -2.5318    1.4357 H   0  0  0  0  0  0  0  0  0  0  0  0
   -7.8416   -2.2798   -0.0598 H   0  0  0  0  0  0  0  0  0  0  0  0
   -8.0629    0.8138    0.3446 H   0  0  0  0  0  0  0  0  0  0  0  0
   -5.9445    3.7817   -0.2076 H   0  0  0  0  0  0  0  0  0  0  0  0
   -7.5751    3.2139    0.1486 H   0  0  0  0  0  0  0  0  0  0  0  0
   -6.9563    3.1225   -1.5182 H   0  0  0  0  0  0  0  0  0  0  0  0
   -4.1480    2.1782   -0.7492 H   0  0  0  0  0  0  0  0  0  0  0  0
   -2.6990   -1.2377   -0.2439 H   0  0  0  0  0  0  0  0  0  0  0  0
   -0.7530   -1.1345    0.9700 H   0  0  0  0  0  0  0  0  0  0  0  0
    1.4800   -2.1802    0.8270 H   0  0  0  0  0  0  0  0  0  0  0  0
    3.5319    0.6317   -0.1311 H   0  0  0  0  0  0  0  0  0  0  0  0
    5.8529    1.6301   -0.0919 H   0  0  0  0  0  0  0  0  0  0  0  0
    5.3122    1.1297    2.2012 H   0  0  0  0  0  0  0  0  0  0  0  0
    5.2388   -0.6266    1.9095 H   0  0  0  0  0  0  0  0  0  0  0  0
    8.7339    0.2726   -0.0351 H   0  0  0  0  0  0  0  0  0  0  0  0
    8.3633   -1.4182    0.3849 H   0  0  0  0  0  0  0  0  0  0  0  0
    6.9799    0.0907   -1.5590 H   0  0  0  0  0  0  0  0  0  0  0  0
    2.1767   -0.2458   -2.9434 H   0  0  0  0  0  0  0  0  0  0  0  0
   -0.0649    0.8069   -2.8281 H   0  0  0  0  0  0  0  0  0  0  0  0
   -4.7733   -1.9439    0.3501 H   0  0  0  0  0  0  0  0  0  0  0  0
  1  2  1  0
  2  3  2  0
  3  4  1  0
  4  5  1  0
  4  6  2  0
  6  7  1  0
  7  8  1  0
  8  9  1  0
  9 10  2  0
  9 11  1  0
 11 12  2  0
 12 13  1  0
 13 14  2  0
 14 15  1  0
 15 16  2  3
 16 17  1  0
 17 18  1  0
 18 19  1  0
 19 20  1  0
 20 21  2  0
 20 22  2  0
 20 23  1  0
 23 24  1  0
 24 25  1  0
 14 26  1  0
 26 27  2  0
  7 28  2  0
 28  2  1  0
 27 11  1  0
 25 16  1  0
 24 18  1  0
  1 29  1  0
  1 30  1  0
  1 31  1  0
  3 32  1  0
  5 33  1  0
  5 34  1  0
  5 35  1  0
  6 36  1  0
  8 37  1  0
 12 38  1  0
 13 39  1  0
 17 40  1  0
 18 41  1  0
 19 42  1  0
 19 43  1  0
 23 44  1  0
 23 45  1  0
 24 46  1  0
 26 47  1  0
 27 48  1  0
 28 49  1  0
M  END
$$$$
