
     RDKit          3D

 31 32  0  0  0  0  0  0  0  0999 V2000
    6.1130    1.2224   -1.3622 N   0  0  0  0  0  0  0  0  0  0  0  0
    4.9296    0.8527   -1.8895 C   0  0  0  0  0  0  0  0  0  0  0  0
    4.1209   -0.0383   -1.3581 N   0  0  0  0  0  0  0  0  0  0  0  0
    2.9697   -0.2111   -2.0992 N   0  0  0  0  0  0  0  0  0  0  0  0
    2.9441    0.5718   -3.1564 C   0  0  0  0  0  0  0  0  0  0  0  0
    1.6079    0.5965   -4.2825 S   0  0  0  0  0  0  0  0  0  0  0  0
    0.4266   -0.4990   -3.4575 C   0  0  0  0  0  0  0  0  0  0  0  0
   -0.2809    0.2178   -2.3235 C   0  0  0  0  0  0  0  0  0  0  0  0
   -1.2654    0.9388   -2.4960 O   0  0  0  0  0  0  0  0  0  0  0  0
    0.2549   -0.0081   -1.0689 N   0  0  0  0  0  0  0  0  0  0  0  0
   -0.5726    0.2741    0.0386 N   0  0  0  0  0  0  0  0  0  0  0  0
   -1.0053   -0.8235    0.7659 C   0  0  0  0  0  0  0  0  0  0  0  0
   -0.5464   -1.9524    0.6147 O   0  0  0  0  0  0  0  0  0  0  0  0
   -2.1092   -0.5789    1.7312 C   0  0  0  0  0  0  0  0  0  0  0  0
   -2.9769   -1.6379    2.0325 C   0  0  0  0  0  0  0  0  0  0  0  0
   -4.0263   -1.4498    2.9355 C   0  0  0  0  0  0  0  0  0  0  0  0
   -4.1997   -0.2082    3.5476 C   0  0  0  0  0  0  0  0  0  0  0  0
   -5.4880    0.0267    4.6612 Cl  0  0  0  0  0  0  0  0  0  0  0  0
   -3.3332    0.8471    3.2630 C   0  0  0  0  0  0  0  0  0  0  0  0
   -2.2847    0.6644    2.3543 C   0  0  0  0  0  0  0  0  0  0  0  0
    4.3292    1.5600   -3.3371 S   0  0  0  0  0  0  0  0  0  0  0  0
    6.2402    0.9919   -0.3810 H   0  0  0  0  0  0  0  0  0  0  0  0
    6.4607    2.1426   -1.6063 H   0  0  0  0  0  0  0  0  0  0  0  0
    0.8994   -1.4212   -3.1053 H   0  0  0  0  0  0  0  0  0  0  0  0
   -0.3365   -0.8000   -4.1828 H   0  0  0  0  0  0  0  0  0  0  0  0
    0.9426   -0.7524   -0.9243 H   0  0  0  0  0  0  0  0  0  0  0  0
   -1.2109    1.0560   -0.1086 H   0  0  0  0  0  0  0  0  0  0  0  0
   -2.8384   -2.6089    1.5594 H   0  0  0  0  0  0  0  0  0  0  0  0
   -4.6959   -2.2744    3.1596 H   0  0  0  0  0  0  0  0  0  0  0  0
   -3.4646    1.8112    3.7476 H   0  0  0  0  0  0  0  0  0  0  0  0
   -1.6038    1.4902    2.1653 H   0  0  0  0  0  0  0  0  0  0  0  0
  1  2  1  0
  2  3  2  0
  3  4  1  0
  4  5  2  0
  5  6  1  0
  6  7  1  0
  7  8  1  0
  8  9  2  0
  8 10  1  0
 10 11  1  0
 11 12  1  0
 12 13  2  0
 12 14  1  0
 14 15  2  0
 15 16  1  0
 16 17  2  0
 17 18  1  0
 17 19  1  0
 19 20  2  0
  5 21  1  0
 21  2  1  0
 20 14  1  0
  1 22  1  0
  1 23  1  0
  7 24  1  0
  7 25  1  0
 10 26  1  0
 11 27  1  0
 15 28  1  0
 16 29  1  0
 19 30  1  0
 20 31  1  0
M  END
$$$$
