
     RDKit          3D

 47 49  0  0  0  0  0  0  0  0999 V2000
    4.9776    1.8145    2.4218 C   0  0  0  0  0  0  0  0  0  0  0  0
    4.1836    1.1992    1.4146 O   0  0  0  0  0  0  0  0  0  0  0  0
    4.7260    1.1273    0.1501 C   0  0  0  0  0  0  0  0  0  0  0  0
    5.9720    1.6467   -0.2155 C   0  0  0  0  0  0  0  0  0  0  0  0
    6.4252    1.5194   -1.5298 C   0  0  0  0  0  0  0  0  0  0  0  0
    5.6378    0.8765   -2.4811 C   0  0  0  0  0  0  0  0  0  0  0  0
    4.3918    0.3554   -2.1259 C   0  0  0  0  0  0  0  0  0  0  0  0
    3.9272    0.4728   -0.8146 C   0  0  0  0  0  0  0  0  0  0  0  0
    2.6785   -0.0228   -0.3735 N   0  0  0  0  0  0  0  0  0  0  0  0
    1.7426   -0.7473   -1.0723 C   0  0  0  0  0  0  0  0  0  0  0  0
    1.8777   -1.1145   -2.2371 O   0  0  0  0  0  0  0  0  0  0  0  0
    0.5805   -1.0397   -0.3527 N   0  0  0  0  0  0  0  0  0  0  0  0
    0.3236   -0.6239    1.0257 C   0  0  0  0  0  0  0  0  0  0  0  0
   -1.0399   -1.0703    1.5411 C   0  0  0  0  0  0  0  0  0  0  0  0
   -2.1549   -0.6933    0.5517 C   0  0  0  0  0  0  0  0  0  0  0  0
   -3.4882   -1.2953    0.9934 C   0  0  0  0  0  0  0  0  0  0  0  0
   -3.5366   -2.2730    1.7392 O   0  0  0  0  0  0  0  0  0  0  0  0
   -4.7753   -0.6993    0.5064 C   0  0  0  0  0  0  0  0  0  0  0  0
   -5.9783   -1.2643    0.9643 C   0  0  0  0  0  0  0  0  0  0  0  0
   -7.2090   -0.7522    0.5470 C   0  0  0  0  0  0  0  0  0  0  0  0
   -7.2387    0.3242   -0.3291 C   0  0  0  0  0  0  0  0  0  0  0  0
   -8.4164    0.8186   -0.7304 F   0  0  0  0  0  0  0  0  0  0  0  0
   -6.0611    0.8968   -0.7951 C   0  0  0  0  0  0  0  0  0  0  0  0
   -4.8266    0.3870   -0.3789 C   0  0  0  0  0  0  0  0  0  0  0  0
   -1.8167   -1.1264   -0.8869 C   0  0  0  0  0  0  0  0  0  0  0  0
   -0.4654   -1.8275   -0.9999 C   0  0  0  0  0  0  0  0  0  0  0  0
    4.4160    1.7731    3.3601 H   0  0  0  0  0  0  0  0  0  0  0  0
    5.9163    1.2712    2.5723 H   0  0  0  0  0  0  0  0  0  0  0  0
    5.1603    2.8689    2.1907 H   0  0  0  0  0  0  0  0  0  0  0  0
    6.6147    2.1558    0.4942 H   0  0  0  0  0  0  0  0  0  0  0  0
    7.3942    1.9231   -1.8128 H   0  0  0  0  0  0  0  0  0  0  0  0
    5.9897    0.7777   -3.5051 H   0  0  0  0  0  0  0  0  0  0  0  0
    3.8059   -0.1350   -2.8965 H   0  0  0  0  0  0  0  0  0  0  0  0
    2.5212    0.1447    0.6081 H   0  0  0  0  0  0  0  0  0  0  0  0
    1.1120   -1.0365    1.6653 H   0  0  0  0  0  0  0  0  0  0  0  0
    0.3965    0.4696    1.0635 H   0  0  0  0  0  0  0  0  0  0  0  0
   -1.2343   -0.6180    2.5212 H   0  0  0  0  0  0  0  0  0  0  0  0
   -1.0230   -2.1559    1.7051 H   0  0  0  0  0  0  0  0  0  0  0  0
   -2.2468    0.3993    0.5925 H   0  0  0  0  0  0  0  0  0  0  0  0
   -5.9627   -2.1095    1.6513 H   0  0  0  0  0  0  0  0  0  0  0  0
   -8.1389   -1.1873    0.8999 H   0  0  0  0  0  0  0  0  0  0  0  0
   -6.1113    1.7372   -1.4814 H   0  0  0  0  0  0  0  0  0  0  0  0
   -3.9289    0.8578   -0.7665 H   0  0  0  0  0  0  0  0  0  0  0  0
   -1.7930   -0.2282   -1.5180 H   0  0  0  0  0  0  0  0  0  0  0  0
   -2.5917   -1.7772   -1.3087 H   0  0  0  0  0  0  0  0  0  0  0  0
   -0.4928   -2.8089   -0.5117 H   0  0  0  0  0  0  0  0  0  0  0  0
   -0.2404   -2.0075   -2.0558 H   0  0  0  0  0  0  0  0  0  0  0  0
  1  2  1  0
  2  3  1  0
  3  4  2  0
  4  5  1  0
  5  6  2  0
  6  7  1  0
  7  8  2  0
  8  9  1  0
  9 10  1  0
 10 11  2  0
 10 12  1  0
 12 13  1  0
 13 14  1  0
 14 15  1  0
 15 16  1  0
 16 17  2  0
 16 18  1  0
 18 19  2  0
 19 20  1  0
 20 21  2  0
 21 22  1  0
 21 23  1  0
 23 24  2  0
 15 25  1  0
 25 26  1  0
  8  3  1  0
 26 12  1  0
 24 18  1  0
  1 27  1  0
  1 28  1  0
  1 29  1  0
  4 30  1  0
  5 31  1  0
  6 32  1  0
  7 33  1  0
  9 34  1  0
 13 35  1  0
 13 36  1  0
 14 37  1  0
 14 38  1  0
 15 39  1  0
 19 40  1  0
 20 41  1  0
 23 42  1  0
 24 43  1  0
 25 44  1  0
 25 45  1  0
 26 46  1  0
 26 47  1  0
M  END
$$$$
