
     RDKit          3D

 48 51  0  0  0  0  0  0  0  0999 V2000
    5.1079    3.7750   -2.3503 C   0  0  0  0  0  0  0  0  0  0  0  0
    4.1604    2.6561   -2.0186 C   0  0  0  0  0  0  0  0  0  0  0  0
    2.8440    2.6771   -2.4926 C   0  0  0  0  0  0  0  0  0  0  0  0
    1.9513    1.6459   -2.1605 C   0  0  0  0  0  0  0  0  0  0  0  0
    2.3337    0.5796   -1.3590 C   0  0  0  0  0  0  0  0  0  0  0  0
    1.4392   -0.3781   -1.0509 N   0  0  0  0  0  0  0  0  0  0  0  0
    1.8334   -1.4037   -0.2594 C   0  0  0  0  0  0  0  0  0  0  0  0
    0.5303   -2.5392    0.1870 S   0  0  0  0  0  0  0  0  0  0  0  0
   -0.0383   -1.6901    1.6927 C   0  0  0  0  0  0  0  0  0  0  0  0
   -0.9562   -0.5127    1.3826 C   0  0  0  0  0  0  0  0  0  0  0  0
   -0.5100    0.6325    1.5250 O   0  0  0  0  0  0  0  0  0  0  0  0
   -2.2603   -0.8000    0.9957 N   0  0  0  0  0  0  0  0  0  0  0  0
   -3.2052    0.1541    0.5383 C   0  0  0  0  0  0  0  0  0  0  0  0
   -3.1081    1.5344    0.4911 C   0  0  0  0  0  0  0  0  0  0  0  0
   -4.2042    2.2688    0.0230 C   0  0  0  0  0  0  0  0  0  0  0  0
   -5.3709    1.6200   -0.4110 C   0  0  0  0  0  0  0  0  0  0  0  0
   -5.4548    0.2269   -0.3961 C   0  0  0  0  0  0  0  0  0  0  0  0
   -4.3636   -0.4885    0.0855 C   0  0  0  0  0  0  0  0  0  0  0  0
   -4.1936   -1.9749    0.1165 C   0  0  0  0  0  0  0  0  0  0  0  0
   -2.9515   -2.1187    1.0302 C   0  0  0  0  0  0  0  0  0  0  0  0
   -3.3925   -2.4779    2.4627 C   0  0  0  0  0  0  0  0  0  0  0  0
    3.1402   -1.5537    0.2092 C   0  0  0  0  0  0  0  0  0  0  0  0
    3.5890   -2.7131    1.0501 C   0  0  0  0  0  0  0  0  0  0  0  0
    4.0546   -0.5393   -0.1023 C   0  0  0  0  0  0  0  0  0  0  0  0
    3.6610    0.5523   -0.8889 C   0  0  0  0  0  0  0  0  0  0  0  0
    4.5610    1.5894   -1.2112 C   0  0  0  0  0  0  0  0  0  0  0  0
    6.1352    3.5426   -2.0368 H   0  0  0  0  0  0  0  0  0  0  0  0
    5.1252    3.9510   -3.4360 H   0  0  0  0  0  0  0  0  0  0  0  0
    4.7972    4.6927   -1.8349 H   0  0  0  0  0  0  0  0  0  0  0  0
    2.4959    3.4972   -3.1139 H   0  0  0  0  0  0  0  0  0  0  0  0
    0.9243    1.6797   -2.5305 H   0  0  0  0  0  0  0  0  0  0  0  0
    0.8248   -1.3086    2.2496 H   0  0  0  0  0  0  0  0  0  0  0  0
   -0.5289   -2.4054    2.3579 H   0  0  0  0  0  0  0  0  0  0  0  0
   -2.2182    2.0578    0.8130 H   0  0  0  0  0  0  0  0  0  0  0  0
   -4.1460    3.3550   -0.0057 H   0  0  0  0  0  0  0  0  0  0  0  0
   -6.2082    2.2085   -0.7699 H   0  0  0  0  0  0  0  0  0  0  0  0
   -6.3464   -0.2778   -0.7559 H   0  0  0  0  0  0  0  0  0  0  0  0
   -5.0748   -2.4938    0.5010 H   0  0  0  0  0  0  0  0  0  0  0  0
   -3.9651   -2.3318   -0.8989 H   0  0  0  0  0  0  0  0  0  0  0  0
   -2.2884   -2.9075    0.6551 H   0  0  0  0  0  0  0  0  0  0  0  0
   -4.1184   -1.7578    2.8511 H   0  0  0  0  0  0  0  0  0  0  0  0
   -2.5529   -2.4955    3.1643 H   0  0  0  0  0  0  0  0  0  0  0  0
   -3.8632   -3.4662    2.4776 H   0  0  0  0  0  0  0  0  0  0  0  0
    3.2323   -3.6607    0.6386 H   0  0  0  0  0  0  0  0  0  0  0  0
    3.2348   -2.6062    2.0773 H   0  0  0  0  0  0  0  0  0  0  0  0
    4.6822   -2.7787    1.0739 H   0  0  0  0  0  0  0  0  0  0  0  0
    5.0807   -0.5992    0.2642 H   0  0  0  0  0  0  0  0  0  0  0  0
    5.5814    1.5597   -0.8297 H   0  0  0  0  0  0  0  0  0  0  0  0
  1  2  1  0
  2  3  2  0
  3  4  1  0
  4  5  2  0
  5  6  1  0
  6  7  2  0
  7  8  1  0
  8  9  1  0
  9 10  1  0
 10 11  2  0
 10 12  1  0
 12 13  1  0
 13 14  2  0
 14 15  1  0
 15 16  2  0
 16 17  1  0
 17 18  2  0
 18 19  1  0
 19 20  1  0
 20 21  1  0
  7 22  1  0
 22 23  1  0
 22 24  2  0
 24 25  1  0
 25 26  2  0
 26  2  1  0
 25  5  1  0
 20 12  1  0
 18 13  1  0
  1 27  1  0
  1 28  1  0
  1 29  1  0
  3 30  1  0
  4 31  1  0
  9 32  1  0
  9 33  1  0
 14 34  1  0
 15 35  1  0
 16 36  1  0
 17 37  1  0
 19 38  1  0
 19 39  1  0
 20 40  1  0
 21 41  1  0
 21 42  1  0
 21 43  1  0
 23 44  1  0
 23 45  1  0
 23 46  1  0
 24 47  1  0
 26 48  1  0
M  END
$$$$
