
     RDKit          3D

 49 52  0  0  0  0  0  0  0  0999 V2000
    7.8736    0.2501   -0.9847 C   0  0  0  0  0  0  0  0  0  0  0  0
    6.9143   -0.7366   -1.6323 C   0  0  0  0  0  0  0  0  0  0  0  0
    5.5123   -0.5863   -1.1011 C   0  0  0  0  0  0  0  0  0  0  0  0
    4.6110    0.2988   -1.7032 C   0  0  0  0  0  0  0  0  0  0  0  0
    3.3110    0.4526   -1.2009 C   0  0  0  0  0  0  0  0  0  0  0  0
    2.8776   -0.2736   -0.0837 C   0  0  0  0  0  0  0  0  0  0  0  0
    1.5244   -0.1656    0.4951 C   0  0  0  0  0  0  0  0  0  0  0  0
    0.5024    0.7422   -0.1659 C   0  0  0  0  0  0  0  0  0  0  0  0
   -0.8882    0.5688    0.2880 N   0  0  0  0  0  0  0  0  0  0  0  0
   -1.5106   -0.6138   -0.3397 C   0  0  0  0  0  0  0  0  0  0  0  0
   -2.9944   -0.7079   -0.1129 C   0  0  0  0  0  0  0  0  0  0  0  0
   -3.7431    0.3181    0.3330 C   0  0  0  0  0  0  0  0  0  0  0  0
   -5.1974    0.1834    0.5557 C   0  0  0  0  0  0  0  0  0  0  0  0
   -5.7987    0.7200    1.7029 C   0  0  0  0  0  0  0  0  0  0  0  0
   -7.1769    0.6089    1.9087 C   0  0  0  0  0  0  0  0  0  0  0  0
   -7.9741   -0.0359    0.9664 C   0  0  0  0  0  0  0  0  0  0  0  0
   -7.3944   -0.5689   -0.1819 C   0  0  0  0  0  0  0  0  0  0  0  0
   -6.0161   -0.4585   -0.3862 C   0  0  0  0  0  0  0  0  0  0  0  0
   -3.0920    1.6479    0.6263 C   0  0  0  0  0  0  0  0  0  0  0  0
   -1.6926    1.7664   -0.0026 C   0  0  0  0  0  0  0  0  0  0  0  0
    1.2680   -0.8757    1.6069 C   0  0  0  0  0  0  0  0  0  0  0  0
    2.2325   -1.7749    2.2531 C   0  0  0  0  0  0  0  0  0  0  0  0
    1.9338   -2.3961    3.2665 O   0  0  0  0  0  0  0  0  0  0  0  0
    3.4738   -1.8895    1.6566 O   0  0  0  0  0  0  0  0  0  0  0  0
    3.7986   -1.1379    0.5120 C   0  0  0  0  0  0  0  0  0  0  0  0
    5.0970   -1.3035    0.0229 C   0  0  0  0  0  0  0  0  0  0  0  0
    8.8822    0.1181   -1.3889 H   0  0  0  0  0  0  0  0  0  0  0  0
    7.9210    0.1047    0.0999 H   0  0  0  0  0  0  0  0  0  0  0  0
    7.5658    1.2845   -1.1716 H   0  0  0  0  0  0  0  0  0  0  0  0
    6.9138   -0.5938   -2.7198 H   0  0  0  0  0  0  0  0  0  0  0  0
    7.2655   -1.7616   -1.4615 H   0  0  0  0  0  0  0  0  0  0  0  0
    4.9156    0.8814   -2.5709 H   0  0  0  0  0  0  0  0  0  0  0  0
    2.6603    1.1603   -1.7068 H   0  0  0  0  0  0  0  0  0  0  0  0
    0.5362    0.6320   -1.2572 H   0  0  0  0  0  0  0  0  0  0  0  0
    0.8279    1.7683    0.0556 H   0  0  0  0  0  0  0  0  0  0  0  0
   -1.3425   -0.6222   -1.4246 H   0  0  0  0  0  0  0  0  0  0  0  0
   -1.0552   -1.5235    0.0668 H   0  0  0  0  0  0  0  0  0  0  0  0
   -3.4430   -1.6750   -0.3239 H   0  0  0  0  0  0  0  0  0  0  0  0
   -5.1986    1.2164    2.4614 H   0  0  0  0  0  0  0  0  0  0  0  0
   -7.6251    1.0235    2.8079 H   0  0  0  0  0  0  0  0  0  0  0  0
   -9.0454   -0.1226    1.1269 H   0  0  0  0  0  0  0  0  0  0  0  0
   -8.0135   -1.0690   -0.9219 H   0  0  0  0  0  0  0  0  0  0  0  0
   -5.5896   -0.8687   -1.2984 H   0  0  0  0  0  0  0  0  0  0  0  0
   -3.0066    1.7765    1.7128 H   0  0  0  0  0  0  0  0  0  0  0  0
   -3.7120    2.4677    0.2434 H   0  0  0  0  0  0  0  0  0  0  0  0
   -1.2145    2.6589    0.4198 H   0  0  0  0  0  0  0  0  0  0  0  0
   -1.7764    1.9268   -1.0862 H   0  0  0  0  0  0  0  0  0  0  0  0
    0.3064   -0.8276    2.1071 H   0  0  0  0  0  0  0  0  0  0  0  0
    5.7759   -1.9876    0.5261 H   0  0  0  0  0  0  0  0  0  0  0  0
  1  2  1  0
  2  3  1  0
  3  4  2  0
  4  5  1  0
  5  6  2  0
  6  7  1  0
  7  8  1  0
  8  9  1  0
  9 10  1  0
 10 11  1  0
 11 12  2  0
 12 13  1  0
 13 14  2  0
 14 15  1  0
 15 16  2  0
 16 17  1  0
 17 18  2  0
 12 19  1  0
 19 20  1  0
  7 21  2  0
 21 22  1  0
 22 23  2  0
 22 24  1  0
 24 25  1  0
 25 26  2  0
 26  3  1  0
 25  6  1  0
 20  9  1  0
 18 13  1  0
  1 27  1  0
  1 28  1  0
  1 29  1  0
  2 30  1  0
  2 31  1  0
  4 32  1  0
  5 33  1  0
  8 34  1  0
  8 35  1  0
 10 36  1  0
 10 37  1  0
 11 38  1  0
 14 39  1  0
 15 40  1  0
 16 41  1  0
 17 42  1  0
 18 43  1  0
 19 44  1  0
 19 45  1  0
 20 46  1  0
 20 47  1  0
 21 48  1  0
 26 49  1  0
M  END
$$$$
