
     RDKit          3D

 39 41  0  0  0  0  0  0  0  0999 V2000
   -7.5822    0.5880   -0.9085 C   0  0  0  0  0  0  0  0  0  0  0  0
   -6.4811    0.9194   -1.7446 O   0  0  0  0  0  0  0  0  0  0  0  0
   -5.2332    0.6481   -1.2568 C   0  0  0  0  0  0  0  0  0  0  0  0
   -4.9391    0.0709   -0.0246 C   0  0  0  0  0  0  0  0  0  0  0  0
   -3.6067   -0.1521    0.3549 C   0  0  0  0  0  0  0  0  0  0  0  0
   -2.5453    0.1957   -0.4923 C   0  0  0  0  0  0  0  0  0  0  0  0
   -1.1789   -0.0312   -0.1022 N   0  0  0  0  0  0  0  0  0  0  0  0
   -0.6897   -0.1547    1.2079 C   0  0  0  0  0  0  0  0  0  0  0  0
   -1.4626   -0.0288    2.2859 O   0  0  0  0  0  0  0  0  0  0  0  0
    0.6746   -0.3521    1.1561 C   0  0  0  0  0  0  0  0  0  0  0  0
    1.0567   -0.3406   -0.1947 C   0  0  0  0  0  0  0  0  0  0  0  0
    2.3067   -0.4840   -0.7000 N   0  0  0  0  0  0  0  0  0  0  0  0
    3.4443   -0.4622    0.1328 N   0  0  0  0  0  0  0  0  0  0  0  0
    4.6155    0.0405   -0.4310 C   0  0  0  0  0  0  0  0  0  0  0  0
    4.5907    0.6016   -1.5286 O   0  0  0  0  0  0  0  0  0  0  0  0
    5.8140   -0.1785    0.3551 C   0  0  0  0  0  0  0  0  0  0  0  0
    6.0369   -0.6803    1.6275 C   0  0  0  0  0  0  0  0  0  0  0  0
    7.4370   -0.6476    1.8450 C   0  0  0  0  0  0  0  0  0  0  0  0
    7.9882   -0.1275    0.7000 C   0  0  0  0  0  0  0  0  0  0  0  0
    7.0194    0.1600   -0.2038 O   0  0  0  0  0  0  0  0  0  0  0  0
   -0.0790   -0.1788   -0.9610 C   0  0  0  0  0  0  0  0  0  0  0  0
   -0.2019   -0.2182   -2.2896 O   0  0  0  0  0  0  0  0  0  0  0  0
   -2.8523    0.7747   -1.7303 C   0  0  0  0  0  0  0  0  0  0  0  0
   -4.1832    0.9973   -2.1044 C   0  0  0  0  0  0  0  0  0  0  0  0
   -7.5507    1.1530    0.0290 H   0  0  0  0  0  0  0  0  0  0  0  0
   -7.6246   -0.4899   -0.7201 H   0  0  0  0  0  0  0  0  0  0  0  0
   -8.4988    0.8696   -1.4357 H   0  0  0  0  0  0  0  0  0  0  0  0
   -5.7185   -0.2259    0.6690 H   0  0  0  0  0  0  0  0  0  0  0  0
   -3.4375   -0.6361    1.3118 H   0  0  0  0  0  0  0  0  0  0  0  0
   -0.8891   -0.0746    3.0708 H   0  0  0  0  0  0  0  0  0  0  0  0
    1.3217   -0.4604    2.0140 H   0  0  0  0  0  0  0  0  0  0  0  0
    2.5208   -0.0436   -1.6053 H   0  0  0  0  0  0  0  0  0  0  0  0
    3.4891   -1.2015    0.8238 H   0  0  0  0  0  0  0  0  0  0  0  0
    5.2868   -1.0215    2.3266 H   0  0  0  0  0  0  0  0  0  0  0  0
    7.9780   -0.9590    2.7278 H   0  0  0  0  0  0  0  0  0  0  0  0
    8.9994    0.0930    0.3858 H   0  0  0  0  0  0  0  0  0  0  0  0
    0.6516   -0.5187   -2.6470 H   0  0  0  0  0  0  0  0  0  0  0  0
   -2.0792    1.1010   -2.4192 H   0  0  0  0  0  0  0  0  0  0  0  0
   -4.3978    1.4549   -3.0671 H   0  0  0  0  0  0  0  0  0  0  0  0
  1  2  1  0
  2  3  1  0
  3  4  2  0
  4  5  1  0
  5  6  2  0
  6  7  1  0
  7  8  1  0
  8  9  1  0
  8 10  2  0
 10 11  1  0
 11 12  1  0
 12 13  1  0
 13 14  1  0
 14 15  2  0
 14 16  1  0
 16 17  2  0
 17 18  1  0
 18 19  2  0
 19 20  1  0
 11 21  2  0
 21 22  1  0
  6 23  1  0
 23 24  2  0
 24  3  1  0
 21  7  1  0
 20 16  1  0
  1 25  1  0
  1 26  1  0
  1 27  1  0
  4 28  1  0
  5 29  1  0
  9 30  1  0
 10 31  1  0
 12 32  1  0
 13 33  1  0
 17 34  1  0
 18 35  1  0
 19 36  1  0
 22 37  1  0
 23 38  1  0
 24 39  1  0
M  END
$$$$
