
     RDKit          3D

 40 43  0  0  0  0  0  0  0  0999 V2000
   -4.4140    3.0011    0.5406 O   0  0  0  0  0  0  0  0  0  0  0  0
   -4.6138    1.9418   -0.0296 C   0  0  0  0  0  0  0  0  0  0  0  0
   -5.7679    1.5644   -0.6804 N   0  0  0  0  0  0  0  0  0  0  0  0
   -5.5433    0.3645   -1.0967 C   0  0  0  0  0  0  0  0  0  0  0  0
   -6.4581   -0.5085   -1.8575 C   0  0  0  0  0  0  0  0  0  0  0  0
   -6.0311   -1.7322   -2.2126 C   0  0  0  0  0  0  0  0  0  0  0  0
   -4.7053   -2.2308   -1.8842 C   0  0  0  0  0  0  0  0  0  0  0  0
   -3.8264   -1.4891   -1.1897 C   0  0  0  0  0  0  0  0  0  0  0  0
   -4.2193   -0.1772   -0.7662 C   0  0  0  0  0  0  0  0  0  0  0  0
   -3.6442    0.8180   -0.0926 C   0  0  0  0  0  0  0  0  0  0  0  0
   -2.3411    0.8458    0.4373 C   0  0  0  0  0  0  0  0  0  0  0  0
   -1.8624   -0.1856    1.7347 S   0  0  0  0  0  0  0  0  0  0  0  0
   -0.3022    0.4975    1.6791 C   0  0  0  0  0  0  0  0  0  0  0  0
    0.7479    0.0851    2.5826 N   0  0  0  0  0  0  0  0  0  0  0  0
    2.0209   -0.6828    1.7867 S   0  0  0  0  0  6  0  0  0  0  0  0
    1.4857   -1.3784    0.6337 O   0  0  0  0  0  0  0  0  0  0  0  0
    2.6986   -1.4179    2.8373 O   0  0  0  0  0  0  0  0  0  0  0  0
    3.0384    0.7142    1.2785 C   0  0  0  0  0  0  0  0  0  0  0  0
    4.2929    0.1960    0.6242 C   0  0  0  0  0  0  0  0  0  0  0  0
    4.3186   -0.0710   -0.7525 C   0  0  0  0  0  0  0  0  0  0  0  0
    5.4791   -0.5550   -1.3579 C   0  0  0  0  0  0  0  0  0  0  0  0
    6.6233   -0.7789   -0.5952 C   0  0  0  0  0  0  0  0  0  0  0  0
    6.6078   -0.5225    0.7742 C   0  0  0  0  0  0  0  0  0  0  0  0
    5.4489   -0.0384    1.3826 C   0  0  0  0  0  0  0  0  0  0  0  0
   -0.1050    1.4630    0.8184 N   0  0  0  0  0  0  0  0  0  0  0  0
   -1.2645    1.6523    0.1135 C   0  0  0  0  0  0  0  0  0  0  0  0
   -1.3381    2.5674   -0.8625 O   0  0  0  0  0  0  0  0  0  0  0  0
   -7.4412   -0.1275   -2.1018 H   0  0  0  0  0  0  0  0  0  0  0  0
   -6.6845   -2.3949   -2.7742 H   0  0  0  0  0  0  0  0  0  0  0  0
   -4.4421   -3.2288   -2.2250 H   0  0  0  0  0  0  0  0  0  0  0  0
   -2.8358   -1.8643   -0.9557 H   0  0  0  0  0  0  0  0  0  0  0  0
    0.4273   -0.4958    3.3554 H   0  0  0  0  0  0  0  0  0  0  0  0
    3.2741    1.3043    2.1695 H   0  0  0  0  0  0  0  0  0  0  0  0
    2.4707    1.3323    0.5790 H   0  0  0  0  0  0  0  0  0  0  0  0
    3.4314    0.0863   -1.3635 H   0  0  0  0  0  0  0  0  0  0  0  0
    5.4884   -0.7635   -2.4247 H   0  0  0  0  0  0  0  0  0  0  0  0
    7.5253   -1.1600   -1.0668 H   0  0  0  0  0  0  0  0  0  0  0  0
    7.4978   -0.7059    1.3708 H   0  0  0  0  0  0  0  0  0  0  0  0
    5.4541    0.1438    2.4557 H   0  0  0  0  0  0  0  0  0  0  0  0
   -0.4908    3.0451   -0.8648 H   0  0  0  0  0  0  0  0  0  0  0  0
  1  2  2  0
  2  3  1  0
  3  4  2  0
  4  5  1  0
  5  6  2  0
  6  7  1  0
  7  8  2  0
  8  9  1  0
  9 10  2  0
 10 11  1  0
 11 12  1  0
 12 13  1  0
 13 14  1  0
 14 15  1  0
 15 16  2  0
 15 17  2  0
 15 18  1  0
 18 19  1  0
 19 20  2  0
 20 21  1  0
 21 22  2  0
 22 23  1  0
 23 24  2  0
 13 25  2  0
 25 26  1  0
 26 27  1  0
 10  2  1  0
 26 11  2  0
  9  4  1  0
 24 19  1  0
  5 28  1  0
  6 29  1  0
  7 30  1  0
  8 31  1  0
 14 32  1  0
 18 33  1  0
 18 34  1  0
 20 35  1  0
 21 36  1  0
 22 37  1  0
 23 38  1  0
 24 39  1  0
 27 40  1  0
M  END
$$$$
