
     RDKit          3D

 44 46  0  0  0  0  0  0  0  0999 V2000
    8.5207   -0.1769    0.4040 C   0  0  0  0  0  0  0  0  0  0  0  0
    7.5327    0.6966   -0.1296 O   0  0  0  0  0  0  0  0  0  0  0  0
    6.2251    0.3576    0.0761 C   0  0  0  0  0  0  0  0  0  0  0  0
    5.7673   -0.7872    0.7279 C   0  0  0  0  0  0  0  0  0  0  0  0
    4.3922   -1.0218    0.8724 C   0  0  0  0  0  0  0  0  0  0  0  0
    3.4590   -0.1136    0.3649 C   0  0  0  0  0  0  0  0  0  0  0  0
    2.1005   -0.2563    0.4568 O   0  0  0  0  0  0  0  0  0  0  0  0
    1.5898   -1.4250    1.0930 C   0  0  0  0  0  0  0  0  0  0  0  0
    0.1138   -1.3405    1.0175 C   0  0  0  0  0  0  0  0  0  0  0  0
   -0.7787   -0.7190    0.1783 C   0  0  0  0  0  0  0  0  0  0  0  0
   -2.0580   -1.0654    0.6887 C   0  0  0  0  0  0  0  0  0  0  0  0
   -3.3785   -0.6928    0.1672 C   0  0  0  0  0  0  0  0  0  0  0  0
   -4.2586   -1.5397    0.0225 O   0  0  0  0  0  0  0  0  0  0  0  0
   -3.5827    0.6470   -0.2093 N   0  0  0  0  0  0  0  0  0  0  0  0
   -2.8035    1.7534    0.3356 C   0  0  0  0  0  0  0  0  0  0  0  0
   -4.7964    1.0213   -0.9496 C   0  0  0  0  0  0  0  0  0  0  0  0
   -6.1009    0.8000   -0.1926 C   0  0  0  0  0  0  0  0  0  0  0  0
   -6.9037   -0.1206   -1.0903 C   0  0  0  0  0  0  0  0  0  0  0  0
   -6.4164    0.1036   -2.4175 O   0  0  0  0  0  0  0  0  0  0  0  0
   -5.0024    0.3041   -2.2874 C   0  0  0  0  0  0  0  0  0  0  0  0
   -1.9318   -1.8726    1.7554 N   0  0  0  0  0  0  0  0  0  0  0  0
   -0.5759   -2.0327    1.9615 O   0  0  0  0  0  0  0  0  0  0  0  0
    3.9284    1.0355   -0.2900 C   0  0  0  0  0  0  0  0  0  0  0  0
    2.8329    2.2056   -0.9427 Cl  0  0  0  0  0  0  0  0  0  0  0  0
    5.2984    1.2665   -0.4331 C   0  0  0  0  0  0  0  0  0  0  0  0
    9.5027    0.2394    0.1589 H   0  0  0  0  0  0  0  0  0  0  0  0
    8.4454   -0.2359    1.4952 H   0  0  0  0  0  0  0  0  0  0  0  0
    8.4574   -1.1709   -0.0513 H   0  0  0  0  0  0  0  0  0  0  0  0
    6.4536   -1.5229    1.1354 H   0  0  0  0  0  0  0  0  0  0  0  0
    4.0916   -1.9278    1.3890 H   0  0  0  0  0  0  0  0  0  0  0  0
    1.9237   -2.3281    0.5686 H   0  0  0  0  0  0  0  0  0  0  0  0
    1.9064   -1.4525    2.1420 H   0  0  0  0  0  0  0  0  0  0  0  0
   -0.5438   -0.1062   -0.6798 H   0  0  0  0  0  0  0  0  0  0  0  0
   -2.2884    2.2547   -0.4888 H   0  0  0  0  0  0  0  0  0  0  0  0
   -3.4868    2.4592    0.8193 H   0  0  0  0  0  0  0  0  0  0  0  0
   -2.0791    1.4366    1.0868 H   0  0  0  0  0  0  0  0  0  0  0  0
   -4.7137    2.0947   -1.1724 H   0  0  0  0  0  0  0  0  0  0  0  0
   -5.9882    0.3981    0.8187 H   0  0  0  0  0  0  0  0  0  0  0  0
   -6.6259    1.7585   -0.0978 H   0  0  0  0  0  0  0  0  0  0  0  0
   -7.9762    0.0889   -1.0520 H   0  0  0  0  0  0  0  0  0  0  0  0
   -6.7473   -1.1736   -0.8351 H   0  0  0  0  0  0  0  0  0  0  0  0
   -4.5082   -0.6708   -2.3450 H   0  0  0  0  0  0  0  0  0  0  0  0
   -4.6478    0.9063   -3.1297 H   0  0  0  0  0  0  0  0  0  0  0  0
    5.6515    2.1601   -0.9419 H   0  0  0  0  0  0  0  0  0  0  0  0
  1  2  1  0
  2  3  1  0
  3  4  2  0
  4  5  1  0
  5  6  2  0
  6  7  1  0
  7  8  1  0
  8  9  1  0
  9 10  2  0
 10 11  1  0
 11 12  1  0
 12 13  2  0
 12 14  1  0
 14 15  1  0
 14 16  1  0
 16 17  1  0
 17 18  1  0
 18 19  1  0
 19 20  1  0
 11 21  2  0
 21 22  1  0
  6 23  1  0
 23 24  1  0
 23 25  2  0
 25  3  1  0
 22  9  1  0
 20 16  1  0
  1 26  1  0
  1 27  1  0
  1 28  1  0
  4 29  1  0
  5 30  1  0
  8 31  1  0
  8 32  1  0
 10 33  1  0
 15 34  1  0
 15 35  1  0
 15 36  1  0
 16 37  1  0
 17 38  1  0
 17 39  1  0
 18 40  1  0
 18 41  1  0
 20 42  1  0
 20 43  1  0
 25 44  1  0
M  END
$$$$
