
     RDKit          3D

 35 37  0  0  0  0  0  0  0  0999 V2000
    5.0179   -1.2281    2.5493 C   0  0  0  0  0  0  0  0  0  0  0  0
    4.0281   -0.5207    1.6645 C   0  0  0  0  0  0  0  0  0  0  0  0
    3.3595    0.6130    2.1510 C   0  0  0  0  0  0  0  0  0  0  0  0
    2.4371    1.2938    1.3546 C   0  0  0  0  0  0  0  0  0  0  0  0
    2.1566    0.8485    0.0643 C   0  0  0  0  0  0  0  0  0  0  0  0
    1.2438    1.5423   -0.7414 N   0  0  0  0  0  0  0  0  0  0  0  0
    0.0035    1.1965   -0.7343 C   0  0  0  0  0  0  0  0  0  0  0  0
   -0.8852    1.8600   -1.5101 N   0  0  0  0  0  0  0  0  0  0  0  0
   -2.1899    1.4564   -1.4989 C   0  0  0  0  0  0  0  0  0  0  0  0
   -3.0507    1.9665   -2.1957 O   0  0  0  0  0  0  0  0  0  0  0  0
   -2.3616    0.3231   -0.5399 C   0  0  0  0  0  0  0  0  0  0  0  0
   -3.4562   -0.3774   -0.2100 C   0  0  0  0  0  0  0  0  0  0  0  0
   -4.7728   -0.1518   -0.6998 C   0  0  0  0  0  0  0  0  0  0  0  0
   -5.4974    1.0147   -0.8737 C   0  0  0  0  0  0  0  0  0  0  0  0
   -6.8134    0.7900   -1.3742 C   0  0  0  0  0  0  0  0  0  0  0  0
   -7.0737   -0.5480   -1.5502 C   0  0  0  0  0  0  0  0  0  0  0  0
   -5.7436   -1.5212   -1.1067 S   0  0  0  0  0  0  0  0  0  0  0  0
   -0.8079   -0.0610    0.1541 S   0  0  0  0  0  0  0  0  0  0  0  0
    2.8363   -0.2655   -0.4353 C   0  0  0  0  0  0  0  0  0  0  0  0
    3.7683   -0.9629    0.3519 C   0  0  0  0  0  0  0  0  0  0  0  0
    4.4674   -2.1625   -0.2260 C   0  0  0  0  0  0  0  0  0  0  0  0
    4.7290   -2.2753    2.6836 H   0  0  0  0  0  0  0  0  0  0  0  0
    5.0661   -0.7718    3.5438 H   0  0  0  0  0  0  0  0  0  0  0  0
    6.0204   -1.1780    2.1129 H   0  0  0  0  0  0  0  0  0  0  0  0
    3.5556    0.9789    3.1565 H   0  0  0  0  0  0  0  0  0  0  0  0
    1.9363    2.1758    1.7431 H   0  0  0  0  0  0  0  0  0  0  0  0
   -0.5809    2.6095   -2.1096 H   0  0  0  0  0  0  0  0  0  0  0  0
   -3.3456   -1.2140    0.4790 H   0  0  0  0  0  0  0  0  0  0  0  0
   -5.1034    2.0012   -0.6596 H   0  0  0  0  0  0  0  0  0  0  0  0
   -7.5291    1.5731   -1.5916 H   0  0  0  0  0  0  0  0  0  0  0  0
   -7.9847   -1.0032   -1.9134 H   0  0  0  0  0  0  0  0  0  0  0  0
    2.6324   -0.5882   -1.4534 H   0  0  0  0  0  0  0  0  0  0  0  0
    5.5507   -2.0061   -0.2310 H   0  0  0  0  0  0  0  0  0  0  0  0
    4.2295   -3.0580    0.3567 H   0  0  0  0  0  0  0  0  0  0  0  0
    4.1575   -2.3496   -1.2597 H   0  0  0  0  0  0  0  0  0  0  0  0
  1  2  1  0
  2  3  2  0
  3  4  1  0
  4  5  2  0
  5  6  1  0
  6  7  2  3
  7  8  1  0
  8  9  1  0
  9 10  2  0
  9 11  1  0
 11 12  2  3
 12 13  1  0
 13 14  2  0
 14 15  1  0
 15 16  2  0
 16 17  1  0
 11 18  1  0
  5 19  1  0
 19 20  2  0
 20 21  1  0
 20  2  1  0
 18  7  1  0
 17 13  1  0
  1 22  1  0
  1 23  1  0
  1 24  1  0
  3 25  1  0
  4 26  1  0
  8 27  1  0
 12 28  1  0
 14 29  1  0
 15 30  1  0
 16 31  1  0
 19 32  1  0
 21 33  1  0
 21 34  1  0
 21 35  1  0
M  END
$$$$
