
     RDKit          3D

 55 58  0  0  0  0  0  0  0  0999 V2000
   -4.5497   -2.0637   -2.5036 C   0  0  0  0  0  0  0  0  0  0  0  0
   -4.2857   -2.3618   -1.0343 C   0  0  0  0  0  0  0  0  0  0  0  0
   -4.6838   -1.2325   -0.1863 N   0  0  0  0  0  0  0  0  0  0  0  0
   -5.9543   -1.0904    0.3462 C   0  0  0  0  0  0  0  0  0  0  0  0
   -6.3858   -0.0566    1.0871 C   0  0  0  0  0  0  0  0  0  0  0  0
   -7.7818   -0.0775    1.5426 C   0  0  0  0  0  0  0  0  0  0  0  0
   -8.4869   -1.0706    1.6236 O   0  0  0  0  0  0  0  0  0  0  0  0
   -8.2745    1.1366    1.8230 O   0  0  0  0  0  0  0  0  0  0  0  0
   -5.4008    1.0154    1.3752 C   0  0  0  0  0  0  0  0  0  0  0  0
   -5.6290    1.9604    2.1213 O   0  0  0  0  0  0  0  0  0  0  0  0
   -4.0764    0.9018    0.7444 C   0  0  0  0  0  0  0  0  0  0  0  0
   -3.1217    1.8746    0.8865 C   0  0  0  0  0  0  0  0  0  0  0  0
   -1.9025    1.7939    0.3189 N   0  0  0  0  0  0  0  0  0  0  0  0
   -1.6194    0.7011   -0.4089 C   0  0  0  0  0  0  0  0  0  0  0  0
   -0.3754    0.6116   -1.0375 N   0  0  0  0  0  0  0  0  0  0  0  0
    0.6804    1.3999   -0.3709 C   0  0  0  0  0  0  0  0  0  0  0  0
    1.9746    1.3679   -1.2003 C   0  0  0  0  0  0  0  0  0  0  0  0
    2.4047   -0.0055   -1.5219 N   0  0  0  0  0  0  0  0  0  0  0  0
    3.7388   -0.2432   -1.7739 C   0  0  0  0  0  0  0  0  0  0  0  0
    4.3522   -0.9879   -3.1491 S   0  0  0  0  0  0  0  0  0  0  0  0
    4.6680    0.1359   -0.8289 N   0  0  0  0  0  0  0  0  0  0  0  0
    4.5261    0.3450    0.5426 C   0  0  0  0  0  0  0  0  0  0  0  0
    3.4796    0.5501    1.1454 O   0  0  0  0  0  0  0  0  0  0  0  0
    5.8049    0.3863    1.3044 C   0  0  0  0  0  0  0  0  0  0  0  0
    5.9235    1.3022    2.3570 C   0  0  0  0  0  0  0  0  0  0  0  0
    7.1066    1.3724    3.0936 C   0  0  0  0  0  0  0  0  0  0  0  0
    8.1686    0.5215    2.7889 C   0  0  0  0  0  0  0  0  0  0  0  0
    8.0478   -0.4074    1.7550 C   0  0  0  0  0  0  0  0  0  0  0  0
    6.8663   -0.4817    1.0138 C   0  0  0  0  0  0  0  0  0  0  0  0
    1.3386   -0.7791   -2.1806 C   0  0  0  0  0  0  0  0  0  0  0  0
    0.0237   -0.7645   -1.3774 C   0  0  0  0  0  0  0  0  0  0  0  0
   -2.5116   -0.2908   -0.5891 N   0  0  0  0  0  0  0  0  0  0  0  0
   -3.7313   -0.1981   -0.0172 C   0  0  0  0  0  0  0  0  0  0  0  0
   -3.9681   -1.2038   -2.8503 H   0  0  0  0  0  0  0  0  0  0  0  0
   -5.6082   -1.8429   -2.6763 H   0  0  0  0  0  0  0  0  0  0  0  0
   -4.2776   -2.9269   -3.1190 H   0  0  0  0  0  0  0  0  0  0  0  0
   -4.8600   -3.2524   -0.7483 H   0  0  0  0  0  0  0  0  0  0  0  0
   -3.2344   -2.6356   -0.8823 H   0  0  0  0  0  0  0  0  0  0  0  0
   -6.6193   -1.9173    0.1009 H   0  0  0  0  0  0  0  0  0  0  0  0
   -9.1935    0.9786    2.1197 H   0  0  0  0  0  0  0  0  0  0  0  0
   -3.3037    2.7732    1.4693 H   0  0  0  0  0  0  0  0  0  0  0  0
    0.8708    0.9934    0.6304 H   0  0  0  0  0  0  0  0  0  0  0  0
    0.3861    2.4513   -0.2674 H   0  0  0  0  0  0  0  0  0  0  0  0
    2.7668    1.9409   -0.7121 H   0  0  0  0  0  0  0  0  0  0  0  0
    1.8022    1.8683   -2.1632 H   0  0  0  0  0  0  0  0  0  0  0  0
    5.6093   -0.0206   -1.1609 H   0  0  0  0  0  0  0  0  0  0  0  0
    5.0945    1.9625    2.6048 H   0  0  0  0  0  0  0  0  0  0  0  0
    7.1972    2.0868    3.9085 H   0  0  0  0  0  0  0  0  0  0  0  0
    9.0882    0.5741    3.3674 H   0  0  0  0  0  0  0  0  0  0  0  0
    8.8721   -1.0824    1.5356 H   0  0  0  0  0  0  0  0  0  0  0  0
    6.7826   -1.2405    0.2405 H   0  0  0  0  0  0  0  0  0  0  0  0
    1.1774   -0.3447   -3.1753 H   0  0  0  0  0  0  0  0  0  0  0  0
    1.6629   -1.8171   -2.3118 H   0  0  0  0  0  0  0  0  0  0  0  0
   -0.7382   -1.2616   -1.9905 H   0  0  0  0  0  0  0  0  0  0  0  0
    0.1592   -1.3485   -0.4572 H   0  0  0  0  0  0  0  0  0  0  0  0
  1  2  1  0
  2  3  1  0
  3  4  1  0
  4  5  2  0
  5  6  1  0
  6  7  2  0
  6  8  1  0
  5  9  1  0
  9 10  2  0
  9 11  1  0
 11 12  2  0
 12 13  1  0
 13 14  2  0
 14 15  1  0
 15 16  1  0
 16 17  1  0
 17 18  1  0
 18 19  1  0
 19 20  2  0
 19 21  1  0
 21 22  1  0
 22 23  2  0
 22 24  1  0
 24 25  2  0
 25 26  1  0
 26 27  2  0
 27 28  1  0
 28 29  2  0
 18 30  1  0
 30 31  1  0
 14 32  1  0
 32 33  2  0
 33  3  1  0
 33 11  1  0
 31 15  1  0
 29 24  1  0
  1 34  1  0
  1 35  1  0
  1 36  1  0
  2 37  1  0
  2 38  1  0
  4 39  1  0
  8 40  1  0
 12 41  1  0
 16 42  1  0
 16 43  1  0
 17 44  1  0
 17 45  1  0
 21 46  1  0
 25 47  1  0
 26 48  1  0
 27 49  1  0
 28 50  1  0
 29 51  1  0
 30 52  1  0
 30 53  1  0
 31 54  1  0
 31 55  1  0
M  END
$$$$
