
     RDKit          3D

 61 63  0  0  0  0  0  0  0  0999 V2000
    0.7759   -0.8963   -3.6889 C   0  0  0  0  0  0  0  0  0  0  0  0
   -0.3403    0.0390   -3.2582 C   0  0  0  0  0  0  0  0  0  0  0  0
   -0.1167    0.5215   -1.9260 O   0  0  0  0  0  0  0  0  0  0  0  0
   -0.6173   -0.2605   -0.9205 C   0  0  0  0  0  0  0  0  0  0  0  0
   -1.1997   -1.3248   -1.1011 O   0  0  0  0  0  0  0  0  0  0  0  0
   -0.5076    0.3947    0.3808 C   0  0  0  0  0  0  0  0  0  0  0  0
   -1.5882    0.4791    1.3412 C   0  0  0  0  0  0  0  0  0  0  0  0
   -2.9171   -0.1028    1.2397 C   0  0  0  0  0  0  0  0  0  0  0  0
   -3.9752    0.6496    0.7226 C   0  0  0  0  0  0  0  0  0  0  0  0
   -5.2542    0.0883    0.6379 C   0  0  0  0  0  0  0  0  0  0  0  0
   -5.5008   -1.2271    1.0683 C   0  0  0  0  0  0  0  0  0  0  0  0
   -6.8490   -1.8096    0.9768 C   0  0  0  0  0  0  0  0  0  0  0  0
   -7.5187   -1.8930   -0.2553 C   0  0  0  0  0  0  0  0  0  0  0  0
   -8.8006   -2.4426   -0.3433 C   0  0  0  0  0  0  0  0  0  0  0  0
   -9.4332   -2.9198    0.8010 C   0  0  0  0  0  0  0  0  0  0  0  0
   -8.7879   -2.8438    2.0338 C   0  0  0  0  0  0  0  0  0  0  0  0
   -7.5059   -2.2927    2.1204 C   0  0  0  0  0  0  0  0  0  0  0  0
   -4.4242   -1.9691    1.5839 C   0  0  0  0  0  0  0  0  0  0  0  0
   -3.1414   -1.4151    1.6645 C   0  0  0  0  0  0  0  0  0  0  0  0
   -1.2764    1.2887    2.4163 C   0  0  0  0  0  0  0  0  0  0  0  0
    0.2853    1.9542    2.2820 S   0  0  0  0  0  0  0  0  0  0  0  0
    0.5978    1.0788    0.8564 C   0  0  0  0  0  0  0  0  0  0  0  0
    1.9012    1.2310    0.4487 N   0  0  0  0  0  0  0  0  0  0  0  0
    2.5911    0.3171   -0.3210 C   0  0  0  0  0  0  0  0  0  0  0  0
    2.1608   -0.7628   -0.7169 O   0  0  0  0  0  0  0  0  0  0  0  0
    4.0490    0.7379   -0.5652 C   0  0  0  0  0  0  0  0  0  0  0  0
    4.1763    2.2136   -0.5202 N   0  0  0  0  0  0  0  0  0  0  0  0
    5.5356    2.6540   -0.8805 C   0  0  0  0  0  0  0  0  0  0  0  0
    6.6321    2.4051    0.1877 C   0  0  0  0  0  0  0  0  0  0  0  0
    7.0839    1.0078    0.3352 N   0  0  0  0  0  0  0  0  0  0  0  0
    7.8060    0.5324   -0.8479 C   0  0  0  0  0  0  0  0  0  0  0  0
    7.9291    0.8698    1.5242 C   0  0  0  0  0  0  0  0  0  0  0  0
    1.7489   -0.3979   -3.6058 H   0  0  0  0  0  0  0  0  0  0  0  0
    0.8155   -1.7840   -3.0460 H   0  0  0  0  0  0  0  0  0  0  0  0
    0.6323   -1.2180   -4.7257 H   0  0  0  0  0  0  0  0  0  0  0  0
   -0.3537    0.9171   -3.9126 H   0  0  0  0  0  0  0  0  0  0  0  0
   -1.3226   -0.4397   -3.3529 H   0  0  0  0  0  0  0  0  0  0  0  0
   -3.8142    1.6702    0.3827 H   0  0  0  0  0  0  0  0  0  0  0  0
   -6.0681    0.6903    0.2347 H   0  0  0  0  0  0  0  0  0  0  0  0
   -7.0367   -1.5383   -1.1648 H   0  0  0  0  0  0  0  0  0  0  0  0
   -9.2972   -2.5003   -1.3075 H   0  0  0  0  0  0  0  0  0  0  0  0
  -10.4277   -3.3533    0.7311 H   0  0  0  0  0  0  0  0  0  0  0  0
   -9.2808   -3.2105    2.9302 H   0  0  0  0  0  0  0  0  0  0  0  0
   -7.0225   -2.2320    3.0942 H   0  0  0  0  0  0  0  0  0  0  0  0
   -4.5714   -2.9969    1.9141 H   0  0  0  0  0  0  0  0  0  0  0  0
   -2.3210   -2.0187    2.0493 H   0  0  0  0  0  0  0  0  0  0  0  0
   -1.9043    1.5451    3.2580 H   0  0  0  0  0  0  0  0  0  0  0  0
    2.4782    1.9167    0.9305 H   0  0  0  0  0  0  0  0  0  0  0  0
    4.3468    0.3584   -1.5466 H   0  0  0  0  0  0  0  0  0  0  0  0
    4.6398    0.2627    0.2214 H   0  0  0  0  0  0  0  0  0  0  0  0
    3.5362    2.5839   -1.2305 H   0  0  0  0  0  0  0  0  0  0  0  0
    5.4772    3.7418   -1.0136 H   0  0  0  0  0  0  0  0  0  0  0  0
    5.8267    2.2618   -1.8624 H   0  0  0  0  0  0  0  0  0  0  0  0
    6.2323    2.7631    1.1485 H   0  0  0  0  0  0  0  0  0  0  0  0
    7.4922    3.0505   -0.0494 H   0  0  0  0  0  0  0  0  0  0  0  0
    7.1526    0.4970   -1.7222 H   0  0  0  0  0  0  0  0  0  0  0  0
    8.1558   -0.4951   -0.6956 H   0  0  0  0  0  0  0  0  0  0  0  0
    8.6745    1.1550   -1.0879 H   0  0  0  0  0  0  0  0  0  0  0  0
    8.8232    1.5028    1.4740 H   0  0  0  0  0  0  0  0  0  0  0  0
    7.3697    1.1376    2.4276 H   0  0  0  0  0  0  0  0  0  0  0  0
    8.2488   -0.1717    1.6487 H   0  0  0  0  0  0  0  0  0  0  0  0
  1  2  1  0
  2  3  1  0
  3  4  1  0
  4  5  2  0
  4  6  1  0
  6  7  1  0
  7  8  1  0
  8  9  2  0
  9 10  1  0
 10 11  2  0
 11 12  1  0
 12 13  2  0
 13 14  1  0
 14 15  2  0
 15 16  1  0
 16 17  2  0
 11 18  1  0
 18 19  2  0
  7 20  2  0
 20 21  1  0
 21 22  1  0
 22 23  1  0
 23 24  1  0
 24 25  2  0
 24 26  1  0
 26 27  1  0
 27 28  1  0
 28 29  1  0
 29 30  1  0
 30 31  1  0
 30 32  1  0
 22  6  2  0
 19  8  1  0
 17 12  1  0
  1 33  1  0
  1 34  1  0
  1 35  1  0
  2 36  1  0
  2 37  1  0
  9 38  1  0
 10 39  1  0
 13 40  1  0
 14 41  1  0
 15 42  1  0
 16 43  1  0
 17 44  1  0
 18 45  1  0
 19 46  1  0
 20 47  1  0
 23 48  1  0
 26 49  1  0
 26 50  1  0
 27 51  1  0
 28 52  1  0
 28 53  1  0
 29 54  1  0
 29 55  1  0
 31 56  1  0
 31 57  1  0
 31 58  1  0
 32 59  1  0
 32 60  1  0
 32 61  1  0
M  END
$$$$
