
     RDKit          3D

 41 43  0  0  0  0  0  0  0  0999 V2000
   -3.2177    0.4623   -1.4720 O   0  0  0  0  0  0  0  0  0  0  0  0
   -3.4463    0.2399   -0.2894 C   0  0  0  0  0  0  0  0  0  0  0  0
   -2.5851   -0.3387    0.6265 N   0  0  0  0  0  0  0  0  0  0  0  0
   -1.2458   -0.7300    0.4134 C   0  0  0  0  0  0  0  0  0  0  0  0
   -0.5939   -1.3747    1.4696 C   0  0  0  0  0  0  0  0  0  0  0  0
    0.7268   -1.8019    1.3308 C   0  0  0  0  0  0  0  0  0  0  0  0
    1.4161   -1.5742    0.1392 C   0  0  0  0  0  0  0  0  0  0  0  0
    0.7942   -0.9010   -0.9135 C   0  0  0  0  0  0  0  0  0  0  0  0
    1.4122   -0.6407   -2.1552 N   0  0  0  0  0  0  0  0  0  0  0  0
    2.7318   -0.6526   -2.5369 C   0  0  0  0  0  0  0  0  0  0  0  0
    3.0486   -0.7257   -4.1756 S   0  0  0  0  0  0  0  0  0  0  0  0
    3.6552   -0.5194   -1.5227 N   0  0  0  0  0  0  0  0  0  0  0  0
    5.0483   -0.5185   -1.5807 C   0  0  0  0  0  0  0  0  0  0  0  0
    5.6914   -1.1417   -2.4201 O   0  0  0  0  0  0  0  0  0  0  0  0
    5.7073    0.1870   -0.4818 C   0  0  0  0  0  0  0  0  0  0  0  0
    7.0708    0.2917   -0.2701 C   0  0  0  0  0  0  0  0  0  0  0  0
    7.3919    1.0502    0.8921 C   0  0  0  0  0  0  0  0  0  0  0  0
    6.2635    1.5045    1.5355 C   0  0  0  0  0  0  0  0  0  0  0  0
    4.8319    1.0165    0.7397 S   0  0  0  0  0  0  0  0  0  0  0  0
   -0.5442   -0.5035   -0.7746 C   0  0  0  0  0  0  0  0  0  0  0  0
   -4.7956    0.5763    0.2466 C   0  0  0  0  0  0  0  0  0  0  0  0
   -4.9713    1.0612    1.5498 C   0  0  0  0  0  0  0  0  0  0  0  0
   -6.2537    1.3649    2.0125 C   0  0  0  0  0  0  0  0  0  0  0  0
   -7.3577    1.1942    1.1766 C   0  0  0  0  0  0  0  0  0  0  0  0
   -7.1842    0.7295   -0.1269 C   0  0  0  0  0  0  0  0  0  0  0  0
   -5.9048    0.4259   -0.5946 C   0  0  0  0  0  0  0  0  0  0  0  0
   -2.9735   -0.5769    1.5298 H   0  0  0  0  0  0  0  0  0  0  0  0
   -1.1076   -1.5707    2.4072 H   0  0  0  0  0  0  0  0  0  0  0  0
    1.2139   -2.3327    2.1455 H   0  0  0  0  0  0  0  0  0  0  0  0
    2.4156   -1.9873    0.0466 H   0  0  0  0  0  0  0  0  0  0  0  0
    0.7771   -0.4757   -2.9331 H   0  0  0  0  0  0  0  0  0  0  0  0
    3.2802   -0.0384   -0.7173 H   0  0  0  0  0  0  0  0  0  0  0  0
    7.8034   -0.1610   -0.9303 H   0  0  0  0  0  0  0  0  0  0  0  0
    8.3994    1.2525    1.2356 H   0  0  0  0  0  0  0  0  0  0  0  0
    6.2112    2.1022    2.4357 H   0  0  0  0  0  0  0  0  0  0  0  0
   -1.0225    0.0055   -1.6055 H   0  0  0  0  0  0  0  0  0  0  0  0
   -4.1218    1.2381    2.2034 H   0  0  0  0  0  0  0  0  0  0  0  0
   -6.3933    1.7471    3.0210 H   0  0  0  0  0  0  0  0  0  0  0  0
   -8.3550    1.4355    1.5371 H   0  0  0  0  0  0  0  0  0  0  0  0
   -8.0438    0.6089   -0.7818 H   0  0  0  0  0  0  0  0  0  0  0  0
   -5.7730    0.0711   -1.6150 H   0  0  0  0  0  0  0  0  0  0  0  0
  1  2  2  0
  2  3  1  0
  3  4  1  0
  4  5  2  0
  5  6  1  0
  6  7  2  0
  7  8  1  0
  8  9  1  0
  9 10  1  0
 10 11  2  0
 10 12  1  0
 12 13  1  0
 13 14  2  0
 13 15  1  0
 15 16  2  0
 16 17  1  0
 17 18  2  0
 18 19  1  0
  8 20  2  0
  2 21  1  0
 21 22  2  0
 22 23  1  0
 23 24  2  0
 24 25  1  0
 25 26  2  0
 20  4  1  0
 26 21  1  0
 19 15  1  0
  3 27  1  0
  5 28  1  0
  6 29  1  0
  7 30  1  0
  9 31  1  0
 12 32  1  0
 16 33  1  0
 17 34  1  0
 18 35  1  0
 20 36  1  0
 22 37  1  0
 23 38  1  0
 24 39  1  0
 25 40  1  0
 26 41  1  0
M  END
$$$$
