
     RDKit          3D

 69 71  0  0  0  0  0  0  0  0999 V2000
   10.0355    2.4315    0.8764 C   0  0  0  0  0  0  0  0  0  0  0  0
    8.7980    1.5464    0.8484 C   0  0  0  0  0  0  0  0  0  0  0  0
    8.3675    1.2372   -0.5859 C   0  0  0  0  0  0  0  0  0  0  0  0
    7.1934    0.2578   -0.6728 C   0  0  0  0  0  0  0  0  0  0  0  0
    5.8909    0.8161   -0.0944 C   0  0  0  0  0  0  0  0  0  0  0  0
    4.7209   -0.1430   -0.3352 C   0  0  0  0  0  0  0  0  0  0  0  0
    3.4198    0.4145    0.2476 C   0  0  0  0  0  0  0  0  0  0  0  0
    2.2240   -0.5303    0.0880 C   0  0  0  0  0  0  0  0  0  0  0  0
    1.7930   -0.7157   -1.3705 C   0  0  0  0  0  0  0  0  0  0  0  0
    0.5354   -1.5750   -1.4980 C   0  0  0  0  0  0  0  0  0  0  0  0
   -0.5861   -0.9683   -0.8310 O   0  0  0  0  0  0  0  0  0  0  0  0
   -1.2532   -0.0173   -1.5478 C   0  0  0  0  0  0  0  0  0  0  0  0
   -0.9957    0.3286   -2.6921 O   0  0  0  0  0  0  0  0  0  0  0  0
   -2.4160    0.5278   -0.7370 C   0  0  0  0  0  0  0  0  0  0  0  0
   -3.5125   -0.4608   -0.6585 N   0  0  0  0  0  0  0  0  0  0  0  0
   -3.7655   -1.2792    0.3905 C   0  0  0  0  0  0  0  0  0  0  0  0
   -3.0804   -1.2641    1.7498 C   0  0  0  0  0  0  0  0  0  0  0  0
   -2.9184    0.0416    2.2966 O   0  0  0  0  0  0  0  0  0  0  0  0
   -4.0347    0.7334    2.6726 C   0  0  0  0  0  0  0  0  0  0  0  0
   -5.3151    0.2056    2.8427 C   0  0  0  0  0  0  0  0  0  0  0  0
   -6.3737    1.0416    3.2184 C   0  0  0  0  0  0  0  0  0  0  0  0
   -6.1504    2.4001    3.4320 C   0  0  0  0  0  0  0  0  0  0  0  0
   -7.4563    3.4199    3.8850 Cl  0  0  0  0  0  0  0  0  0  0  0  0
   -4.8729    2.9306    3.2833 C   0  0  0  0  0  0  0  0  0  0  0  0
   -3.8180    2.0952    2.9086 C   0  0  0  0  0  0  0  0  0  0  0  0
   -4.7397   -2.1357   -0.0075 N   0  0  0  0  0  4  0  0  0  0  0  0
   -5.2314   -3.2772    0.7622 C   0  0  0  0  0  0  0  0  0  0  0  0
   -5.2159   -1.7651   -1.2638 C   0  0  0  0  0  0  0  0  0  0  0  0
   -6.2465   -2.2773   -2.0508 C   0  0  0  0  0  0  0  0  0  0  0  0
   -6.4305   -1.6694   -3.3003 C   0  0  0  0  0  0  0  0  0  0  0  0
   -5.6152   -0.6073   -3.7327 C   0  0  0  0  0  0  0  0  0  0  0  0
   -4.5827   -0.0991   -2.9332 C   0  0  0  0  0  0  0  0  0  0  0  0
   -4.4160   -0.7038   -1.6886 C   0  0  0  0  0  0  0  0  0  0  0  0
   10.8772    1.9470    0.3710 H   0  0  0  0  0  0  0  0  0  0  0  0
   10.3316    2.6356    1.9105 H   0  0  0  0  0  0  0  0  0  0  0  0
    9.8431    3.3892    0.3823 H   0  0  0  0  0  0  0  0  0  0  0  0
    9.0106    0.6138    1.3836 H   0  0  0  0  0  0  0  0  0  0  0  0
    7.9922    2.0561    1.3872 H   0  0  0  0  0  0  0  0  0  0  0  0
    9.2157    0.8014   -1.1282 H   0  0  0  0  0  0  0  0  0  0  0  0
    8.1090    2.1687   -1.1041 H   0  0  0  0  0  0  0  0  0  0  0  0
    7.0380    0.0065   -1.7298 H   0  0  0  0  0  0  0  0  0  0  0  0
    7.4547   -0.6768   -0.1615 H   0  0  0  0  0  0  0  0  0  0  0  0
    5.6686    1.7859   -0.5564 H   0  0  0  0  0  0  0  0  0  0  0  0
    6.0015    0.9855    0.9829 H   0  0  0  0  0  0  0  0  0  0  0  0
    4.9421   -1.1152    0.1226 H   0  0  0  0  0  0  0  0  0  0  0  0
    4.6111   -0.3076   -1.4132 H   0  0  0  0  0  0  0  0  0  0  0  0
    3.5639    0.6072    1.3187 H   0  0  0  0  0  0  0  0  0  0  0  0
    3.1884    1.3807   -0.2184 H   0  0  0  0  0  0  0  0  0  0  0  0
    2.4624   -1.5047    0.5298 H   0  0  0  0  0  0  0  0  0  0  0  0
    1.3885   -0.1167    0.6647 H   0  0  0  0  0  0  0  0  0  0  0  0
    2.5952   -1.1930   -1.9428 H   0  0  0  0  0  0  0  0  0  0  0  0
    1.6129    0.2703   -1.8133 H   0  0  0  0  0  0  0  0  0  0  0  0
    0.2981   -1.7674   -2.5510 H   0  0  0  0  0  0  0  0  0  0  0  0
    0.6961   -2.5508   -1.0276 H   0  0  0  0  0  0  0  0  0  0  0  0
   -2.0523    0.8175    0.2487 H   0  0  0  0  0  0  0  0  0  0  0  0
   -2.7899    1.4413   -1.2124 H   0  0  0  0  0  0  0  0  0  0  0  0
   -3.6096   -1.9283    2.4361 H   0  0  0  0  0  0  0  0  0  0  0  0
   -2.0886   -1.6844    1.5583 H   0  0  0  0  0  0  0  0  0  0  0  0
   -5.5355   -0.8470    2.7181 H   0  0  0  0  0  0  0  0  0  0  0  0
   -7.3706    0.6270    3.3540 H   0  0  0  0  0  0  0  0  0  0  0  0
   -4.6901    3.9873    3.4626 H   0  0  0  0  0  0  0  0  0  0  0  0
   -2.8198    2.5172    2.8062 H   0  0  0  0  0  0  0  0  0  0  0  0
   -4.4104   -3.7240    1.3288 H   0  0  0  0  0  0  0  0  0  0  0  0
   -5.6326   -4.0433    0.0934 H   0  0  0  0  0  0  0  0  0  0  0  0
   -6.0155   -2.9353    1.4426 H   0  0  0  0  0  0  0  0  0  0  0  0
   -6.8719   -3.0977   -1.7220 H   0  0  0  0  0  0  0  0  0  0  0  0
   -7.2221   -2.0296   -3.9590 H   0  0  0  0  0  0  0  0  0  0  0  0
   -5.7914   -0.1701   -4.7166 H   0  0  0  0  0  0  0  0  0  0  0  0
   -3.9522    0.7146   -3.2720 H   0  0  0  0  0  0  0  0  0  0  0  0
  1  2  1  0
  2  3  1  0
  3  4  1  0
  4  5  1  0
  5  6  1  0
  6  7  1  0
  7  8  1  0
  8  9  1  0
  9 10  1  0
 10 11  1  0
 11 12  1  0
 12 13  2  0
 12 14  1  0
 14 15  1  0
 15 16  1  0
 16 17  1  0
 17 18  1  0
 18 19  1  0
 19 20  2  0
 20 21  1  0
 21 22  2  0
 22 23  1  0
 22 24  1  0
 24 25  2  0
 16 26  2  0
 26 27  1  0
 26 28  1  0
 28 29  2  0
 29 30  1  0
 30 31  2  0
 31 32  1  0
 32 33  2  0
 33 15  1  0
 25 19  1  0
 33 28  1  0
  1 34  1  0
  1 35  1  0
  1 36  1  0
  2 37  1  0
  2 38  1  0
  3 39  1  0
  3 40  1  0
  4 41  1  0
  4 42  1  0
  5 43  1  0
  5 44  1  0
  6 45  1  0
  6 46  1  0
  7 47  1  0
  7 48  1  0
  8 49  1  0
  8 50  1  0
  9 51  1  0
  9 52  1  0
 10 53  1  0
 10 54  1  0
 14 55  1  0
 14 56  1  0
 17 57  1  0
 17 58  1  0
 20 59  1  0
 21 60  1  0
 24 61  1  0
 25 62  1  0
 27 63  1  0
 27 64  1  0
 27 65  1  0
 29 66  1  0
 30 67  1  0
 31 68  1  0
 32 69  1  0
M  CHG  1  26   1
M  END
$$$$
