
     RDKit          3D

 42 44  0  0  0  0  0  0  0  0999 V2000
   -3.3220    0.4357   -2.2967 C   0  0  0  0  0  0  0  0  0  0  0  0
   -2.4389   -0.4413   -1.4251 C   0  0  0  0  0  0  0  0  0  0  0  0
   -1.6386    0.3282   -0.4952 N   0  0  0  0  0  0  0  0  0  0  0  0
   -0.3798    0.8342   -0.6973 C   0  0  0  0  0  0  0  0  0  0  0  0
    0.5663    0.5345   -2.1108 S   0  0  0  0  0  0  0  0  0  0  0  0
    1.7938    1.8675   -2.0373 C   0  0  0  0  0  0  0  0  0  0  0  0
    2.7432    1.8279   -0.8579 C   0  0  0  0  0  0  0  0  0  0  0  0
    3.1387    2.8677   -0.3278 O   0  0  0  0  0  0  0  0  0  0  0  0
    3.3160    0.5454   -0.3751 C   0  0  0  0  0  0  0  0  0  0  0  0
    3.7170   -0.4643   -1.2549 C   0  0  0  0  0  0  0  0  0  0  0  0
    4.2817   -1.6403   -0.7527 C   0  0  0  0  0  0  0  0  0  0  0  0
    4.4460   -1.8180    0.6253 C   0  0  0  0  0  0  0  0  0  0  0  0
    5.0574   -3.0804    1.1498 C   0  0  0  0  0  0  0  0  0  0  0  0
    4.0651   -0.7915    1.4986 C   0  0  0  0  0  0  0  0  0  0  0  0
    3.5045    0.3859    1.0009 C   0  0  0  0  0  0  0  0  0  0  0  0
   -0.0254    1.5688    0.3277 N   0  0  0  0  0  0  0  0  0  0  0  0
   -1.0542    1.5439    1.2343 N   0  0  0  0  0  0  0  0  0  0  0  0
   -2.0176    0.7767    0.7563 C   0  0  0  0  0  0  0  0  0  0  0  0
   -3.2878    0.5194    1.4226 C   0  0  0  0  0  0  0  0  0  0  0  0
   -4.1001    1.5921    1.7862 C   0  0  0  0  0  0  0  0  0  0  0  0
   -5.3064    1.3240    2.4070 C   0  0  0  0  0  0  0  0  0  0  0  0
   -5.7451    0.0790    2.6864 N   0  0  0  0  0  0  0  0  0  0  0  0
   -4.9235   -0.9406    2.3667 C   0  0  0  0  0  0  0  0  0  0  0  0
   -3.6981   -0.7749    1.7453 C   0  0  0  0  0  0  0  0  0  0  0  0
   -4.0314    1.0088   -1.6919 H   0  0  0  0  0  0  0  0  0  0  0  0
   -2.7264    1.1483   -2.8757 H   0  0  0  0  0  0  0  0  0  0  0  0
   -3.8936   -0.1782   -2.9994 H   0  0  0  0  0  0  0  0  0  0  0  0
   -1.7727   -1.0481   -2.0451 H   0  0  0  0  0  0  0  0  0  0  0  0
   -3.0469   -1.1504   -0.8601 H   0  0  0  0  0  0  0  0  0  0  0  0
    2.3920    1.8504   -2.9535 H   0  0  0  0  0  0  0  0  0  0  0  0
    1.2568    2.8208   -2.0148 H   0  0  0  0  0  0  0  0  0  0  0  0
    3.6193   -0.3454   -2.3294 H   0  0  0  0  0  0  0  0  0  0  0  0
    4.5961   -2.4189   -1.4450 H   0  0  0  0  0  0  0  0  0  0  0  0
    4.9195   -3.1690    2.2334 H   0  0  0  0  0  0  0  0  0  0  0  0
    6.1295   -3.0978    0.9366 H   0  0  0  0  0  0  0  0  0  0  0  0
    4.5860   -3.9542    0.6852 H   0  0  0  0  0  0  0  0  0  0  0  0
    4.2006   -0.8963    2.5711 H   0  0  0  0  0  0  0  0  0  0  0  0
    3.2106    1.1790    1.6872 H   0  0  0  0  0  0  0  0  0  0  0  0
   -3.7950    2.6148    1.5958 H   0  0  0  0  0  0  0  0  0  0  0  0
   -5.9725    2.1266    2.7047 H   0  0  0  0  0  0  0  0  0  0  0  0
   -5.2873   -1.9311    2.6374 H   0  0  0  0  0  0  0  0  0  0  0  0
   -3.0768   -1.6388    1.5377 H   0  0  0  0  0  0  0  0  0  0  0  0
  1  2  1  0
  2  3  1  0
  3  4  1  0
  4  5  1  0
  5  6  1  0
  6  7  1  0
  7  8  2  0
  7  9  1  0
  9 10  2  0
 10 11  1  0
 11 12  2  0
 12 13  1  0
 12 14  1  0
 14 15  2  0
  4 16  2  0
 16 17  1  0
 17 18  2  0
 18 19  1  0
 19 20  2  0
 20 21  1  0
 21 22  2  0
 22 23  1  0
 23 24  2  0
 18  3  1  0
 24 19  1  0
 15  9  1  0
  1 25  1  0
  1 26  1  0
  1 27  1  0
  2 28  1  0
  2 29  1  0
  6 30  1  0
  6 31  1  0
 10 32  1  0
 11 33  1  0
 13 34  1  0
 13 35  1  0
 13 36  1  0
 14 37  1  0
 15 38  1  0
 20 39  1  0
 21 40  1  0
 23 41  1  0
 24 42  1  0
M  END
$$$$
