
     RDKit          3D

 67 72  0  0  0  0  0  0  0  0999 V2000
    7.2197   -0.1134   -0.5833 C   0  0  0  0  0  0  0  0  0  0  0  0
    6.2723    0.5434    0.4331 C   0  0  0  0  0  0  0  0  0  0  0  0
    6.3342    2.0636    0.2468 C   0  0  0  0  0  0  0  0  0  0  0  0
    6.6984    0.1194    1.8431 C   0  0  0  0  0  0  0  0  0  0  0  0
    4.9603    0.0240    0.0977 O   0  0  0  0  0  0  0  0  0  0  0  0
    3.8574    0.4023    0.7925 C   0  0  0  0  0  0  0  0  0  0  0  0
    3.8626    1.1714    1.7444 O   0  0  0  0  0  0  0  0  0  0  0  0
    2.7126   -0.1793    0.2899 N   0  0  0  0  0  0  0  0  0  0  0  0
    2.7202   -1.0500   -0.8901 C   0  0  0  0  0  0  0  0  0  0  0  0
    1.3654   -1.7502   -1.1151 C   0  0  0  0  0  0  0  0  0  0  0  0
    0.2651   -0.7946   -1.2164 N   0  0  0  0  0  0  0  0  0  0  0  0
    0.3659    0.3790   -0.2812 C   0  0  2  0  0  0  0  0  0  0  0  0
    1.4034    0.1811    0.8379 C   0  0  0  0  0  0  0  0  0  0  0  0
   -1.0224    0.5431    0.1949 C   0  0  0  0  0  0  0  0  0  0  0  0
   -1.8773   -0.4164   -0.3663 C   0  0  0  0  0  0  0  0  0  0  0  0
   -3.1429   -0.2049    0.1204 C   0  0  0  0  0  0  0  0  0  0  0  0
   -4.2895   -0.8472   -0.0653 O   0  0  0  0  0  0  0  0  0  0  0  0
   -3.0645    0.9065    0.9461 N   0  0  0  0  0  0  0  0  0  0  0  0
   -4.1867    1.4875    1.6730 C   0  0  0  0  0  0  0  0  0  0  0  0
   -4.8419    2.6035    0.8963 C   0  0  0  0  0  0  0  0  0  0  0  0
   -4.4660    3.9375    1.1107 C   0  0  0  0  0  0  0  0  0  0  0  0
   -5.0648    4.9688    0.3855 C   0  0  0  0  0  0  0  0  0  0  0  0
   -6.0421    4.6779   -0.5641 C   0  0  0  0  0  0  0  0  0  0  0  0
   -6.4189    3.3559   -0.7924 C   0  0  0  0  0  0  0  0  0  0  0  0
   -5.8211    2.3235   -0.0679 C   0  0  0  0  0  0  0  0  0  0  0  0
   -1.7551    1.3575    1.0166 C   0  0  0  0  0  0  0  0  0  0  0  0
   -1.4234    2.3981    1.7696 O   0  0  0  0  0  0  0  0  0  0  0  0
   -1.1285   -1.3326   -1.2540 C   0  0  1  0  0  0  0  0  0  0  0  0
   -1.6572   -1.3698   -2.7205 C   0  0  0  0  0  0  0  0  0  0  0  0
   -1.6909   -0.4768   -3.5538 O   0  0  0  0  0  0  0  0  0  0  0  0
   -2.1101   -2.6720   -2.9515 N   0  0  0  0  0  0  0  0  0  0  0  0
   -1.9665   -3.4684   -1.8253 C   0  0  0  0  0  0  0  0  0  0  0  0
   -2.3371   -4.7910   -1.6995 C   0  0  0  0  0  0  0  0  0  0  0  0
   -2.1408   -5.3975   -0.4572 C   0  0  0  0  0  0  0  0  0  0  0  0
   -1.5914   -4.6754    0.6170 C   0  0  0  0  0  0  0  0  0  0  0  0
   -1.2219   -3.3356    0.4652 C   0  0  0  0  0  0  0  0  0  0  0  0
   -1.4039   -2.7368   -0.7742 C   0  0  0  0  0  0  0  0  0  0  0  0
    7.1746   -1.2065   -0.5081 H   0  0  0  0  0  0  0  0  0  0  0  0
    8.2582    0.2009   -0.4348 H   0  0  0  0  0  0  0  0  0  0  0  0
    6.9249    0.1383   -1.6087 H   0  0  0  0  0  0  0  0  0  0  0  0
    7.3621    2.4340    0.3274 H   0  0  0  0  0  0  0  0  0  0  0  0
    5.7382    2.5918    0.9966 H   0  0  0  0  0  0  0  0  0  0  0  0
    5.9355    2.3515   -0.7323 H   0  0  0  0  0  0  0  0  0  0  0  0
    6.5747   -0.9611    1.9767 H   0  0  0  0  0  0  0  0  0  0  0  0
    7.7452    0.3769    2.0373 H   0  0  0  0  0  0  0  0  0  0  0  0
    6.0949    0.6019    2.6173 H   0  0  0  0  0  0  0  0  0  0  0  0
    2.9762   -0.4273   -1.7563 H   0  0  0  0  0  0  0  0  0  0  0  0
    3.5119   -1.7984   -0.7729 H   0  0  0  0  0  0  0  0  0  0  0  0
    1.4205   -2.3503   -2.0300 H   0  0  0  0  0  0  0  0  0  0  0  0
    1.2209   -2.4369   -0.2749 H   0  0  0  0  0  0  0  0  0  0  0  0
    0.6517    1.2495   -0.8852 H   0  0  0  0  0  0  0  0  0  0  0  0
    1.4774    1.0850    1.4525 H   0  0  0  0  0  0  0  0  0  0  0  0
    1.1043   -0.6345    1.5088 H   0  0  0  0  0  0  0  0  0  0  0  0
   -4.1165   -1.5946   -0.6653 H   0  0  0  0  0  0  0  0  0  0  0  0
   -4.9079    0.6920    1.8935 H   0  0  0  0  0  0  0  0  0  0  0  0
   -3.8173    1.8435    2.6419 H   0  0  0  0  0  0  0  0  0  0  0  0
   -3.6944    4.1776    1.8394 H   0  0  0  0  0  0  0  0  0  0  0  0
   -4.7623    5.9983    0.5571 H   0  0  0  0  0  0  0  0  0  0  0  0
   -6.5040    5.4806   -1.1322 H   0  0  0  0  0  0  0  0  0  0  0  0
   -7.1729    3.1267   -1.5401 H   0  0  0  0  0  0  0  0  0  0  0  0
   -6.1150    1.2944   -0.2654 H   0  0  0  0  0  0  0  0  0  0  0  0
   -0.4934    2.6183    1.5847 H   0  0  0  0  0  0  0  0  0  0  0  0
   -2.4964   -2.9579   -3.8388 H   0  0  0  0  0  0  0  0  0  0  0  0
   -2.7712   -5.3446   -2.5244 H   0  0  0  0  0  0  0  0  0  0  0  0
   -2.4230   -6.4385   -0.3134 H   0  0  0  0  0  0  0  0  0  0  0  0
   -1.4580   -5.1650    1.5798 H   0  0  0  0  0  0  0  0  0  0  0  0
   -0.8111   -2.7783    1.3024 H   0  0  0  0  0  0  0  0  0  0  0  0
  1  2  1  0
  2  3  1  0
  2  4  1  0
  2  5  1  0
  5  6  1  0
  6  7  2  0
  6  8  1  0
  8  9  1  0
  9 10  1  0
 10 11  1  0
 11 12  1  0
 12 13  1  0
 12 14  1  0
 14 15  1  0
 15 16  2  0
 16 17  1  0
 16 18  1  0
 18 19  1  0
 19 20  1  0
 20 21  2  0
 21 22  1  0
 22 23  2  0
 23 24  1  0
 24 25  2  0
 18 26  1  0
 26 27  1  0
 15 28  1  0
 28 29  1  0
 29 30  2  0
 29 31  1  0
 31 32  1  0
 32 33  2  0
 33 34  1  0
 34 35  2  0
 35 36  1  0
 36 37  2  0
 13  8  1  0
 26 14  2  0
 37 28  1  0
 28 11  1  6
 37 32  1  0
 25 20  1  0
  1 38  1  0
  1 39  1  0
  1 40  1  0
  3 41  1  0
  3 42  1  0
  3 43  1  0
  4 44  1  0
  4 45  1  0
  4 46  1  0
  9 47  1  0
  9 48  1  0
 10 49  1  0
 10 50  1  0
 12 51  1  6
 13 52  1  0
 13 53  1  0
 17 54  1  0
 19 55  1  0
 19 56  1  0
 21 57  1  0
 22 58  1  0
 23 59  1  0
 24 60  1  0
 25 61  1  0
 27 62  1  0
 31 63  1  0
 33 64  1  0
 34 65  1  0
 35 66  1  0
 36 67  1  0
M  END
$$$$
