
     RDKit          3D

 61 63  0  0  0  0  0  0  0  0999 V2000
    4.9137    4.2093    0.9291 C   0  0  0  0  0  0  0  0  0  0  0  0
    5.3437    2.8087    1.3416 C   0  0  0  0  0  0  0  0  0  0  0  0
    5.9977    2.0069    0.2130 C   0  0  0  0  0  0  0  0  0  0  0  0
    5.1435    1.8104   -1.0372 C   0  0  0  0  0  0  0  0  0  0  0  0
    3.9073    1.1099   -0.7581 N   0  0  0  0  0  0  0  0  0  0  0  0
    3.3054    0.3068   -1.7065 C   0  0  0  0  0  0  0  0  0  0  0  0
    3.8398    0.0104   -2.7718 O   0  0  0  0  0  0  0  0  0  0  0  0
    1.8896   -0.1613   -1.3269 C   0  0  0  0  0  0  0  0  0  0  0  0
    1.4723   -1.3536   -2.2017 C   0  0  0  0  0  0  0  0  0  0  0  0
    0.1763   -1.9975   -1.7604 C   0  0  0  0  0  0  0  0  0  0  0  0
   -1.0009   -1.7988   -2.4950 C   0  0  0  0  0  0  0  0  0  0  0  0
   -2.1951   -2.4029   -2.0976 C   0  0  0  0  0  0  0  0  0  0  0  0
   -2.2266   -3.2066   -0.9604 C   0  0  0  0  0  0  0  0  0  0  0  0
   -1.0635   -3.4070   -0.2192 C   0  0  0  0  0  0  0  0  0  0  0  0
    0.1335   -2.8075   -0.6168 C   0  0  0  0  0  0  0  0  0  0  0  0
    0.9725    0.9778   -1.5530 N   0  0  0  0  0  0  0  0  0  0  0  0
    0.5392    1.9632   -0.2847 S   0  0  0  0  0  6  0  0  0  0  0  0
    1.6706    2.0342    0.6148 O   0  0  0  0  0  0  0  0  0  0  0  0
   -0.0535    3.1505   -0.8546 O   0  0  0  0  0  0  0  0  0  0  0  0
   -0.7516    1.0320    0.4890 C   0  0  0  0  0  0  0  0  0  0  0  0
   -0.5499    0.4497    1.7383 C   0  0  0  0  0  0  0  0  0  0  0  0
   -1.5745   -0.3037    2.3217 C   0  0  0  0  0  0  0  0  0  0  0  0
   -2.8065   -0.4811    1.6673 C   0  0  0  0  0  0  0  0  0  0  0  0
   -2.9888    0.1278    0.4255 C   0  0  0  0  0  0  0  0  0  0  0  0
   -1.9730    0.8915   -0.1666 C   0  0  0  0  0  0  0  0  0  0  0  0
   -4.2606   -0.0553   -0.2889 C   0  0  0  0  0  0  0  0  0  0  0  0
   -4.4064    0.4681   -1.3917 O   0  0  0  0  0  0  0  0  0  0  0  0
   -5.2223   -0.8292    0.3400 N   0  0  0  0  0  0  0  0  0  0  0  0
   -6.4919   -1.0308   -0.3345 C   0  0  0  0  0  0  0  0  0  0  0  0
   -5.0667   -1.4538    1.5711 C   0  0  0  0  0  0  0  0  0  0  0  0
   -5.9655   -2.1487    2.0518 O   0  0  0  0  0  0  0  0  0  0  0  0
   -3.8537   -1.2615    2.2252 N   0  0  0  0  0  0  0  0  0  0  0  0
   -3.6615   -1.9076    3.5176 C   0  0  0  0  0  0  0  0  0  0  0  0
    4.0820    4.1812    0.2168 H   0  0  0  0  0  0  0  0  0  0  0  0
    5.7436    4.7577    0.4724 H   0  0  0  0  0  0  0  0  0  0  0  0
    4.5775    4.7717    1.8083 H   0  0  0  0  0  0  0  0  0  0  0  0
    6.0654    2.8937    2.1639 H   0  0  0  0  0  0  0  0  0  0  0  0
    4.4814    2.2651    1.7445 H   0  0  0  0  0  0  0  0  0  0  0  0
    6.2785    1.0238    0.6103 H   0  0  0  0  0  0  0  0  0  0  0  0
    6.9307    2.5046   -0.0797 H   0  0  0  0  0  0  0  0  0  0  0  0
    4.8809    2.7701   -1.4963 H   0  0  0  0  0  0  0  0  0  0  0  0
    5.7210    1.2469   -1.7806 H   0  0  0  0  0  0  0  0  0  0  0  0
    3.2894    1.5249   -0.0585 H   0  0  0  0  0  0  0  0  0  0  0  0
    1.8919   -0.4651   -0.2736 H   0  0  0  0  0  0  0  0  0  0  0  0
    1.3909   -1.0487   -3.2541 H   0  0  0  0  0  0  0  0  0  0  0  0
    2.2559   -2.1238   -2.1812 H   0  0  0  0  0  0  0  0  0  0  0  0
   -0.9988   -1.1742   -3.3859 H   0  0  0  0  0  0  0  0  0  0  0  0
   -3.1017   -2.2397   -2.6767 H   0  0  0  0  0  0  0  0  0  0  0  0
   -3.1571   -3.6780   -0.6535 H   0  0  0  0  0  0  0  0  0  0  0  0
   -1.0884   -4.0384    0.6654 H   0  0  0  0  0  0  0  0  0  0  0  0
    1.0340   -2.9882   -0.0338 H   0  0  0  0  0  0  0  0  0  0  0  0
    0.9490    1.4092   -2.4775 H   0  0  0  0  0  0  0  0  0  0  0  0
    0.3959    0.5657    2.2640 H   0  0  0  0  0  0  0  0  0  0  0  0
   -1.3736   -0.7516    3.2925 H   0  0  0  0  0  0  0  0  0  0  0  0
   -2.1293    1.3517   -1.1405 H   0  0  0  0  0  0  0  0  0  0  0  0
   -6.6428   -2.1030   -0.4975 H   0  0  0  0  0  0  0  0  0  0  0  0
   -6.5434   -0.5163   -1.2973 H   0  0  0  0  0  0  0  0  0  0  0  0
   -7.2975   -0.6613    0.3086 H   0  0  0  0  0  0  0  0  0  0  0  0
   -3.4533   -1.1479    4.2786 H   0  0  0  0  0  0  0  0  0  0  0  0
   -4.5459   -2.4644    3.8393 H   0  0  0  0  0  0  0  0  0  0  0  0
   -2.8292   -2.6160    3.4462 H   0  0  0  0  0  0  0  0  0  0  0  0
  1  2  1  0
  2  3  1  0
  3  4  1  0
  4  5  1  0
  5  6  1  0
  6  7  2  0
  6  8  1  0
  8  9  1  0
  9 10  1  0
 10 11  2  0
 11 12  1  0
 12 13  2  0
 13 14  1  0
 14 15  2  0
  8 16  1  0
 16 17  1  0
 17 18  2  0
 17 19  2  0
 17 20  1  0
 20 21  2  0
 21 22  1  0
 22 23  2  0
 23 24  1  0
 24 25  2  0
 24 26  1  0
 26 27  2  0
 26 28  1  0
 28 29  1  0
 28 30  1  0
 30 31  2  0
 30 32  1  0
 32 33  1  0
 15 10  1  0
 25 20  1  0
 32 23  1  0
  1 34  1  0
  1 35  1  0
  1 36  1  0
  2 37  1  0
  2 38  1  0
  3 39  1  0
  3 40  1  0
  4 41  1  0
  4 42  1  0
  5 43  1  0
  8 44  1  0
  9 45  1  0
  9 46  1  0
 11 47  1  0
 12 48  1  0
 13 49  1  0
 14 50  1  0
 15 51  1  0
 16 52  1  0
 21 53  1  0
 22 54  1  0
 25 55  1  0
 29 56  1  0
 29 57  1  0
 29 58  1  0
 33 59  1  0
 33 60  1  0
 33 61  1  0
M  END
$$$$
