
     RDKit          3D

 34 34  0  0  0  0  0  0  0  0999 V2000
    5.1086    0.0192   -1.5672 C   0  0  0  0  0  0  0  0  0  0  0  0
    4.2085    0.4467   -0.5558 O   0  0  0  0  0  0  0  0  0  0  0  0
    3.0205   -0.2305   -0.4309 C   0  0  0  0  0  0  0  0  0  0  0  0
    2.6166   -1.2782   -1.2655 C   0  0  0  0  0  0  0  0  0  0  0  0
    1.3855   -1.9095   -1.0667 C   0  0  0  0  0  0  0  0  0  0  0  0
    0.5427   -1.5078   -0.0260 C   0  0  0  0  0  0  0  0  0  0  0  0
   -0.7971   -2.1652    0.1835 C   0  0  0  0  0  0  0  0  0  0  0  0
   -1.8557   -1.3558   -0.3770 N   0  0  0  0  0  0  0  0  0  0  0  0
   -2.6199   -0.5300    0.4061 C   0  0  0  0  0  0  0  0  0  0  0  0
   -2.5483   -0.4669    1.6260 O   0  0  0  0  0  0  0  0  0  0  0  0
   -3.5537    0.3077   -0.3794 C   0  0  0  0  0  0  0  0  0  0  0  0
   -4.3459    1.1782    0.2617 C   0  0  0  0  0  0  0  0  0  0  0  0
   -5.3009    2.0486   -0.4284 C   0  0  0  0  0  0  0  0  0  0  0  0
   -6.0322    2.8490    0.1248 O   0  0  0  0  0  0  0  0  0  0  0  0
   -5.3108    1.8930   -1.7615 O   0  0  0  0  0  0  0  0  0  0  0  0
    0.9457   -0.4523    0.8080 C   0  0  0  0  0  0  0  0  0  0  0  0
    2.1748    0.1894    0.6148 C   0  0  0  0  0  0  0  0  0  0  0  0
    2.6364    1.2277    1.3863 O   0  0  0  0  0  0  0  0  0  0  0  0
    1.7985    1.6884    2.4372 C   0  0  0  0  0  0  0  0  0  0  0  0
    5.4195   -1.0186   -1.4082 H   0  0  0  0  0  0  0  0  0  0  0  0
    6.0032    0.6465   -1.5059 H   0  0  0  0  0  0  0  0  0  0  0  0
    4.6758    0.1554   -2.5636 H   0  0  0  0  0  0  0  0  0  0  0  0
    3.2375   -1.6263   -2.0840 H   0  0  0  0  0  0  0  0  0  0  0  0
    1.0939   -2.7193   -1.7319 H   0  0  0  0  0  0  0  0  0  0  0  0
   -0.9666   -2.3476    1.2507 H   0  0  0  0  0  0  0  0  0  0  0  0
   -0.8310   -3.1372   -0.3209 H   0  0  0  0  0  0  0  0  0  0  0  0
   -1.8871   -1.2694   -1.3826 H   0  0  0  0  0  0  0  0  0  0  0  0
   -3.5740    0.1945   -1.4553 H   0  0  0  0  0  0  0  0  0  0  0  0
   -4.3238    1.2887    1.3412 H   0  0  0  0  0  0  0  0  0  0  0  0
   -5.9875    2.5365   -2.0605 H   0  0  0  0  0  0  0  0  0  0  0  0
    0.2713   -0.1483    1.6044 H   0  0  0  0  0  0  0  0  0  0  0  0
    1.6318    0.9037    3.1824 H   0  0  0  0  0  0  0  0  0  0  0  0
    2.3131    2.5152    2.9363 H   0  0  0  0  0  0  0  0  0  0  0  0
    0.8509    2.0747    2.0475 H   0  0  0  0  0  0  0  0  0  0  0  0
  1  2  1  0
  2  3  1  0
  3  4  2  0
  4  5  1  0
  5  6  2  0
  6  7  1  0
  7  8  1  0
  8  9  1  0
  9 10  2  0
  9 11  1  0
 11 12  2  3
 12 13  1  0
 13 14  2  0
 13 15  1  0
  6 16  1  0
 16 17  2  0
 17 18  1  0
 18 19  1  0
 17  3  1  0
  1 20  1  0
  1 21  1  0
  1 22  1  0
  4 23  1  0
  5 24  1  0
  7 25  1  0
  7 26  1  0
  8 27  1  0
 11 28  1  0
 12 29  1  0
 15 30  1  0
 16 31  1  0
 19 32  1  0
 19 33  1  0
 19 34  1  0
M  END
$$$$
