
     RDKit          3D

 59 62  0  0  0  0  0  0  0  0999 V2000
    2.3262    0.9331   -1.7534 O   0  0  0  0  0  0  0  0  0  0  0  0
    1.2319    0.5373   -1.3594 C   0  0  0  0  0  0  0  0  0  0  0  0
    0.2067    0.4695   -2.2530 N   0  0  0  0  0  0  0  0  0  0  0  0
   -1.0828    0.1064   -2.0126 C   0  0  0  0  0  0  0  0  0  0  0  0
   -1.9266    0.1904   -2.9043 O   0  0  0  0  0  0  0  0  0  0  0  0
   -1.4209   -0.2680   -0.5847 C   0  0  0  0  0  0  0  0  0  0  0  0
   -2.0458    1.0353    0.0106 C   0  0  0  0  0  0  0  0  0  0  0  0
   -2.5211    0.9483    1.4687 C   0  0  0  0  0  0  0  0  0  0  0  0
   -2.9466    2.3016    1.9826 C   0  0  0  0  0  0  0  0  0  0  0  0
   -4.2209    2.8035    1.7061 C   0  0  0  0  0  0  0  0  0  0  0  0
   -4.5582    4.0604    2.1846 C   0  0  0  0  0  0  0  0  0  0  0  0
   -3.7239    4.8392    2.9051 N   0  0  0  0  0  0  0  0  0  0  0  0
   -2.4971    4.3374    3.1592 C   0  0  0  0  0  0  0  0  0  0  0  0
   -2.0661    3.0933    2.7243 C   0  0  0  0  0  0  0  0  0  0  0  0
   -2.4467   -1.4393   -0.5858 C   0  0  0  0  0  0  0  0  0  0  0  0
   -1.9088   -2.8581   -0.8761 C   0  0  0  0  0  0  0  0  0  0  0  0
   -1.0198   -3.0008   -2.0808 C   0  0  0  0  0  0  0  0  0  0  0  0
    0.3457   -3.2618   -1.9312 C   0  0  0  0  0  0  0  0  0  0  0  0
    1.1359   -3.3488   -3.0666 C   0  0  0  0  0  0  0  0  0  0  0  0
    0.6638   -3.1949   -4.3208 N   0  0  0  0  0  0  0  0  0  0  0  0
   -0.6614   -2.9686   -4.4468 C   0  0  0  0  0  0  0  0  0  0  0  0
   -1.5325   -2.8713   -3.3731 C   0  0  0  0  0  0  0  0  0  0  0  0
   -0.1820   -0.5941    0.2366 C   0  0  0  0  0  0  0  0  0  0  0  0
   -0.2380   -1.3905    1.1765 O   0  0  0  0  0  0  0  0  0  0  0  0
    0.9704    0.1189   -0.0684 N   0  0  0  0  0  0  0  0  0  0  0  0
    2.0866    0.0431    0.8975 C   0  0  0  0  0  0  0  0  0  0  0  0
    2.8095    1.3911    1.1194 C   0  0  0  0  0  0  0  0  0  0  0  0
    4.2959    1.3461    0.7768 C   0  0  0  0  0  0  0  0  0  0  0  0
    5.0218    0.2102    1.4932 C   0  0  0  0  0  0  0  0  0  0  0  0
    4.2443   -1.1062    1.5211 C   0  0  0  0  0  0  0  0  0  0  0  0
    3.0488   -1.1148    0.5754 C   0  0  0  0  0  0  0  0  0  0  0  0
    0.4280    0.7443   -3.2005 H   0  0  0  0  0  0  0  0  0  0  0  0
   -1.3153    1.8541   -0.0701 H   0  0  0  0  0  0  0  0  0  0  0  0
   -2.8952    1.3454   -0.6152 H   0  0  0  0  0  0  0  0  0  0  0  0
   -3.3678    0.2601    1.5649 H   0  0  0  0  0  0  0  0  0  0  0  0
   -1.7309    0.5573    2.1185 H   0  0  0  0  0  0  0  0  0  0  0  0
   -4.9418    2.2329    1.1302 H   0  0  0  0  0  0  0  0  0  0  0  0
   -5.5389    4.4866    1.9935 H   0  0  0  0  0  0  0  0  0  0  0  0
   -1.8456    4.9830    3.7410 H   0  0  0  0  0  0  0  0  0  0  0  0
   -1.0641    2.7548    2.9653 H   0  0  0  0  0  0  0  0  0  0  0  0
   -3.2486   -1.2216   -1.3040 H   0  0  0  0  0  0  0  0  0  0  0  0
   -2.9409   -1.5043    0.3902 H   0  0  0  0  0  0  0  0  0  0  0  0
   -1.3892   -3.2435    0.0095 H   0  0  0  0  0  0  0  0  0  0  0  0
   -2.7663   -3.5330   -1.0036 H   0  0  0  0  0  0  0  0  0  0  0  0
    0.7930   -3.3978   -0.9513 H   0  0  0  0  0  0  0  0  0  0  0  0
    2.2013   -3.5485   -2.9941 H   0  0  0  0  0  0  0  0  0  0  0  0
   -1.0185   -2.8568   -5.4667 H   0  0  0  0  0  0  0  0  0  0  0  0
   -2.5851   -2.6709   -3.5481 H   0  0  0  0  0  0  0  0  0  0  0  0
    1.6371   -0.1925    1.8726 H   0  0  0  0  0  0  0  0  0  0  0  0
    2.7171    1.6582    2.1809 H   0  0  0  0  0  0  0  0  0  0  0  0
    2.3240    2.2078    0.5730 H   0  0  0  0  0  0  0  0  0  0  0  0
    4.7657    2.3016    1.0374 H   0  0  0  0  0  0  0  0  0  0  0  0
    4.4238    1.2279   -0.3051 H   0  0  0  0  0  0  0  0  0  0  0  0
    5.2431    0.5100    2.5250 H   0  0  0  0  0  0  0  0  0  0  0  0
    5.9941    0.0530    1.0109 H   0  0  0  0  0  0  0  0  0  0  0  0
    4.9172   -1.9368    1.2792 H   0  0  0  0  0  0  0  0  0  0  0  0
    3.8906   -1.2890    2.5437 H   0  0  0  0  0  0  0  0  0  0  0  0
    3.4045   -1.0584   -0.4601 H   0  0  0  0  0  0  0  0  0  0  0  0
    2.5203   -2.0717    0.6624 H   0  0  0  0  0  0  0  0  0  0  0  0
  1  2  2  0
  2  3  1  0
  3  4  1  0
  4  5  2  0
  4  6  1  0
  6  7  1  0
  7  8  1  0
  8  9  1  0
  9 10  2  0
 10 11  1  0
 11 12  2  0
 12 13  1  0
 13 14  2  0
  6 15  1  0
 15 16  1  0
 16 17  1  0
 17 18  2  0
 18 19  1  0
 19 20  2  0
 20 21  1  0
 21 22  2  0
  6 23  1  0
 23 24  2  0
 23 25  1  0
 25 26  1  0
 26 27  1  0
 27 28  1  0
 28 29  1  0
 29 30  1  0
 30 31  1  0
 25  2  1  0
 31 26  1  0
 14  9  1  0
 22 17  1  0
  3 32  1  0
  7 33  1  0
  7 34  1  0
  8 35  1  0
  8 36  1  0
 10 37  1  0
 11 38  1  0
 13 39  1  0
 14 40  1  0
 15 41  1  0
 15 42  1  0
 16 43  1  0
 16 44  1  0
 18 45  1  0
 19 46  1  0
 21 47  1  0
 22 48  1  0
 26 49  1  0
 27 50  1  0
 27 51  1  0
 28 52  1  0
 28 53  1  0
 29 54  1  0
 29 55  1  0
 30 56  1  0
 30 57  1  0
 31 58  1  0
 31 59  1  0
M  END
$$$$
