
     RDKit          3D

 30 31  0  0  0  0  0  0  0  0999 V2000
    0.2012    1.0074   -2.7738 C   0  0  0  0  0  0  0  0  0  0  0  0
    0.4751    0.4939   -1.4732 O   0  0  0  0  0  0  0  0  0  0  0  0
   -0.5761    0.0232   -0.7258 C   0  0  0  0  0  0  0  0  0  0  0  0
   -1.9068    0.0422   -1.1776 C   0  0  0  0  0  0  0  0  0  0  0  0
   -2.9541   -0.4391   -0.3812 C   0  0  0  0  0  0  0  0  0  0  0  0
   -4.6158   -0.3961   -1.0314 S   0  0  0  0  0  0  0  0  0  0  0  0
   -5.4864    0.4087    0.3413 C   0  0  0  0  0  0  0  0  0  0  0  0
   -2.6669   -0.9704    0.8730 C   0  0  0  0  0  0  0  0  0  0  0  0
   -1.3501   -0.9947    1.3365 C   0  0  0  0  0  0  0  0  0  0  0  0
   -0.2895   -0.4993    0.5538 C   0  0  0  0  0  0  0  0  0  0  0  0
    1.0861   -0.5803    1.1715 C   0  0  0  0  0  0  0  0  0  0  0  0
    1.1775   -1.0213    2.3135 O   0  0  0  0  0  0  0  0  0  0  0  0
    2.1295   -0.1484    0.3915 N   0  0  0  0  0  0  0  0  0  0  0  0
    3.4623   -0.1166    0.7047 C   0  0  0  0  0  0  0  0  0  0  0  0
    4.3473    0.3348   -0.1561 N   0  0  0  0  0  0  0  0  0  0  0  0
    5.6104    0.2600    0.3982 C   0  0  0  0  0  0  0  0  0  0  0  0
    5.6669   -0.2491    1.6767 C   0  0  0  0  0  0  0  0  0  0  0  0
    4.0852   -0.6466    2.2000 S   0  0  0  0  0  0  0  0  0  0  0  0
    1.1526    1.3226   -3.2128 H   0  0  0  0  0  0  0  0  0  0  0  0
   -0.4482    1.8872   -2.7209 H   0  0  0  0  0  0  0  0  0  0  0  0
   -0.2238    0.2338   -3.4215 H   0  0  0  0  0  0  0  0  0  0  0  0
   -2.1602    0.4348   -2.1581 H   0  0  0  0  0  0  0  0  0  0  0  0
   -4.9940    1.3468    0.6119 H   0  0  0  0  0  0  0  0  0  0  0  0
   -6.5103    0.6323    0.0297 H   0  0  0  0  0  0  0  0  0  0  0  0
   -5.5305   -0.2471    1.2144 H   0  0  0  0  0  0  0  0  0  0  0  0
   -3.4512   -1.3844    1.5013 H   0  0  0  0  0  0  0  0  0  0  0  0
   -1.1541   -1.4147    2.3229 H   0  0  0  0  0  0  0  0  0  0  0  0
    1.9299    0.2030   -0.5370 H   0  0  0  0  0  0  0  0  0  0  0  0
    6.4639    0.5933   -0.1793 H   0  0  0  0  0  0  0  0  0  0  0  0
    6.5300   -0.4020    2.3077 H   0  0  0  0  0  0  0  0  0  0  0  0
  1  2  1  0
  2  3  1  0
  3  4  2  0
  4  5  1  0
  5  6  1  0
  6  7  1  0
  5  8  2  0
  8  9  1  0
  9 10  2  0
 10 11  1  0
 11 12  2  0
 11 13  1  0
 13 14  1  0
 14 15  2  0
 15 16  1  0
 16 17  2  0
 17 18  1  0
 10  3  1  0
 18 14  1  0
  1 19  1  0
  1 20  1  0
  1 21  1  0
  4 22  1  0
  7 23  1  0
  7 24  1  0
  7 25  1  0
  8 26  1  0
  9 27  1  0
 13 28  1  0
 16 29  1  0
 17 30  1  0
M  END
$$$$
