
     RDKit          3D

 67 72  0  0  0  0  0  0  0  0999 V2000
   -3.6369   -0.8546    1.6182 O   0  0  0  0  0  0  0  0  0  0  0  0
   -2.9743   -0.7687    0.5803 C   0  0  0  0  0  0  0  0  0  0  0  0
   -3.4141   -1.4862   -0.7112 C   0  0  0  0  0  0  0  0  0  0  0  0
   -4.9351   -1.7464   -0.7485 C   0  0  0  0  0  0  0  0  0  0  0  0
   -5.8156   -0.5179   -0.8634 C   0  0  0  0  0  0  0  0  0  0  0  0
   -6.0811    0.0599   -2.1132 C   0  0  0  0  0  0  0  0  0  0  0  0
   -6.8817    1.1992   -2.2148 C   0  0  0  0  0  0  0  0  0  0  0  0
   -7.4298    1.7720   -1.0692 C   0  0  0  0  0  0  0  0  0  0  0  0
   -7.1781    1.2049    0.1781 C   0  0  0  0  0  0  0  0  0  0  0  0
   -6.3769    0.0661    0.2811 C   0  0  0  0  0  0  0  0  0  0  0  0
   -2.9785   -0.7772   -1.9087 N   0  0  0  0  0  0  0  0  0  0  0  0
   -1.6476   -0.3796   -1.8979 C   0  0  0  0  0  0  0  0  0  0  0  0
   -1.0967   -0.2929   -3.1182 N   0  0  0  0  0  0  0  0  0  0  0  0
    0.1442    0.1863   -3.1601 C   0  0  0  0  0  0  0  0  0  0  0  0
    0.8824    0.5395   -2.1052 N   0  0  0  0  0  0  0  0  0  0  0  0
    0.3312    0.4076   -0.8791 C   0  0  0  0  0  0  0  0  0  0  0  0
    1.1746    0.6555    0.2162 N   0  0  0  0  0  0  0  0  0  0  0  0
    1.9760   -0.5448    0.5769 C   0  0  0  0  0  0  0  0  0  0  0  0
    3.2415   -0.7314   -0.2921 C   0  0  0  0  0  0  0  0  0  0  0  0
    4.0800    0.4893   -0.2653 N   0  0  0  0  0  0  0  0  0  0  0  0
    5.3751    0.4137   -0.8070 C   0  0  0  0  0  0  0  0  0  0  0  0
    5.8195   -0.6411   -1.6202 C   0  0  0  0  0  0  0  0  0  0  0  0
    7.1218   -0.6695   -2.1358 C   0  0  0  0  0  0  0  0  0  0  0  0
    8.0153    0.3549   -1.8388 C   0  0  0  0  0  0  0  0  0  0  0  0
    7.6089    1.4016   -1.0196 C   0  0  0  0  0  0  0  0  0  0  0  0
    6.3061    1.4255   -0.5098 C   0  0  0  0  0  0  0  0  0  0  0  0
    3.3234    1.6865   -0.7211 C   0  0  0  0  0  0  0  0  0  0  0  0
    2.0164    1.8704    0.0865 C   0  0  0  0  0  0  0  0  0  0  0  0
   -0.9935   -0.0336   -0.7081 C   0  0  0  0  0  0  0  0  0  0  0  0
   -1.7198   -0.1389    0.5381 N   0  0  0  0  0  0  0  0  0  0  0  0
   -1.3028    0.5912    1.7333 C   0  0  0  0  0  0  0  0  0  0  0  0
   -0.5210   -0.1964    2.7683 C   0  0  0  0  0  0  0  0  0  0  0  0
   -0.6636   -1.5798    2.9480 C   0  0  0  0  0  0  0  0  0  0  0  0
    0.0542   -2.2502    3.9421 C   0  0  0  0  0  0  0  0  0  0  0  0
    0.9150   -1.5458    4.7801 C   0  0  0  0  0  0  0  0  0  0  0  0
    1.0519   -0.1684    4.6324 C   0  0  0  0  0  0  0  0  0  0  0  0
    0.3345    0.5018    3.6395 C   0  0  0  0  0  0  0  0  0  0  0  0
   -2.9190   -2.4679   -0.6886 H   0  0  0  0  0  0  0  0  0  0  0  0
   -5.2367   -2.3165    0.1408 H   0  0  0  0  0  0  0  0  0  0  0  0
   -5.1624   -2.4023   -1.6001 H   0  0  0  0  0  0  0  0  0  0  0  0
   -5.6588   -0.3668   -3.0200 H   0  0  0  0  0  0  0  0  0  0  0  0
   -7.0707    1.6422   -3.1889 H   0  0  0  0  0  0  0  0  0  0  0  0
   -8.0477    2.6615   -1.1481 H   0  0  0  0  0  0  0  0  0  0  0  0
   -7.6011    1.6512    1.0743 H   0  0  0  0  0  0  0  0  0  0  0  0
   -6.1866   -0.3587    1.2655 H   0  0  0  0  0  0  0  0  0  0  0  0
   -3.2065   -1.1795   -2.8104 H   0  0  0  0  0  0  0  0  0  0  0  0
    0.6010    0.2934   -4.1381 H   0  0  0  0  0  0  0  0  0  0  0  0
    1.3647   -1.4554    0.5394 H   0  0  0  0  0  0  0  0  0  0  0  0
    2.2982   -0.4268    1.6177 H   0  0  0  0  0  0  0  0  0  0  0  0
    3.8023   -1.5808    0.1182 H   0  0  0  0  0  0  0  0  0  0  0  0
    2.9546   -0.9784   -1.3212 H   0  0  0  0  0  0  0  0  0  0  0  0
    5.1583   -1.4604   -1.8880 H   0  0  0  0  0  0  0  0  0  0  0  0
    7.4333   -1.4924   -2.7728 H   0  0  0  0  0  0  0  0  0  0  0  0
    9.0259    0.3325   -2.2381 H   0  0  0  0  0  0  0  0  0  0  0  0
    8.3031    2.1987   -0.7673 H   0  0  0  0  0  0  0  0  0  0  0  0
    6.0258    2.2400    0.1542 H   0  0  0  0  0  0  0  0  0  0  0  0
    3.9109    2.6041   -0.5913 H   0  0  0  0  0  0  0  0  0  0  0  0
    3.1117    1.5993   -1.7930 H   0  0  0  0  0  0  0  0  0  0  0  0
    1.4315    2.7022   -0.3263 H   0  0  0  0  0  0  0  0  0  0  0  0
    2.2907    2.1732    1.1056 H   0  0  0  0  0  0  0  0  0  0  0  0
   -0.7710    1.5028    1.4387 H   0  0  0  0  0  0  0  0  0  0  0  0
   -2.2038    0.9605    2.2433 H   0  0  0  0  0  0  0  0  0  0  0  0
   -1.3423   -2.1555    2.3258 H   0  0  0  0  0  0  0  0  0  0  0  0
   -0.0697   -3.3222    4.0685 H   0  0  0  0  0  0  0  0  0  0  0  0
    1.4707   -2.0673    5.5550 H   0  0  0  0  0  0  0  0  0  0  0  0
    1.7141    0.3874    5.2916 H   0  0  0  0  0  0  0  0  0  0  0  0
    0.4542    1.5791    3.5417 H   0  0  0  0  0  0  0  0  0  0  0  0
  1  2  2  0
  2  3  1  0
  3  4  1  0
  4  5  1  0
  5  6  2  0
  6  7  1  0
  7  8  2  0
  8  9  1  0
  9 10  2  0
  3 11  1  0
 11 12  1  0
 12 13  2  0
 13 14  1  0
 14 15  2  0
 15 16  1  0
 16 17  1  0
 17 18  1  0
 18 19  1  0
 19 20  1  0
 20 21  1  0
 21 22  2  0
 22 23  1  0
 23 24  2  0
 24 25  1  0
 25 26  2  0
 20 27  1  0
 27 28  1  0
 16 29  2  0
 29 30  1  0
 30 31  1  0
 31 32  1  0
 32 33  2  0
 33 34  1  0
 34 35  2  0
 35 36  1  0
 36 37  2  0
 30  2  1  0
 37 32  1  0
 10  5  1  0
 29 12  1  0
 28 17  1  0
 26 21  1  0
  3 38  1  0
  4 39  1  0
  4 40  1  0
  6 41  1  0
  7 42  1  0
  8 43  1  0
  9 44  1  0
 10 45  1  0
 11 46  1  0
 14 47  1  0
 18 48  1  0
 18 49  1  0
 19 50  1  0
 19 51  1  0
 22 52  1  0
 23 53  1  0
 24 54  1  0
 25 55  1  0
 26 56  1  0
 27 57  1  0
 27 58  1  0
 28 59  1  0
 28 60  1  0
 31 61  1  0
 31 62  1  0
 33 63  1  0
 34 64  1  0
 35 65  1  0
 36 66  1  0
 37 67  1  0
M  END
$$$$
