
     RDKit          3D

 62 65  0  0  0  0  0  0  0  0999 V2000
    9.5035   -2.9792   -2.1034 C   0  0  0  0  0  0  0  0  0  0  0  0
    8.6723   -3.5292   -0.9602 C   0  0  0  0  0  0  0  0  0  0  0  0
    7.5729   -2.6398   -0.7345 O   0  0  0  0  0  0  0  0  0  0  0  0
    6.7221   -3.0388    0.2492 C   0  0  0  0  0  0  0  0  0  0  0  0
    6.8579   -4.0726    0.8926 O   0  0  0  0  0  0  0  0  0  0  0  0
    5.6849   -2.1486    0.4368 N   0  0  0  0  0  0  0  0  0  0  0  0
    4.6477   -2.4426    1.4191 C   0  0  0  0  0  0  0  0  0  0  0  0
    3.2737   -1.9141    0.9864 C   0  0  0  0  0  0  0  0  0  0  0  0
    3.2909   -0.4891    0.6306 N   0  0  0  0  0  0  0  0  0  0  0  0
    2.1663    0.3313    0.6128 C   0  0  0  0  0  0  0  0  0  0  0  0
    2.2554    1.5391    0.3906 O   0  0  0  0  0  0  0  0  0  0  0  0
    0.8088   -0.3481    0.8671 C   0  0  0  0  0  0  0  0  0  0  0  0
   -0.3310    0.4893    0.7328 O   0  0  0  0  0  0  0  0  0  0  0  0
   -0.9133    0.5851   -0.5031 C   0  0  0  0  0  0  0  0  0  0  0  0
   -0.2507    0.3380   -1.7096 C   0  0  0  0  0  0  0  0  0  0  0  0
   -0.9261    0.4550   -2.9256 C   0  0  0  0  0  0  0  0  0  0  0  0
   -2.2695    0.8194   -2.9445 C   0  0  0  0  0  0  0  0  0  0  0  0
   -2.9384    1.0926   -1.7458 C   0  0  0  0  0  0  0  0  0  0  0  0
   -2.2574    0.9976   -0.5193 C   0  0  0  0  0  0  0  0  0  0  0  0
   -3.0059    1.2832    0.7553 C   0  0  0  0  0  0  0  0  0  0  0  0
   -4.1233    2.2873    0.5013 C   0  0  0  0  0  0  0  0  0  0  0  0
   -4.9831    1.8659   -0.5989 N   0  0  0  0  0  0  0  0  0  0  0  0
   -6.3411    2.3980   -0.6830 C   0  0  0  0  0  0  0  0  0  0  0  0
   -7.1686    2.1929    0.5576 C   0  0  0  0  0  0  0  0  0  0  0  0
   -7.5644    3.2831    1.3488 C   0  0  0  0  0  0  0  0  0  0  0  0
   -8.3335    3.0816    2.4980 C   0  0  0  0  0  0  0  0  0  0  0  0
   -8.7182    1.7926    2.8679 C   0  0  0  0  0  0  0  0  0  0  0  0
   -8.3354    0.7039    2.0861 C   0  0  0  0  0  0  0  0  0  0  0  0
   -7.5696    0.9098    0.9416 C   0  0  0  0  0  0  0  0  0  0  0  0
   -7.2160   -0.1549    0.2078 F   0  0  0  0  0  0  0  0  0  0  0  0
   -4.3815    1.4740   -1.7978 C   0  0  0  0  0  0  0  0  0  0  0  0
   -4.9765    1.4372   -2.8713 O   0  0  0  0  0  0  0  0  0  0  0  0
    4.6015    0.1017    0.3356 C   0  0  0  0  0  0  0  0  0  0  0  0
    5.5695   -0.8949   -0.3134 C   0  0  0  0  0  0  0  0  0  0  0  0
   10.3604   -3.6297   -2.3076 H   0  0  0  0  0  0  0  0  0  0  0  0
    9.8688   -1.9736   -1.8665 H   0  0  0  0  0  0  0  0  0  0  0  0
    8.8991   -2.8941   -3.0138 H   0  0  0  0  0  0  0  0  0  0  0  0
    8.2979   -4.5233   -1.2255 H   0  0  0  0  0  0  0  0  0  0  0  0
    9.2852   -3.5935   -0.0552 H   0  0  0  0  0  0  0  0  0  0  0  0
    4.9558   -1.9586    2.3539 H   0  0  0  0  0  0  0  0  0  0  0  0
    4.5904   -3.5197    1.6098 H   0  0  0  0  0  0  0  0  0  0  0  0
    2.5464   -2.0899    1.7839 H   0  0  0  0  0  0  0  0  0  0  0  0
    2.9315   -2.4516    0.0945 H   0  0  0  0  0  0  0  0  0  0  0  0
    0.8138   -0.6660    1.9154 H   0  0  0  0  0  0  0  0  0  0  0  0
    0.7086   -1.2529    0.2574 H   0  0  0  0  0  0  0  0  0  0  0  0
    0.8018    0.0746   -1.7408 H   0  0  0  0  0  0  0  0  0  0  0  0
   -0.4040    0.2664   -3.8605 H   0  0  0  0  0  0  0  0  0  0  0  0
   -2.7922    0.8988   -3.8960 H   0  0  0  0  0  0  0  0  0  0  0  0
   -3.4194    0.3403    1.1330 H   0  0  0  0  0  0  0  0  0  0  0  0
   -2.3416    1.6962    1.5233 H   0  0  0  0  0  0  0  0  0  0  0  0
   -4.7070    2.3974    1.4192 H   0  0  0  0  0  0  0  0  0  0  0  0
   -3.7111    3.2703    0.2400 H   0  0  0  0  0  0  0  0  0  0  0  0
   -6.8764    1.9473   -1.5284 H   0  0  0  0  0  0  0  0  0  0  0  0
   -6.2505    3.4673   -0.9149 H   0  0  0  0  0  0  0  0  0  0  0  0
   -7.2743    4.2959    1.0761 H   0  0  0  0  0  0  0  0  0  0  0  0
   -8.6350    3.9322    3.1046 H   0  0  0  0  0  0  0  0  0  0  0  0
   -9.3163    1.6378    3.7623 H   0  0  0  0  0  0  0  0  0  0  0  0
   -8.6278   -0.3044    2.3592 H   0  0  0  0  0  0  0  0  0  0  0  0
    5.0089    0.4451    1.2932 H   0  0  0  0  0  0  0  0  0  0  0  0
    4.4900    0.9805   -0.3066 H   0  0  0  0  0  0  0  0  0  0  0  0
    6.5595   -0.4355   -0.4214 H   0  0  0  0  0  0  0  0  0  0  0  0
    5.2143   -1.1636   -1.3160 H   0  0  0  0  0  0  0  0  0  0  0  0
  1  2  1  0
  2  3  1  0
  3  4  1  0
  4  5  2  0
  4  6  1  0
  6  7  1  0
  7  8  1  0
  8  9  1  0
  9 10  1  0
 10 11  2  0
 10 12  1  0
 12 13  1  0
 13 14  1  0
 14 15  2  0
 15 16  1  0
 16 17  2  0
 17 18  1  0
 18 19  2  0
 19 20  1  0
 20 21  1  0
 21 22  1  0
 22 23  1  0
 23 24  1  0
 24 25  2  0
 25 26  1  0
 26 27  2  0
 27 28  1  0
 28 29  2  0
 29 30  1  0
 22 31  1  0
 31 32  2  0
  9 33  1  0
 33 34  1  0
 34  6  1  0
 19 14  1  0
 29 24  1  0
 31 18  1  0
  1 35  1  0
  1 36  1  0
  1 37  1  0
  2 38  1  0
  2 39  1  0
  7 40  1  0
  7 41  1  0
  8 42  1  0
  8 43  1  0
 12 44  1  0
 12 45  1  0
 15 46  1  0
 16 47  1  0
 17 48  1  0
 20 49  1  0
 20 50  1  0
 21 51  1  0
 21 52  1  0
 23 53  1  0
 23 54  1  0
 25 55  1  0
 26 56  1  0
 27 57  1  0
 28 58  1  0
 33 59  1  0
 33 60  1  0
 34 61  1  0
 34 62  1  0
M  END
$$$$
