
     RDKit          3D

 40 41  0  0  0  0  0  0  0  0999 V2000
    1.7787   -3.1516    1.8921 C   0  0  0  0  0  0  0  0  0  0  0  0
    1.8122   -2.0653    0.9660 O   0  0  0  0  0  0  0  0  0  0  0  0
    1.4261   -0.8804    1.4979 C   0  0  0  0  0  0  0  0  0  0  0  0
    1.0702   -0.6806    2.6478 O   0  0  0  0  0  0  0  0  0  0  0  0
    1.4079    0.1640    0.4482 C   0  0  0  0  0  0  0  0  0  0  0  0
    2.4486    0.4005   -0.3709 C   0  0  0  0  0  0  0  0  0  0  0  0
    3.7789   -0.2925   -0.3467 C   0  0  0  0  0  0  0  0  0  0  0  0
    2.3647    1.3686   -1.4031 O   0  0  0  0  0  0  0  0  0  0  0  0
    1.3041    2.2008   -1.4846 C   0  0  0  0  0  0  0  0  0  0  0  0
    1.1469    2.8827   -2.5695 N   0  0  0  0  0  0  0  0  0  0  0  0
    0.3862    2.3429   -0.3091 C   0  0  0  0  0  0  0  0  0  0  0  0
    0.9720    3.3322    0.6095 C   0  0  0  0  0  0  0  0  0  0  0  0
    1.4295    4.0927    1.3577 N   0  0  0  0  0  0  0  0  0  0  0  0
    0.1608    1.0045    0.4063 C   0  0  0  0  0  0  0  0  0  0  0  0
   -1.0377    0.2546   -0.1425 C   0  0  0  0  0  0  0  0  0  0  0  0
   -1.1562   -0.5794   -1.2974 C   0  0  0  0  0  0  0  0  0  0  0  0
   -0.1381   -0.9639   -2.3089 C   0  0  0  0  0  0  0  0  0  0  0  0
   -2.3943   -1.0629   -1.4307 N   0  0  0  0  0  0  0  0  0  0  0  0
   -3.0694   -0.5707   -0.3852 N   0  0  0  0  0  0  0  0  0  0  0  0
   -4.4590   -0.9290   -0.2165 C   0  0  0  0  0  0  0  0  0  0  0  0
   -2.3146    0.2497    0.4103 C   0  0  0  0  0  0  0  0  0  0  0  0
   -2.8637    0.9262    1.6164 C   0  0  0  0  0  0  0  0  0  0  0  0
    2.4650   -2.9670    2.7244 H   0  0  0  0  0  0  0  0  0  0  0  0
    0.7595   -3.3125    2.2573 H   0  0  0  0  0  0  0  0  0  0  0  0
    2.1051   -4.0539    1.3677 H   0  0  0  0  0  0  0  0  0  0  0  0
    4.5818    0.4341   -0.5126 H   0  0  0  0  0  0  0  0  0  0  0  0
    3.9892   -0.7778    0.6103 H   0  0  0  0  0  0  0  0  0  0  0  0
    3.8276   -1.0423   -1.1422 H   0  0  0  0  0  0  0  0  0  0  0  0
    1.9101    2.6308   -3.2108 H   0  0  0  0  0  0  0  0  0  0  0  0
   -0.5706    2.7424   -0.6710 H   0  0  0  0  0  0  0  0  0  0  0  0
   -0.0866    1.2438    1.4518 H   0  0  0  0  0  0  0  0  0  0  0  0
    0.2877   -0.0790   -2.7876 H   0  0  0  0  0  0  0  0  0  0  0  0
    0.6658   -1.5449   -1.8486 H   0  0  0  0  0  0  0  0  0  0  0  0
   -0.5756   -1.5824   -3.1005 H   0  0  0  0  0  0  0  0  0  0  0  0
   -4.6933   -1.7879   -0.8511 H   0  0  0  0  0  0  0  0  0  0  0  0
   -5.0694   -0.0702   -0.5058 H   0  0  0  0  0  0  0  0  0  0  0  0
   -4.6307   -1.1924    0.8299 H   0  0  0  0  0  0  0  0  0  0  0  0
   -3.9010    1.2403    1.4629 H   0  0  0  0  0  0  0  0  0  0  0  0
   -2.2898    1.8248    1.8619 H   0  0  0  0  0  0  0  0  0  0  0  0
   -2.8285    0.2508    2.4769 H   0  0  0  0  0  0  0  0  0  0  0  0
  1  2  1  0
  2  3  1  0
  3  4  2  0
  3  5  1  0
  5  6  2  0
  6  7  1  0
  6  8  1  0
  8  9  1  0
  9 10  2  3
  9 11  1  0
 11 12  1  0
 12 13  3  0
 11 14  1  0
 14 15  1  0
 15 16  1  0
 16 17  1  0
 16 18  2  0
 18 19  1  0
 19 20  1  0
 19 21  1  0
 21 22  1  0
 14  5  1  0
 21 15  2  0
  1 23  1  0
  1 24  1  0
  1 25  1  0
  7 26  1  0
  7 27  1  0
  7 28  1  0
 10 29  1  0
 11 30  1  0
 14 31  1  0
 17 32  1  0
 17 33  1  0
 17 34  1  0
 20 35  1  0
 20 36  1  0
 20 37  1  0
 22 38  1  0
 22 39  1  0
 22 40  1  0
M  END
$$$$
