
     RDKit          3D

 57 58  0  0  0  0  0  0  0  0999 V2000
    8.2500   -1.8186    0.8076 C   0  0  0  0  0  0  0  0  0  0  0  0
    7.3995   -0.5680    0.6474 C   0  0  0  0  0  0  0  0  0  0  0  0
    6.4715   -0.3058    1.8383 C   0  0  0  0  0  0  0  0  0  0  0  0
    5.4081   -1.3845    2.0618 C   0  0  0  0  0  0  0  0  0  0  0  0
    4.6514   -1.6473    0.8812 O   0  0  0  0  0  0  0  0  0  0  0  0
    3.6093   -0.8230    0.5636 C   0  0  0  0  0  0  0  0  0  0  0  0
    3.1126    0.2231    1.3361 C   0  0  0  0  0  0  0  0  0  0  0  0
    2.0325    0.9866    0.8764 C   0  0  0  0  0  0  0  0  0  0  0  0
    1.4356    0.7291   -0.3684 C   0  0  0  0  0  0  0  0  0  0  0  0
    0.2520    1.5738   -0.8068 C   0  0  0  0  0  0  0  0  0  0  0  0
    0.2059    1.8633   -2.3081 C   0  0  0  0  0  0  0  0  0  0  0  0
   -0.9768    0.9202   -0.3900 N   0  0  0  0  0  0  0  0  0  0  0  0
   -1.7425    1.3877    0.6501 C   0  0  0  0  0  0  0  0  0  0  0  0
   -1.4707    2.3839    1.3113 O   0  0  0  0  0  0  0  0  0  0  0  0
   -2.9395    0.5131    0.9610 C   0  0  0  0  0  0  0  0  0  0  0  0
   -4.0988    1.3347    1.4990 C   0  0  0  0  0  0  0  0  0  0  0  0
   -4.9323    2.2861    0.2250 S   0  0  0  0  0  6  0  0  0  0  0  0
   -4.0724    2.4014   -0.9389 O   0  0  0  0  0  0  0  0  0  0  0  0
   -5.4511    3.4850    0.8616 O   0  0  0  0  0  0  0  0  0  0  0  0
   -6.3689    1.3135   -0.2298 C   0  0  0  0  0  0  0  0  0  0  0  0
   -5.9871   -0.0678   -0.6929 C   0  0  0  0  0  0  0  0  0  0  0  0
   -6.2353   -1.1842    0.1214 C   0  0  0  0  0  0  0  0  0  0  0  0
   -5.8782   -2.4666   -0.3011 C   0  0  0  0  0  0  0  0  0  0  0  0
   -5.2753   -2.6504   -1.5444 C   0  0  0  0  0  0  0  0  0  0  0  0
   -5.0381   -1.5512   -2.3657 C   0  0  0  0  0  0  0  0  0  0  0  0
   -4.2880   -1.7760   -3.8969 Cl  0  0  0  0  0  0  0  0  0  0  0  0
   -5.3959   -0.2680   -1.9508 C   0  0  0  0  0  0  0  0  0  0  0  0
    1.9300   -0.3382   -1.1290 C   0  0  0  0  0  0  0  0  0  0  0  0
    3.0072   -1.1005   -0.6655 C   0  0  0  0  0  0  0  0  0  0  0  0
    8.8347   -1.7793    1.7326 H   0  0  0  0  0  0  0  0  0  0  0  0
    8.9486   -1.9079   -0.0310 H   0  0  0  0  0  0  0  0  0  0  0  0
    7.6351   -2.7233    0.8239 H   0  0  0  0  0  0  0  0  0  0  0  0
    6.8180   -0.6384   -0.2791 H   0  0  0  0  0  0  0  0  0  0  0  0
    8.0671    0.2944    0.5321 H   0  0  0  0  0  0  0  0  0  0  0  0
    5.9795    0.6581    1.6645 H   0  0  0  0  0  0  0  0  0  0  0  0
    7.0664   -0.1951    2.7525 H   0  0  0  0  0  0  0  0  0  0  0  0
    5.9018   -2.3262    2.3286 H   0  0  0  0  0  0  0  0  0  0  0  0
    4.7655   -1.1506    2.9184 H   0  0  0  0  0  0  0  0  0  0  0  0
    3.5328    0.4777    2.3025 H   0  0  0  0  0  0  0  0  0  0  0  0
    1.6508    1.7914    1.5047 H   0  0  0  0  0  0  0  0  0  0  0  0
    0.3272    2.5487   -0.3084 H   0  0  0  0  0  0  0  0  0  0  0  0
    0.0226    0.9591   -2.8988 H   0  0  0  0  0  0  0  0  0  0  0  0
    1.1427    2.3137   -2.6531 H   0  0  0  0  0  0  0  0  0  0  0  0
   -0.6094    2.5598   -2.5348 H   0  0  0  0  0  0  0  0  0  0  0  0
   -1.1966    0.0305   -0.8146 H   0  0  0  0  0  0  0  0  0  0  0  0
   -3.2287   -0.0599    0.0766 H   0  0  0  0  0  0  0  0  0  0  0  0
   -2.6147   -0.2018    1.7259 H   0  0  0  0  0  0  0  0  0  0  0  0
   -4.8493    0.6986    1.9767 H   0  0  0  0  0  0  0  0  0  0  0  0
   -3.7652    2.0531    2.2557 H   0  0  0  0  0  0  0  0  0  0  0  0
   -6.8944    1.8535   -1.0246 H   0  0  0  0  0  0  0  0  0  0  0  0
   -7.0285    1.2771    0.6437 H   0  0  0  0  0  0  0  0  0  0  0  0
   -6.7155   -1.0695    1.0922 H   0  0  0  0  0  0  0  0  0  0  0  0
   -6.0754   -3.3253    0.3375 H   0  0  0  0  0  0  0  0  0  0  0  0
   -4.9999   -3.6505   -1.8693 H   0  0  0  0  0  0  0  0  0  0  0  0
   -5.2015    0.5794   -2.6077 H   0  0  0  0  0  0  0  0  0  0  0  0
    1.4889   -0.5972   -2.0876 H   0  0  0  0  0  0  0  0  0  0  0  0
    3.3826   -1.9217   -1.2716 H   0  0  0  0  0  0  0  0  0  0  0  0
  1  2  1  0
  2  3  1  0
  3  4  1  0
  4  5  1  0
  5  6  1  0
  6  7  2  0
  7  8  1  0
  8  9  2  0
  9 10  1  0
 10 11  1  0
 10 12  1  0
 12 13  1  0
 13 14  2  0
 13 15  1  0
 15 16  1  0
 16 17  1  0
 17 18  2  0
 17 19  2  0
 17 20  1  0
 20 21  1  0
 21 22  2  0
 22 23  1  0
 23 24  2  0
 24 25  1  0
 25 26  1  0
 25 27  2  0
  9 28  1  0
 28 29  2  0
 29  6  1  0
 27 21  1  0
  1 30  1  0
  1 31  1  0
  1 32  1  0
  2 33  1  0
  2 34  1  0
  3 35  1  0
  3 36  1  0
  4 37  1  0
  4 38  1  0
  7 39  1  0
  8 40  1  0
 10 41  1  0
 11 42  1  0
 11 43  1  0
 11 44  1  0
 12 45  1  0
 15 46  1  0
 15 47  1  0
 16 48  1  0
 16 49  1  0
 20 50  1  0
 20 51  1  0
 22 52  1  0
 23 53  1  0
 24 54  1  0
 27 55  1  0
 28 56  1  0
 29 57  1  0
M  END
$$$$
