
     RDKit          3D

 52 55  0  0  0  0  0  0  0  0999 V2000
    4.6401    2.6715   -0.9715 C   0  0  0  0  0  0  0  0  0  0  0  0
    4.1113    1.5186   -0.3313 O   0  0  0  0  0  0  0  0  0  0  0  0
    4.9468    0.4417   -0.1596 C   0  0  0  0  0  0  0  0  0  0  0  0
    6.3096    0.4548   -0.4895 C   0  0  0  0  0  0  0  0  0  0  0  0
    7.1048   -0.6759   -0.2862 C   0  0  0  0  0  0  0  0  0  0  0  0
    6.5493   -1.8314    0.2499 C   0  0  0  0  0  0  0  0  0  0  0  0
    5.1965   -1.8559    0.5841 C   0  0  0  0  0  0  0  0  0  0  0  0
    4.3747   -0.7320    0.3899 C   0  0  0  0  0  0  0  0  0  0  0  0
    3.0188   -0.8825    0.7675 N   0  0  0  0  0  0  0  0  0  0  0  0
    2.0938   -0.8059   -0.3800 C   0  0  0  0  0  0  0  0  0  0  0  0
    0.6403   -1.0683    0.0931 C   0  0  0  0  0  0  0  0  0  0  0  0
    0.1596   -0.2350    1.2353 N   0  0  0  0  0  0  0  0  0  0  0  0
   -0.0443    1.1800    0.8201 C   0  0  0  0  0  0  0  0  0  0  0  0
   -1.3465    1.3429    0.0177 C   0  0  0  0  0  0  0  0  0  0  0  0
   -1.4839    2.2597   -0.7861 O   0  0  0  0  0  0  0  0  0  0  0  0
   -2.2935    0.3952    0.3640 N   0  0  0  0  0  0  0  0  0  0  0  0
   -3.6017    0.2458   -0.1204 C   0  0  0  0  0  0  0  0  0  0  0  0
   -4.3387   -0.8460    0.3532 C   0  0  0  0  0  0  0  0  0  0  0  0
   -5.6526   -1.0703   -0.0769 C   0  0  0  0  0  0  0  0  0  0  0  0
   -6.2455   -0.1936   -0.9930 C   0  0  0  0  0  0  0  0  0  0  0  0
   -7.5714   -0.3948   -1.4456 N   0  0  0  0  0  0  0  0  0  0  0  0
   -8.4649   -1.3845   -1.1202 C   0  0  0  0  0  0  0  0  0  0  0  0
   -9.5882   -1.1912   -1.7724 N   0  0  0  0  0  0  0  0  0  0  0  0
   -9.3927   -0.0600   -2.5188 N   0  0  0  0  0  0  0  0  0  0  0  0
   -8.1763    0.4317   -2.3300 N   0  0  0  0  0  0  0  0  0  0  0  0
   -5.5110    0.9014   -1.4677 C   0  0  0  0  0  0  0  0  0  0  0  0
   -4.1977    1.1169   -1.0313 C   0  0  0  0  0  0  0  0  0  0  0  0
    1.1793   -0.3130    2.3164 C   0  0  0  0  0  0  0  0  0  0  0  0
    2.6336   -0.0007    1.8857 C   0  0  0  0  0  0  0  0  0  0  0  0
    5.4288    3.1307   -0.3667 H   0  0  0  0  0  0  0  0  0  0  0  0
    3.8296    3.4005   -1.0670 H   0  0  0  0  0  0  0  0  0  0  0  0
    4.9963    2.4377   -1.9801 H   0  0  0  0  0  0  0  0  0  0  0  0
    6.7886    1.3341   -0.9067 H   0  0  0  0  0  0  0  0  0  0  0  0
    8.1598   -0.6515   -0.5470 H   0  0  0  0  0  0  0  0  0  0  0  0
    7.1640   -2.7129    0.4096 H   0  0  0  0  0  0  0  0  0  0  0  0
    4.7658   -2.7621    1.0038 H   0  0  0  0  0  0  0  0  0  0  0  0
    2.1399    0.1656   -0.8826 H   0  0  0  0  0  0  0  0  0  0  0  0
    2.3584   -1.5719   -1.1197 H   0  0  0  0  0  0  0  0  0  0  0  0
    0.5666   -2.1179    0.4082 H   0  0  0  0  0  0  0  0  0  0  0  0
   -0.0395   -0.9726   -0.7617 H   0  0  0  0  0  0  0  0  0  0  0  0
    0.7888    1.5733    0.2298 H   0  0  0  0  0  0  0  0  0  0  0  0
   -0.1661    1.8160    1.7058 H   0  0  0  0  0  0  0  0  0  0  0  0
   -1.9360   -0.3043    1.0126 H   0  0  0  0  0  0  0  0  0  0  0  0
   -3.8971   -1.5394    1.0659 H   0  0  0  0  0  0  0  0  0  0  0  0
   -6.1734   -1.9342    0.3254 H   0  0  0  0  0  0  0  0  0  0  0  0
   -8.2632   -2.1904   -0.4338 H   0  0  0  0  0  0  0  0  0  0  0  0
   -5.9379    1.6062   -2.1802 H   0  0  0  0  0  0  0  0  0  0  0  0
   -3.6677    1.9800   -1.4239 H   0  0  0  0  0  0  0  0  0  0  0  0
    1.1483   -1.3319    2.7252 H   0  0  0  0  0  0  0  0  0  0  0  0
    0.8926    0.3448    3.1460 H   0  0  0  0  0  0  0  0  0  0  0  0
    3.2939   -0.1781    2.7437 H   0  0  0  0  0  0  0  0  0  0  0  0
    2.7097    1.0594    1.6212 H   0  0  0  0  0  0  0  0  0  0  0  0
  1  2  1  0
  2  3  1  0
  3  4  2  0
  4  5  1  0
  5  6  2  0
  6  7  1  0
  7  8  2  0
  8  9  1  0
  9 10  1  0
 10 11  1  0
 11 12  1  0
 12 13  1  0
 13 14  1  0
 14 15  2  0
 14 16  1  0
 16 17  1  0
 17 18  2  0
 18 19  1  0
 19 20  2  0
 20 21  1  0
 21 22  1  0
 22 23  2  0
 23 24  1  0
 24 25  2  0
 20 26  1  0
 26 27  2  0
 12 28  1  0
 28 29  1  0
  8  3  1  0
 29  9  1  0
 27 17  1  0
 25 21  1  0
  1 30  1  0
  1 31  1  0
  1 32  1  0
  4 33  1  0
  5 34  1  0
  6 35  1  0
  7 36  1  0
 10 37  1  0
 10 38  1  0
 11 39  1  0
 11 40  1  0
 13 41  1  0
 13 42  1  0
 16 43  1  0
 18 44  1  0
 19 45  1  0
 22 46  1  0
 26 47  1  0
 27 48  1  0
 28 49  1  0
 28 50  1  0
 29 51  1  0
 29 52  1  0
M  END
$$$$
