
     RDKit          3D

 51 53  0  0  0  0  0  0  0  0999 V2000
   -4.9338   -3.5166   -1.9174 C   0  0  0  0  0  0  0  0  0  0  0  0
   -4.0893   -2.7700   -1.0502 O   0  0  0  0  0  0  0  0  0  0  0  0
   -4.7475   -1.6128   -0.5405 C   0  0  0  0  0  0  0  0  0  0  0  0
   -3.8187   -0.9003    0.4351 C   0  0  0  0  0  0  0  0  0  0  0  0
   -2.4970   -0.5188   -0.2254 C   0  0  0  0  0  0  0  0  0  0  0  0
   -1.6700    0.3105    0.6249 N   0  0  0  0  0  0  0  0  0  0  0  0
   -0.6378   -0.1097    1.4272 C   0  0  0  0  0  0  0  0  0  0  0  0
   -0.0913   -1.7468    1.5466 S   0  0  0  0  0  0  0  0  0  0  0  0
    1.2926   -1.5659    2.7110 C   0  0  0  0  0  0  0  0  0  0  0  0
    2.4661   -0.7660    2.1896 C   0  0  0  0  0  0  0  0  0  0  0  0
    3.2612   -0.1999    2.9335 O   0  0  0  0  0  0  0  0  0  0  0  0
    2.6006   -0.8371    0.8375 O   0  0  0  0  0  0  0  0  0  0  0  0
    3.7083   -0.1162    0.2671 C   0  0  0  0  0  0  0  0  0  0  0  0
    3.3497    0.1964   -1.1882 C   0  0  0  0  0  0  0  0  0  0  0  0
    4.5106    0.8500   -1.9310 C   0  0  0  0  0  0  0  0  0  0  0  0
    5.7780    0.0024   -1.8449 C   0  0  0  0  0  0  0  0  0  0  0  0
    6.1417   -0.3249   -0.3998 C   0  0  0  0  0  0  0  0  0  0  0  0
    4.9758   -0.9734    0.3425 C   0  0  0  0  0  0  0  0  0  0  0  0
   -0.1590    0.9002    2.1107 N   0  0  0  0  0  0  0  0  0  0  0  0
   -0.8912    2.0073    1.7794 N   0  0  0  0  0  0  0  0  0  0  0  0
   -1.7939    1.6624    0.8786 C   0  0  0  0  0  0  0  0  0  0  0  0
   -2.7634    2.6010    0.3806 C   0  0  0  0  0  0  0  0  0  0  0  0
   -3.3088    3.6379    1.1160 C   0  0  0  0  0  0  0  0  0  0  0  0
   -4.2275    4.4302    0.3687 C   0  0  0  0  0  0  0  0  0  0  0  0
   -4.3401    3.9893   -0.9274 C   0  0  0  0  0  0  0  0  0  0  0  0
   -3.3383    2.6413   -1.2303 S   0  0  0  0  0  0  0  0  0  0  0  0
   -5.2514   -2.9039   -2.7656 H   0  0  0  0  0  0  0  0  0  0  0  0
   -5.8060   -3.8856   -1.3737 H   0  0  0  0  0  0  0  0  0  0  0  0
   -4.3693   -4.3735   -2.2950 H   0  0  0  0  0  0  0  0  0  0  0  0
   -5.0105   -0.9458   -1.3688 H   0  0  0  0  0  0  0  0  0  0  0  0
   -5.6674   -1.9078   -0.0228 H   0  0  0  0  0  0  0  0  0  0  0  0
   -3.6085   -1.5602    1.2843 H   0  0  0  0  0  0  0  0  0  0  0  0
   -4.3265   -0.0155    0.8344 H   0  0  0  0  0  0  0  0  0  0  0  0
   -2.6517    0.0086   -1.1674 H   0  0  0  0  0  0  0  0  0  0  0  0
   -1.9324   -1.4154   -0.4960 H   0  0  0  0  0  0  0  0  0  0  0  0
    0.9266   -1.0953    3.6312 H   0  0  0  0  0  0  0  0  0  0  0  0
    1.6585   -2.5676    2.9589 H   0  0  0  0  0  0  0  0  0  0  0  0
    3.8564    0.8340    0.7970 H   0  0  0  0  0  0  0  0  0  0  0  0
    3.0514   -0.7272   -1.7011 H   0  0  0  0  0  0  0  0  0  0  0  0
    2.4698    0.8486   -1.2187 H   0  0  0  0  0  0  0  0  0  0  0  0
    4.7059    1.8421   -1.5052 H   0  0  0  0  0  0  0  0  0  0  0  0
    4.2389    1.0006   -2.9824 H   0  0  0  0  0  0  0  0  0  0  0  0
    6.6080    0.5319   -2.3218 H   0  0  0  0  0  0  0  0  0  0  0  0
    5.6303   -0.9300   -2.4022 H   0  0  0  0  0  0  0  0  0  0  0  0
    7.0079   -0.9938   -0.3802 H   0  0  0  0  0  0  0  0  0  0  0  0
    6.4390    0.5958    0.1183 H   0  0  0  0  0  0  0  0  0  0  0  0
    5.2544   -1.1475    1.3896 H   0  0  0  0  0  0  0  0  0  0  0  0
    4.7718   -1.9678   -0.0773 H   0  0  0  0  0  0  0  0  0  0  0  0
   -3.0540    3.8182    2.1541 H   0  0  0  0  0  0  0  0  0  0  0  0
   -4.7655    5.2833    0.7635 H   0  0  0  0  0  0  0  0  0  0  0  0
   -4.9525    4.4031   -1.7173 H   0  0  0  0  0  0  0  0  0  0  0  0
  1  2  1  0
  2  3  1  0
  3  4  1  0
  4  5  1  0
  5  6  1  0
  6  7  1  0
  7  8  1  0
  8  9  1  0
  9 10  1  0
 10 11  2  0
 10 12  1  0
 12 13  1  0
 13 14  1  0
 14 15  1  0
 15 16  1  0
 16 17  1  0
 17 18  1  0
  7 19  2  0
 19 20  1  0
 20 21  2  0
 21 22  1  0
 22 23  2  0
 23 24  1  0
 24 25  2  0
 25 26  1  0
 21  6  1  0
 26 22  1  0
 18 13  1  0
  1 27  1  0
  1 28  1  0
  1 29  1  0
  3 30  1  0
  3 31  1  0
  4 32  1  0
  4 33  1  0
  5 34  1  0
  5 35  1  0
  9 36  1  0
  9 37  1  0
 13 38  1  0
 14 39  1  0
 14 40  1  0
 15 41  1  0
 15 42  1  0
 16 43  1  0
 16 44  1  0
 17 45  1  0
 17 46  1  0
 18 47  1  0
 18 48  1  0
 23 49  1  0
 24 50  1  0
 25 51  1  0
M  END
$$$$
