
     RDKit          3D

 33 35  0  0  0  0  0  0  0  0999 V2000
   -0.6406   -5.5199    1.4433 Cl  0  0  0  0  0  0  0  0  0  0  0  0
   -0.4507   -3.8831    0.9873 C   0  0  0  0  0  0  0  0  0  0  0  0
   -1.4697   -3.0856    1.2623 N   0  0  0  0  0  0  0  0  0  0  0  0
   -1.2824   -1.8351    0.8764 C   0  0  0  0  0  0  0  0  0  0  0  0
   -2.3371   -0.9668    1.1492 N   0  0  0  0  0  0  0  0  0  0  0  0
   -2.6413    0.3358    0.7345 C   0  0  0  0  0  0  0  0  0  0  0  0
   -3.6910    1.0143    1.3759 C   0  0  0  0  0  0  0  0  0  0  0  0
   -4.0194    2.3315    1.0409 C   0  0  0  0  0  0  0  0  0  0  0  0
   -3.2940    3.0002    0.0607 C   0  0  0  0  0  0  0  0  0  0  0  0
   -2.2422    2.3512   -0.5783 C   0  0  0  0  0  0  0  0  0  0  0  0
   -1.9177    1.0332   -0.2383 C   0  0  0  0  0  0  0  0  0  0  0  0
   -0.1636   -1.4100    0.2984 N   0  0  0  0  0  0  0  0  0  0  0  0
    0.8028   -2.2973    0.0859 C   0  0  0  0  0  0  0  0  0  0  0  0
    2.0000   -1.9377   -0.5290 N   0  0  0  0  0  0  0  0  0  0  0  0
    2.5984   -0.7054   -0.8205 C   0  0  0  0  0  0  0  0  0  0  0  0
    2.0986    0.5262   -0.3851 C   0  0  0  0  0  0  0  0  0  0  0  0
    2.7157    1.7288   -0.7472 C   0  0  0  0  0  0  0  0  0  0  0  0
    3.8417    1.7193   -1.5644 C   0  0  0  0  0  0  0  0  0  0  0  0
    4.3489    0.5074   -2.0207 C   0  0  0  0  0  0  0  0  0  0  0  0
    3.7285   -0.6911   -1.6549 C   0  0  0  0  0  0  0  0  0  0  0  0
    0.6966   -3.5760    0.4046 N   0  0  0  0  0  0  0  0  0  0  0  0
   -3.0732   -1.4619    1.6324 H   0  0  0  0  0  0  0  0  0  0  0  0
   -4.2651    0.5202    2.1561 H   0  0  0  0  0  0  0  0  0  0  0  0
   -4.8377    2.8335    1.5503 H   0  0  0  0  0  0  0  0  0  0  0  0
   -3.5447    4.0240   -0.2031 H   0  0  0  0  0  0  0  0  0  0  0  0
   -1.6689    2.8656   -1.3453 H   0  0  0  0  0  0  0  0  0  0  0  0
   -1.0978    0.5605   -0.7708 H   0  0  0  0  0  0  0  0  0  0  0  0
    2.5840   -2.7534   -0.6469 H   0  0  0  0  0  0  0  0  0  0  0  0
    1.2301    0.5788    0.2645 H   0  0  0  0  0  0  0  0  0  0  0  0
    2.3114    2.6709   -0.3860 H   0  0  0  0  0  0  0  0  0  0  0  0
    4.3196    2.6536   -1.8461 H   0  0  0  0  0  0  0  0  0  0  0  0
    5.2236    0.4914   -2.6655 H   0  0  0  0  0  0  0  0  0  0  0  0
    4.1371   -1.6233   -2.0378 H   0  0  0  0  0  0  0  0  0  0  0  0
  1  2  1  0
  2  3  2  0
  3  4  1  0
  4  5  1  0
  5  6  1  0
  6  7  2  0
  7  8  1  0
  8  9  2  0
  9 10  1  0
 10 11  2  0
  4 12  2  0
 12 13  1  0
 13 14  1  0
 14 15  1  0
 15 16  2  0
 16 17  1  0
 17 18  2  0
 18 19  1  0
 19 20  2  0
 13 21  2  0
 21  2  1  0
 11  6  1  0
 20 15  1  0
  5 22  1  0
  7 23  1  0
  8 24  1  0
  9 25  1  0
 10 26  1  0
 11 27  1  0
 14 28  1  0
 16 29  1  0
 17 30  1  0
 18 31  1  0
 19 32  1  0
 20 33  1  0
M  END
$$$$
