
     RDKit          3D

 47 50  0  0  0  0  0  0  0  0999 V2000
   -0.7427    5.9732   -5.5620 C   0  0  0  0  0  0  0  0  0  0  0  0
    0.1317    5.2119   -4.6081 C   0  0  0  0  0  0  0  0  0  0  0  0
    1.5243    5.3012   -4.7066 C   0  0  0  0  0  0  0  0  0  0  0  0
    2.3664    4.5795   -3.8537 C   0  0  0  0  0  0  0  0  0  0  0  0
    1.7680    3.7516   -2.8988 C   0  0  0  0  0  0  0  0  0  0  0  0
    2.3437    2.9361   -1.9461 N   0  0  0  0  0  0  0  0  0  0  0  0
    1.3658    2.3086   -1.2310 C   0  0  0  0  0  0  0  0  0  0  0  0
    1.5140    1.3802   -0.1500 C   0  0  0  0  0  0  0  0  0  0  0  0
    2.6082    1.0486    0.2971 O   0  0  0  0  0  0  0  0  0  0  0  0
    0.2790    0.9237    0.3473 N   0  0  0  0  0  0  0  0  0  0  0  0
    0.2810   -0.0814    1.3941 C   0  0  0  0  0  0  0  0  0  0  0  0
    0.4153   -1.4921    0.8144 C   0  0  0  0  0  0  0  0  0  0  0  0
    0.6641   -1.7406   -0.3622 O   0  0  0  0  0  0  0  0  0  0  0  0
    0.2618   -2.4878    1.7691 N   0  0  0  0  0  0  0  0  0  0  0  0
    0.2208   -3.8847    1.3717 C   0  0  0  0  0  0  0  0  0  0  0  0
    0.5023   -4.8380    2.5362 C   0  0  0  0  0  0  0  0  0  0  0  0
   -0.5200   -4.7477    3.6472 C   0  0  0  0  0  0  0  0  0  0  0  0
   -0.1785   -4.1732    4.8803 C   0  0  0  0  0  0  0  0  0  0  0  0
   -1.1252   -4.0776    5.9027 C   0  0  0  0  0  0  0  0  0  0  0  0
   -2.4169   -4.5569    5.6976 C   0  0  0  0  0  0  0  0  0  0  0  0
   -3.5831   -4.4368    6.9566 Cl  0  0  0  0  0  0  0  0  0  0  0  0
   -2.7698   -5.1324    4.4793 C   0  0  0  0  0  0  0  0  0  0  0  0
   -1.8234   -5.2287    3.4566 C   0  0  0  0  0  0  0  0  0  0  0  0
   -0.9813    1.3227   -0.1395 N   0  0  0  0  0  0  0  0  0  0  0  0
   -1.0442    2.1686   -1.1286 C   0  0  0  0  0  0  0  0  0  0  0  0
    0.1478    2.7059   -1.7217 C   0  0  0  0  0  0  0  0  0  0  0  0
    0.3794    3.6238   -2.7775 C   0  0  0  0  0  0  0  0  0  0  0  0
   -0.4466    4.3611   -3.6505 C   0  0  0  0  0  0  0  0  0  0  0  0
   -1.7005    6.2273   -5.0960 H   0  0  0  0  0  0  0  0  0  0  0  0
   -0.9324    5.3717   -6.4563 H   0  0  0  0  0  0  0  0  0  0  0  0
   -0.2683    6.9137   -5.8613 H   0  0  0  0  0  0  0  0  0  0  0  0
    1.9745    5.9441   -5.4613 H   0  0  0  0  0  0  0  0  0  0  0  0
    3.4453    4.6610   -3.9395 H   0  0  0  0  0  0  0  0  0  0  0  0
    3.3369    2.8121   -1.7971 H   0  0  0  0  0  0  0  0  0  0  0  0
   -0.6546   -0.0059    1.9591 H   0  0  0  0  0  0  0  0  0  0  0  0
    1.1206    0.0938    2.0754 H   0  0  0  0  0  0  0  0  0  0  0  0
   -0.2267   -2.2396    2.6214 H   0  0  0  0  0  0  0  0  0  0  0  0
   -0.7675   -4.0685    0.9351 H   0  0  0  0  0  0  0  0  0  0  0  0
    0.9633   -4.0488    0.5825 H   0  0  0  0  0  0  0  0  0  0  0  0
    1.5037   -4.6372    2.9378 H   0  0  0  0  0  0  0  0  0  0  0  0
    0.5227   -5.8707    2.1663 H   0  0  0  0  0  0  0  0  0  0  0  0
    0.8286   -3.7991    5.0550 H   0  0  0  0  0  0  0  0  0  0  0  0
   -0.8482   -3.6330    6.8550 H   0  0  0  0  0  0  0  0  0  0  0  0
   -3.7766   -5.5093    4.3197 H   0  0  0  0  0  0  0  0  0  0  0  0
   -2.1108   -5.6845    2.5110 H   0  0  0  0  0  0  0  0  0  0  0  0
   -2.0248    2.4828   -1.5186 H   0  0  0  0  0  0  0  0  0  0  0  0
   -1.5272    4.2711   -3.5818 H   0  0  0  0  0  0  0  0  0  0  0  0
  1  2  1  0
  2  3  2  0
  3  4  1  0
  4  5  2  0
  5  6  1  0
  6  7  1  0
  7  8  1  0
  8  9  2  0
  8 10  1  0
 10 11  1  0
 11 12  1  0
 12 13  2  0
 12 14  1  0
 14 15  1  0
 15 16  1  0
 16 17  1  0
 17 18  2  0
 18 19  1  0
 19 20  2  0
 20 21  1  0
 20 22  1  0
 22 23  2  0
 10 24  1  0
 24 25  2  0
 25 26  1  0
 26 27  1  0
 27 28  2  0
 28  2  1  0
 27  5  1  0
 26  7  2  0
 23 17  1  0
  1 29  1  0
  1 30  1  0
  1 31  1  0
  3 32  1  0
  4 33  1  0
  6 34  1  0
 11 35  1  0
 11 36  1  0
 14 37  1  0
 15 38  1  0
 15 39  1  0
 16 40  1  0
 16 41  1  0
 18 42  1  0
 19 43  1  0
 22 44  1  0
 23 45  1  0
 25 46  1  0
 28 47  1  0
M  END
$$$$
