
     RDKit          3D

 58 60  0  0  0  0  0  0  0  0999 V2000
   -6.1876   -1.0093    2.6798 C   0  0  0  0  0  0  0  0  0  0  0  0
   -5.9389   -2.0379    1.7308 O   0  0  0  0  0  0  0  0  0  0  0  0
   -5.2809   -1.7048    0.5747 C   0  0  0  0  0  0  0  0  0  0  0  0
   -4.7220   -0.4448    0.3184 C   0  0  0  0  0  0  0  0  0  0  0  0
   -4.0554   -0.2004   -0.8863 C   0  0  0  0  0  0  0  0  0  0  0  0
   -3.4624    0.9872   -1.2404 O   0  0  0  0  0  0  0  0  0  0  0  0
   -3.3890    2.0049   -0.2464 C   0  0  0  0  0  0  0  0  0  0  0  0
   -3.9553   -1.2259   -1.8444 C   0  0  0  0  0  0  0  0  0  0  0  0
   -3.2298   -0.9653   -3.0512 N   0  0  0  0  0  0  0  0  0  0  0  0
   -1.7717   -1.7783   -3.3071 S   0  0  0  0  0  6  0  0  0  0  0  0
   -2.0415   -3.1916   -3.4595 O   0  0  0  0  0  0  0  0  0  0  0  0
   -1.0443   -1.0353   -4.3128 O   0  0  0  0  0  0  0  0  0  0  0  0
   -0.8969   -1.5579   -1.7707 C   0  0  0  0  0  0  0  0  0  0  0  0
   -0.7102   -2.6432   -0.9093 C   0  0  0  0  0  0  0  0  0  0  0  0
   -0.0481   -2.4528    0.3063 C   0  0  0  0  0  0  0  0  0  0  0  0
    0.4313   -1.1862    0.6584 C   0  0  0  0  0  0  0  0  0  0  0  0
    1.1745   -1.0105    2.2066 Cl  0  0  0  0  0  0  0  0  0  0  0  0
    0.2611   -0.1126   -0.2237 C   0  0  0  0  0  0  0  0  0  0  0  0
    0.7038    1.2490    0.1051 C   0  0  0  0  0  0  0  0  0  0  0  0
   -0.0606    2.1950    0.1808 O   0  0  0  0  0  0  0  0  0  0  0  0
    2.0487    1.2549    0.2239 O   0  0  0  0  0  0  0  0  0  0  0  0
    2.6456    2.5266    0.5041 C   0  0  0  0  0  0  0  0  0  0  0  0
    2.6046    2.8181    2.0005 C   0  0  0  0  0  0  0  0  0  0  0  0
    4.0949    2.6194   -0.0114 C   0  0  0  0  0  0  0  0  0  0  0  0
    4.4890    3.6700   -0.5294 O   0  0  0  0  0  0  0  0  0  0  0  0
    4.9517    1.5537    0.1617 N   0  0  0  0  0  0  0  0  0  0  0  0
    4.6589    0.2375    0.7094 C   0  0  0  0  0  0  0  0  0  0  0  0
    6.0252   -0.4105    0.8851 C   0  0  0  0  0  0  0  0  0  0  0  0
    6.8321    0.1939   -0.2554 C   0  0  0  0  0  0  0  0  0  0  0  0
    6.3271    1.6287   -0.3048 C   0  0  0  0  0  0  0  0  0  0  0  0
   -0.4028   -0.2927   -1.4435 C   0  0  0  0  0  0  0  0  0  0  0  0
   -4.5068   -2.4795   -1.6027 C   0  0  0  0  0  0  0  0  0  0  0  0
   -5.1638   -2.7168   -0.3952 C   0  0  0  0  0  0  0  0  0  0  0  0
   -5.8223   -4.2945   -0.1319 Cl  0  0  0  0  0  0  0  0  0  0  0  0
   -6.7819   -0.2010    2.2411 H   0  0  0  0  0  0  0  0  0  0  0  0
   -5.2510   -0.6297    3.1013 H   0  0  0  0  0  0  0  0  0  0  0  0
   -6.7689   -1.4431    3.4991 H   0  0  0  0  0  0  0  0  0  0  0  0
   -4.8032    0.3425    1.0567 H   0  0  0  0  0  0  0  0  0  0  0  0
   -2.8566    1.6521    0.6428 H   0  0  0  0  0  0  0  0  0  0  0  0
   -2.8243    2.8421   -0.6673 H   0  0  0  0  0  0  0  0  0  0  0  0
   -4.3881    2.3717    0.0096 H   0  0  0  0  0  0  0  0  0  0  0  0
   -3.1379    0.0291   -3.2740 H   0  0  0  0  0  0  0  0  0  0  0  0
   -1.0862   -3.6323   -1.1671 H   0  0  0  0  0  0  0  0  0  0  0  0
    0.0779   -3.2971    0.9816 H   0  0  0  0  0  0  0  0  0  0  0  0
    2.0952    3.3097   -0.0350 H   0  0  0  0  0  0  0  0  0  0  0  0
    3.0979    2.0337    2.5816 H   0  0  0  0  0  0  0  0  0  0  0  0
    1.5713    2.8675    2.3586 H   0  0  0  0  0  0  0  0  0  0  0  0
    3.0958    3.7689    2.2311 H   0  0  0  0  0  0  0  0  0  0  0  0
    4.0624   -0.3111   -0.0272 H   0  0  0  0  0  0  0  0  0  0  0  0
    4.1092    0.3023    1.6493 H   0  0  0  0  0  0  0  0  0  0  0  0
    6.4620   -0.1143    1.8464 H   0  0  0  0  0  0  0  0  0  0  0  0
    5.9814   -1.5024    0.8475 H   0  0  0  0  0  0  0  0  0  0  0  0
    7.9122    0.1319   -0.0975 H   0  0  0  0  0  0  0  0  0  0  0  0
    6.5910   -0.3216   -1.1930 H   0  0  0  0  0  0  0  0  0  0  0  0
    6.3816    2.0591   -1.3093 H   0  0  0  0  0  0  0  0  0  0  0  0
    6.8807    2.2714    0.3890 H   0  0  0  0  0  0  0  0  0  0  0  0
   -0.5465    0.5496   -2.1184 H   0  0  0  0  0  0  0  0  0  0  0  0
   -4.4318   -3.2673   -2.3482 H   0  0  0  0  0  0  0  0  0  0  0  0
  1  2  1  0
  2  3  1  0
  3  4  2  0
  4  5  1  0
  5  6  1  0
  6  7  1  0
  5  8  2  0
  8  9  1  0
  9 10  1  0
 10 11  2  0
 10 12  2  0
 10 13  1  0
 13 14  2  0
 14 15  1  0
 15 16  2  0
 16 17  1  0
 16 18  1  0
 18 19  1  0
 19 20  2  0
 19 21  1  0
 21 22  1  0
 22 23  1  0
 22 24  1  0
 24 25  2  0
 24 26  1  0
 26 27  1  0
 27 28  1  0
 28 29  1  0
 29 30  1  0
 18 31  2  0
  8 32  1  0
 32 33  2  0
 33 34  1  0
 33  3  1  0
 31 13  1  0
 30 26  1  0
  1 35  1  0
  1 36  1  0
  1 37  1  0
  4 38  1  0
  7 39  1  0
  7 40  1  0
  7 41  1  0
  9 42  1  0
 14 43  1  0
 15 44  1  0
 22 45  1  0
 23 46  1  0
 23 47  1  0
 23 48  1  0
 27 49  1  0
 27 50  1  0
 28 51  1  0
 28 52  1  0
 29 53  1  0
 29 54  1  0
 30 55  1  0
 30 56  1  0
 31 57  1  0
 32 58  1  0
M  END
$$$$
