
     RDKit          3D

 43 45  0  0  0  0  0  0  0  0999 V2000
   -2.7911    2.1231   -2.7612 C   0  0  0  0  0  0  0  0  0  0  0  0
   -1.9388    0.8645   -2.8120 C   0  0  0  0  0  0  0  0  0  0  0  0
   -2.1547   -0.0658   -1.6173 C   0  0  0  0  0  0  0  0  0  0  0  0
   -1.7034    0.5457   -0.2889 C   0  0  0  0  0  0  0  0  0  0  0  0
   -1.8196   -0.4083    0.8133 N   0  0  0  0  0  0  0  0  0  0  0  0
   -2.9808   -0.7080    1.5295 C   0  0  0  0  0  0  0  0  0  0  0  0
   -4.4259    0.0942    1.5771 S   0  0  0  0  0  0  0  0  0  0  0  0
   -2.7615   -1.8919    2.2240 N   0  0  0  0  0  0  0  0  0  0  0  0
   -1.5795   -2.5438    1.7235 C   0  0  0  0  0  0  0  0  0  0  0  0
   -0.7744   -1.3999    1.0899 C   0  0  0  0  0  0  0  0  0  0  0  0
    0.2838   -0.8933    2.0939 C   0  0  0  0  0  0  0  0  0  0  0  0
    1.2344    0.1476    1.5320 C   0  0  0  0  0  0  0  0  0  0  0  0
    1.0138    1.4898    1.8927 C   0  0  0  0  0  0  0  0  0  0  0  0
    1.8240    2.5042    1.3969 C   0  0  0  0  0  0  0  0  0  0  0  0
    2.8688    2.1940    0.5324 C   0  0  0  0  0  0  0  0  0  0  0  0
    3.1226    0.8674    0.1556 C   0  0  0  0  0  0  0  0  0  0  0  0
    4.1853    0.5795   -0.7168 C   0  0  0  0  0  0  0  0  0  0  0  0
    4.4637   -0.7299   -1.1029 C   0  0  0  0  0  0  0  0  0  0  0  0
    3.6835   -1.7699   -0.6178 C   0  0  0  0  0  0  0  0  0  0  0  0
    2.6225   -1.4995    0.2503 C   0  0  0  0  0  0  0  0  0  0  0  0
    2.3082   -0.1812    0.6562 C   0  0  0  0  0  0  0  0  0  0  0  0
   -2.6669    2.6978   -3.6847 H   0  0  0  0  0  0  0  0  0  0  0  0
   -3.8521    1.8754   -2.6564 H   0  0  0  0  0  0  0  0  0  0  0  0
   -2.5021    2.7701   -1.9280 H   0  0  0  0  0  0  0  0  0  0  0  0
   -0.8807    1.1427   -2.8819 H   0  0  0  0  0  0  0  0  0  0  0  0
   -2.1831    0.3149   -3.7288 H   0  0  0  0  0  0  0  0  0  0  0  0
   -3.2110   -0.3547   -1.5604 H   0  0  0  0  0  0  0  0  0  0  0  0
   -1.5948   -0.9917   -1.7984 H   0  0  0  0  0  0  0  0  0  0  0  0
   -2.3129    1.4218   -0.0491 H   0  0  0  0  0  0  0  0  0  0  0  0
   -0.6649    0.8766   -0.3617 H   0  0  0  0  0  0  0  0  0  0  0  0
   -3.5557   -2.3769    2.6248 H   0  0  0  0  0  0  0  0  0  0  0  0
   -1.0696   -3.0791    2.5284 H   0  0  0  0  0  0  0  0  0  0  0  0
   -1.9030   -3.2605    0.9604 H   0  0  0  0  0  0  0  0  0  0  0  0
   -0.3176   -1.7336    0.1527 H   0  0  0  0  0  0  0  0  0  0  0  0
    0.8817   -1.7337    2.4694 H   0  0  0  0  0  0  0  0  0  0  0  0
   -0.2146   -0.4853    2.9843 H   0  0  0  0  0  0  0  0  0  0  0  0
    0.1908    1.7514    2.5561 H   0  0  0  0  0  0  0  0  0  0  0  0
    1.6385    3.5369    1.6802 H   0  0  0  0  0  0  0  0  0  0  0  0
    3.4900    3.0029    0.1536 H   0  0  0  0  0  0  0  0  0  0  0  0
    4.8109    1.3813   -1.1038 H   0  0  0  0  0  0  0  0  0  0  0  0
    5.2907   -0.9344   -1.7774 H   0  0  0  0  0  0  0  0  0  0  0  0
    3.8995   -2.7942   -0.9103 H   0  0  0  0  0  0  0  0  0  0  0  0
    2.0460   -2.3463    0.6111 H   0  0  0  0  0  0  0  0  0  0  0  0
  1  2  1  0
  2  3  1  0
  3  4  1  0
  4  5  1  0
  5  6  1  0
  6  7  2  0
  6  8  1  0
  8  9  1  0
  9 10  1  0
 10 11  1  0
 11 12  1  0
 12 13  2  0
 13 14  1  0
 14 15  2  0
 15 16  1  0
 16 17  2  0
 17 18  1  0
 18 19  2  0
 19 20  1  0
 20 21  2  0
 10  5  1  0
 21 12  1  0
 21 16  1  0
  1 22  1  0
  1 23  1  0
  1 24  1  0
  2 25  1  0
  2 26  1  0
  3 27  1  0
  3 28  1  0
  4 29  1  0
  4 30  1  0
  8 31  1  0
  9 32  1  0
  9 33  1  0
 10 34  1  0
 11 35  1  0
 11 36  1  0
 13 37  1  0
 14 38  1  0
 15 39  1  0
 17 40  1  0
 18 41  1  0
 19 42  1  0
 20 43  1  0
M  END
$$$$
