
     RDKit          3D

 41 43  0  0  0  0  0  0  0  0999 V2000
   -1.4134   -2.2851    2.3617 C   0  0  0  0  0  0  0  0  0  0  0  0
   -1.8127   -0.8362    2.5960 C   0  0  0  0  0  0  0  0  0  0  0  0
   -3.2327   -0.5140    2.1228 C   0  0  0  0  0  0  0  0  0  0  0  0
   -3.4739   -0.5772    0.6117 C   0  0  0  0  0  0  0  0  0  0  0  0
   -2.7384    0.8227   -0.2873 S   0  0  0  0  0  0  0  0  0  0  0  0
   -1.1531    0.2146   -0.6470 C   0  0  0  0  0  0  0  0  0  0  0  0
   -1.0021   -1.0184   -1.0210 N   0  0  0  0  0  0  0  0  0  0  0  0
    0.3336   -1.1287   -1.3318 C   0  0  0  0  0  0  0  0  0  0  0  0
    0.8682   -2.2813   -1.7611 C   0  0  0  0  0  0  0  0  0  0  0  0
    2.2174   -2.5948   -2.1140 C   0  0  0  0  0  0  0  0  0  0  0  0
    3.4027   -2.2058   -1.4219 C   0  0  0  0  0  0  0  0  0  0  0  0
    4.5439   -2.7036   -2.0137 C   0  0  0  0  0  0  0  0  0  0  0  0
    4.1910   -3.6631   -3.3831 S   0  0  0  0  0  0  0  0  0  0  0  0
    2.5085   -3.4129   -3.1875 C   0  0  0  0  0  0  0  0  0  0  0  0
    0.9908    0.2025   -1.1376 C   0  0  0  0  0  0  0  0  0  0  0  0
    2.1618    0.4681   -1.3380 O   0  0  0  0  0  0  0  0  0  0  0  0
   -0.0309    0.9972   -0.6607 N   0  0  0  0  0  0  0  0  0  0  0  0
    0.1549    2.3520   -0.2653 C   0  0  0  0  0  0  0  0  0  0  0  0
   -0.5675    2.9316    0.7878 C   0  0  0  0  0  0  0  0  0  0  0  0
   -0.3612    4.2640    1.1658 C   0  0  0  0  0  0  0  0  0  0  0  0
    0.5816    5.0417    0.5035 C   0  0  0  0  0  0  0  0  0  0  0  0
    1.3250    4.4842   -0.5297 C   0  0  0  0  0  0  0  0  0  0  0  0
    1.1171    3.1523   -0.9045 C   0  0  0  0  0  0  0  0  0  0  0  0
   -0.4158   -2.4703    2.7726 H   0  0  0  0  0  0  0  0  0  0  0  0
   -2.1128   -2.9677    2.8549 H   0  0  0  0  0  0  0  0  0  0  0  0
   -1.3859   -2.5338    1.2982 H   0  0  0  0  0  0  0  0  0  0  0  0
   -1.0815   -0.1702    2.1292 H   0  0  0  0  0  0  0  0  0  0  0  0
   -1.7599   -0.6398    3.6741 H   0  0  0  0  0  0  0  0  0  0  0  0
   -3.5132    0.4790    2.4973 H   0  0  0  0  0  0  0  0  0  0  0  0
   -3.9219   -1.2193    2.6054 H   0  0  0  0  0  0  0  0  0  0  0  0
   -4.5545   -0.5012    0.4440 H   0  0  0  0  0  0  0  0  0  0  0  0
   -3.1725   -1.5394    0.1895 H   0  0  0  0  0  0  0  0  0  0  0  0
    0.1631   -3.1049   -1.8762 H   0  0  0  0  0  0  0  0  0  0  0  0
    3.4348   -1.5853   -0.5343 H   0  0  0  0  0  0  0  0  0  0  0  0
    5.5684   -2.5514   -1.7036 H   0  0  0  0  0  0  0  0  0  0  0  0
    1.8206   -3.8746   -3.8830 H   0  0  0  0  0  0  0  0  0  0  0  0
   -1.2720    2.3579    1.3810 H   0  0  0  0  0  0  0  0  0  0  0  0
   -0.9323    4.6876    1.9885 H   0  0  0  0  0  0  0  0  0  0  0  0
    0.7434    6.0754    0.7975 H   0  0  0  0  0  0  0  0  0  0  0  0
    2.0697    5.0816   -1.0501 H   0  0  0  0  0  0  0  0  0  0  0  0
    1.7116    2.7669   -1.7304 H   0  0  0  0  0  0  0  0  0  0  0  0
  1  2  1  0
  2  3  1  0
  3  4  1  0
  4  5  1  0
  5  6  1  0
  6  7  2  0
  7  8  1  0
  8  9  2  3
  9 10  1  0
 10 11  1  0
 11 12  2  0
 12 13  1  0
 13 14  1  0
  8 15  1  0
 15 16  2  0
 15 17  1  0
 17 18  1  0
 18 19  2  0
 19 20  1  0
 20 21  2  0
 21 22  1  0
 22 23  2  0
 17  6  1  0
 23 18  1  0
 14 10  2  0
  1 24  1  0
  1 25  1  0
  1 26  1  0
  2 27  1  0
  2 28  1  0
  3 29  1  0
  3 30  1  0
  4 31  1  0
  4 32  1  0
  9 33  1  0
 11 34  1  0
 12 35  1  0
 14 36  1  0
 19 37  1  0
 20 38  1  0
 21 39  1  0
 22 40  1  0
 23 41  1  0
M  END
$$$$
