
     RDKit          3D

142147  0  0  0  0  0  0  0  0999 V2000
   -3.6392    3.3654   -4.0854 C   0  0  0  0  0  0  0  0  0  0  0  0
   -4.1829    3.6460   -2.8928 C   0  0  0  0  0  0  0  0  0  0  0  0
   -3.6677    3.2932   -1.5067 C   0  0  0  0  0  0  0  0  0  0  0  0
   -3.6006    4.6235   -0.7268 C   0  0  0  0  0  0  0  0  0  0  0  0
   -2.2666    2.6008   -1.5058 C   0  0  0  0  0  0  0  0  0  0  0  0
   -1.5371    2.5474   -0.1456 C   0  0  0  0  0  0  0  0  0  0  0  0
   -0.1368    1.8020   -0.1582 C   0  0  0  0  0  0  0  0  0  0  0  0
    0.7058    2.5179   -1.2525 C   0  0  0  0  0  0  0  0  0  0  0  0
    0.5578    1.9737    1.2471 C   0  0  0  0  0  0  0  0  0  0  0  0
    0.9030    3.4273    1.6227 C   0  0  0  0  0  0  0  0  0  0  0  0
    1.8365    1.1303    1.3880 C   0  0  0  0  0  0  0  0  0  0  0  0
    1.6647   -0.3641    1.0840 C   0  0  0  0  0  0  0  0  0  0  0  0
    2.9595   -0.9952    1.1432 O   0  0  0  0  0  0  0  0  0  0  0  0
    3.3349   -1.4565    2.4416 C   0  0  0  0  0  0  0  0  0  0  0  0
    3.9330   -0.4323    3.2273 O   0  0  0  0  0  0  0  0  0  0  0  0
    5.0882    0.1810    2.6215 C   0  0  0  0  0  0  0  0  0  0  0  0
    5.9013    0.7566    3.7807 C   0  0  0  0  0  0  0  0  0  0  0  0
    5.9106   -0.7657    1.6972 C   0  0  0  0  0  0  0  0  0  0  0  0
    7.2716   -0.3180    1.6580 O   0  0  0  0  0  0  0  0  0  0  0  0
    7.9782   -0.6713    0.4693 C   0  0  0  0  0  0  0  0  0  0  0  0
    9.3562   -0.8477    0.8152 O   0  0  0  0  0  0  0  0  0  0  0  0
   10.1225   -1.4059   -0.2713 C   0  0  0  0  0  0  0  0  0  0  0  0
   11.5999   -1.3553    0.1357 C   0  0  0  0  0  0  0  0  0  0  0  0
   12.0636    0.0053    0.1452 O   0  0  0  0  0  0  0  0  0  0  0  0
   12.6137    0.4552    1.3069 C   0  0  0  0  0  0  0  0  0  0  0  0
   12.9836    1.9013    1.1682 C   0  0  0  0  0  0  0  0  0  0  0  0
   12.7975   -0.2030    2.3185 O   0  0  0  0  0  0  0  0  0  0  0  0
    9.8500   -0.6543   -1.5941 C   0  0  0  0  0  0  0  0  0  0  0  0
    8.9215   -1.4342   -2.3904 O   0  0  0  0  0  0  0  0  0  0  0  0
    9.1814    0.6987   -1.2985 C   0  0  0  0  0  0  0  0  0  0  0  0
    8.9721    1.4194   -2.5230 O   0  0  0  0  0  0  0  0  0  0  0  0
    7.8346    0.4595   -0.5794 C   0  0  0  0  0  0  0  0  0  0  0  0
    6.8376    0.1054   -1.5695 O   0  0  0  0  0  0  0  0  0  0  0  0
    5.7900   -2.1911    2.2532 C   0  0  0  0  0  0  0  0  0  0  0  0
    6.5229   -3.1485    1.4693 O   0  0  0  0  0  0  0  0  0  0  0  0
    4.3170   -2.6417    2.3182 C   0  0  0  0  0  0  0  0  0  0  0  0
    4.2004   -3.5444    3.4365 O   0  0  0  0  0  0  0  0  0  0  0  0
    1.0205   -0.6288   -0.3199 C   0  0  0  0  0  0  0  0  0  0  0  0
    2.0211   -0.2881   -1.4558 C   0  0  0  0  0  0  0  0  0  0  0  0
    0.6837   -2.1442   -0.4448 C   0  0  0  0  0  0  0  0  0  0  0  0
    1.7243   -3.1189   -0.9483 C   0  0  0  0  0  0  0  0  0  0  0  0
   -0.5130   -2.6458   -0.0875 C   0  0  0  0  0  0  0  0  0  0  0  0
   -1.6432   -1.8526    0.4382 C   0  0  0  0  0  0  0  0  0  0  0  0
   -1.4458   -0.3399    0.4290 C   0  0  0  0  0  0  0  0  0  0  0  0
   -0.3049    0.2344   -0.4553 C   0  0  0  0  0  0  0  0  0  0  0  0
   -4.6562    2.5182   -0.8119 O   0  0  0  0  0  0  0  0  0  0  0  0
   -5.0726    1.2810   -1.3833 C   0  0  0  0  0  0  0  0  0  0  0  0
   -5.3158    0.3887   -0.2883 O   0  0  0  0  0  0  0  0  0  0  0  0
   -5.6803   -0.9336   -0.7061 C   0  0  0  0  0  0  0  0  0  0  0  0
   -5.7674   -1.7892    0.5528 C   0  0  0  0  0  0  0  0  0  0  0  0
   -6.9943   -0.9432   -1.5094 C   0  0  0  0  0  0  0  0  0  0  0  0
   -8.1010   -0.6080   -0.6564 O   0  0  0  0  0  0  0  0  0  0  0  0
   -9.2099   -1.5062   -0.7876 C   0  0  0  0  0  0  0  0  0  0  0  0
   -9.1966   -2.4195    0.3143 O   0  0  0  0  0  0  0  0  0  0  0  0
   -9.8321   -1.8530    1.4737 C   0  0  0  0  0  0  0  0  0  0  0  0
   -9.4322   -2.6793    2.6850 C   0  0  0  0  0  0  0  0  0  0  0  0
  -11.3539   -1.7917    1.2273 C   0  0  0  0  0  0  0  0  0  0  0  0
  -11.9845   -3.0339    1.5721 O   0  0  0  0  0  0  0  0  0  0  0  0
  -11.6614   -1.4481   -0.2447 C   0  0  0  0  0  0  0  0  0  0  0  0
  -12.8658   -0.6716   -0.3337 O   0  0  0  0  0  0  0  0  0  0  0  0
  -10.5127   -0.6805   -0.8894 C   0  0  0  0  0  0  0  0  0  0  0  0
  -10.8565   -0.4128   -2.2655 O   0  0  0  0  0  0  0  0  0  0  0  0
   -6.9294    0.0900   -2.6474 C   0  0  0  0  0  0  0  0  0  0  0  0
   -8.2410    0.2689   -3.2260 O   0  0  0  0  0  0  0  0  0  0  0  0
   -6.3834    1.4502   -2.1880 C   0  0  0  0  0  0  0  0  0  0  0  0
   -7.4116    2.1108   -1.4210 O   0  0  0  0  0  0  0  0  0  0  0  0
   -4.1237    3.7001   -5.0008 H   0  0  0  0  0  0  0  0  0  0  0  0
   -2.7143    2.8101   -4.2012 H   0  0  0  0  0  0  0  0  0  0  0  0
   -5.1159    4.2146   -2.8965 H   0  0  0  0  0  0  0  0  0  0  0  0
   -3.4260    4.4532    0.3419 H   0  0  0  0  0  0  0  0  0  0  0  0
   -2.8162    5.2836   -1.1141 H   0  0  0  0  0  0  0  0  0  0  0  0
   -4.5551    5.1621   -0.7750 H   0  0  0  0  0  0  0  0  0  0  0  0
   -1.6212    3.1541   -2.1989 H   0  0  0  0  0  0  0  0  0  0  0  0
   -2.3497    1.5837   -1.9008 H   0  0  0  0  0  0  0  0  0  0  0  0
   -1.3630    3.5817    0.1607 H   0  0  0  0  0  0  0  0  0  0  0  0
   -2.1976    2.1349    0.6236 H   0  0  0  0  0  0  0  0  0  0  0  0
    0.4766    3.5873   -1.2889 H   0  0  0  0  0  0  0  0  0  0  0  0
    0.5032    2.1089   -2.2466 H   0  0  0  0  0  0  0  0  0  0  0  0
    1.7779    2.4762   -1.0698 H   0  0  0  0  0  0  0  0  0  0  0  0
   -0.1424    1.6293    2.0185 H   0  0  0  0  0  0  0  0  0  0  0  0
    1.3629    3.4621    2.6191 H   0  0  0  0  0  0  0  0  0  0  0  0
    1.6192    3.8735    0.9249 H   0  0  0  0  0  0  0  0  0  0  0  0
    0.0141    4.0644    1.6660 H   0  0  0  0  0  0  0  0  0  0  0  0
    2.2007    1.2343    2.4191 H   0  0  0  0  0  0  0  0  0  0  0  0
    2.6441    1.5399    0.7718 H   0  0  0  0  0  0  0  0  0  0  0  0
    1.0097   -0.7978    1.8517 H   0  0  0  0  0  0  0  0  0  0  0  0
    2.4504   -1.8092    2.9808 H   0  0  0  0  0  0  0  0  0  0  0  0
    4.7431    1.0283    2.0185 H   0  0  0  0  0  0  0  0  0  0  0  0
    6.7236    1.3863    3.4270 H   0  0  0  0  0  0  0  0  0  0  0  0
    6.3159   -0.0440    4.4025 H   0  0  0  0  0  0  0  0  0  0  0  0
    5.2648    1.3586    4.4358 H   0  0  0  0  0  0  0  0  0  0  0  0
    5.4912   -0.7263    0.6860 H   0  0  0  0  0  0  0  0  0  0  0  0
    7.5996   -1.6152    0.0689 H   0  0  0  0  0  0  0  0  0  0  0  0
    9.8331   -2.4571   -0.3654 H   0  0  0  0  0  0  0  0  0  0  0  0
   11.7220   -1.8380    1.1102 H   0  0  0  0  0  0  0  0  0  0  0  0
   12.2061   -1.8973   -0.5958 H   0  0  0  0  0  0  0  0  0  0  0  0
   12.0971    2.4883    0.9178 H   0  0  0  0  0  0  0  0  0  0  0  0
   13.7528    2.0122    0.4012 H   0  0  0  0  0  0  0  0  0  0  0  0
   13.3842    2.2624    2.1211 H   0  0  0  0  0  0  0  0  0  0  0  0
   10.7492   -0.5306   -2.2107 H   0  0  0  0  0  0  0  0  0  0  0  0
    9.4538   -2.0843   -2.8851 H   0  0  0  0  0  0  0  0  0  0  0  0
    9.8387    1.3145   -0.6733 H   0  0  0  0  0  0  0  0  0  0  0  0
    8.0048    1.4057   -2.6822 H   0  0  0  0  0  0  0  0  0  0  0  0
    7.4847    1.3927   -0.1289 H   0  0  0  0  0  0  0  0  0  0  0  0
    7.2668   -0.5924   -2.1109 H   0  0  0  0  0  0  0  0  0  0  0  0
    6.2549   -2.2278    3.2470 H   0  0  0  0  0  0  0  0  0  0  0  0
    6.3766   -4.0117    1.9015 H   0  0  0  0  0  0  0  0  0  0  0  0
    4.0683   -3.2388    1.4365 H   0  0  0  0  0  0  0  0  0  0  0  0
    4.2557   -3.0073    4.2562 H   0  0  0  0  0  0  0  0  0  0  0  0
    1.5273   -0.3109   -2.4341 H   0  0  0  0  0  0  0  0  0  0  0  0
    2.8700   -0.9802   -1.5008 H   0  0  0  0  0  0  0  0  0  0  0  0
    2.4998    0.6816   -1.3350 H   0  0  0  0  0  0  0  0  0  0  0  0
    1.8952   -2.9724   -2.0215 H   0  0  0  0  0  0  0  0  0  0  0  0
    2.6758   -3.0076   -0.4217 H   0  0  0  0  0  0  0  0  0  0  0  0
    1.4189   -4.1611   -0.8245 H   0  0  0  0  0  0  0  0  0  0  0  0
   -0.6933   -3.7140   -0.1702 H   0  0  0  0  0  0  0  0  0  0  0  0
   -1.8326   -2.1668    1.4795 H   0  0  0  0  0  0  0  0  0  0  0  0
   -2.5523   -2.1136   -0.1262 H   0  0  0  0  0  0  0  0  0  0  0  0
   -1.3158   -0.0256    1.4730 H   0  0  0  0  0  0  0  0  0  0  0  0
   -2.4063    0.0838    0.1117 H   0  0  0  0  0  0  0  0  0  0  0  0
   -0.6449    0.1286   -1.4962 H   0  0  0  0  0  0  0  0  0  0  0  0
   -4.2953    0.8429   -2.0113 H   0  0  0  0  0  0  0  0  0  0  0  0
   -4.8681   -1.3279   -1.3315 H   0  0  0  0  0  0  0  0  0  0  0  0
   -6.0458   -2.8205    0.3177 H   0  0  0  0  0  0  0  0  0  0  0  0
   -4.8042   -1.7971    1.0774 H   0  0  0  0  0  0  0  0  0  0  0  0
   -6.4938   -1.3763    1.2623 H   0  0  0  0  0  0  0  0  0  0  0  0
   -7.1301   -1.9437   -1.9294 H   0  0  0  0  0  0  0  0  0  0  0  0
   -9.1185   -2.1112   -1.6984 H   0  0  0  0  0  0  0  0  0  0  0  0
   -9.4445   -0.8351    1.6215 H   0  0  0  0  0  0  0  0  0  0  0  0
   -9.6690   -3.7370    2.5410 H   0  0  0  0  0  0  0  0  0  0  0  0
   -9.9283   -2.3169    3.5901 H   0  0  0  0  0  0  0  0  0  0  0  0
   -8.3496   -2.6222    2.8339 H   0  0  0  0  0  0  0  0  0  0  0  0
  -11.7952   -1.0418    1.8953 H   0  0  0  0  0  0  0  0  0  0  0  0
  -11.6908   -3.7081    0.9294 H   0  0  0  0  0  0  0  0  0  0  0  0
  -11.8626   -2.3614   -0.8191 H   0  0  0  0  0  0  0  0  0  0  0  0
  -12.8933   -0.3319   -1.2493 H   0  0  0  0  0  0  0  0  0  0  0  0
  -10.3990    0.3049   -0.4179 H   0  0  0  0  0  0  0  0  0  0  0  0
  -10.0218   -0.1734   -2.7232 H   0  0  0  0  0  0  0  0  0  0  0  0
   -6.2719   -0.3005   -3.4347 H   0  0  0  0  0  0  0  0  0  0  0  0
   -8.4933    1.1951   -2.9702 H   0  0  0  0  0  0  0  0  0  0  0  0
   -6.2384    2.0777   -3.0690 H   0  0  0  0  0  0  0  0  0  0  0  0
   -7.2116    1.9097   -0.4816 H   0  0  0  0  0  0  0  0  0  0  0  0
  1  2  2  0
  2  3  1  0
  3  4  1  0
  3  5  1  0
  5  6  1  0
  6  7  1  0
  7  8  1  0
  7  9  1  0
  9 10  1  0
  9 11  1  0
 11 12  1  0
 12 13  1  0
 13 14  1  0
 14 15  1  0
 15 16  1  0
 16 17  1  0
 16 18  1  0
 18 19  1  0
 19 20  1  0
 20 21  1  0
 21 22  1  0
 22 23  1  0
 23 24  1  0
 24 25  1  0
 25 26  1  0
 25 27  2  0
 22 28  1  0
 28 29  1  0
 28 30  1  0
 30 31  1  0
 30 32  1  0
 32 33  1  0
 18 34  1  0
 34 35  1  0
 34 36  1  0
 36 37  1  0
 12 38  1  0
 38 39  1  0
 38 40  1  0
 40 41  1  0
 40 42  2  0
 42 43  1  0
 43 44  1  0
 44 45  1  0
  3 46  1  0
 46 47  1  0
 47 48  1  0
 48 49  1  0
 49 50  1  0
 49 51  1  0
 51 52  1  0
 52 53  1  0
 53 54  1  0
 54 55  1  0
 55 56  1  0
 55 57  1  0
 57 58  1  0
 57 59  1  0
 59 60  1  0
 59 61  1  0
 61 62  1  0
 51 63  1  0
 63 64  1  0
 63 65  1  0
 65 66  1  0
 45  7  1  0
 65 47  1  0
 36 14  1  0
 45 38  1  0
 61 53  1  0
 32 20  1  0
  1 67  1  0
  1 68  1  0
  2 69  1  0
  4 70  1  0
  4 71  1  0
  4 72  1  0
  5 73  1  0
  5 74  1  0
  6 75  1  0
  6 76  1  0
  8 77  1  0
  8 78  1  0
  8 79  1  0
  9 80  1  0
 10 81  1  0
 10 82  1  0
 10 83  1  0
 11 84  1  0
 11 85  1  0
 12 86  1  0
 14 87  1  0
 16 88  1  0
 17 89  1  0
 17 90  1  0
 17 91  1  0
 18 92  1  0
 20 93  1  0
 22 94  1  0
 23 95  1  0
 23 96  1  0
 26 97  1  0
 26 98  1  0
 26 99  1  0
 28100  1  0
 29101  1  0
 30102  1  0
 31103  1  0
 32104  1  0
 33105  1  0
 34106  1  0
 35107  1  0
 36108  1  0
 37109  1  0
 39110  1  0
 39111  1  0
 39112  1  0
 41113  1  0
 41114  1  0
 41115  1  0
 42116  1  0
 43117  1  0
 43118  1  0
 44119  1  0
 44120  1  0
 45121  1  0
 47122  1  0
 49123  1  0
 50124  1  0
 50125  1  0
 50126  1  0
 51127  1  0
 53128  1  0
 55129  1  0
 56130  1  0
 56131  1  0
 56132  1  0
 57133  1  0
 58134  1  0
 59135  1  0
 60136  1  0
 61137  1  0
 62138  1  0
 63139  1  0
 64140  1  0
 65141  1  0
 66142  1  0
M  END
$$$$
