
     RDKit          3D

 44 47  0  0  0  0  0  0  0  0999 V2000
    2.8034   -2.6999   -0.7979 O   0  0  0  0  0  0  0  0  0  0  0  0
    2.2024   -2.2698    0.4452 S   0  0  0  0  0  6  0  0  0  0  0  0
    2.3494   -3.0993    1.6288 O   0  0  0  0  0  0  0  0  0  0  0  0
    2.8001   -0.6516    0.8821 C   0  0  0  0  0  0  0  0  0  0  0  0
    3.0427   -0.3969    2.2461 C   0  0  0  0  0  0  0  0  0  0  0  0
    3.5502    0.8303    2.6477 C   0  0  0  0  0  0  0  0  0  0  0  0
    3.8275    1.7953    1.6884 C   0  0  0  0  0  0  0  0  0  0  0  0
    3.6001    1.5373    0.3258 C   0  0  0  0  0  0  0  0  0  0  0  0
    3.8946    2.5204   -0.6290 C   0  0  0  0  0  0  0  0  0  0  0  0
    3.6766    2.2729   -1.9759 C   0  0  0  0  0  0  0  0  0  0  0  0
    3.1599    1.0454   -2.3228 C   0  0  0  0  0  0  0  0  0  0  0  0
    2.8534    0.0827   -1.4263 N   0  0  0  0  0  0  0  0  0  0  0  0
    3.0775    0.2950   -0.1093 C   0  0  0  0  0  0  0  0  0  0  0  0
    0.5411   -2.0668    0.2175 N   0  0  0  0  0  0  0  0  0  0  0  0
    0.0797   -1.4158   -1.0345 C   0  0  0  0  0  0  0  0  0  0  0  0
   -1.4574   -1.4540   -1.1390 C   0  0  0  0  0  0  0  0  0  0  0  0
   -2.0895   -0.7633    0.0034 N   0  0  0  0  0  0  0  0  0  0  0  0
   -3.3018   -0.1086   -0.1484 C   0  0  0  0  0  0  0  0  0  0  0  0
   -4.2305   -0.5007   -1.1277 C   0  0  0  0  0  0  0  0  0  0  0  0
   -5.4615    0.1475   -1.2885 C   0  0  0  0  0  0  0  0  0  0  0  0
   -5.7997    1.2134   -0.4650 C   0  0  0  0  0  0  0  0  0  0  0  0
   -4.9075    1.6241    0.5173 C   0  0  0  0  0  0  0  0  0  0  0  0
   -3.6792    0.9678    0.6711 C   0  0  0  0  0  0  0  0  0  0  0  0
   -1.2720   -0.6152    1.2173 C   0  0  0  0  0  0  0  0  0  0  0  0
   -0.3144   -1.8079    1.4080 C   0  0  0  0  0  0  0  0  0  0  0  0
    2.8472   -1.1587    2.9990 H   0  0  0  0  0  0  0  0  0  0  0  0
    3.7408    1.0294    3.6995 H   0  0  0  0  0  0  0  0  0  0  0  0
    4.2326    2.7535    2.0091 H   0  0  0  0  0  0  0  0  0  0  0  0
    4.3017    3.4834   -0.3290 H   0  0  0  0  0  0  0  0  0  0  0  0
    3.9056    3.0160   -2.7309 H   0  0  0  0  0  0  0  0  0  0  0  0
    2.9700    0.7869   -3.3609 H   0  0  0  0  0  0  0  0  0  0  0  0
    0.5047   -1.9333   -1.9002 H   0  0  0  0  0  0  0  0  0  0  0  0
    0.3973   -0.3700   -1.0498 H   0  0  0  0  0  0  0  0  0  0  0  0
   -1.7320   -0.9774   -2.0878 H   0  0  0  0  0  0  0  0  0  0  0  0
   -1.8052   -2.4937   -1.1626 H   0  0  0  0  0  0  0  0  0  0  0  0
   -4.0214   -1.3476   -1.7757 H   0  0  0  0  0  0  0  0  0  0  0  0
   -6.1538   -0.1910   -2.0546 H   0  0  0  0  0  0  0  0  0  0  0  0
   -6.7537    1.7185   -0.5857 H   0  0  0  0  0  0  0  0  0  0  0  0
   -5.1596    2.4575    1.1673 H   0  0  0  0  0  0  0  0  0  0  0  0
   -3.0100    1.3391    1.4413 H   0  0  0  0  0  0  0  0  0  0  0  0
   -0.6948    0.3156    1.1540 H   0  0  0  0  0  0  0  0  0  0  0  0
   -1.9069   -0.5620    2.1098 H   0  0  0  0  0  0  0  0  0  0  0  0
   -0.8971   -2.7192    1.5904 H   0  0  0  0  0  0  0  0  0  0  0  0
    0.2895   -1.6291    2.3027 H   0  0  0  0  0  0  0  0  0  0  0  0
  1  2  2  0
  2  3  2  0
  2  4  1  0
  4  5  2  0
  5  6  1  0
  6  7  2  0
  7  8  1  0
  8  9  2  0
  9 10  1  0
 10 11  2  0
 11 12  1  0
 12 13  2  0
  2 14  1  0
 14 15  1  0
 15 16  1  0
 16 17  1  0
 17 18  1  0
 18 19  2  0
 19 20  1  0
 20 21  2  0
 21 22  1  0
 22 23  2  0
 17 24  1  0
 24 25  1  0
 13  4  1  0
 25 14  1  0
 13  8  1  0
 23 18  1  0
  5 26  1  0
  6 27  1  0
  7 28  1  0
  9 29  1  0
 10 30  1  0
 11 31  1  0
 15 32  1  0
 15 33  1  0
 16 34  1  0
 16 35  1  0
 19 36  1  0
 20 37  1  0
 21 38  1  0
 22 39  1  0
 23 40  1  0
 24 41  1  0
 24 42  1  0
 25 43  1  0
 25 44  1  0
M  END
$$$$
