
     RDKit          3D

 51 53  0  0  0  0  0  0  0  0999 V2000
   -3.7374   -3.1745   -1.4488 C   0  0  0  0  0  0  0  0  0  0  0  0
   -3.8156   -1.8572   -0.7317 C   0  0  0  0  0  0  0  0  0  0  0  0
   -3.7072   -1.8255    0.6665 C   0  0  0  0  0  0  0  0  0  0  0  0
   -3.7443   -0.6173    1.3677 C   0  0  0  0  0  0  0  0  0  0  0  0
   -3.8749    0.5800    0.6784 C   0  0  0  0  0  0  0  0  0  0  0  0
   -3.9059    1.8289    1.2392 O   0  0  0  0  0  0  0  0  0  0  0  0
   -3.2874    2.0016    2.5205 C   0  0  0  0  0  0  0  0  0  0  0  0
   -1.8181    1.9162    2.3718 C   0  0  0  0  0  0  0  0  0  0  0  0
   -0.9061    2.4611    1.5037 C   0  0  0  0  0  0  0  0  0  0  0  0
    0.3460    1.9067    1.8906 C   0  0  0  0  0  0  0  0  0  0  0  0
    1.6369    2.1792    1.2382 C   0  0  0  0  0  0  0  0  0  0  0  0
    1.7611    3.1982    0.5535 O   0  0  0  0  0  0  0  0  0  0  0  0
    2.7037    1.2796    1.3768 N   0  0  0  0  0  0  0  0  0  0  0  0
    2.5943   -0.0419    1.9820 C   0  0  0  0  0  0  0  0  0  0  0  0
    3.9898    1.6352    0.7765 C   0  0  0  0  0  0  0  0  0  0  0  0
    4.0532    1.4037   -0.7406 C   0  0  0  0  0  0  0  0  0  0  0  0
    3.9886   -0.0501   -1.1389 C   0  0  0  0  0  0  0  0  0  0  0  0
    5.1209   -0.8698   -1.0356 C   0  0  0  0  0  0  0  0  0  0  0  0
    5.0532   -2.2172   -1.3925 C   0  0  0  0  0  0  0  0  0  0  0  0
    3.8552   -2.7575   -1.8539 C   0  0  0  0  0  0  0  0  0  0  0  0
    2.7226   -1.9512   -1.9586 C   0  0  0  0  0  0  0  0  0  0  0  0
    2.7894   -0.6033   -1.6038 C   0  0  0  0  0  0  0  0  0  0  0  0
    0.1882    1.1230    2.9735 N   0  0  0  0  0  0  0  0  0  0  0  0
   -1.1641    1.1261    3.2580 O   0  0  0  0  0  0  0  0  0  0  0  0
   -4.0029    0.5589   -0.7126 C   0  0  0  0  0  0  0  0  0  0  0  0
   -3.9623   -0.6473   -1.4324 C   0  0  0  0  0  0  0  0  0  0  0  0
   -4.0775   -0.6132   -2.9314 C   0  0  0  0  0  0  0  0  0  0  0  0
   -3.7700   -4.0125   -0.7410 H   0  0  0  0  0  0  0  0  0  0  0  0
   -2.7954   -3.2436   -2.0135 H   0  0  0  0  0  0  0  0  0  0  0  0
   -4.5829   -3.2939   -2.1339 H   0  0  0  0  0  0  0  0  0  0  0  0
   -3.5906   -2.7500    1.2275 H   0  0  0  0  0  0  0  0  0  0  0  0
   -3.6746   -0.6531    2.4453 H   0  0  0  0  0  0  0  0  0  0  0  0
   -3.5466    3.0094    2.8616 H   0  0  0  0  0  0  0  0  0  0  0  0
   -3.6945    1.3140    3.2699 H   0  0  0  0  0  0  0  0  0  0  0  0
   -1.1035    3.1323    0.6843 H   0  0  0  0  0  0  0  0  0  0  0  0
    3.4138   -0.6869    1.6532 H   0  0  0  0  0  0  0  0  0  0  0  0
    2.6554    0.0678    3.0699 H   0  0  0  0  0  0  0  0  0  0  0  0
    1.6513   -0.5209    1.6960 H   0  0  0  0  0  0  0  0  0  0  0  0
    4.7886    1.0928    1.2979 H   0  0  0  0  0  0  0  0  0  0  0  0
    4.1639    2.7011    0.9658 H   0  0  0  0  0  0  0  0  0  0  0  0
    3.2543    1.9567   -1.2483 H   0  0  0  0  0  0  0  0  0  0  0  0
    4.9900    1.8221   -1.1251 H   0  0  0  0  0  0  0  0  0  0  0  0
    6.0629   -0.4636   -0.6791 H   0  0  0  0  0  0  0  0  0  0  0  0
    5.9363   -2.8464   -1.3122 H   0  0  0  0  0  0  0  0  0  0  0  0
    3.8000   -3.8089   -2.1319 H   0  0  0  0  0  0  0  0  0  0  0  0
    1.7870   -2.3720   -2.3195 H   0  0  0  0  0  0  0  0  0  0  0  0
    1.8955    0.0128   -1.6868 H   0  0  0  0  0  0  0  0  0  0  0  0
   -4.1171    1.5027   -1.2423 H   0  0  0  0  0  0  0  0  0  0  0  0
   -3.1923   -1.0659   -3.3888 H   0  0  0  0  0  0  0  0  0  0  0  0
   -4.1547    0.4170   -3.3082 H   0  0  0  0  0  0  0  0  0  0  0  0
   -4.9764   -1.1497   -3.2567 H   0  0  0  0  0  0  0  0  0  0  0  0
  1  2  1  0
  2  3  2  0
  3  4  1  0
  4  5  2  0
  5  6  1  0
  6  7  1  0
  7  8  1  0
  8  9  2  0
  9 10  1  0
 10 11  1  0
 11 12  2  0
 11 13  1  0
 13 14  1  0
 13 15  1  0
 15 16  1  0
 16 17  1  0
 17 18  2  0
 18 19  1  0
 19 20  2  0
 20 21  1  0
 21 22  2  0
 10 23  2  0
 23 24  1  0
  5 25  1  0
 25 26  2  0
 26 27  1  0
 26  2  1  0
 24  8  1  0
 22 17  1  0
  1 28  1  0
  1 29  1  0
  1 30  1  0
  3 31  1  0
  4 32  1  0
  7 33  1  0
  7 34  1  0
  9 35  1  0
 14 36  1  0
 14 37  1  0
 14 38  1  0
 15 39  1  0
 15 40  1  0
 16 41  1  0
 16 42  1  0
 18 43  1  0
 19 44  1  0
 20 45  1  0
 21 46  1  0
 22 47  1  0
 25 48  1  0
 27 49  1  0
 27 50  1  0
 27 51  1  0
M  END
$$$$
