
     RDKit          3D

 49 51  0  0  0  0  0  0  0  0999 V2000
   -8.5588    0.8035    1.5480 C   0  0  0  0  0  0  0  0  0  0  0  0
   -7.8705    0.0695    0.5429 O   0  0  0  0  0  0  0  0  0  0  0  0
   -6.5507    0.3782    0.3245 C   0  0  0  0  0  0  0  0  0  0  0  0
   -5.8819    1.4541    0.9166 C   0  0  0  0  0  0  0  0  0  0  0  0
   -4.5344    1.6928    0.6316 C   0  0  0  0  0  0  0  0  0  0  0  0
   -3.8354    0.8534   -0.2381 C   0  0  0  0  0  0  0  0  0  0  0  0
   -2.4240    1.0886   -0.5664 C   0  0  0  0  0  0  0  0  0  0  0  0
   -1.3960    1.1086    0.2931 C   0  0  0  0  0  0  0  0  0  0  0  0
   -1.4178    0.8530    1.9927 S   0  0  0  0  0  0  0  0  0  0  0  0
    0.3220    1.0274    2.1280 C   0  0  0  0  0  0  0  0  0  0  0  0
    0.9255    0.8562    3.1744 O   0  0  0  0  0  0  0  0  0  0  0  0
    0.8580    1.3371    0.9074 N   0  0  0  0  0  0  0  0  0  0  0  0
    2.2925    1.5072    0.7323 C   0  0  0  0  0  0  0  0  0  0  0  0
    2.9852    0.1804    0.4359 C   0  0  0  0  0  0  0  0  0  0  0  0
    4.4754    0.3738    0.2337 C   0  0  0  0  0  0  0  0  0  0  0  0
    5.0033    1.4736    0.3469 O   0  0  0  0  0  0  0  0  0  0  0  0
    5.1048   -0.8209   -0.0743 N   0  0  0  0  0  0  0  0  0  0  0  0
    6.4747   -1.0284   -0.3385 C   0  0  0  0  0  0  0  0  0  0  0  0
    7.4336   -0.0138   -0.3451 C   0  0  0  0  0  0  0  0  0  0  0  0
    8.7740   -0.3073   -0.6204 C   0  0  0  0  0  0  0  0  0  0  0  0
    9.1661   -1.6149   -0.8927 C   0  0  0  0  0  0  0  0  0  0  0  0
    8.2184   -2.6342   -0.8893 C   0  0  0  0  0  0  0  0  0  0  0  0
    6.8799   -2.3425   -0.6130 C   0  0  0  0  0  0  0  0  0  0  0  0
    0.0007    1.3335   -0.1684 C   0  0  0  0  0  0  0  0  0  0  0  0
    0.3193    1.4593   -1.3426 O   0  0  0  0  0  0  0  0  0  0  0  0
   -4.5082   -0.2116   -0.8509 C   0  0  0  0  0  0  0  0  0  0  0  0
   -5.8609   -0.4542   -0.5786 C   0  0  0  0  0  0  0  0  0  0  0  0
   -6.5893   -1.4805   -1.1290 O   0  0  0  0  0  0  0  0  0  0  0  0
   -5.9899   -2.2237   -2.1807 C   0  0  0  0  0  0  0  0  0  0  0  0
   -9.5646    0.3824    1.6405 H   0  0  0  0  0  0  0  0  0  0  0  0
   -8.6661    1.8555    1.2620 H   0  0  0  0  0  0  0  0  0  0  0  0
   -8.0661    0.7035    2.5220 H   0  0  0  0  0  0  0  0  0  0  0  0
   -6.3827    2.1325    1.5995 H   0  0  0  0  0  0  0  0  0  0  0  0
   -4.0424    2.5438    1.0970 H   0  0  0  0  0  0  0  0  0  0  0  0
   -2.2316    1.2364   -1.6279 H   0  0  0  0  0  0  0  0  0  0  0  0
    2.7073    1.9543    1.6437 H   0  0  0  0  0  0  0  0  0  0  0  0
    2.4624    2.2134   -0.0893 H   0  0  0  0  0  0  0  0  0  0  0  0
    2.5636   -0.2726   -0.4692 H   0  0  0  0  0  0  0  0  0  0  0  0
    2.8325   -0.5192    1.2660 H   0  0  0  0  0  0  0  0  0  0  0  0
    4.5231   -1.6488   -0.1077 H   0  0  0  0  0  0  0  0  0  0  0  0
    7.1735    1.0205   -0.1435 H   0  0  0  0  0  0  0  0  0  0  0  0
    9.5099    0.4936   -0.6224 H   0  0  0  0  0  0  0  0  0  0  0  0
   10.2083   -1.8379   -1.1073 H   0  0  0  0  0  0  0  0  0  0  0  0
    8.5205   -3.6577   -1.1005 H   0  0  0  0  0  0  0  0  0  0  0  0
    6.1623   -3.1577   -0.6186 H   0  0  0  0  0  0  0  0  0  0  0  0
   -3.9545   -0.8503   -1.5317 H   0  0  0  0  0  0  0  0  0  0  0  0
   -5.7008   -1.5732   -3.0141 H   0  0  0  0  0  0  0  0  0  0  0  0
   -6.7344   -2.9336   -2.5556 H   0  0  0  0  0  0  0  0  0  0  0  0
   -5.1359   -2.8032   -1.8149 H   0  0  0  0  0  0  0  0  0  0  0  0
  1  2  1  0
  2  3  1  0
  3  4  2  0
  4  5  1  0
  5  6  2  0
  6  7  1  0
  7  8  2  3
  8  9  1  0
  9 10  1  0
 10 11  2  0
 10 12  1  0
 12 13  1  0
 13 14  1  0
 14 15  1  0
 15 16  2  0
 15 17  1  0
 17 18  1  0
 18 19  2  0
 19 20  1  0
 20 21  2  0
 21 22  1  0
 22 23  2  0
 12 24  1  0
 24 25  2  0
  6 26  1  0
 26 27  2  0
 27 28  1  0
 28 29  1  0
 27  3  1  0
 24  8  1  0
 23 18  1  0
  1 30  1  0
  1 31  1  0
  1 32  1  0
  4 33  1  0
  5 34  1  0
  7 35  1  0
 13 36  1  0
 13 37  1  0
 14 38  1  0
 14 39  1  0
 17 40  1  0
 19 41  1  0
 20 42  1  0
 21 43  1  0
 22 44  1  0
 23 45  1  0
 26 46  1  0
 29 47  1  0
 29 48  1  0
 29 49  1  0
M  END
$$$$
