
     RDKit          3D

 77 83  0  0  0  0  0  0  0  0999 V2000
   -7.0143   -3.6626   -0.7448 C   0  0  0  0  0  0  0  0  0  0  0  0
   -6.8265   -2.1523   -0.5317 C   0  0  0  0  0  0  0  0  0  0  0  0
   -7.4064   -1.4124   -1.7425 C   0  0  0  0  0  0  0  0  0  0  0  0
   -7.5219   -1.7537    0.7748 C   0  0  0  0  0  0  0  0  0  0  0  0
   -5.3894   -1.9720   -0.4422 O   0  0  0  0  0  0  0  0  0  0  0  0
   -4.8475   -0.7421   -0.2540 C   0  0  0  0  0  0  0  0  0  0  0  0
   -5.4941    0.2917   -0.1430 O   0  0  0  0  0  0  0  0  0  0  0  0
   -3.4642   -0.7847   -0.2010 N   0  0  0  0  0  0  0  0  0  0  0  0
   -2.7110   -1.9943   -0.5889 C   0  0  0  0  0  0  0  0  0  0  0  0
   -1.2475   -2.0206   -0.0756 C   0  0  0  0  0  0  0  0  0  0  0  0
   -0.6247   -0.7384   -0.3534 N   0  0  0  0  0  0  0  0  0  0  0  0
   -1.3536    0.3627    0.3516 C   0  0  2  0  0  0  0  0  0  0  0  0
   -2.7385    0.4959   -0.2676 C   0  0  0  0  0  0  0  0  0  0  0  0
   -0.3807    1.4656    0.1961 C   0  0  0  0  0  0  0  0  0  0  0  0
    0.8933    0.9345   -0.0687 C   0  0  0  0  0  0  0  0  0  0  0  0
    1.7965    1.9611   -0.0929 C   0  0  0  0  0  0  0  0  0  0  0  0
    3.1250    1.8824   -0.1486 O   0  0  0  0  0  0  0  0  0  0  0  0
    1.0639    3.1624    0.0179 N   0  0  0  0  0  0  0  0  0  0  0  0
    1.6006    4.4819   -0.1327 C   0  0  0  0  0  0  0  0  0  0  0  0
    2.6719    4.7082   -1.0119 C   0  0  0  0  0  0  0  0  0  0  0  0
    3.2031    5.9917   -1.1633 C   0  0  0  0  0  0  0  0  0  0  0  0
    2.6687    7.0581   -0.4444 C   0  0  0  0  0  0  0  0  0  0  0  0
    1.5965    6.8448    0.4190 C   0  0  0  0  0  0  0  0  0  0  0  0
    1.0589    5.5635    0.5720 C   0  0  0  0  0  0  0  0  0  0  0  0
   -0.2812    2.8285    0.2874 C   0  0  0  0  0  0  0  0  0  0  0  0
   -1.2181    3.7436    0.5206 O   0  0  0  0  0  0  0  0  0  0  0  0
    0.8311   -0.5485   -0.1387 C   0  0  1  0  0  0  0  0  0  0  0  0
    1.4044   -1.2399    1.1225 C   0  0  0  0  0  0  0  0  0  0  0  0
    0.9799   -1.1636    2.2692 O   0  0  0  0  0  0  0  0  0  0  0  0
    2.5015   -2.0046    0.6908 N   0  0  0  0  0  0  0  0  0  0  0  0
    3.3578   -2.7410    1.5895 C   0  0  0  0  0  0  0  0  0  0  0  0
    4.5577   -1.9408    2.0434 C   0  0  0  0  0  0  0  0  0  0  0  0
    4.3965   -0.8571    2.9214 C   0  0  0  0  0  0  0  0  0  0  0  0
    5.4987   -0.1104    3.3408 C   0  0  0  0  0  0  0  0  0  0  0  0
    6.7755   -0.4381    2.8898 C   0  0  0  0  0  0  0  0  0  0  0  0
    6.9502   -1.5127    2.0197 C   0  0  0  0  0  0  0  0  0  0  0  0
    5.8484   -2.2608    1.5974 C   0  0  0  0  0  0  0  0  0  0  0  0
    2.6866   -1.8888   -0.6973 C   0  0  0  0  0  0  0  0  0  0  0  0
    3.6401   -2.4937   -1.4962 C   0  0  0  0  0  0  0  0  0  0  0  0
    3.5995   -2.2458   -2.8720 C   0  0  0  0  0  0  0  0  0  0  0  0
    2.6173   -1.4073   -3.4242 C   0  0  0  0  0  0  0  0  0  0  0  0
    1.6613   -0.8006   -2.6084 C   0  0  0  0  0  0  0  0  0  0  0  0
    1.7101   -1.0454   -1.2428 C   0  0  0  0  0  0  0  0  0  0  0  0
   -8.0717   -3.9331   -0.8363 H   0  0  0  0  0  0  0  0  0  0  0  0
   -6.5826   -4.2297    0.0881 H   0  0  0  0  0  0  0  0  0  0  0  0
   -6.4924   -3.9976   -1.6492 H   0  0  0  0  0  0  0  0  0  0  0  0
   -6.8328   -1.6402   -2.6481 H   0  0  0  0  0  0  0  0  0  0  0  0
   -8.4527   -1.6864   -1.9146 H   0  0  0  0  0  0  0  0  0  0  0  0
   -7.3717   -0.3264   -1.6139 H   0  0  0  0  0  0  0  0  0  0  0  0
   -7.4911   -0.6732    0.9417 H   0  0  0  0  0  0  0  0  0  0  0  0
   -7.0288   -2.2198    1.6357 H   0  0  0  0  0  0  0  0  0  0  0  0
   -8.5759   -2.0536    0.7737 H   0  0  0  0  0  0  0  0  0  0  0  0
   -3.2309   -2.8889   -0.2305 H   0  0  0  0  0  0  0  0  0  0  0  0
   -2.7187   -2.0259   -1.6859 H   0  0  0  0  0  0  0  0  0  0  0  0
   -0.7145   -2.8342   -0.5802 H   0  0  0  0  0  0  0  0  0  0  0  0
   -1.2468   -2.2378    0.9990 H   0  0  0  0  0  0  0  0  0  0  0  0
   -1.4478    0.1283    1.4219 H   0  0  0  0  0  0  0  0  0  0  0  0
   -2.6817    0.7857   -1.3247 H   0  0  0  0  0  0  0  0  0  0  0  0
   -3.3094    1.2758    0.2485 H   0  0  0  0  0  0  0  0  0  0  0  0
    3.5041    2.6957    0.2304 H   0  0  0  0  0  0  0  0  0  0  0  0
    3.0763    3.9095   -1.6312 H   0  0  0  0  0  0  0  0  0  0  0  0
    4.0243    6.1611   -1.8552 H   0  0  0  0  0  0  0  0  0  0  0  0
    3.0803    8.0570   -0.5646 H   0  0  0  0  0  0  0  0  0  0  0  0
    1.1750    7.6771    0.9773 H   0  0  0  0  0  0  0  0  0  0  0  0
    0.2388    5.4329    1.2726 H   0  0  0  0  0  0  0  0  0  0  0  0
   -2.0658    3.2867    0.6564 H   0  0  0  0  0  0  0  0  0  0  0  0
    2.7788   -3.0273    2.4764 H   0  0  0  0  0  0  0  0  0  0  0  0
    3.6648   -3.6789    1.1125 H   0  0  0  0  0  0  0  0  0  0  0  0
    3.4051   -0.5867    3.2828 H   0  0  0  0  0  0  0  0  0  0  0  0
    5.3576    0.7287    4.0173 H   0  0  0  0  0  0  0  0  0  0  0  0
    7.6332    0.1444    3.2168 H   0  0  0  0  0  0  0  0  0  0  0  0
    7.9465   -1.7673    1.6672 H   0  0  0  0  0  0  0  0  0  0  0  0
    6.0084   -3.0940    0.9176 H   0  0  0  0  0  0  0  0  0  0  0  0
    4.4033   -3.1452   -1.0891 H   0  0  0  0  0  0  0  0  0  0  0  0
    4.3378   -2.7065   -3.5243 H   0  0  0  0  0  0  0  0  0  0  0  0
    2.6037   -1.2266   -4.4967 H   0  0  0  0  0  0  0  0  0  0  0  0
    0.9016   -0.1484   -3.0285 H   0  0  0  0  0  0  0  0  0  0  0  0
  1  2  1  0
  2  3  1  0
  2  4  1  0
  2  5  1  0
  5  6  1  0
  6  7  2  0
  6  8  1  0
  8  9  1  0
  9 10  1  0
 10 11  1  0
 11 12  1  0
 12 13  1  0
 12 14  1  0
 14 15  1  0
 15 16  2  0
 16 17  1  0
 16 18  1  0
 18 19  1  0
 19 20  2  0
 20 21  1  0
 21 22  2  0
 22 23  1  0
 23 24  2  0
 18 25  1  0
 25 26  1  0
 15 27  1  0
 27 28  1  0
 28 29  2  0
 28 30  1  0
 30 31  1  0
 31 32  1  0
 32 33  2  0
 33 34  1  0
 34 35  2  0
 35 36  1  0
 36 37  2  0
 30 38  1  0
 38 39  2  0
 39 40  1  0
 40 41  2  0
 41 42  1  0
 42 43  2  0
 13  8  1  0
 25 14  2  0
 43 27  1  0
 27 11  1  6
 37 32  1  0
 43 38  1  0
 24 19  1  0
  1 44  1  0
  1 45  1  0
  1 46  1  0
  3 47  1  0
  3 48  1  0
  3 49  1  0
  4 50  1  0
  4 51  1  0
  4 52  1  0
  9 53  1  0
  9 54  1  0
 10 55  1  0
 10 56  1  0
 12 57  1  1
 13 58  1  0
 13 59  1  0
 17 60  1  0
 20 61  1  0
 21 62  1  0
 22 63  1  0
 23 64  1  0
 24 65  1  0
 26 66  1  0
 31 67  1  0
 31 68  1  0
 33 69  1  0
 34 70  1  0
 35 71  1  0
 36 72  1  0
 37 73  1  0
 39 74  1  0
 40 75  1  0
 41 76  1  0
 42 77  1  0
M  END
$$$$
