
     RDKit          3D

 43 46  0  0  0  0  0  0  0  0999 V2000
    7.6777    1.2345   -0.4777 C   0  0  0  0  0  0  0  0  0  0  0  0
    6.2913    0.9485    0.0204 C   0  0  0  0  0  0  0  0  0  0  0  0
    5.1741    1.3425   -0.7267 C   0  0  0  0  0  0  0  0  0  0  0  0
    3.8812    1.1082   -0.2490 C   0  0  0  0  0  0  0  0  0  0  0  0
    3.6949    0.4764    0.9871 C   0  0  0  0  0  0  0  0  0  0  0  0
    2.3360    0.2039    1.5383 C   0  0  0  0  0  0  0  0  0  0  0  0
    2.1858    0.2426    2.7528 O   0  0  0  0  0  0  0  0  0  0  0  0
    1.3877   -0.1049    0.5961 N   0  0  0  0  0  0  0  0  0  0  0  0
    0.0528   -0.3823    0.8407 C   0  0  0  0  0  0  0  0  0  0  0  0
   -0.4786   -0.3027    2.0638 N   0  0  0  0  0  0  0  0  0  0  0  0
   -1.7903   -0.5944    2.1887 C   0  0  0  0  0  0  0  0  0  0  0  0
   -2.5824   -0.9536    1.1251 C   0  0  0  0  0  0  0  0  0  0  0  0
   -1.9603   -0.9973   -0.1049 C   0  0  0  0  0  0  0  0  0  0  0  0
   -0.6437   -0.7179   -0.2618 N   0  0  0  0  0  0  0  0  0  0  0  0
   -2.7225   -1.3826   -1.3445 C   0  0  0  0  0  0  0  0  0  0  0  0
   -4.2196   -1.0742   -1.2345 C   0  0  0  0  0  0  0  0  0  0  0  0
   -4.5412    0.3853   -1.3650 C   0  0  0  0  0  0  0  0  0  0  0  0
   -3.8241    1.5625   -1.2756 C   0  0  0  0  0  0  0  0  0  0  0  0
   -4.7465    2.6140   -1.4987 C   0  0  0  0  0  0  0  0  0  0  0  0
   -5.9639    2.0162   -1.7157 C   0  0  0  0  0  0  0  0  0  0  0  0
   -5.8484    0.6669   -1.6411 O   0  0  0  0  0  0  0  0  0  0  0  0
   -4.7962   -1.6613    0.0571 C   0  0  0  0  0  0  0  0  0  0  0  0
   -4.0091   -1.2680    1.2879 C   0  0  0  0  0  0  0  0  0  0  0  0
   -4.5076   -1.2698    2.4091 O   0  0  0  0  0  0  0  0  0  0  0  0
    4.8094    0.1119    1.7509 C   0  0  0  0  0  0  0  0  0  0  0  0
    6.0995    0.3466    1.2698 C   0  0  0  0  0  0  0  0  0  0  0  0
    8.0025    2.2215   -0.1342 H   0  0  0  0  0  0  0  0  0  0  0  0
    7.7117    1.2112   -1.5720 H   0  0  0  0  0  0  0  0  0  0  0  0
    8.3858    0.4821   -0.1149 H   0  0  0  0  0  0  0  0  0  0  0  0
    5.3061    1.8454   -1.6828 H   0  0  0  0  0  0  0  0  0  0  0  0
    3.0370    1.4552   -0.8378 H   0  0  0  0  0  0  0  0  0  0  0  0
    1.6399   -0.2275   -0.3703 H   0  0  0  0  0  0  0  0  0  0  0  0
   -2.1840   -0.5258    3.1997 H   0  0  0  0  0  0  0  0  0  0  0  0
   -2.2885   -0.8798   -2.2177 H   0  0  0  0  0  0  0  0  0  0  0  0
   -2.5843   -2.4614   -1.4924 H   0  0  0  0  0  0  0  0  0  0  0  0
   -4.7155   -1.5729   -2.0793 H   0  0  0  0  0  0  0  0  0  0  0  0
   -2.7665    1.6665   -1.0744 H   0  0  0  0  0  0  0  0  0  0  0  0
   -4.5486    3.6767   -1.5011 H   0  0  0  0  0  0  0  0  0  0  0  0
   -6.9564    2.3902   -1.9257 H   0  0  0  0  0  0  0  0  0  0  0  0
   -5.8347   -1.3392    0.1982 H   0  0  0  0  0  0  0  0  0  0  0  0
   -4.7882   -2.7570    0.0064 H   0  0  0  0  0  0  0  0  0  0  0  0
    4.6745   -0.3546    2.7252 H   0  0  0  0  0  0  0  0  0  0  0  0
    6.9533    0.0599    1.8805 H   0  0  0  0  0  0  0  0  0  0  0  0
  1  2  1  0
  2  3  2  0
  3  4  1  0
  4  5  2  0
  5  6  1  0
  6  7  2  0
  6  8  1  0
  8  9  1  0
  9 10  2  0
 10 11  1  0
 11 12  2  0
 12 13  1  0
 13 14  2  0
 13 15  1  0
 15 16  1  0
 16 17  1  0
 17 18  2  0
 18 19  1  0
 19 20  2  0
 20 21  1  0
 16 22  1  0
 22 23  1  0
 23 24  2  0
  5 25  1  0
 25 26  2  0
 26  2  1  0
 14  9  1  0
 21 17  1  0
 23 12  1  0
  1 27  1  0
  1 28  1  0
  1 29  1  0
  3 30  1  0
  4 31  1  0
  8 32  1  0
 11 33  1  0
 15 34  1  0
 15 35  1  0
 16 36  1  0
 18 37  1  0
 19 38  1  0
 20 39  1  0
 22 40  1  0
 22 41  1  0
 25 42  1  0
 26 43  1  0
M  END
$$$$
