
     RDKit          3D

 37 38  0  0  0  0  0  0  0  0999 V2000
    7.0044   -0.8512   -1.0333 C   0  0  0  0  0  0  0  0  0  0  0  0
    6.1132    0.2403   -1.2242 O   0  0  0  0  0  0  0  0  0  0  0  0
    4.8999    0.1688   -0.5995 C   0  0  0  0  0  0  0  0  0  0  0  0
    4.0594    1.2593   -0.8307 C   0  0  0  0  0  0  0  0  0  0  0  0
    2.7886    1.3153   -0.2526 C   0  0  0  0  0  0  0  0  0  0  0  0
    2.3400    0.2730    0.5660 C   0  0  0  0  0  0  0  0  0  0  0  0
    0.9765    0.3763    1.1646 C   0  0  0  0  0  0  0  0  0  0  0  0
    0.3683    1.4438    1.1108 O   0  0  0  0  0  0  0  0  0  0  0  0
    0.3864   -0.8287    1.8498 C   0  0  0  0  0  0  0  0  0  0  0  0
   -1.0901   -0.6865    2.0779 C   0  0  0  0  0  0  0  0  0  0  0  0
   -1.6266   -0.7093    3.1822 O   0  0  0  0  0  0  0  0  0  0  0  0
   -1.9610   -0.5464    0.8295 C   0  0  0  0  0  0  0  0  0  0  0  0
   -1.5011   -0.8964   -0.2462 O   0  0  0  0  0  0  0  0  0  0  0  0
   -3.2115   -0.0485    1.1269 N   0  0  0  0  0  0  0  0  0  0  0  0
   -4.2667    0.2166    0.2388 C   0  0  0  0  0  0  0  0  0  0  0  0
   -5.4626    0.6959    0.7893 C   0  0  0  0  0  0  0  0  0  0  0  0
   -6.5588    0.9834   -0.0298 C   0  0  0  0  0  0  0  0  0  0  0  0
   -6.4616    0.7933   -1.4051 C   0  0  0  0  0  0  0  0  0  0  0  0
   -7.8079    1.1453   -2.4157 Cl  0  0  0  0  0  0  0  0  0  0  0  0
   -5.2782    0.3199   -1.9647 C   0  0  0  0  0  0  0  0  0  0  0  0
   -4.1819    0.0324   -1.1434 C   0  0  0  0  0  0  0  0  0  0  0  0
    3.1833   -0.8185    0.8039 C   0  0  0  0  0  0  0  0  0  0  0  0
    4.4577   -0.8692    0.2212 C   0  0  0  0  0  0  0  0  0  0  0  0
    7.2838   -0.9523    0.0207 H   0  0  0  0  0  0  0  0  0  0  0  0
    7.9162   -0.6418   -1.6008 H   0  0  0  0  0  0  0  0  0  0  0  0
    6.5772   -1.7821   -1.4205 H   0  0  0  0  0  0  0  0  0  0  0  0
    4.3960    2.0745   -1.4676 H   0  0  0  0  0  0  0  0  0  0  0  0
    2.1529    2.1769   -0.4496 H   0  0  0  0  0  0  0  0  0  0  0  0
    0.8737   -0.9481    2.8234 H   0  0  0  0  0  0  0  0  0  0  0  0
    0.5458   -1.7351    1.2576 H   0  0  0  0  0  0  0  0  0  0  0  0
   -3.3716    0.1255    2.1168 H   0  0  0  0  0  0  0  0  0  0  0  0
   -5.5586    0.8523    1.8611 H   0  0  0  0  0  0  0  0  0  0  0  0
   -7.4799    1.3543    0.4115 H   0  0  0  0  0  0  0  0  0  0  0  0
   -5.1959    0.1723   -3.0384 H   0  0  0  0  0  0  0  0  0  0  0  0
   -3.2745   -0.3300   -1.6171 H   0  0  0  0  0  0  0  0  0  0  0  0
    2.8842   -1.6427    1.4448 H   0  0  0  0  0  0  0  0  0  0  0  0
    5.0808   -1.7328    0.4312 H   0  0  0  0  0  0  0  0  0  0  0  0
  1  2  1  0
  2  3  1  0
  3  4  2  0
  4  5  1  0
  5  6  2  0
  6  7  1  0
  7  8  2  0
  7  9  1  0
  9 10  1  0
 10 11  2  0
 10 12  1  0
 12 13  2  0
 12 14  1  0
 14 15  1  0
 15 16  2  0
 16 17  1  0
 17 18  2  0
 18 19  1  0
 18 20  1  0
 20 21  2  0
  6 22  1  0
 22 23  2  0
 23  3  1  0
 21 15  1  0
  1 24  1  0
  1 25  1  0
  1 26  1  0
  4 27  1  0
  5 28  1  0
  9 29  1  0
  9 30  1  0
 14 31  1  0
 16 32  1  0
 17 33  1  0
 20 34  1  0
 21 35  1  0
 22 36  1  0
 23 37  1  0
M  END
$$$$
