
     RDKit          3D

 40 43  0  0  0  0  0  0  0  0999 V2000
   -1.0131    1.6036    2.8756 C   0  0  0  0  0  0  0  0  0  0  0  0
   -2.4361    1.3839    2.5142 C   0  0  0  0  0  0  0  0  0  0  0  0
   -3.4057    1.9011    3.3692 N   0  0  0  0  0  0  0  0  0  0  0  0
   -4.6296    1.6880    2.9188 N   0  0  0  0  0  0  0  0  0  0  0  0
   -4.6513    0.8779    1.4576 S   0  0  0  0  0  0  0  0  0  0  0  0
   -2.9438    0.7256    1.4028 C   0  0  0  0  0  0  0  0  0  0  0  0
   -2.2852    0.0474    0.3412 C   0  0  0  0  0  0  0  0  0  0  0  0
   -2.4092    0.3570   -0.9360 N   0  0  0  0  0  0  0  0  0  0  0  0
   -1.5841   -0.4770   -1.6620 N   0  0  0  0  0  0  0  0  0  0  0  0
   -0.9923   -1.2874   -0.8142 C   0  0  0  0  0  0  0  0  0  0  0  0
    0.1973   -2.4621   -1.2496 S   0  0  0  0  0  0  0  0  0  0  0  0
    1.7026   -1.8014   -0.4905 C   0  0  0  0  0  0  0  0  0  0  0  0
    1.7562   -0.2889   -0.4948 C   0  0  0  0  0  0  0  0  0  0  0  0
    1.4560    0.3401    0.5233 O   0  0  0  0  0  0  0  0  0  0  0  0
    2.1608    0.4552   -1.7285 C   0  0  0  0  0  0  0  0  0  0  0  0
    2.5104   -0.1850   -2.9237 C   0  0  0  0  0  0  0  0  0  0  0  0
    2.8758    0.5690   -4.0465 C   0  0  0  0  0  0  0  0  0  0  0  0
    2.8951    1.9662   -3.9864 C   0  0  0  0  0  0  0  0  0  0  0  0
    3.2729    2.7323   -5.1383 C   0  0  0  0  0  0  0  0  0  0  0  0
    3.5886    3.3472   -6.0705 N   0  0  0  0  0  0  0  0  0  0  0  0
    2.5456    2.6093   -2.7968 C   0  0  0  0  0  0  0  0  0  0  0  0
    2.1803    1.8575   -1.6753 C   0  0  0  0  0  0  0  0  0  0  0  0
   -1.4415   -1.0290    0.4510 N   0  0  0  0  0  0  0  0  0  0  0  0
   -1.0634   -1.7333    1.6976 C   0  0  0  0  0  0  0  0  0  0  0  0
   -2.0857   -2.2557    2.6822 C   0  0  0  0  0  0  0  0  0  0  0  0
   -1.2657   -3.2201    1.8833 C   0  0  0  0  0  0  0  0  0  0  0  0
   -0.6270    0.7508    3.4410 H   0  0  0  0  0  0  0  0  0  0  0  0
   -0.3958    1.7465    1.9841 H   0  0  0  0  0  0  0  0  0  0  0  0
   -0.9073    2.4982    3.4978 H   0  0  0  0  0  0  0  0  0  0  0  0
    1.7477   -2.1383    0.5512 H   0  0  0  0  0  0  0  0  0  0  0  0
    2.5899   -2.2186   -0.9755 H   0  0  0  0  0  0  0  0  0  0  0  0
    2.4985   -1.2663   -3.0244 H   0  0  0  0  0  0  0  0  0  0  0  0
    3.1387    0.0560   -4.9710 H   0  0  0  0  0  0  0  0  0  0  0  0
    2.5488    3.6963   -2.7326 H   0  0  0  0  0  0  0  0  0  0  0  0
    1.9030    2.3781   -0.7595 H   0  0  0  0  0  0  0  0  0  0  0  0
   -0.1550   -1.3170    2.1266 H   0  0  0  0  0  0  0  0  0  0  0  0
   -3.1421   -2.1877    2.4459 H   0  0  0  0  0  0  0  0  0  0  0  0
   -1.8687   -2.1549    3.7404 H   0  0  0  0  0  0  0  0  0  0  0  0
   -1.7734   -3.7861    1.1094 H   0  0  0  0  0  0  0  0  0  0  0  0
   -0.4924   -3.7785    2.3994 H   0  0  0  0  0  0  0  0  0  0  0  0
  1  2  1  0
  2  3  1  0
  3  4  2  0
  4  5  1  0
  5  6  1  0
  6  7  1  0
  7  8  2  0
  8  9  1  0
  9 10  2  0
 10 11  1  0
 11 12  1  0
 12 13  1  0
 13 14  2  0
 13 15  1  0
 15 16  2  0
 16 17  1  0
 17 18  2  0
 18 19  1  0
 19 20  3  0
 18 21  1  0
 21 22  2  0
 10 23  1  0
 23 24  1  0
 24 25  1  0
 25 26  1  0
  6  2  2  0
 23  7  1  0
 26 24  1  0
 22 15  1  0
  1 27  1  0
  1 28  1  0
  1 29  1  0
 12 30  1  0
 12 31  1  0
 16 32  1  0
 17 33  1  0
 21 34  1  0
 22 35  1  0
 24 36  1  0
 25 37  1  0
 25 38  1  0
 26 39  1  0
 26 40  1  0
M  END
$$$$
