
     RDKit          3D

 56 59  0  0  0  0  0  0  0  0999 V2000
   -2.1695    4.8565    1.2206 C   0  0  0  0  0  0  0  0  0  0  0  0
   -1.6368    3.8179    2.1896 C   0  0  0  0  0  0  0  0  0  0  0  0
   -1.5989    2.5282    1.5576 O   0  0  0  0  0  0  0  0  0  0  0  0
   -2.7555    1.7945    1.6320 C   0  0  0  0  0  0  0  0  0  0  0  0
   -3.7693    2.1929    2.1931 O   0  0  0  0  0  0  0  0  0  0  0  0
   -2.6572    0.4854    0.9711 C   0  0  0  0  0  0  0  0  0  0  0  0
   -1.5158   -0.0154    0.3478 C   0  0  0  0  0  0  0  0  0  0  0  0
   -0.2907    0.6257    0.2190 N   0  0  0  0  0  0  0  0  0  0  0  0
    0.8697    0.1464   -0.3838 C   0  0  0  0  0  0  0  0  0  0  0  0
    1.0237   -0.9466   -0.9195 O   0  0  0  0  0  0  0  0  0  0  0  0
    1.9844    1.2022   -0.3241 C   0  0  0  0  0  0  0  0  0  0  0  0
    3.2498    0.6840   -0.8191 N   0  0  0  0  0  0  0  0  0  0  0  0
    3.5618    0.9611   -2.1304 N   0  0  0  0  0  0  0  0  0  0  0  0
    4.6450    0.4439   -2.6302 C   0  0  0  0  0  0  0  0  0  0  0  0
    4.9570    0.7810   -4.0777 C   0  0  0  0  0  0  0  0  0  0  0  0
    4.9152   -0.0120   -4.9948 O   0  0  0  0  0  0  0  0  0  0  0  0
    5.3313    2.0563   -4.2220 O   0  0  0  0  0  0  0  0  0  0  0  0
    5.5659   -0.4228   -1.8828 C   0  0  0  0  0  0  0  0  0  0  0  0
    6.7161   -0.9867   -2.4490 C   0  0  0  0  0  0  0  0  0  0  0  0
    7.5506   -1.7931   -1.6702 C   0  0  0  0  0  0  0  0  0  0  0  0
    7.2416   -2.0369   -0.3325 C   0  0  0  0  0  0  0  0  0  0  0  0
    6.0952   -1.4762    0.2307 C   0  0  0  0  0  0  0  0  0  0  0  0
    5.2577   -0.6682   -0.5489 C   0  0  0  0  0  0  0  0  0  0  0  0
    4.0407   -0.0763    0.0368 C   0  0  0  0  0  0  0  0  0  0  0  0
    3.7809   -0.2603    1.2238 O   0  0  0  0  0  0  0  0  0  0  0  0
   -1.7510   -1.5742   -0.2850 S   0  0  0  0  0  0  0  0  0  0  0  0
   -3.3564   -1.6334    0.2441 C   0  0  0  0  0  0  0  0  0  0  0  0
   -3.7451   -0.4730    0.8830 C   0  0  0  0  0  0  0  0  0  0  0  0
   -5.1359   -0.3124    1.4356 C   0  0  0  0  0  0  0  0  0  0  0  0
   -6.0999   -1.3890    0.9104 C   0  0  0  0  0  0  0  0  0  0  0  0
   -5.4850   -2.8033    0.8808 C   0  0  0  0  0  0  0  0  0  0  0  0
   -5.1907   -3.3248    2.2909 C   0  0  0  0  0  0  0  0  0  0  0  0
   -4.2229   -2.8304   -0.0083 C   0  0  0  0  0  0  0  0  0  0  0  0
   -2.1441    5.8540    1.6682 H   0  0  0  0  0  0  0  0  0  0  0  0
   -1.5736    4.8659    0.3019 H   0  0  0  0  0  0  0  0  0  0  0  0
   -3.2001    4.6303    0.9290 H   0  0  0  0  0  0  0  0  0  0  0  0
   -0.6066    4.0671    2.4644 H   0  0  0  0  0  0  0  0  0  0  0  0
   -2.2192    3.7942    3.1175 H   0  0  0  0  0  0  0  0  0  0  0  0
   -0.2541    1.5511    0.6357 H   0  0  0  0  0  0  0  0  0  0  0  0
    1.6886    2.0655   -0.9307 H   0  0  0  0  0  0  0  0  0  0  0  0
    2.1096    1.5281    0.7147 H   0  0  0  0  0  0  0  0  0  0  0  0
    5.4543    2.1705   -5.1865 H   0  0  0  0  0  0  0  0  0  0  0  0
    6.9798   -0.8249   -3.4909 H   0  0  0  0  0  0  0  0  0  0  0  0
    8.4414   -2.2375   -2.1096 H   0  0  0  0  0  0  0  0  0  0  0  0
    7.8891   -2.6689    0.2711 H   0  0  0  0  0  0  0  0  0  0  0  0
    5.8518   -1.6743    1.2729 H   0  0  0  0  0  0  0  0  0  0  0  0
   -5.0883   -0.3637    2.5300 H   0  0  0  0  0  0  0  0  0  0  0  0
   -5.5397    0.6705    1.1686 H   0  0  0  0  0  0  0  0  0  0  0  0
   -7.0154   -1.3834    1.5136 H   0  0  0  0  0  0  0  0  0  0  0  0
   -6.4008   -1.1230   -0.1120 H   0  0  0  0  0  0  0  0  0  0  0  0
   -6.2218   -3.4850    0.4355 H   0  0  0  0  0  0  0  0  0  0  0  0
   -6.0934   -3.2940    2.9099 H   0  0  0  0  0  0  0  0  0  0  0  0
   -4.4140   -2.7426    2.7958 H   0  0  0  0  0  0  0  0  0  0  0  0
   -4.8511   -4.3654    2.2499 H   0  0  0  0  0  0  0  0  0  0  0  0
   -3.6670   -3.7621    0.1526 H   0  0  0  0  0  0  0  0  0  0  0  0
   -4.5315   -2.8136   -1.0617 H   0  0  0  0  0  0  0  0  0  0  0  0
  1  2  1  0
  2  3  1  0
  3  4  1  0
  4  5  2  0
  4  6  1  0
  6  7  2  0
  7  8  1  0
  8  9  1  0
  9 10  2  0
  9 11  1  0
 11 12  1  0
 12 13  1  0
 13 14  2  0
 14 15  1  0
 15 16  2  0
 15 17  1  0
 14 18  1  0
 18 19  2  0
 19 20  1  0
 20 21  2  0
 21 22  1  0
 22 23  2  0
 23 24  1  0
 24 25  2  0
  7 26  1  0
 26 27  1  0
 27 28  2  0
 28 29  1  0
 29 30  1  0
 30 31  1  0
 31 32  1  0
 31 33  1  0
 28  6  1  0
 24 12  1  0
 33 27  1  0
 23 18  1  0
  1 34  1  0
  1 35  1  0
  1 36  1  0
  2 37  1  0
  2 38  1  0
  8 39  1  0
 11 40  1  0
 11 41  1  0
 17 42  1  0
 19 43  1  0
 20 44  1  0
 21 45  1  0
 22 46  1  0
 29 47  1  0
 29 48  1  0
 30 49  1  0
 30 50  1  0
 31 51  1  0
 32 52  1  0
 32 53  1  0
 32 54  1  0
 33 55  1  0
 33 56  1  0
M  END
$$$$
