
     RDKit          3D

 52 55  0  0  0  0  0  0  0  0999 V2000
    8.5991    1.1270   -0.6510 C   0  0  0  0  0  0  0  0  0  0  0  0
    8.3947   -0.3056   -0.1833 C   0  0  0  0  0  0  0  0  0  0  0  0
    7.4507   -0.3661    0.8843 O   0  0  0  0  0  0  0  0  0  0  0  0
    6.1173   -0.3089    0.5920 C   0  0  0  0  0  0  0  0  0  0  0  0
    5.5383   -0.4296   -0.6675 C   0  0  0  0  0  0  0  0  0  0  0  0
    4.1454   -0.3492   -0.8144 C   0  0  0  0  0  0  0  0  0  0  0  0
    3.3117   -0.1501    0.2945 C   0  0  0  0  0  0  0  0  0  0  0  0
    1.9212   -0.0885    0.0568 N   0  0  0  0  0  0  0  0  0  0  0  0
    0.9303    0.2548    0.9524 C   0  0  0  0  0  0  0  0  0  0  0  0
    1.1360    0.6344    2.1020 O   0  0  0  0  0  0  0  0  0  0  0  0
   -0.3726    0.1405    0.4534 N   0  0  0  0  0  0  0  0  0  0  0  0
   -1.4813    0.4863    1.3404 C   0  0  0  0  0  0  0  0  0  0  0  0
   -2.5612   -0.5906    1.3447 C   0  0  0  0  0  0  0  0  0  0  0  0
   -2.9774   -1.0184   -0.0728 C   0  0  0  0  0  0  0  0  0  0  0  0
   -4.4148   -1.0138   -0.2749 N   0  0  0  0  0  0  0  0  0  0  0  0
   -5.1749   -2.1690   -0.5750 C   0  0  0  0  0  0  0  0  0  0  0  0
   -4.7732   -3.3111   -0.7226 O   0  0  0  0  0  0  0  0  0  0  0  0
   -6.5102   -1.7582   -0.6755 N   0  0  0  0  0  0  0  0  0  0  0  0
   -6.5800   -0.3907   -0.4490 C   0  0  0  0  0  0  0  0  0  0  0  0
   -7.6889    0.4255   -0.4504 C   0  0  0  0  0  0  0  0  0  0  0  0
   -7.4742    1.7814   -0.1874 C   0  0  0  0  0  0  0  0  0  0  0  0
   -6.1754    2.2755    0.0613 C   0  0  0  0  0  0  0  0  0  0  0  0
   -5.0645    1.4216    0.0556 C   0  0  0  0  0  0  0  0  0  0  0  0
   -5.2892    0.0850   -0.2038 C   0  0  0  0  0  0  0  0  0  0  0  0
   -2.2241   -0.2683   -1.1764 C   0  0  0  0  0  0  0  0  0  0  0  0
   -0.7229   -0.2944   -0.9000 C   0  0  0  0  0  0  0  0  0  0  0  0
    3.8974   -0.0355    1.5530 C   0  0  0  0  0  0  0  0  0  0  0  0
    5.2882   -0.1139    1.6966 C   0  0  0  0  0  0  0  0  0  0  0  0
    9.4086    1.1889   -1.3841 H   0  0  0  0  0  0  0  0  0  0  0  0
    8.8475    1.7734    0.1988 H   0  0  0  0  0  0  0  0  0  0  0  0
    7.6908    1.5313   -1.1072 H   0  0  0  0  0  0  0  0  0  0  0  0
    8.1424   -0.9861   -1.0068 H   0  0  0  0  0  0  0  0  0  0  0  0
    9.3430   -0.6726    0.2256 H   0  0  0  0  0  0  0  0  0  0  0  0
    6.1317   -0.5930   -1.5589 H   0  0  0  0  0  0  0  0  0  0  0  0
    3.7273   -0.4476   -1.8130 H   0  0  0  0  0  0  0  0  0  0  0  0
    1.6439   -0.2272   -0.8980 H   0  0  0  0  0  0  0  0  0  0  0  0
   -1.8854    1.4418    0.9872 H   0  0  0  0  0  0  0  0  0  0  0  0
   -1.1407    0.6551    2.3675 H   0  0  0  0  0  0  0  0  0  0  0  0
   -3.4151   -0.2475    1.9385 H   0  0  0  0  0  0  0  0  0  0  0  0
   -2.1721   -1.4725    1.8699 H   0  0  0  0  0  0  0  0  0  0  0  0
   -2.6699   -2.0691   -0.1654 H   0  0  0  0  0  0  0  0  0  0  0  0
   -7.2712   -2.3796   -0.8910 H   0  0  0  0  0  0  0  0  0  0  0  0
   -8.6843    0.0392   -0.6400 H   0  0  0  0  0  0  0  0  0  0  0  0
   -8.3185    2.4682   -0.1751 H   0  0  0  0  0  0  0  0  0  0  0  0
   -6.0364    3.3360    0.2662 H   0  0  0  0  0  0  0  0  0  0  0  0
   -4.0783    1.8174    0.2551 H   0  0  0  0  0  0  0  0  0  0  0  0
   -2.5616    0.7727   -1.2457 H   0  0  0  0  0  0  0  0  0  0  0  0
   -2.4298   -0.7204   -2.1554 H   0  0  0  0  0  0  0  0  0  0  0  0
   -0.2100    0.3555   -1.6190 H   0  0  0  0  0  0  0  0  0  0  0  0
   -0.3332   -1.3114   -1.0303 H   0  0  0  0  0  0  0  0  0  0  0  0
    3.3024    0.1012    2.4514 H   0  0  0  0  0  0  0  0  0  0  0  0
    5.7236   -0.0237    2.6898 H   0  0  0  0  0  0  0  0  0  0  0  0
  1  2  1  0
  2  3  1  0
  3  4  1  0
  4  5  2  0
  5  6  1  0
  6  7  2  0
  7  8  1  0
  8  9  1  0
  9 10  2  0
  9 11  1  0
 11 12  1  0
 12 13  1  0
 13 14  1  0
 14 15  1  0
 15 16  1  0
 16 17  2  0
 16 18  1  0
 18 19  1  0
 19 20  2  0
 20 21  1  0
 21 22  2  0
 22 23  1  0
 23 24  2  0
 14 25  1  0
 25 26  1  0
  7 27  1  0
 27 28  2  0
 28  4  1  0
 26 11  1  0
 24 15  1  0
 24 19  1  0
  1 29  1  0
  1 30  1  0
  1 31  1  0
  2 32  1  0
  2 33  1  0
  5 34  1  0
  6 35  1  0
  8 36  1  0
 12 37  1  0
 12 38  1  0
 13 39  1  0
 13 40  1  0
 14 41  1  0
 18 42  1  0
 20 43  1  0
 21 44  1  0
 22 45  1  0
 23 46  1  0
 25 47  1  0
 25 48  1  0
 26 49  1  0
 26 50  1  0
 27 51  1  0
 28 52  1  0
M  END
$$$$
