
     RDKit          3D

 50 53  0  0  0  0  0  0  0  0999 V2000
   -5.8009    2.2127    2.2824 C   0  0  0  0  0  0  0  0  0  0  0  0
   -5.7432    1.2153    1.2716 O   0  0  0  0  0  0  0  0  0  0  0  0
   -4.5011    1.1039    0.6810 C   0  0  0  0  0  0  0  0  0  0  0  0
   -3.5088    1.8854    1.0835 N   0  0  0  0  0  0  0  0  0  0  0  0
   -2.3678    1.6873    0.4414 C   0  0  0  0  0  0  0  0  0  0  0  0
   -1.2819    2.5120    0.8318 N   0  0  0  0  0  0  0  0  0  0  0  0
   -0.0124    1.9854    0.7642 N   0  0  0  0  0  0  0  0  0  0  0  0
    0.5033    1.9956   -0.4270 C   0  0  0  0  0  0  0  0  0  0  0  0
    1.8092    1.4593   -0.6929 C   0  0  0  0  0  0  0  0  0  0  0  0
    2.5161    1.3343   -1.8728 C   0  0  0  0  0  0  0  0  0  0  0  0
    3.7536    0.7277   -1.5424 C   0  0  0  0  0  0  0  0  0  0  0  0
    3.7406    0.5342   -0.1770 C   0  0  0  0  0  0  0  0  0  0  0  0
    4.6716   -0.0446    0.7796 C   0  0  0  0  0  0  0  0  0  0  0  0
    5.3177   -1.2487    0.4519 C   0  0  0  0  0  0  0  0  0  0  0  0
    6.1867   -1.8725    1.3555 C   0  0  0  0  0  0  0  0  0  0  0  0
    6.4297   -1.3058    2.6057 C   0  0  0  0  0  0  0  0  0  0  0  0
    5.8128   -0.1064    2.9532 C   0  0  0  0  0  0  0  0  0  0  0  0
    4.9472    0.5143    2.0375 C   0  0  0  0  0  0  0  0  0  0  0  0
    4.3980    1.8043    2.4216 N   0  0  0  0  0  4  0  0  0  0  0  0
    4.6672    2.7744    1.6985 O   0  0  0  0  0  0  0  0  0  0  0  0
    3.7718    1.8533    3.4899 O   0  0  0  0  0  1  0  0  0  0  0  0
    2.5539    0.9596    0.3384 O   0  0  0  0  0  0  0  0  0  0  0  0
   -2.2053    0.7934   -0.5338 N   0  0  0  0  0  0  0  0  0  0  0  0
   -3.2518    0.0414   -0.8515 C   0  0  0  0  0  0  0  0  0  0  0  0
   -3.1122   -0.8985   -1.8582 N   0  0  0  0  0  0  0  0  0  0  0  0
   -4.2144   -1.8514   -2.0326 C   0  0  0  0  0  0  0  0  0  0  0  0
   -3.8640   -2.8410   -3.1542 C   0  0  0  0  0  0  0  0  0  0  0  0
   -2.6736   -3.6050   -2.9007 O   0  0  0  0  0  0  0  0  0  0  0  0
   -1.7384   -2.9374   -2.0393 C   0  0  0  0  0  0  0  0  0  0  0  0
   -1.7678   -1.4050   -2.1623 C   0  0  0  0  0  0  0  0  0  0  0  0
   -4.4327    0.1800   -0.2661 N   0  0  0  0  0  0  0  0  0  0  0  0
   -5.1214    1.9805    3.1099 H   0  0  0  0  0  0  0  0  0  0  0  0
   -6.8192    2.2234    2.6831 H   0  0  0  0  0  0  0  0  0  0  0  0
   -5.5955    3.2076    1.8723 H   0  0  0  0  0  0  0  0  0  0  0  0
   -1.5461    2.8477    1.7583 H   0  0  0  0  0  0  0  0  0  0  0  0
   -0.0463    2.4163   -1.2888 H   0  0  0  0  0  0  0  0  0  0  0  0
    2.1787    1.6436   -2.8524 H   0  0  0  0  0  0  0  0  0  0  0  0
    4.5624    0.4786   -2.2152 H   0  0  0  0  0  0  0  0  0  0  0  0
    5.1328   -1.7282   -0.5081 H   0  0  0  0  0  0  0  0  0  0  0  0
    6.6682   -2.8097    1.0829 H   0  0  0  0  0  0  0  0  0  0  0  0
    7.1023   -1.7968    3.3055 H   0  0  0  0  0  0  0  0  0  0  0  0
    6.0126    0.3431    3.9239 H   0  0  0  0  0  0  0  0  0  0  0  0
   -4.3789   -2.4094   -1.1018 H   0  0  0  0  0  0  0  0  0  0  0  0
   -5.1393   -1.3266   -2.2993 H   0  0  0  0  0  0  0  0  0  0  0  0
   -4.6839   -3.5509   -3.3023 H   0  0  0  0  0  0  0  0  0  0  0  0
   -3.7173   -2.3078   -4.1009 H   0  0  0  0  0  0  0  0  0  0  0  0
   -1.9579   -3.2422   -1.0091 H   0  0  0  0  0  0  0  0  0  0  0  0
   -0.7409   -3.3152   -2.2854 H   0  0  0  0  0  0  0  0  0  0  0  0
   -0.9847   -0.9922   -1.5169 H   0  0  0  0  0  0  0  0  0  0  0  0
   -1.5284   -1.1195   -3.1935 H   0  0  0  0  0  0  0  0  0  0  0  0
  1  2  1  0
  2  3  1  0
  3  4  2  0
  4  5  1  0
  5  6  1  0
  6  7  1  0
  7  8  2  3
  8  9  1  0
  9 10  2  0
 10 11  1  0
 11 12  2  0
 12 13  1  0
 13 14  2  0
 14 15  1  0
 15 16  2  0
 16 17  1  0
 17 18  2  0
 18 19  1  0
 19 20  2  0
 19 21  1  0
 12 22  1  0
  5 23  2  0
 23 24  1  0
 24 25  1  0
 25 26  1  0
 26 27  1  0
 27 28  1  0
 28 29  1  0
 29 30  1  0
 24 31  2  0
 31  3  1  0
 22  9  1  0
 30 25  1  0
 18 13  1  0
  1 32  1  0
  1 33  1  0
  1 34  1  0
  6 35  1  0
  8 36  1  0
 10 37  1  0
 11 38  1  0
 14 39  1  0
 15 40  1  0
 16 41  1  0
 17 42  1  0
 26 43  1  0
 26 44  1  0
 27 45  1  0
 27 46  1  0
 29 47  1  0
 29 48  1  0
 30 49  1  0
 30 50  1  0
M  CHG  2  19   1  21  -1
M  END
$$$$
