
     RDKit          3D

 43 45  0  0  0  0  0  0  0  0999 V2000
   -2.0307   -2.9076   -1.7472 C   0  0  0  0  0  0  0  0  0  0  0  0
   -2.7308   -1.8682   -2.6179 C   0  0  0  0  0  0  0  0  0  0  0  0
   -3.9465   -1.2618   -1.9252 C   0  0  0  0  0  0  0  0  0  0  0  0
   -1.5847   -0.5852   -3.2699 S   0  0  0  0  0  0  0  0  0  0  0  0
   -0.7064   -0.0657   -1.8075 C   0  0  0  0  0  0  0  0  0  0  0  0
    0.6718   -0.0697   -1.8236 C   0  0  0  0  0  0  0  0  0  0  0  0
    1.3235    0.3520   -0.6830 C   0  0  0  0  0  0  0  0  0  0  0  0
    2.7114    0.3831   -0.6183 N   0  0  0  0  0  0  0  0  0  0  0  0
    3.4957   -0.7139   -1.2136 C   0  0  0  0  0  0  0  0  0  0  0  0
    4.5217   -1.2616   -0.2063 C   0  0  0  0  0  0  0  0  0  0  0  0
    5.4297   -0.2700    0.2915 O   0  0  0  0  0  0  0  0  0  0  0  0
    4.8323    1.0286    0.4360 C   0  0  0  0  0  0  0  0  0  0  0  0
    3.3032    0.9981    0.5819 C   0  0  0  0  0  0  0  0  0  0  0  0
    0.6191    0.7864    0.3750 N   0  0  0  0  0  0  0  0  0  0  0  0
   -0.7253    0.7785    0.3021 C   0  0  0  0  0  0  0  0  0  0  0  0
   -1.4785    1.2624    1.4785 C   0  0  0  0  0  0  0  0  0  0  0  0
   -2.8785    1.4212    1.4434 C   0  0  0  0  0  0  0  0  0  0  0  0
   -3.5938    1.8763    2.5576 C   0  0  0  0  0  0  0  0  0  0  0  0
   -2.9184    2.1841    3.7338 C   0  0  0  0  0  0  0  0  0  0  0  0
   -3.7938    2.7412    5.1053 Cl  0  0  0  0  0  0  0  0  0  0  0  0
   -1.5368    2.0420    3.8038 C   0  0  0  0  0  0  0  0  0  0  0  0
   -0.8272    1.5862    2.6862 C   0  0  0  0  0  0  0  0  0  0  0  0
   -1.4247    0.3561   -0.7604 N   0  0  0  0  0  0  0  0  0  0  0  0
   -2.7169   -3.7316   -1.5208 H   0  0  0  0  0  0  0  0  0  0  0  0
   -1.1623   -3.3387   -2.2566 H   0  0  0  0  0  0  0  0  0  0  0  0
   -1.7008   -2.4941   -0.7889 H   0  0  0  0  0  0  0  0  0  0  0  0
   -3.0985   -2.3866   -3.5118 H   0  0  0  0  0  0  0  0  0  0  0  0
   -4.6867   -2.0429   -1.7167 H   0  0  0  0  0  0  0  0  0  0  0  0
   -4.4350   -0.5123   -2.5570 H   0  0  0  0  0  0  0  0  0  0  0  0
   -3.6957   -0.7996   -0.9673 H   0  0  0  0  0  0  0  0  0  0  0  0
    1.2155   -0.3735   -2.7077 H   0  0  0  0  0  0  0  0  0  0  0  0
    2.8671   -1.5485   -1.5443 H   0  0  0  0  0  0  0  0  0  0  0  0
    4.0206   -0.3144   -2.0890 H   0  0  0  0  0  0  0  0  0  0  0  0
    4.0109   -1.7111    0.6537 H   0  0  0  0  0  0  0  0  0  0  0  0
    5.1210   -2.0490   -0.6744 H   0  0  0  0  0  0  0  0  0  0  0  0
    5.1177    1.6189   -0.4425 H   0  0  0  0  0  0  0  0  0  0  0  0
    5.2867    1.5030    1.3116 H   0  0  0  0  0  0  0  0  0  0  0  0
    3.0342    0.4183    1.4740 H   0  0  0  0  0  0  0  0  0  0  0  0
    2.9403    2.0257    0.7048 H   0  0  0  0  0  0  0  0  0  0  0  0
   -3.4291    1.1926    0.5317 H   0  0  0  0  0  0  0  0  0  0  0  0
   -4.6729    1.9875    2.4948 H   0  0  0  0  0  0  0  0  0  0  0  0
   -1.0026    2.2817    4.7192 H   0  0  0  0  0  0  0  0  0  0  0  0
    0.2544    1.4820    2.7649 H   0  0  0  0  0  0  0  0  0  0  0  0
  1  2  1  0
  2  3  1  0
  2  4  1  0
  4  5  1  0
  5  6  2  0
  6  7  1  0
  7  8  1  0
  8  9  1  0
  9 10  1  0
 10 11  1  0
 11 12  1  0
 12 13  1  0
  7 14  2  0
 14 15  1  0
 15 16  1  0
 16 17  2  0
 17 18  1  0
 18 19  2  0
 19 20  1  0
 19 21  1  0
 21 22  2  0
 15 23  2  0
 23  5  1  0
 13  8  1  0
 22 16  1  0
  1 24  1  0
  1 25  1  0
  1 26  1  0
  2 27  1  0
  3 28  1  0
  3 29  1  0
  3 30  1  0
  6 31  1  0
  9 32  1  0
  9 33  1  0
 10 34  1  0
 10 35  1  0
 12 36  1  0
 12 37  1  0
 13 38  1  0
 13 39  1  0
 17 40  1  0
 18 41  1  0
 21 42  1  0
 22 43  1  0
M  END
$$$$
