
     RDKit          3D

 49 52  0  0  0  0  0  0  0  0999 V2000
   -8.0051   -3.3346    0.0829 C   0  0  0  0  0  0  0  0  0  0  0  0
   -7.6059   -2.2841    0.9541 O   0  0  0  0  0  0  0  0  0  0  0  0
   -6.7200   -1.3697    0.4550 C   0  0  0  0  0  0  0  0  0  0  0  0
   -6.1367   -1.3974   -0.8115 C   0  0  0  0  0  0  0  0  0  0  0  0
   -5.2391   -0.3942   -1.1959 C   0  0  0  0  0  0  0  0  0  0  0  0
   -4.9194    0.6528   -0.3217 C   0  0  0  0  0  0  0  0  0  0  0  0
   -3.9297    1.7134   -0.7213 C   0  0  0  0  0  0  0  0  0  0  0  0
   -2.6222    1.4118   -0.1922 N   0  0  0  0  0  0  0  0  0  0  0  0
   -1.5733    2.2931   -0.3652 C   0  0  0  0  0  0  0  0  0  0  0  0
   -1.7512    3.3783   -0.9154 O   0  0  0  0  0  0  0  0  0  0  0  0
   -0.2853    1.8214    0.1322 C   0  0  0  0  0  0  0  0  0  0  0  0
    0.0254    0.7302    0.9445 C   0  0  0  0  0  0  0  0  0  0  0  0
    1.4152    0.6481    1.1774 C   0  0  0  0  0  0  0  0  0  0  0  0
    2.0962    1.6493    0.5644 C   0  0  0  0  0  0  0  0  0  0  0  0
    1.1467    2.7108   -0.2983 S   0  0  0  0  0  0  0  0  0  0  0  0
    3.5471    1.5703    0.8045 C   0  0  0  0  0  0  0  0  0  0  0  0
    3.7099    0.2343    1.4856 N   0  0  0  0  0  0  0  0  0  0  0  0
    4.2978   -0.7519    0.5610 C   0  0  0  0  0  0  0  0  0  0  0  0
    5.7515   -0.4723    0.2359 C   0  0  0  0  0  0  0  0  0  0  0  0
    6.6948   -0.3038    1.2609 C   0  0  0  0  0  0  0  0  0  0  0  0
    8.0362   -0.0635    0.9597 C   0  0  0  0  0  0  0  0  0  0  0  0
    8.4508    0.0050   -0.3687 C   0  0  0  0  0  0  0  0  0  0  0  0
    7.5256   -0.1679   -1.3965 C   0  0  0  0  0  0  0  0  0  0  0  0
    6.1831   -0.4082   -1.0970 C   0  0  0  0  0  0  0  0  0  0  0  0
    2.3441   -0.2289    1.9228 C   0  0  0  0  0  0  0  0  0  0  0  0
   -5.5007    0.6701    0.9516 C   0  0  0  0  0  0  0  0  0  0  0  0
   -6.3949   -0.3330    1.3323 C   0  0  0  0  0  0  0  0  0  0  0  0
   -7.1531   -3.9666   -0.1884 H   0  0  0  0  0  0  0  0  0  0  0  0
   -8.5058   -2.9411   -0.8080 H   0  0  0  0  0  0  0  0  0  0  0  0
   -8.7248   -3.9594    0.6205 H   0  0  0  0  0  0  0  0  0  0  0  0
   -6.3563   -2.1849   -1.5247 H   0  0  0  0  0  0  0  0  0  0  0  0
   -4.7921   -0.4366   -2.1873 H   0  0  0  0  0  0  0  0  0  0  0  0
   -4.2494    2.6969   -0.3566 H   0  0  0  0  0  0  0  0  0  0  0  0
   -3.8530    1.7866   -1.8127 H   0  0  0  0  0  0  0  0  0  0  0  0
   -2.4340    0.4611    0.0868 H   0  0  0  0  0  0  0  0  0  0  0  0
   -0.7048    0.0455    1.3556 H   0  0  0  0  0  0  0  0  0  0  0  0
    4.1249    1.6692   -0.1195 H   0  0  0  0  0  0  0  0  0  0  0  0
    3.8639    2.3549    1.5003 H   0  0  0  0  0  0  0  0  0  0  0  0
    3.7055   -0.8256   -0.3610 H   0  0  0  0  0  0  0  0  0  0  0  0
    4.2786   -1.7477    1.0243 H   0  0  0  0  0  0  0  0  0  0  0  0
    6.3804   -0.3525    2.3016 H   0  0  0  0  0  0  0  0  0  0  0  0
    8.7560    0.0714    1.7626 H   0  0  0  0  0  0  0  0  0  0  0  0
    9.4952    0.1931   -0.6029 H   0  0  0  0  0  0  0  0  0  0  0  0
    7.8497   -0.1154   -2.4326 H   0  0  0  0  0  0  0  0  0  0  0  0
    5.4759   -0.5412   -1.9124 H   0  0  0  0  0  0  0  0  0  0  0  0
    2.1618   -1.2898    1.7218 H   0  0  0  0  0  0  0  0  0  0  0  0
    2.2448   -0.0556    2.9999 H   0  0  0  0  0  0  0  0  0  0  0  0
   -5.2609    1.4648    1.6552 H   0  0  0  0  0  0  0  0  0  0  0  0
   -6.8436   -0.3063    2.3226 H   0  0  0  0  0  0  0  0  0  0  0  0
  1  2  1  0
  2  3  1  0
  3  4  2  0
  4  5  1  0
  5  6  2  0
  6  7  1  0
  7  8  1  0
  8  9  1  0
  9 10  2  0
  9 11  1  0
 11 12  2  0
 12 13  1  0
 13 14  2  0
 14 15  1  0
 14 16  1  0
 16 17  1  0
 17 18  1  0
 18 19  1  0
 19 20  2  0
 20 21  1  0
 21 22  2  0
 22 23  1  0
 23 24  2  0
 17 25  1  0
  6 26  1  0
 26 27  2  0
 27  3  1  0
 15 11  1  0
 24 19  1  0
 25 13  1  0
  1 28  1  0
  1 29  1  0
  1 30  1  0
  4 31  1  0
  5 32  1  0
  7 33  1  0
  7 34  1  0
  8 35  1  0
 12 36  1  0
 16 37  1  0
 16 38  1  0
 18 39  1  0
 18 40  1  0
 20 41  1  0
 21 42  1  0
 22 43  1  0
 23 44  1  0
 24 45  1  0
 25 46  1  0
 25 47  1  0
 26 48  1  0
 27 49  1  0
M  END
$$$$
