
     RDKit          3D

 59 63  0  0  0  0  0  0  0  0999 V2000
   -7.6516   -1.4223    1.0137 C   0  0  0  0  0  0  0  0  0  0  0  0
   -6.3506   -1.5487    0.2775 C   0  0  0  0  0  0  0  0  0  0  0  0
   -5.2023   -1.9965    0.9395 C   0  0  0  0  0  0  0  0  0  0  0  0
   -3.9985   -2.1456    0.2470 C   0  0  0  0  0  0  0  0  0  0  0  0
   -3.9251   -1.8644   -1.1239 C   0  0  0  0  0  0  0  0  0  0  0  0
   -2.6172   -2.0002   -1.8588 C   0  0  0  0  0  0  0  0  0  0  0  0
   -1.8161   -0.8077   -1.7005 N   0  0  0  0  0  0  0  0  0  0  0  0
   -0.8327   -0.7202   -0.7419 C   0  0  0  0  0  0  0  0  0  0  0  0
   -0.4861   -1.6839   -0.0675 O   0  0  0  0  0  0  0  0  0  0  0  0
   -0.2489    0.5934   -0.6014 C   0  0  0  0  0  0  0  0  0  0  0  0
   -0.1805    1.6379   -1.5100 C   0  0  0  0  0  0  0  0  0  0  0  0
    0.5402    2.6863   -0.8817 C   0  0  0  0  0  0  0  0  0  0  0  0
    0.9023    4.0035   -1.4219 C   0  0  0  0  0  0  0  0  0  0  0  0
    1.5580    4.9462   -0.6134 C   0  0  0  0  0  0  0  0  0  0  0  0
    1.9091    6.2033   -1.1136 C   0  0  0  0  0  0  0  0  0  0  0  0
    1.6104    6.5363   -2.4319 C   0  0  0  0  0  0  0  0  0  0  0  0
    0.9614    5.6140   -3.2492 C   0  0  0  0  0  0  0  0  0  0  0  0
    0.6091    4.3560   -2.7483 C   0  0  0  0  0  0  0  0  0  0  0  0
    0.8914    2.3132    0.3564 N   0  0  0  0  0  0  0  0  0  0  0  0
    0.4048    1.0666    0.5094 N   0  0  0  0  0  0  0  0  0  0  0  0
    0.5907    0.4325    1.8009 C   0  0  0  0  0  0  0  0  0  0  0  0
    2.0467    0.0988    2.0851 C   0  0  0  0  0  0  0  0  0  0  0  0
    2.6390   -0.9553    1.1764 C   0  0  0  0  0  0  0  0  0  0  0  0
    3.5780   -1.5673    2.1591 C   0  0  0  0  0  0  0  0  0  0  0  0
    4.7033   -2.4216    1.7403 C   0  0  0  0  0  0  0  0  0  0  0  0
    4.8934   -2.8154    0.4151 C   0  0  0  0  0  0  0  0  0  0  0  0
    5.9835   -3.6229    0.0922 C   0  0  0  0  0  0  0  0  0  0  0  0
    6.8444   -4.0092    1.1075 C   0  0  0  0  0  0  0  0  0  0  0  0
    6.6871   -3.6494    2.3988 N   0  0  0  0  0  0  0  0  0  0  0  0
    5.6176   -2.8657    2.6884 C   0  0  0  0  0  0  0  0  0  0  0  0
    3.3021   -1.3083    3.3987 N   0  0  0  0  0  0  0  0  0  0  0  0
    2.1579   -0.4749    3.3993 O   0  0  0  0  0  0  0  0  0  0  0  0
   -5.0774   -1.4217   -1.7865 C   0  0  0  0  0  0  0  0  0  0  0  0
   -6.2814   -1.2739   -1.0929 C   0  0  0  0  0  0  0  0  0  0  0  0
   -7.4827   -1.1574    2.0632 H   0  0  0  0  0  0  0  0  0  0  0  0
   -8.1990   -2.3693    0.9706 H   0  0  0  0  0  0  0  0  0  0  0  0
   -8.2729   -0.6335    0.5758 H   0  0  0  0  0  0  0  0  0  0  0  0
   -5.2356   -2.2308    2.0015 H   0  0  0  0  0  0  0  0  0  0  0  0
   -3.1137   -2.4843    0.7843 H   0  0  0  0  0  0  0  0  0  0  0  0
   -2.7960   -2.1299   -2.9320 H   0  0  0  0  0  0  0  0  0  0  0  0
   -2.0740   -2.8867   -1.5123 H   0  0  0  0  0  0  0  0  0  0  0  0
   -2.2033    0.0505   -2.0642 H   0  0  0  0  0  0  0  0  0  0  0  0
   -0.5774    1.6324   -2.5146 H   0  0  0  0  0  0  0  0  0  0  0  0
    1.8009    4.7062    0.4205 H   0  0  0  0  0  0  0  0  0  0  0  0
    2.4154    6.9184   -0.4704 H   0  0  0  0  0  0  0  0  0  0  0  0
    1.8837    7.5136   -2.8214 H   0  0  0  0  0  0  0  0  0  0  0  0
    0.7290    5.8728   -4.2793 H   0  0  0  0  0  0  0  0  0  0  0  0
    0.1072    3.6631   -3.4166 H   0  0  0  0  0  0  0  0  0  0  0  0
    0.2165    1.1361    2.5561 H   0  0  0  0  0  0  0  0  0  0  0  0
   -0.0516   -0.4466    1.8899 H   0  0  0  0  0  0  0  0  0  0  0  0
    2.6651    1.0060    2.0744 H   0  0  0  0  0  0  0  0  0  0  0  0
    3.1321   -0.5217    0.3043 H   0  0  0  0  0  0  0  0  0  0  0  0
    1.9168   -1.7179    0.8740 H   0  0  0  0  0  0  0  0  0  0  0  0
    4.2095   -2.5167   -0.3729 H   0  0  0  0  0  0  0  0  0  0  0  0
    6.1568   -3.9464   -0.9284 H   0  0  0  0  0  0  0  0  0  0  0  0
    7.7069   -4.6378    0.9035 H   0  0  0  0  0  0  0  0  0  0  0  0
    5.5217   -2.5986    3.7382 H   0  0  0  0  0  0  0  0  0  0  0  0
   -5.0499   -1.1935   -2.8496 H   0  0  0  0  0  0  0  0  0  0  0  0
   -7.1672   -0.9409   -1.6296 H   0  0  0  0  0  0  0  0  0  0  0  0
  1  2  1  0
  2  3  2  0
  3  4  1  0
  4  5  2  0
  5  6  1  0
  6  7  1  0
  7  8  1  0
  8  9  2  0
  8 10  1  0
 10 11  2  0
 11 12  1  0
 12 13  1  0
 13 14  2  0
 14 15  1  0
 15 16  2  0
 16 17  1  0
 17 18  2  0
 12 19  2  0
 19 20  1  0
 20 21  1  0
 21 22  1  0
 22 23  1  0
 23 24  1  0
 24 25  1  0
 25 26  2  0
 26 27  1  0
 27 28  2  0
 28 29  1  0
 29 30  2  0
 24 31  2  0
 31 32  1  0
  5 33  1  0
 33 34  2  0
 34  2  1  0
 20 10  1  0
 32 22  1  0
 18 13  1  0
 30 25  1  0
  1 35  1  0
  1 36  1  0
  1 37  1  0
  3 38  1  0
  4 39  1  0
  6 40  1  0
  6 41  1  0
  7 42  1  0
 11 43  1  0
 14 44  1  0
 15 45  1  0
 16 46  1  0
 17 47  1  0
 18 48  1  0
 21 49  1  0
 21 50  1  0
 22 51  1  0
 23 52  1  0
 23 53  1  0
 26 54  1  0
 27 55  1  0
 28 56  1  0
 30 57  1  0
 33 58  1  0
 34 59  1  0
M  END
$$$$
