
     RDKit          3D

 35 37  0  0  0  0  0  0  0  0999 V2000
   -5.2982    0.8699   -0.9137 C   0  0  0  0  0  0  0  0  0  0  0  0
   -3.8899    0.9850   -1.0727 O   0  0  0  0  0  0  0  0  0  0  0  0
   -3.2981   -0.1797   -1.6520 C   0  0  0  0  0  0  0  0  0  0  0  0
   -2.8915   -1.2110   -0.5855 C   0  0  0  0  0  0  0  0  0  0  0  0
   -1.8091   -0.7225    0.2879 N   0  0  0  0  0  0  0  0  0  0  0  0
   -2.0603   -0.2461    1.5893 C   0  0  0  0  0  0  0  0  0  0  0  0
   -3.5329   -0.2333    2.3995 S   0  0  0  0  0  0  0  0  0  0  0  0
   -0.9892    0.2464    2.2971 N   0  0  0  0  0  0  0  0  0  0  0  0
    0.2494    0.2495    1.7413 C   0  0  0  0  0  0  0  0  0  0  0  0
    1.5471    0.8554    2.6149 S   0  0  0  0  0  0  0  0  0  0  0  0
    2.5992    0.5189    1.3102 C   0  0  0  0  0  0  0  0  0  0  0  0
    1.9469   -0.0653    0.2324 C   0  0  0  0  0  0  0  0  0  0  0  0
    0.5455   -0.2115    0.4960 C   0  0  0  0  0  0  0  0  0  0  0  0
   -0.5292   -0.7382   -0.3195 C   0  0  0  0  0  0  0  0  0  0  0  0
   -0.3235   -1.1665   -1.4538 O   0  0  0  0  0  0  0  0  0  0  0  0
    2.6733   -0.4356   -1.0276 C   0  0  0  0  0  0  0  0  0  0  0  0
    4.1973   -0.4555   -0.8246 C   0  0  0  0  0  0  0  0  0  0  0  0
    4.6848    0.7639   -0.0289 C   0  0  0  0  0  0  0  0  0  0  0  0
    4.0662    0.8100    1.3769 C   0  0  0  0  0  0  0  0  0  0  0  0
   -5.5606   -0.0076   -0.3169 H   0  0  0  0  0  0  0  0  0  0  0  0
   -5.6599    1.7644   -0.3996 H   0  0  0  0  0  0  0  0  0  0  0  0
   -5.7834    0.8127   -1.8928 H   0  0  0  0  0  0  0  0  0  0  0  0
   -2.4205    0.1599   -2.2109 H   0  0  0  0  0  0  0  0  0  0  0  0
   -3.9828   -0.6336   -2.3785 H   0  0  0  0  0  0  0  0  0  0  0  0
   -2.5384   -2.1178   -1.0921 H   0  0  0  0  0  0  0  0  0  0  0  0
   -3.7624   -1.5077    0.0020 H   0  0  0  0  0  0  0  0  0  0  0  0
   -1.1273    0.6054    3.2340 H   0  0  0  0  0  0  0  0  0  0  0  0
    2.3482   -1.4194   -1.3833 H   0  0  0  0  0  0  0  0  0  0  0  0
    2.4200    0.2974   -1.8034 H   0  0  0  0  0  0  0  0  0  0  0  0
    4.4832   -1.3695   -0.2883 H   0  0  0  0  0  0  0  0  0  0  0  0
    4.6944   -0.4891   -1.8007 H   0  0  0  0  0  0  0  0  0  0  0  0
    5.7773    0.7446    0.0540 H   0  0  0  0  0  0  0  0  0  0  0  0
    4.4211    1.6776   -0.5770 H   0  0  0  0  0  0  0  0  0  0  0  0
    4.5491    0.0566    2.0113 H   0  0  0  0  0  0  0  0  0  0  0  0
    4.2540    1.7921    1.8254 H   0  0  0  0  0  0  0  0  0  0  0  0
  1  2  1  0
  2  3  1  0
  3  4  1  0
  4  5  1  0
  5  6  1  0
  6  7  2  0
  6  8  1  0
  8  9  1  0
  9 10  1  0
 10 11  1  0
 11 12  2  0
 12 13  1  0
 13 14  1  0
 14 15  2  0
 12 16  1  0
 16 17  1  0
 17 18  1  0
 18 19  1  0
 14  5  1  0
 13  9  2  0
 19 11  1  0
  1 20  1  0
  1 21  1  0
  1 22  1  0
  3 23  1  0
  3 24  1  0
  4 25  1  0
  4 26  1  0
  8 27  1  0
 16 28  1  0
 16 29  1  0
 17 30  1  0
 17 31  1  0
 18 32  1  0
 18 33  1  0
 19 34  1  0
 19 35  1  0
M  END
$$$$
