
     RDKit          3D

 67 72  0  0  0  0  0  0  0  0999 V2000
    6.5920    1.5849   -0.3961 C   0  0  0  0  0  0  0  0  0  0  0  0
    6.1735    0.5818    0.6840 C   0  0  0  0  0  0  0  0  0  0  0  0
    6.2618    1.1890    2.0900 C   0  0  0  0  0  0  0  0  0  0  0  0
    7.1121   -0.6329    0.6185 C   0  0  0  0  0  0  0  0  0  0  0  0
    4.8550    0.0423    0.4131 O   0  0  0  0  0  0  0  0  0  0  0  0
    3.7571    0.8413    0.4180 C   0  0  0  0  0  0  0  0  0  0  0  0
    3.7689    2.0401    0.6670 O   0  0  0  0  0  0  0  0  0  0  0  0
    2.6131    0.1418    0.0981 N   0  0  0  0  0  0  0  0  0  0  0  0
    2.6309   -1.2697   -0.2909 C   0  0  0  0  0  0  0  0  0  0  0  0
    1.2155   -1.8535   -0.4768 C   0  0  0  0  0  0  0  0  0  0  0  0
    0.4351   -1.0776   -1.4393 N   0  0  0  0  0  0  0  0  0  0  0  0
    0.5338    0.4157   -1.2372 C   0  0  2  0  0  0  0  0  0  0  0  0
    1.3270    0.8324    0.0172 C   0  0  0  0  0  0  0  0  0  0  0  0
   -0.8812    0.8430   -1.2095 C   0  0  0  0  0  0  0  0  0  0  0  0
   -1.7499   -0.2305   -1.4464 C   0  0  0  0  0  0  0  0  0  0  0  0
   -3.0393    0.2370   -1.3978 C   0  0  0  0  0  0  0  0  0  0  0  0
   -4.2139   -0.3636   -1.5460 O   0  0  0  0  0  0  0  0  0  0  0  0
   -2.9537    1.5930   -1.1216 N   0  0  0  0  0  0  0  0  0  0  0  0
   -4.0946    2.4900   -0.9872 C   0  0  0  0  0  0  0  0  0  0  0  0
   -4.5837    2.5633    0.4398 C   0  0  0  0  0  0  0  0  0  0  0  0
   -4.0325    3.4908    1.3360 C   0  0  0  0  0  0  0  0  0  0  0  0
   -4.4830    3.5564    2.6556 C   0  0  0  0  0  0  0  0  0  0  0  0
   -5.4849    2.6932    3.0953 C   0  0  0  0  0  0  0  0  0  0  0  0
   -6.0334    1.7598    2.2178 C   0  0  0  0  0  0  0  0  0  0  0  0
   -5.5837    1.6930    0.8981 C   0  0  0  0  0  0  0  0  0  0  0  0
   -1.6249    1.9807   -1.0416 C   0  0  0  0  0  0  0  0  0  0  0  0
   -1.2872    3.2469   -0.8350 O   0  0  0  0  0  0  0  0  0  0  0  0
   -0.9902   -1.4799   -1.6625 C   0  0  1  0  0  0  0  0  0  0  0  0
   -1.1467   -2.0565   -3.1079 C   0  0  0  0  0  0  0  0  0  0  0  0
   -0.8319   -1.5529   -4.1766 O   0  0  0  0  0  0  0  0  0  0  0  0
   -1.7332   -3.3176   -2.9778 N   0  0  0  0  0  0  0  0  0  0  0  0
   -2.0172   -3.6109   -1.6530 C   0  0  0  0  0  0  0  0  0  0  0  0
   -2.6384   -4.7482   -1.1794 C   0  0  0  0  0  0  0  0  0  0  0  0
   -2.8845   -4.8206    0.1930 C   0  0  0  0  0  0  0  0  0  0  0  0
   -2.5152   -3.7655    1.0464 C   0  0  0  0  0  0  0  0  0  0  0  0
   -1.8832   -2.6243    0.5434 C   0  0  0  0  0  0  0  0  0  0  0  0
   -1.6216   -2.5590   -0.8189 C   0  0  0  0  0  0  0  0  0  0  0  0
    7.6359    1.8934   -0.2709 H   0  0  0  0  0  0  0  0  0  0  0  0
    6.4762    1.1535   -1.3963 H   0  0  0  0  0  0  0  0  0  0  0  0
    5.9764    2.4901   -0.3766 H   0  0  0  0  0  0  0  0  0  0  0  0
    7.2972    1.4275    2.3568 H   0  0  0  0  0  0  0  0  0  0  0  0
    5.6854    2.1150    2.1753 H   0  0  0  0  0  0  0  0  0  0  0  0
    5.8594    0.4995    2.8419 H   0  0  0  0  0  0  0  0  0  0  0  0
    6.8374   -1.3777    1.3758 H   0  0  0  0  0  0  0  0  0  0  0  0
    7.0330   -1.1372   -0.3526 H   0  0  0  0  0  0  0  0  0  0  0  0
    8.1574   -0.3489    0.7784 H   0  0  0  0  0  0  0  0  0  0  0  0
    3.1742   -1.8384    0.4723 H   0  0  0  0  0  0  0  0  0  0  0  0
    3.1980   -1.3455   -1.2273 H   0  0  0  0  0  0  0  0  0  0  0  0
    1.3062   -2.8910   -0.8183 H   0  0  0  0  0  0  0  0  0  0  0  0
    0.7332   -1.8636    0.5067 H   0  0  0  0  0  0  0  0  0  0  0  0
    1.0276    0.8260   -2.1272 H   0  0  0  0  0  0  0  0  0  0  0  0
    0.7749    0.5764    0.9318 H   0  0  0  0  0  0  0  0  0  0  0  0
    1.4663    1.9198    0.0302 H   0  0  0  0  0  0  0  0  0  0  0  0
   -4.0471   -1.3181   -1.6439 H   0  0  0  0  0  0  0  0  0  0  0  0
   -3.8007    3.4821   -1.3503 H   0  0  0  0  0  0  0  0  0  0  0  0
   -4.8879    2.1398   -1.6581 H   0  0  0  0  0  0  0  0  0  0  0  0
   -3.2420    4.1636    1.0075 H   0  0  0  0  0  0  0  0  0  0  0  0
   -4.0476    4.2787    3.3410 H   0  0  0  0  0  0  0  0  0  0  0  0
   -5.8344    2.7441    4.1226 H   0  0  0  0  0  0  0  0  0  0  0  0
   -6.8092    1.0805    2.5603 H   0  0  0  0  0  0  0  0  0  0  0  0
   -6.0141    0.9530    0.2261 H   0  0  0  0  0  0  0  0  0  0  0  0
   -0.3184    3.3180   -0.9109 H   0  0  0  0  0  0  0  0  0  0  0  0
   -1.9378   -3.9017   -3.7741 H   0  0  0  0  0  0  0  0  0  0  0  0
   -2.9366   -5.5547   -1.8407 H   0  0  0  0  0  0  0  0  0  0  0  0
   -3.3775   -5.6976    0.6087 H   0  0  0  0  0  0  0  0  0  0  0  0
   -2.7322   -3.8358    2.1109 H   0  0  0  0  0  0  0  0  0  0  0  0
   -1.6212   -1.8040    1.2065 H   0  0  0  0  0  0  0  0  0  0  0  0
  1  2  1  0
  2  3  1  0
  2  4  1  0
  2  5  1  0
  5  6  1  0
  6  7  2  0
  6  8  1  0
  8  9  1  0
  9 10  1  0
 10 11  1  0
 11 12  1  0
 12 13  1  0
 12 14  1  0
 14 15  1  0
 15 16  2  0
 16 17  1  0
 16 18  1  0
 18 19  1  0
 19 20  1  0
 20 21  2  0
 21 22  1  0
 22 23  2  0
 23 24  1  0
 24 25  2  0
 18 26  1  0
 26 27  1  0
 15 28  1  0
 28 29  1  0
 29 30  2  0
 29 31  1  0
 31 32  1  0
 32 33  2  0
 33 34  1  0
 34 35  2  0
 35 36  1  0
 36 37  2  0
 13  8  1  0
 26 14  2  0
 37 28  1  0
 28 11  1  1
 37 32  1  0
 25 20  1  0
  1 38  1  0
  1 39  1  0
  1 40  1  0
  3 41  1  0
  3 42  1  0
  3 43  1  0
  4 44  1  0
  4 45  1  0
  4 46  1  0
  9 47  1  0
  9 48  1  0
 10 49  1  0
 10 50  1  0
 12 51  1  6
 13 52  1  0
 13 53  1  0
 17 54  1  0
 19 55  1  0
 19 56  1  0
 21 57  1  0
 22 58  1  0
 23 59  1  0
 24 60  1  0
 25 61  1  0
 27 62  1  0
 31 63  1  0
 33 64  1  0
 34 65  1  0
 35 66  1  0
 36 67  1  0
M  END
$$$$
