
     RDKit          3D

 44 46  0  0  0  0  0  0  0  0999 V2000
   -6.7709    1.4137   -0.9656 C   0  0  0  0  0  0  0  0  0  0  0  0
   -5.7701    0.3834   -0.5351 C   0  0  0  0  0  0  0  0  0  0  0  0
   -6.2015   -0.8580   -0.0634 C   0  0  0  0  0  0  0  0  0  0  0  0
   -5.2755   -1.8090    0.3653 C   0  0  0  0  0  0  0  0  0  0  0  0
   -3.9025   -1.5247    0.3493 C   0  0  0  0  0  0  0  0  0  0  0  0
   -2.9207   -2.5624    0.8169 C   0  0  0  0  0  0  0  0  0  0  0  0
   -3.4617   -0.2669   -0.0992 C   0  0  0  0  0  0  0  0  0  0  0  0
   -2.1049   -0.0681   -0.0626 O   0  0  0  0  0  0  0  0  0  0  0  0
   -1.6270    1.2450   -0.3450 C   0  0  0  0  0  0  0  0  0  0  0  0
   -0.1841    1.2698   -0.0080 C   0  0  0  0  0  0  0  0  0  0  0  0
    0.6335    0.5359    0.8145 C   0  0  0  0  0  0  0  0  0  0  0  0
    1.9139    1.1414    0.6972 C   0  0  0  0  0  0  0  0  0  0  0  0
    3.1192    0.7631    1.4506 C   0  0  0  0  0  0  0  0  0  0  0  0
    2.9981    0.1443    2.5113 O   0  0  0  0  0  0  0  0  0  0  0  0
    4.3868    1.1312    0.9726 N   0  0  0  0  0  0  0  0  0  0  0  0
    5.5133    0.8866    1.8604 C   0  0  0  0  0  0  0  0  0  0  0  0
    4.7071    1.2179   -0.4580 C   0  0  0  0  0  0  0  0  0  0  0  0
    5.1480   -0.1220   -0.9896 C   0  0  0  0  0  0  0  0  0  0  0  0
    6.4067   -0.5171   -1.0549 N   0  0  0  0  0  0  0  0  0  0  0  0
    6.4685   -1.7925   -1.5788 C   0  0  0  0  0  0  0  0  0  0  0  0
    5.2571   -2.3607   -1.9095 C   0  0  0  0  0  0  0  0  0  0  0  0
    3.9877   -1.2628   -1.5591 S   0  0  0  0  0  0  0  0  0  0  0  0
    1.8518    2.1944   -0.1354 N   0  0  0  0  0  0  0  0  0  0  0  0
    0.5483    2.2588   -0.5847 O   0  0  0  0  0  0  0  0  0  0  0  0
   -4.3974    0.6749   -0.5425 C   0  0  0  0  0  0  0  0  0  0  0  0
   -6.3314    2.1123   -1.6873 H   0  0  0  0  0  0  0  0  0  0  0  0
   -7.1206    1.9814   -0.0961 H   0  0  0  0  0  0  0  0  0  0  0  0
   -7.6325    0.9395   -1.4516 H   0  0  0  0  0  0  0  0  0  0  0  0
   -7.2626   -1.0964   -0.0302 H   0  0  0  0  0  0  0  0  0  0  0  0
   -5.6343   -2.7759    0.7179 H   0  0  0  0  0  0  0  0  0  0  0  0
   -3.4274   -3.4758    1.1450 H   0  0  0  0  0  0  0  0  0  0  0  0
   -2.2409   -2.8329    0.0030 H   0  0  0  0  0  0  0  0  0  0  0  0
   -2.3401   -2.1814    1.6634 H   0  0  0  0  0  0  0  0  0  0  0  0
   -1.7668    1.4701   -1.4078 H   0  0  0  0  0  0  0  0  0  0  0  0
   -2.1378    1.9911    0.2745 H   0  0  0  0  0  0  0  0  0  0  0  0
    0.3541   -0.3048    1.4335 H   0  0  0  0  0  0  0  0  0  0  0  0
    5.2308    1.0921    2.8989 H   0  0  0  0  0  0  0  0  0  0  0  0
    6.3467    1.5464    1.5917 H   0  0  0  0  0  0  0  0  0  0  0  0
    5.8198   -0.1595    1.7833 H   0  0  0  0  0  0  0  0  0  0  0  0
    3.8772    1.5876   -1.0590 H   0  0  0  0  0  0  0  0  0  0  0  0
    5.5222    1.9448   -0.5713 H   0  0  0  0  0  0  0  0  0  0  0  0
    7.4376   -2.2675   -1.7011 H   0  0  0  0  0  0  0  0  0  0  0  0
    5.0693   -3.3361   -2.3359 H   0  0  0  0  0  0  0  0  0  0  0  0
   -4.0871    1.6488   -0.9059 H   0  0  0  0  0  0  0  0  0  0  0  0
  1  2  1  0
  2  3  2  0
  3  4  1  0
  4  5  2  0
  5  6  1  0
  5  7  1  0
  7  8  1  0
  8  9  1  0
  9 10  1  0
 10 11  2  0
 11 12  1  0
 12 13  1  0
 13 14  2  0
 13 15  1  0
 15 16  1  0
 15 17  1  0
 17 18  1  0
 18 19  2  0
 19 20  1  0
 20 21  2  0
 21 22  1  0
 12 23  2  0
 23 24  1  0
  7 25  2  0
 25  2  1  0
 24 10  1  0
 22 18  1  0
  1 26  1  0
  1 27  1  0
  1 28  1  0
  3 29  1  0
  4 30  1  0
  6 31  1  0
  6 32  1  0
  6 33  1  0
  9 34  1  0
  9 35  1  0
 11 36  1  0
 16 37  1  0
 16 38  1  0
 16 39  1  0
 17 40  1  0
 17 41  1  0
 20 42  1  0
 21 43  1  0
 25 44  1  0
M  END
$$$$
