
     RDKit          3D

 48 50  0  0  0  0  0  0  0  0999 V2000
    4.4516    1.1245   -1.8969 C   0  0  0  0  0  0  0  0  0  0  0  0
    4.0563   -0.2713   -1.5725 C   0  0  0  0  0  0  0  0  0  0  0  0
    4.4335   -1.4314   -2.2461 C   0  0  0  0  0  0  0  0  0  0  0  0
    5.2641   -1.6884   -3.3964 C   0  0  0  0  0  0  0  0  0  0  0  0
    5.5308   -2.7636   -3.9142 O   0  0  0  0  0  0  0  0  0  0  0  0
    5.7803   -0.5530   -3.9211 O   0  0  0  0  0  0  0  0  0  0  0  0
    3.8633   -2.5190   -1.6383 O   0  0  0  0  0  0  0  0  0  0  0  0
    3.1309   -2.0738   -0.5881 C   0  0  0  0  0  0  0  0  0  0  0  0
    2.4031   -2.8836    0.2825 C   0  0  0  0  0  0  0  0  0  0  0  0
    1.7080   -2.2346    1.3069 C   0  0  0  0  0  0  0  0  0  0  0  0
    1.7529   -0.8399    1.4224 C   0  0  0  0  0  0  0  0  0  0  0  0
    0.8526   -0.0582    2.7405 S   0  0  0  0  0  6  0  0  0  0  0  0
    1.2049    1.3434    2.7781 O   0  0  0  0  0  0  0  0  0  0  0  0
    0.9620   -0.9056    3.9067 O   0  0  0  0  0  0  0  0  0  0  0  0
   -0.7231   -0.1915    2.2036 N   0  0  0  0  0  0  0  0  0  0  0  0
   -1.2446    0.6812    1.1433 C   0  0  0  0  0  0  0  0  0  0  0  0
   -1.9505   -0.2109    0.1149 C   0  0  0  0  0  0  0  0  0  0  0  0
   -2.7336    0.5671   -0.9407 C   0  0  0  0  0  0  0  0  0  0  0  0
   -4.2410    0.3253   -0.9021 C   0  0  0  0  0  0  0  0  0  0  0  0
   -4.9212    0.3545    0.4673 C   0  0  0  0  0  0  0  0  0  0  0  0
   -4.6238    1.5777    1.3318 C   0  0  0  0  0  0  0  0  0  0  0  0
   -3.4623    1.4036    2.3196 C   0  0  0  0  0  0  0  0  0  0  0  0
   -2.0864    1.7992    1.7778 C   0  0  0  0  0  0  0  0  0  0  0  0
    2.5050   -0.0479    0.5381 C   0  0  0  0  0  0  0  0  0  0  0  0
    3.2089   -0.6910   -0.4981 C   0  0  0  0  0  0  0  0  0  0  0  0
    4.1191    1.3939   -2.9045 H   0  0  0  0  0  0  0  0  0  0  0  0
    4.0080    1.8416   -1.1995 H   0  0  0  0  0  0  0  0  0  0  0  0
    5.5390    1.2387   -1.8421 H   0  0  0  0  0  0  0  0  0  0  0  0
    6.3095   -0.8892   -4.6738 H   0  0  0  0  0  0  0  0  0  0  0  0
    2.3861   -3.9610    0.1666 H   0  0  0  0  0  0  0  0  0  0  0  0
    1.1306   -2.8255    2.0160 H   0  0  0  0  0  0  0  0  0  0  0  0
   -1.3585   -0.6876    2.8253 H   0  0  0  0  0  0  0  0  0  0  0  0
   -0.4039    1.1637    0.6286 H   0  0  0  0  0  0  0  0  0  0  0  0
   -2.5760   -0.9605    0.6122 H   0  0  0  0  0  0  0  0  0  0  0  0
   -1.1762   -0.7994   -0.3976 H   0  0  0  0  0  0  0  0  0  0  0  0
   -2.3781    0.2628   -1.9339 H   0  0  0  0  0  0  0  0  0  0  0  0
   -2.5309    1.6416   -0.8859 H   0  0  0  0  0  0  0  0  0  0  0  0
   -4.4503   -0.6512   -1.3579 H   0  0  0  0  0  0  0  0  0  0  0  0
   -4.7213    1.0667   -1.5535 H   0  0  0  0  0  0  0  0  0  0  0  0
   -4.7097   -0.5666    1.0221 H   0  0  0  0  0  0  0  0  0  0  0  0
   -6.0031    0.3314    0.2785 H   0  0  0  0  0  0  0  0  0  0  0  0
   -5.5216    1.7551    1.9400 H   0  0  0  0  0  0  0  0  0  0  0  0
   -4.4975    2.4767    0.7179 H   0  0  0  0  0  0  0  0  0  0  0  0
   -3.4532    0.3960    2.7491 H   0  0  0  0  0  0  0  0  0  0  0  0
   -3.6699    2.0814    3.1592 H   0  0  0  0  0  0  0  0  0  0  0  0
   -1.5112    2.2168    2.6157 H   0  0  0  0  0  0  0  0  0  0  0  0
   -2.1957    2.6295    1.0702 H   0  0  0  0  0  0  0  0  0  0  0  0
    2.5433    1.0322    0.6484 H   0  0  0  0  0  0  0  0  0  0  0  0
  1  2  1  0
  2  3  2  0
  3  4  1  0
  4  5  2  0
  4  6  1  0
  3  7  1  0
  7  8  1  0
  8  9  2  0
  9 10  1  0
 10 11  2  0
 11 12  1  0
 12 13  2  0
 12 14  2  0
 12 15  1  0
 15 16  1  0
 16 17  1  0
 17 18  1  0
 18 19  1  0
 19 20  1  0
 20 21  1  0
 21 22  1  0
 22 23  1  0
 11 24  1  0
 24 25  2  0
 25  2  1  0
 25  8  1  0
 23 16  1  0
  1 26  1  0
  1 27  1  0
  1 28  1  0
  6 29  1  0
  9 30  1  0
 10 31  1  0
 15 32  1  0
 16 33  1  0
 17 34  1  0
 17 35  1  0
 18 36  1  0
 18 37  1  0
 19 38  1  0
 19 39  1  0
 20 40  1  0
 20 41  1  0
 21 42  1  0
 21 43  1  0
 22 44  1  0
 22 45  1  0
 23 46  1  0
 23 47  1  0
 24 48  1  0
M  END
$$$$
