
     RDKit          3D

 47 49  0  0  0  0  0  0  0  0999 V2000
    0.3855   -0.1418    2.6118 C   0  0  0  0  0  0  0  0  0  0  0  0
   -0.5180    0.8424    2.0074 N   0  0  0  0  0  0  0  0  0  0  0  0
   -1.0396    1.8288    2.9604 C   0  0  0  0  0  0  0  0  0  0  0  0
   -0.4982    1.1318    0.6052 C   0  0  0  0  0  0  0  0  0  0  0  0
   -1.8257    1.6693    0.0222 C   0  0  0  0  0  0  0  0  0  0  0  0
   -2.8863    0.6937   -0.2884 N   0  0  0  0  0  0  0  0  0  0  0  0
   -2.5635   -0.1511   -1.4588 C   0  0  0  0  0  0  0  0  0  0  0  0
   -3.7252   -1.1010   -1.8217 C   0  0  0  0  0  0  0  0  0  0  0  0
   -4.1330   -1.8803   -0.6576 N   0  0  0  0  0  0  0  0  0  0  0  0
   -3.6521   -3.1630   -0.4960 C   0  0  0  0  0  0  0  0  0  0  0  0
   -3.0047   -3.7979   -1.3181 O   0  0  0  0  0  0  0  0  0  0  0  0
   -4.4701   -1.0699    0.5068 C   0  0  0  0  0  0  0  0  0  0  0  0
   -3.2986   -0.1288    0.8649 C   0  0  0  0  0  0  0  0  0  0  0  0
    0.6053    0.9937   -0.1770 C   0  0  0  0  0  0  0  0  0  0  0  0
    1.8399    0.5702    0.2761 N   0  0  0  0  0  0  0  0  0  0  0  0
    2.5798    0.5936   -0.7823 C   0  0  0  0  0  0  0  0  0  0  0  0
    4.0023    0.2291   -0.8717 C   0  0  0  0  0  0  0  0  0  0  0  0
    4.6951    0.2805   -2.0876 C   0  0  0  0  0  0  0  0  0  0  0  0
    6.0455   -0.0731   -2.1366 C   0  0  0  0  0  0  0  0  0  0  0  0
    6.7055   -0.4774   -0.9763 C   0  0  0  0  0  0  0  0  0  0  0  0
    6.0193   -0.5300    0.2364 C   0  0  0  0  0  0  0  0  0  0  0  0
    4.6695   -0.1777    0.2905 C   0  0  0  0  0  0  0  0  0  0  0  0
    2.0086    0.9944   -1.9352 O   0  0  0  0  0  0  0  0  0  0  0  0
    0.7106    1.2881   -1.6443 C   0  0  0  0  0  0  0  0  0  0  0  0
   -0.1109    1.6955   -2.4391 O   0  0  0  0  0  0  0  0  0  0  0  0
    0.5397   -1.0009    1.9501 H   0  0  0  0  0  0  0  0  0  0  0  0
    1.3498    0.3122    2.8618 H   0  0  0  0  0  0  0  0  0  0  0  0
   -0.0513   -0.5403    3.5347 H   0  0  0  0  0  0  0  0  0  0  0  0
   -2.1314    1.8709    2.9192 H   0  0  0  0  0  0  0  0  0  0  0  0
   -0.7668    1.5826    3.9927 H   0  0  0  0  0  0  0  0  0  0  0  0
   -0.6359    2.8233    2.7419 H   0  0  0  0  0  0  0  0  0  0  0  0
   -2.2485    2.3956    0.7277 H   0  0  0  0  0  0  0  0  0  0  0  0
   -1.6535    2.2962   -0.8571 H   0  0  0  0  0  0  0  0  0  0  0  0
   -1.6653   -0.7496   -1.2632 H   0  0  0  0  0  0  0  0  0  0  0  0
   -2.3697    0.4812   -2.3314 H   0  0  0  0  0  0  0  0  0  0  0  0
   -4.5964   -0.5229   -2.1523 H   0  0  0  0  0  0  0  0  0  0  0  0
   -3.4291   -1.7612   -2.6436 H   0  0  0  0  0  0  0  0  0  0  0  0
   -3.9406   -3.6056    0.4719 H   0  0  0  0  0  0  0  0  0  0  0  0
   -5.3661   -0.4880    0.2609 H   0  0  0  0  0  0  0  0  0  0  0  0
   -4.7055   -1.7149    1.3601 H   0  0  0  0  0  0  0  0  0  0  0  0
   -3.6226    0.5157    1.6888 H   0  0  0  0  0  0  0  0  0  0  0  0
   -2.4671   -0.7492    1.2186 H   0  0  0  0  0  0  0  0  0  0  0  0
    4.2003    0.5913   -3.0045 H   0  0  0  0  0  0  0  0  0  0  0  0
    6.5833   -0.0341   -3.0811 H   0  0  0  0  0  0  0  0  0  0  0  0
    7.7568   -0.7528   -1.0176 H   0  0  0  0  0  0  0  0  0  0  0  0
    6.5350   -0.8460    1.1400 H   0  0  0  0  0  0  0  0  0  0  0  0
    4.1438   -0.2226    1.2420 H   0  0  0  0  0  0  0  0  0  0  0  0
  1  2  1  0
  2  3  1  0
  2  4  1  0
  4  5  1  0
  5  6  1  0
  6  7  1  0
  7  8  1  0
  8  9  1  0
  9 10  1  0
 10 11  2  0
  9 12  1  0
 12 13  1  0
  4 14  2  3
 14 15  1  0
 15 16  2  0
 16 17  1  0
 17 18  2  0
 18 19  1  0
 19 20  2  0
 20 21  1  0
 21 22  2  0
 16 23  1  0
 23 24  1  0
 24 25  2  0
 13  6  1  0
 24 14  1  0
 22 17  1  0
  1 26  1  0
  1 27  1  0
  1 28  1  0
  3 29  1  0
  3 30  1  0
  3 31  1  0
  5 32  1  0
  5 33  1  0
  7 34  1  0
  7 35  1  0
  8 36  1  0
  8 37  1  0
 10 38  1  0
 12 39  1  0
 12 40  1  0
 13 41  1  0
 13 42  1  0
 18 43  1  0
 19 44  1  0
 20 45  1  0
 21 46  1  0
 22 47  1  0
M  END
$$$$
