
     RDKit          3D

 36 39  0  0  0  0  0  0  0  0999 V2000
    5.4269    1.8655    0.0398 C   0  0  0  0  0  0  0  0  0  0  0  0
    4.5173    0.6867   -0.1334 C   0  0  0  0  0  0  0  0  0  0  0  0
    5.0301   -0.5731   -0.4207 C   0  0  0  0  0  0  0  0  0  0  0  0
    4.1381   -1.6102   -0.6077 C   0  0  0  0  0  0  0  0  0  0  0  0
    2.7974   -1.4724   -0.5292 N   0  0  0  0  0  0  0  0  0  0  0  0
    2.2784   -0.2479   -0.2674 C   0  0  0  0  0  0  0  0  0  0  0  0
    0.8471   -0.1299   -0.1867 N   0  0  0  0  0  0  0  0  0  0  0  0
    0.2757    0.8084    0.6783 C   0  0  0  0  0  0  0  0  0  0  0  0
    0.8861    1.5943    1.4015 O   0  0  0  0  0  0  0  0  0  0  0  0
   -1.2056    0.8309    0.7810 C   0  0  0  0  0  0  0  0  0  0  0  0
   -1.8085    1.7690    1.6318 C   0  0  0  0  0  0  0  0  0  0  0  0
   -3.1867    1.7820    1.7957 C   0  0  0  0  0  0  0  0  0  0  0  0
   -3.9709    0.8544    1.1141 C   0  0  0  0  0  0  0  0  0  0  0  0
   -3.3964   -0.1031    0.2405 C   0  0  0  0  0  0  0  0  0  0  0  0
   -4.1300   -1.0799   -0.4839 C   0  0  0  0  0  0  0  0  0  0  0  0
   -5.5784   -1.1487   -0.3836 N   0  0  0  0  0  4  0  0  0  0  0  0
   -6.2212   -0.1614   -0.7628 O   0  0  0  0  0  0  0  0  0  0  0  0
   -6.0599   -2.2003    0.0569 O   0  0  0  0  0  1  0  0  0  0  0  0
   -3.5161   -2.0165   -1.3210 C   0  0  0  0  0  0  0  0  0  0  0  0
   -2.1356   -1.9783   -1.4685 C   0  0  0  0  0  0  0  0  0  0  0  0
   -1.3728   -1.0220   -0.7761 C   0  0  0  0  0  0  0  0  0  0  0  0
   -1.9815   -0.0982    0.0812 C   0  0  0  0  0  0  0  0  0  0  0  0
    0.0922   -0.9814   -1.0036 C   0  0  0  0  0  0  0  0  0  0  0  0
    0.5049   -1.6360   -1.9600 O   0  0  0  0  0  0  0  0  0  0  0  0
    3.1256    0.8464   -0.0709 C   0  0  0  0  0  0  0  0  0  0  0  0
    5.0119    2.5741    0.7642 H   0  0  0  0  0  0  0  0  0  0  0  0
    6.4065    1.5526    0.4166 H   0  0  0  0  0  0  0  0  0  0  0  0
    5.5645    2.3763   -0.9181 H   0  0  0  0  0  0  0  0  0  0  0  0
    6.0972   -0.7489   -0.5027 H   0  0  0  0  0  0  0  0  0  0  0  0
    4.4846   -2.6141   -0.8360 H   0  0  0  0  0  0  0  0  0  0  0  0
   -1.2031    2.4890    2.1812 H   0  0  0  0  0  0  0  0  0  0  0  0
   -3.6512    2.5086    2.4592 H   0  0  0  0  0  0  0  0  0  0  0  0
   -5.0479    0.8965    1.2778 H   0  0  0  0  0  0  0  0  0  0  0  0
   -4.0991   -2.7604   -1.8609 H   0  0  0  0  0  0  0  0  0  0  0  0
   -1.6494   -2.6942   -2.1319 H   0  0  0  0  0  0  0  0  0  0  0  0
    2.7297    1.8422    0.1001 H   0  0  0  0  0  0  0  0  0  0  0  0
  1  2  1  0
  2  3  2  0
  3  4  1  0
  4  5  2  0
  5  6  1  0
  6  7  1  0
  7  8  1  0
  8  9  2  0
  8 10  1  0
 10 11  2  0
 11 12  1  0
 12 13  2  0
 13 14  1  0
 14 15  2  0
 15 16  1  0
 16 17  2  0
 16 18  1  0
 15 19  1  0
 19 20  2  0
 20 21  1  0
 21 22  2  0
 21 23  1  0
 23 24  2  0
  6 25  2  0
 25  2  1  0
 23  7  1  0
 22 10  1  0
 22 14  1  0
  1 26  1  0
  1 27  1  0
  1 28  1  0
  3 29  1  0
  4 30  1  0
 11 31  1  0
 12 32  1  0
 13 33  1  0
 19 34  1  0
 20 35  1  0
 25 36  1  0
M  CHG  2  16   1  18  -1
M  END
$$$$
