
     RDKit          3D

 45 47  0  0  0  0  0  0  0  0999 V2000
    7.6713   -0.8261    1.1855 C   0  0  0  0  0  0  0  0  0  0  0  0
    7.1153    0.5703    1.4037 C   0  0  0  0  0  0  0  0  0  0  0  0
    6.2689    0.9540    0.3219 O   0  0  0  0  0  0  0  0  0  0  0  0
    4.9382    0.6540    0.3834 C   0  0  0  0  0  0  0  0  0  0  0  0
    4.3038   -0.1100    1.3591 C   0  0  0  0  0  0  0  0  0  0  0  0
    2.9228   -0.3390    1.2875 C   0  0  0  0  0  0  0  0  0  0  0  0
    2.1587    0.1861    0.2385 C   0  0  0  0  0  0  0  0  0  0  0  0
    0.7762   -0.0831    0.2474 N   0  0  0  0  0  0  0  0  0  0  0  0
   -0.1463    0.2184   -0.7308 C   0  0  0  0  0  0  0  0  0  0  0  0
    0.0800    0.7049   -1.8297 O   0  0  0  0  0  0  0  0  0  0  0  0
   -1.4171   -0.1275   -0.3208 N   0  0  0  0  0  0  0  0  0  0  0  0
   -2.5772    0.1496   -1.1602 C   0  0  0  0  0  0  0  0  0  0  0  0
   -2.9152    1.6498   -1.0989 C   0  0  0  0  0  0  0  0  0  0  0  0
   -4.2852    1.9289   -1.6987 C   0  0  0  0  0  0  0  0  0  0  0  0
   -5.3643    1.2257   -0.8827 C   0  0  0  0  0  0  0  0  0  0  0  0
   -5.0560   -0.2316   -0.6446 C   0  0  0  0  0  0  0  0  0  0  0  0
   -6.1033   -1.0893   -0.2708 C   0  0  0  0  0  0  0  0  0  0  0  0
   -5.8685   -2.4444   -0.0444 C   0  0  0  0  0  0  0  0  0  0  0  0
   -4.5850   -2.9589   -0.1895 C   0  0  0  0  0  0  0  0  0  0  0  0
   -3.5338   -2.1145   -0.5465 C   0  0  0  0  0  0  0  0  0  0  0  0
   -3.7457   -0.7382   -0.7537 C   0  0  0  0  0  0  0  0  0  0  0  0
    2.7971    0.9502   -0.7359 C   0  0  0  0  0  0  0  0  0  0  0  0
    4.1765    1.1774   -0.6627 C   0  0  0  0  0  0  0  0  0  0  0  0
    8.1877   -0.8862    0.2216 H   0  0  0  0  0  0  0  0  0  0  0  0
    8.3767   -1.0894    1.9788 H   0  0  0  0  0  0  0  0  0  0  0  0
    6.8750   -1.5760    1.1650 H   0  0  0  0  0  0  0  0  0  0  0  0
    7.9523    1.2778    1.4069 H   0  0  0  0  0  0  0  0  0  0  0  0
    6.6280    0.6795    2.3788 H   0  0  0  0  0  0  0  0  0  0  0  0
    4.8482   -0.5520    2.1859 H   0  0  0  0  0  0  0  0  0  0  0  0
    2.4583   -0.9396    2.0651 H   0  0  0  0  0  0  0  0  0  0  0  0
    0.4365   -0.6724    0.9915 H   0  0  0  0  0  0  0  0  0  0  0  0
   -1.5894   -0.1133    0.6722 H   0  0  0  0  0  0  0  0  0  0  0  0
   -2.3215   -0.1049   -2.1976 H   0  0  0  0  0  0  0  0  0  0  0  0
   -2.8971    2.0025   -0.0585 H   0  0  0  0  0  0  0  0  0  0  0  0
   -2.1531    2.2295   -1.6330 H   0  0  0  0  0  0  0  0  0  0  0  0
   -4.3113    1.5834   -2.7399 H   0  0  0  0  0  0  0  0  0  0  0  0
   -4.4786    3.0074   -1.7115 H   0  0  0  0  0  0  0  0  0  0  0  0
   -6.3213    1.3244   -1.4089 H   0  0  0  0  0  0  0  0  0  0  0  0
   -5.4690    1.7181    0.0921 H   0  0  0  0  0  0  0  0  0  0  0  0
   -7.1148   -0.7028   -0.1637 H   0  0  0  0  0  0  0  0  0  0  0  0
   -6.6896   -3.0992    0.2349 H   0  0  0  0  0  0  0  0  0  0  0  0
   -4.4013   -4.0181   -0.0305 H   0  0  0  0  0  0  0  0  0  0  0  0
   -2.5386   -2.5377   -0.6711 H   0  0  0  0  0  0  0  0  0  0  0  0
    2.2534    1.3887   -1.5668 H   0  0  0  0  0  0  0  0  0  0  0  0
    4.6585    1.7736   -1.4343 H   0  0  0  0  0  0  0  0  0  0  0  0
  1  2  1  0
  2  3  1  0
  3  4  1  0
  4  5  2  0
  5  6  1  0
  6  7  2  0
  7  8  1  0
  8  9  1  0
  9 10  2  0
  9 11  1  0
 11 12  1  0
 12 13  1  0
 13 14  1  0
 14 15  1  0
 15 16  1  0
 16 17  2  0
 17 18  1  0
 18 19  2  0
 19 20  1  0
 20 21  2  0
  7 22  1  0
 22 23  2  0
 23  4  1  0
 21 12  1  0
 21 16  1  0
  1 24  1  0
  1 25  1  0
  1 26  1  0
  2 27  1  0
  2 28  1  0
  5 29  1  0
  6 30  1  0
  8 31  1  0
 11 32  1  0
 12 33  1  0
 13 34  1  0
 13 35  1  0
 14 36  1  0
 14 37  1  0
 15 38  1  0
 15 39  1  0
 17 40  1  0
 18 41  1  0
 19 42  1  0
 20 43  1  0
 22 44  1  0
 23 45  1  0
M  END
$$$$
