
     RDKit          3D

 95 98  0  0  0  0  0  0  0  0999 V2000
   -6.8120    0.8059   -1.4915 C   0  0  0  0  0  0  0  0  0  0  0  0
   -6.9474   -0.1490   -0.5637 C   0  0  0  0  0  0  0  0  0  0  0  0
   -5.7966   -0.7729    0.1759 C   0  0  0  0  0  0  0  0  0  0  0  0
   -5.8961   -0.4983    1.6804 C   0  0  0  0  0  0  0  0  0  0  0  0
   -4.7513   -1.0541    2.5489 C   0  0  0  0  0  0  0  0  0  0  0  0
   -4.3920   -2.5332    2.3401 C   0  0  0  0  0  0  0  0  0  0  0  0
   -5.4888   -3.4875    2.7560 C   0  0  0  0  0  0  0  0  0  0  0  0
   -5.8416   -3.6192    4.1088 C   0  0  0  0  0  0  0  0  0  0  0  0
   -6.8605   -4.4923    4.4920 C   0  0  0  0  0  0  0  0  0  0  0  0
   -7.5198   -5.2430    3.5264 C   0  0  0  0  0  0  0  0  0  0  0  0
   -8.4950   -6.0832    3.8959 F   0  0  0  0  0  0  0  0  0  0  0  0
   -7.1791   -5.1367    2.1841 C   0  0  0  0  0  0  0  0  0  0  0  0
   -6.1640   -4.2587    1.7983 C   0  0  0  0  0  0  0  0  0  0  0  0
   -3.5056   -0.1934    2.4510 C   0  0  0  0  0  0  0  0  0  0  0  0
   -3.1384    0.5594    3.3454 O   0  0  0  0  0  0  0  0  0  0  0  0
   -2.8600   -0.3641    1.2667 O   0  0  0  0  0  0  0  0  0  0  0  0
   -1.6165    0.3490    1.1644 C   0  0  0  0  0  0  0  0  0  0  0  0
   -1.0356    0.1949   -0.2531 C   0  0  0  0  0  0  0  0  0  0  0  0
   -1.8987    0.8604   -1.3457 C   0  0  0  0  0  0  0  0  0  0  0  0
   -1.8959    2.3627   -1.3415 C   0  0  0  0  0  0  0  0  0  0  0  0
   -0.9924    3.1735   -2.0047 C   0  0  0  0  0  0  0  0  0  0  0  0
   -1.3294    4.4797   -1.7748 N   0  0  0  0  0  0  0  0  0  0  0  0
   -2.4515    4.5461   -0.9837 C   0  0  0  0  0  0  0  0  0  0  0  0
   -3.1544    5.6614   -0.5111 C   0  0  0  0  0  0  0  0  0  0  0  0
   -4.2845    5.4307    0.2790 C   0  0  0  0  0  0  0  0  0  0  0  0
   -4.6949    4.1354    0.5796 C   0  0  0  0  0  0  0  0  0  0  0  0
   -3.9802    3.0334    0.0981 C   0  0  0  0  0  0  0  0  0  0  0  0
   -2.8341    3.2343   -0.6985 C   0  0  0  0  0  0  0  0  0  0  0  0
    0.3527    0.6588   -0.2943 N   0  0  0  0  0  0  0  0  0  0  0  0
    1.4030   -0.1539    0.0734 C   0  0  0  0  0  0  0  0  0  0  0  0
    1.2626   -1.3465    0.3266 O   0  0  0  0  0  0  0  0  0  0  0  0
    2.7295    0.5805    0.2175 C   0  0  0  0  0  0  0  0  0  0  0  0
    2.7450    1.2054    1.6285 C   0  0  0  0  0  0  0  0  0  0  0  0
    3.9833    1.9925    1.9480 C   0  0  0  0  0  0  0  0  0  0  0  0
    4.7978    1.7245    2.9770 C   0  0  0  0  0  0  0  0  0  0  0  0
    3.8952   -0.3948   -0.0310 C   0  0  0  0  0  0  0  0  0  0  0  0
    5.1356    0.2895   -0.5970 C   0  0  0  0  0  0  0  0  0  0  0  0
    5.1071    1.4761   -0.9351 O   0  0  0  0  0  0  0  0  0  0  0  0
    6.3020   -0.4671   -0.6908 N   0  0  0  0  0  0  0  0  0  0  0  0
    6.3448   -1.9355   -0.5760 C   0  0  0  0  0  0  0  0  0  0  0  0
    6.1736   -2.6793   -1.9072 C   0  0  0  0  0  0  0  0  0  0  0  0
    4.9316   -2.3591   -2.5185 O   0  0  0  0  0  0  0  0  0  0  0  0
    7.5408    0.2266   -1.0516 C   0  0  0  0  0  0  0  0  0  0  0  0
    7.9583    0.0675   -2.4957 C   0  0  0  0  0  0  0  0  0  0  0  0
    7.1138    0.4737   -3.5406 C   0  0  0  0  0  0  0  0  0  0  0  0
    7.5129    0.3330   -4.8716 C   0  0  0  0  0  0  0  0  0  0  0  0
    8.7634   -0.2056   -5.1726 C   0  0  0  0  0  0  0  0  0  0  0  0
    9.6187   -0.5984   -4.1448 C   0  0  0  0  0  0  0  0  0  0  0  0
    9.2190   -0.4622   -2.8136 C   0  0  0  0  0  0  0  0  0  0  0  0
   -7.6782    1.2143   -2.0028 H   0  0  0  0  0  0  0  0  0  0  0  0
   -5.8420    1.2049   -1.7675 H   0  0  0  0  0  0  0  0  0  0  0  0
   -7.9438   -0.5163   -0.3288 H   0  0  0  0  0  0  0  0  0  0  0  0
   -4.8513   -0.3938   -0.2212 H   0  0  0  0  0  0  0  0  0  0  0  0
   -5.8166   -1.8488   -0.0241 H   0  0  0  0  0  0  0  0  0  0  0  0
   -5.9652    0.5872    1.8423 H   0  0  0  0  0  0  0  0  0  0  0  0
   -6.8411   -0.9172    2.0500 H   0  0  0  0  0  0  0  0  0  0  0  0
   -5.0789   -0.9358    3.5930 H   0  0  0  0  0  0  0  0  0  0  0  0
   -4.1058   -2.7195    1.2980 H   0  0  0  0  0  0  0  0  0  0  0  0
   -3.4957   -2.7848    2.9244 H   0  0  0  0  0  0  0  0  0  0  0  0
   -5.3243   -3.0423    4.8733 H   0  0  0  0  0  0  0  0  0  0  0  0
   -7.1404   -4.5942    5.5352 H   0  0  0  0  0  0  0  0  0  0  0  0
   -7.7034   -5.7376    1.4477 H   0  0  0  0  0  0  0  0  0  0  0  0
   -5.9035   -4.1884    0.7453 H   0  0  0  0  0  0  0  0  0  0  0  0
   -1.7548    1.4071    1.4143 H   0  0  0  0  0  0  0  0  0  0  0  0
   -0.9210   -0.0810    1.8965 H   0  0  0  0  0  0  0  0  0  0  0  0
   -1.0341   -0.8797   -0.4822 H   0  0  0  0  0  0  0  0  0  0  0  0
   -2.9302    0.4953   -1.2853 H   0  0  0  0  0  0  0  0  0  0  0  0
   -1.5263    0.5299   -2.3255 H   0  0  0  0  0  0  0  0  0  0  0  0
   -0.1433    2.9281   -2.6301 H   0  0  0  0  0  0  0  0  0  0  0  0
   -0.8394    5.2836   -2.1433 H   0  0  0  0  0  0  0  0  0  0  0  0
   -2.8414    6.6733   -0.7483 H   0  0  0  0  0  0  0  0  0  0  0  0
   -4.8520    6.2747    0.6641 H   0  0  0  0  0  0  0  0  0  0  0  0
   -5.5767    3.9741    1.1947 H   0  0  0  0  0  0  0  0  0  0  0  0
   -4.3140    2.0309    0.3418 H   0  0  0  0  0  0  0  0  0  0  0  0
    0.5049    1.6608   -0.3287 H   0  0  0  0  0  0  0  0  0  0  0  0
    2.7406    1.3804   -0.5338 H   0  0  0  0  0  0  0  0  0  0  0  0
    1.8878    1.8834    1.7345 H   0  0  0  0  0  0  0  0  0  0  0  0
    2.5894    0.4178    2.3784 H   0  0  0  0  0  0  0  0  0  0  0  0
    4.2199    2.8298    1.2919 H   0  0  0  0  0  0  0  0  0  0  0  0
    4.6059    0.8996    3.6566 H   0  0  0  0  0  0  0  0  0  0  0  0
    5.6821    2.3306    3.1541 H   0  0  0  0  0  0  0  0  0  0  0  0
    3.5892   -1.1515   -0.7619 H   0  0  0  0  0  0  0  0  0  0  0  0
    4.1503   -0.9024    0.9072 H   0  0  0  0  0  0  0  0  0  0  0  0
    7.2987   -2.2128   -0.1136 H   0  0  0  0  0  0  0  0  0  0  0  0
    5.5598   -2.2682    0.1076 H   0  0  0  0  0  0  0  0  0  0  0  0
    6.9814   -2.4493   -2.6031 H   0  0  0  0  0  0  0  0  0  0  0  0
    6.1899   -3.7585   -1.7256 H   0  0  0  0  0  0  0  0  0  0  0  0
    5.0019   -2.6107   -3.4546 H   0  0  0  0  0  0  0  0  0  0  0  0
    8.3248   -0.1501   -0.3825 H   0  0  0  0  0  0  0  0  0  0  0  0
    7.4577    1.2990   -0.8363 H   0  0  0  0  0  0  0  0  0  0  0  0
    6.1373    0.9032   -3.3194 H   0  0  0  0  0  0  0  0  0  0  0  0
    6.8498    0.6506   -5.6715 H   0  0  0  0  0  0  0  0  0  0  0  0
    9.0757   -0.3077   -6.2089 H   0  0  0  0  0  0  0  0  0  0  0  0
   10.5991   -1.0062   -4.3800 H   0  0  0  0  0  0  0  0  0  0  0  0
    9.9024   -0.7690   -2.0248 H   0  0  0  0  0  0  0  0  0  0  0  0
  1  2  2  0
  2  3  1  0
  3  4  1  0
  4  5  1  0
  5  6  1  0
  6  7  1  0
  7  8  2  0
  8  9  1  0
  9 10  2  0
 10 11  1  0
 10 12  1  0
 12 13  2  0
  5 14  1  0
 14 15  2  0
 14 16  1  0
 16 17  1  0
 17 18  1  0
 18 19  1  0
 19 20  1  0
 20 21  2  0
 21 22  1  0
 22 23  1  0
 23 24  2  0
 24 25  1  0
 25 26  2  0
 26 27  1  0
 27 28  2  0
 18 29  1  0
 29 30  1  0
 30 31  2  0
 30 32  1  0
 32 33  1  0
 33 34  1  0
 34 35  2  0
 32 36  1  0
 36 37  1  0
 37 38  2  0
 37 39  1  0
 39 40  1  0
 40 41  1  0
 41 42  1  0
 39 43  1  0
 43 44  1  0
 44 45  2  0
 45 46  1  0
 46 47  2  0
 47 48  1  0
 48 49  2  0
 13  7  1  0
 28 20  1  0
 49 44  1  0
 28 23  1  0
  1 50  1  0
  1 51  1  0
  2 52  1  0
  3 53  1  0
  3 54  1  0
  4 55  1  0
  4 56  1  0
  5 57  1  0
  6 58  1  0
  6 59  1  0
  8 60  1  0
  9 61  1  0
 12 62  1  0
 13 63  1  0
 17 64  1  0
 17 65  1  0
 18 66  1  0
 19 67  1  0
 19 68  1  0
 21 69  1  0
 22 70  1  0
 24 71  1  0
 25 72  1  0
 26 73  1  0
 27 74  1  0
 29 75  1  0
 32 76  1  0
 33 77  1  0
 33 78  1  0
 34 79  1  0
 35 80  1  0
 35 81  1  0
 36 82  1  0
 36 83  1  0
 40 84  1  0
 40 85  1  0
 41 86  1  0
 41 87  1  0
 42 88  1  0
 43 89  1  0
 43 90  1  0
 45 91  1  0
 46 92  1  0
 47 93  1  0
 48 94  1  0
 49 95  1  0
M  END
$$$$
