
     RDKit          3D

 69 72  0  0  0  0  0  0  0  0999 V2000
    8.8997   -0.0078   -0.7169 C   0  0  0  0  0  0  0  0  0  0  0  0
    8.0950    0.2713    0.5177 C   0  0  0  0  0  0  0  0  0  0  0  0
    8.6090   -0.0255    1.7883 C   0  0  0  0  0  0  0  0  0  0  0  0
    7.8867    0.2896    2.9434 C   0  0  0  0  0  0  0  0  0  0  0  0
    6.6419    0.9081    2.8421 C   0  0  0  0  0  0  0  0  0  0  0  0
    6.1244    1.1977    1.5784 C   0  0  0  0  0  0  0  0  0  0  0  0
    4.8256    1.8840    1.4715 C   0  0  0  0  0  0  0  0  0  0  0  0
    4.8078    3.0922    1.6917 O   0  0  0  0  0  0  0  0  0  0  0  0
    3.6947    1.1433    1.1277 N   0  0  0  0  0  0  0  0  0  0  0  0
    3.6762   -0.2991    0.8745 C   0  0  0  0  0  0  0  0  0  0  0  0
    3.0379   -0.6162   -0.4606 C   0  0  0  0  0  0  0  0  0  0  0  0
    1.5383   -0.8109   -0.4177 C   0  0  0  0  0  0  0  0  0  0  0  0
    1.0638   -1.7692   -1.0358 O   0  0  0  0  0  0  0  0  0  0  0  0
    0.7212    0.1239    0.2118 N   0  0  0  0  0  0  0  0  0  0  0  0
   -0.7547   -0.1257    0.1930 C   0  0  0  0  0  0  0  0  0  0  0  0
   -1.3109   -0.2713   -1.2464 C   0  0  0  0  0  0  0  0  0  0  0  0
   -2.5946    0.3590   -1.3185 O   0  0  0  0  0  0  0  0  0  0  0  0
   -3.2031    0.1748   -2.5904 C   0  0  0  0  0  0  0  0  0  0  0  0
   -4.6195    0.6812   -2.5045 C   0  0  0  0  0  0  0  0  0  0  0  0
   -4.9491    1.9708   -2.9422 C   0  0  0  0  0  0  0  0  0  0  0  0
   -6.2612    2.4362   -2.8444 C   0  0  0  0  0  0  0  0  0  0  0  0
   -7.2546    1.6208   -2.2993 C   0  0  0  0  0  0  0  0  0  0  0  0
   -6.9462    0.3321   -1.8387 C   0  0  0  0  0  0  0  0  0  0  0  0
   -8.0039   -0.5455   -1.2193 C   0  0  0  0  0  0  0  0  0  0  0  0
   -7.9054   -0.6195    0.1385 F   0  0  0  0  0  0  0  0  0  0  0  0
   -7.9530   -1.8337   -1.6657 F   0  0  0  0  0  0  0  0  0  0  0  0
   -9.2752   -0.1203   -1.4744 F   0  0  0  0  0  0  0  0  0  0  0  0
   -5.6218   -0.1237   -1.9384 C   0  0  0  0  0  0  0  0  0  0  0  0
   -1.1371   -1.3179    1.1072 C   0  0  0  0  0  0  0  0  0  0  0  0
   -2.6169   -1.5914    1.2600 C   0  0  0  0  0  0  0  0  0  0  0  0
   -3.4857   -0.6220    1.7794 C   0  0  0  0  0  0  0  0  0  0  0  0
   -4.8461   -0.8980    1.9301 C   0  0  0  0  0  0  0  0  0  0  0  0
   -5.3514   -2.1475    1.5788 C   0  0  0  0  0  0  0  0  0  0  0  0
   -4.4978   -3.1223    1.0667 C   0  0  0  0  0  0  0  0  0  0  0  0
   -3.1388   -2.8458    0.9084 C   0  0  0  0  0  0  0  0  0  0  0  0
    1.1800    1.0832    1.2338 C   0  0  0  0  0  0  0  0  0  0  0  0
    2.4485    1.8789    0.9172 C   0  0  0  0  0  0  0  0  0  0  0  0
    6.8485    0.9015    0.4176 C   0  0  0  0  0  0  0  0  0  0  0  0
    9.6287   -0.8052   -0.5399 H   0  0  0  0  0  0  0  0  0  0  0  0
    8.2498   -0.3357   -1.5355 H   0  0  0  0  0  0  0  0  0  0  0  0
    9.4359    0.8949   -1.0243 H   0  0  0  0  0  0  0  0  0  0  0  0
    9.5874   -0.4914    1.8898 H   0  0  0  0  0  0  0  0  0  0  0  0
    8.3049    0.0671    3.9216 H   0  0  0  0  0  0  0  0  0  0  0  0
    6.0876    1.1771    3.7381 H   0  0  0  0  0  0  0  0  0  0  0  0
    4.6889   -0.7058    0.8896 H   0  0  0  0  0  0  0  0  0  0  0  0
    3.1435   -0.7779    1.7054 H   0  0  0  0  0  0  0  0  0  0  0  0
    3.4578   -1.5688   -0.8109 H   0  0  0  0  0  0  0  0  0  0  0  0
    3.2750    0.1330   -1.2254 H   0  0  0  0  0  0  0  0  0  0  0  0
   -1.2239    0.7749    0.6099 H   0  0  0  0  0  0  0  0  0  0  0  0
   -1.3967   -1.3248   -1.5340 H   0  0  0  0  0  0  0  0  0  0  0  0
   -0.6559    0.2368   -1.9633 H   0  0  0  0  0  0  0  0  0  0  0  0
   -3.2082   -0.8867   -2.8676 H   0  0  0  0  0  0  0  0  0  0  0  0
   -2.6392    0.7233   -3.3547 H   0  0  0  0  0  0  0  0  0  0  0  0
   -4.1802    2.6247   -3.3520 H   0  0  0  0  0  0  0  0  0  0  0  0
   -6.5080    3.4384   -3.1880 H   0  0  0  0  0  0  0  0  0  0  0  0
   -8.2732    2.0003   -2.2282 H   0  0  0  0  0  0  0  0  0  0  0  0
   -5.3626   -1.1147   -1.5609 H   0  0  0  0  0  0  0  0  0  0  0  0
   -0.7311   -1.1429    2.1131 H   0  0  0  0  0  0  0  0  0  0  0  0
   -0.6391   -2.2277    0.7530 H   0  0  0  0  0  0  0  0  0  0  0  0
   -3.1155    0.3593    2.0671 H   0  0  0  0  0  0  0  0  0  0  0  0
   -5.5136   -0.1356    2.3253 H   0  0  0  0  0  0  0  0  0  0  0  0
   -6.4101   -2.3591    1.7028 H   0  0  0  0  0  0  0  0  0  0  0  0
   -4.8876   -4.0998    0.7973 H   0  0  0  0  0  0  0  0  0  0  0  0
   -2.4867   -3.6202    0.5081 H   0  0  0  0  0  0  0  0  0  0  0  0
    0.3815    1.8226    1.3637 H   0  0  0  0  0  0  0  0  0  0  0  0
    1.2773    0.5405    2.1808 H   0  0  0  0  0  0  0  0  0  0  0  0
    2.4391    2.2232   -0.1236 H   0  0  0  0  0  0  0  0  0  0  0  0
    2.4592    2.7719    1.5526 H   0  0  0  0  0  0  0  0  0  0  0  0
    6.4428    1.1728   -0.5546 H   0  0  0  0  0  0  0  0  0  0  0  0
  1  2  1  0
  2  3  2  0
  3  4  1  0
  4  5  2  0
  5  6  1  0
  6  7  1  0
  7  8  2  0
  7  9  1  0
  9 10  1  0
 10 11  1  0
 11 12  1  0
 12 13  2  0
 12 14  1  0
 14 15  1  0
 15 16  1  0
 16 17  1  0
 17 18  1  0
 18 19  1  0
 19 20  2  0
 20 21  1  0
 21 22  2  0
 22 23  1  0
 23 24  1  0
 24 25  1  0
 24 26  1  0
 24 27  1  0
 23 28  2  0
 15 29  1  0
 29 30  1  0
 30 31  2  0
 31 32  1  0
 32 33  2  0
 33 34  1  0
 34 35  2  0
 14 36  1  0
 36 37  1  0
  6 38  2  0
 38  2  1  0
 37  9  1  0
 28 19  1  0
 35 30  1  0
  1 39  1  0
  1 40  1  0
  1 41  1  0
  3 42  1  0
  4 43  1  0
  5 44  1  0
 10 45  1  0
 10 46  1  0
 11 47  1  0
 11 48  1  0
 15 49  1  0
 16 50  1  0
 16 51  1  0
 18 52  1  0
 18 53  1  0
 20 54  1  0
 21 55  1  0
 22 56  1  0
 28 57  1  0
 29 58  1  0
 29 59  1  0
 31 60  1  0
 32 61  1  0
 33 62  1  0
 34 63  1  0
 35 64  1  0
 36 65  1  0
 36 66  1  0
 37 67  1  0
 37 68  1  0
 38 69  1  0
M  END
$$$$
