
     RDKit          3D

 40 42  0  0  0  0  0  0  0  0999 V2000
    0.4559   -4.1964    0.0547 C   0  0  0  0  0  0  0  0  0  0  0  0
   -0.0854   -2.8750    0.0404 O   0  0  0  0  0  0  0  0  0  0  0  0
    0.8493   -1.8866    0.1382 C   0  0  0  0  0  0  0  0  0  0  0  0
    2.0550   -2.0975    0.2333 O   0  0  0  0  0  0  0  0  0  0  0  0
    0.2776   -0.5357    0.1017 C   0  0  0  0  0  0  0  0  0  0  0  0
    1.0844    0.5989    0.0714 C   0  0  0  0  0  0  0  0  0  0  0  0
    2.4706    0.6187    0.0967 N   0  0  0  0  0  0  0  0  0  0  0  0
    3.3169    1.7133    0.0746 C   0  0  0  0  0  0  0  0  0  0  0  0
    2.9838    2.8922    0.0296 O   0  0  0  0  0  0  0  0  0  0  0  0
    4.7176    1.3246    0.1141 C   0  0  0  0  0  0  0  0  0  0  0  0
    5.8727    2.0843    0.1084 C   0  0  0  0  0  0  0  0  0  0  0  0
    6.9587    1.1783    0.1605 C   0  0  0  0  0  0  0  0  0  0  0  0
    6.4056   -0.0795    0.1950 C   0  0  0  0  0  0  0  0  0  0  0  0
    5.0501   -0.0057    0.1675 O   0  0  0  0  0  0  0  0  0  0  0  0
    0.1885    2.0370   -0.0176 S   0  0  0  0  0  0  0  0  0  0  0  0
   -1.2895    1.2081   -0.0108 C   0  0  0  0  0  0  0  0  0  0  0  0
   -1.1225   -0.1606    0.0891 C   0  0  0  0  0  0  0  0  0  0  0  0
   -2.3283   -1.0528    0.1346 C   0  0  0  0  0  0  0  0  0  0  0  0
   -3.5901   -0.2660    0.5269 C   0  0  0  0  0  0  0  0  0  0  0  0
   -3.7109    1.0030   -0.2068 N   0  0  0  0  0  0  0  0  0  0  0  0
   -4.9234    1.5423   -0.6171 C   0  0  0  0  0  0  0  0  0  0  0  0
   -6.1136    0.6187   -0.6615 C   0  0  0  0  0  0  0  0  0  0  0  0
   -5.0458    2.7221   -0.9473 O   0  0  0  0  0  0  0  0  0  0  0  0
   -2.5916    1.9474   -0.0846 C   0  0  0  0  0  0  0  0  0  0  0  0
    0.9776   -4.3871    0.9978 H   0  0  0  0  0  0  0  0  0  0  0  0
    1.1255   -4.3461   -0.7981 H   0  0  0  0  0  0  0  0  0  0  0  0
   -0.3746   -4.9027   -0.0298 H   0  0  0  0  0  0  0  0  0  0  0  0
    2.9306   -0.2918    0.1463 H   0  0  0  0  0  0  0  0  0  0  0  0
    5.9098    3.1650    0.0706 H   0  0  0  0  0  0  0  0  0  0  0  0
    8.0139    1.4129    0.1714 H   0  0  0  0  0  0  0  0  0  0  0  0
    6.8184   -1.0781    0.2380 H   0  0  0  0  0  0  0  0  0  0  0  0
   -2.1915   -1.8638    0.8568 H   0  0  0  0  0  0  0  0  0  0  0  0
   -2.4694   -1.4971   -0.8582 H   0  0  0  0  0  0  0  0  0  0  0  0
   -3.5635   -0.0096    1.5939 H   0  0  0  0  0  0  0  0  0  0  0  0
   -4.4640   -0.9039    0.3767 H   0  0  0  0  0  0  0  0  0  0  0  0
   -6.9537    1.1350   -1.1365 H   0  0  0  0  0  0  0  0  0  0  0  0
   -5.8855   -0.2685   -1.2581 H   0  0  0  0  0  0  0  0  0  0  0  0
   -6.4109    0.3393    0.3524 H   0  0  0  0  0  0  0  0  0  0  0  0
   -2.7506    2.5303    0.8306 H   0  0  0  0  0  0  0  0  0  0  0  0
   -2.5981    2.6331   -0.9397 H   0  0  0  0  0  0  0  0  0  0  0  0
  1  2  1  0
  2  3  1  0
  3  4  2  0
  3  5  1  0
  5  6  2  0
  6  7  1  0
  7  8  1  0
  8  9  2  0
  8 10  1  0
 10 11  2  0
 11 12  1  0
 12 13  2  0
 13 14  1  0
  6 15  1  0
 15 16  1  0
 16 17  2  0
 17 18  1  0
 18 19  1  0
 19 20  1  0
 20 21  1  0
 21 22  1  0
 21 23  2  0
 20 24  1  0
 17  5  1  0
 14 10  1  0
 24 16  1  0
  1 25  1  0
  1 26  1  0
  1 27  1  0
  7 28  1  0
 11 29  1  0
 12 30  1  0
 13 31  1  0
 18 32  1  0
 18 33  1  0
 19 34  1  0
 19 35  1  0
 22 36  1  0
 22 37  1  0
 22 38  1  0
 24 39  1  0
 24 40  1  0
M  END
$$$$
