
     RDKit          3D

 64 67  0  0  0  0  0  0  0  0999 V2000
    2.1641    2.9466    1.2740 C   0  0  0  0  0  0  0  0  0  0  0  0
    1.1409    2.0810    1.7716 O   0  0  0  0  0  0  0  0  0  0  0  0
   -0.0961    2.3552    1.2447 C   0  0  0  0  0  0  0  0  0  0  0  0
   -0.6276    3.6522    1.3507 C   0  0  0  0  0  0  0  0  0  0  0  0
   -1.8835    3.9614    0.8221 C   0  0  0  0  0  0  0  0  0  0  0  0
   -2.4645    5.2037    0.8764 O   0  0  0  0  0  0  0  0  0  0  0  0
   -1.7583    6.2349    1.5542 C   0  0  0  0  0  0  0  0  0  0  0  0
   -2.6203    2.9527    0.1834 C   0  0  0  0  0  0  0  0  0  0  0  0
   -3.9304    3.2010   -0.4166 C   0  0  0  0  0  0  0  0  0  0  0  0
   -4.5981    2.2207   -1.0295 C   0  0  0  0  0  0  0  0  0  0  0  0
   -4.0647    0.8571   -1.1263 C   0  0  0  0  0  0  0  0  0  0  0  0
   -4.6868   -0.0225   -1.7090 O   0  0  0  0  0  0  0  0  0  0  0  0
   -2.8362    0.6343   -0.5261 O   0  0  0  0  0  0  0  0  0  0  0  0
   -2.0903    1.6562    0.1193 C   0  0  0  0  0  0  0  0  0  0  0  0
   -0.8354    1.3124    0.6634 C   0  0  0  0  0  0  0  0  0  0  0  0
   -0.3241   -0.1325    0.5739 C   0  0  0  0  0  0  0  0  0  0  0  0
    0.0579   -0.7125    1.9629 C   0  0  0  0  0  0  0  0  0  0  0  0
    0.2408   -2.2420    1.9765 C   0  0  0  0  0  0  0  0  0  0  0  0
   -0.9693   -2.9810    1.5801 N   0  0  0  0  0  0  0  0  0  0  0  0
   -0.6752   -4.4001    1.3279 C   0  0  0  0  0  0  0  0  0  0  0  0
   -0.7334   -5.0830    2.6852 C   0  0  0  0  0  0  0  0  0  0  0  0
   -1.6307   -4.1935    3.5347 C   0  0  0  0  0  0  0  0  0  0  0  0
   -1.9918   -3.0178    2.6367 C   0  0  0  0  0  0  0  0  0  0  0  0
    0.7186   -0.2996   -0.5302 C   0  0  0  0  0  0  0  0  0  0  0  0
    2.0940   -0.2367   -0.3056 C   0  0  0  0  0  0  0  0  0  0  0  0
    3.0087   -0.3941   -1.3602 C   0  0  0  0  0  0  0  0  0  0  0  0
    2.6026   -0.6303   -2.6841 C   0  0  0  0  0  0  0  0  0  0  0  0
    3.5236   -0.7783   -3.7315 N   0  0  0  0  0  0  0  0  0  0  0  0
    4.8989   -1.1448   -3.3995 C   0  0  0  0  0  0  0  0  0  0  0  0
    3.0416   -1.2622   -5.0248 C   0  0  0  0  0  0  0  0  0  0  0  0
    1.2148   -0.6624   -2.8935 C   0  0  0  0  0  0  0  0  0  0  0  0
    0.2935   -0.5069   -1.8466 C   0  0  0  0  0  0  0  0  0  0  0  0
    2.1770    3.8880    1.8344 H   0  0  0  0  0  0  0  0  0  0  0  0
    3.1265    2.4507    1.4336 H   0  0  0  0  0  0  0  0  0  0  0  0
    2.0548    3.1372    0.1982 H   0  0  0  0  0  0  0  0  0  0  0  0
   -0.0427    4.4057    1.8650 H   0  0  0  0  0  0  0  0  0  0  0  0
   -0.8069    6.4537    1.0582 H   0  0  0  0  0  0  0  0  0  0  0  0
   -1.6064    5.9822    2.6090 H   0  0  0  0  0  0  0  0  0  0  0  0
   -2.3706    7.1404    1.5129 H   0  0  0  0  0  0  0  0  0  0  0  0
   -4.3490    4.2003   -0.3595 H   0  0  0  0  0  0  0  0  0  0  0  0
   -5.5665    2.3860   -1.4853 H   0  0  0  0  0  0  0  0  0  0  0  0
   -1.1743   -0.7514    0.2616 H   0  0  0  0  0  0  0  0  0  0  0  0
   -0.7119   -0.4338    2.6936 H   0  0  0  0  0  0  0  0  0  0  0  0
    0.9859   -0.2707    2.3405 H   0  0  0  0  0  0  0  0  0  0  0  0
    1.0573   -2.4878    1.2864 H   0  0  0  0  0  0  0  0  0  0  0  0
    0.5849   -2.5461    2.9735 H   0  0  0  0  0  0  0  0  0  0  0  0
   -1.4605   -4.8084    0.6779 H   0  0  0  0  0  0  0  0  0  0  0  0
    0.2777   -4.5693    0.8130 H   0  0  0  0  0  0  0  0  0  0  0  0
   -1.1270   -6.1019    2.6082 H   0  0  0  0  0  0  0  0  0  0  0  0
    0.2658   -5.1403    3.1330 H   0  0  0  0  0  0  0  0  0  0  0  0
   -2.5251   -4.7271    3.8717 H   0  0  0  0  0  0  0  0  0  0  0  0
   -1.0864   -3.8555    4.4241 H   0  0  0  0  0  0  0  0  0  0  0  0
   -2.9658   -3.2057    2.1664 H   0  0  0  0  0  0  0  0  0  0  0  0
   -2.0953   -2.0852    3.1996 H   0  0  0  0  0  0  0  0  0  0  0  0
    2.4868   -0.0599    0.6910 H   0  0  0  0  0  0  0  0  0  0  0  0
    4.0611   -0.3187   -1.1058 H   0  0  0  0  0  0  0  0  0  0  0  0
    5.3914   -0.3550   -2.8222 H   0  0  0  0  0  0  0  0  0  0  0  0
    4.9341   -2.0872   -2.8410 H   0  0  0  0  0  0  0  0  0  0  0  0
    5.5028   -1.2751   -4.3052 H   0  0  0  0  0  0  0  0  0  0  0  0
    3.8573   -1.3231   -5.7543 H   0  0  0  0  0  0  0  0  0  0  0  0
    2.6046   -2.2626   -4.9338 H   0  0  0  0  0  0  0  0  0  0  0  0
    2.3068   -0.5746   -5.4564 H   0  0  0  0  0  0  0  0  0  0  0  0
    0.7994   -0.8164   -3.8841 H   0  0  0  0  0  0  0  0  0  0  0  0
   -0.7691   -0.5577   -2.0763 H   0  0  0  0  0  0  0  0  0  0  0  0
  1  2  1  0
  2  3  1  0
  3  4  2  0
  4  5  1  0
  5  6  1  0
  6  7  1  0
  5  8  2  0
  8  9  1  0
  9 10  2  0
 10 11  1  0
 11 12  2  0
 11 13  1  0
 13 14  1  0
 14 15  2  0
 15 16  1  0
 16 17  1  0
 17 18  1  0
 18 19  1  0
 19 20  1  0
 20 21  1  0
 21 22  1  0
 22 23  1  0
 16 24  1  0
 24 25  2  0
 25 26  1  0
 26 27  2  0
 27 28  1  0
 28 29  1  0
 28 30  1  0
 27 31  1  0
 31 32  2  0
 15  3  1  0
 23 19  1  0
 32 24  1  0
 14  8  1  0
  1 33  1  0
  1 34  1  0
  1 35  1  0
  4 36  1  0
  7 37  1  0
  7 38  1  0
  7 39  1  0
  9 40  1  0
 10 41  1  0
 16 42  1  0
 17 43  1  0
 17 44  1  0
 18 45  1  0
 18 46  1  0
 20 47  1  0
 20 48  1  0
 21 49  1  0
 21 50  1  0
 22 51  1  0
 22 52  1  0
 23 53  1  0
 23 54  1  0
 25 55  1  0
 26 56  1  0
 29 57  1  0
 29 58  1  0
 29 59  1  0
 30 60  1  0
 30 61  1  0
 30 62  1  0
 31 63  1  0
 32 64  1  0
M  END
$$$$
