
     RDKit          3D

 43 46  0  0  0  0  0  0  0  0999 V2000
   -5.0986   -2.9792    1.0370 C   0  0  0  0  0  0  0  0  0  0  0  0
   -3.6860   -2.5285    0.7201 C   0  0  0  0  0  0  0  0  0  0  0  0
   -3.7394   -1.1666    0.2838 O   0  0  0  0  0  0  0  0  0  0  0  0
   -2.5263   -0.6286   -0.0247 C   0  0  0  0  0  0  0  0  0  0  0  0
   -1.4626   -1.2334    0.0320 O   0  0  0  0  0  0  0  0  0  0  0  0
   -2.6852    0.7546   -0.4390 C   0  0  0  0  0  0  0  0  0  0  0  0
   -3.8633    1.4825   -0.5639 C   0  0  0  0  0  0  0  0  0  0  0  0
   -3.4953    2.7909   -0.9765 C   0  0  0  0  0  0  0  0  0  0  0  0
   -4.2471    4.3016   -1.3638 S   0  0  0  0  0  0  0  0  0  0  0  0
   -2.7000    4.9887   -1.6653 C   0  0  0  0  0  0  0  0  0  0  0  0
   -1.6486    4.1145   -1.4881 C   0  0  0  0  0  0  0  0  0  0  0  0
   -2.1391    2.8386   -1.0910 C   0  0  0  0  0  0  0  0  0  0  0  0
   -1.6351    1.5946   -0.7731 N   0  0  0  0  0  0  0  0  0  0  0  0
   -0.2167    1.2643   -0.8230 C   0  0  0  0  0  0  0  0  0  0  0  0
    0.4201    1.1937    0.5510 C   0  0  0  0  0  0  0  0  0  0  0  0
   -0.0388    1.7777    1.5322 O   0  0  0  0  0  0  0  0  0  0  0  0
    1.6823    0.4119    0.7096 C   0  0  0  0  0  0  0  0  0  0  0  0
    2.1053    0.0868    2.0079 C   0  0  0  0  0  0  0  0  0  0  0  0
    3.2786   -0.6442    2.2095 C   0  0  0  0  0  0  0  0  0  0  0  0
    4.0356   -1.0516    1.1153 C   0  0  0  0  0  0  0  0  0  0  0  0
    3.6382   -0.7002   -0.1785 C   0  0  0  0  0  0  0  0  0  0  0  0
    2.4590    0.0176   -0.3862 C   0  0  0  0  0  0  0  0  0  0  0  0
    4.3560   -1.0315   -1.3003 O   0  0  0  0  0  0  0  0  0  0  0  0
    5.6826   -1.4587   -0.9662 C   0  0  0  0  0  0  0  0  0  0  0  0
    5.6572   -2.4292    0.2031 C   0  0  0  0  0  0  0  0  0  0  0  0
    5.1628   -1.7842    1.3823 O   0  0  0  0  0  0  0  0  0  0  0  0
   -5.7395   -2.8881    0.1538 H   0  0  0  0  0  0  0  0  0  0  0  0
   -5.5388   -2.3481    1.8162 H   0  0  0  0  0  0  0  0  0  0  0  0
   -5.1098   -4.0188    1.3760 H   0  0  0  0  0  0  0  0  0  0  0  0
   -3.0632   -2.6061    1.6184 H   0  0  0  0  0  0  0  0  0  0  0  0
   -3.2677   -3.1558   -0.0750 H   0  0  0  0  0  0  0  0  0  0  0  0
   -4.8659    1.1216   -0.3749 H   0  0  0  0  0  0  0  0  0  0  0  0
   -2.6426    6.0271   -1.9617 H   0  0  0  0  0  0  0  0  0  0  0  0
   -0.6097    4.3813   -1.6286 H   0  0  0  0  0  0  0  0  0  0  0  0
    0.2965    2.0327   -1.4102 H   0  0  0  0  0  0  0  0  0  0  0  0
   -0.1356    0.3138   -1.3576 H   0  0  0  0  0  0  0  0  0  0  0  0
    1.5161    0.3946    2.8706 H   0  0  0  0  0  0  0  0  0  0  0  0
    3.5925   -0.9028    3.2172 H   0  0  0  0  0  0  0  0  0  0  0  0
    2.1863    0.2679   -1.4061 H   0  0  0  0  0  0  0  0  0  0  0  0
    6.1072   -1.9429   -1.8511 H   0  0  0  0  0  0  0  0  0  0  0  0
    6.2864   -0.5715   -0.7385 H   0  0  0  0  0  0  0  0  0  0  0  0
    6.6684   -2.7874    0.4200 H   0  0  0  0  0  0  0  0  0  0  0  0
    5.0242   -3.2995   -0.0104 H   0  0  0  0  0  0  0  0  0  0  0  0
  1  2  1  0
  2  3  1  0
  3  4  1  0
  4  5  2  0
  4  6  1  0
  6  7  2  0
  7  8  1  0
  8  9  1  0
  9 10  1  0
 10 11  2  0
 11 12  1  0
 12 13  1  0
 13 14  1  0
 14 15  1  0
 15 16  2  0
 15 17  1  0
 17 18  2  0
 18 19  1  0
 19 20  2  0
 20 21  1  0
 21 22  2  0
 21 23  1  0
 23 24  1  0
 24 25  1  0
 25 26  1  0
 13  6  1  0
 22 17  1  0
 12  8  2  0
 26 20  1  0
  1 27  1  0
  1 28  1  0
  1 29  1  0
  2 30  1  0
  2 31  1  0
  7 32  1  0
 10 33  1  0
 11 34  1  0
 14 35  1  0
 14 36  1  0
 18 37  1  0
 19 38  1  0
 22 39  1  0
 24 40  1  0
 24 41  1  0
 25 42  1  0
 25 43  1  0
M  END
$$$$
