
     RDKit          3D

 50 53  0  0  0  0  0  0  0  0999 V2000
    5.9486   -1.8235    0.8245 C   0  0  0  0  0  0  0  0  0  0  0  0
    4.6105   -1.5131    1.3640 C   0  0  0  0  0  0  0  0  0  0  0  0
    3.8378   -2.0642    2.3630 C   0  0  0  0  0  0  0  0  0  0  0  0
    2.6403   -1.3113    2.4024 C   0  0  0  0  0  0  0  0  0  0  0  0
    2.7561   -0.3451    1.4253 C   0  0  0  0  0  0  0  0  0  0  0  0
    1.8563    0.7392    0.9520 C   0  0  0  0  0  0  0  0  0  0  0  0
    0.8576    0.1867    0.0310 N   0  0  0  0  0  0  0  0  0  0  0  0
    1.3200   -0.1724   -1.3145 C   0  0  0  0  0  0  0  0  0  0  0  0
    1.7298    1.0226   -2.1292 C   0  0  0  0  0  0  0  0  0  0  0  0
    0.8100    2.0039   -2.5118 C   0  0  0  0  0  0  0  0  0  0  0  0
    1.2351    3.0895   -3.2719 C   0  0  0  0  0  0  0  0  0  0  0  0
    2.5713    3.1581   -3.6280 C   0  0  0  0  0  0  0  0  0  0  0  0
    3.4883    2.2318   -3.2781 N   0  0  0  0  0  0  0  0  0  0  0  0
    3.0502    1.1895   -2.5368 C   0  0  0  0  0  0  0  0  0  0  0  0
   -0.3757   -0.1811    0.5678 C   0  0  0  0  0  0  0  0  0  0  0  0
   -0.6486    0.0252    1.7537 O   0  0  0  0  0  0  0  0  0  0  0  0
   -1.3981   -0.8243   -0.3846 C   0  0  0  0  0  0  0  0  0  0  0  0
   -2.6723   -1.0989    0.2697 N   0  0  0  0  0  0  0  0  0  0  0  0
   -2.8515   -2.3482    0.8483 C   0  0  0  0  0  0  0  0  0  0  0  0
   -2.0310   -3.2631    0.7627 O   0  0  0  0  0  0  0  0  0  0  0  0
   -4.1208   -2.4918    1.6784 C   0  0  0  0  0  0  0  0  0  0  0  0
   -5.2592   -1.7533    1.2752 O   0  0  0  0  0  0  0  0  0  0  0  0
   -4.9450   -0.4773    0.8909 C   0  0  0  0  0  0  0  0  0  0  0  0
   -5.9883    0.4481    0.9654 C   0  0  0  0  0  0  0  0  0  0  0  0
   -5.7782    1.7687    0.5786 C   0  0  0  0  0  0  0  0  0  0  0  0
   -4.5270    2.1586    0.1094 C   0  0  0  0  0  0  0  0  0  0  0  0
   -3.4876    1.2265    0.0142 C   0  0  0  0  0  0  0  0  0  0  0  0
   -3.6848   -0.1078    0.3962 C   0  0  0  0  0  0  0  0  0  0  0  0
    3.9557   -0.4677    0.7861 O   0  0  0  0  0  0  0  0  0  0  0  0
    5.8855   -2.0617   -0.2417 H   0  0  0  0  0  0  0  0  0  0  0  0
    6.3910   -2.6813    1.3401 H   0  0  0  0  0  0  0  0  0  0  0  0
    6.6191   -0.9676    0.9488 H   0  0  0  0  0  0  0  0  0  0  0  0
    4.1043   -2.9067    2.9859 H   0  0  0  0  0  0  0  0  0  0  0  0
    1.7885   -1.4518    3.0548 H   0  0  0  0  0  0  0  0  0  0  0  0
    1.3690    1.2121    1.8116 H   0  0  0  0  0  0  0  0  0  0  0  0
    2.4224    1.5270    0.4447 H   0  0  0  0  0  0  0  0  0  0  0  0
    0.5501   -0.7057   -1.8770 H   0  0  0  0  0  0  0  0  0  0  0  0
    2.1472   -0.8842   -1.2126 H   0  0  0  0  0  0  0  0  0  0  0  0
   -0.2337    1.9313   -2.2194 H   0  0  0  0  0  0  0  0  0  0  0  0
    0.5422    3.8646   -3.5795 H   0  0  0  0  0  0  0  0  0  0  0  0
    2.9517    3.9851   -4.2208 H   0  0  0  0  0  0  0  0  0  0  0  0
    3.8220    0.4720   -2.2665 H   0  0  0  0  0  0  0  0  0  0  0  0
   -1.5647   -0.1858   -1.2575 H   0  0  0  0  0  0  0  0  0  0  0  0
   -0.9731   -1.7692   -0.7408 H   0  0  0  0  0  0  0  0  0  0  0  0
   -4.4067   -3.5493    1.6563 H   0  0  0  0  0  0  0  0  0  0  0  0
   -3.8790   -2.2385    2.7180 H   0  0  0  0  0  0  0  0  0  0  0  0
   -6.9628    0.1371    1.3324 H   0  0  0  0  0  0  0  0  0  0  0  0
   -6.5870    2.4914    0.6473 H   0  0  0  0  0  0  0  0  0  0  0  0
   -4.3569    3.1921   -0.1829 H   0  0  0  0  0  0  0  0  0  0  0  0
   -2.5288    1.5840   -0.3452 H   0  0  0  0  0  0  0  0  0  0  0  0
  1  2  1  0
  2  3  2  0
  3  4  1  0
  4  5  2  0
  5  6  1  0
  6  7  1  0
  7  8  1  0
  8  9  1  0
  9 10  2  0
 10 11  1  0
 11 12  2  0
 12 13  1  0
 13 14  2  0
  7 15  1  0
 15 16  2  0
 15 17  1  0
 17 18  1  0
 18 19  1  0
 19 20  2  0
 19 21  1  0
 21 22  1  0
 22 23  1  0
 23 24  2  0
 24 25  1  0
 25 26  2  0
 26 27  1  0
 27 28  2  0
  5 29  1  0
 29  2  1  0
 14  9  1  0
 28 18  1  0
 28 23  1  0
  1 30  1  0
  1 31  1  0
  1 32  1  0
  3 33  1  0
  4 34  1  0
  6 35  1  0
  6 36  1  0
  8 37  1  0
  8 38  1  0
 10 39  1  0
 11 40  1  0
 12 41  1  0
 14 42  1  0
 17 43  1  0
 17 44  1  0
 21 45  1  0
 21 46  1  0
 24 47  1  0
 25 48  1  0
 26 49  1  0
 27 50  1  0
M  END
$$$$
