
     RDKit          3D

 61 63  0  0  0  0  0  0  0  0999 V2000
   -5.9312   -1.4267   -2.4756 C   0  0  0  0  0  0  0  0  0  0  0  0
   -5.7783   -2.4650   -1.3724 C   0  0  0  0  0  0  0  0  0  0  0  0
   -4.4246   -2.3875   -0.6502 C   0  0  0  0  0  0  0  0  0  0  0  0
   -4.1113   -1.0680   -0.0713 N   0  0  0  0  0  0  0  0  0  0  0  0
   -4.9758   -0.7448    1.0740 C   0  0  0  0  0  0  0  0  0  0  0  0
   -4.7718    0.6765    1.6170 C   0  0  0  0  0  0  0  0  0  0  0  0
   -5.7885    1.0077    2.7009 C   0  0  0  0  0  0  0  0  0  0  0  0
   -2.6635   -0.9442    0.2018 C   0  0  0  0  0  0  0  0  0  0  0  0
   -2.0857   -1.8344    1.3197 C   0  0  0  0  0  0  0  0  0  0  0  0
   -0.6353   -1.5589    1.5154 N   0  0  0  0  0  0  0  0  0  0  0  0
    0.4111   -2.5600    0.6285 S   0  0  0  0  0  6  0  0  0  0  0  0
   -0.1729   -2.8401   -0.6622 O   0  0  0  0  0  0  0  0  0  0  0  0
    0.8046   -3.6094    1.5419 O   0  0  0  0  0  0  0  0  0  0  0  0
    1.7873   -1.4702    0.3801 C   0  0  0  0  0  0  0  0  0  0  0  0
    1.6682   -0.4239   -0.5482 C   0  0  0  0  0  0  0  0  0  0  0  0
    2.7413    0.4511   -0.7720 C   0  0  0  0  0  0  0  0  0  0  0  0
    3.9213    0.2614   -0.0725 C   0  0  0  0  0  0  0  0  0  0  0  0
    4.0195   -0.7880    0.8541 C   0  0  0  0  0  0  0  0  0  0  0  0
    2.9720   -1.6700    1.0879 C   0  0  0  0  0  0  0  0  0  0  0  0
    5.3762   -0.8386    1.4829 C   0  0  0  0  0  0  0  0  0  0  0  0
    5.9796    0.4806    1.0049 C   0  0  0  0  0  0  0  0  0  0  0  0
    5.1275    0.9854   -0.0835 N   0  0  0  0  0  0  0  0  0  0  0  0
    5.5662    2.0743   -0.8307 C   0  0  0  0  0  0  0  0  0  0  0  0
    6.6279    2.6346   -0.5102 O   0  0  0  0  0  0  0  0  0  0  0  0
    4.7686    2.5454   -2.0686 C   0  0  0  0  0  0  0  0  0  0  0  0
    3.8020    3.7520   -1.8799 C   0  0  0  0  0  0  0  0  0  0  0  0
    4.1976    4.2146   -3.2926 C   0  0  0  0  0  0  0  0  0  0  0  0
    5.5194    3.4517   -3.0941 C   0  0  0  0  0  0  0  0  0  0  0  0
   -6.8652   -1.5928   -3.0223 H   0  0  0  0  0  0  0  0  0  0  0  0
   -5.9627   -0.4124   -2.0648 H   0  0  0  0  0  0  0  0  0  0  0  0
   -5.1036   -1.4845   -3.1920 H   0  0  0  0  0  0  0  0  0  0  0  0
   -5.8706   -3.4637   -1.8185 H   0  0  0  0  0  0  0  0  0  0  0  0
   -6.6079   -2.3697   -0.6625 H   0  0  0  0  0  0  0  0  0  0  0  0
   -4.3905   -3.1659    0.1215 H   0  0  0  0  0  0  0  0  0  0  0  0
   -3.6593   -2.6497   -1.3909 H   0  0  0  0  0  0  0  0  0  0  0  0
   -6.0245   -0.8194    0.7630 H   0  0  0  0  0  0  0  0  0  0  0  0
   -4.8424   -1.4728    1.8837 H   0  0  0  0  0  0  0  0  0  0  0  0
   -3.7686    0.7842    2.0457 H   0  0  0  0  0  0  0  0  0  0  0  0
   -4.8667    1.4054    0.8016 H   0  0  0  0  0  0  0  0  0  0  0  0
   -5.6234    2.0220    3.0760 H   0  0  0  0  0  0  0  0  0  0  0  0
   -6.8115    0.9536    2.3128 H   0  0  0  0  0  0  0  0  0  0  0  0
   -5.7027    0.3138    3.5439 H   0  0  0  0  0  0  0  0  0  0  0  0
   -2.1199   -1.1316   -0.7334 H   0  0  0  0  0  0  0  0  0  0  0  0
   -2.4262    0.1040    0.4220 H   0  0  0  0  0  0  0  0  0  0  0  0
   -2.5794   -1.6119    2.2720 H   0  0  0  0  0  0  0  0  0  0  0  0
   -2.2487   -2.9000    1.1252 H   0  0  0  0  0  0  0  0  0  0  0  0
   -0.3890   -1.6808    2.5006 H   0  0  0  0  0  0  0  0  0  0  0  0
    0.7379   -0.2845   -1.0974 H   0  0  0  0  0  0  0  0  0  0  0  0
    2.5941    1.2546   -1.4774 H   0  0  0  0  0  0  0  0  0  0  0  0
    3.0803   -2.4862    1.7958 H   0  0  0  0  0  0  0  0  0  0  0  0
    5.3321   -0.8915    2.5744 H   0  0  0  0  0  0  0  0  0  0  0  0
    5.9394   -1.6923    1.0912 H   0  0  0  0  0  0  0  0  0  0  0  0
    5.9745    1.2303    1.8055 H   0  0  0  0  0  0  0  0  0  0  0  0
    7.0128    0.3595    0.6616 H   0  0  0  0  0  0  0  0  0  0  0  0
    4.3253    1.7049   -2.6183 H   0  0  0  0  0  0  0  0  0  0  0  0
    2.7431    3.5147   -1.7529 H   0  0  0  0  0  0  0  0  0  0  0  0
    4.1025    4.4492   -1.0879 H   0  0  0  0  0  0  0  0  0  0  0  0
    4.2870    5.2946   -3.4310 H   0  0  0  0  0  0  0  0  0  0  0  0
    3.5600    3.8041   -4.0839 H   0  0  0  0  0  0  0  0  0  0  0  0
    6.3183    4.0688   -2.6679 H   0  0  0  0  0  0  0  0  0  0  0  0
    5.9040    2.9404   -3.9810 H   0  0  0  0  0  0  0  0  0  0  0  0
  1  2  1  0
  2  3  1  0
  3  4  1  0
  4  5  1  0
  5  6  1  0
  6  7  1  0
  4  8  1  0
  8  9  1  0
  9 10  1  0
 10 11  1  0
 11 12  2  0
 11 13  2  0
 11 14  1  0
 14 15  2  0
 15 16  1  0
 16 17  2  0
 17 18  1  0
 18 19  2  0
 18 20  1  0
 20 21  1  0
 21 22  1  0
 22 23  1  0
 23 24  2  0
 23 25  1  0
 25 26  1  0
 26 27  1  0
 27 28  1  0
 19 14  1  0
 28 25  1  0
 22 17  1  0
  1 29  1  0
  1 30  1  0
  1 31  1  0
  2 32  1  0
  2 33  1  0
  3 34  1  0
  3 35  1  0
  5 36  1  0
  5 37  1  0
  6 38  1  0
  6 39  1  0
  7 40  1  0
  7 41  1  0
  7 42  1  0
  8 43  1  0
  8 44  1  0
  9 45  1  0
  9 46  1  0
 10 47  1  0
 15 48  1  0
 16 49  1  0
 19 50  1  0
 20 51  1  0
 20 52  1  0
 21 53  1  0
 21 54  1  0
 25 55  1  0
 26 56  1  0
 26 57  1  0
 27 58  1  0
 27 59  1  0
 28 60  1  0
 28 61  1  0
M  END
$$$$
