
     RDKit          3D

 42 44  0  0  0  0  0  0  0  0999 V2000
    7.5948   -1.9723   -2.0822 C   0  0  0  0  0  0  0  0  0  0  0  0
    7.3048   -0.8375   -1.2758 O   0  0  0  0  0  0  0  0  0  0  0  0
    5.9862   -0.5339   -1.0811 C   0  0  0  0  0  0  0  0  0  0  0  0
    4.8965   -1.2370   -1.5977 C   0  0  0  0  0  0  0  0  0  0  0  0
    3.5892   -0.8179   -1.3186 C   0  0  0  0  0  0  0  0  0  0  0  0
    3.3667    0.3052   -0.5112 C   0  0  0  0  0  0  0  0  0  0  0  0
    1.9913    0.7840   -0.1876 C   0  0  0  0  0  0  0  0  0  0  0  0
    1.8153    1.9911   -0.0859 O   0  0  0  0  0  0  0  0  0  0  0  0
    1.0646   -0.2270    0.0046 N   0  0  0  0  0  0  0  0  0  0  0  0
   -0.2907   -0.0728    0.2750 C   0  0  0  0  0  0  0  0  0  0  0  0
   -1.0330    1.4602    0.2719 S   0  0  0  0  0  0  0  0  0  0  0  0
   -2.5583    0.8122    0.6451 C   0  0  0  0  0  0  0  0  0  0  0  0
   -2.5230   -0.5620    0.7764 C   0  0  0  0  0  0  0  0  0  0  0  0
   -1.2065   -1.0753    0.5481 C   0  0  0  0  0  0  0  0  0  0  0  0
   -0.8542   -2.4631    0.5898 C   0  0  0  0  0  0  0  0  0  0  0  0
   -0.5303   -3.5770    0.6107 N   0  0  0  0  0  0  0  0  0  0  0  0
   -3.7732   -1.3245    1.0945 C   0  0  0  0  0  0  0  0  0  0  0  0
   -4.8210   -0.3990    1.7330 C   0  0  0  0  0  0  0  0  0  0  0  0
   -4.9714    0.8673    0.9960 N   0  0  0  0  0  0  0  0  0  0  0  0
   -6.2505    1.3987    0.8752 C   0  0  0  0  0  0  0  0  0  0  0  0
   -6.3733    2.7675    0.2529 C   0  0  0  0  0  0  0  0  0  0  0  0
   -7.2597    0.7942    1.2379 O   0  0  0  0  0  0  0  0  0  0  0  0
   -3.7620    1.6871    0.8131 C   0  0  0  0  0  0  0  0  0  0  0  0
    4.4584    1.0208   -0.0107 C   0  0  0  0  0  0  0  0  0  0  0  0
    5.7593    0.5966   -0.2915 C   0  0  0  0  0  0  0  0  0  0  0  0
    7.2214   -1.8369   -3.1026 H   0  0  0  0  0  0  0  0  0  0  0  0
    8.6829   -2.0746   -2.1366 H   0  0  0  0  0  0  0  0  0  0  0  0
    7.1961   -2.8879   -1.6330 H   0  0  0  0  0  0  0  0  0  0  0  0
    5.0294   -2.1095   -2.2295 H   0  0  0  0  0  0  0  0  0  0  0  0
    2.7618   -1.3631   -1.7653 H   0  0  0  0  0  0  0  0  0  0  0  0
    1.4178   -1.1764    0.0256 H   0  0  0  0  0  0  0  0  0  0  0  0
   -4.1724   -1.7396    0.1609 H   0  0  0  0  0  0  0  0  0  0  0  0
   -3.5624   -2.1599    1.7709 H   0  0  0  0  0  0  0  0  0  0  0  0
   -4.5272   -0.1356    2.7573 H   0  0  0  0  0  0  0  0  0  0  0  0
   -5.7747   -0.9331    1.7984 H   0  0  0  0  0  0  0  0  0  0  0  0
   -7.4264    3.0653    0.2403 H   0  0  0  0  0  0  0  0  0  0  0  0
   -5.8205    3.5057    0.8394 H   0  0  0  0  0  0  0  0  0  0  0  0
   -6.0133    2.7452   -0.7789 H   0  0  0  0  0  0  0  0  0  0  0  0
   -3.8821    2.3343   -0.0607 H   0  0  0  0  0  0  0  0  0  0  0  0
   -3.6559    2.3166    1.7042 H   0  0  0  0  0  0  0  0  0  0  0  0
    4.3012    1.9082    0.5993 H   0  0  0  0  0  0  0  0  0  0  0  0
    6.6041    1.1554    0.1052 H   0  0  0  0  0  0  0  0  0  0  0  0
  1  2  1  0
  2  3  1  0
  3  4  2  0
  4  5  1  0
  5  6  2  0
  6  7  1  0
  7  8  2  0
  7  9  1  0
  9 10  1  0
 10 11  1  0
 11 12  1  0
 12 13  2  0
 13 14  1  0
 14 15  1  0
 15 16  3  0
 13 17  1  0
 17 18  1  0
 18 19  1  0
 19 20  1  0
 20 21  1  0
 20 22  2  0
 19 23  1  0
  6 24  1  0
 24 25  2  0
 25  3  1  0
 14 10  2  0
 23 12  1  0
  1 26  1  0
  1 27  1  0
  1 28  1  0
  4 29  1  0
  5 30  1  0
  9 31  1  0
 17 32  1  0
 17 33  1  0
 18 34  1  0
 18 35  1  0
 21 36  1  0
 21 37  1  0
 21 38  1  0
 23 39  1  0
 23 40  1  0
 24 41  1  0
 25 42  1  0
M  END
$$$$
