
     RDKit          3D

 39 41  0  0  0  0  0  0  0  0999 V2000
   -2.1526   -0.7157   -2.5688 C   0  0  0  0  0  0  0  0  0  0  0  0
   -2.8471   -0.4505   -1.2597 C   0  0  0  0  0  0  0  0  0  0  0  0
   -4.2161   -0.7765   -1.2037 C   0  0  0  0  0  0  0  0  0  0  0  0
   -4.9846   -0.4738   -0.0856 C   0  0  0  0  0  0  0  0  0  0  0  0
   -4.3980    0.1661    0.9983 C   0  0  0  0  0  0  0  0  0  0  0  0
   -3.0287    0.4803    0.9906 C   0  0  0  0  0  0  0  0  0  0  0  0
   -2.4548    1.1474    2.2141 C   0  0  0  0  0  0  0  0  0  0  0  0
   -2.2325    0.1346   -0.1315 C   0  0  0  0  0  0  0  0  0  0  0  0
   -0.8537    0.4591   -0.0725 N   0  0  0  0  0  0  0  0  0  0  0  0
    0.1944   -0.3239   -0.5361 C   0  0  0  0  0  0  0  0  0  0  0  0
    0.0999   -1.4334   -1.0469 O   0  0  0  0  0  0  0  0  0  0  0  0
    1.5470    0.3547   -0.3137 C   0  0  0  0  0  0  0  0  0  0  0  0
    1.9079    0.4687    1.1829 C   0  0  0  0  0  0  0  0  0  0  0  0
    3.2809   -0.2224    1.2636 C   0  0  0  0  0  0  0  0  0  0  0  0
    4.3271    0.6477    0.5461 C   0  0  0  0  0  0  0  0  0  0  0  0
    3.9682    0.4690   -0.9368 C   0  0  0  0  0  0  0  0  0  0  0  0
    2.7370   -0.4537   -0.8839 C   0  0  0  0  0  0  0  0  0  0  0  0
    3.1037   -1.3768    0.2812 C   0  0  0  0  0  0  0  0  0  0  0  0
   -2.8469   -0.5724   -3.4055 H   0  0  0  0  0  0  0  0  0  0  0  0
   -1.7888   -1.7461   -2.6096 H   0  0  0  0  0  0  0  0  0  0  0  0
   -1.3318   -0.0146   -2.7449 H   0  0  0  0  0  0  0  0  0  0  0  0
   -4.6967   -1.2536   -2.0561 H   0  0  0  0  0  0  0  0  0  0  0  0
   -6.0418   -0.7244   -0.0670 H   0  0  0  0  0  0  0  0  0  0  0  0
   -5.0160    0.4086    1.8601 H   0  0  0  0  0  0  0  0  0  0  0  0
   -3.2078    1.2699    3.0001 H   0  0  0  0  0  0  0  0  0  0  0  0
   -1.6439    0.5430    2.6337 H   0  0  0  0  0  0  0  0  0  0  0  0
   -2.0802    2.1446    1.9616 H   0  0  0  0  0  0  0  0  0  0  0  0
   -0.5913    1.1346    0.6310 H   0  0  0  0  0  0  0  0  0  0  0  0
    1.4940    1.3447   -0.7845 H   0  0  0  0  0  0  0  0  0  0  0  0
    1.1847   -0.0540    1.8197 H   0  0  0  0  0  0  0  0  0  0  0  0
    1.9556    1.5131    1.5088 H   0  0  0  0  0  0  0  0  0  0  0  0
    3.5682   -0.5051    2.2782 H   0  0  0  0  0  0  0  0  0  0  0  0
    4.2848    1.6965    0.8563 H   0  0  0  0  0  0  0  0  0  0  0  0
    5.3404    0.2756    0.7349 H   0  0  0  0  0  0  0  0  0  0  0  0
    4.7949   -0.0164   -1.4682 H   0  0  0  0  0  0  0  0  0  0  0  0
    3.7614    1.4241   -1.4296 H   0  0  0  0  0  0  0  0  0  0  0  0
    2.5358   -0.9611   -1.8300 H   0  0  0  0  0  0  0  0  0  0  0  0
    4.0258   -1.9422    0.1090 H   0  0  0  0  0  0  0  0  0  0  0  0
    2.3015   -2.0655    0.5645 H   0  0  0  0  0  0  0  0  0  0  0  0
  1  2  1  0
  2  3  2  0
  3  4  1  0
  4  5  2  0
  5  6  1  0
  6  7  1  0
  6  8  2  0
  8  9  1  0
  9 10  1  0
 10 11  2  0
 10 12  1  0
 12 13  1  0
 13 14  1  0
 14 15  1  0
 15 16  1  0
 16 17  1  0
 17 18  1  0
  8  2  1  0
 17 12  1  0
 18 14  1  0
  1 19  1  0
  1 20  1  0
  1 21  1  0
  3 22  1  0
  4 23  1  0
  5 24  1  0
  7 25  1  0
  7 26  1  0
  7 27  1  0
  9 28  1  0
 12 29  1  0
 13 30  1  0
 13 31  1  0
 14 32  1  0
 15 33  1  0
 15 34  1  0
 16 35  1  0
 16 36  1  0
 17 37  1  0
 18 38  1  0
 18 39  1  0
M  END
$$$$
