
     RDKit          3D

 49 51  0  0  0  0  0  0  0  0999 V2000
   -4.6801    0.3915   -3.9979 C   0  0  0  0  0  0  0  0  0  0  0  0
   -5.3697    0.0993   -2.7898 O   0  0  0  0  0  0  0  0  0  0  0  0
   -4.6251   -0.0196   -1.6458 C   0  0  0  0  0  0  0  0  0  0  0  0
   -3.2336    0.0486   -1.5888 C   0  0  0  0  0  0  0  0  0  0  0  0
   -2.5723   -0.0696   -0.3579 C   0  0  0  0  0  0  0  0  0  0  0  0
   -1.0881    0.0109   -0.3552 C   0  0  0  0  0  0  0  0  0  0  0  0
   -0.4452   -0.3996   -1.3174 O   0  0  0  0  0  0  0  0  0  0  0  0
   -0.5088    0.6089    0.7562 N   0  0  0  0  0  0  0  0  0  0  0  0
    0.8368    0.7575    1.0688 C   0  0  0  0  0  0  0  0  0  0  0  0
    1.1512    1.5611    2.4961 S   0  0  0  0  0  0  0  0  0  0  0  0
    1.6993    0.2172    0.1441 N   0  0  0  0  0  0  0  0  0  0  0  0
    3.1035    0.0895    0.0707 C   0  0  0  0  0  0  0  0  0  0  0  0
    3.6011   -0.4625   -1.1415 C   0  0  0  0  0  0  0  0  0  0  0  0
    4.9702   -0.6564   -1.3646 C   0  0  0  0  0  0  0  0  0  0  0  0
    5.8246   -0.2898   -0.3498 C   0  0  0  0  0  0  0  0  0  0  0  0
    5.3548    0.2411    0.8357 C   0  0  0  0  0  0  0  0  0  0  0  0
    4.0051    0.4408    1.0784 C   0  0  0  0  0  0  0  0  0  0  0  0
    6.5144    0.5003    1.6893 C   0  0  0  0  0  0  0  0  0  0  0  0
    6.4506    0.9432    2.8196 O   0  0  0  0  0  0  0  0  0  0  0  0
    7.6173    0.1359    0.9663 N   0  0  0  0  0  0  0  0  0  0  0  0
    8.9647    0.2078    1.4739 C   0  0  0  0  0  0  0  0  0  0  0  0
    7.2814   -0.3670   -0.2592 C   0  0  0  0  0  0  0  0  0  0  0  0
    7.9966   -0.8131   -1.1354 O   0  0  0  0  0  0  0  0  0  0  0  0
   -3.2944   -0.2860    0.8251 C   0  0  0  0  0  0  0  0  0  0  0  0
   -4.6877   -0.3566    0.7855 C   0  0  0  0  0  0  0  0  0  0  0  0
   -5.4923   -0.5603    1.8759 O   0  0  0  0  0  0  0  0  0  0  0  0
   -4.8854   -0.5556    3.1607 C   0  0  0  0  0  0  0  0  0  0  0  0
   -5.3413   -0.2345   -0.4547 C   0  0  0  0  0  0  0  0  0  0  0  0
   -6.7187   -0.2530   -0.4897 O   0  0  0  0  0  0  0  0  0  0  0  0
   -7.1820   -1.5836   -0.7146 C   0  0  0  0  0  0  0  0  0  0  0  0
   -4.1415    1.3423   -3.9264 H   0  0  0  0  0  0  0  0  0  0  0  0
   -5.4255    0.4902   -4.7929 H   0  0  0  0  0  0  0  0  0  0  0  0
   -4.0062   -0.4262   -4.2733 H   0  0  0  0  0  0  0  0  0  0  0  0
   -2.6375    0.1982   -2.4844 H   0  0  0  0  0  0  0  0  0  0  0  0
   -1.1162    1.0369    1.4425 H   0  0  0  0  0  0  0  0  0  0  0  0
    1.2076   -0.1409   -0.6781 H   0  0  0  0  0  0  0  0  0  0  0  0
    2.9093   -0.7472   -1.9345 H   0  0  0  0  0  0  0  0  0  0  0  0
    5.3429   -1.0776   -2.2925 H   0  0  0  0  0  0  0  0  0  0  0  0
    3.7171    0.8459    2.0376 H   0  0  0  0  0  0  0  0  0  0  0  0
    9.6873    0.1686    0.6547 H   0  0  0  0  0  0  0  0  0  0  0  0
    9.1265   -0.6446    2.1405 H   0  0  0  0  0  0  0  0  0  0  0  0
    9.0933    1.1299    2.0478 H   0  0  0  0  0  0  0  0  0  0  0  0
   -2.7624   -0.4290    1.7588 H   0  0  0  0  0  0  0  0  0  0  0  0
   -4.2123   -1.4109    3.2784 H   0  0  0  0  0  0  0  0  0  0  0  0
   -5.6798   -0.6520    3.9068 H   0  0  0  0  0  0  0  0  0  0  0  0
   -4.3627    0.3879    3.3496 H   0  0  0  0  0  0  0  0  0  0  0  0
   -6.8442   -1.9668   -1.6835 H   0  0  0  0  0  0  0  0  0  0  0  0
   -8.2758   -1.5596   -0.7246 H   0  0  0  0  0  0  0  0  0  0  0  0
   -6.8667   -2.2575    0.0896 H   0  0  0  0  0  0  0  0  0  0  0  0
  1  2  1  0
  2  3  1  0
  3  4  2  0
  4  5  1  0
  5  6  1  0
  6  7  2  0
  6  8  1  0
  8  9  1  0
  9 10  2  0
  9 11  1  0
 11 12  1  0
 12 13  2  0
 13 14  1  0
 14 15  2  0
 15 16  1  0
 16 17  2  0
 16 18  1  0
 18 19  2  0
 18 20  1  0
 20 21  1  0
 20 22  1  0
 22 23  2  0
  5 24  2  0
 24 25  1  0
 25 26  1  0
 26 27  1  0
 25 28  2  0
 28 29  1  0
 29 30  1  0
 28  3  1  0
 17 12  1  0
 22 15  1  0
  1 31  1  0
  1 32  1  0
  1 33  1  0
  4 34  1  0
  8 35  1  0
 11 36  1  0
 13 37  1  0
 14 38  1  0
 17 39  1  0
 21 40  1  0
 21 41  1  0
 21 42  1  0
 24 43  1  0
 27 44  1  0
 27 45  1  0
 27 46  1  0
 30 47  1  0
 30 48  1  0
 30 49  1  0
M  END
$$$$
