
     RDKit          3D

 48 51  0  0  0  0  0  0  0  0999 V2000
    4.4779    0.4075   -4.2549 C   0  0  0  0  0  0  0  0  0  0  0  0
    3.6736    0.5536   -2.9980 C   0  0  0  0  0  0  0  0  0  0  0  0
    2.4545    1.2354   -2.9984 C   0  0  0  0  0  0  0  0  0  0  0  0
    1.7287    1.3831   -1.8131 C   0  0  0  0  0  0  0  0  0  0  0  0
    2.1958    0.8817   -0.6040 C   0  0  0  0  0  0  0  0  0  0  0  0
    1.4645    1.0575    0.5070 N   0  0  0  0  0  0  0  0  0  0  0  0
    1.9626    0.6261    1.6940 C   0  0  0  0  0  0  0  0  0  0  0  0
    0.9473    0.9744    3.1202 S   0  0  0  0  0  0  0  0  0  0  0  0
   -0.5951    0.1770    2.5560 C   0  0  0  0  0  0  0  0  0  0  0  0
   -1.5003    1.0715    1.7211 C   0  0  0  0  0  0  0  0  0  0  0  0
   -1.3798    2.3028    1.7066 O   0  0  0  0  0  0  0  0  0  0  0  0
   -2.5172    0.4660    0.9908 N   0  0  0  0  0  0  0  0  0  0  0  0
   -3.0499   -0.8405    1.0100 C   0  0  0  0  0  0  0  0  0  0  0  0
   -2.6818   -1.9742    1.7183 C   0  0  0  0  0  0  0  0  0  0  0  0
   -3.3962   -3.1627    1.5264 C   0  0  0  0  0  0  0  0  0  0  0  0
   -4.4885   -3.2133    0.6559 C   0  0  0  0  0  0  0  0  0  0  0  0
   -4.8858   -2.0701   -0.0279 C   0  0  0  0  0  0  0  0  0  0  0  0
   -4.1597   -0.8997    0.1603 C   0  0  0  0  0  0  0  0  0  0  0  0
   -4.4886    0.4393   -0.4169 C   0  0  0  0  0  0  0  0  0  0  0  0
   -3.2470    1.2582   -0.0324 C   0  0  0  0  0  0  0  0  0  0  0  0
   -2.3609    1.5015   -1.2605 C   0  0  0  0  0  0  0  0  0  0  0  0
    3.1871   -0.0431    1.8136 C   0  0  0  0  0  0  0  0  0  0  0  0
    3.7417   -0.5181    3.1257 C   0  0  0  0  0  0  0  0  0  0  0  0
    3.9217   -0.2500    0.6402 C   0  0  0  0  0  0  0  0  0  0  0  0
    3.4391    0.2172   -0.5914 C   0  0  0  0  0  0  0  0  0  0  0  0
    4.1662    0.0499   -1.7843 C   0  0  0  0  0  0  0  0  0  0  0  0
    4.8274   -0.6254   -4.3687 H   0  0  0  0  0  0  0  0  0  0  0  0
    5.3455    1.0795   -4.2237 H   0  0  0  0  0  0  0  0  0  0  0  0
    3.8852    0.6542   -5.1379 H   0  0  0  0  0  0  0  0  0  0  0  0
    2.0560    1.6659   -3.9156 H   0  0  0  0  0  0  0  0  0  0  0  0
    0.7800    1.9251   -1.8284 H   0  0  0  0  0  0  0  0  0  0  0  0
   -1.1476   -0.1165    3.4502 H   0  0  0  0  0  0  0  0  0  0  0  0
   -0.3117   -0.7112    1.9761 H   0  0  0  0  0  0  0  0  0  0  0  0
   -1.8623   -2.0060    2.4204 H   0  0  0  0  0  0  0  0  0  0  0  0
   -3.1001   -4.0617    2.0619 H   0  0  0  0  0  0  0  0  0  0  0  0
   -5.0342   -4.1421    0.5252 H   0  0  0  0  0  0  0  0  0  0  0  0
   -5.7485   -2.0933   -0.6847 H   0  0  0  0  0  0  0  0  0  0  0  0
   -5.3841    0.8354    0.0788 H   0  0  0  0  0  0  0  0  0  0  0  0
   -4.6599    0.3931   -1.4928 H   0  0  0  0  0  0  0  0  0  0  0  0
   -3.5445    2.2330    0.3885 H   0  0  0  0  0  0  0  0  0  0  0  0
   -2.9263    1.9909   -2.0626 H   0  0  0  0  0  0  0  0  0  0  0  0
   -1.5105    2.1406   -1.0112 H   0  0  0  0  0  0  0  0  0  0  0  0
   -1.9597    0.5551   -1.6458 H   0  0  0  0  0  0  0  0  0  0  0  0
    3.0118   -1.1340    3.6619 H   0  0  0  0  0  0  0  0  0  0  0  0
    4.0303    0.3374    3.7460 H   0  0  0  0  0  0  0  0  0  0  0  0
    4.6335   -1.1402    2.9774 H   0  0  0  0  0  0  0  0  0  0  0  0
    4.8853   -0.7663    0.6884 H   0  0  0  0  0  0  0  0  0  0  0  0
    5.1249   -0.4667   -1.7678 H   0  0  0  0  0  0  0  0  0  0  0  0
  1  2  1  0
  2  3  2  0
  3  4  1  0
  4  5  2  0
  5  6  1  0
  6  7  2  0
  7  8  1  0
  8  9  1  0
  9 10  1  0
 10 11  2  0
 10 12  1  0
 12 13  1  0
 13 14  2  0
 14 15  1  0
 15 16  2  0
 16 17  1  0
 17 18  2  0
 18 19  1  0
 19 20  1  0
 20 21  1  0
  7 22  1  0
 22 23  1  0
 22 24  2  0
 24 25  1  0
 25 26  2  0
 26  2  1  0
 25  5  1  0
 20 12  1  0
 18 13  1  0
  1 27  1  0
  1 28  1  0
  1 29  1  0
  3 30  1  0
  4 31  1  0
  9 32  1  0
  9 33  1  0
 14 34  1  0
 15 35  1  0
 16 36  1  0
 17 37  1  0
 19 38  1  0
 19 39  1  0
 20 40  1  0
 21 41  1  0
 21 42  1  0
 21 43  1  0
 23 44  1  0
 23 45  1  0
 23 46  1  0
 24 47  1  0
 26 48  1  0
M  END
$$$$
