
     RDKit          3D

 36 37  0  0  0  0  0  0  0  0999 V2000
   -5.1837    1.4723   -1.4647 C   0  0  0  0  0  0  0  0  0  0  0  0
   -4.1349    0.6737   -0.8579 N   0  0  0  0  0  0  0  0  0  0  0  0
   -4.4874   -0.1827    0.1772 C   0  0  0  0  0  0  0  0  0  0  0  0
   -5.6353   -0.2970    0.6024 O   0  0  0  0  0  0  0  0  0  0  0  0
   -3.3907   -0.9704    0.7816 C   0  0  0  0  0  0  0  0  0  0  0  0
   -3.6666   -1.8983    1.8183 C   0  0  0  0  0  0  0  0  0  0  0  0
   -3.8243   -2.6751    2.6663 N   0  0  0  0  0  0  0  0  0  0  0  0
   -2.1468   -0.7749    0.3341 C   0  0  0  0  0  0  0  0  0  0  0  0
   -1.8539    0.1252   -0.6669 N   0  0  0  0  0  0  0  0  0  0  0  0
   -0.4515    0.3218   -1.0564 C   0  0  0  0  0  0  0  0  0  0  0  0
    0.2051    1.4893   -0.2999 C   0  0  0  0  0  0  0  0  0  0  0  0
    1.6244    1.6400   -0.6138 N   0  0  0  0  0  0  0  0  0  0  0  0
    2.5082    0.6879   -0.0888 C   0  0  0  0  0  0  0  0  0  0  0  0
    2.0429   -0.2123    0.8105 N   0  0  0  0  0  0  0  0  0  0  0  0
    2.9215   -1.0829    1.3656 C   0  0  0  0  0  0  0  0  0  0  0  0
    4.2762   -1.1130    1.0759 C   0  0  0  0  0  0  0  0  0  0  0  0
    5.1624   -2.1299    1.7241 C   0  0  0  0  0  0  0  0  0  0  0  0
    5.1206   -3.3291    1.0835 F   0  0  0  0  0  0  0  0  0  0  0  0
    4.8215   -2.3827    3.0170 F   0  0  0  0  0  0  0  0  0  0  0  0
    6.4722   -1.7615    1.7476 F   0  0  0  0  0  0  0  0  0  0  0  0
    4.7519   -0.1904    0.1426 C   0  0  0  0  0  0  0  0  0  0  0  0
    3.8686    0.7208   -0.4367 C   0  0  0  0  0  0  0  0  0  0  0  0
    4.4856    1.8477   -1.5916 Cl  0  0  0  0  0  0  0  0  0  0  0  0
   -2.8275    0.9168   -1.2716 C   0  0  0  0  0  0  0  0  0  0  0  0
   -2.5396    1.7773   -2.1032 O   0  0  0  0  0  0  0  0  0  0  0  0
   -4.9656    1.6582   -2.5208 H   0  0  0  0  0  0  0  0  0  0  0  0
   -5.2310    2.4319   -0.9401 H   0  0  0  0  0  0  0  0  0  0  0  0
   -6.1563    0.9776   -1.3895 H   0  0  0  0  0  0  0  0  0  0  0  0
   -1.3045   -1.3215    0.7563 H   0  0  0  0  0  0  0  0  0  0  0  0
   -0.4094    0.5234   -2.1345 H   0  0  0  0  0  0  0  0  0  0  0  0
    0.0899   -0.6193   -0.9071 H   0  0  0  0  0  0  0  0  0  0  0  0
    0.0541    1.3902    0.7827 H   0  0  0  0  0  0  0  0  0  0  0  0
   -0.2967    2.4233   -0.5794 H   0  0  0  0  0  0  0  0  0  0  0  0
    1.8143    1.8160   -1.5977 H   0  0  0  0  0  0  0  0  0  0  0  0
    2.4804   -1.7764    2.0800 H   0  0  0  0  0  0  0  0  0  0  0  0
    5.8060   -0.1761   -0.1278 H   0  0  0  0  0  0  0  0  0  0  0  0
  1  2  1  0
  2  3  1  0
  3  4  2  0
  3  5  1  0
  5  6  1  0
  6  7  3  0
  5  8  2  0
  8  9  1  0
  9 10  1  0
 10 11  1  0
 11 12  1  0
 12 13  1  0
 13 14  2  0
 14 15  1  0
 15 16  2  0
 16 17  1  0
 17 18  1  0
 17 19  1  0
 17 20  1  0
 16 21  1  0
 21 22  2  0
 22 23  1  0
  9 24  1  0
 24 25  2  0
 24  2  1  0
 22 13  1  0
  1 26  1  0
  1 27  1  0
  1 28  1  0
  8 29  1  0
 10 30  1  0
 10 31  1  0
 11 32  1  0
 11 33  1  0
 12 34  1  0
 15 35  1  0
 21 36  1  0
M  END
$$$$
