
     RDKit          3D

 46 49  0  0  0  0  0  0  0  0999 V2000
    3.2905   -5.0346   -1.1360 O   0  0  0  0  0  0  0  0  0  0  0  0
    4.1593   -4.3129   -0.6257 N   0  0  0  0  0  4  0  0  0  0  0  0
    5.1190   -4.7323    0.0377 O   0  0  0  0  0  1  0  0  0  0  0  0
    4.0482   -2.8627   -0.8245 C   0  0  0  0  0  0  0  0  0  0  0  0
    5.0721   -2.0216   -0.3707 C   0  0  0  0  0  0  0  0  0  0  0  0
    4.9621   -0.6443   -0.5601 C   0  0  0  0  0  0  0  0  0  0  0  0
    3.8394   -0.1121   -1.1981 C   0  0  0  0  0  0  0  0  0  0  0  0
    2.8110   -0.9487   -1.6607 C   0  0  0  0  0  0  0  0  0  0  0  0
    1.5888   -0.3551   -2.3280 C   0  0  0  0  0  0  0  0  0  0  0  0
    0.5640    0.1328   -1.3523 C   0  0  0  0  0  0  0  0  0  0  0  0
   -0.4803   -0.9732   -0.4863 S   0  0  0  0  0  0  0  0  0  0  0  0
   -1.2780    0.3859    0.3885 C   0  0  0  0  0  0  0  0  0  0  0  0
   -2.2230    0.2305    1.2655 N   0  0  0  0  0  0  0  0  0  0  0  0
   -2.6894   -1.0440    1.6059 C   0  0  0  0  0  0  0  0  0  0  0  0
   -3.7933   -1.5889    0.9447 C   0  0  0  0  0  0  0  0  0  0  0  0
   -4.2786   -2.8494    1.2985 C   0  0  0  0  0  0  0  0  0  0  0  0
   -3.6691   -3.5661    2.3276 C   0  0  0  0  0  0  0  0  0  0  0  0
   -2.5810   -3.0200    3.0073 C   0  0  0  0  0  0  0  0  0  0  0  0
   -2.0984   -1.7590    2.6515 C   0  0  0  0  0  0  0  0  0  0  0  0
   -0.7116    1.5885   -0.0660 N   0  0  0  0  0  0  0  0  0  0  0  0
   -1.2550    2.8543    0.2990 C   0  0  0  0  0  0  0  0  0  0  0  0
   -1.5442    3.1598    1.6387 C   0  0  0  0  0  0  0  0  0  0  0  0
   -2.0608    4.4072    2.0008 C   0  0  0  0  0  0  0  0  0  0  0  0
   -2.3029    5.3721    1.0272 C   0  0  0  0  0  0  0  0  0  0  0  0
   -2.0355    5.0889   -0.3090 C   0  0  0  0  0  0  0  0  0  0  0  0
   -1.5190    3.8411   -0.6690 C   0  0  0  0  0  0  0  0  0  0  0  0
    0.3017    1.4075   -1.0140 C   0  0  0  0  0  0  0  0  0  0  0  0
    1.0508    2.4523   -1.5009 O   0  0  0  0  0  0  0  0  0  0  0  0
    2.9190   -2.3342   -1.4662 C   0  0  0  0  0  0  0  0  0  0  0  0
    5.9527   -2.4201    0.1286 H   0  0  0  0  0  0  0  0  0  0  0  0
    5.7504    0.0177   -0.2084 H   0  0  0  0  0  0  0  0  0  0  0  0
    3.7666    0.9666   -1.3323 H   0  0  0  0  0  0  0  0  0  0  0  0
    1.9147    0.4593   -2.9884 H   0  0  0  0  0  0  0  0  0  0  0  0
    1.1382   -1.0949   -3.0029 H   0  0  0  0  0  0  0  0  0  0  0  0
   -4.2753   -1.0263    0.1503 H   0  0  0  0  0  0  0  0  0  0  0  0
   -5.1328   -3.2684    0.7738 H   0  0  0  0  0  0  0  0  0  0  0  0
   -4.0461   -4.5473    2.6042 H   0  0  0  0  0  0  0  0  0  0  0  0
   -2.1103   -3.5728    3.8157 H   0  0  0  0  0  0  0  0  0  0  0  0
   -1.2572   -1.3310    3.1887 H   0  0  0  0  0  0  0  0  0  0  0  0
   -1.3635    2.4255    2.4215 H   0  0  0  0  0  0  0  0  0  0  0  0
   -2.2791    4.6189    3.0446 H   0  0  0  0  0  0  0  0  0  0  0  0
   -2.7115    6.3392    1.3093 H   0  0  0  0  0  0  0  0  0  0  0  0
   -2.2414    5.8335   -1.0740 H   0  0  0  0  0  0  0  0  0  0  0  0
   -1.3523    3.6346   -1.7247 H   0  0  0  0  0  0  0  0  0  0  0  0
    0.9220    3.1924   -0.8817 H   0  0  0  0  0  0  0  0  0  0  0  0
    2.1189   -2.9887   -1.8092 H   0  0  0  0  0  0  0  0  0  0  0  0
  1  2  2  0
  2  3  1  0
  2  4  1  0
  4  5  2  0
  5  6  1  0
  6  7  2  0
  7  8  1  0
  8  9  1  0
  9 10  1  0
 10 11  1  0
 11 12  1  0
 12 13  2  3
 13 14  1  0
 14 15  2  0
 15 16  1  0
 16 17  2  0
 17 18  1  0
 18 19  2  0
 12 20  1  0
 20 21  1  0
 21 22  2  0
 22 23  1  0
 23 24  2  0
 24 25  1  0
 25 26  2  0
 20 27  1  0
 27 28  1  0
  8 29  2  0
 29  4  1  0
 27 10  2  0
 19 14  1  0
 26 21  1  0
  5 30  1  0
  6 31  1  0
  7 32  1  0
  9 33  1  0
  9 34  1  0
 15 35  1  0
 16 36  1  0
 17 37  1  0
 18 38  1  0
 19 39  1  0
 22 40  1  0
 23 41  1  0
 24 42  1  0
 25 43  1  0
 26 44  1  0
 28 45  1  0
 29 46  1  0
M  CHG  2   2   1   3  -1
M  END
$$$$
