
     RDKit          3D

 67 72  0  0  0  0  0  0  0  0999 V2000
    6.5047    0.2760    1.6973 C   0  0  0  0  0  0  0  0  0  0  0  0
    5.6145    1.2849    0.9632 C   0  0  0  0  0  0  0  0  0  0  0  0
    5.2694    2.4276    1.9330 C   0  0  0  0  0  0  0  0  0  0  0  0
    6.3133    1.8857   -0.2631 C   0  0  0  0  0  0  0  0  0  0  0  0
    4.3326    0.7053    0.6102 O   0  0  0  0  0  0  0  0  0  0  0  0
    4.2525   -0.3347   -0.2609 C   0  0  0  0  0  0  0  0  0  0  0  0
    5.2154   -0.8816   -0.7842 O   0  0  0  0  0  0  0  0  0  0  0  0
    2.9475   -0.7158   -0.4959 N   0  0  0  0  0  0  0  0  0  0  0  0
    2.6886   -1.8357   -1.4013 C   0  0  0  0  0  0  0  0  0  0  0  0
    1.2482   -2.3670   -1.2872 C   0  0  0  0  0  0  0  0  0  0  0  0
    0.2689   -1.3130   -1.5445 N   0  0  0  0  0  0  0  0  0  0  0  0
    0.5749   -0.0124   -0.8466 C   0  0  2  0  0  0  0  0  0  0  0  0
    1.7817   -0.0696    0.1136 C   0  0  0  0  0  0  0  0  0  0  0  0
   -0.7025    0.3125   -0.1727 C   0  0  0  0  0  0  0  0  0  0  0  0
   -1.7004   -0.6218   -0.4822 C   0  0  0  0  0  0  0  0  0  0  0  0
   -2.8443   -0.2719    0.1909 C   0  0  0  0  0  0  0  0  0  0  0  0
   -4.0436   -0.8366    0.2650 O   0  0  0  0  0  0  0  0  0  0  0  0
   -2.5528    0.8945    0.8816 N   0  0  0  0  0  0  0  0  0  0  0  0
   -3.4775    1.5971    1.7635 C   0  0  0  0  0  0  0  0  0  0  0  0
   -4.1906    2.7283    1.0644 C   0  0  0  0  0  0  0  0  0  0  0  0
   -3.7563    4.0525    1.2230 C   0  0  0  0  0  0  0  0  0  0  0  0
   -4.4247    5.1002    0.5858 C   0  0  0  0  0  0  0  0  0  0  0  0
   -5.5309    4.8364   -0.2195 C   0  0  0  0  0  0  0  0  0  0  0  0
   -5.9658    3.5241   -0.3937 C   0  0  0  0  0  0  0  0  0  0  0  0
   -5.2988    2.4758    0.2429 C   0  0  0  0  0  0  0  0  0  0  0  0
   -1.2301    1.2546    0.6707 C   0  0  0  0  0  0  0  0  0  0  0  0
   -0.7106    2.3341    1.2401 O   0  0  0  0  0  0  0  0  0  0  0  0
   -1.1807   -1.6564   -1.4013 C   0  0  1  0  0  0  0  0  0  0  0  0
   -1.8626   -1.6294   -2.8097 C   0  0  0  0  0  0  0  0  0  0  0  0
   -1.8703   -0.7394   -3.6475 O   0  0  0  0  0  0  0  0  0  0  0  0
   -2.4955   -2.8635   -2.9741 N   0  0  0  0  0  0  0  0  0  0  0  0
   -2.3449   -3.6664   -1.8537 C   0  0  0  0  0  0  0  0  0  0  0  0
   -2.8700   -4.9301   -1.6727 C   0  0  0  0  0  0  0  0  0  0  0  0
   -2.6377   -5.5520   -0.4441 C   0  0  0  0  0  0  0  0  0  0  0  0
   -1.9043   -4.9001    0.5632 C   0  0  0  0  0  0  0  0  0  0  0  0
   -1.3814   -3.6185    0.3563 C   0  0  0  0  0  0  0  0  0  0  0  0
   -1.5945   -3.0079   -0.8728 C   0  0  0  0  0  0  0  0  0  0  0  0
    7.4169    0.7545    2.0717 H   0  0  0  0  0  0  0  0  0  0  0  0
    5.9711   -0.1751    2.5425 H   0  0  0  0  0  0  0  0  0  0  0  0
    6.8126   -0.5503    1.0476 H   0  0  0  0  0  0  0  0  0  0  0  0
    4.6031    3.1566    1.4552 H   0  0  0  0  0  0  0  0  0  0  0  0
    4.7330    2.0499    2.8118 H   0  0  0  0  0  0  0  0  0  0  0  0
    6.1669    2.9537    2.2770 H   0  0  0  0  0  0  0  0  0  0  0  0
    7.1785    2.4912    0.0285 H   0  0  0  0  0  0  0  0  0  0  0  0
    6.6722    1.1136   -0.9501 H   0  0  0  0  0  0  0  0  0  0  0  0
    5.6210    2.5158   -0.8364 H   0  0  0  0  0  0  0  0  0  0  0  0
    2.8853   -1.4823   -2.4220 H   0  0  0  0  0  0  0  0  0  0  0  0
    3.4043   -2.6408   -1.1900 H   0  0  0  0  0  0  0  0  0  0  0  0
    1.1287   -2.7794   -0.2790 H   0  0  0  0  0  0  0  0  0  0  0  0
    1.1174   -3.1842   -2.0065 H   0  0  0  0  0  0  0  0  0  0  0  0
    0.7770    0.7283   -1.6311 H   0  0  0  0  0  0  0  0  0  0  0  0
    1.5390   -0.6510    1.0127 H   0  0  0  0  0  0  0  0  0  0  0  0
    2.0292    0.9426    0.4505 H   0  0  0  0  0  0  0  0  0  0  0  0
   -4.0199   -1.6531   -0.2660 H   0  0  0  0  0  0  0  0  0  0  0  0
   -2.9070    1.9614    2.6257 H   0  0  0  0  0  0  0  0  0  0  0  0
   -4.2003    0.8738    2.1593 H   0  0  0  0  0  0  0  0  0  0  0  0
   -2.8885    4.2738    1.8412 H   0  0  0  0  0  0  0  0  0  0  0  0
   -4.0782    6.1222    0.7149 H   0  0  0  0  0  0  0  0  0  0  0  0
   -6.0498    5.6520   -0.7164 H   0  0  0  0  0  0  0  0  0  0  0  0
   -6.8219    3.3141   -1.0293 H   0  0  0  0  0  0  0  0  0  0  0  0
   -5.6444    1.4554    0.0905 H   0  0  0  0  0  0  0  0  0  0  0  0
    0.1701    2.4809    0.8522 H   0  0  0  0  0  0  0  0  0  0  0  0
   -3.0018   -3.0997   -3.8149 H   0  0  0  0  0  0  0  0  0  0  0  0
   -3.4476   -5.4255   -2.4454 H   0  0  0  0  0  0  0  0  0  0  0  0
   -3.0337   -6.5501   -0.2588 H   0  0  0  0  0  0  0  0  0  0  0  0
   -1.7458   -5.3992    1.5174 H   0  0  0  0  0  0  0  0  0  0  0  0
   -0.8287   -3.1148    1.1453 H   0  0  0  0  0  0  0  0  0  0  0  0
  1  2  1  0
  2  3  1  0
  2  4  1  0
  2  5  1  0
  5  6  1  0
  6  7  2  0
  6  8  1  0
  8  9  1  0
  9 10  1  0
 10 11  1  0
 11 12  1  0
 12 13  1  0
 12 14  1  0
 14 15  1  0
 15 16  2  0
 16 17  1  0
 16 18  1  0
 18 19  1  0
 19 20  1  0
 20 21  2  0
 21 22  1  0
 22 23  2  0
 23 24  1  0
 24 25  2  0
 18 26  1  0
 26 27  1  0
 15 28  1  0
 28 29  1  0
 29 30  2  0
 29 31  1  0
 31 32  1  0
 32 33  2  0
 33 34  1  0
 34 35  2  0
 35 36  1  0
 36 37  2  0
 13  8  1  0
 26 14  2  0
 37 28  1  0
 28 11  1  6
 37 32  1  0
 25 20  1  0
  1 38  1  0
  1 39  1  0
  1 40  1  0
  3 41  1  0
  3 42  1  0
  3 43  1  0
  4 44  1  0
  4 45  1  0
  4 46  1  0
  9 47  1  0
  9 48  1  0
 10 49  1  0
 10 50  1  0
 12 51  1  6
 13 52  1  0
 13 53  1  0
 17 54  1  0
 19 55  1  0
 19 56  1  0
 21 57  1  0
 22 58  1  0
 23 59  1  0
 24 60  1  0
 25 61  1  0
 27 62  1  0
 31 63  1  0
 33 64  1  0
 34 65  1  0
 35 66  1  0
 36 67  1  0
M  END
$$$$
