
     RDKit          3D

 44 46  0  0  0  0  0  0  0  0999 V2000
    3.2894    2.5764   -1.6331 C   0  0  0  0  0  0  0  0  0  0  0  0
    3.3335    1.1241   -1.4793 N   0  0  0  0  0  0  0  0  0  0  0  0
    2.2445    0.4607   -2.2300 C   0  0  0  0  0  0  0  0  0  0  0  0
    1.0387    0.0180   -1.3788 C   0  0  0  0  0  0  0  0  0  0  0  0
    1.4434   -0.8501   -0.2666 N   0  0  0  0  0  0  0  0  0  0  0  0
    0.6714   -1.8637    0.2821 C   0  0  0  0  0  0  0  0  0  0  0  0
    1.0684   -2.6257    1.1605 O   0  0  0  0  0  0  0  0  0  0  0  0
   -0.6996   -2.0700   -0.2279 C   0  0  0  0  0  0  0  0  0  0  0  0
   -0.8744   -3.1266   -1.1353 C   0  0  0  0  0  0  0  0  0  0  0  0
   -2.1426   -3.4115   -1.6340 C   0  0  0  0  0  0  0  0  0  0  0  0
   -3.2344   -2.6562   -1.2145 C   0  0  0  0  0  0  0  0  0  0  0  0
   -3.0609   -1.6146   -0.2957 C   0  0  0  0  0  0  0  0  0  0  0  0
   -1.7885   -1.2913    0.2162 C   0  0  0  0  0  0  0  0  0  0  0  0
   -1.6550   -0.2069    1.2118 C   0  0  0  0  0  0  0  0  0  0  0  0
   -1.2377   -0.5340    2.5194 C   0  0  0  0  0  0  0  0  0  0  0  0
   -1.1234    0.4374    3.5179 C   0  0  0  0  0  0  0  0  0  0  0  0
   -1.4312    1.7644    3.2373 C   0  0  0  0  0  0  0  0  0  0  0  0
   -1.8520    2.1189    1.9567 C   0  0  0  0  0  0  0  0  0  0  0  0
   -1.9678    1.1453    0.9454 C   0  0  0  0  0  0  0  0  0  0  0  0
   -2.3778    1.5958   -0.4089 C   0  0  0  0  0  0  0  0  0  0  0  0
   -1.9743    1.1795   -1.4777 O   0  0  0  0  0  0  0  0  0  0  0  0
   -3.3041    2.5753   -0.3461 O   0  0  0  0  0  0  0  0  0  0  0  0
    2.8061   -0.6599    0.2324 C   0  0  0  0  0  0  0  0  0  0  0  0
    3.3314    0.7589   -0.0446 C   0  0  0  0  0  0  0  0  0  0  0  0
    2.3460    2.9990   -1.2698 H   0  0  0  0  0  0  0  0  0  0  0  0
    3.4095    2.8515   -2.6876 H   0  0  0  0  0  0  0  0  0  0  0  0
    4.1144    3.0477   -1.0867 H   0  0  0  0  0  0  0  0  0  0  0  0
    1.8992    1.0819   -3.0659 H   0  0  0  0  0  0  0  0  0  0  0  0
    2.6780   -0.4368   -2.6888 H   0  0  0  0  0  0  0  0  0  0  0  0
    0.5618    0.8991   -0.9384 H   0  0  0  0  0  0  0  0  0  0  0  0
    0.3096   -0.4909   -2.0147 H   0  0  0  0  0  0  0  0  0  0  0  0
   -0.0212   -3.7268   -1.4433 H   0  0  0  0  0  0  0  0  0  0  0  0
   -2.2803   -4.2270   -2.3394 H   0  0  0  0  0  0  0  0  0  0  0  0
   -4.2281   -2.8816   -1.5951 H   0  0  0  0  0  0  0  0  0  0  0  0
   -3.9381   -1.0565    0.0282 H   0  0  0  0  0  0  0  0  0  0  0  0
   -0.9931   -1.5671    2.7713 H   0  0  0  0  0  0  0  0  0  0  0  0
   -0.7925    0.1506    4.5144 H   0  0  0  0  0  0  0  0  0  0  0  0
   -1.3385    2.5215    4.0125 H   0  0  0  0  0  0  0  0  0  0  0  0
   -2.0798    3.1620    1.7467 H   0  0  0  0  0  0  0  0  0  0  0  0
   -3.4871    2.7993   -1.2844 H   0  0  0  0  0  0  0  0  0  0  0  0
    3.4412   -1.4081   -0.2601 H   0  0  0  0  0  0  0  0  0  0  0  0
    2.8332   -0.8670    1.3086 H   0  0  0  0  0  0  0  0  0  0  0  0
    4.3559    0.8435    0.3392 H   0  0  0  0  0  0  0  0  0  0  0  0
    2.7069    1.4618    0.5276 H   0  0  0  0  0  0  0  0  0  0  0  0
  1  2  1  0
  2  3  1  0
  3  4  1  0
  4  5  1  0
  5  6  1  0
  6  7  2  0
  6  8  1  0
  8  9  2  0
  9 10  1  0
 10 11  2  0
 11 12  1  0
 12 13  2  0
 13 14  1  0
 14 15  2  0
 15 16  1  0
 16 17  2  0
 17 18  1  0
 18 19  2  0
 19 20  1  0
 20 21  2  0
 20 22  1  0
  5 23  1  0
 23 24  1  0
 24  2  1  0
 13  8  1  0
 19 14  1  0
  1 25  1  0
  1 26  1  0
  1 27  1  0
  3 28  1  0
  3 29  1  0
  4 30  1  0
  4 31  1  0
  9 32  1  0
 10 33  1  0
 11 34  1  0
 12 35  1  0
 15 36  1  0
 16 37  1  0
 17 38  1  0
 18 39  1  0
 22 40  1  0
 23 41  1  0
 23 42  1  0
 24 43  1  0
 24 44  1  0
M  END
$$$$
