
     RDKit          3D

 40 41  0  0  0  0  0  0  0  0999 V2000
   -4.9224    3.8141    0.3669 C   0  0  0  0  0  0  0  0  0  0  0  0
   -3.8091    2.8957   -0.0383 C   0  0  0  0  0  0  0  0  0  0  0  0
   -3.1071    2.1605    0.9181 C   0  0  0  0  0  0  0  0  0  0  0  0
   -2.0492    1.3311    0.5324 C   0  0  0  0  0  0  0  0  0  0  0  0
   -1.6571    1.2291   -0.8100 C   0  0  0  0  0  0  0  0  0  0  0  0
   -0.5846    0.3583   -1.0753 N   0  0  0  0  0  0  0  0  0  0  0  0
    0.1649    0.0628   -2.1891 C   0  0  0  0  0  0  0  0  0  0  0  0
    0.1460    0.7282   -3.7177 S   0  0  0  0  0  0  0  0  0  0  0  0
    1.0910   -0.9477   -1.9631 N   0  0  0  0  0  0  0  0  0  0  0  0
    0.9588   -1.7897   -0.8362 N   0  0  0  0  0  0  0  0  0  0  0  0
    0.7358   -3.1957   -1.1390 C   0  0  0  0  0  0  0  0  0  0  0  0
    1.8580   -1.4616    0.1836 C   0  0  0  0  0  0  0  0  0  0  0  0
    1.3462   -0.6228    1.1263 N   0  0  0  0  0  0  0  0  0  0  0  0
    2.1569   -0.2485    2.1443 C   0  0  0  0  0  0  0  0  0  0  0  0
    1.6041    0.6831    3.1754 C   0  0  0  0  0  0  0  0  0  0  0  0
    3.4592   -0.7086    2.2326 C   0  0  0  0  0  0  0  0  0  0  0  0
    3.9998   -1.5384    1.3167 N   0  0  0  0  0  0  0  0  0  0  0  0
    3.1923   -1.8983    0.2786 C   0  0  0  0  0  0  0  0  0  0  0  0
    3.8435   -2.7744   -0.7457 C   0  0  0  0  0  0  0  0  0  0  0  0
   -2.3575    1.9683   -1.7595 C   0  0  0  0  0  0  0  0  0  0  0  0
   -3.4189    2.8004   -1.3770 C   0  0  0  0  0  0  0  0  0  0  0  0
   -4.5302    4.8187    0.5524 H   0  0  0  0  0  0  0  0  0  0  0  0
   -5.4159    3.4545    1.2759 H   0  0  0  0  0  0  0  0  0  0  0  0
   -5.6859    3.8700   -0.4161 H   0  0  0  0  0  0  0  0  0  0  0  0
   -3.3758    2.2240    1.9696 H   0  0  0  0  0  0  0  0  0  0  0  0
   -1.5253    0.7659    1.3004 H   0  0  0  0  0  0  0  0  0  0  0  0
   -0.2102   -0.1358   -0.2638 H   0  0  0  0  0  0  0  0  0  0  0  0
    1.6216   -1.2913   -2.7575 H   0  0  0  0  0  0  0  0  0  0  0  0
   -0.2412   -3.3114   -1.6216 H   0  0  0  0  0  0  0  0  0  0  0  0
    0.7199   -3.8037   -0.2276 H   0  0  0  0  0  0  0  0  0  0  0  0
    1.4873   -3.5970   -1.8256 H   0  0  0  0  0  0  0  0  0  0  0  0
    0.5629    0.9371    2.9529 H   0  0  0  0  0  0  0  0  0  0  0  0
    1.6364    0.2161    4.1646 H   0  0  0  0  0  0  0  0  0  0  0  0
    2.1836    1.6112    3.1968 H   0  0  0  0  0  0  0  0  0  0  0  0
    4.1148   -0.4179    3.0463 H   0  0  0  0  0  0  0  0  0  0  0  0
    3.4897   -3.8043   -0.6464 H   0  0  0  0  0  0  0  0  0  0  0  0
    4.9304   -2.7843   -0.6087 H   0  0  0  0  0  0  0  0  0  0  0  0
    3.6508   -2.4091   -1.7584 H   0  0  0  0  0  0  0  0  0  0  0  0
   -2.1235    1.9231   -2.8145 H   0  0  0  0  0  0  0  0  0  0  0  0
   -3.9403    3.3713   -2.1425 H   0  0  0  0  0  0  0  0  0  0  0  0
  1  2  1  0
  2  3  2  0
  3  4  1  0
  4  5  2  0
  5  6  1  0
  6  7  1  0
  7  8  2  0
  7  9  1  0
  9 10  1  0
 10 11  1  0
 10 12  1  0
 12 13  2  0
 13 14  1  0
 14 15  1  0
 14 16  2  0
 16 17  1  0
 17 18  2  0
 18 19  1  0
  5 20  1  0
 20 21  2  0
 21  2  1  0
 18 12  1  0
  1 22  1  0
  1 23  1  0
  1 24  1  0
  3 25  1  0
  4 26  1  0
  6 27  1  0
  9 28  1  0
 11 29  1  0
 11 30  1  0
 11 31  1  0
 15 32  1  0
 15 33  1  0
 15 34  1  0
 16 35  1  0
 19 36  1  0
 19 37  1  0
 19 38  1  0
 20 39  1  0
 21 40  1  0
M  END
$$$$
