
     RDKit          3D

 59 62  0  0  0  0  0  0  0  0999 V2000
    8.9219   -2.2550   -3.6080 C   0  0  0  0  0  0  0  0  0  0  0  0
    7.7719   -1.2939   -3.6656 C   0  0  0  0  0  0  0  0  0  0  0  0
    7.2449   -0.8867   -4.8962 C   0  0  0  0  0  0  0  0  0  0  0  0
    6.1543   -0.0147   -4.9474 C   0  0  0  0  0  0  0  0  0  0  0  0
    5.5695    0.4619   -3.7673 C   0  0  0  0  0  0  0  0  0  0  0  0
    4.3781    1.3829   -3.8123 C   0  0  0  0  0  0  0  0  0  0  0  0
    3.1509    0.6380   -3.6415 N   0  0  0  0  0  0  0  0  0  0  0  0
    2.4974    0.5853   -2.4305 C   0  0  0  0  0  0  0  0  0  0  0  0
    2.8311    1.2375   -1.4487 O   0  0  0  0  0  0  0  0  0  0  0  0
    1.3201   -0.3708   -2.4447 C   0  0  0  0  0  0  0  0  0  0  0  0
    0.5085   -0.3642   -1.1517 C   0  0  0  0  0  0  0  0  0  0  0  0
   -0.2874    0.9298   -0.9654 C   0  0  0  0  0  0  0  0  0  0  0  0
   -1.2209    0.8231    0.1516 N   0  0  0  0  0  0  0  0  0  0  0  0
   -0.7237    1.2195    1.3966 N   0  0  0  0  0  0  0  0  0  0  0  0
   -1.4547    1.1366    2.4722 C   0  0  0  0  0  0  0  0  0  0  0  0
   -0.8619    1.5948    3.7739 C   0  0  0  0  0  0  0  0  0  0  0  0
   -2.7934    0.6072    2.3794 C   0  0  0  0  0  0  0  0  0  0  0  0
   -3.7889    0.3302    3.3019 C   0  0  0  0  0  0  0  0  0  0  0  0
   -3.7495    0.3718    4.7864 C   0  0  0  0  0  0  0  0  0  0  0  0
   -4.8915   -0.0840    2.5441 N   0  0  0  0  0  0  0  0  0  0  0  0
   -6.2540   -0.2978    2.9221 C   0  0  0  0  0  0  0  0  0  0  0  0
   -6.8024    0.2420    4.0917 C   0  0  0  0  0  0  0  0  0  0  0  0
   -8.1445    0.0113    4.4148 C   0  0  0  0  0  0  0  0  0  0  0  0
   -8.9523   -0.7466    3.5701 C   0  0  0  0  0  0  0  0  0  0  0  0
   -8.4255   -1.2663    2.3916 C   0  0  0  0  0  0  0  0  0  0  0  0
   -7.0869   -1.0377    2.0640 C   0  0  0  0  0  0  0  0  0  0  0  0
   -4.5368   -0.2942    1.2470 N   0  0  0  0  0  0  0  0  0  0  0  0
   -3.2979    0.1914    1.1427 C   0  0  0  0  0  0  0  0  0  0  0  0
   -2.4984    0.2689   -0.0732 C   0  0  0  0  0  0  0  0  0  0  0  0
   -2.8903   -0.1127   -1.1746 O   0  0  0  0  0  0  0  0  0  0  0  0
    6.0848    0.0350   -2.5362 C   0  0  0  0  0  0  0  0  0  0  0  0
    7.1745   -0.8367   -2.4860 C   0  0  0  0  0  0  0  0  0  0  0  0
    8.5491   -3.2796   -3.5160 H   0  0  0  0  0  0  0  0  0  0  0  0
    9.5384   -2.1844   -4.5100 H   0  0  0  0  0  0  0  0  0  0  0  0
    9.5701   -2.0338   -2.7537 H   0  0  0  0  0  0  0  0  0  0  0  0
    7.6818   -1.2459   -5.8253 H   0  0  0  0  0  0  0  0  0  0  0  0
    5.7658    0.2889   -5.9167 H   0  0  0  0  0  0  0  0  0  0  0  0
    4.3198    1.8840   -4.7849 H   0  0  0  0  0  0  0  0  0  0  0  0
    4.4724    2.1645   -3.0501 H   0  0  0  0  0  0  0  0  0  0  0  0
    2.9354   -0.0613   -4.3390 H   0  0  0  0  0  0  0  0  0  0  0  0
    1.7220   -1.3790   -2.6026 H   0  0  0  0  0  0  0  0  0  0  0  0
    0.6749   -0.1297   -3.2974 H   0  0  0  0  0  0  0  0  0  0  0  0
    1.1622   -0.5235   -0.2853 H   0  0  0  0  0  0  0  0  0  0  0  0
   -0.1829   -1.2158   -1.1780 H   0  0  0  0  0  0  0  0  0  0  0  0
    0.3738    1.7829   -0.7793 H   0  0  0  0  0  0  0  0  0  0  0  0
   -0.8576    1.1536   -1.8745 H   0  0  0  0  0  0  0  0  0  0  0  0
   -1.5638    2.2447    4.3028 H   0  0  0  0  0  0  0  0  0  0  0  0
   -0.6252    0.7252    4.3927 H   0  0  0  0  0  0  0  0  0  0  0  0
    0.0614    2.1540    3.5948 H   0  0  0  0  0  0  0  0  0  0  0  0
   -4.3953   -0.3884    5.2355 H   0  0  0  0  0  0  0  0  0  0  0  0
   -2.7438    0.1537    5.1565 H   0  0  0  0  0  0  0  0  0  0  0  0
   -4.0353    1.3612    5.1553 H   0  0  0  0  0  0  0  0  0  0  0  0
   -6.2383    0.8868    4.7544 H   0  0  0  0  0  0  0  0  0  0  0  0
   -8.5645    0.4379    5.3226 H   0  0  0  0  0  0  0  0  0  0  0  0
   -9.9950   -0.9205    3.8229 H   0  0  0  0  0  0  0  0  0  0  0  0
   -9.0541   -1.8475    1.7215 H   0  0  0  0  0  0  0  0  0  0  0  0
   -6.7023   -1.4555    1.1342 H   0  0  0  0  0  0  0  0  0  0  0  0
    5.6314    0.3785   -1.6073 H   0  0  0  0  0  0  0  0  0  0  0  0
    7.5527   -1.1569   -1.5177 H   0  0  0  0  0  0  0  0  0  0  0  0
  1  2  1  0
  2  3  2  0
  3  4  1  0
  4  5  2  0
  5  6  1  0
  6  7  1  0
  7  8  1  0
  8  9  2  0
  8 10  1  0
 10 11  1  0
 11 12  1  0
 12 13  1  0
 13 14  1  0
 14 15  2  0
 15 16  1  0
 15 17  1  0
 17 18  2  0
 18 19  1  0
 18 20  1  0
 20 21  1  0
 21 22  2  0
 22 23  1  0
 23 24  2  0
 24 25  1  0
 25 26  2  0
 20 27  1  0
 27 28  2  0
 28 29  1  0
 29 30  2  0
  5 31  1  0
 31 32  2  0
 32  2  1  0
 29 13  1  0
 28 17  1  0
 26 21  1  0
  1 33  1  0
  1 34  1  0
  1 35  1  0
  3 36  1  0
  4 37  1  0
  6 38  1  0
  6 39  1  0
  7 40  1  0
 10 41  1  0
 10 42  1  0
 11 43  1  0
 11 44  1  0
 12 45  1  0
 12 46  1  0
 16 47  1  0
 16 48  1  0
 16 49  1  0
 19 50  1  0
 19 51  1  0
 19 52  1  0
 22 53  1  0
 23 54  1  0
 24 55  1  0
 25 56  1  0
 26 57  1  0
 31 58  1  0
 32 59  1  0
M  END
$$$$
