
     RDKit          3D

 61 65  0  0  0  0  0  0  0  0999 V2000
  -10.7619   -0.1492    0.9864 C   0  0  0  0  0  0  0  0  0  0  0  0
   -9.6784    0.7715    1.0128 O   0  0  0  0  0  0  0  0  0  0  0  0
   -8.4524    0.2930    0.6430 C   0  0  0  0  0  0  0  0  0  0  0  0
   -8.1596   -1.0180    0.2706 C   0  0  0  0  0  0  0  0  0  0  0  0
   -6.8532   -1.3781   -0.0875 C   0  0  0  0  0  0  0  0  0  0  0  0
   -5.8225   -0.4313   -0.0658 C   0  0  0  0  0  0  0  0  0  0  0  0
   -4.4835   -0.7930   -0.4255 N   0  0  0  0  0  0  0  0  0  0  0  0
   -4.1113   -1.7473   -1.3726 C   0  0  0  0  0  0  0  0  0  0  0  0
   -4.9929   -2.5060   -2.0222 O   0  0  0  0  0  0  0  0  0  0  0  0
   -2.7454   -1.6774   -1.5370 C   0  0  0  0  0  0  0  0  0  0  0  0
   -2.2372   -0.7084   -0.6434 C   0  0  0  0  0  0  0  0  0  0  0  0
   -0.9072   -0.3994   -0.5134 N   0  0  0  0  0  0  0  0  0  0  0  0
   -0.4678    0.4640    0.6116 C   0  0  0  0  0  0  0  0  0  0  0  0
    1.0610    0.3878    0.8247 C   0  0  0  0  0  0  0  0  0  0  0  0
    1.8005    0.7024   -0.4196 N   0  0  0  0  0  0  0  0  0  0  0  0
    3.1886    0.8869   -0.3401 C   0  0  0  0  0  0  0  0  0  0  0  0
    3.9571    0.5279    0.7776 C   0  0  0  0  0  0  0  0  0  0  0  0
    5.3426    0.7397    0.8165 C   0  0  0  0  0  0  0  0  0  0  0  0
    5.9927    1.3188   -0.2746 C   0  0  0  0  0  0  0  0  0  0  0  0
    7.4548    1.5714   -0.2729 C   0  0  0  0  0  0  0  0  0  0  0  0
    7.8911    2.5825   -0.8162 O   0  0  0  0  0  0  0  0  0  0  0  0
    8.4036    0.6325    0.3616 C   0  0  0  0  0  0  0  0  0  0  0  0
    8.2035   -0.7493    0.3898 C   0  0  0  0  0  0  0  0  0  0  0  0
    9.1572   -1.5634    0.9984 C   0  0  0  0  0  0  0  0  0  0  0  0
   10.2809   -0.9661    1.5487 C   0  0  0  0  0  0  0  0  0  0  0  0
   10.5110    0.3644    1.5235 N   0  0  0  0  0  0  0  0  0  0  0  0
    9.5728    1.1348    0.9182 C   0  0  0  0  0  0  0  0  0  0  0  0
    5.2459    1.7213   -1.3810 C   0  0  0  0  0  0  0  0  0  0  0  0
    3.8641    1.5029   -1.4082 C   0  0  0  0  0  0  0  0  0  0  0  0
    1.3735   -0.1705   -1.5425 C   0  0  0  0  0  0  0  0  0  0  0  0
   -0.1541   -0.0984   -1.7586 C   0  0  0  0  0  0  0  0  0  0  0  0
   -3.3078   -0.2316    0.0962 C   0  0  0  0  0  0  0  0  0  0  0  0
   -3.2979    0.5941    1.1503 O   0  0  0  0  0  0  0  0  0  0  0  0
   -6.1229    0.8889    0.2957 C   0  0  0  0  0  0  0  0  0  0  0  0
   -7.4287    1.2416    0.6502 C   0  0  0  0  0  0  0  0  0  0  0  0
  -10.9296   -0.5336   -0.0251 H   0  0  0  0  0  0  0  0  0  0  0  0
  -10.6033   -0.9652    1.6991 H   0  0  0  0  0  0  0  0  0  0  0  0
  -11.6648    0.3884    1.2919 H   0  0  0  0  0  0  0  0  0  0  0  0
   -8.9214   -1.7903    0.2484 H   0  0  0  0  0  0  0  0  0  0  0  0
   -6.6636   -2.4160   -0.3486 H   0  0  0  0  0  0  0  0  0  0  0  0
   -4.4970   -3.0438   -2.6648 H   0  0  0  0  0  0  0  0  0  0  0  0
   -2.1698   -2.2828   -2.2223 H   0  0  0  0  0  0  0  0  0  0  0  0
   -0.7616    1.5029    0.4155 H   0  0  0  0  0  0  0  0  0  0  0  0
   -0.9297    0.1379    1.5503 H   0  0  0  0  0  0  0  0  0  0  0  0
    1.3203   -0.6228    1.1666 H   0  0  0  0  0  0  0  0  0  0  0  0
    1.3262    1.1008    1.6149 H   0  0  0  0  0  0  0  0  0  0  0  0
    3.4972    0.0668    1.6467 H   0  0  0  0  0  0  0  0  0  0  0  0
    5.8876    0.4634    1.7153 H   0  0  0  0  0  0  0  0  0  0  0  0
    7.3303   -1.2040   -0.0691 H   0  0  0  0  0  0  0  0  0  0  0  0
    9.0322   -2.6402    1.0355 H   0  0  0  0  0  0  0  0  0  0  0  0
   11.0516   -1.5598    2.0328 H   0  0  0  0  0  0  0  0  0  0  0  0
    9.7951    2.1992    0.8992 H   0  0  0  0  0  0  0  0  0  0  0  0
    5.7293    2.2147   -2.2216 H   0  0  0  0  0  0  0  0  0  0  0  0
    3.3036    1.8556   -2.2712 H   0  0  0  0  0  0  0  0  0  0  0  0
    1.6624   -1.2074   -1.3246 H   0  0  0  0  0  0  0  0  0  0  0  0
    1.8541    0.1151   -2.4849 H   0  0  0  0  0  0  0  0  0  0  0  0
   -0.4278    0.9066   -2.1057 H   0  0  0  0  0  0  0  0  0  0  0  0
   -0.4090   -0.8031   -2.5580 H   0  0  0  0  0  0  0  0  0  0  0  0
   -4.1028    0.4318    1.6735 H   0  0  0  0  0  0  0  0  0  0  0  0
   -5.3721    1.6758    0.2596 H   0  0  0  0  0  0  0  0  0  0  0  0
   -7.6532    2.2714    0.9191 H   0  0  0  0  0  0  0  0  0  0  0  0
  1  2  1  0
  2  3  1  0
  3  4  2  0
  4  5  1  0
  5  6  2  0
  6  7  1  0
  7  8  1  0
  8  9  1  0
  8 10  2  0
 10 11  1  0
 11 12  1  0
 12 13  1  0
 13 14  1  0
 14 15  1  0
 15 16  1  0
 16 17  2  0
 17 18  1  0
 18 19  2  0
 19 20  1  0
 20 21  2  0
 20 22  1  0
 22 23  2  0
 23 24  1  0
 24 25  2  0
 25 26  1  0
 26 27  2  0
 19 28  1  0
 28 29  2  0
 15 30  1  0
 30 31  1  0
 11 32  2  0
 32 33  1  0
  6 34  1  0
 34 35  2  0
 35  3  1  0
 32  7  1  0
 31 12  1  0
 29 16  1  0
 27 22  1  0
  1 36  1  0
  1 37  1  0
  1 38  1  0
  4 39  1  0
  5 40  1  0
  9 41  1  0
 10 42  1  0
 13 43  1  0
 13 44  1  0
 14 45  1  0
 14 46  1  0
 17 47  1  0
 18 48  1  0
 23 49  1  0
 24 50  1  0
 25 51  1  0
 27 52  1  0
 28 53  1  0
 29 54  1  0
 30 55  1  0
 30 56  1  0
 31 57  1  0
 31 58  1  0
 33 59  1  0
 34 60  1  0
 35 61  1  0
M  END
$$$$
