
     RDKit          3D

 38 39  0  0  0  0  0  0  0  0999 V2000
   -4.8768   -1.1061    0.6196 C   0  0  0  0  0  0  0  0  0  0  0  0
   -3.6572   -1.6523    0.0433 N   0  0  0  0  0  0  0  0  0  0  0  0
   -2.5076   -1.5467    0.9448 C   0  0  0  0  0  0  0  0  0  0  0  0
   -2.0151   -0.1301    1.1587 C   0  0  0  0  0  0  0  0  0  0  0  0
   -2.2290    0.4851    2.4049 C   0  0  0  0  0  0  0  0  0  0  0  0
   -1.7890    1.7854    2.6415 C   0  0  0  0  0  0  0  0  0  0  0  0
   -1.1295    2.4850    1.6367 C   0  0  0  0  0  0  0  0  0  0  0  0
   -0.9119    1.8903    0.3914 C   0  0  0  0  0  0  0  0  0  0  0  0
   -1.3561    0.5876    0.1403 C   0  0  0  0  0  0  0  0  0  0  0  0
   -1.1790   -0.0850   -1.0419 O   0  0  0  0  0  0  0  0  0  0  0  0
   -0.6801    0.6335   -2.1642 C   0  0  0  0  0  0  0  0  0  0  0  0
    0.8452    0.7927   -2.2037 C   0  0  0  0  0  0  0  0  0  0  0  0
    1.3633    1.6686   -2.8903 O   0  0  0  0  0  0  0  0  0  0  0  0
    1.4967   -0.1522   -1.4317 N   0  0  0  0  0  0  0  0  0  0  0  0
    2.8814   -0.3196   -1.2479 C   0  0  0  0  0  0  0  0  0  0  0  0
    3.8524    0.4466   -1.8942 C   0  0  0  0  0  0  0  0  0  0  0  0
    5.2112    0.2144   -1.6564 C   0  0  0  0  0  0  0  0  0  0  0  0
    5.6091   -0.7851   -0.7717 C   0  0  0  0  0  0  0  0  0  0  0  0
    4.6481   -1.5555   -0.1231 C   0  0  0  0  0  0  0  0  0  0  0  0
    3.2908   -1.3238   -0.3609 C   0  0  0  0  0  0  0  0  0  0  0  0
   -4.8085   -0.0266    0.7851 H   0  0  0  0  0  0  0  0  0  0  0  0
   -5.7095   -1.2806   -0.0691 H   0  0  0  0  0  0  0  0  0  0  0  0
   -5.1260   -1.5997    1.5644 H   0  0  0  0  0  0  0  0  0  0  0  0
   -3.4313   -1.1499   -0.8156 H   0  0  0  0  0  0  0  0  0  0  0  0
   -2.7388   -2.0267    1.9044 H   0  0  0  0  0  0  0  0  0  0  0  0
   -1.6827   -2.1382    0.5278 H   0  0  0  0  0  0  0  0  0  0  0  0
   -2.7442   -0.0510    3.1994 H   0  0  0  0  0  0  0  0  0  0  0  0
   -1.9583    2.2509    3.6091 H   0  0  0  0  0  0  0  0  0  0  0  0
   -0.7791    3.4979    1.8211 H   0  0  0  0  0  0  0  0  0  0  0  0
   -0.3825    2.4778   -0.3525 H   0  0  0  0  0  0  0  0  0  0  0  0
   -1.1674    1.6099   -2.2672 H   0  0  0  0  0  0  0  0  0  0  0  0
   -0.9508    0.0535   -3.0542 H   0  0  0  0  0  0  0  0  0  0  0  0
    0.8885   -0.7645   -0.8962 H   0  0  0  0  0  0  0  0  0  0  0  0
    3.5872    1.2332   -2.5932 H   0  0  0  0  0  0  0  0  0  0  0  0
    5.9573    0.8185   -2.1667 H   0  0  0  0  0  0  0  0  0  0  0  0
    6.6658   -0.9622   -0.5898 H   0  0  0  0  0  0  0  0  0  0  0  0
    4.9534   -2.3368    0.5680 H   0  0  0  0  0  0  0  0  0  0  0  0
    2.5604   -1.9383    0.1588 H   0  0  0  0  0  0  0  0  0  0  0  0
  1  2  1  0
  2  3  1  0
  3  4  1  0
  4  5  2  0
  5  6  1  0
  6  7  2  0
  7  8  1  0
  8  9  2  0
  9 10  1  0
 10 11  1  0
 11 12  1  0
 12 13  2  0
 12 14  1  0
 14 15  1  0
 15 16  2  0
 16 17  1  0
 17 18  2  0
 18 19  1  0
 19 20  2  0
  9  4  1  0
 20 15  1  0
  1 21  1  0
  1 22  1  0
  1 23  1  0
  2 24  1  0
  3 25  1  0
  3 26  1  0
  5 27  1  0
  6 28  1  0
  7 29  1  0
  8 30  1  0
 11 31  1  0
 11 32  1  0
 14 33  1  0
 16 34  1  0
 17 35  1  0
 18 36  1  0
 19 37  1  0
 20 38  1  0
M  END
$$$$
