
     RDKit          3D

 47 49  0  0  0  0  0  0  0  0999 V2000
   -8.2579   -1.3165   -0.7389 C   0  0  0  0  0  0  0  0  0  0  0  0
   -7.7776    0.0556   -1.1906 C   0  0  0  0  0  0  0  0  0  0  0  0
   -7.4560    0.9757   -0.0134 C   0  0  0  0  0  0  0  0  0  0  0  0
   -6.4509    0.4211    0.8349 O   0  0  0  0  0  0  0  0  0  0  0  0
   -5.1368    0.6600    0.5504 C   0  0  0  0  0  0  0  0  0  0  0  0
   -4.6381    1.3309   -0.5655 C   0  0  0  0  0  0  0  0  0  0  0  0
   -3.2574    1.4970   -0.7276 C   0  0  0  0  0  0  0  0  0  0  0  0
   -2.3645    0.9820    0.2190 C   0  0  0  0  0  0  0  0  0  0  0  0
   -0.9032    1.1826    0.0036 C   0  0  0  0  0  0  0  0  0  0  0  0
   -0.5350    2.2125   -0.5486 O   0  0  0  0  0  0  0  0  0  0  0  0
   -0.1038    0.1365    0.4277 N   0  0  0  0  0  0  0  0  0  0  0  0
    1.3040    0.0670    0.3903 C   0  0  0  0  0  0  0  0  0  0  0  0
    2.1277    1.1155   -0.0122 C   0  0  0  0  0  0  0  0  0  0  0  0
    3.5209    0.9644   -0.0130 C   0  0  0  0  0  0  0  0  0  0  0  0
    4.1166   -0.2350    0.3926 C   0  0  0  0  0  0  0  0  0  0  0  0
    5.5252   -0.2975    0.3539 N   0  0  0  0  0  0  0  0  0  0  0  0
    6.3461   -1.3412    0.7622 C   0  0  0  0  0  0  0  0  0  0  0  0
    5.9325   -2.3738    1.2822 O   0  0  0  0  0  0  0  0  0  0  0  0
    7.7717   -1.0912    0.5331 C   0  0  0  0  0  0  0  0  0  0  0  0
    8.4038   -0.2053   -0.3253 C   0  0  0  0  0  0  0  0  0  0  0  0
    9.8266   -0.2734   -0.2382 C   0  0  0  0  0  0  0  0  0  0  0  0
   10.2419   -1.2136    0.6754 C   0  0  0  0  0  0  0  0  0  0  0  0
    8.9263   -2.0127    1.4145 S   0  0  0  0  0  0  0  0  0  0  0  0
    3.2919   -1.2833    0.7954 C   0  0  0  0  0  0  0  0  0  0  0  0
    1.8984   -1.1319    0.7964 C   0  0  0  0  0  0  0  0  0  0  0  0
   -2.8622    0.3219    1.3469 C   0  0  0  0  0  0  0  0  0  0  0  0
   -4.2420    0.1597    1.5021 C   0  0  0  0  0  0  0  0  0  0  0  0
   -8.5128   -1.9315   -1.6079 H   0  0  0  0  0  0  0  0  0  0  0  0
   -9.1500   -1.2320   -0.1101 H   0  0  0  0  0  0  0  0  0  0  0  0
   -7.4841   -1.8421   -0.1708 H   0  0  0  0  0  0  0  0  0  0  0  0
   -6.8923   -0.0816   -1.8203 H   0  0  0  0  0  0  0  0  0  0  0  0
   -8.5513    0.5226   -1.8101 H   0  0  0  0  0  0  0  0  0  0  0  0
   -8.3554    1.0849    0.6046 H   0  0  0  0  0  0  0  0  0  0  0  0
   -7.2034    1.9898   -0.3434 H   0  0  0  0  0  0  0  0  0  0  0  0
   -5.2885    1.7364   -1.3329 H   0  0  0  0  0  0  0  0  0  0  0  0
   -2.8791    2.0281   -1.5995 H   0  0  0  0  0  0  0  0  0  0  0  0
   -0.5731   -0.7035    0.7400 H   0  0  0  0  0  0  0  0  0  0  0  0
    1.7206    2.0707   -0.3290 H   0  0  0  0  0  0  0  0  0  0  0  0
    4.1249    1.8089   -0.3353 H   0  0  0  0  0  0  0  0  0  0  0  0
    5.9860    0.5439    0.0401 H   0  0  0  0  0  0  0  0  0  0  0  0
    7.8866    0.4575   -1.0076 H   0  0  0  0  0  0  0  0  0  0  0  0
   10.5100    0.3309   -0.8228 H   0  0  0  0  0  0  0  0  0  0  0  0
   11.2563   -1.4786    0.9409 H   0  0  0  0  0  0  0  0  0  0  0  0
    3.6936   -2.2399    1.1142 H   0  0  0  0  0  0  0  0  0  0  0  0
    1.2924   -1.9749    1.1189 H   0  0  0  0  0  0  0  0  0  0  0  0
   -2.2005   -0.0446    2.1264 H   0  0  0  0  0  0  0  0  0  0  0  0
   -4.6282   -0.3520    2.3813 H   0  0  0  0  0  0  0  0  0  0  0  0
  1  2  1  0
  2  3  1  0
  3  4  1  0
  4  5  1  0
  5  6  2  0
  6  7  1  0
  7  8  2  0
  8  9  1  0
  9 10  2  0
  9 11  1  0
 11 12  1  0
 12 13  2  0
 13 14  1  0
 14 15  2  0
 15 16  1  0
 16 17  1  0
 17 18  2  0
 17 19  1  0
 19 20  2  0
 20 21  1  0
 21 22  2  0
 22 23  1  0
 15 24  1  0
 24 25  2  0
  8 26  1  0
 26 27  2  0
 27  5  1  0
 25 12  1  0
 23 19  1  0
  1 28  1  0
  1 29  1  0
  1 30  1  0
  2 31  1  0
  2 32  1  0
  3 33  1  0
  3 34  1  0
  6 35  1  0
  7 36  1  0
 11 37  1  0
 13 38  1  0
 14 39  1  0
 16 40  1  0
 20 41  1  0
 21 42  1  0
 22 43  1  0
 24 44  1  0
 25 45  1  0
 26 46  1  0
 27 47  1  0
M  END
$$$$
