
     RDKit          3D

 51 54  0  0  0  0  0  0  0  0999 V2000
   -5.4780   -1.6935   -1.9478 C   0  0  0  0  0  0  0  0  0  0  0  0
   -4.3708   -1.0531   -1.3284 O   0  0  0  0  0  0  0  0  0  0  0  0
   -4.5247   -0.6223   -0.0356 C   0  0  0  0  0  0  0  0  0  0  0  0
   -5.7104   -0.7541    0.6990 C   0  0  0  0  0  0  0  0  0  0  0  0
   -5.7912   -0.2866    2.0122 C   0  0  0  0  0  0  0  0  0  0  0  0
   -4.6894    0.3180    2.6041 C   0  0  0  0  0  0  0  0  0  0  0  0
   -3.5046    0.4553    1.8832 C   0  0  0  0  0  0  0  0  0  0  0  0
   -3.4000   -0.0110    0.5582 C   0  0  0  0  0  0  0  0  0  0  0  0
   -2.0893    0.1560   -0.2029 C   0  0  0  0  0  0  0  0  0  0  0  0
   -1.7304    1.6333   -0.4144 C   0  0  0  0  0  0  0  0  0  0  0  0
   -0.4005    1.7676   -1.1569 C   0  0  0  0  0  0  0  0  0  0  0  0
    0.6836    1.0764   -0.4437 N   0  0  0  0  0  0  0  0  0  0  0  0
    1.9597    1.2880   -1.1531 C   0  0  0  0  0  0  0  0  0  0  0  0
    3.1238    0.8722   -0.2990 C   0  0  0  0  0  0  0  0  0  0  0  0
    3.4979    1.4165    0.9230 C   0  0  0  0  0  0  0  0  0  0  0  0
    2.8764    2.5002    1.7266 C   0  0  0  0  0  0  0  0  0  0  0  0
    4.6118    0.7462    1.3587 N   0  0  0  0  0  0  0  0  0  0  0  0
    4.9886   -0.2116    0.4485 C   0  0  0  0  0  0  0  0  0  0  0  0
    6.0592   -1.1136    0.4820 C   0  0  0  0  0  0  0  0  0  0  0  0
    6.2019   -1.9915   -0.5960 C   0  0  0  0  0  0  0  0  0  0  0  0
    5.3074   -1.9664   -1.6625 C   0  0  0  0  0  0  0  0  0  0  0  0
    4.2424   -1.0579   -1.6785 C   0  0  0  0  0  0  0  0  0  0  0  0
    4.0755   -0.1588   -0.6037 C   0  0  0  0  0  0  0  0  0  0  0  0
    0.3816   -0.3578   -0.2972 C   0  0  0  0  0  0  0  0  0  0  0  0
   -0.9211   -0.5726    0.4767 C   0  0  0  0  0  0  0  0  0  0  0  0
   -5.1753   -1.9775   -2.9603 H   0  0  0  0  0  0  0  0  0  0  0  0
   -5.7541   -2.6095   -1.4152 H   0  0  0  0  0  0  0  0  0  0  0  0
   -6.3302   -1.0117   -2.0356 H   0  0  0  0  0  0  0  0  0  0  0  0
   -6.5957   -1.2175    0.2773 H   0  0  0  0  0  0  0  0  0  0  0  0
   -6.7168   -0.3952    2.5712 H   0  0  0  0  0  0  0  0  0  0  0  0
   -4.7493    0.6837    3.6256 H   0  0  0  0  0  0  0  0  0  0  0  0
   -2.6547    0.9335    2.3659 H   0  0  0  0  0  0  0  0  0  0  0  0
   -2.1922   -0.2880   -1.2012 H   0  0  0  0  0  0  0  0  0  0  0  0
   -2.5205    2.1338   -0.9879 H   0  0  0  0  0  0  0  0  0  0  0  0
   -1.6584    2.1613    0.5451 H   0  0  0  0  0  0  0  0  0  0  0  0
   -0.5058    1.3802   -2.1790 H   0  0  0  0  0  0  0  0  0  0  0  0
   -0.1691    2.8369   -1.2379 H   0  0  0  0  0  0  0  0  0  0  0  0
    1.9654    0.7659   -2.1176 H   0  0  0  0  0  0  0  0  0  0  0  0
    2.0922    2.3558   -1.3736 H   0  0  0  0  0  0  0  0  0  0  0  0
    2.0206    2.1120    2.2879 H   0  0  0  0  0  0  0  0  0  0  0  0
    3.5888    2.9264    2.4404 H   0  0  0  0  0  0  0  0  0  0  0  0
    2.5267    3.3117    1.0807 H   0  0  0  0  0  0  0  0  0  0  0  0
    5.0937    0.9253    2.2280 H   0  0  0  0  0  0  0  0  0  0  0  0
    6.7561   -1.1358    1.3131 H   0  0  0  0  0  0  0  0  0  0  0  0
    7.0230   -2.7044   -0.5997 H   0  0  0  0  0  0  0  0  0  0  0  0
    5.4344   -2.6586   -2.4909 H   0  0  0  0  0  0  0  0  0  0  0  0
    3.5511   -1.0523   -2.5154 H   0  0  0  0  0  0  0  0  0  0  0  0
    1.1765   -0.8669    0.2593 H   0  0  0  0  0  0  0  0  0  0  0  0
    0.3117   -0.8438   -1.2794 H   0  0  0  0  0  0  0  0  0  0  0  0
   -0.7829   -0.2209    1.5071 H   0  0  0  0  0  0  0  0  0  0  0  0
   -1.1349   -1.6469    0.5395 H   0  0  0  0  0  0  0  0  0  0  0  0
  1  2  1  0
  2  3  1  0
  3  4  2  0
  4  5  1  0
  5  6  2  0
  6  7  1  0
  7  8  2  0
  8  9  1  0
  9 10  1  0
 10 11  1  0
 11 12  1  0
 12 13  1  0
 13 14  1  0
 14 15  2  0
 15 16  1  0
 15 17  1  0
 17 18  1  0
 18 19  2  0
 19 20  1  0
 20 21  2  0
 21 22  1  0
 22 23  2  0
 12 24  1  0
 24 25  1  0
  8  3  1  0
 25  9  1  0
 23 14  1  0
 23 18  1  0
  1 26  1  0
  1 27  1  0
  1 28  1  0
  4 29  1  0
  5 30  1  0
  6 31  1  0
  7 32  1  0
  9 33  1  0
 10 34  1  0
 10 35  1  0
 11 36  1  0
 11 37  1  0
 13 38  1  0
 13 39  1  0
 16 40  1  0
 16 41  1  0
 16 42  1  0
 17 43  1  0
 19 44  1  0
 20 45  1  0
 21 46  1  0
 22 47  1  0
 24 48  1  0
 24 49  1  0
 25 50  1  0
 25 51  1  0
M  END
$$$$
