
     RDKit          3D

 46 48  0  0  0  0  0  0  0  0999 V2000
   -2.2498    1.4907    0.4828 C   0  0  0  0  0  0  0  0  0  0  0  0
   -2.2376    0.0290    0.1146 C   0  0  0  0  0  0  0  0  0  0  0  0
   -3.1781   -0.5215   -0.6850 C   0  0  0  0  0  0  0  0  0  0  0  0
   -4.3280    0.1792   -1.2646 C   0  0  0  0  0  0  0  0  0  0  0  0
   -5.4630    0.4431   -0.4898 C   0  0  0  0  0  0  0  0  0  0  0  0
   -6.5556    1.1076   -1.0496 C   0  0  0  0  0  0  0  0  0  0  0  0
   -6.5189    1.5089   -2.3845 C   0  0  0  0  0  0  0  0  0  0  0  0
   -5.3907    1.2465   -3.1613 C   0  0  0  0  0  0  0  0  0  0  0  0
   -4.2969    0.5817   -2.6035 C   0  0  0  0  0  0  0  0  0  0  0  0
   -1.1646   -0.8455    0.6034 C   0  0  0  0  0  0  0  0  0  0  0  0
   -0.1564   -0.6499    1.4688 C   0  0  0  0  0  0  0  0  0  0  0  0
    0.2677    0.7471    2.3819 S   0  0  0  0  0  0  0  0  0  0  0  0
    1.6444   -0.0263    3.1413 C   0  0  0  0  0  0  0  0  0  0  0  0
    2.6237    0.7059    4.2736 S   0  0  0  0  0  0  0  0  0  0  0  0
    1.7592   -1.3101    2.6567 N   0  0  0  0  0  0  0  0  0  0  0  0
    2.8707   -2.2272    3.1144 N   0  0  0  0  0  0  0  0  0  0  0  0
    4.1068   -2.6096    2.0039 S   0  0  0  0  0  6  0  0  0  0  0  0
    5.3460   -2.4426    2.7345 O   0  0  0  0  0  0  0  0  0  0  0  0
    3.7821   -3.8585    1.3545 O   0  0  0  0  0  0  0  0  0  0  0  0
    4.0302   -1.3108    0.7935 C   0  0  0  0  0  0  0  0  0  0  0  0
    3.3392   -1.5205   -0.4025 C   0  0  0  0  0  0  0  0  0  0  0  0
    3.2506   -0.4870   -1.3351 C   0  0  0  0  0  0  0  0  0  0  0  0
    3.8735    0.7446   -1.0915 C   0  0  0  0  0  0  0  0  0  0  0  0
    3.7462    1.8635   -2.0842 C   0  0  0  0  0  0  0  0  0  0  0  0
    4.5797    0.9340    0.1042 C   0  0  0  0  0  0  0  0  0  0  0  0
    4.6727   -0.0954    1.0418 C   0  0  0  0  0  0  0  0  0  0  0  0
    0.8035   -1.7620    1.7607 C   0  0  0  0  0  0  0  0  0  0  0  0
    0.7333   -2.8744    1.2589 O   0  0  0  0  0  0  0  0  0  0  0  0
   -2.4312    1.6176    1.5546 H   0  0  0  0  0  0  0  0  0  0  0  0
   -3.0279    2.0608   -0.0335 H   0  0  0  0  0  0  0  0  0  0  0  0
   -1.3032    1.9673    0.2081 H   0  0  0  0  0  0  0  0  0  0  0  0
   -3.1424   -1.5749   -0.9581 H   0  0  0  0  0  0  0  0  0  0  0  0
   -5.5018    0.1331    0.5517 H   0  0  0  0  0  0  0  0  0  0  0  0
   -7.4354    1.3111   -0.4446 H   0  0  0  0  0  0  0  0  0  0  0  0
   -7.3703    2.0258   -2.8199 H   0  0  0  0  0  0  0  0  0  0  0  0
   -5.3629    1.5589   -4.2018 H   0  0  0  0  0  0  0  0  0  0  0  0
   -3.4220    0.3836   -3.2178 H   0  0  0  0  0  0  0  0  0  0  0  0
   -1.2133   -1.8501    0.1708 H   0  0  0  0  0  0  0  0  0  0  0  0
    3.3058   -1.9417    3.9984 H   0  0  0  0  0  0  0  0  0  0  0  0
    2.8593   -2.4765   -0.6095 H   0  0  0  0  0  0  0  0  0  0  0  0
    2.6985   -0.6503   -2.2591 H   0  0  0  0  0  0  0  0  0  0  0  0
    4.5951    2.5511   -2.0128 H   0  0  0  0  0  0  0  0  0  0  0  0
    3.7284    1.4748   -3.1078 H   0  0  0  0  0  0  0  0  0  0  0  0
    2.8236    2.4224   -1.8996 H   0  0  0  0  0  0  0  0  0  0  0  0
    5.0697    1.8849    0.3076 H   0  0  0  0  0  0  0  0  0  0  0  0
    5.2405    0.0617    1.9568 H   0  0  0  0  0  0  0  0  0  0  0  0
  1  2  1  0
  2  3  2  3
  3  4  1  0
  4  5  2  0
  5  6  1  0
  6  7  2  0
  7  8  1  0
  8  9  2  0
  2 10  1  0
 10 11  2  3
 11 12  1  0
 12 13  1  0
 13 14  2  0
 13 15  1  0
 15 16  1  0
 16 17  1  0
 17 18  2  0
 17 19  2  0
 17 20  1  0
 20 21  2  0
 21 22  1  0
 22 23  2  0
 23 24  1  0
 23 25  1  0
 25 26  2  0
 15 27  1  0
 27 28  2  0
  9  4  1  0
 27 11  1  0
 26 20  1  0
  1 29  1  0
  1 30  1  0
  1 31  1  0
  3 32  1  0
  5 33  1  0
  6 34  1  0
  7 35  1  0
  8 36  1  0
  9 37  1  0
 10 38  1  0
 16 39  1  0
 21 40  1  0
 22 41  1  0
 24 42  1  0
 24 43  1  0
 24 44  1  0
 25 45  1  0
 26 46  1  0
M  END
$$$$
