
     RDKit          3D

 39 41  0  0  0  0  0  0  0  0999 V2000
    5.1039   -2.6337    0.4740 C   0  0  0  0  0  0  0  0  0  0  0  0
    3.8833   -1.7554    0.2601 C   0  0  0  0  0  0  0  0  0  0  0  0
    2.3713   -2.6956    0.6480 S   0  0  0  0  0  0  0  0  0  0  0  0
    1.1181   -1.4644    0.3106 C   0  0  0  0  0  0  0  0  0  0  0  0
   -0.2059   -1.8172    0.4632 C   0  0  0  0  0  0  0  0  0  0  0  0
   -1.1571   -0.8534    0.2035 C   0  0  0  0  0  0  0  0  0  0  0  0
   -2.5021   -1.1143    0.3147 N   0  0  0  0  0  0  0  0  0  0  0  0
   -3.4722   -0.0516    0.0779 C   0  0  0  0  0  0  0  0  0  0  0  0
   -4.8077   -0.7386    0.3456 C   0  0  0  0  0  0  0  0  0  0  0  0
   -4.4688   -1.6940    1.4787 C   0  0  0  0  0  0  0  0  0  0  0  0
   -3.0650   -2.1876    1.1257 C   0  0  0  0  0  0  0  0  0  0  0  0
   -0.7825    0.3721   -0.2018 N   0  0  0  0  0  0  0  0  0  0  0  0
    0.5305    0.6373   -0.3262 C   0  0  0  0  0  0  0  0  0  0  0  0
    0.9193    1.9944   -0.7663 C   0  0  0  0  0  0  0  0  0  0  0  0
    2.2724    2.3652   -0.9047 C   0  0  0  0  0  0  0  0  0  0  0  0
    2.6423    3.6498   -1.3210 C   0  0  0  0  0  0  0  0  0  0  0  0
    1.6609    4.5924   -1.6083 C   0  0  0  0  0  0  0  0  0  0  0  0
    2.1118    6.1713   -2.1197 Cl  0  0  0  0  0  0  0  0  0  0  0  0
    0.3159    4.2616   -1.4831 C   0  0  0  0  0  0  0  0  0  0  0  0
   -0.0477    2.9755   -1.0663 C   0  0  0  0  0  0  0  0  0  0  0  0
    1.5096   -0.2438   -0.0773 N   0  0  0  0  0  0  0  0  0  0  0  0
    6.0133   -2.0694    0.2416 H   0  0  0  0  0  0  0  0  0  0  0  0
    5.1805   -2.9703    1.5135 H   0  0  0  0  0  0  0  0  0  0  0  0
    5.0856   -3.5139   -0.1776 H   0  0  0  0  0  0  0  0  0  0  0  0
    3.9479   -0.8768    0.9101 H   0  0  0  0  0  0  0  0  0  0  0  0
    3.8524   -1.4214   -0.7820 H   0  0  0  0  0  0  0  0  0  0  0  0
   -0.4794   -2.8194    0.7623 H   0  0  0  0  0  0  0  0  0  0  0  0
   -3.3241    0.7746    0.7840 H   0  0  0  0  0  0  0  0  0  0  0  0
   -3.4286    0.3338   -0.9464 H   0  0  0  0  0  0  0  0  0  0  0  0
   -5.1268   -1.3043   -0.5381 H   0  0  0  0  0  0  0  0  0  0  0  0
   -5.5990   -0.0309    0.6073 H   0  0  0  0  0  0  0  0  0  0  0  0
   -4.4437   -1.1481    2.4298 H   0  0  0  0  0  0  0  0  0  0  0  0
   -5.1875   -2.5124    1.5758 H   0  0  0  0  0  0  0  0  0  0  0  0
   -2.4958   -2.3792    2.0420 H   0  0  0  0  0  0  0  0  0  0  0  0
   -3.1157   -3.1092    0.5356 H   0  0  0  0  0  0  0  0  0  0  0  0
    3.0589    1.6443   -0.6856 H   0  0  0  0  0  0  0  0  0  0  0  0
    3.6950    3.9017   -1.4170 H   0  0  0  0  0  0  0  0  0  0  0  0
   -0.4562    4.9927   -1.7064 H   0  0  0  0  0  0  0  0  0  0  0  0
   -1.1073    2.7383   -0.9762 H   0  0  0  0  0  0  0  0  0  0  0  0
  1  2  1  0
  2  3  1  0
  3  4  1  0
  4  5  2  0
  5  6  1  0
  6  7  1  0
  7  8  1  0
  8  9  1  0
  9 10  1  0
 10 11  1  0
  6 12  2  0
 12 13  1  0
 13 14  1  0
 14 15  2  0
 15 16  1  0
 16 17  2  0
 17 18  1  0
 17 19  1  0
 19 20  2  0
 13 21  2  0
 21  4  1  0
 11  7  1  0
 20 14  1  0
  1 22  1  0
  1 23  1  0
  1 24  1  0
  2 25  1  0
  2 26  1  0
  5 27  1  0
  8 28  1  0
  8 29  1  0
  9 30  1  0
  9 31  1  0
 10 32  1  0
 10 33  1  0
 11 34  1  0
 11 35  1  0
 15 36  1  0
 16 37  1  0
 19 38  1  0
 20 39  1  0
M  END
$$$$
