
     RDKit          3D

 42 43  0  0  0  0  0  0  0  0999 V2000
    6.3400    0.0710   -0.5592 C   0  0  0  0  0  0  0  0  0  0  0  0
    4.9218    0.5109   -0.3781 C   0  0  0  0  0  0  0  0  0  0  0  0
    4.5961    1.8844    0.5779 S   0  0  0  0  0  0  0  0  0  0  0  0
    2.9243    1.7498    0.3268 C   0  0  0  0  0  0  0  0  0  0  0  0
    2.0988    2.6427    0.8972 N   0  0  0  0  0  0  0  0  0  0  0  0
    0.8190    2.4098    0.6270 C   0  0  0  0  0  0  0  0  0  0  0  0
    0.3156    1.4227   -0.1269 N   0  0  0  0  0  0  0  0  0  0  0  0
    1.1826    0.5544   -0.7015 C   0  0  0  0  0  0  0  0  0  0  0  0
    0.5192   -0.7540   -1.6945 S   0  0  0  0  0  0  0  0  0  0  0  0
   -0.9887    0.0216   -2.3600 C   0  0  0  0  0  0  0  0  0  0  0  0
   -2.1988   -0.3435   -1.5178 C   0  0  0  0  0  0  0  0  0  0  0  0
   -3.0350   -1.1611   -1.8935 O   0  0  0  0  0  0  0  0  0  0  0  0
   -2.2885    0.3440   -0.3272 N   0  0  0  0  0  0  0  0  0  0  0  0
   -3.3332    0.1033    0.6633 C   0  0  0  0  0  0  0  0  0  0  0  0
   -3.8220    1.4639    1.1644 C   0  0  0  0  0  0  0  0  0  0  0  0
   -2.8129   -0.8076    1.8090 C   0  0  0  0  0  0  0  0  0  0  0  0
   -3.8463   -0.9852    2.9267 C   0  0  0  0  0  0  0  0  0  0  0  0
   -2.4042   -2.1937    1.2938 C   0  0  0  0  0  0  0  0  0  0  0  0
    2.5706    0.6768   -0.4812 C   0  0  0  0  0  0  0  0  0  0  0  0
    3.7646   -0.0562   -0.9000 C   0  0  0  0  0  0  0  0  0  0  0  0
    3.7682   -1.2711   -1.7790 C   0  0  0  0  0  0  0  0  0  0  0  0
    6.6263    0.1471   -1.6129 H   0  0  0  0  0  0  0  0  0  0  0  0
    7.0443    0.6749    0.0227 H   0  0  0  0  0  0  0  0  0  0  0  0
    6.4582   -0.9706   -0.2423 H   0  0  0  0  0  0  0  0  0  0  0  0
    0.1025    3.0965    1.0673 H   0  0  0  0  0  0  0  0  0  0  0  0
   -1.1522   -0.3723   -3.3691 H   0  0  0  0  0  0  0  0  0  0  0  0
   -0.8971    1.1086   -2.4521 H   0  0  0  0  0  0  0  0  0  0  0  0
   -1.4477    0.8371   -0.0286 H   0  0  0  0  0  0  0  0  0  0  0  0
   -4.1746   -0.3948    0.1652 H   0  0  0  0  0  0  0  0  0  0  0  0
   -3.0390    1.9829    1.7285 H   0  0  0  0  0  0  0  0  0  0  0  0
   -4.1009    2.1075    0.3220 H   0  0  0  0  0  0  0  0  0  0  0  0
   -4.7047    1.3668    1.8031 H   0  0  0  0  0  0  0  0  0  0  0  0
   -1.9192   -0.3440    2.2495 H   0  0  0  0  0  0  0  0  0  0  0  0
   -4.0415   -0.0416    3.4448 H   0  0  0  0  0  0  0  0  0  0  0  0
   -3.4862   -1.6920    3.6820 H   0  0  0  0  0  0  0  0  0  0  0  0
   -4.7945   -1.3666    2.5329 H   0  0  0  0  0  0  0  0  0  0  0  0
   -2.0925   -2.8415    2.1205 H   0  0  0  0  0  0  0  0  0  0  0  0
   -3.2353   -2.6842    0.7753 H   0  0  0  0  0  0  0  0  0  0  0  0
   -1.5584   -2.1297    0.6036 H   0  0  0  0  0  0  0  0  0  0  0  0
    3.2024   -2.0836   -1.3133 H   0  0  0  0  0  0  0  0  0  0  0  0
    3.3381   -1.0370   -2.7578 H   0  0  0  0  0  0  0  0  0  0  0  0
    4.7806   -1.6465   -1.9563 H   0  0  0  0  0  0  0  0  0  0  0  0
  1  2  1  0
  2  3  1  0
  3  4  1  0
  4  5  2  0
  5  6  1  0
  6  7  2  0
  7  8  1  0
  8  9  1  0
  9 10  1  0
 10 11  1  0
 11 12  2  0
 11 13  1  0
 13 14  1  0
 14 15  1  0
 14 16  1  0
 16 17  1  0
 16 18  1  0
  8 19  2  0
 19 20  1  0
 20 21  1  0
 20  2  2  0
 19  4  1  0
  1 22  1  0
  1 23  1  0
  1 24  1  0
  6 25  1  0
 10 26  1  0
 10 27  1  0
 13 28  1  0
 14 29  1  0
 15 30  1  0
 15 31  1  0
 15 32  1  0
 16 33  1  0
 17 34  1  0
 17 35  1  0
 17 36  1  0
 18 37  1  0
 18 38  1  0
 18 39  1  0
 21 40  1  0
 21 41  1  0
 21 42  1  0
M  END
$$$$
