
     RDKit          3D

 45 48  0  0  0  0  0  0  0  0999 V2000
    2.4352   -1.7512   -3.7068 O   0  0  0  0  0  0  0  0  0  0  0  0
    2.4343   -0.7954   -2.9560 C   0  0  0  0  0  0  0  0  0  0  0  0
    3.5470   -0.0954   -2.6858 O   0  0  0  0  0  0  0  0  0  0  0  0
    1.2931   -0.2378   -2.2235 C   0  0  0  0  0  0  0  0  0  0  0  0
    0.0956   -0.8358   -2.3055 C   0  0  0  0  0  0  0  0  0  0  0  0
   -1.0973   -0.3905   -1.6665 C   0  0  0  0  0  0  0  0  0  0  0  0
   -2.3299   -0.4319   -2.2789 C   0  0  0  0  0  0  0  0  0  0  0  0
   -3.2446    0.0907   -1.3919 N   0  0  0  0  0  0  0  0  0  0  0  0
   -4.6446    0.2714   -1.5816 C   0  0  0  0  0  0  0  0  0  0  0  0
   -5.2709   -0.0938   -2.7817 C   0  0  0  0  0  0  0  0  0  0  0  0
   -6.6475    0.0955   -2.9388 C   0  0  0  0  0  0  0  0  0  0  0  0
   -7.4042    0.6470   -1.9064 C   0  0  0  0  0  0  0  0  0  0  0  0
   -6.7888    1.0121   -0.7113 C   0  0  0  0  0  0  0  0  0  0  0  0
   -5.4145    0.8262   -0.5467 C   0  0  0  0  0  0  0  0  0  0  0  0
   -2.6507    0.4477   -0.2262 N   0  0  0  0  0  0  0  0  0  0  0  0
   -1.3574    0.1346   -0.3793 C   0  0  0  0  0  0  0  0  0  0  0  0
   -0.3502    0.3394    0.8062 C   0  0  0  0  0  0  0  0  0  0  0  0
   -0.6720    0.8696    2.0400 C   0  0  0  0  0  0  0  0  0  0  0  0
    0.5175    0.8744    2.8079 C   0  0  0  0  0  0  0  0  0  0  0  0
    1.5076    0.3409    2.0069 C   0  0  0  0  0  0  0  0  0  0  0  0
    2.9342    0.0740    2.1820 C   0  0  0  0  0  0  0  0  0  0  0  0
    3.5978    0.4801    3.3517 C   0  0  0  0  0  0  0  0  0  0  0  0
    4.9648    0.2341    3.5297 C   0  0  0  0  0  0  0  0  0  0  0  0
    5.6836   -0.4272    2.5278 C   0  0  0  0  0  0  0  0  0  0  0  0
    7.1176   -0.6852    2.7069 N   0  0  0  0  0  4  0  0  0  0  0  0
    7.6400   -0.3219    3.7705 O   0  0  0  0  0  0  0  0  0  0  0  0
    7.7218   -1.2499    1.7839 O   0  0  0  0  0  1  0  0  0  0  0  0
    5.0437   -0.8429    1.3561 C   0  0  0  0  0  0  0  0  0  0  0  0
    3.6771   -0.5909    1.1915 C   0  0  0  0  0  0  0  0  0  0  0  0
    0.9755    0.0134    0.7916 O   0  0  0  0  0  0  0  0  0  0  0  0
    4.2383   -0.5321   -3.2261 H   0  0  0  0  0  0  0  0  0  0  0  0
    1.4677    0.6582   -1.6417 H   0  0  0  0  0  0  0  0  0  0  0  0
   -0.0018   -1.7109   -2.9491 H   0  0  0  0  0  0  0  0  0  0  0  0
   -2.6145   -0.7704   -3.2632 H   0  0  0  0  0  0  0  0  0  0  0  0
   -4.7243   -0.5267   -3.6132 H   0  0  0  0  0  0  0  0  0  0  0  0
   -7.1312   -0.1886   -3.8705 H   0  0  0  0  0  0  0  0  0  0  0  0
   -8.4741    0.7922   -2.0331 H   0  0  0  0  0  0  0  0  0  0  0  0
   -7.3772    1.4423    0.0952 H   0  0  0  0  0  0  0  0  0  0  0  0
   -4.9574    1.1195    0.3966 H   0  0  0  0  0  0  0  0  0  0  0  0
   -1.6538    1.2111    2.3390 H   0  0  0  0  0  0  0  0  0  0  0  0
    0.6295    1.2240    3.8241 H   0  0  0  0  0  0  0  0  0  0  0  0
    3.0593    0.9991    4.1421 H   0  0  0  0  0  0  0  0  0  0  0  0
    5.4468    0.5646    4.4477 H   0  0  0  0  0  0  0  0  0  0  0  0
    5.5843   -1.3598    0.5660 H   0  0  0  0  0  0  0  0  0  0  0  0
    3.1948   -0.9238    0.2742 H   0  0  0  0  0  0  0  0  0  0  0  0
  1  2  2  0
  2  3  1  0
  2  4  1  0
  4  5  2  3
  5  6  1  0
  6  7  2  0
  7  8  1  0
  8  9  1  0
  9 10  2  0
 10 11  1  0
 11 12  2  0
 12 13  1  0
 13 14  2  0
  8 15  1  0
 15 16  2  0
 16 17  1  0
 17 18  2  0
 18 19  1  0
 19 20  2  0
 20 21  1  0
 21 22  2  0
 22 23  1  0
 23 24  2  0
 24 25  1  0
 25 26  2  0
 25 27  1  0
 24 28  1  0
 28 29  2  0
 20 30  1  0
 16  6  1  0
 30 17  1  0
 14  9  1  0
 29 21  1  0
  3 31  1  0
  4 32  1  0
  5 33  1  0
  7 34  1  0
 10 35  1  0
 11 36  1  0
 12 37  1  0
 13 38  1  0
 14 39  1  0
 18 40  1  0
 19 41  1  0
 22 42  1  0
 23 43  1  0
 28 44  1  0
 29 45  1  0
M  CHG  2  25   1  27  -1
M  END
$$$$
