
     RDKit          3D

 46 47  0  0  0  0  0  0  0  0999 V2000
    0.4875   -0.1970   -1.5710 O   0  0  0  0  0  0  0  0  0  0  0  0
    0.7932    0.4116   -0.5567 C   0  0  0  0  0  0  0  0  0  0  0  0
   -0.1027    0.8675    0.3809 N   0  0  0  0  0  0  0  0  0  0  0  0
   -1.5322    0.5591    0.2684 C   0  0  0  0  0  0  0  0  0  0  0  0
   -2.3059    1.6368    1.0460 C   0  0  0  0  0  0  0  0  0  0  0  0
   -3.8176    1.4603    1.1874 C   0  0  0  0  0  0  0  0  0  0  0  0
   -4.5266    1.0640   -0.1047 C   0  0  0  0  0  0  0  0  0  0  0  0
   -5.1454   -0.3323   -0.0781 C   0  0  0  0  0  0  0  0  0  0  0  0
   -4.3085   -1.4658    0.5159 C   0  0  0  0  0  0  0  0  0  0  0  0
   -2.8966   -1.6179   -0.0448 C   0  0  0  0  0  0  0  0  0  0  0  0
   -1.8023   -0.8807    0.7414 C   0  0  0  0  0  0  0  0  0  0  0  0
    2.0772    0.7409   -0.1922 N   0  0  0  0  0  0  0  0  0  0  0  0
    3.2073    0.4097   -1.0597 C   0  0  0  0  0  0  0  0  0  0  0  0
    3.4827   -1.0999   -1.0707 C   0  0  0  0  0  0  0  0  0  0  0  0
    3.8864   -1.6359    0.3069 C   0  0  0  0  0  0  0  0  0  0  0  0
    4.6269   -0.6134    1.1697 C   0  0  0  0  0  0  0  0  0  0  0  0
    5.3874    0.3978    0.3248 C   0  0  0  0  0  0  0  0  0  0  0  0
    4.4727    1.1757   -0.6283 C   0  0  0  0  0  0  0  0  0  0  0  0
    0.2764    0.9097    1.3158 H   0  0  0  0  0  0  0  0  0  0  0  0
   -1.7714    0.6402   -0.7979 H   0  0  0  0  0  0  0  0  0  0  0  0
   -1.8842    1.7369    2.0555 H   0  0  0  0  0  0  0  0  0  0  0  0
   -2.1179    2.6039    0.5587 H   0  0  0  0  0  0  0  0  0  0  0  0
   -4.0349    0.7616    2.0015 H   0  0  0  0  0  0  0  0  0  0  0  0
   -4.2261    2.4219    1.5259 H   0  0  0  0  0  0  0  0  0  0  0  0
   -3.8698    1.1616   -0.9748 H   0  0  0  0  0  0  0  0  0  0  0  0
   -5.3415    1.7772   -0.2871 H   0  0  0  0  0  0  0  0  0  0  0  0
   -6.0862   -0.2845    0.4859 H   0  0  0  0  0  0  0  0  0  0  0  0
   -5.4284   -0.5988   -1.1045 H   0  0  0  0  0  0  0  0  0  0  0  0
   -4.2805   -1.3930    1.6089 H   0  0  0  0  0  0  0  0  0  0  0  0
   -4.8535   -2.3966    0.3071 H   0  0  0  0  0  0  0  0  0  0  0  0
   -2.6521   -2.6874    0.0170 H   0  0  0  0  0  0  0  0  0  0  0  0
   -2.8630   -1.3674   -1.1111 H   0  0  0  0  0  0  0  0  0  0  0  0
   -0.8859   -1.4718    0.6069 H   0  0  0  0  0  0  0  0  0  0  0  0
   -2.0024   -0.9070    1.8194 H   0  0  0  0  0  0  0  0  0  0  0  0
    2.1189    1.6315    0.2816 H   0  0  0  0  0  0  0  0  0  0  0  0
    2.9311    0.7354   -2.0705 H   0  0  0  0  0  0  0  0  0  0  0  0
    2.6183   -1.6655   -1.4357 H   0  0  0  0  0  0  0  0  0  0  0  0
    4.2958   -1.3008   -1.7808 H   0  0  0  0  0  0  0  0  0  0  0  0
    2.9964   -1.9766    0.8500 H   0  0  0  0  0  0  0  0  0  0  0  0
    4.5139   -2.5243    0.1652 H   0  0  0  0  0  0  0  0  0  0  0  0
    5.3135   -1.1340    1.8471 H   0  0  0  0  0  0  0  0  0  0  0  0
    3.9092   -0.0833    1.8080 H   0  0  0  0  0  0  0  0  0  0  0  0
    6.1506   -0.1306   -0.2608 H   0  0  0  0  0  0  0  0  0  0  0  0
    5.9269    1.1008    0.9699 H   0  0  0  0  0  0  0  0  0  0  0  0
    5.0606    1.4234   -1.5217 H   0  0  0  0  0  0  0  0  0  0  0  0
    4.2026    2.1370   -0.1738 H   0  0  0  0  0  0  0  0  0  0  0  0
  1  2  2  0
  2  3  1  0
  3  4  1  0
  4  5  1  0
  5  6  1  0
  6  7  1  0
  7  8  1  0
  8  9  1  0
  9 10  1  0
 10 11  1  0
  2 12  1  0
 12 13  1  0
 13 14  1  0
 14 15  1  0
 15 16  1  0
 16 17  1  0
 17 18  1  0
 11  4  1  0
 18 13  1  0
  3 19  1  0
  4 20  1  0
  5 21  1  0
  5 22  1  0
  6 23  1  0
  6 24  1  0
  7 25  1  0
  7 26  1  0
  8 27  1  0
  8 28  1  0
  9 29  1  0
  9 30  1  0
 10 31  1  0
 10 32  1  0
 11 33  1  0
 11 34  1  0
 12 35  1  0
 13 36  1  0
 14 37  1  0
 14 38  1  0
 15 39  1  0
 15 40  1  0
 16 41  1  0
 16 42  1  0
 17 43  1  0
 17 44  1  0
 18 45  1  0
 18 46  1  0
M  END
$$$$
