
     RDKit          3D

 48 51  0  0  0  0  0  0  0  0999 V2000
   -7.5880   -2.3198    0.5614 C   0  0  0  0  0  0  0  0  0  0  0  0
   -6.4580   -1.3742    0.2709 C   0  0  0  0  0  0  0  0  0  0  0  0
   -6.7271   -0.0231    0.0887 C   0  0  0  0  0  0  0  0  0  0  0  0
   -5.6848    0.8784   -0.1888 C   0  0  0  0  0  0  0  0  0  0  0  0
   -6.0205    2.3296   -0.3916 C   0  0  0  0  0  0  0  0  0  0  0  0
   -4.3656    0.3468   -0.2505 C   0  0  0  0  0  0  0  0  0  0  0  0
   -3.0622    0.9220   -0.4845 C   0  0  0  0  0  0  0  0  0  0  0  0
   -2.8385    2.2421   -0.6983 N   0  0  0  0  0  0  0  0  0  0  0  0
   -2.0358   -0.0092   -0.4793 C   0  0  0  0  0  0  0  0  0  0  0  0
   -0.6091    0.2323   -0.6718 C   0  0  0  0  0  0  0  0  0  0  0  0
   -0.1308    1.3635   -0.7869 O   0  0  0  0  0  0  0  0  0  0  0  0
    0.1979   -0.9026   -0.7245 N   0  0  0  0  0  0  0  0  0  0  0  0
    1.5921   -0.7397   -0.5105 N   0  0  0  0  0  0  0  0  0  0  0  0
    2.3461   -0.4553   -1.7181 C   0  0  0  0  0  0  0  0  0  0  0  0
    3.7109    0.1312   -1.3584 C   0  0  0  0  0  0  0  0  0  0  0  0
    4.2999    0.8544   -2.1621 O   0  0  0  0  0  0  0  0  0  0  0  0
    4.2543   -0.3421   -0.1482 N   0  0  0  0  0  0  0  0  0  0  0  0
    5.5338    0.1246    0.3190 C   0  0  0  0  0  0  0  0  0  0  0  0
    5.9246    1.4556    0.1010 C   0  0  0  0  0  0  0  0  0  0  0  0
    7.1509    1.9418    0.5719 C   0  0  0  0  0  0  0  0  0  0  0  0
    8.0148    1.1067    1.2738 C   0  0  0  0  0  0  0  0  0  0  0  0
    7.6518   -0.2161    1.5025 C   0  0  0  0  0  0  0  0  0  0  0  0
    6.4282   -0.6948    1.0309 C   0  0  0  0  0  0  0  0  0  0  0  0
    6.1604   -1.9936    1.2397 F   0  0  0  0  0  0  0  0  0  0  0  0
    3.6837   -1.5633    0.4385 C   0  0  0  0  0  0  0  0  0  0  0  0
    2.1577   -1.5625    0.4523 C   0  0  0  0  0  0  0  0  0  0  0  0
    1.4890   -2.3011    1.1737 O   0  0  0  0  0  0  0  0  0  0  0  0
   -2.6396   -1.5817   -0.1787 S   0  0  0  0  0  0  0  0  0  0  0  0
   -4.2407   -1.0262   -0.0577 C   0  0  0  0  0  0  0  0  0  0  0  0
   -5.2264   -1.9086    0.1988 N   0  0  0  0  0  0  0  0  0  0  0  0
   -8.0975   -2.0275    1.4850 H   0  0  0  0  0  0  0  0  0  0  0  0
   -8.3066   -2.3147   -0.2641 H   0  0  0  0  0  0  0  0  0  0  0  0
   -7.2189   -3.3430    0.6856 H   0  0  0  0  0  0  0  0  0  0  0  0
   -7.7526    0.3316    0.1570 H   0  0  0  0  0  0  0  0  0  0  0  0
   -7.1024    2.4904   -0.4471 H   0  0  0  0  0  0  0  0  0  0  0  0
   -5.6345    2.9233    0.4426 H   0  0  0  0  0  0  0  0  0  0  0  0
   -5.5909    2.6919   -1.3305 H   0  0  0  0  0  0  0  0  0  0  0  0
   -1.8732    2.5869   -0.7139 H   0  0  0  0  0  0  0  0  0  0  0  0
   -3.4902    2.9521   -0.3840 H   0  0  0  0  0  0  0  0  0  0  0  0
   -0.1938   -1.7572   -0.3251 H   0  0  0  0  0  0  0  0  0  0  0  0
    2.4986   -1.3834   -2.2794 H   0  0  0  0  0  0  0  0  0  0  0  0
    1.8042    0.2739   -2.3282 H   0  0  0  0  0  0  0  0  0  0  0  0
    5.2724    2.1530   -0.4206 H   0  0  0  0  0  0  0  0  0  0  0  0
    7.4245    2.9784    0.3877 H   0  0  0  0  0  0  0  0  0  0  0  0
    8.9672    1.4848    1.6361 H   0  0  0  0  0  0  0  0  0  0  0  0
    8.3170   -0.8866    2.0377 H   0  0  0  0  0  0  0  0  0  0  0  0
    3.9781   -1.6401    1.4900 H   0  0  0  0  0  0  0  0  0  0  0  0
    4.0299   -2.4290   -0.1354 H   0  0  0  0  0  0  0  0  0  0  0  0
  1  2  1  0
  2  3  2  0
  3  4  1  0
  4  5  1  0
  4  6  2  0
  6  7  1  0
  7  8  1  0
  7  9  2  0
  9 10  1  0
 10 11  2  0
 10 12  1  0
 12 13  1  0
 13 14  1  0
 14 15  1  0
 15 16  2  0
 15 17  1  0
 17 18  1  0
 18 19  2  0
 19 20  1  0
 20 21  2  0
 21 22  1  0
 22 23  2  0
 23 24  1  0
 17 25  1  0
 25 26  1  0
 26 27  2  0
  9 28  1  0
 28 29  1  0
 29 30  2  0
 30  2  1  0
 29  6  1  0
 26 13  1  0
 23 18  1  0
  1 31  1  0
  1 32  1  0
  1 33  1  0
  3 34  1  0
  5 35  1  0
  5 36  1  0
  5 37  1  0
  8 38  1  0
  8 39  1  0
 12 40  1  0
 14 41  1  0
 14 42  1  0
 19 43  1  0
 20 44  1  0
 21 45  1  0
 22 46  1  0
 25 47  1  0
 25 48  1  0
M  END
$$$$
