
     RDKit          3D

 37 37  0  0  0  0  0  0  0  0999 V2000
   -4.2605    1.8206    1.0574 C   0  0  0  0  0  0  0  0  0  0  0  0
   -3.9329    0.7764   -0.0004 C   0  0  0  0  0  0  0  0  0  0  0  0
   -2.9180   -0.1675    0.4874 N   0  0  0  0  0  0  0  0  0  0  0  0
   -3.4385   -1.3833    1.1294 C   0  0  0  0  0  0  0  0  0  0  0  0
   -3.6090   -2.5071    0.1170 C   0  0  0  0  0  0  0  0  0  0  0  0
   -1.5550    0.0646    0.3391 C   0  0  0  0  0  0  0  0  0  0  0  0
   -0.5869   -0.8995    0.6778 C   0  0  0  0  0  0  0  0  0  0  0  0
    0.7900   -0.6741    0.5315 C   0  0  0  0  0  0  0  0  0  0  0  0
    1.2428    0.5423    0.0354 C   0  0  0  0  0  0  0  0  0  0  0  0
    2.6841    0.8115   -0.1310 C   0  0  0  0  0  0  0  0  0  0  0  0
    3.5793   -0.0659    0.1714 N   0  0  0  0  0  0  0  0  0  0  0  0
    4.9777    0.3475   -0.0495 C   0  0  0  0  0  0  0  0  0  0  0  0
    5.8331   -0.3574    0.9194 C   0  0  0  0  0  0  0  0  0  0  0  0
    6.5402   -0.8783    1.6790 N   0  0  0  0  0  0  0  0  0  0  0  0
    5.3723    0.0021   -1.4615 C   0  0  0  0  0  0  0  0  0  0  0  0
    5.6103    0.8540   -2.4124 N   0  0  0  0  0  0  0  0  0  0  0  0
    5.4710   -1.3806   -1.8785 C   0  0  0  0  0  0  0  0  0  0  0  0
    5.5496   -2.4946   -2.2010 N   0  0  0  0  0  0  0  0  0  0  0  0
    0.3238    1.5254   -0.3121 C   0  0  0  0  0  0  0  0  0  0  0  0
   -1.0497    1.2806   -0.1592 C   0  0  0  0  0  0  0  0  0  0  0  0
   -4.6354    1.3495    1.9721 H   0  0  0  0  0  0  0  0  0  0  0  0
   -3.3823    2.4149    1.3272 H   0  0  0  0  0  0  0  0  0  0  0  0
   -5.0316    2.5037    0.6876 H   0  0  0  0  0  0  0  0  0  0  0  0
   -3.6303    1.2511   -0.9404 H   0  0  0  0  0  0  0  0  0  0  0  0
   -4.8545    0.2334   -0.2465 H   0  0  0  0  0  0  0  0  0  0  0  0
   -2.8105   -1.7022    1.9687 H   0  0  0  0  0  0  0  0  0  0  0  0
   -4.4173   -1.1720    1.5789 H   0  0  0  0  0  0  0  0  0  0  0  0
   -4.2979   -2.2150   -0.6826 H   0  0  0  0  0  0  0  0  0  0  0  0
   -4.0162   -3.3974    0.6063 H   0  0  0  0  0  0  0  0  0  0  0  0
   -2.6582   -2.7817   -0.3495 H   0  0  0  0  0  0  0  0  0  0  0  0
   -0.8763   -1.8739    1.0599 H   0  0  0  0  0  0  0  0  0  0  0  0
    1.4896   -1.4597    0.8073 H   0  0  0  0  0  0  0  0  0  0  0  0
    2.9522    1.8060   -0.5328 H   0  0  0  0  0  0  0  0  0  0  0  0
    5.0984    1.4280    0.1005 H   0  0  0  0  0  0  0  0  0  0  0  0
    5.5204    1.8226   -2.0905 H   0  0  0  0  0  0  0  0  0  0  0  0
    0.6457    2.4871   -0.7013 H   0  0  0  0  0  0  0  0  0  0  0  0
   -1.7195    2.0890   -0.4368 H   0  0  0  0  0  0  0  0  0  0  0  0
  1  2  1  0
  2  3  1  0
  3  4  1  0
  4  5  1  0
  3  6  1  0
  6  7  2  0
  7  8  1  0
  8  9  2  0
  9 10  1  0
 10 11  2  3
 11 12  1  0
 12 13  1  0
 13 14  3  0
 12 15  1  0
 15 16  2  3
 15 17  1  0
 17 18  3  0
  9 19  1  0
 19 20  2  0
 20  6  1  0
  1 21  1  0
  1 22  1  0
  1 23  1  0
  2 24  1  0
  2 25  1  0
  4 26  1  0
  4 27  1  0
  5 28  1  0
  5 29  1  0
  5 30  1  0
  7 31  1  0
  8 32  1  0
 10 33  1  0
 12 34  1  0
 16 35  1  0
 19 36  1  0
 20 37  1  0
M  END
$$$$
