
     RDKit          3D

 43 45  0  0  0  0  0  0  0  0999 V2000
    3.9255    2.8871   -0.0616 C   0  0  0  0  0  0  0  0  0  0  0  0
    3.2803    1.5502    0.2109 C   0  0  0  0  0  0  0  0  0  0  0  0
    3.5687    0.4441   -0.7514 C   0  0  0  0  0  0  0  0  0  0  0  0
    2.9853   -0.7462   -0.5097 C   0  0  0  0  0  0  0  0  0  0  0  0
    3.2243   -1.9028   -1.4319 C   0  0  0  0  0  0  0  0  0  0  0  0
    2.1592   -0.8605    0.6246 N   0  0  0  0  0  0  0  0  0  0  0  0
    1.3907   -1.8655    1.1794 C   0  0  0  0  0  0  0  0  0  0  0  0
    1.0827   -3.4205    0.4750 S   0  0  0  0  0  0  0  0  0  0  0  0
   -0.7441   -3.3232    0.3853 C   0  0  0  0  0  0  0  0  0  0  0  0
   -1.1511   -2.0418   -0.3448 C   0  0  0  0  0  0  0  0  0  0  0  0
   -0.7072   -1.7939   -1.4710 O   0  0  0  0  0  0  0  0  0  0  0  0
   -1.9562   -1.1213    0.3228 N   0  0  0  0  0  0  0  0  0  0  0  0
   -2.7650   -1.4558    1.4898 C   0  0  0  0  0  0  0  0  0  0  0  0
   -1.9785    0.2561   -0.1903 C   0  0  0  0  0  0  0  0  0  0  0  0
   -2.1180    1.3545    0.8762 C   0  0  0  0  0  0  0  0  0  0  0  0
   -2.2104    2.6590    0.0969 C   0  0  0  0  0  0  0  0  0  0  0  0
   -3.2045    2.2684   -1.3360 S   0  0  0  0  0  6  0  0  0  0  0  0
   -2.4921    2.6972   -2.5215 O   0  0  0  0  0  0  0  0  0  0  0  0
   -4.5721    2.6666   -1.0720 O   0  0  0  0  0  0  0  0  0  0  0  0
   -3.0980    0.4926   -1.2023 C   0  0  0  0  0  0  0  0  0  0  0  0
    0.7925   -1.4469    2.2709 N   0  0  0  0  0  0  0  0  0  0  0  0
    1.1379   -0.1358    2.4567 N   0  0  0  0  0  0  0  0  0  0  0  0
    1.9456    0.2279    1.4801 C   0  0  0  0  0  0  0  0  0  0  0  0
    2.5136    1.4472    1.2541 N   0  0  0  0  0  0  0  0  0  0  0  0
    4.4658    3.2168    0.8316 H   0  0  0  0  0  0  0  0  0  0  0  0
    4.6284    2.8328   -0.8966 H   0  0  0  0  0  0  0  0  0  0  0  0
    3.1484    3.6195   -0.2990 H   0  0  0  0  0  0  0  0  0  0  0  0
    4.2193    0.6362   -1.5949 H   0  0  0  0  0  0  0  0  0  0  0  0
    2.2953   -2.2197   -1.9145 H   0  0  0  0  0  0  0  0  0  0  0  0
    3.6703   -2.7450   -0.8941 H   0  0  0  0  0  0  0  0  0  0  0  0
    3.9213   -1.6405   -2.2366 H   0  0  0  0  0  0  0  0  0  0  0  0
   -1.1176   -3.3808    1.4073 H   0  0  0  0  0  0  0  0  0  0  0  0
   -1.1306   -4.1803   -0.1738 H   0  0  0  0  0  0  0  0  0  0  0  0
   -2.9816   -2.5255    1.5297 H   0  0  0  0  0  0  0  0  0  0  0  0
   -2.2273   -1.1522    2.3920 H   0  0  0  0  0  0  0  0  0  0  0  0
   -3.7257   -0.9361    1.4316 H   0  0  0  0  0  0  0  0  0  0  0  0
   -1.0213    0.4344   -0.7019 H   0  0  0  0  0  0  0  0  0  0  0  0
   -1.2725    1.3632    1.5712 H   0  0  0  0  0  0  0  0  0  0  0  0
   -3.0314    1.2229    1.4672 H   0  0  0  0  0  0  0  0  0  0  0  0
   -2.6833    3.4589    0.6697 H   0  0  0  0  0  0  0  0  0  0  0  0
   -1.2248    2.9791   -0.2537 H   0  0  0  0  0  0  0  0  0  0  0  0
   -2.8801    0.0606   -2.1817 H   0  0  0  0  0  0  0  0  0  0  0  0
   -4.0617    0.1190   -0.8420 H   0  0  0  0  0  0  0  0  0  0  0  0
  1  2  1  0
  2  3  1  0
  3  4  2  0
  4  5  1  0
  4  6  1  0
  6  7  1  0
  7  8  1  0
  8  9  1  0
  9 10  1  0
 10 11  2  0
 10 12  1  0
 12 13  1  0
 12 14  1  0
 14 15  1  0
 15 16  1  0
 16 17  1  0
 17 18  2  0
 17 19  2  0
 17 20  1  0
  7 21  2  0
 21 22  1  0
 22 23  2  0
 23 24  1  0
 24  2  2  0
 23  6  1  0
 20 14  1  0
  1 25  1  0
  1 26  1  0
  1 27  1  0
  3 28  1  0
  5 29  1  0
  5 30  1  0
  5 31  1  0
  9 32  1  0
  9 33  1  0
 13 34  1  0
 13 35  1  0
 13 36  1  0
 14 37  1  0
 15 38  1  0
 15 39  1  0
 16 40  1  0
 16 41  1  0
 20 42  1  0
 20 43  1  0
M  END
$$$$
