
     RDKit          3D

 49 51  0  0  0  0  0  0  0  0999 V2000
    7.3808    1.5390   -1.9502 C   0  0  0  0  0  0  0  0  0  0  0  0
    6.0110    1.0185   -1.5517 C   0  0  0  0  0  0  0  0  0  0  0  0
    5.0799    2.3081   -0.6947 S   0  0  0  0  0  0  0  0  0  0  0  0
    3.5849    1.4544   -0.3926 C   0  0  0  0  0  0  0  0  0  0  0  0
    3.5892    0.1711   -0.2395 N   0  0  0  0  0  0  0  0  0  0  0  0
    2.3831   -0.4549   -0.0267 C   0  0  0  0  0  0  0  0  0  0  0  0
    2.2959   -1.6720    0.1199 O   0  0  0  0  0  0  0  0  0  0  0  0
    1.1373    0.3740   -0.0036 C   0  0  0  0  0  0  0  0  0  0  0  0
    1.2329    1.7103   -0.1438 C   0  0  0  0  0  0  0  0  0  0  0  0
    2.4793    2.2356   -0.3224 N   0  0  0  0  0  0  0  0  0  0  0  0
    0.1241    2.5211   -0.1543 N   0  0  0  0  0  0  0  0  0  0  0  0
   -0.9955    2.0592    0.3251 C   0  0  0  0  0  0  0  0  0  0  0  0
   -2.1698    2.9807    0.3386 C   0  0  0  0  0  0  0  0  0  0  0  0
   -1.1195    0.6771    0.9333 C   0  0  0  0  0  0  0  0  0  0  0  0
   -2.5056    0.1001    1.0542 C   0  0  0  0  0  0  0  0  0  0  0  0
   -3.4289    0.2998    0.2716 O   0  0  0  0  0  0  0  0  0  0  0  0
   -2.5608   -0.7005    2.1655 O   0  0  0  0  0  0  0  0  0  0  0  0
   -3.8186   -1.3464    2.4433 C   0  0  0  0  0  0  0  0  0  0  0  0
   -4.0682   -1.2019    3.9402 C   0  0  0  0  0  0  0  0  0  0  0  0
   -3.7106   -2.8221    2.0498 C   0  0  0  0  0  0  0  0  0  0  0  0
   -0.1806   -0.3113    0.2225 C   0  0  0  0  0  0  0  0  0  0  0  0
   -0.7102   -0.9250   -1.0745 C   0  0  0  0  0  0  0  0  0  0  0  0
   -0.6472   -2.3144   -1.2657 C   0  0  0  0  0  0  0  0  0  0  0  0
   -1.1359   -2.8557   -2.4502 C   0  0  0  0  0  0  0  0  0  0  0  0
   -1.6779   -2.1257   -3.4486 N   0  0  0  0  0  0  0  0  0  0  0  0
   -1.7159   -0.7890   -3.2616 C   0  0  0  0  0  0  0  0  0  0  0  0
   -1.2427   -0.1533   -2.1175 C   0  0  0  0  0  0  0  0  0  0  0  0
    7.9719    1.8365   -1.0784 H   0  0  0  0  0  0  0  0  0  0  0  0
    7.3172    2.3785   -2.6509 H   0  0  0  0  0  0  0  0  0  0  0  0
    7.9306    0.7466   -2.4621 H   0  0  0  0  0  0  0  0  0  0  0  0
    6.1303    0.1430   -0.9096 H   0  0  0  0  0  0  0  0  0  0  0  0
    5.4662    0.7092   -2.4412 H   0  0  0  0  0  0  0  0  0  0  0  0
    2.5323    3.2096   -0.5518 H   0  0  0  0  0  0  0  0  0  0  0  0
   -1.8484    4.0198    0.1998 H   0  0  0  0  0  0  0  0  0  0  0  0
   -2.6729    2.9082    1.2857 H   0  0  0  0  0  0  0  0  0  0  0  0
   -2.8497    2.7083   -0.4503 H   0  0  0  0  0  0  0  0  0  0  0  0
   -0.7608    0.8356    1.9604 H   0  0  0  0  0  0  0  0  0  0  0  0
   -4.6464   -0.8725    1.8944 H   0  0  0  0  0  0  0  0  0  0  0  0
   -5.0250   -1.6509    4.2275 H   0  0  0  0  0  0  0  0  0  0  0  0
   -4.0660   -0.1438    4.2296 H   0  0  0  0  0  0  0  0  0  0  0  0
   -3.2784   -1.6884    4.5142 H   0  0  0  0  0  0  0  0  0  0  0  0
   -2.8582   -3.2989    2.5551 H   0  0  0  0  0  0  0  0  0  0  0  0
   -3.5340   -2.9193    0.9704 H   0  0  0  0  0  0  0  0  0  0  0  0
   -4.6202   -3.3760    2.3021 H   0  0  0  0  0  0  0  0  0  0  0  0
   -0.0335   -1.1321    0.9381 H   0  0  0  0  0  0  0  0  0  0  0  0
   -0.2110   -2.9729   -0.5171 H   0  0  0  0  0  0  0  0  0  0  0  0
   -1.0971   -3.9293   -2.6308 H   0  0  0  0  0  0  0  0  0  0  0  0
   -2.1483   -0.2181   -4.0811 H   0  0  0  0  0  0  0  0  0  0  0  0
   -1.3093    0.9299   -2.0705 H   0  0  0  0  0  0  0  0  0  0  0  0
  1  2  1  0
  2  3  1  0
  3  4  1  0
  4  5  2  0
  5  6  1  0
  6  7  2  0
  6  8  1  0
  8  9  2  0
  9 10  1  0
  9 11  1  0
 11 12  2  0
 12 13  1  0
 12 14  1  0
 14 15  1  0
 15 16  2  0
 15 17  1  0
 17 18  1  0
 18 19  1  0
 18 20  1  0
 14 21  1  0
 21 22  1  0
 22 23  2  0
 23 24  1  0
 24 25  2  0
 25 26  1  0
 26 27  2  0
 10  4  1  0
 27 22  1  0
 21  8  1  0
  1 28  1  0
  1 29  1  0
  1 30  1  0
  2 31  1  0
  2 32  1  0
 10 33  1  0
 13 34  1  0
 13 35  1  0
 13 36  1  0
 14 37  1  0
 18 38  1  0
 19 39  1  0
 19 40  1  0
 19 41  1  0
 20 42  1  0
 20 43  1  0
 20 44  1  0
 21 45  1  0
 23 46  1  0
 24 47  1  0
 26 48  1  0
 27 49  1  0
M  END
$$$$
