
     RDKit          3D

 47 49  0  0  0  0  0  0  0  0999 V2000
    7.7402   -0.5885   -2.3126 C   0  0  0  0  0  0  0  0  0  0  0  0
    6.4444   -0.7650   -1.7533 O   0  0  0  0  0  0  0  0  0  0  0  0
    5.5478    0.2517   -1.9399 C   0  0  0  0  0  0  0  0  0  0  0  0
    5.7737    1.4215   -2.6612 C   0  0  0  0  0  0  0  0  0  0  0  0
    4.7568    2.3702   -2.7812 C   0  0  0  0  0  0  0  0  0  0  0  0
    3.5157    2.1603   -2.1735 C   0  0  0  0  0  0  0  0  0  0  0  0
    3.2841    1.0079   -1.4246 C   0  0  0  0  0  0  0  0  0  0  0  0
    2.0519    0.6992   -0.8084 N   0  0  0  0  0  0  0  0  0  0  0  0
    1.0072    1.5102   -0.3820 C   0  0  0  0  0  0  0  0  0  0  0  0
    1.1424    3.1470   -0.0181 S   0  0  0  0  0  0  0  0  0  0  0  0
   -0.1829    0.7657   -0.1993 N   0  0  0  0  0  0  0  0  0  0  0  0
   -0.5305   -0.3381   -1.1054 C   0  0  0  0  0  0  0  0  0  0  0  0
   -1.1724   -1.4905   -0.3388 C   0  0  0  0  0  0  0  0  0  0  0  0
   -2.3156   -1.0141    0.5199 C   0  0  0  0  0  0  0  0  0  0  0  0
   -3.2942   -1.9233    0.9503 C   0  0  0  0  0  0  0  0  0  0  0  0
   -4.3504   -1.5051    1.7673 C   0  0  0  0  0  0  0  0  0  0  0  0
   -5.3507   -2.3274    2.2249 O   0  0  0  0  0  0  0  0  0  0  0  0
   -5.3035   -3.6965    1.8521 C   0  0  0  0  0  0  0  0  0  0  0  0
   -4.4259   -0.1578    2.1687 C   0  0  0  0  0  0  0  0  0  0  0  0
   -5.4937    0.1751    2.9656 O   0  0  0  0  0  0  0  0  0  0  0  0
   -5.5873    1.5173    3.4193 C   0  0  0  0  0  0  0  0  0  0  0  0
   -3.4410    0.7439    1.7488 C   0  0  0  0  0  0  0  0  0  0  0  0
   -2.3760    0.3253    0.9330 C   0  0  0  0  0  0  0  0  0  0  0  0
   -1.3407    1.3433    0.5007 C   0  0  0  0  0  0  0  0  0  0  0  0
    4.3019    0.0490   -1.3349 C   0  0  0  0  0  0  0  0  0  0  0  0
    8.2408    0.2855   -1.8828 H   0  0  0  0  0  0  0  0  0  0  0  0
    7.6922   -0.5206   -3.4044 H   0  0  0  0  0  0  0  0  0  0  0  0
    8.3361   -1.4709   -2.0601 H   0  0  0  0  0  0  0  0  0  0  0  0
    6.7211    1.6233   -3.1490 H   0  0  0  0  0  0  0  0  0  0  0  0
    4.9254    3.2763   -3.3582 H   0  0  0  0  0  0  0  0  0  0  0  0
    2.7407    2.9023   -2.3324 H   0  0  0  0  0  0  0  0  0  0  0  0
    1.9919   -0.2354   -0.4245 H   0  0  0  0  0  0  0  0  0  0  0  0
   -1.2280    0.0689   -1.8497 H   0  0  0  0  0  0  0  0  0  0  0  0
    0.3326   -0.7052   -1.6671 H   0  0  0  0  0  0  0  0  0  0  0  0
   -0.4274   -1.9624    0.3135 H   0  0  0  0  0  0  0  0  0  0  0  0
   -1.5238   -2.2426   -1.0545 H   0  0  0  0  0  0  0  0  0  0  0  0
   -3.2093   -2.9571    0.6313 H   0  0  0  0  0  0  0  0  0  0  0  0
   -6.1657   -4.1962    2.3041 H   0  0  0  0  0  0  0  0  0  0  0  0
   -4.4001   -4.1805    2.2376 H   0  0  0  0  0  0  0  0  0  0  0  0
   -5.3840   -3.8136    0.7664 H   0  0  0  0  0  0  0  0  0  0  0  0
   -5.7092    2.2100    2.5802 H   0  0  0  0  0  0  0  0  0  0  0  0
   -4.7235    1.7881    4.0354 H   0  0  0  0  0  0  0  0  0  0  0  0
   -6.4801    1.5967    4.0470 H   0  0  0  0  0  0  0  0  0  0  0  0
   -3.4762    1.7876    2.0462 H   0  0  0  0  0  0  0  0  0  0  0  0
   -1.8151    2.0614   -0.1795 H   0  0  0  0  0  0  0  0  0  0  0  0
   -0.9858    1.8732    1.3916 H   0  0  0  0  0  0  0  0  0  0  0  0
    4.1460   -0.8699   -0.7754 H   0  0  0  0  0  0  0  0  0  0  0  0
  1  2  1  0
  2  3  1  0
  3  4  2  0
  4  5  1  0
  5  6  2  0
  6  7  1  0
  7  8  1  0
  8  9  1  0
  9 10  2  0
  9 11  1  0
 11 12  1  0
 12 13  1  0
 13 14  1  0
 14 15  2  0
 15 16  1  0
 16 17  1  0
 17 18  1  0
 16 19  2  0
 19 20  1  0
 20 21  1  0
 19 22  1  0
 22 23  2  0
 23 24  1  0
  7 25  2  0
 25  3  1  0
 24 11  1  0
 23 14  1  0
  1 26  1  0
  1 27  1  0
  1 28  1  0
  4 29  1  0
  5 30  1  0
  6 31  1  0
  8 32  1  0
 12 33  1  0
 12 34  1  0
 13 35  1  0
 13 36  1  0
 15 37  1  0
 18 38  1  0
 18 39  1  0
 18 40  1  0
 21 41  1  0
 21 42  1  0
 21 43  1  0
 22 44  1  0
 24 45  1  0
 24 46  1  0
 25 47  1  0
M  END
$$$$
