
     RDKit          3D

 57 59  0  0  0  0  0  0  0  0999 V2000
    0.2970    3.4528    3.5892 C   0  0  0  0  0  0  0  0  0  0  0  0
    0.4461    2.5510    2.4983 O   0  0  0  0  0  0  0  0  0  0  0  0
   -0.6076    2.4552    1.6179 C   0  0  0  0  0  0  0  0  0  0  0  0
   -1.8066    3.1664    1.7248 C   0  0  0  0  0  0  0  0  0  0  0  0
   -2.8131    2.9880    0.7730 C   0  0  0  0  0  0  0  0  0  0  0  0
   -2.6169    2.1002   -0.2884 C   0  0  0  0  0  0  0  0  0  0  0  0
   -3.8851    1.9195   -1.5285 S   0  0  0  0  0  6  0  0  0  0  0  0
   -3.2323    1.6544   -2.7922 O   0  0  0  0  0  0  0  0  0  0  0  0
   -4.7847    3.0454   -1.3783 O   0  0  0  0  0  0  0  0  0  0  0  0
   -4.7126    0.5212   -1.0398 N   0  0  0  0  0  0  0  0  0  0  0  0
   -5.4572    0.5730    0.2299 C   0  0  0  0  0  0  0  0  0  0  0  0
   -6.5904   -0.4501    0.1909 C   0  0  0  0  0  0  0  0  0  0  0  0
   -6.1582   -1.8138   -0.3528 C   0  0  0  0  0  0  0  0  0  0  0  0
   -4.6467   -1.9191   -0.5033 C   0  0  0  0  0  0  0  0  0  0  0  0
   -4.0880   -0.7856   -1.3629 C   0  0  0  0  0  0  0  0  0  0  0  0
   -1.4132    1.4044   -0.4215 C   0  0  0  0  0  0  0  0  0  0  0  0
   -0.4177    1.5557    0.5446 C   0  0  0  0  0  0  0  0  0  0  0  0
    0.8099    0.8576    0.5034 N   0  0  0  0  0  0  0  0  0  0  0  0
    1.1409   -0.2144   -0.2995 C   0  0  0  0  0  0  0  0  0  0  0  0
    0.3881   -0.8104   -1.0609 O   0  0  0  0  0  0  0  0  0  0  0  0
    2.5425   -0.7006   -0.1520 C   0  0  0  0  0  0  0  0  0  0  0  0
    2.7996   -2.0657   -0.3151 C   0  0  0  0  0  0  0  0  0  0  0  0
    4.1004   -2.5583   -0.1841 C   0  0  0  0  0  0  0  0  0  0  0  0
    5.1672   -1.6906    0.0901 C   0  0  0  0  0  0  0  0  0  0  0  0
    6.5731   -2.2131    0.2315 C   0  0  0  0  0  0  0  0  0  0  0  0
    7.2518   -2.7240   -1.3459 S   0  0  0  0  0  6  0  0  0  0  0  0
    6.9261   -1.3758   -2.4611 C   0  0  0  0  0  0  0  0  0  0  0  0
    8.6936   -2.7952   -1.1810 O   0  0  0  0  0  0  0  0  0  0  0  0
    6.5212   -3.8848   -1.8210 O   0  0  0  0  0  0  0  0  0  0  0  0
    4.9039   -0.3201    0.2425 C   0  0  0  0  0  0  0  0  0  0  0  0
    3.6020    0.1741    0.1169 C   0  0  0  0  0  0  0  0  0  0  0  0
   -0.5328    3.1532    4.2379 H   0  0  0  0  0  0  0  0  0  0  0  0
    0.1753    4.4821    3.2365 H   0  0  0  0  0  0  0  0  0  0  0  0
    1.2150    3.4113    4.1834 H   0  0  0  0  0  0  0  0  0  0  0  0
   -1.9905    3.8687    2.5312 H   0  0  0  0  0  0  0  0  0  0  0  0
   -3.7390    3.5538    0.8589 H   0  0  0  0  0  0  0  0  0  0  0  0
   -4.7809    0.3667    1.0676 H   0  0  0  0  0  0  0  0  0  0  0  0
   -5.8928    1.5635    0.3955 H   0  0  0  0  0  0  0  0  0  0  0  0
   -7.4099   -0.0686   -0.4317 H   0  0  0  0  0  0  0  0  0  0  0  0
   -7.0022   -0.5653    1.2007 H   0  0  0  0  0  0  0  0  0  0  0  0
   -6.5274   -2.6104    0.3032 H   0  0  0  0  0  0  0  0  0  0  0  0
   -6.6292   -1.9758   -1.3306 H   0  0  0  0  0  0  0  0  0  0  0  0
   -4.3773   -2.8848   -0.9462 H   0  0  0  0  0  0  0  0  0  0  0  0
   -4.1811   -1.8923    0.4903 H   0  0  0  0  0  0  0  0  0  0  0  0
   -4.2961   -1.0001   -2.4177 H   0  0  0  0  0  0  0  0  0  0  0  0
   -3.0039   -0.7573   -1.2348 H   0  0  0  0  0  0  0  0  0  0  0  0
   -1.2634    0.7657   -1.2866 H   0  0  0  0  0  0  0  0  0  0  0  0
    1.4461    1.1162    1.2510 H   0  0  0  0  0  0  0  0  0  0  0  0
    1.9856   -2.7521   -0.5432 H   0  0  0  0  0  0  0  0  0  0  0  0
    4.2708   -3.6278   -0.3099 H   0  0  0  0  0  0  0  0  0  0  0  0
    7.2426   -1.4474    0.6379 H   0  0  0  0  0  0  0  0  0  0  0  0
    6.6008   -3.0774    0.9029 H   0  0  0  0  0  0  0  0  0  0  0  0
    5.8533   -1.3005   -2.6417 H   0  0  0  0  0  0  0  0  0  0  0  0
    7.4398   -1.5877   -3.4015 H   0  0  0  0  0  0  0  0  0  0  0  0
    7.3189   -0.4553   -2.0257 H   0  0  0  0  0  0  0  0  0  0  0  0
    5.7104    0.3798    0.4562 H   0  0  0  0  0  0  0  0  0  0  0  0
    3.4351    1.2447    0.2065 H   0  0  0  0  0  0  0  0  0  0  0  0
  1  2  1  0
  2  3  1  0
  3  4  2  0
  4  5  1  0
  5  6  2  0
  6  7  1  0
  7  8  2  0
  7  9  2  0
  7 10  1  0
 10 11  1  0
 11 12  1  0
 12 13  1  0
 13 14  1  0
 14 15  1  0
  6 16  1  0
 16 17  2  0
 17 18  1  0
 18 19  1  0
 19 20  2  0
 19 21  1  0
 21 22  2  0
 22 23  1  0
 23 24  2  0
 24 25  1  0
 25 26  1  0
 26 27  1  0
 26 28  2  0
 26 29  2  0
 24 30  1  0
 30 31  2  0
 17  3  1  0
 31 21  1  0
 15 10  1  0
  1 32  1  0
  1 33  1  0
  1 34  1  0
  4 35  1  0
  5 36  1  0
 11 37  1  0
 11 38  1  0
 12 39  1  0
 12 40  1  0
 13 41  1  0
 13 42  1  0
 14 43  1  0
 14 44  1  0
 15 45  1  0
 15 46  1  0
 16 47  1  0
 18 48  1  0
 22 49  1  0
 23 50  1  0
 25 51  1  0
 25 52  1  0
 27 53  1  0
 27 54  1  0
 27 55  1  0
 30 56  1  0
 31 57  1  0
M  END
$$$$
