
     RDKit          3D

 54 54  0  0  0  0  0  0  0  0999 V2000
    8.3758   -2.5067   -2.5683 C   0  0  0  0  0  0  0  0  0  0  0  0
    8.3417   -1.4783   -1.7062 C   0  0  0  0  0  0  0  0  0  0  0  0
    7.2513   -0.4542   -1.6699 C   0  0  0  0  0  0  0  0  0  0  0  0
    6.4753   -0.6659   -0.4718 N   0  0  0  0  0  0  0  0  0  0  0  0
    5.5044    0.2711   -0.1453 C   0  0  0  0  0  0  0  0  0  0  0  0
    5.2408    1.2334   -0.8522 O   0  0  0  0  0  0  0  0  0  0  0  0
    4.9088   -0.0398    1.0554 N   0  0  0  0  0  0  0  0  0  0  0  0
    4.0002    0.7866    1.6936 C   0  0  0  0  0  0  0  0  0  0  0  0
    3.8375    1.9858    1.4825 O   0  0  0  0  0  0  0  0  0  0  0  0
    3.1934    0.0744    2.7780 C   0  0  0  0  0  0  0  0  0  0  0  0
    1.8767   -0.2473    2.3233 O   0  0  0  0  0  0  0  0  0  0  0  0
    1.8179   -1.2800    1.4408 C   0  0  0  0  0  0  0  0  0  0  0  0
    2.7899   -1.9526    1.1176 O   0  0  0  0  0  0  0  0  0  0  0  0
    0.4354   -1.5016    0.9446 C   0  0  0  0  0  0  0  0  0  0  0  0
    0.1698   -2.7781    0.3757 C   0  0  0  0  0  0  0  0  0  0  0  0
   -0.0504   -3.8323   -0.0630 N   0  0  0  0  0  0  0  0  0  0  0  0
   -0.4694   -0.5021    0.9961 C   0  0  0  0  0  0  0  0  0  0  0  0
   -1.8324   -0.5196    0.5584 C   0  0  0  0  0  0  0  0  0  0  0  0
   -2.7660   -1.5758    0.6538 C   0  0  0  0  0  0  0  0  0  0  0  0
   -3.9577   -1.1444    0.1057 C   0  0  0  0  0  0  0  0  0  0  0  0
   -5.2160   -1.9136   -0.0935 C   0  0  0  0  0  0  0  0  0  0  0  0
   -3.7907    0.1765   -0.2628 N   0  0  0  0  0  0  0  0  0  0  0  0
   -4.8300    1.0081   -0.8617 C   0  0  0  0  0  0  0  0  0  0  0  0
   -5.8293    1.6082    0.1472 C   0  0  0  0  0  0  0  0  0  0  0  0
   -6.9912    2.2583   -0.6106 C   0  0  0  0  0  0  0  0  0  0  0  0
   -5.1779    2.6362    1.0740 C   0  0  0  0  0  0  0  0  0  0  0  0
   -2.4759    0.5566   -0.0341 C   0  0  0  0  0  0  0  0  0  0  0  0
   -1.9462    1.9027   -0.4097 C   0  0  0  0  0  0  0  0  0  0  0  0
    9.2067   -3.2082   -2.5698 H   0  0  0  0  0  0  0  0  0  0  0  0
    7.5780   -2.6802   -3.2872 H   0  0  0  0  0  0  0  0  0  0  0  0
    9.1725   -1.3407   -1.0123 H   0  0  0  0  0  0  0  0  0  0  0  0
    6.5810   -0.5331   -2.5302 H   0  0  0  0  0  0  0  0  0  0  0  0
    7.6741    0.5550   -1.6669 H   0  0  0  0  0  0  0  0  0  0  0  0
    6.9674   -1.0511    0.3209 H   0  0  0  0  0  0  0  0  0  0  0  0
    4.7727   -1.0372    1.1728 H   0  0  0  0  0  0  0  0  0  0  0  0
    3.7126   -0.8166    3.1528 H   0  0  0  0  0  0  0  0  0  0  0  0
    3.0976    0.7575    3.6310 H   0  0  0  0  0  0  0  0  0  0  0  0
   -0.1479    0.4625    1.3917 H   0  0  0  0  0  0  0  0  0  0  0  0
   -2.6060   -2.5671    1.0607 H   0  0  0  0  0  0  0  0  0  0  0  0
   -6.0757   -1.4015    0.3343 H   0  0  0  0  0  0  0  0  0  0  0  0
   -5.1496   -2.8969    0.3859 H   0  0  0  0  0  0  0  0  0  0  0  0
   -5.3955   -2.0750   -1.1605 H   0  0  0  0  0  0  0  0  0  0  0  0
   -5.3553    0.3741   -1.5863 H   0  0  0  0  0  0  0  0  0  0  0  0
   -4.3512    1.7996   -1.4466 H   0  0  0  0  0  0  0  0  0  0  0  0
   -6.2430    0.8111    0.7773 H   0  0  0  0  0  0  0  0  0  0  0  0
   -7.7284    2.6712    0.0870 H   0  0  0  0  0  0  0  0  0  0  0  0
   -7.5067    1.5241   -1.2432 H   0  0  0  0  0  0  0  0  0  0  0  0
   -6.6388    3.0735   -1.2550 H   0  0  0  0  0  0  0  0  0  0  0  0
   -4.7069    3.4408    0.5017 H   0  0  0  0  0  0  0  0  0  0  0  0
   -5.9203    3.0885    1.7387 H   0  0  0  0  0  0  0  0  0  0  0  0
   -4.4173    2.1704    1.7083 H   0  0  0  0  0  0  0  0  0  0  0  0
   -2.4129    2.6860    0.1957 H   0  0  0  0  0  0  0  0  0  0  0  0
   -0.8638    1.9731   -0.2577 H   0  0  0  0  0  0  0  0  0  0  0  0
   -2.1289    2.1149   -1.4684 H   0  0  0  0  0  0  0  0  0  0  0  0
  1  2  2  0
  2  3  1  0
  3  4  1  0
  4  5  1  0
  5  6  2  0
  5  7  1  0
  7  8  1  0
  8  9  2  0
  8 10  1  0
 10 11  1  0
 11 12  1  0
 12 13  2  0
 12 14  1  0
 14 15  1  0
 15 16  3  0
 14 17  2  3
 17 18  1  0
 18 19  1  0
 19 20  2  0
 20 21  1  0
 20 22  1  0
 22 23  1  0
 23 24  1  0
 24 25  1  0
 24 26  1  0
 22 27  1  0
 27 28  1  0
 27 18  2  0
  1 29  1  0
  1 30  1  0
  2 31  1  0
  3 32  1  0
  3 33  1  0
  4 34  1  0
  7 35  1  0
 10 36  1  0
 10 37  1  0
 17 38  1  0
 19 39  1  0
 21 40  1  0
 21 41  1  0
 21 42  1  0
 23 43  1  0
 23 44  1  0
 24 45  1  0
 25 46  1  0
 25 47  1  0
 25 48  1  0
 26 49  1  0
 26 50  1  0
 26 51  1  0
 28 52  1  0
 28 53  1  0
 28 54  1  0
M  END
$$$$
