
     RDKit          3D

 58 60  0  0  0  0  0  0  0  0999 V2000
    8.8190    0.9212   -0.4887 C   0  0  0  0  0  0  0  0  0  0  0  0
    7.7210    1.5866    0.3261 C   0  0  0  0  0  0  0  0  0  0  0  0
    6.3183    1.3704   -0.2406 C   0  0  0  0  0  0  0  0  0  0  0  0
    5.8840   -0.0964   -0.2682 C   0  0  0  0  0  0  0  0  0  0  0  0
    4.5516   -0.2222   -0.7754 O   0  0  0  0  0  0  0  0  0  0  0  0
    3.5221    0.1053    0.0610 C   0  0  0  0  0  0  0  0  0  0  0  0
    2.3869    0.6160   -0.5725 C   0  0  0  0  0  0  0  0  0  0  0  0
    1.2604    0.9796    0.1699 C   0  0  0  0  0  0  0  0  0  0  0  0
    1.2563    0.8149    1.5602 C   0  0  0  0  0  0  0  0  0  0  0  0
    0.0547    1.1564    2.3795 C   0  0  0  0  0  0  0  0  0  0  0  0
    0.0511    0.9525    3.5866 O   0  0  0  0  0  0  0  0  0  0  0  0
   -1.0033    1.6966    1.7011 N   0  0  0  0  0  0  0  0  0  0  0  0
   -2.1352    1.0544    1.7231 C   0  0  0  0  0  0  0  0  0  0  0  0
   -2.4440   -0.2789    2.3740 C   0  0  0  0  0  0  0  0  0  0  0  0
   -2.9530   -1.2863    1.3664 C   0  0  0  0  0  0  0  0  0  0  0  0
   -4.3017   -1.6710    1.3694 C   0  0  0  0  0  0  0  0  0  0  0  0
   -4.7886   -2.5526    0.4024 C   0  0  0  0  0  0  0  0  0  0  0  0
   -3.9218   -3.0492   -0.5774 C   0  0  0  0  0  0  0  0  0  0  0  0
   -4.4408   -3.9388   -1.6220 N   0  0  0  0  0  4  0  0  0  0  0  0
   -3.6427   -4.3628   -2.4682 O   0  0  0  0  0  0  0  0  0  0  0  0
   -5.6503   -4.2074   -1.6043 O   0  0  0  0  0  1  0  0  0  0  0  0
   -2.5696   -2.6864   -0.5824 C   0  0  0  0  0  0  0  0  0  0  0  0
   -2.0891   -1.8085    0.3911 C   0  0  0  0  0  0  0  0  0  0  0  0
   -3.3032    1.6832    0.9838 C   0  0  0  0  0  0  0  0  0  0  0  0
   -4.3646    1.9225    1.5269 O   0  0  0  0  0  0  0  0  0  0  0  0
   -2.9569    1.8518   -0.3071 O   0  0  0  0  0  0  0  0  0  0  0  0
   -3.9917    2.3553   -1.1566 C   0  0  0  0  0  0  0  0  0  0  0  0
   -4.6854    1.1923   -1.7605 C   0  0  0  0  0  0  0  0  0  0  0  0
   -5.9032    0.5881   -1.5254 C   0  0  0  0  0  0  0  0  0  0  0  0
   -6.0049   -0.4780   -2.4510 C   0  0  0  0  0  0  0  0  0  0  0  0
   -4.8420   -0.4615   -3.1846 C   0  0  0  0  0  0  0  0  0  0  0  0
   -4.0320    0.5450   -2.7684 O   0  0  0  0  0  0  0  0  0  0  0  0
    2.3871    0.2829    2.1917 C   0  0  0  0  0  0  0  0  0  0  0  0
    3.5159   -0.0727    1.4437 C   0  0  0  0  0  0  0  0  0  0  0  0
    9.8014    1.2101   -0.1032 H   0  0  0  0  0  0  0  0  0  0  0  0
    8.7657    1.2198   -1.5405 H   0  0  0  0  0  0  0  0  0  0  0  0
    8.7505   -0.1692   -0.4352 H   0  0  0  0  0  0  0  0  0  0  0  0
    7.9171    2.6652    0.3616 H   0  0  0  0  0  0  0  0  0  0  0  0
    7.7634    1.2219    1.3593 H   0  0  0  0  0  0  0  0  0  0  0  0
    6.2536    1.7853   -1.2550 H   0  0  0  0  0  0  0  0  0  0  0  0
    5.6093    1.9531    0.3594 H   0  0  0  0  0  0  0  0  0  0  0  0
    6.5199   -0.6481   -0.9698 H   0  0  0  0  0  0  0  0  0  0  0  0
    6.0119   -0.5875    0.7014 H   0  0  0  0  0  0  0  0  0  0  0  0
    2.3834    0.7400   -1.6527 H   0  0  0  0  0  0  0  0  0  0  0  0
    0.3952    1.3841   -0.3512 H   0  0  0  0  0  0  0  0  0  0  0  0
   -3.1924   -0.1037    3.1561 H   0  0  0  0  0  0  0  0  0  0  0  0
   -1.5740   -0.7142    2.8703 H   0  0  0  0  0  0  0  0  0  0  0  0
   -4.9894   -1.2710    2.1134 H   0  0  0  0  0  0  0  0  0  0  0  0
   -5.8422   -2.8238    0.4165 H   0  0  0  0  0  0  0  0  0  0  0  0
   -1.8854   -3.0654   -1.3386 H   0  0  0  0  0  0  0  0  0  0  0  0
   -1.0373   -1.5261    0.3723 H   0  0  0  0  0  0  0  0  0  0  0  0
   -4.6841    3.0146   -0.6226 H   0  0  0  0  0  0  0  0  0  0  0  0
   -3.5131    2.9536   -1.9379 H   0  0  0  0  0  0  0  0  0  0  0  0
   -6.6274    0.8848   -0.7795 H   0  0  0  0  0  0  0  0  0  0  0  0
   -6.8219   -1.1764   -2.5702 H   0  0  0  0  0  0  0  0  0  0  0  0
   -4.4579   -1.0662   -3.9940 H   0  0  0  0  0  0  0  0  0  0  0  0
    2.3929    0.1297    3.2689 H   0  0  0  0  0  0  0  0  0  0  0  0
    4.3563   -0.5130    1.9681 H   0  0  0  0  0  0  0  0  0  0  0  0
  1  2  1  0
  2  3  1  0
  3  4  1  0
  4  5  1  0
  5  6  1  0
  6  7  2  0
  7  8  1  0
  8  9  2  0
  9 10  1  0
 10 11  2  0
 10 12  1  0
 12 13  2  3
 13 14  1  0
 14 15  1  0
 15 16  2  0
 16 17  1  0
 17 18  2  0
 18 19  1  0
 19 20  2  0
 19 21  1  0
 18 22  1  0
 22 23  2  0
 13 24  1  0
 24 25  2  0
 24 26  1  0
 26 27  1  0
 27 28  1  0
 28 29  2  0
 29 30  1  0
 30 31  2  0
 31 32  1  0
  9 33  1  0
 33 34  2  0
 34  6  1  0
 23 15  1  0
 32 28  1  0
  1 35  1  0
  1 36  1  0
  1 37  1  0
  2 38  1  0
  2 39  1  0
  3 40  1  0
  3 41  1  0
  4 42  1  0
  4 43  1  0
  7 44  1  0
  8 45  1  0
 14 46  1  0
 14 47  1  0
 16 48  1  0
 17 49  1  0
 22 50  1  0
 23 51  1  0
 27 52  1  0
 27 53  1  0
 29 54  1  0
 30 55  1  0
 31 56  1  0
 33 57  1  0
 34 58  1  0
M  CHG  2  19   1  21  -1
M  END
$$$$
