
     RDKit          3D

 46 48  0  0  0  0  0  0  0  0999 V2000
    2.2821   -2.6901   -2.9759 O   0  0  0  0  0  0  0  0  0  0  0  0
    2.0905   -1.5800   -2.4931 C   0  0  0  0  0  0  0  0  0  0  0  0
    3.1019   -0.4573   -2.6617 C   0  0  0  0  0  0  0  0  0  0  0  0
    3.8293   -0.1472   -1.3739 C   0  0  0  0  0  0  0  0  0  0  0  0
    3.6932    1.1029   -0.7559 C   0  0  0  0  0  0  0  0  0  0  0  0
    4.3610    1.3763    0.4407 C   0  0  0  0  0  0  0  0  0  0  0  0
    5.1721    0.4022    1.0225 C   0  0  0  0  0  0  0  0  0  0  0  0
    5.9900    0.7409    2.4992 Cl  0  0  0  0  0  0  0  0  0  0  0  0
    5.3263   -0.8451    0.4155 C   0  0  0  0  0  0  0  0  0  0  0  0
    4.6554   -1.1189   -0.7789 C   0  0  0  0  0  0  0  0  0  0  0  0
    0.9329   -1.1579   -1.8421 N   0  0  0  0  0  0  0  0  0  0  0  0
   -0.0318   -1.8936   -1.1815 C   0  0  0  0  0  0  0  0  0  0  0  0
   -0.0154   -3.5329   -0.8793 S   0  0  0  0  0  0  0  0  0  0  0  0
   -1.0665   -1.1649   -0.6537 N   0  0  0  0  0  0  0  0  0  0  0  0
   -1.5805    0.1077   -0.9960 C   0  0  0  0  0  0  0  0  0  0  0  0
   -1.3642    0.6602   -2.2708 C   0  0  0  0  0  0  0  0  0  0  0  0
   -1.9184    1.8917   -2.6255 C   0  0  0  0  0  0  0  0  0  0  0  0
   -2.7144    2.5772   -1.7162 C   0  0  0  0  0  0  0  0  0  0  0  0
   -2.9621    2.0226   -0.4599 C   0  0  0  0  0  0  0  0  0  0  0  0
   -2.4083    0.7873   -0.0712 C   0  0  0  0  0  0  0  0  0  0  0  0
   -2.7160    0.3598    1.2233 N   0  0  0  0  0  0  0  0  0  0  0  0
   -3.8308   -0.5984    1.3316 C   0  0  0  0  0  0  0  0  0  0  0  0
   -4.3161   -0.6355    2.7939 C   0  0  0  0  0  0  0  0  0  0  0  0
   -3.2429   -0.9343    3.7063 O   0  0  0  0  0  0  0  0  0  0  0  0
   -2.1870    0.0372    3.5894 C   0  0  0  0  0  0  0  0  0  0  0  0
   -1.6158    0.0798    2.1610 C   0  0  0  0  0  0  0  0  0  0  0  0
    3.8245   -0.7404   -3.4404 H   0  0  0  0  0  0  0  0  0  0  0  0
    2.5781    0.4327   -3.0422 H   0  0  0  0  0  0  0  0  0  0  0  0
    3.0767    1.8850   -1.2080 H   0  0  0  0  0  0  0  0  0  0  0  0
    4.2485    2.3545    0.9100 H   0  0  0  0  0  0  0  0  0  0  0  0
    5.9681   -1.6054    0.8566 H   0  0  0  0  0  0  0  0  0  0  0  0
    4.7814   -2.1026   -1.2405 H   0  0  0  0  0  0  0  0  0  0  0  0
    0.9469   -0.1949   -1.5304 H   0  0  0  0  0  0  0  0  0  0  0  0
   -1.6044   -1.6615    0.0484 H   0  0  0  0  0  0  0  0  0  0  0  0
   -0.8211    0.1174   -3.0399 H   0  0  0  0  0  0  0  0  0  0  0  0
   -1.7530    2.2994   -3.6205 H   0  0  0  0  0  0  0  0  0  0  0  0
   -3.1576    3.5339   -1.9855 H   0  0  0  0  0  0  0  0  0  0  0  0
   -3.5929    2.5667    0.2417 H   0  0  0  0  0  0  0  0  0  0  0  0
   -3.4867   -1.5984    1.0424 H   0  0  0  0  0  0  0  0  0  0  0  0
   -4.6666   -0.3178    0.6806 H   0  0  0  0  0  0  0  0  0  0  0  0
   -4.7739    0.3188    3.0828 H   0  0  0  0  0  0  0  0  0  0  0  0
   -5.0702   -1.4183    2.9108 H   0  0  0  0  0  0  0  0  0  0  0  0
   -1.3982   -0.2426    4.2960 H   0  0  0  0  0  0  0  0  0  0  0  0
   -2.5666    1.0200    3.8841 H   0  0  0  0  0  0  0  0  0  0  0  0
   -0.8439    0.8547    2.0990 H   0  0  0  0  0  0  0  0  0  0  0  0
   -1.1536   -0.8910    1.9473 H   0  0  0  0  0  0  0  0  0  0  0  0
  1  2  2  0
  2  3  1  0
  3  4  1  0
  4  5  2  0
  5  6  1  0
  6  7  2  0
  7  8  1  0
  7  9  1  0
  9 10  2  0
  2 11  1  0
 11 12  1  0
 12 13  2  0
 12 14  1  0
 14 15  1  0
 15 16  2  0
 16 17  1  0
 17 18  2  0
 18 19  1  0
 19 20  2  0
 20 21  1  0
 21 22  1  0
 22 23  1  0
 23 24  1  0
 24 25  1  0
 25 26  1  0
 10  4  1  0
 20 15  1  0
 26 21  1  0
  3 27  1  0
  3 28  1  0
  5 29  1  0
  6 30  1  0
  9 31  1  0
 10 32  1  0
 11 33  1  0
 14 34  1  0
 16 35  1  0
 17 36  1  0
 18 37  1  0
 19 38  1  0
 22 39  1  0
 22 40  1  0
 23 41  1  0
 23 42  1  0
 25 43  1  0
 25 44  1  0
 26 45  1  0
 26 46  1  0
M  END
$$$$
