
     RDKit          3D

 53 56  0  0  0  0  0  0  0  0999 V2000
    4.6866    1.4862    2.4026 C   0  0  0  0  0  0  0  0  0  0  0  0
    4.3424    0.2684    1.6520 N   0  0  0  0  0  0  0  0  0  0  0  0
    5.2539   -0.1629    0.6534 C   0  0  0  0  0  0  0  0  0  0  0  0
    6.4869    0.4604    0.4032 C   0  0  0  0  0  0  0  0  0  0  0  0
    7.3562   -0.0069   -0.5919 C   0  0  0  0  0  0  0  0  0  0  0  0
    7.0168   -1.1186   -1.3566 C   0  0  0  0  0  0  0  0  0  0  0  0
    5.8147   -1.7712   -1.1164 C   0  0  0  0  0  0  0  0  0  0  0  0
    4.9503   -1.3014   -0.1214 C   0  0  0  0  0  0  0  0  0  0  0  0
    2.9336    0.1404    1.5264 C   0  0  0  0  0  0  0  0  0  0  0  0
    2.2638    0.7254    0.4385 C   0  0  0  0  0  0  0  0  0  0  0  0
    0.8751    0.6011    0.2891 C   0  0  0  0  0  0  0  0  0  0  0  0
    0.1121   -0.1022    1.2323 C   0  0  0  0  0  0  0  0  0  0  0  0
   -1.3399   -0.2857    1.0867 C   0  0  0  0  0  0  0  0  0  0  0  0
   -2.2636    0.6713    0.8638 C   0  0  0  0  0  0  0  0  0  0  0  0
   -1.9415    2.0595    0.7802 C   0  0  0  0  0  0  0  0  0  0  0  0
   -1.6907    3.1840    0.6459 N   0  0  0  0  0  0  0  0  0  0  0  0
   -3.6212    0.2570    0.7949 C   0  0  0  0  0  0  0  0  0  0  0  0
   -4.3353   -0.3735    1.7063 N   0  0  0  0  0  0  0  0  0  0  0  0
   -5.5967   -0.5653    1.2144 N   0  0  0  0  0  0  0  0  0  0  0  0
   -5.6425   -0.0885   -0.0138 C   0  0  0  0  0  0  0  0  0  0  0  0
   -4.4111    0.4446   -0.3213 N   0  0  0  0  0  0  0  0  0  0  0  0
   -4.0627    1.0232   -1.5993 C   0  0  0  0  0  0  0  0  0  0  0  0
   -4.0627    0.0116   -2.7435 C   0  0  0  0  0  0  0  0  0  0  0  0
   -5.3256   -0.8497   -2.8647 C   0  0  0  0  0  0  0  0  0  0  0  0
   -6.5964   -0.1313   -2.4155 C   0  0  0  0  0  0  0  0  0  0  0  0
   -6.8385   -0.1623   -0.9038 C   0  0  0  0  0  0  0  0  0  0  0  0
    0.7624   -0.7096    2.3120 C   0  0  0  0  0  0  0  0  0  0  0  0
    2.1523   -0.5724    2.4463 C   0  0  0  0  0  0  0  0  0  0  0  0
    2.7838   -1.2486    3.5574 N   0  0  0  0  0  4  0  0  0  0  0  0
    2.8820   -2.4817    3.4784 O   0  0  0  0  0  0  0  0  0  0  0  0
    3.1103   -0.5550    4.5318 O   0  0  0  0  0  1  0  0  0  0  0  0
    5.6509    1.3682    2.9108 H   0  0  0  0  0  0  0  0  0  0  0  0
    3.9556    1.7056    3.1911 H   0  0  0  0  0  0  0  0  0  0  0  0
    4.7276    2.3594    1.7420 H   0  0  0  0  0  0  0  0  0  0  0  0
    6.8062    1.3309    0.9673 H   0  0  0  0  0  0  0  0  0  0  0  0
    8.3009    0.5013   -0.7658 H   0  0  0  0  0  0  0  0  0  0  0  0
    7.6917   -1.4798   -2.1279 H   0  0  0  0  0  0  0  0  0  0  0  0
    5.5470   -2.6509   -1.6962 H   0  0  0  0  0  0  0  0  0  0  0  0
    4.0304   -1.8532    0.0549 H   0  0  0  0  0  0  0  0  0  0  0  0
    2.8291    1.2805   -0.3102 H   0  0  0  0  0  0  0  0  0  0  0  0
    0.4098    1.0593   -0.5832 H   0  0  0  0  0  0  0  0  0  0  0  0
   -1.6677   -1.3190    1.2118 H   0  0  0  0  0  0  0  0  0  0  0  0
   -3.0729    1.4824   -1.5423 H   0  0  0  0  0  0  0  0  0  0  0  0
   -4.7676    1.8419   -1.7852 H   0  0  0  0  0  0  0  0  0  0  0  0
   -3.1948   -0.6539   -2.6518 H   0  0  0  0  0  0  0  0  0  0  0  0
   -3.9241    0.5686   -3.6786 H   0  0  0  0  0  0  0  0  0  0  0  0
   -5.1999   -1.7794   -2.2933 H   0  0  0  0  0  0  0  0  0  0  0  0
   -5.4316   -1.1577   -3.9137 H   0  0  0  0  0  0  0  0  0  0  0  0
   -6.5929    0.9025   -2.7824 H   0  0  0  0  0  0  0  0  0  0  0  0
   -7.4612   -0.6063   -2.8979 H   0  0  0  0  0  0  0  0  0  0  0  0
   -7.3561   -1.1003   -0.6679 H   0  0  0  0  0  0  0  0  0  0  0  0
   -7.5352    0.6419   -0.6370 H   0  0  0  0  0  0  0  0  0  0  0  0
    0.2003   -1.2883    3.0437 H   0  0  0  0  0  0  0  0  0  0  0  0
  1  2  1  0
  2  3  1  0
  3  4  2  0
  4  5  1  0
  5  6  2  0
  6  7  1  0
  7  8  2  0
  2  9  1  0
  9 10  2  0
 10 11  1  0
 11 12  2  0
 12 13  1  0
 13 14  2  3
 14 15  1  0
 15 16  3  0
 14 17  1  0
 17 18  2  0
 18 19  1  0
 19 20  2  0
 20 21  1  0
 21 22  1  0
 22 23  1  0
 23 24  1  0
 24 25  1  0
 25 26  1  0
 12 27  1  0
 27 28  2  0
 28 29  1  0
 29 30  2  0
 29 31  1  0
  8  3  1  0
 28  9  1  0
 21 17  1  0
 26 20  1  0
  1 32  1  0
  1 33  1  0
  1 34  1  0
  4 35  1  0
  5 36  1  0
  6 37  1  0
  7 38  1  0
  8 39  1  0
 10 40  1  0
 11 41  1  0
 13 42  1  0
 22 43  1  0
 22 44  1  0
 23 45  1  0
 23 46  1  0
 24 47  1  0
 24 48  1  0
 25 49  1  0
 25 50  1  0
 26 51  1  0
 26 52  1  0
 27 53  1  0
M  CHG  2  29   1  31  -1
M  END
$$$$
