
     RDKit          3D

 42 43  0  0  0  0  0  0  0  0999 V2000
    2.8749    0.2719    3.5597 C   0  0  0  0  0  0  0  0  0  0  0  0
    2.3458    0.3446    2.1457 C   0  0  0  0  0  0  0  0  0  0  0  0
    1.0787    0.0970    1.9687 N   0  0  0  0  0  0  0  0  0  0  0  0
    0.6093    0.0055    0.6811 N   0  0  0  0  0  0  0  0  0  0  0  0
    1.0019   -1.0629   -0.1295 C   0  0  0  0  0  0  0  0  0  0  0  0
    1.9052   -1.8603    0.1099 O   0  0  0  0  0  0  0  0  0  0  0  0
    0.1389   -1.1834   -1.3666 C   0  0  0  0  0  0  0  0  0  0  0  0
   -0.9584   -2.2334   -1.2060 C   0  0  0  0  0  0  0  0  0  0  0  0
   -1.7951   -2.1392    0.0753 C   0  0  0  0  0  0  0  0  0  0  0  0
   -2.1224   -0.7619    0.4506 N   0  0  0  0  0  0  0  0  0  0  0  0
   -3.2034   -0.0797   -0.1196 C   0  0  0  0  0  0  0  0  0  0  0  0
   -3.8998   -0.5010   -1.2556 C   0  0  0  0  0  0  0  0  0  0  0  0
   -4.9262    0.2760   -1.8064 C   0  0  0  0  0  0  0  0  0  0  0  0
   -5.2593    1.5023   -1.2399 C   0  0  0  0  0  0  0  0  0  0  0  0
   -4.5614    1.9544   -0.1261 C   0  0  0  0  0  0  0  0  0  0  0  0
   -3.5387    1.1731    0.4194 C   0  0  0  0  0  0  0  0  0  0  0  0
    3.3186    0.7388    1.0981 C   0  0  0  0  0  0  0  0  0  0  0  0
    4.4740   -0.0117    0.9035 C   0  0  0  0  0  0  0  0  0  0  0  0
    5.3518    0.4143   -0.0752 C   0  0  0  0  0  0  0  0  0  0  0  0
    5.1566    1.5177   -0.8322 N   0  0  0  0  0  0  0  0  0  0  0  0
    4.0226    2.2198   -0.6152 C   0  0  0  0  0  0  0  0  0  0  0  0
    3.0772    1.8762    0.3320 C   0  0  0  0  0  0  0  0  0  0  0  0
    3.8809    0.6923    3.6397 H   0  0  0  0  0  0  0  0  0  0  0  0
    2.2114    0.8333    4.2245 H   0  0  0  0  0  0  0  0  0  0  0  0
    2.8965   -0.7738    3.8799 H   0  0  0  0  0  0  0  0  0  0  0  0
   -0.3975    0.1858    0.6086 H   0  0  0  0  0  0  0  0  0  0  0  0
    0.7892   -1.4443   -2.2097 H   0  0  0  0  0  0  0  0  0  0  0  0
   -0.2979   -0.2082   -1.6136 H   0  0  0  0  0  0  0  0  0  0  0  0
   -0.5056   -3.2329   -1.2372 H   0  0  0  0  0  0  0  0  0  0  0  0
   -1.6085   -2.1771   -2.0857 H   0  0  0  0  0  0  0  0  0  0  0  0
   -2.6945   -2.7623    0.0039 H   0  0  0  0  0  0  0  0  0  0  0  0
   -1.2058   -2.5669    0.8963 H   0  0  0  0  0  0  0  0  0  0  0  0
   -2.1739   -0.6712    1.4701 H   0  0  0  0  0  0  0  0  0  0  0  0
   -3.6792   -1.4482   -1.7344 H   0  0  0  0  0  0  0  0  0  0  0  0
   -5.4620   -0.0802   -2.6825 H   0  0  0  0  0  0  0  0  0  0  0  0
   -6.0544    2.1054   -1.6696 H   0  0  0  0  0  0  0  0  0  0  0  0
   -4.8044    2.9163    0.3169 H   0  0  0  0  0  0  0  0  0  0  0  0
   -2.9946    1.5580    1.2793 H   0  0  0  0  0  0  0  0  0  0  0  0
    4.6688   -0.9152    1.4690 H   0  0  0  0  0  0  0  0  0  0  0  0
    6.2631   -0.1375   -0.2881 H   0  0  0  0  0  0  0  0  0  0  0  0
    3.8933    3.0954   -1.2449 H   0  0  0  0  0  0  0  0  0  0  0  0
    2.1838    2.4736    0.4703 H   0  0  0  0  0  0  0  0  0  0  0  0
  1  2  1  0
  2  3  2  3
  3  4  1  0
  4  5  1  0
  5  6  2  0
  5  7  1  0
  7  8  1  0
  8  9  1  0
  9 10  1  0
 10 11  1  0
 11 12  2  0
 12 13  1  0
 13 14  2  0
 14 15  1  0
 15 16  2  0
  2 17  1  0
 17 18  2  0
 18 19  1  0
 19 20  2  0
 20 21  1  0
 21 22  2  0
 16 11  1  0
 22 17  1  0
  1 23  1  0
  1 24  1  0
  1 25  1  0
  4 26  1  0
  7 27  1  0
  7 28  1  0
  8 29  1  0
  8 30  1  0
  9 31  1  0
  9 32  1  0
 10 33  1  0
 12 34  1  0
 13 35  1  0
 14 36  1  0
 15 37  1  0
 16 38  1  0
 18 39  1  0
 19 40  1  0
 21 41  1  0
 22 42  1  0
M  END
$$$$
