
     RDKit          3D

 63 67  0  0  0  0  0  0  0  0999 V2000
    9.5737   -0.5664   -0.3157 C   0  0  0  0  0  0  0  0  0  0  0  0
    8.7439    0.5253   -0.6851 O   0  0  0  0  0  0  0  0  0  0  0  0
    7.3942    0.3962   -0.4757 C   0  0  0  0  0  0  0  0  0  0  0  0
    6.7900   -0.7059    0.1331 C   0  0  0  0  0  0  0  0  0  0  0  0
    5.4030   -0.7474    0.3026 C   0  0  0  0  0  0  0  0  0  0  0  0
    4.5893    0.3072   -0.1301 C   0  0  0  0  0  0  0  0  0  0  0  0
    3.1293    0.2533    0.0460 C   0  0  0  0  0  0  0  0  0  0  0  0
    2.2618    0.3981   -1.0524 C   0  0  0  0  0  0  0  0  0  0  0  0
    0.8726    0.3290   -0.8948 C   0  0  0  0  0  0  0  0  0  0  0  0
    0.3242    0.1054    0.3696 C   0  0  0  0  0  0  0  0  0  0  0  0
    1.1735   -0.0069    1.4612 C   0  0  0  0  0  0  0  0  0  0  0  0
    2.5633    0.0550    1.3149 C   0  0  0  0  0  0  0  0  0  0  0  0
    0.4706   -0.2320    3.0506 S   0  0  0  0  0  6  0  0  0  0  0  0
    0.2194    1.0836    3.5965 O   0  0  0  0  0  0  0  0  0  0  0  0
    1.2949   -1.2083    3.7355 O   0  0  0  0  0  0  0  0  0  0  0  0
   -1.0980   -0.9864    2.8006 C   0  0  0  0  0  0  0  0  0  0  0  0
   -1.6448   -1.7607    3.8314 C   0  0  0  0  0  0  0  0  0  0  0  0
   -2.8567   -2.4144    3.6286 C   0  0  0  0  0  0  0  0  0  0  0  0
   -3.5009   -2.3062    2.3970 C   0  0  0  0  0  0  0  0  0  0  0  0
   -2.9484   -1.5192    1.3713 C   0  0  0  0  0  0  0  0  0  0  0  0
   -3.6457   -1.5816    0.0712 C   0  0  0  0  0  0  0  0  0  0  0  0
   -3.5966   -2.6264   -0.5638 O   0  0  0  0  0  0  0  0  0  0  0  0
   -4.3429   -0.4512   -0.2854 N   0  0  0  0  0  0  0  0  0  0  0  0
   -4.9889   -0.3355   -1.5902 C   0  0  0  0  0  0  0  0  0  0  0  0
   -6.1957   -1.2765   -1.7295 C   0  0  0  0  0  0  0  0  0  0  0  0
   -7.3683   -0.8576   -0.8468 C   0  0  0  0  0  0  0  0  0  0  0  0
   -7.7782    0.5861   -1.1101 C   0  0  0  0  0  0  0  0  0  0  0  0
   -6.5988    1.5406   -0.9702 C   0  0  0  0  0  0  0  0  0  0  0  0
   -5.4219    1.1155   -1.8465 C   0  0  0  0  0  0  0  0  0  0  0  0
   -1.7375   -0.8413    1.5681 C   0  0  0  0  0  0  0  0  0  0  0  0
   -1.1430    0.0094    0.5125 C   0  0  0  0  0  0  0  0  0  0  0  0
   -1.8608    0.6630   -0.2328 O   0  0  0  0  0  0  0  0  0  0  0  0
    5.2059    1.4139   -0.7381 C   0  0  0  0  0  0  0  0  0  0  0  0
    6.5952    1.4687   -0.9127 C   0  0  0  0  0  0  0  0  0  0  0  0
    7.2633    2.5156   -1.4998 O   0  0  0  0  0  0  0  0  0  0  0  0
    6.5021    3.6409   -1.9106 C   0  0  0  0  0  0  0  0  0  0  0  0
    9.5455   -0.7340    0.7659 H   0  0  0  0  0  0  0  0  0  0  0  0
    9.3029   -1.4739   -0.8657 H   0  0  0  0  0  0  0  0  0  0  0  0
   10.6025   -0.3108   -0.5853 H   0  0  0  0  0  0  0  0  0  0  0  0
    7.3665   -1.5531    0.4860 H   0  0  0  0  0  0  0  0  0  0  0  0
    4.9609   -1.6257    0.7693 H   0  0  0  0  0  0  0  0  0  0  0  0
    2.6665    0.5515   -2.0522 H   0  0  0  0  0  0  0  0  0  0  0  0
    0.2287    0.4386   -1.7662 H   0  0  0  0  0  0  0  0  0  0  0  0
    3.2048   -0.0366    2.1916 H   0  0  0  0  0  0  0  0  0  0  0  0
   -1.1271   -1.8622    4.7842 H   0  0  0  0  0  0  0  0  0  0  0  0
   -3.2891   -3.0257    4.4180 H   0  0  0  0  0  0  0  0  0  0  0  0
   -4.4289   -2.8506    2.2240 H   0  0  0  0  0  0  0  0  0  0  0  0
   -3.9649    0.4111    0.0999 H   0  0  0  0  0  0  0  0  0  0  0  0
   -4.2370   -0.6151   -2.3372 H   0  0  0  0  0  0  0  0  0  0  0  0
   -6.5279   -1.2742   -2.7752 H   0  0  0  0  0  0  0  0  0  0  0  0
   -5.9235   -2.3094   -1.4958 H   0  0  0  0  0  0  0  0  0  0  0  0
   -8.2210   -1.5184   -1.0378 H   0  0  0  0  0  0  0  0  0  0  0  0
   -7.1008   -0.9775    0.2102 H   0  0  0  0  0  0  0  0  0  0  0  0
   -8.5742    0.8753   -0.4162 H   0  0  0  0  0  0  0  0  0  0  0  0
   -8.1956    0.6654   -2.1213 H   0  0  0  0  0  0  0  0  0  0  0  0
   -6.2825    1.5820    0.0789 H   0  0  0  0  0  0  0  0  0  0  0  0
   -6.9144    2.5532   -1.2443 H   0  0  0  0  0  0  0  0  0  0  0  0
   -4.5815    1.7983   -1.6802 H   0  0  0  0  0  0  0  0  0  0  0  0
   -5.7094    1.2189   -2.9005 H   0  0  0  0  0  0  0  0  0  0  0  0
    4.5762    2.2349   -1.0630 H   0  0  0  0  0  0  0  0  0  0  0  0
    6.0067    4.1134   -1.0578 H   0  0  0  0  0  0  0  0  0  0  0  0
    7.1917    4.3733   -2.3417 H   0  0  0  0  0  0  0  0  0  0  0  0
    5.7817    3.3685   -2.6876 H   0  0  0  0  0  0  0  0  0  0  0  0
  1  2  1  0
  2  3  1  0
  3  4  2  0
  4  5  1  0
  5  6  2  0
  6  7  1  0
  7  8  2  0
  8  9  1  0
  9 10  2  0
 10 11  1  0
 11 12  2  0
 11 13  1  0
 13 14  2  0
 13 15  2  0
 13 16  1  0
 16 17  2  0
 17 18  1  0
 18 19  2  0
 19 20  1  0
 20 21  1  0
 21 22  2  0
 21 23  1  0
 23 24  1  0
 24 25  1  0
 25 26  1  0
 26 27  1  0
 27 28  1  0
 28 29  1  0
 20 30  2  0
 30 31  1  0
 31 32  2  0
  6 33  1  0
 33 34  2  0
 34 35  1  0
 35 36  1  0
 34  3  1  0
 12  7  1  0
 30 16  1  0
 31 10  1  0
 29 24  1  0
  1 37  1  0
  1 38  1  0
  1 39  1  0
  4 40  1  0
  5 41  1  0
  8 42  1  0
  9 43  1  0
 12 44  1  0
 17 45  1  0
 18 46  1  0
 19 47  1  0
 23 48  1  0
 24 49  1  0
 25 50  1  0
 25 51  1  0
 26 52  1  0
 26 53  1  0
 27 54  1  0
 27 55  1  0
 28 56  1  0
 28 57  1  0
 29 58  1  0
 29 59  1  0
 33 60  1  0
 36 61  1  0
 36 62  1  0
 36 63  1  0
M  END
$$$$
