
     RDKit          3D

 30 31  0  0  0  0  0  0  0  0999 V2000
    2.2492   -3.3775    2.3059 N   0  0  0  0  0  0  0  0  0  0  0  0
    2.8541   -2.4567    1.9424 C   0  0  0  0  0  0  0  0  0  0  0  0
    3.6764   -1.3132    1.5266 C   0  0  0  0  0  0  0  0  0  0  0  0
    3.4062   -0.8942    0.0895 C   0  0  0  0  0  0  0  0  0  0  0  0
    2.1598   -0.1648   -0.0495 N   0  0  0  0  0  0  0  0  0  0  0  0
    1.9909    1.1838   -0.0210 C   0  0  0  0  0  0  0  0  0  0  0  0
    0.6311    1.4073   -0.1484 C   0  0  0  0  0  0  0  0  0  0  0  0
    0.0353    2.7221   -0.1099 C   0  0  0  0  0  0  0  0  0  0  0  0
   -1.2481    2.8673   -0.0871 N   0  0  0  0  0  0  0  0  0  0  0  0
   -1.5572    4.2325   -0.0393 O   0  0  0  0  0  0  0  0  0  0  0  0
    0.0642    0.1005   -0.2866 C   0  0  0  0  0  0  0  0  0  0  0  0
   -1.3254   -0.3099   -0.4836 C   0  0  0  0  0  0  0  0  0  0  0  0
   -1.8698   -1.3296    0.3124 C   0  0  0  0  0  0  0  0  0  0  0  0
   -3.1901   -1.7487    0.1261 C   0  0  0  0  0  0  0  0  0  0  0  0
   -3.9689   -1.1553   -0.8646 C   0  0  0  0  0  0  0  0  0  0  0  0
   -5.5952   -1.6675   -1.0962 Cl  0  0  0  0  0  0  0  0  0  0  0  0
   -3.4377   -0.1528   -1.6739 C   0  0  0  0  0  0  0  0  0  0  0  0
   -2.1162    0.2648   -1.4872 C   0  0  0  0  0  0  0  0  0  0  0  0
    1.0216   -0.8411   -0.2097 N   0  0  0  0  0  0  0  0  0  0  0  0
    3.5168   -0.4727    2.2123 H   0  0  0  0  0  0  0  0  0  0  0  0
    4.7315   -1.5985    1.6147 H   0  0  0  0  0  0  0  0  0  0  0  0
    4.2022   -0.2250   -0.2582 H   0  0  0  0  0  0  0  0  0  0  0  0
    3.3723   -1.7507   -0.5944 H   0  0  0  0  0  0  0  0  0  0  0  0
    2.8219    1.8641    0.1059 H   0  0  0  0  0  0  0  0  0  0  0  0
    0.7163    3.5915   -0.0820 H   0  0  0  0  0  0  0  0  0  0  0  0
   -2.5323    4.2230    0.0096 H   0  0  0  0  0  0  0  0  0  0  0  0
   -1.2603   -1.8061    1.0787 H   0  0  0  0  0  0  0  0  0  0  0  0
   -3.5964   -2.5382    0.7520 H   0  0  0  0  0  0  0  0  0  0  0  0
   -4.0415    0.3057   -2.4518 H   0  0  0  0  0  0  0  0  0  0  0  0
   -1.7108    1.0400   -2.1328 H   0  0  0  0  0  0  0  0  0  0  0  0
  1  2  3  0
  2  3  1  0
  3  4  1  0
  4  5  1  0
  5  6  1  0
  6  7  2  0
  7  8  1  0
  8  9  2  3
  9 10  1  0
  7 11  1  0
 11 12  1  0
 12 13  2  0
 13 14  1  0
 14 15  2  0
 15 16  1  0
 15 17  1  0
 17 18  2  0
 11 19  2  0
 19  5  1  0
 18 12  1  0
  3 20  1  0
  3 21  1  0
  4 22  1  0
  4 23  1  0
  6 24  1  0
  8 25  1  0
 10 26  1  0
 13 27  1  0
 14 28  1  0
 17 29  1  0
 18 30  1  0
M  END
$$$$
