
     RDKit          3D

 64 67  0  0  0  0  0  0  0  0999 V2000
    6.1774    0.8204    3.2097 C   0  0  0  0  0  0  0  0  0  0  0  0
    5.8779    0.5932    1.7580 C   0  0  0  0  0  0  0  0  0  0  0  0
    5.8736   -0.6790    1.2364 C   0  0  0  0  0  0  0  0  0  0  0  0
    5.5494   -0.7674   -0.0952 C   0  0  0  0  0  0  0  0  0  0  0  0
    5.4633   -1.9929   -0.7845 N   0  0  0  0  0  0  0  0  0  0  0  0
    4.2574   -3.0611   -0.3072 S   0  0  0  0  0  6  0  0  0  0  0  0
    4.4159   -3.3622    1.1015 O   0  0  0  0  0  0  0  0  0  0  0  0
    4.2346   -4.1210   -1.2949 O   0  0  0  0  0  0  0  0  0  0  0  0
    2.7560   -2.1246   -0.4962 C   0  0  0  0  0  0  0  0  0  0  0  0
    2.2460   -1.4011    0.5821 C   0  0  0  0  0  0  0  0  0  0  0  0
    1.0267   -0.7310    0.4493 C   0  0  0  0  0  0  0  0  0  0  0  0
    0.3005   -0.7965   -0.7491 C   0  0  0  0  0  0  0  0  0  0  0  0
   -0.9569   -0.1615   -0.7623 N   0  0  0  0  0  0  0  0  0  0  0  0
   -1.9296   -0.2245   -1.7510 C   0  0  0  0  0  0  0  0  0  0  0  0
   -1.7792   -0.7234   -2.8643 O   0  0  0  0  0  0  0  0  0  0  0  0
   -3.2812    0.4225   -1.3608 C   0  0  0  0  0  0  0  0  0  0  0  0
   -3.1843    1.9387   -1.1039 C   0  0  0  0  0  0  0  0  0  0  0  0
   -3.4260    2.8103   -2.3568 C   0  0  0  0  0  0  0  0  0  0  0  0
   -2.4068    2.5633   -3.4689 C   0  0  0  0  0  0  0  0  0  0  0  0
   -3.4096    4.2916   -1.9649 C   0  0  0  0  0  0  0  0  0  0  0  0
   -3.8180   -0.3119   -0.2076 N   0  0  0  0  0  0  0  0  0  0  0  0
   -4.7479   -1.3136   -0.3237 C   0  0  0  0  0  0  0  0  0  0  0  0
   -5.3274   -1.7144   -1.3137 O   0  0  0  0  0  0  0  0  0  0  0  0
   -4.9532   -1.8572    1.0174 C   0  0  0  0  0  0  0  0  0  0  0  0
   -5.7797   -2.8720    1.4578 C   0  0  0  0  0  0  0  0  0  0  0  0
   -5.7501   -3.1731    2.8244 C   0  0  0  0  0  0  0  0  0  0  0  0
   -4.9044   -2.4629    3.7036 C   0  0  0  0  0  0  0  0  0  0  0  0
   -4.0722   -1.4426    3.2316 C   0  0  0  0  0  0  0  0  0  0  0  0
   -4.1224   -1.1649    1.8785 C   0  0  0  0  0  0  0  0  0  0  0  0
   -3.3726   -0.1995    1.0805 C   0  0  0  0  0  0  0  0  0  0  0  0
   -2.4730    0.5021    1.5066 O   0  0  0  0  0  0  0  0  0  0  0  0
    0.8313   -1.5113   -1.8275 C   0  0  0  0  0  0  0  0  0  0  0  0
    2.0534   -2.1814   -1.7026 C   0  0  0  0  0  0  0  0  0  0  0  0
    5.2651    0.2713   -0.8870 N   0  0  0  0  0  0  0  0  0  0  0  0
    5.3022    1.4749   -0.2936 C   0  0  0  0  0  0  0  0  0  0  0  0
    4.9630    2.6703   -1.1292 C   0  0  0  0  0  0  0  0  0  0  0  0
    5.5789    1.6773    1.0089 N   0  0  0  0  0  0  0  0  0  0  0  0
    7.0459    0.2311    3.5250 H   0  0  0  0  0  0  0  0  0  0  0  0
    6.3979    1.8749    3.3985 H   0  0  0  0  0  0  0  0  0  0  0  0
    5.3110    0.5334    3.8146 H   0  0  0  0  0  0  0  0  0  0  0  0
    6.1089   -1.5492    1.8345 H   0  0  0  0  0  0  0  0  0  0  0  0
    5.4719   -1.8567   -1.7954 H   0  0  0  0  0  0  0  0  0  0  0  0
    2.7714   -1.3758    1.5350 H   0  0  0  0  0  0  0  0  0  0  0  0
    0.6370   -0.1822    1.3047 H   0  0  0  0  0  0  0  0  0  0  0  0
   -1.2229    0.2994    0.1081 H   0  0  0  0  0  0  0  0  0  0  0  0
   -3.9726    0.2462   -2.1941 H   0  0  0  0  0  0  0  0  0  0  0  0
   -2.2152    2.2073   -0.6620 H   0  0  0  0  0  0  0  0  0  0  0  0
   -3.9484    2.2214   -0.3649 H   0  0  0  0  0  0  0  0  0  0  0  0
   -4.4262    2.5835   -2.7507 H   0  0  0  0  0  0  0  0  0  0  0  0
   -2.5130    1.5589   -3.8899 H   0  0  0  0  0  0  0  0  0  0  0  0
   -2.5498    3.2687   -4.2976 H   0  0  0  0  0  0  0  0  0  0  0  0
   -1.3804    2.6787   -3.1009 H   0  0  0  0  0  0  0  0  0  0  0  0
   -3.6346    4.9213   -2.8326 H   0  0  0  0  0  0  0  0  0  0  0  0
   -4.1626    4.5057   -1.1963 H   0  0  0  0  0  0  0  0  0  0  0  0
   -2.4298    4.5861   -1.5728 H   0  0  0  0  0  0  0  0  0  0  0  0
   -6.4209   -3.4126    0.7683 H   0  0  0  0  0  0  0  0  0  0  0  0
   -6.3836   -3.9661    3.2160 H   0  0  0  0  0  0  0  0  0  0  0  0
   -4.9016   -2.7155    4.7648 H   0  0  0  0  0  0  0  0  0  0  0  0
   -3.4099   -0.8942    3.8947 H   0  0  0  0  0  0  0  0  0  0  0  0
    0.3046   -1.5964   -2.7723 H   0  0  0  0  0  0  0  0  0  0  0  0
    2.4220   -2.7703   -2.5383 H   0  0  0  0  0  0  0  0  0  0  0  0
    5.3504    2.5497   -2.1466 H   0  0  0  0  0  0  0  0  0  0  0  0
    3.8758    2.7874   -1.1775 H   0  0  0  0  0  0  0  0  0  0  0  0
    5.3966    3.5804   -0.7062 H   0  0  0  0  0  0  0  0  0  0  0  0
  1  2  1  0
  2  3  2  0
  3  4  1  0
  4  5  1  0
  5  6  1  0
  6  7  2  0
  6  8  2  0
  6  9  1  0
  9 10  2  0
 10 11  1  0
 11 12  2  0
 12 13  1  0
 13 14  1  0
 14 15  2  0
 14 16  1  0
 16 17  1  0
 17 18  1  0
 18 19  1  0
 18 20  1  0
 16 21  1  0
 21 22  1  0
 22 23  2  0
 22 24  1  0
 24 25  2  0
 25 26  1  0
 26 27  2  0
 27 28  1  0
 28 29  2  0
 29 30  1  0
 30 31  2  0
 12 32  1  0
 32 33  2  0
  4 34  2  0
 34 35  1  0
 35 36  1  0
 35 37  2  0
 37  2  1  0
 33  9  1  0
 30 21  1  0
 29 24  1  0
  1 38  1  0
  1 39  1  0
  1 40  1  0
  3 41  1  0
  5 42  1  0
 10 43  1  0
 11 44  1  0
 13 45  1  0
 16 46  1  0
 17 47  1  0
 17 48  1  0
 18 49  1  0
 19 50  1  0
 19 51  1  0
 19 52  1  0
 20 53  1  0
 20 54  1  0
 20 55  1  0
 25 56  1  0
 26 57  1  0
 27 58  1  0
 28 59  1  0
 32 60  1  0
 33 61  1  0
 36 62  1  0
 36 63  1  0
 36 64  1  0
M  END
$$$$
