
     RDKit          3D

 29 31  0  0  0  0  0  0  0  0999 V2000
    3.6302   -1.6019    1.7746 N   0  0  0  0  0  0  0  0  0  0  0  0
    2.7557   -0.8104    1.0016 C   0  0  0  0  0  0  0  0  0  0  0  0
    1.3773   -1.1711    0.9946 C   0  0  0  0  0  0  0  0  0  0  0  0
    0.3621   -0.5549    0.2044 C   0  0  0  0  0  0  0  0  0  0  0  0
   -0.9694   -1.0132    0.3592 N   0  0  0  0  0  0  0  0  0  0  0  0
   -2.1819   -0.3578    0.0633 C   0  0  0  0  0  0  0  0  0  0  0  0
   -3.2819   -1.1086   -0.3773 C   0  0  0  0  0  0  0  0  0  0  0  0
   -4.5074   -0.4961   -0.6550 C   0  0  0  0  0  0  0  0  0  0  0  0
   -4.6542    0.8773   -0.4836 C   0  0  0  0  0  0  0  0  0  0  0  0
   -3.5786    1.6346   -0.0284 C   0  0  0  0  0  0  0  0  0  0  0  0
   -2.3544    1.0186    0.2487 C   0  0  0  0  0  0  0  0  0  0  0  0
    0.8552    0.4633   -0.6595 C   0  0  0  0  0  0  0  0  0  0  0  0
    0.2100    1.2274   -1.5518 N   0  0  0  0  0  0  0  0  0  0  0  0
    1.1558    2.0471   -2.1263 O   0  0  0  0  0  0  0  0  0  0  0  0
    2.4142    1.8070   -1.6156 N   0  0  0  0  0  0  0  0  0  0  0  0
    2.2734    0.8182   -0.7213 C   0  0  0  0  0  0  0  0  0  0  0  0
    3.2148    0.1577    0.0859 C   0  0  0  0  0  0  0  0  0  0  0  0
    4.5980    0.5196   -0.0342 N   0  0  0  0  0  4  0  0  0  0  0  0
    5.2060    0.7607    1.0204 O   0  0  0  0  0  0  0  0  0  0  0  0
    5.1004    0.5262   -1.1649 O   0  0  0  0  0  1  0  0  0  0  0  0
    3.2080   -2.0295    2.5959 H   0  0  0  0  0  0  0  0  0  0  0  0
    4.5119   -1.1414    2.0173 H   0  0  0  0  0  0  0  0  0  0  0  0
    1.0605   -1.9723    1.6667 H   0  0  0  0  0  0  0  0  0  0  0  0
   -1.0311   -2.0193    0.2285 H   0  0  0  0  0  0  0  0  0  0  0  0
   -3.1955   -2.1824   -0.5193 H   0  0  0  0  0  0  0  0  0  0  0  0
   -5.3457   -1.0924   -1.0056 H   0  0  0  0  0  0  0  0  0  0  0  0
   -5.6051    1.3566   -0.7004 H   0  0  0  0  0  0  0  0  0  0  0  0
   -3.6885    2.7062    0.1150 H   0  0  0  0  0  0  0  0  0  0  0  0
   -1.5399    1.6308    0.6247 H   0  0  0  0  0  0  0  0  0  0  0  0
  1  2  1  0
  2  3  1  0
  3  4  2  0
  4  5  1  0
  5  6  1  0
  6  7  2  0
  7  8  1  0
  8  9  2  0
  9 10  1  0
 10 11  2  0
  4 12  1  0
 12 13  2  0
 13 14  1  0
 14 15  1  0
 15 16  2  0
 16 17  1  0
 17 18  1  0
 18 19  2  0
 18 20  1  0
 17  2  2  0
 11  6  1  0
 16 12  1  0
  1 21  1  0
  1 22  1  0
  3 23  1  0
  5 24  1  0
  7 25  1  0
  8 26  1  0
  9 27  1  0
 10 28  1  0
 11 29  1  0
M  CHG  2  18   1  20  -1
M  END
$$$$
