
     RDKit          3D

 47 50  0  0  0  0  0  0  0  0999 V2000
   -0.4148    0.0224   -3.6180 O   0  0  0  0  0  0  0  0  0  0  0  0
   -0.2522   -0.8812   -2.7971 C   0  0  0  0  0  0  0  0  0  0  0  0
   -0.8123   -2.2846   -3.0251 C   0  0  0  0  0  0  0  0  0  0  0  0
   -2.3987   -2.2454   -3.9114 S   0  0  0  0  0  0  0  0  0  0  0  0
   -3.3610   -1.3226   -2.7962 C   0  0  0  0  0  0  0  0  0  0  0  0
   -4.5374   -0.8060   -3.0858 N   0  0  0  0  0  0  0  0  0  0  0  0
   -4.9736   -0.1474   -1.9532 N   0  0  0  0  0  0  0  0  0  0  0  0
   -4.0404   -0.3224   -1.0404 C   0  0  0  0  0  0  0  0  0  0  0  0
   -3.9623    0.1681    0.3289 C   0  0  0  0  0  0  0  0  0  0  0  0
   -4.9138    1.0900    0.7910 C   0  0  0  0  0  0  0  0  0  0  0  0
   -4.8587    1.5810    2.0975 C   0  0  0  0  0  0  0  0  0  0  0  0
   -3.8527    1.1538    2.9598 C   0  0  0  0  0  0  0  0  0  0  0  0
   -2.9010    0.2372    2.5172 C   0  0  0  0  0  0  0  0  0  0  0  0
   -2.9582   -0.2562    1.2110 C   0  0  0  0  0  0  0  0  0  0  0  0
   -2.9936   -1.0791   -1.4985 O   0  0  0  0  0  0  0  0  0  0  0  0
    0.4500   -0.6582   -1.6212 N   0  0  0  0  0  0  0  0  0  0  0  0
    0.8588   -1.6962   -0.6650 C   0  0  0  0  0  0  0  0  0  0  0  0
    2.0996   -1.3033    0.1576 C   0  0  0  0  0  0  0  0  0  0  0  0
    1.9327    0.0025    0.8456 N   0  0  0  0  0  0  0  0  0  0  0  0
    3.1666    0.5101    1.2895 C   0  0  0  0  0  0  0  0  0  0  0  0
    3.7761    1.6562    0.7554 C   0  0  0  0  0  0  0  0  0  0  0  0
    5.0239    2.0993    1.2135 C   0  0  0  0  0  0  0  0  0  0  0  0
    5.6919    1.4019    2.2161 C   0  0  0  0  0  0  0  0  0  0  0  0
    5.1071    0.2648    2.7652 C   0  0  0  0  0  0  0  0  0  0  0  0
    3.8581   -0.1723    2.3056 C   0  0  0  0  0  0  0  0  0  0  0  0
    0.9677    0.9345    0.2222 C   0  0  0  0  0  0  0  0  0  0  0  0
    0.8571    0.7165   -1.2934 C   0  0  0  0  0  0  0  0  0  0  0  0
   -0.0876   -2.8474   -3.6187 H   0  0  0  0  0  0  0  0  0  0  0  0
   -0.9770   -2.8133   -2.0838 H   0  0  0  0  0  0  0  0  0  0  0  0
   -5.7059    1.4391    0.1281 H   0  0  0  0  0  0  0  0  0  0  0  0
   -5.6008    2.2989    2.4403 H   0  0  0  0  0  0  0  0  0  0  0  0
   -3.8086    1.5381    3.9768 H   0  0  0  0  0  0  0  0  0  0  0  0
   -2.1097   -0.0899    3.1872 H   0  0  0  0  0  0  0  0  0  0  0  0
   -2.2070   -0.9753    0.8902 H   0  0  0  0  0  0  0  0  0  0  0  0
    0.0056   -1.8644    0.0027 H   0  0  0  0  0  0  0  0  0  0  0  0
    1.0587   -2.6314   -1.1986 H   0  0  0  0  0  0  0  0  0  0  0  0
    2.2937   -2.0950    0.8919 H   0  0  0  0  0  0  0  0  0  0  0  0
    2.9585   -1.2560   -0.5245 H   0  0  0  0  0  0  0  0  0  0  0  0
    3.3123    2.2156   -0.0525 H   0  0  0  0  0  0  0  0  0  0  0  0
    5.4767    2.9836    0.7735 H   0  0  0  0  0  0  0  0  0  0  0  0
    6.6657    1.7428    2.5619 H   0  0  0  0  0  0  0  0  0  0  0  0
    5.6213   -0.2869    3.5493 H   0  0  0  0  0  0  0  0  0  0  0  0
    3.4143   -1.0537    2.7619 H   0  0  0  0  0  0  0  0  0  0  0  0
   -0.0101    0.7302    0.6749 H   0  0  0  0  0  0  0  0  0  0  0  0
    1.1783    1.9852    0.4479 H   0  0  0  0  0  0  0  0  0  0  0  0
    1.8257    0.8901   -1.7806 H   0  0  0  0  0  0  0  0  0  0  0  0
    0.1372    1.4265   -1.7149 H   0  0  0  0  0  0  0  0  0  0  0  0
  1  2  2  0
  2  3  1  0
  3  4  1  0
  4  5  1  0
  5  6  2  0
  6  7  1  0
  7  8  2  0
  8  9  1  0
  9 10  2  0
 10 11  1  0
 11 12  2  0
 12 13  1  0
 13 14  2  0
  8 15  1  0
  2 16  1  0
 16 17  1  0
 17 18  1  0
 18 19  1  0
 19 20  1  0
 20 21  2  0
 21 22  1  0
 22 23  2  0
 23 24  1  0
 24 25  2  0
 19 26  1  0
 26 27  1  0
 15  5  1  0
 27 16  1  0
 14  9  1  0
 25 20  1  0
  3 28  1  0
  3 29  1  0
 10 30  1  0
 11 31  1  0
 12 32  1  0
 13 33  1  0
 14 34  1  0
 17 35  1  0
 17 36  1  0
 18 37  1  0
 18 38  1  0
 21 39  1  0
 22 40  1  0
 23 41  1  0
 24 42  1  0
 25 43  1  0
 26 44  1  0
 26 45  1  0
 27 46  1  0
 27 47  1  0
M  END
$$$$
