
     RDKit          3D

 50 52  0  0  0  0  0  0  0  0999 V2000
    2.5342   -1.0242   -3.6035 C   0  0  0  0  0  0  0  0  0  0  0  0
    2.6481   -0.3290   -2.3673 O   0  0  0  0  0  0  0  0  0  0  0  0
    3.2700    0.8979   -2.3897 C   0  0  0  0  0  0  0  0  0  0  0  0
    3.8412    1.4825   -3.5241 C   0  0  0  0  0  0  0  0  0  0  0  0
    4.4307    2.7451   -3.4389 C   0  0  0  0  0  0  0  0  0  0  0  0
    4.4515    3.4266   -2.2243 C   0  0  0  0  0  0  0  0  0  0  0  0
    3.8848    2.8497   -1.0855 C   0  0  0  0  0  0  0  0  0  0  0  0
    3.2958    1.5859   -1.1562 C   0  0  0  0  0  0  0  0  0  0  0  0
    2.6972    0.9405   -0.0527 N   0  0  0  0  0  0  0  0  0  0  0  0
    2.4859    1.4289    1.2217 C   0  0  0  0  0  0  0  0  0  0  0  0
    2.8739    2.5096    1.6590 O   0  0  0  0  0  0  0  0  0  0  0  0
    1.6820    0.4705    2.1070 C   0  0  0  0  0  0  0  0  0  0  0  0
    0.3478    0.2782    1.6310 O   0  0  0  0  0  0  0  0  0  0  0  0
    0.2057   -0.7064    0.7140 C   0  0  0  0  0  0  0  0  0  0  0  0
    1.1027   -1.4069    0.2683 O   0  0  0  0  0  0  0  0  0  0  0  0
   -1.1530   -0.6883    0.1444 C   0  0  0  0  0  0  0  0  0  0  0  0
   -1.2343   -0.5457   -1.2499 C   0  0  0  0  0  0  0  0  0  0  0  0
   -2.4882   -0.5172   -1.8612 C   0  0  0  0  0  0  0  0  0  0  0  0
   -2.5841   -0.3714   -3.3180 N   0  0  0  0  0  4  0  0  0  0  0  0
   -3.7168   -0.3076   -3.8165 O   0  0  0  0  0  0  0  0  0  0  0  0
   -1.5269   -0.3252   -3.9634 O   0  0  0  0  0  1  0  0  0  0  0  0
   -3.6519   -0.6316   -1.0944 C   0  0  0  0  0  0  0  0  0  0  0  0
   -3.5541   -0.7873    0.2936 C   0  0  0  0  0  0  0  0  0  0  0  0
   -2.3063   -0.8283    0.9412 C   0  0  0  0  0  0  0  0  0  0  0  0
   -2.2056   -1.0313    2.3196 N   0  0  0  0  0  0  0  0  0  0  0  0
   -2.8161    0.0037    3.1769 C   0  0  0  0  0  0  0  0  0  0  0  0
   -3.7032   -0.7638    4.1540 C   0  0  0  0  0  0  0  0  0  0  0  0
   -3.0238   -2.1197    4.2420 C   0  0  0  0  0  0  0  0  0  0  0  0
   -2.6070   -2.3652    2.7968 C   0  0  0  0  0  0  0  0  0  0  0  0
    1.9995   -1.9598   -3.4119 H   0  0  0  0  0  0  0  0  0  0  0  0
    3.5213   -1.2811   -4.0033 H   0  0  0  0  0  0  0  0  0  0  0  0
    1.9476   -0.4488   -4.3282 H   0  0  0  0  0  0  0  0  0  0  0  0
    3.8427    0.9855   -4.4876 H   0  0  0  0  0  0  0  0  0  0  0  0
    4.8728    3.1983   -4.3228 H   0  0  0  0  0  0  0  0  0  0  0  0
    4.9088    4.4112   -2.1579 H   0  0  0  0  0  0  0  0  0  0  0  0
    3.9227    3.4094   -0.1571 H   0  0  0  0  0  0  0  0  0  0  0  0
    2.3541    0.0009   -0.2628 H   0  0  0  0  0  0  0  0  0  0  0  0
    2.2233   -0.4767    2.2213 H   0  0  0  0  0  0  0  0  0  0  0  0
    1.6064    0.9136    3.1066 H   0  0  0  0  0  0  0  0  0  0  0  0
   -0.3186   -0.4538   -1.8319 H   0  0  0  0  0  0  0  0  0  0  0  0
   -4.6374   -0.6107   -1.5547 H   0  0  0  0  0  0  0  0  0  0  0  0
   -4.4692   -0.8888    0.8733 H   0  0  0  0  0  0  0  0  0  0  0  0
   -3.3900    0.7619    2.6320 H   0  0  0  0  0  0  0  0  0  0  0  0
   -2.0112    0.5152    3.7187 H   0  0  0  0  0  0  0  0  0  0  0  0
   -3.7870   -0.2645    5.1233 H   0  0  0  0  0  0  0  0  0  0  0  0
   -4.7110   -0.8773    3.7376 H   0  0  0  0  0  0  0  0  0  0  0  0
   -3.6853   -2.9012    4.6272 H   0  0  0  0  0  0  0  0  0  0  0  0
   -2.1407   -2.0600    4.8893 H   0  0  0  0  0  0  0  0  0  0  0  0
   -1.7732   -3.0726    2.7324 H   0  0  0  0  0  0  0  0  0  0  0  0
   -3.4561   -2.7708    2.2326 H   0  0  0  0  0  0  0  0  0  0  0  0
  1  2  1  0
  2  3  1  0
  3  4  2  0
  4  5  1  0
  5  6  2  0
  6  7  1  0
  7  8  2  0
  8  9  1  0
  9 10  1  0
 10 11  2  0
 10 12  1  0
 12 13  1  0
 13 14  1  0
 14 15  2  0
 14 16  1  0
 16 17  2  0
 17 18  1  0
 18 19  1  0
 19 20  2  0
 19 21  1  0
 18 22  2  0
 22 23  1  0
 23 24  2  0
 24 25  1  0
 25 26  1  0
 26 27  1  0
 27 28  1  0
 28 29  1  0
  8  3  1  0
 24 16  1  0
 29 25  1  0
  1 30  1  0
  1 31  1  0
  1 32  1  0
  4 33  1  0
  5 34  1  0
  6 35  1  0
  7 36  1  0
  9 37  1  0
 12 38  1  0
 12 39  1  0
 17 40  1  0
 22 41  1  0
 23 42  1  0
 26 43  1  0
 26 44  1  0
 27 45  1  0
 27 46  1  0
 28 47  1  0
 28 48  1  0
 29 49  1  0
 29 50  1  0
M  CHG  2  19   1  21  -1
M  END
$$$$
