
     RDKit          3D

 57 60  0  0  0  0  0  0  0  0999 V2000
   -7.6526   -1.2532   -0.7803 C   0  0  0  0  0  0  0  0  0  0  0  0
   -6.2201   -0.8239   -0.8192 C   0  0  0  0  0  0  0  0  0  0  0  0
   -5.2605   -1.5842   -1.4996 C   0  0  0  0  0  0  0  0  0  0  0  0
   -3.9108   -1.1893   -1.5097 C   0  0  0  0  0  0  0  0  0  0  0  0
   -3.5167   -0.0313   -0.8420 C   0  0  0  0  0  0  0  0  0  0  0  0
   -2.1669    0.4215   -0.9036 N   0  0  0  0  0  0  0  0  0  0  0  0
   -1.7786    1.7302   -1.1960 C   0  0  0  0  0  0  0  0  0  0  0  0
   -2.6979    2.7863   -1.7079 C   0  0  0  0  0  0  0  0  0  0  0  0
   -0.4050    1.8136   -1.0820 C   0  0  0  0  0  0  0  0  0  0  0  0
    0.0748    0.5268   -0.7340 C   0  0  0  0  0  0  0  0  0  0  0  0
    1.4627    0.1801   -0.5159 C   0  0  0  0  0  0  0  0  0  0  0  0
    2.0384    0.0753   -1.6435 O   0  0  0  0  0  1  0  0  0  0  0  0
    1.9624    0.0408    0.7384 C   0  0  0  0  0  0  0  0  0  0  0  0
    3.4607   -0.2919    1.0012 C   0  0  0  0  0  0  0  0  0  0  0  0
    4.0063   -0.6028    2.5588 S   0  0  0  0  0  0  0  0  0  0  0  0
    4.2576   -0.2184   -0.1466 N   0  0  0  0  0  0  0  0  0  0  0  0
    5.6308   -0.3571   -0.4328 C   0  0  0  0  0  0  0  0  0  0  0  0
    6.0050    0.0201   -1.7454 C   0  0  0  0  0  0  0  0  0  0  0  0
    7.3329   -0.0302   -2.1563 C   0  0  0  0  0  0  0  0  0  0  0  0
    8.3029   -0.4881   -1.2790 C   0  0  0  0  0  0  0  0  0  0  0  0
    9.5749   -0.5421   -1.7049 F   0  0  0  0  0  0  0  0  0  0  0  0
    7.9534   -0.9034    0.0148 C   0  0  0  0  0  0  0  0  0  0  0  0
    9.1629   -1.5276    1.0878 Cl  0  0  0  0  0  0  0  0  0  0  0  0
    6.6175   -0.8476    0.4289 C   0  0  0  0  0  0  0  0  0  0  0  0
    1.0192    0.2576    1.9096 N   0  0  0  0  0  4  0  0  0  0  0  0
    0.6117   -0.7989    2.6474 C   0  0  0  0  0  0  0  0  0  0  0  0
   -0.2535   -0.6200    3.7187 C   0  0  0  0  0  0  0  0  0  0  0  0
   -0.7110    0.6570    4.0125 C   0  0  0  0  0  0  0  0  0  0  0  0
   -0.2868    1.7325    3.2260 C   0  0  0  0  0  0  0  0  0  0  0  0
    0.5857    1.5054    2.1733 C   0  0  0  0  0  0  0  0  0  0  0  0
   -1.0187   -0.3453   -0.6855 C   0  0  0  0  0  0  0  0  0  0  0  0
   -1.0249   -1.8175   -0.4522 C   0  0  0  0  0  0  0  0  0  0  0  0
   -4.4653    0.7241   -0.1422 C   0  0  0  0  0  0  0  0  0  0  0  0
   -5.8111    0.3168   -0.1212 C   0  0  0  0  0  0  0  0  0  0  0  0
   -7.9528   -1.7192   -1.7163 H   0  0  0  0  0  0  0  0  0  0  0  0
   -7.8093   -1.9660    0.0292 H   0  0  0  0  0  0  0  0  0  0  0  0
   -8.3114   -0.3890   -0.6209 H   0  0  0  0  0  0  0  0  0  0  0  0
   -5.5586   -2.4714   -2.0613 H   0  0  0  0  0  0  0  0  0  0  0  0
   -3.2043   -1.7620   -2.1038 H   0  0  0  0  0  0  0  0  0  0  0  0
   -3.4841    2.3724   -2.3422 H   0  0  0  0  0  0  0  0  0  0  0  0
   -3.1559    3.3463   -0.8755 H   0  0  0  0  0  0  0  0  0  0  0  0
   -2.1520    3.5018   -2.3211 H   0  0  0  0  0  0  0  0  0  0  0  0
    0.2066    2.6771   -1.3080 H   0  0  0  0  0  0  0  0  0  0  0  0
    3.6960   -0.0363   -0.9833 H   0  0  0  0  0  0  0  0  0  0  0  0
    5.2500    0.3611   -2.4657 H   0  0  0  0  0  0  0  0  0  0  0  0
    7.6056    0.2647   -3.1768 H   0  0  0  0  0  0  0  0  0  0  0  0
    6.3972   -1.1969    1.4267 H   0  0  0  0  0  0  0  0  0  0  0  0
    0.9772   -1.7737    2.3578 H   0  0  0  0  0  0  0  0  0  0  0  0
   -0.5749   -1.4710    4.3316 H   0  0  0  0  0  0  0  0  0  0  0  0
   -1.3782    0.8236    4.8460 H   0  0  0  0  0  0  0  0  0  0  0  0
   -0.6257    2.7390    3.4305 H   0  0  0  0  0  0  0  0  0  0  0  0
    0.9501    2.3010    1.5472 H   0  0  0  0  0  0  0  0  0  0  0  0
   -0.0873   -2.1404    0.0127 H   0  0  0  0  0  0  0  0  0  0  0  0
   -1.8438   -2.1378    0.2146 H   0  0  0  0  0  0  0  0  0  0  0  0
   -1.1211   -2.3552   -1.4051 H   0  0  0  0  0  0  0  0  0  0  0  0
   -4.1716    1.6128    0.4209 H   0  0  0  0  0  0  0  0  0  0  0  0
   -6.5314    0.9040    0.4347 H   0  0  0  0  0  0  0  0  0  0  0  0
  1  2  1  0
  2  3  2  0
  3  4  1  0
  4  5  2  0
  5  6  1  0
  6  7  1  0
  7  8  1  0
  7  9  2  0
  9 10  1  0
 10 11  1  0
 11 12  1  0
 11 13  2  3
 13 14  1  0
 14 15  2  0
 14 16  1  0
 16 17  1  0
 17 18  2  0
 18 19  1  0
 19 20  2  0
 20 21  1  0
 20 22  1  0
 22 23  1  0
 22 24  2  0
 13 25  1  0
 25 26  2  0
 26 27  1  0
 27 28  2  0
 28 29  1  0
 29 30  2  0
 10 31  2  0
 31 32  1  0
  5 33  1  0
 33 34  2  0
 34  2  1  0
 31  6  1  0
 24 17  1  0
 30 25  1  0
  1 35  1  0
  1 36  1  0
  1 37  1  0
  3 38  1  0
  4 39  1  0
  8 40  1  0
  8 41  1  0
  8 42  1  0
  9 43  1  0
 16 44  1  0
 18 45  1  0
 19 46  1  0
 24 47  1  0
 26 48  1  0
 27 49  1  0
 28 50  1  0
 29 51  1  0
 30 52  1  0
 32 53  1  0
 32 54  1  0
 32 55  1  0
 33 56  1  0
 34 57  1  0
M  CHG  2  12  -1  25   1
M  END
$$$$
