
     RDKit          3D

 46 49  0  0  0  0  0  0  0  0999 V2000
   -2.4128    0.7610   -1.5099 O   0  0  0  0  0  0  0  0  0  0  0  0
   -1.7456    0.2057   -0.6409 C   0  0  0  0  0  0  0  0  0  0  0  0
   -0.3081    0.0745   -0.7832 C   0  0  0  0  0  0  0  0  0  0  0  0
    0.3798   -1.1147   -0.9331 C   0  0  0  0  0  0  0  0  0  0  0  0
    1.7136   -0.8039   -1.0293 N   0  0  0  0  0  0  0  0  0  0  0  0
    2.8106   -1.6957   -1.2002 C   0  0  0  0  0  0  0  0  0  0  0  0
    4.1146   -1.1794   -1.2626 C   0  0  0  0  0  0  0  0  0  0  0  0
    5.2052   -2.0355   -1.4294 C   0  0  0  0  0  0  0  0  0  0  0  0
    5.0037   -3.4096   -1.5360 C   0  0  0  0  0  0  0  0  0  0  0  0
    3.7120   -3.9305   -1.4774 C   0  0  0  0  0  0  0  0  0  0  0  0
    2.6148   -3.0798   -1.3106 C   0  0  0  0  0  0  0  0  0  0  0  0
    1.9162    0.5298   -0.9160 N   0  0  0  0  0  0  0  0  0  0  0  0
    0.6958    1.0792   -0.8162 C   0  0  0  0  0  0  0  0  0  0  0  0
    0.5556    2.5302   -0.6891 C   0  0  0  0  0  0  0  0  0  0  0  0
    1.4131    3.2386    0.1701 C   0  0  0  0  0  0  0  0  0  0  0  0
    1.2946    4.6232    0.3093 C   0  0  0  0  0  0  0  0  0  0  0  0
    0.3233    5.3019   -0.4156 C   0  0  0  0  0  0  0  0  0  0  0  0
    0.2084    6.6297   -0.2831 F   0  0  0  0  0  0  0  0  0  0  0  0
   -0.5264    4.6234   -1.2807 C   0  0  0  0  0  0  0  0  0  0  0  0
   -0.4079    3.2378   -1.4213 C   0  0  0  0  0  0  0  0  0  0  0  0
   -2.3240   -0.3583    0.4983 N   0  0  0  0  0  0  0  0  0  0  0  0
   -1.5648   -0.8271    1.6616 C   0  0  0  0  0  0  0  0  0  0  0  0
   -2.3535   -0.6727    2.9578 C   0  0  0  0  0  0  0  0  0  0  0  0
   -3.6944   -1.4040    2.9071 C   0  0  0  0  0  0  0  0  0  0  0  0
   -4.2864   -1.4724    1.4992 C   0  0  0  0  0  0  0  0  0  0  0  0
   -3.7807   -0.3459    0.6070 C   0  0  0  0  0  0  0  0  0  0  0  0
    0.0131   -2.1280   -0.9837 H   0  0  0  0  0  0  0  0  0  0  0  0
    4.2978   -0.1088   -1.1854 H   0  0  0  0  0  0  0  0  0  0  0  0
    6.2110   -1.6263   -1.4800 H   0  0  0  0  0  0  0  0  0  0  0  0
    5.8535   -4.0745   -1.6681 H   0  0  0  0  0  0  0  0  0  0  0  0
    3.5583   -5.0036   -1.5650 H   0  0  0  0  0  0  0  0  0  0  0  0
    1.6285   -3.5309   -1.2755 H   0  0  0  0  0  0  0  0  0  0  0  0
    2.1802    2.7096    0.7324 H   0  0  0  0  0  0  0  0  0  0  0  0
    1.9547    5.1722    0.9726 H   0  0  0  0  0  0  0  0  0  0  0  0
   -1.2719    5.1734   -1.8460 H   0  0  0  0  0  0  0  0  0  0  0  0
   -1.0647    2.7264   -2.1214 H   0  0  0  0  0  0  0  0  0  0  0  0
   -0.6239   -0.2747    1.7464 H   0  0  0  0  0  0  0  0  0  0  0  0
   -1.3247   -1.8826    1.4893 H   0  0  0  0  0  0  0  0  0  0  0  0
   -2.5393    0.3948    3.1350 H   0  0  0  0  0  0  0  0  0  0  0  0
   -1.7647   -1.0340    3.8085 H   0  0  0  0  0  0  0  0  0  0  0  0
   -3.5773   -2.4245    3.2912 H   0  0  0  0  0  0  0  0  0  0  0  0
   -4.3966   -0.9019    3.5833 H   0  0  0  0  0  0  0  0  0  0  0  0
   -5.3805   -1.4548    1.5547 H   0  0  0  0  0  0  0  0  0  0  0  0
   -4.0102   -2.4338    1.0470 H   0  0  0  0  0  0  0  0  0  0  0  0
   -4.0728    0.6301    1.0127 H   0  0  0  0  0  0  0  0  0  0  0  0
   -4.2274   -0.4338   -0.3894 H   0  0  0  0  0  0  0  0  0  0  0  0
  1  2  2  0
  2  3  1  0
  3  4  2  0
  4  5  1  0
  5  6  1  0
  6  7  2  0
  7  8  1  0
  8  9  2  0
  9 10  1  0
 10 11  2  0
  5 12  1  0
 12 13  2  0
 13 14  1  0
 14 15  2  0
 15 16  1  0
 16 17  2  0
 17 18  1  0
 17 19  1  0
 19 20  2  0
  2 21  1  0
 21 22  1  0
 22 23  1  0
 23 24  1  0
 24 25  1  0
 25 26  1  0
 13  3  1  0
 20 14  1  0
 26 21  1  0
 11  6  1  0
  4 27  1  0
  7 28  1  0
  8 29  1  0
  9 30  1  0
 10 31  1  0
 11 32  1  0
 15 33  1  0
 16 34  1  0
 19 35  1  0
 20 36  1  0
 22 37  1  0
 22 38  1  0
 23 39  1  0
 23 40  1  0
 24 41  1  0
 24 42  1  0
 25 43  1  0
 25 44  1  0
 26 45  1  0
 26 46  1  0
M  END
$$$$
