
     RDKit          3D

 45 47  0  0  0  0  0  0  0  0999 V2000
    8.0077    3.9904    1.9175 N   0  0  0  0  0  0  0  0  0  0  0  0
    7.3491    3.1113    1.5423 C   0  0  0  0  0  0  0  0  0  0  0  0
    6.5330    2.0249    1.0857 C   0  0  0  0  0  0  0  0  0  0  0  0
    7.1239    0.8647    0.5812 C   0  0  0  0  0  0  0  0  0  0  0  0
    6.3207   -0.1892    0.1372 C   0  0  0  0  0  0  0  0  0  0  0  0
    4.9265   -0.1011    0.1965 C   0  0  0  0  0  0  0  0  0  0  0  0
    4.2698   -1.2031   -0.2733 O   0  0  0  0  0  0  0  0  0  0  0  0
    2.8676   -1.2915   -0.0662 C   0  0  0  0  0  0  0  0  0  0  0  0
    1.9845   -0.5256   -1.0687 C   0  0  0  0  0  0  0  0  0  0  0  0
    2.4735    0.1263   -1.9930 O   0  0  0  0  0  0  0  0  0  0  0  0
    0.6039   -0.5744   -0.8614 N   0  0  0  0  0  0  0  0  0  0  0  0
   -0.0532   -1.6085   -0.0466 C   0  0  0  0  0  0  0  0  0  0  0  0
   -1.4470   -1.1833    0.4510 C   0  0  0  0  0  0  0  0  0  0  0  0
   -2.2762   -0.7152   -0.6794 N   0  0  0  0  0  0  0  0  0  0  0  0
   -3.6012   -0.4271   -0.2927 C   0  0  0  0  0  0  0  0  0  0  0  0
   -4.5730   -0.2192   -1.2729 C   0  0  0  0  0  0  0  0  0  0  0  0
   -5.8912    0.0515   -0.9041 C   0  0  0  0  0  0  0  0  0  0  0  0
   -6.2309    0.0981    0.4461 C   0  0  0  0  0  0  0  0  0  0  0  0
   -7.6154    0.4015    0.9232 C   0  0  0  0  0  0  0  0  0  0  0  0
   -8.5723    0.1689   -0.0178 F   0  0  0  0  0  0  0  0  0  0  0  0
   -7.7625    1.7036    1.2911 F   0  0  0  0  0  0  0  0  0  0  0  0
   -7.9763   -0.3363    2.0095 F   0  0  0  0  0  0  0  0  0  0  0  0
   -5.2140   -0.1251    1.3580 C   0  0  0  0  0  0  0  0  0  0  0  0
   -3.9296   -0.3896    1.0172 N   0  0  0  0  0  0  0  0  0  0  0  0
   -1.6444    0.4159   -1.3955 C   0  0  0  0  0  0  0  0  0  0  0  0
   -0.2470    0.0167   -1.9028 C   0  0  0  0  0  0  0  0  0  0  0  0
    4.3381    1.0620    0.6941 C   0  0  0  0  0  0  0  0  0  0  0  0
    5.1391    2.1212    1.1391 C   0  0  0  0  0  0  0  0  0  0  0  0
    8.2065    0.7715    0.5245 H   0  0  0  0  0  0  0  0  0  0  0  0
    6.7854   -1.0884   -0.2617 H   0  0  0  0  0  0  0  0  0  0  0  0
    2.6103   -1.0091    0.9614 H   0  0  0  0  0  0  0  0  0  0  0  0
    2.6217   -2.3537   -0.1799 H   0  0  0  0  0  0  0  0  0  0  0  0
   -0.1342   -2.5020   -0.6778 H   0  0  0  0  0  0  0  0  0  0  0  0
    0.5649   -1.8707    0.8155 H   0  0  0  0  0  0  0  0  0  0  0  0
   -1.9112   -2.0485    0.9409 H   0  0  0  0  0  0  0  0  0  0  0  0
   -1.3260   -0.3842    1.1951 H   0  0  0  0  0  0  0  0  0  0  0  0
   -4.3151   -0.2906   -2.3247 H   0  0  0  0  0  0  0  0  0  0  0  0
   -6.6433    0.2130   -1.6736 H   0  0  0  0  0  0  0  0  0  0  0  0
   -5.3995   -0.1018    2.4301 H   0  0  0  0  0  0  0  0  0  0  0  0
   -2.2385    0.7306   -2.2610 H   0  0  0  0  0  0  0  0  0  0  0  0
   -1.5523    1.2771   -0.7200 H   0  0  0  0  0  0  0  0  0  0  0  0
   -0.3393   -0.7335   -2.6984 H   0  0  0  0  0  0  0  0  0  0  0  0
    0.2416    0.8963   -2.3361 H   0  0  0  0  0  0  0  0  0  0  0  0
    3.2617    1.1910    0.7319 H   0  0  0  0  0  0  0  0  0  0  0  0
    4.6638    3.0242    1.5184 H   0  0  0  0  0  0  0  0  0  0  0  0
  1  2  3  0
  2  3  1  0
  3  4  2  0
  4  5  1  0
  5  6  2  0
  6  7  1  0
  7  8  1  0
  8  9  1  0
  9 10  2  0
  9 11  1  0
 11 12  1  0
 12 13  1  0
 13 14  1  0
 14 15  1  0
 15 16  2  0
 16 17  1  0
 17 18  2  0
 18 19  1  0
 19 20  1  0
 19 21  1  0
 19 22  1  0
 18 23  1  0
 23 24  2  0
 14 25  1  0
 25 26  1  0
  6 27  1  0
 27 28  2  0
 28  3  1  0
 26 11  1  0
 24 15  1  0
  4 29  1  0
  5 30  1  0
  8 31  1  0
  8 32  1  0
 12 33  1  0
 12 34  1  0
 13 35  1  0
 13 36  1  0
 16 37  1  0
 17 38  1  0
 23 39  1  0
 25 40  1  0
 25 41  1  0
 26 42  1  0
 26 43  1  0
 27 44  1  0
 28 45  1  0
M  END
$$$$
