
     RDKit          3D

 42 44  0  0  0  0  0  0  0  0999 V2000
    4.2541    0.2827    0.6670 C   0  0  0  0  0  0  0  0  0  0  0  0
    3.3905   -0.9681    0.6082 C   0  0  0  0  0  0  0  0  0  0  0  0
    2.5238   -1.0512   -0.6511 C   0  0  0  0  0  0  0  0  0  0  0  0
    1.4504    0.0363   -0.7813 C   0  0  0  0  0  0  0  0  0  0  0  0
    0.3208    0.0373    0.2852 C   0  0  0  0  0  0  0  0  0  0  0  0
   -0.6344   -1.1261    0.0869 C   0  0  0  0  0  0  0  0  0  0  0  0
   -1.8241   -0.9660   -0.5249 C   0  0  0  0  0  0  0  0  0  0  0  0
   -2.7875   -2.0795   -0.8146 C   0  0  0  0  0  0  0  0  0  0  0  0
   -2.0943   -3.4351   -0.7973 C   0  0  0  0  0  0  0  0  0  0  0  0
   -1.2794   -3.6052    0.4726 C   0  0  0  0  0  0  0  0  0  0  0  0
   -0.3174   -2.4547    0.6862 C   0  0  0  0  0  0  0  0  0  0  0  0
    0.6680   -2.5961    1.4074 O   0  0  0  0  0  0  0  0  0  0  0  0
   -2.2701    0.2802   -0.9481 O   0  0  0  0  0  0  0  0  0  0  0  0
   -1.6425    1.4128   -0.4445 C   0  0  0  0  0  0  0  0  0  0  0  0
   -0.4411    1.3451    0.1574 C   0  0  0  0  0  0  0  0  0  0  0  0
    0.1685    2.5882    0.7104 C   0  0  0  0  0  0  0  0  0  0  0  0
    1.2436    2.5447    1.3045 O   0  0  0  0  0  0  0  0  0  0  0  0
   -0.5325    3.9066    0.4619 C   0  0  0  0  0  0  0  0  0  0  0  0
   -2.0413    3.7306    0.4189 C   0  0  0  0  0  0  0  0  0  0  0  0
   -2.4418    2.6730   -0.6029 C   0  0  0  0  0  0  0  0  0  0  0  0
    4.8739    0.3755   -0.2303 H   0  0  0  0  0  0  0  0  0  0  0  0
    4.9203    0.2380    1.5346 H   0  0  0  0  0  0  0  0  0  0  0  0
    3.6467    1.1865    0.7632 H   0  0  0  0  0  0  0  0  0  0  0  0
    4.0513   -1.8432    0.6272 H   0  0  0  0  0  0  0  0  0  0  0  0
    2.7756   -1.0239    1.5113 H   0  0  0  0  0  0  0  0  0  0  0  0
    2.0619   -2.0418   -0.7099 H   0  0  0  0  0  0  0  0  0  0  0  0
    3.1815   -0.9844   -1.5277 H   0  0  0  0  0  0  0  0  0  0  0  0
    0.9977   -0.0680   -1.7782 H   0  0  0  0  0  0  0  0  0  0  0  0
    1.9549    1.0100   -0.8003 H   0  0  0  0  0  0  0  0  0  0  0  0
    0.7374   -0.0109    1.2977 H   0  0  0  0  0  0  0  0  0  0  0  0
   -3.2449   -1.9306   -1.7998 H   0  0  0  0  0  0  0  0  0  0  0  0
   -3.5954   -2.0555   -0.0737 H   0  0  0  0  0  0  0  0  0  0  0  0
   -2.8364   -4.2370   -0.8794 H   0  0  0  0  0  0  0  0  0  0  0  0
   -1.4338   -3.5187   -1.6704 H   0  0  0  0  0  0  0  0  0  0  0  0
   -0.7012   -4.5333    0.4081 H   0  0  0  0  0  0  0  0  0  0  0  0
   -1.9353   -3.6650    1.3483 H   0  0  0  0  0  0  0  0  0  0  0  0
   -0.2728    4.5977    1.2711 H   0  0  0  0  0  0  0  0  0  0  0  0
   -0.1577    4.3214   -0.4802 H   0  0  0  0  0  0  0  0  0  0  0  0
   -2.5249    4.6840    0.1789 H   0  0  0  0  0  0  0  0  0  0  0  0
   -2.4013    3.4298    1.4116 H   0  0  0  0  0  0  0  0  0  0  0  0
   -3.5101    2.4570   -0.4837 H   0  0  0  0  0  0  0  0  0  0  0  0
   -2.3008    3.0570   -1.6203 H   0  0  0  0  0  0  0  0  0  0  0  0
  1  2  1  0
  2  3  1  0
  3  4  1  0
  4  5  1  0
  5  6  1  0
  6  7  2  0
  7  8  1  0
  8  9  1  0
  9 10  1  0
 10 11  1  0
 11 12  2  0
  7 13  1  0
 13 14  1  0
 14 15  2  0
 15 16  1  0
 16 17  2  0
 16 18  1  0
 18 19  1  0
 19 20  1  0
 15  5  1  0
 11  6  1  0
 20 14  1  0
  1 21  1  0
  1 22  1  0
  1 23  1  0
  2 24  1  0
  2 25  1  0
  3 26  1  0
  3 27  1  0
  4 28  1  0
  4 29  1  0
  5 30  1  0
  8 31  1  0
  8 32  1  0
  9 33  1  0
  9 34  1  0
 10 35  1  0
 10 36  1  0
 18 37  1  0
 18 38  1  0
 19 39  1  0
 19 40  1  0
 20 41  1  0
 20 42  1  0
M  END
$$$$
