
     RDKit          3D

 45 47  0  0  0  0  0  0  0  0999 V2000
    7.0646    0.6197    0.0798 C   0  0  0  0  0  0  0  0  0  0  0  0
    6.2745    0.6258   -1.1075 O   0  0  0  0  0  0  0  0  0  0  0  0
    4.9309    0.5315   -0.8396 C   0  0  0  0  0  0  0  0  0  0  0  0
    4.1468    1.5703   -1.3418 C   0  0  0  0  0  0  0  0  0  0  0  0
    2.7672    1.5678   -1.1371 C   0  0  0  0  0  0  0  0  0  0  0  0
    2.1581    0.5200   -0.4384 C   0  0  0  0  0  0  0  0  0  0  0  0
    0.7581    0.5836   -0.2737 N   0  0  0  0  0  0  0  0  0  0  0  0
   -0.0258   -0.1964    0.5473 C   0  0  0  0  0  0  0  0  0  0  0  0
    0.4069   -0.9784    1.3886 O   0  0  0  0  0  0  0  0  0  0  0  0
   -1.3977   -0.0140    0.3666 N   0  0  0  0  0  0  0  0  0  0  0  0
   -2.0103    0.6480   -0.7899 C   0  0  0  0  0  0  0  0  0  0  0  0
   -3.3686    0.0530   -1.1297 C   0  0  0  0  0  0  0  0  0  0  0  0
   -4.3267    0.1553    0.0586 C   0  0  0  0  0  0  0  0  0  0  0  0
   -3.6256    0.0539    1.4173 C   0  0  0  0  0  0  0  0  0  0  0  0
   -2.3038   -0.6890    1.2968 C   0  0  0  0  0  0  0  0  0  0  0  0
   -5.2959   -0.9061   -0.0464 O   0  0  0  0  0  0  0  0  0  0  0  0
   -6.5136   -0.2639   -0.4215 C   0  0  0  0  0  0  0  0  0  0  0  0
   -6.3889    1.0993    0.1987 C   0  0  0  0  0  0  0  0  0  0  0  0
   -5.0140    1.4217   -0.0094 O   0  0  0  0  0  0  0  0  0  0  0  0
    2.9460   -0.5418    0.0236 C   0  0  0  0  0  0  0  0  0  0  0  0
    4.3341   -0.5536   -0.1780 C   0  0  0  0  0  0  0  0  0  0  0  0
    5.1631   -1.5741    0.2110 O   0  0  0  0  0  0  0  0  0  0  0  0
    4.5592   -2.7372    0.7653 C   0  0  0  0  0  0  0  0  0  0  0  0
    8.0115    1.1196   -0.1497 H   0  0  0  0  0  0  0  0  0  0  0  0
    6.5872    1.1698    0.8984 H   0  0  0  0  0  0  0  0  0  0  0  0
    7.3000   -0.4017    0.3911 H   0  0  0  0  0  0  0  0  0  0  0  0
    4.6165    2.3862   -1.8849 H   0  0  0  0  0  0  0  0  0  0  0  0
    2.1827    2.3971   -1.5247 H   0  0  0  0  0  0  0  0  0  0  0  0
    0.3093    1.4098   -0.6347 H   0  0  0  0  0  0  0  0  0  0  0  0
   -2.1017    1.7125   -0.5446 H   0  0  0  0  0  0  0  0  0  0  0  0
   -1.3523    0.5579   -1.6603 H   0  0  0  0  0  0  0  0  0  0  0  0
   -3.2379   -0.9985   -1.4167 H   0  0  0  0  0  0  0  0  0  0  0  0
   -3.7858    0.5661   -2.0044 H   0  0  0  0  0  0  0  0  0  0  0  0
   -4.2664   -0.4575    2.1453 H   0  0  0  0  0  0  0  0  0  0  0  0
   -3.4324    1.0582    1.8165 H   0  0  0  0  0  0  0  0  0  0  0  0
   -2.4575   -1.7112    0.9307 H   0  0  0  0  0  0  0  0  0  0  0  0
   -1.8329   -0.7622    2.2839 H   0  0  0  0  0  0  0  0  0  0  0  0
   -6.5454   -0.2062   -1.5149 H   0  0  0  0  0  0  0  0  0  0  0  0
   -7.3769   -0.8294   -0.0619 H   0  0  0  0  0  0  0  0  0  0  0  0
   -6.5741    1.0708    1.2779 H   0  0  0  0  0  0  0  0  0  0  0  0
   -7.0367    1.8486   -0.2624 H   0  0  0  0  0  0  0  0  0  0  0  0
    2.4686   -1.3704    0.5318 H   0  0  0  0  0  0  0  0  0  0  0  0
    4.0629   -2.5101    1.7143 H   0  0  0  0  0  0  0  0  0  0  0  0
    3.8678   -3.2021    0.0548 H   0  0  0  0  0  0  0  0  0  0  0  0
    5.3549   -3.4581    0.9740 H   0  0  0  0  0  0  0  0  0  0  0  0
  1  2  1  0
  2  3  1  0
  3  4  2  0
  4  5  1  0
  5  6  2  0
  6  7  1  0
  7  8  1  0
  8  9  2  0
  8 10  1  0
 10 11  1  0
 11 12  1  0
 12 13  1  0
 13 14  1  0
 14 15  1  0
 13 16  1  0
 16 17  1  0
 17 18  1  0
 18 19  1  0
  6 20  1  0
 20 21  2  0
 21 22  1  0
 22 23  1  0
 21  3  1  0
 15 10  1  0
 19 13  1  0
  1 24  1  0
  1 25  1  0
  1 26  1  0
  4 27  1  0
  5 28  1  0
  7 29  1  0
 11 30  1  0
 11 31  1  0
 12 32  1  0
 12 33  1  0
 14 34  1  0
 14 35  1  0
 15 36  1  0
 15 37  1  0
 17 38  1  0
 17 39  1  0
 18 40  1  0
 18 41  1  0
 20 42  1  0
 23 43  1  0
 23 44  1  0
 23 45  1  0
M  END
$$$$
