
     RDKit          3D

 36 37  0  0  0  0  0  0  0  0999 V2000
    3.6532    1.9236    0.2981 C   0  0  0  0  0  0  0  0  0  0  0  0
    3.0569    1.1736   -0.7768 N   0  0  0  0  0  0  0  0  0  0  0  0
    3.6042   -0.0266   -1.1839 C   0  0  0  0  0  0  0  0  0  0  0  0
    4.6664   -0.4687   -0.7538 O   0  0  0  0  0  0  0  0  0  0  0  0
    2.7692   -0.7722   -2.2273 C   0  0  0  0  0  0  0  0  0  0  0  0
    1.7847   -1.6365   -1.6570 O   0  0  0  0  0  0  0  0  0  0  0  0
    0.6887   -1.0201   -1.1525 C   0  0  0  0  0  0  0  0  0  0  0  0
    0.5070    0.1903   -1.1488 O   0  0  0  0  0  0  0  0  0  0  0  0
   -0.2712   -2.0048   -0.5680 C   0  0  0  0  0  0  0  0  0  0  0  0
   -0.0714   -3.3823   -0.7837 C   0  0  0  0  0  0  0  0  0  0  0  0
   -0.9487   -4.3209   -0.2445 C   0  0  0  0  0  0  0  0  0  0  0  0
   -2.0312   -3.8934    0.5135 C   0  0  0  0  0  0  0  0  0  0  0  0
   -2.2435   -2.5290    0.7337 C   0  0  0  0  0  0  0  0  0  0  0  0
   -1.3776   -1.5646    0.1999 C   0  0  0  0  0  0  0  0  0  0  0  0
   -1.5799   -0.1790    0.4132 N   0  0  0  0  0  0  0  0  0  0  0  0
   -2.5618    0.4636    1.1448 C   0  0  0  0  0  0  0  0  0  0  0  0
   -3.4720   -0.0892    1.7538 O   0  0  0  0  0  0  0  0  0  0  0  0
   -2.4143    1.9092    1.1354 C   0  0  0  0  0  0  0  0  0  0  0  0
   -3.1657    2.9034    1.7338 C   0  0  0  0  0  0  0  0  0  0  0  0
   -2.5584    4.1364    1.3937 C   0  0  0  0  0  0  0  0  0  0  0  0
   -1.4756    3.8245    0.6067 C   0  0  0  0  0  0  0  0  0  0  0  0
   -1.3753    2.4802    0.4438 O   0  0  0  0  0  0  0  0  0  0  0  0
    3.2103    2.9223    0.3132 H   0  0  0  0  0  0  0  0  0  0  0  0
    3.4477    1.4108    1.2414 H   0  0  0  0  0  0  0  0  0  0  0  0
    4.7341    1.9967    0.1523 H   0  0  0  0  0  0  0  0  0  0  0  0
    2.0524    1.2765   -0.9222 H   0  0  0  0  0  0  0  0  0  0  0  0
    3.4515   -1.3926   -2.8182 H   0  0  0  0  0  0  0  0  0  0  0  0
    2.3092   -0.0649   -2.9286 H   0  0  0  0  0  0  0  0  0  0  0  0
    0.7685   -3.7431   -1.3743 H   0  0  0  0  0  0  0  0  0  0  0  0
   -0.7868   -5.3827   -0.4141 H   0  0  0  0  0  0  0  0  0  0  0  0
   -2.7196   -4.6201    0.9398 H   0  0  0  0  0  0  0  0  0  0  0  0
   -3.1066   -2.2552    1.3335 H   0  0  0  0  0  0  0  0  0  0  0  0
   -0.9123    0.4500   -0.0393 H   0  0  0  0  0  0  0  0  0  0  0  0
   -4.0435    2.7423    2.3453 H   0  0  0  0  0  0  0  0  0  0  0  0
   -2.8718    5.1291    1.6854 H   0  0  0  0  0  0  0  0  0  0  0  0
   -0.7169    4.4135    0.1100 H   0  0  0  0  0  0  0  0  0  0  0  0
  1  2  1  0
  2  3  1  0
  3  4  2  0
  3  5  1  0
  5  6  1  0
  6  7  1  0
  7  8  2  0
  7  9  1  0
  9 10  2  0
 10 11  1  0
 11 12  2  0
 12 13  1  0
 13 14  2  0
 14 15  1  0
 15 16  1  0
 16 17  2  0
 16 18  1  0
 18 19  2  0
 19 20  1  0
 20 21  2  0
 21 22  1  0
 14  9  1  0
 22 18  1  0
  1 23  1  0
  1 24  1  0
  1 25  1  0
  2 26  1  0
  5 27  1  0
  5 28  1  0
 10 29  1  0
 11 30  1  0
 12 31  1  0
 13 32  1  0
 15 33  1  0
 19 34  1  0
 20 35  1  0
 21 36  1  0
M  END
$$$$
