
     RDKit          3D

 46 49  0  0  0  0  0  0  0  0999 V2000
    5.1255    1.4202   -1.4601 C   0  0  0  0  0  0  0  0  0  0  0  0
    3.8691    1.0154   -1.2333 C   0  0  0  0  0  0  0  0  0  0  0  0
    3.5127   -0.2712   -0.5254 C   0  0  0  0  0  0  0  0  0  0  0  0
    2.5806   -1.1769   -1.3791 C   0  0  0  0  0  0  0  0  0  0  0  0
    1.2828   -1.4421   -0.6981 N   0  0  0  0  0  0  0  0  0  0  0  0
    1.5711   -2.1615    0.5700 C   0  0  0  0  0  0  0  0  0  0  0  0
    2.5642   -1.4052    1.4636 C   0  0  0  0  0  0  0  0  0  0  0  0
    2.8337   -0.0244    0.8463 C   0  0  0  0  0  0  0  0  0  0  0  0
    1.4535    0.6387    0.6676 C   0  0  0  0  0  0  0  0  0  0  0  0
    0.6571   -0.1128   -0.4199 C   0  0  0  0  0  0  0  0  0  0  0  0
   -0.8181   -0.2357   -0.1297 C   0  0  0  0  0  0  0  0  0  0  0  0
   -1.4706   -1.4232   -0.3761 N   0  0  0  0  0  0  0  0  0  0  0  0
   -2.8033   -1.3341   -0.0750 C   0  0  0  0  0  0  0  0  0  0  0  0
   -3.8132   -2.3000   -0.1542 C   0  0  0  0  0  0  0  0  0  0  0  0
   -5.1072   -1.9146    0.2061 C   0  0  0  0  0  0  0  0  0  0  0  0
   -5.3763   -0.6139    0.6236 C   0  0  0  0  0  0  0  0  0  0  0  0
   -4.3525    0.3381    0.6941 C   0  0  0  0  0  0  0  0  0  0  0  0
   -3.0353   -0.0273    0.3436 C   0  0  0  0  0  0  0  0  0  0  0  0
   -1.7837    0.6774    0.2852 C   0  0  0  0  0  0  0  0  0  0  0  0
   -1.6020    2.1380    0.5915 C   0  0  0  0  0  0  0  0  0  0  0  0
   -1.6119    3.0047   -0.6680 C   0  0  0  0  0  0  0  0  0  0  0  0
   -2.9176    3.0846   -1.2335 O   0  0  0  0  0  0  0  0  0  0  0  0
    5.3231    2.3540   -1.9785 H   0  0  0  0  0  0  0  0  0  0  0  0
    5.9835    0.8386   -1.1368 H   0  0  0  0  0  0  0  0  0  0  0  0
    3.0527    1.6431   -1.5854 H   0  0  0  0  0  0  0  0  0  0  0  0
    4.4394   -0.8342   -0.3431 H   0  0  0  0  0  0  0  0  0  0  0  0
    3.0807   -2.1345   -1.5764 H   0  0  0  0  0  0  0  0  0  0  0  0
    2.3906   -0.7453   -2.3705 H   0  0  0  0  0  0  0  0  0  0  0  0
    0.6453   -2.3490    1.1262 H   0  0  0  0  0  0  0  0  0  0  0  0
    1.9697   -3.1573    0.3380 H   0  0  0  0  0  0  0  0  0  0  0  0
    3.4994   -1.9702    1.5562 H   0  0  0  0  0  0  0  0  0  0  0  0
    2.1506   -1.2975    2.4734 H   0  0  0  0  0  0  0  0  0  0  0  0
    3.4709    0.5729    1.5078 H   0  0  0  0  0  0  0  0  0  0  0  0
    1.5759    1.6891    0.3781 H   0  0  0  0  0  0  0  0  0  0  0  0
    0.9292    0.6335    1.6318 H   0  0  0  0  0  0  0  0  0  0  0  0
    0.7016    0.4784   -1.3469 H   0  0  0  0  0  0  0  0  0  0  0  0
   -0.9990   -2.2451   -0.7307 H   0  0  0  0  0  0  0  0  0  0  0  0
   -3.6050   -3.3120   -0.4854 H   0  0  0  0  0  0  0  0  0  0  0  0
   -5.9150   -2.6410    0.1560 H   0  0  0  0  0  0  0  0  0  0  0  0
   -6.3903   -0.3320    0.8962 H   0  0  0  0  0  0  0  0  0  0  0  0
   -4.5780    1.3507    1.0165 H   0  0  0  0  0  0  0  0  0  0  0  0
   -0.6612    2.2899    1.1279 H   0  0  0  0  0  0  0  0  0  0  0  0
   -2.4000    2.4691    1.2667 H   0  0  0  0  0  0  0  0  0  0  0  0
   -0.9239    2.6280   -1.4321 H   0  0  0  0  0  0  0  0  0  0  0  0
   -1.3081    4.0251   -0.4142 H   0  0  0  0  0  0  0  0  0  0  0  0
   -3.1907    2.1711   -1.4404 H   0  0  0  0  0  0  0  0  0  0  0  0
  1  2  2  0
  2  3  1  0
  3  4  1  0
  4  5  1  0
  5  6  1  0
  6  7  1  0
  7  8  1  0
  8  9  1  0
  9 10  1  0
 10 11  1  0
 11 12  1  0
 12 13  1  0
 13 14  2  0
 14 15  1  0
 15 16  2  0
 16 17  1  0
 17 18  2  0
 18 19  1  0
 19 20  1  0
 20 21  1  0
 21 22  1  0
  8  3  1  0
 19 11  2  0
 10  5  1  0
 18 13  1  0
  1 23  1  0
  1 24  1  0
  2 25  1  0
  3 26  1  0
  4 27  1  0
  4 28  1  0
  6 29  1  0
  6 30  1  0
  7 31  1  0
  7 32  1  0
  8 33  1  0
  9 34  1  0
  9 35  1  0
 10 36  1  0
 12 37  1  0
 14 38  1  0
 15 39  1  0
 16 40  1  0
 17 41  1  0
 20 42  1  0
 20 43  1  0
 21 44  1  0
 21 45  1  0
 22 46  1  0
M  END
$$$$
