
     RDKit          3D

 44 46  0  0  0  0  0  0  0  0999 V2000
   -4.4572   -2.1201    0.1499 C   0  0  0  0  0  0  0  0  0  0  0  0
   -5.4254   -0.9809   -0.0156 C   0  0  0  0  0  0  0  0  0  0  0  0
   -6.8034   -1.2429   -0.0543 C   0  0  0  0  0  0  0  0  0  0  0  0
   -7.7178   -0.2027   -0.2082 C   0  0  0  0  0  0  0  0  0  0  0  0
   -7.2638    1.1075   -0.3222 C   0  0  0  0  0  0  0  0  0  0  0  0
   -5.8945    1.3824   -0.2840 C   0  0  0  0  0  0  0  0  0  0  0  0
   -4.9691    0.3451   -0.1325 C   0  0  0  0  0  0  0  0  0  0  0  0
   -3.6096    0.5082   -0.0843 O   0  0  0  0  0  0  0  0  0  0  0  0
   -3.1004    1.8303   -0.2357 C   0  0  0  0  0  0  0  0  0  0  0  0
   -1.5688    1.8316   -0.1989 C   0  0  0  0  0  0  0  0  0  0  0  0
   -0.9477    2.8837   -0.3198 O   0  0  0  0  0  0  0  0  0  0  0  0
   -1.0413    0.5738   -0.0223 N   0  0  0  0  0  0  0  0  0  0  0  0
    0.2792    0.2204    0.0466 C   0  0  0  0  0  0  0  0  0  0  0  0
    0.6628   -1.0238    0.2273 N   0  0  0  0  0  0  0  0  0  0  0  0
    2.0370   -1.1466    0.2609 N   0  0  0  0  0  0  0  0  0  0  0  0
    2.6402    0.0147    0.1045 C   0  0  0  0  0  0  0  0  0  0  0  0
    4.1289    0.2188    0.0854 C   0  0  0  0  0  0  0  0  0  0  0  0
    4.7389   -0.3477   -1.2116 C   0  0  0  0  0  0  0  0  0  0  0  0
    6.2002   -0.7804   -1.0639 C   0  0  0  0  0  0  0  0  0  0  0  0
    6.9320    0.0337   -0.0064 C   0  0  0  0  0  0  0  0  0  0  0  0
    6.2900   -0.1173    1.3734 C   0  0  0  0  0  0  0  0  0  0  0  0
    4.7866   -0.4023    1.3233 C   0  0  0  0  0  0  0  0  0  0  0  0
    1.5582    1.3348   -0.0964 S   0  0  0  0  0  0  0  0  0  0  0  0
   -4.9747   -3.0836    0.2080 H   0  0  0  0  0  0  0  0  0  0  0  0
   -3.7723   -2.1628   -0.7037 H   0  0  0  0  0  0  0  0  0  0  0  0
   -3.8809   -1.9967    1.0725 H   0  0  0  0  0  0  0  0  0  0  0  0
   -7.1727   -2.2626    0.0316 H   0  0  0  0  0  0  0  0  0  0  0  0
   -8.7835   -0.4153   -0.2396 H   0  0  0  0  0  0  0  0  0  0  0  0
   -7.9771    1.9189   -0.4429 H   0  0  0  0  0  0  0  0  0  0  0  0
   -5.5891    2.4196   -0.3754 H   0  0  0  0  0  0  0  0  0  0  0  0
   -3.3975    2.2436   -1.2063 H   0  0  0  0  0  0  0  0  0  0  0  0
   -3.4435    2.4639    0.5906 H   0  0  0  0  0  0  0  0  0  0  0  0
   -1.6926   -0.1983    0.0708 H   0  0  0  0  0  0  0  0  0  0  0  0
    4.3420    1.2972    0.1127 H   0  0  0  0  0  0  0  0  0  0  0  0
    4.6656    0.4207   -1.9927 H   0  0  0  0  0  0  0  0  0  0  0  0
    4.1642   -1.2045   -1.5866 H   0  0  0  0  0  0  0  0  0  0  0  0
    6.2371   -1.8421   -0.7895 H   0  0  0  0  0  0  0  0  0  0  0  0
    6.7086   -0.6913   -2.0310 H   0  0  0  0  0  0  0  0  0  0  0  0
    6.9225    1.0916   -0.2984 H   0  0  0  0  0  0  0  0  0  0  0  0
    7.9852   -0.2655    0.0433 H   0  0  0  0  0  0  0  0  0  0  0  0
    6.4755    0.7972    1.9494 H   0  0  0  0  0  0  0  0  0  0  0  0
    6.7813   -0.9284    1.9241 H   0  0  0  0  0  0  0  0  0  0  0  0
    4.3175   -0.0317    2.2435 H   0  0  0  0  0  0  0  0  0  0  0  0
    4.6295   -1.4901    1.3209 H   0  0  0  0  0  0  0  0  0  0  0  0
  1  2  1  0
  2  3  2  0
  3  4  1  0
  4  5  2  0
  5  6  1  0
  6  7  2  0
  7  8  1  0
  8  9  1  0
  9 10  1  0
 10 11  2  0
 10 12  1  0
 12 13  1  0
 13 14  2  0
 14 15  1  0
 15 16  2  0
 16 17  1  0
 17 18  1  0
 18 19  1  0
 19 20  1  0
 20 21  1  0
 21 22  1  0
 16 23  1  0
  7  2  1  0
 23 13  1  0
 22 17  1  0
  1 24  1  0
  1 25  1  0
  1 26  1  0
  3 27  1  0
  4 28  1  0
  5 29  1  0
  6 30  1  0
  9 31  1  0
  9 32  1  0
 12 33  1  0
 17 34  1  0
 18 35  1  0
 18 36  1  0
 19 37  1  0
 19 38  1  0
 20 39  1  0
 20 40  1  0
 21 41  1  0
 21 42  1  0
 22 43  1  0
 22 44  1  0
M  END
$$$$
