
     RDKit          3D

 47 49  0  0  0  0  0  0  0  0999 V2000
    7.1273   -0.5192   -0.9443 C   0  0  0  0  0  0  0  0  0  0  0  0
    6.1523    0.1653    0.0082 C   0  0  0  0  0  0  0  0  0  0  0  0
    6.1566    1.6771   -0.2102 C   0  0  0  0  0  0  0  0  0  0  0  0
    4.8177   -0.3781   -0.1687 N   0  0  0  0  0  0  0  0  0  0  0  0
    3.8506   -0.2954    0.8115 C   0  0  0  0  0  0  0  0  0  0  0  0
    4.0035    0.1427    1.9415 O   0  0  0  0  0  0  0  0  0  0  0  0
    2.4665   -0.8001    0.3594 C   0  0  0  0  0  0  0  0  0  0  0  0
    2.2748   -1.1516   -0.7993 O   0  0  0  0  0  0  0  0  0  0  0  0
    1.5196   -0.7864    1.3625 N   0  0  0  0  0  0  0  0  0  0  0  0
    0.1688   -0.9161    0.9903 N   0  0  0  0  0  0  0  0  0  0  0  0
   -0.6971    0.0763    1.4117 C   0  0  0  0  0  0  0  0  0  0  0  0
   -0.3522    0.9253    2.2341 O   0  0  0  0  0  0  0  0  0  0  0  0
   -2.0976    0.0318    0.7835 C   0  0  0  0  0  0  0  0  0  0  0  0
   -2.9789    1.1578    1.3827 C   0  0  0  0  0  0  0  0  0  0  0  0
   -4.3885    1.1319    0.7706 C   0  0  0  0  0  0  0  0  0  0  0  0
   -5.0404   -0.2288    1.0616 C   0  0  0  0  0  0  0  0  0  0  0  0
   -4.1942   -1.3577    0.4518 C   0  0  0  0  0  0  0  0  0  0  0  0
   -4.0853   -1.1479   -1.0677 C   0  0  0  0  0  0  0  0  0  0  0  0
   -3.4299    0.2114   -1.3679 C   0  0  0  0  0  0  0  0  0  0  0  0
   -4.2822    1.3303   -0.7505 C   0  0  0  0  0  0  0  0  0  0  0  0
   -2.0213    0.2427   -0.7480 C   0  0  0  0  0  0  0  0  0  0  0  0
   -2.7845   -1.3251    1.0684 C   0  0  0  0  0  0  0  0  0  0  0  0
    6.8527   -0.3370   -1.9900 H   0  0  0  0  0  0  0  0  0  0  0  0
    8.1458   -0.1485   -0.7910 H   0  0  0  0  0  0  0  0  0  0  0  0
    7.1316   -1.6031   -0.7848 H   0  0  0  0  0  0  0  0  0  0  0  0
    6.4632   -0.0383    1.0403 H   0  0  0  0  0  0  0  0  0  0  0  0
    5.8398    1.9293   -1.2285 H   0  0  0  0  0  0  0  0  0  0  0  0
    5.4731    2.1796    0.4805 H   0  0  0  0  0  0  0  0  0  0  0  0
    7.1582    2.0895   -0.0510 H   0  0  0  0  0  0  0  0  0  0  0  0
    4.4933   -0.6422   -1.0959 H   0  0  0  0  0  0  0  0  0  0  0  0
    1.7122   -0.2129    2.1899 H   0  0  0  0  0  0  0  0  0  0  0  0
    0.0038   -1.4231    0.1226 H   0  0  0  0  0  0  0  0  0  0  0  0
   -3.0490    1.0456    2.4728 H   0  0  0  0  0  0  0  0  0  0  0  0
   -2.5174    2.1375    1.2030 H   0  0  0  0  0  0  0  0  0  0  0  0
   -4.9953    1.9354    1.2030 H   0  0  0  0  0  0  0  0  0  0  0  0
   -5.1370   -0.3774    2.1433 H   0  0  0  0  0  0  0  0  0  0  0  0
   -6.0551   -0.2554    0.6451 H   0  0  0  0  0  0  0  0  0  0  0  0
   -4.6671   -2.3249    0.6596 H   0  0  0  0  0  0  0  0  0  0  0  0
   -5.0823   -1.1912   -1.5232 H   0  0  0  0  0  0  0  0  0  0  0  0
   -3.4955   -1.9557   -1.5170 H   0  0  0  0  0  0  0  0  0  0  0  0
   -3.3595    0.3545   -2.4522 H   0  0  0  0  0  0  0  0  0  0  0  0
   -3.8366    2.3081   -0.9694 H   0  0  0  0  0  0  0  0  0  0  0  0
   -5.2835    1.3289   -1.1988 H   0  0  0  0  0  0  0  0  0  0  0  0
   -1.4071   -0.5326   -1.2223 H   0  0  0  0  0  0  0  0  0  0  0  0
   -1.5326    1.1998   -0.9738 H   0  0  0  0  0  0  0  0  0  0  0  0
   -2.8465   -1.4965    2.1506 H   0  0  0  0  0  0  0  0  0  0  0  0
   -2.1948   -2.1558    0.6624 H   0  0  0  0  0  0  0  0  0  0  0  0
  1  2  1  0
  2  3  1  0
  2  4  1  0
  4  5  1  0
  5  6  2  0
  5  7  1  0
  7  8  2  0
  7  9  1  0
  9 10  1  0
 10 11  1  0
 11 12  2  0
 11 13  1  0
 13 14  1  0
 14 15  1  0
 15 16  1  0
 16 17  1  0
 17 18  1  0
 18 19  1  0
 19 20  1  0
 19 21  1  0
 17 22  1  0
 21 13  1  0
 22 13  1  0
 20 15  1  0
  1 23  1  0
  1 24  1  0
  1 25  1  0
  2 26  1  0
  3 27  1  0
  3 28  1  0
  3 29  1  0
  4 30  1  0
  9 31  1  0
 10 32  1  0
 14 33  1  0
 14 34  1  0
 15 35  1  0
 16 36  1  0
 16 37  1  0
 17 38  1  0
 18 39  1  0
 18 40  1  0
 19 41  1  0
 20 42  1  0
 20 43  1  0
 21 44  1  0
 21 45  1  0
 22 46  1  0
 22 47  1  0
M  END
$$$$
