
     RDKit          3D

 62 65  0  0  0  0  0  0  0  0999 V2000
    3.4318   -0.4786   -0.6851 O   0  0  0  0  0  0  0  0  0  0  0  0
    3.4970   -0.4611    0.5383 C   0  0  0  0  0  0  0  0  0  0  0  0
    4.7987   -0.1799    1.2581 C   0  0  0  0  0  0  0  0  0  0  0  0
    5.9267    0.0728    0.2698 C   0  0  0  0  0  0  0  0  0  0  0  0
    7.4292    0.4618    1.1311 S   0  0  0  0  0  6  0  0  0  0  0  0
    7.8879   -0.7192    1.8352 O   0  0  0  0  0  0  0  0  0  0  0  0
    7.1880    1.6962    1.8589 O   0  0  0  0  0  0  0  0  0  0  0  0
    8.6111    0.8238   -0.1247 C   0  0  0  0  0  0  0  0  0  0  0  0
    9.2704    2.0569   -0.1409 C   0  0  0  0  0  0  0  0  0  0  0  0
   10.2026    2.3249   -1.1458 C   0  0  0  0  0  0  0  0  0  0  0  0
   10.4736    1.3663   -2.1246 C   0  0  0  0  0  0  0  0  0  0  0  0
    9.8148    0.1363   -2.0980 C   0  0  0  0  0  0  0  0  0  0  0  0
    8.8864   -0.1301   -1.0950 C   0  0  0  0  0  0  0  0  0  0  0  0
    8.2642   -1.3154   -1.0960 F   0  0  0  0  0  0  0  0  0  0  0  0
    2.4584   -0.6716    1.4285 N   0  0  0  0  0  0  0  0  0  0  0  0
    1.1085   -0.9409    1.1248 C   0  0  0  0  0  0  0  0  0  0  0  0
    0.2254   -1.0788    2.1967 C   0  0  0  0  0  0  0  0  0  0  0  0
   -1.1348   -1.3304    1.9731 C   0  0  0  0  0  0  0  0  0  0  0  0
   -1.6630   -1.4520    0.6797 C   0  0  0  0  0  0  0  0  0  0  0  0
   -3.0335   -1.7037    0.5080 N   0  0  0  0  0  0  0  0  0  0  0  0
   -3.4884   -2.1873   -0.8115 C   0  0  0  0  0  0  0  0  0  0  0  0
   -4.9833   -2.5866   -0.7727 C   0  0  0  0  0  0  0  0  0  0  0  0
   -5.9027   -1.5419   -0.2646 N   0  0  0  0  0  0  0  0  0  0  0  0
   -6.0287   -0.4346   -1.2273 C   0  0  0  0  0  0  0  0  0  0  0  0
   -7.1004    0.5704   -0.8580 C   0  0  0  0  0  0  0  0  0  0  0  0
   -8.4211    0.1556   -0.6303 C   0  0  0  0  0  0  0  0  0  0  0  0
   -9.4118    1.0845   -0.3087 C   0  0  0  0  0  0  0  0  0  0  0  0
   -9.0948    2.4382   -0.2156 C   0  0  0  0  0  0  0  0  0  0  0  0
   -7.7877    2.8641   -0.4438 C   0  0  0  0  0  0  0  0  0  0  0  0
   -6.7950    1.9363   -0.7656 C   0  0  0  0  0  0  0  0  0  0  0  0
   -5.3962   -1.0964    1.0547 C   0  0  0  0  0  0  0  0  0  0  0  0
   -3.9116   -0.6601    1.0905 C   0  0  0  0  0  0  0  0  0  0  0  0
   -0.7551   -1.3395   -0.3809 C   0  0  0  0  0  0  0  0  0  0  0  0
    0.6081   -1.0789   -0.1658 C   0  0  0  0  0  0  0  0  0  0  0  0
    5.0392   -1.0380    1.8964 H   0  0  0  0  0  0  0  0  0  0  0  0
    4.6532    0.6934    1.9046 H   0  0  0  0  0  0  0  0  0  0  0  0
    5.6939    0.9216   -0.3825 H   0  0  0  0  0  0  0  0  0  0  0  0
    6.0963   -0.8129   -0.3483 H   0  0  0  0  0  0  0  0  0  0  0  0
    9.0714    2.8088    0.6206 H   0  0  0  0  0  0  0  0  0  0  0  0
   10.7210    3.2818   -1.1644 H   0  0  0  0  0  0  0  0  0  0  0  0
   11.2015    1.5770   -2.9055 H   0  0  0  0  0  0  0  0  0  0  0  0
   10.0207   -0.6169   -2.8528 H   0  0  0  0  0  0  0  0  0  0  0  0
    2.6821   -0.6104    2.4140 H   0  0  0  0  0  0  0  0  0  0  0  0
    0.5722   -0.9999    3.2230 H   0  0  0  0  0  0  0  0  0  0  0  0
   -1.7823   -1.4640    2.8361 H   0  0  0  0  0  0  0  0  0  0  0  0
   -2.9113   -3.0734   -1.1039 H   0  0  0  0  0  0  0  0  0  0  0  0
   -3.3399   -1.4160   -1.5769 H   0  0  0  0  0  0  0  0  0  0  0  0
   -5.3010   -2.9117   -1.7710 H   0  0  0  0  0  0  0  0  0  0  0  0
   -5.0910   -3.4695   -0.1286 H   0  0  0  0  0  0  0  0  0  0  0  0
   -6.3132   -0.8374   -2.2089 H   0  0  0  0  0  0  0  0  0  0  0  0
   -5.0738    0.0824   -1.3784 H   0  0  0  0  0  0  0  0  0  0  0  0
   -8.6756   -0.9006   -0.6953 H   0  0  0  0  0  0  0  0  0  0  0  0
  -10.4302    0.7504   -0.1299 H   0  0  0  0  0  0  0  0  0  0  0  0
   -9.8674    3.1603    0.0344 H   0  0  0  0  0  0  0  0  0  0  0  0
   -7.5416    3.9201   -0.3727 H   0  0  0  0  0  0  0  0  0  0  0  0
   -5.7816    2.2879   -0.9439 H   0  0  0  0  0  0  0  0  0  0  0  0
   -6.0207   -0.2930    1.4612 H   0  0  0  0  0  0  0  0  0  0  0  0
   -5.5223   -1.9348    1.7529 H   0  0  0  0  0  0  0  0  0  0  0  0
   -3.7823    0.2805    0.5408 H   0  0  0  0  0  0  0  0  0  0  0  0
   -3.6577   -0.4629    2.1378 H   0  0  0  0  0  0  0  0  0  0  0  0
   -1.0811   -1.4333   -1.4126 H   0  0  0  0  0  0  0  0  0  0  0  0
    1.2467   -0.9939   -1.0386 H   0  0  0  0  0  0  0  0  0  0  0  0
  1  2  2  0
  2  3  1  0
  3  4  1  0
  4  5  1  0
  5  6  2  0
  5  7  2  0
  5  8  1  0
  8  9  2  0
  9 10  1  0
 10 11  2  0
 11 12  1  0
 12 13  2  0
 13 14  1  0
  2 15  1  0
 15 16  1  0
 16 17  2  0
 17 18  1  0
 18 19  2  0
 19 20  1  0
 20 21  1  0
 21 22  1  0
 22 23  1  0
 23 24  1  0
 24 25  1  0
 25 26  2  0
 26 27  1  0
 27 28  2  0
 28 29  1  0
 29 30  2  0
 23 31  1  0
 31 32  1  0
 19 33  1  0
 33 34  2  0
 13  8  1  0
 34 16  1  0
 32 20  1  0
 30 25  1  0
  3 35  1  0
  3 36  1  0
  4 37  1  0
  4 38  1  0
  9 39  1  0
 10 40  1  0
 11 41  1  0
 12 42  1  0
 15 43  1  0
 17 44  1  0
 18 45  1  0
 21 46  1  0
 21 47  1  0
 22 48  1  0
 22 49  1  0
 24 50  1  0
 24 51  1  0
 26 52  1  0
 27 53  1  0
 28 54  1  0
 29 55  1  0
 30 56  1  0
 31 57  1  0
 31 58  1  0
 32 59  1  0
 32 60  1  0
 33 61  1  0
 34 62  1  0
M  END
$$$$
