
     RDKit          3D

 36 38  0  0  0  0  0  0  0  0999 V2000
   -6.7730    0.9432    1.2834 C   0  0  0  0  0  0  0  0  0  0  0  0
   -5.6148    0.4625    1.9541 O   0  0  0  0  0  0  0  0  0  0  0  0
   -4.4867    0.2971    1.2004 C   0  0  0  0  0  0  0  0  0  0  0  0
   -3.3855   -0.1999    1.8982 C   0  0  0  0  0  0  0  0  0  0  0  0
   -2.1660   -0.4158    1.2486 C   0  0  0  0  0  0  0  0  0  0  0  0
   -2.0246   -0.1411   -0.1179 C   0  0  0  0  0  0  0  0  0  0  0  0
   -0.7346   -0.3535   -0.7868 C   0  0  0  0  0  0  0  0  0  0  0  0
   -0.5513   -0.7019   -2.0676 C   0  0  0  0  0  0  0  0  0  0  0  0
    0.9157   -0.7032   -2.2718 C   0  0  0  0  0  0  0  0  0  0  0  0
    1.4285   -0.9643   -3.3466 O   0  0  0  0  0  0  0  0  0  0  0  0
    1.4844   -0.3557   -1.0457 N   0  0  0  0  0  0  0  0  0  0  0  0
    2.8413   -0.2778   -0.6695 C   0  0  0  0  0  0  0  0  0  0  0  0
    3.8662   -0.4214   -1.6166 C   0  0  0  0  0  0  0  0  0  0  0  0
    5.2146   -0.3397   -1.2445 C   0  0  0  0  0  0  0  0  0  0  0  0
    5.5496   -0.1134    0.0935 C   0  0  0  0  0  0  0  0  0  0  0  0
    6.9604   -0.0265    0.4903 N   0  0  0  0  0  4  0  0  0  0  0  0
    7.8182   -0.1649   -0.3930 O   0  0  0  0  0  0  0  0  0  0  0  0
    7.2098    0.1831    1.6862 O   0  0  0  0  0  1  0  0  0  0  0  0
    4.5458    0.0291    1.0563 C   0  0  0  0  0  0  0  0  0  0  0  0
    3.2019   -0.0540    0.6708 C   0  0  0  0  0  0  0  0  0  0  0  0
    0.4604   -0.1755   -0.1004 N   0  0  0  0  0  0  0  0  0  0  0  0
   -3.1352    0.3614   -0.8107 C   0  0  0  0  0  0  0  0  0  0  0  0
   -4.3570    0.5783   -0.1582 C   0  0  0  0  0  0  0  0  0  0  0  0
   -7.5821    1.0068    2.0173 H   0  0  0  0  0  0  0  0  0  0  0  0
   -7.0902    0.2505    0.4969 H   0  0  0  0  0  0  0  0  0  0  0  0
   -6.6074    1.9486    0.8824 H   0  0  0  0  0  0  0  0  0  0  0  0
   -3.4776   -0.4261    2.9580 H   0  0  0  0  0  0  0  0  0  0  0  0
   -1.3333   -0.8179    1.8221 H   0  0  0  0  0  0  0  0  0  0  0  0
   -1.2615   -0.9134   -2.8440 H   0  0  0  0  0  0  0  0  0  0  0  0
    3.6418   -0.5964   -2.6665 H   0  0  0  0  0  0  0  0  0  0  0  0
    5.9798   -0.4558   -2.0099 H   0  0  0  0  0  0  0  0  0  0  0  0
    4.7863    0.1977    2.1042 H   0  0  0  0  0  0  0  0  0  0  0  0
    2.4435    0.0397    1.4443 H   0  0  0  0  0  0  0  0  0  0  0  0
    0.4821    0.7462    0.3399 H   0  0  0  0  0  0  0  0  0  0  0  0
   -3.0666    0.6040   -1.8690 H   0  0  0  0  0  0  0  0  0  0  0  0
   -5.1833    0.9700   -0.7422 H   0  0  0  0  0  0  0  0  0  0  0  0
  1  2  1  0
  2  3  1  0
  3  4  2  0
  4  5  1  0
  5  6  2  0
  6  7  1  0
  7  8  2  0
  8  9  1  0
  9 10  2  0
  9 11  1  0
 11 12  1  0
 12 13  2  0
 13 14  1  0
 14 15  2  0
 15 16  1  0
 16 17  2  0
 16 18  1  0
 15 19  1  0
 19 20  2  0
 11 21  1  0
  6 22  1  0
 22 23  2  0
 23  3  1  0
 21  7  1  0
 20 12  1  0
  1 24  1  0
  1 25  1  0
  1 26  1  0
  4 27  1  0
  5 28  1  0
  8 29  1  0
 13 30  1  0
 14 31  1  0
 19 32  1  0
 20 33  1  0
 21 34  1  0
 22 35  1  0
 23 36  1  0
M  CHG  2  16   1  18  -1
M  END
$$$$
