
     RDKit          3D

 36 38  0  0  0  0  0  0  0  0999 V2000
    5.8467   -0.9307    0.2359 C   0  0  0  0  0  0  0  0  0  0  0  0
    4.4370   -0.4219    0.3208 C   0  0  0  0  0  0  0  0  0  0  0  0
    3.9357    0.4391   -0.6655 C   0  0  0  0  0  0  0  0  0  0  0  0
    2.6369    0.9401   -0.5721 C   0  0  0  0  0  0  0  0  0  0  0  0
    1.8390    0.5823    0.5174 C   0  0  0  0  0  0  0  0  0  0  0  0
    0.1903    1.2250    0.6203 S   0  0  0  0  0  6  0  0  0  0  0  0
    0.2654    2.6542    0.4125 O   0  0  0  0  0  0  0  0  0  0  0  0
   -0.4559    0.6721    1.7911 O   0  0  0  0  0  0  0  0  0  0  0  0
   -0.5692    0.5355   -0.7454 N   0  0  0  0  0  0  0  0  0  0  0  0
   -0.7836   -0.9437   -0.6459 C   0  0  0  0  0  0  0  0  0  0  0  0
   -2.1180   -1.4319   -0.0806 C   0  0  0  0  0  0  0  0  0  0  0  0
   -2.3119   -2.6299    0.1318 O   0  0  0  0  0  0  0  0  0  0  0  0
   -3.1157   -0.5028    0.0678 N   0  0  0  0  0  0  0  0  0  0  0  0
   -4.5041   -0.8314    0.2378 C   0  0  0  0  0  0  0  0  0  0  0  0
   -5.1780    0.5250    0.1662 C   0  0  0  0  0  0  0  0  0  0  0  0
   -4.2451    1.3564   -0.5601 O   0  0  0  0  0  0  0  0  0  0  0  0
   -2.9506    0.9109   -0.1331 C   0  0  0  0  0  0  0  0  0  0  0  0
   -1.8440    1.2247   -1.1426 C   0  0  0  0  0  0  0  0  0  0  0  0
    2.3308   -0.2559    1.5198 C   0  0  0  0  0  0  0  0  0  0  0  0
    3.6309   -0.7537    1.4191 C   0  0  0  0  0  0  0  0  0  0  0  0
    6.1587   -1.0437   -0.8077 H   0  0  0  0  0  0  0  0  0  0  0  0
    5.9359   -1.9141    0.7094 H   0  0  0  0  0  0  0  0  0  0  0  0
    6.5265   -0.2338    0.7355 H   0  0  0  0  0  0  0  0  0  0  0  0
    4.5577    0.7261   -1.5112 H   0  0  0  0  0  0  0  0  0  0  0  0
    2.2554    1.6081   -1.3412 H   0  0  0  0  0  0  0  0  0  0  0  0
    0.0181   -1.4156   -0.0697 H   0  0  0  0  0  0  0  0  0  0  0  0
   -0.7079   -1.3412   -1.6660 H   0  0  0  0  0  0  0  0  0  0  0  0
   -4.6788   -1.3571    1.1804 H   0  0  0  0  0  0  0  0  0  0  0  0
   -4.8085   -1.4765   -0.5932 H   0  0  0  0  0  0  0  0  0  0  0  0
   -6.1409    0.4997   -0.3505 H   0  0  0  0  0  0  0  0  0  0  0  0
   -5.3170    0.9590    1.1628 H   0  0  0  0  0  0  0  0  0  0  0  0
   -2.7442    1.3722    0.8393 H   0  0  0  0  0  0  0  0  0  0  0  0
   -2.1288    0.8737   -2.1431 H   0  0  0  0  0  0  0  0  0  0  0  0
   -1.6953    2.3045   -1.2453 H   0  0  0  0  0  0  0  0  0  0  0  0
    1.7180   -0.5230    2.3778 H   0  0  0  0  0  0  0  0  0  0  0  0
    4.0147   -1.4017    2.2048 H   0  0  0  0  0  0  0  0  0  0  0  0
  1  2  1  0
  2  3  2  0
  3  4  1  0
  4  5  2  0
  5  6  1  0
  6  7  2  0
  6  8  2  0
  6  9  1  0
  9 10  1  0
 10 11  1  0
 11 12  2  0
 11 13  1  0
 13 14  1  0
 14 15  1  0
 15 16  1  0
 16 17  1  0
 17 18  1  0
  5 19  1  0
 19 20  2  0
 20  2  1  0
 18  9  1  0
 17 13  1  0
  1 21  1  0
  1 22  1  0
  1 23  1  0
  3 24  1  0
  4 25  1  0
 10 26  1  0
 10 27  1  0
 14 28  1  0
 14 29  1  0
 15 30  1  0
 15 31  1  0
 17 32  1  0
 18 33  1  0
 18 34  1  0
 19 35  1  0
 20 36  1  0
M  END
$$$$
