
     RDKit          3D

 38 41  0  0  0  0  0  0  0  0999 V2000
   -5.1936    2.4960    0.3125 C   0  0  0  0  0  0  0  0  0  0  0  0
   -4.0436    1.5340    0.2218 C   0  0  0  0  0  0  0  0  0  0  0  0
   -4.2993    0.1684    0.1580 C   0  0  0  0  0  0  0  0  0  0  0  0
   -3.2366   -0.7441    0.0726 C   0  0  0  0  0  0  0  0  0  0  0  0
   -3.5228   -2.2180    0.0025 C   0  0  0  0  0  0  0  0  0  0  0  0
   -1.9214   -0.2066    0.0552 C   0  0  0  0  0  0  0  0  0  0  0  0
   -1.8042    1.1739    0.1233 C   0  0  0  0  0  0  0  0  0  0  0  0
   -2.8081    2.0689    0.2071 N   0  0  0  0  0  0  0  0  0  0  0  0
   -0.1951    1.7117    0.0925 S   0  0  0  0  0  0  0  0  0  0  0  0
    0.4268    0.1089   -0.0127 C   0  0  0  0  0  0  0  0  0  0  0  0
    1.7690   -0.3297   -0.0869 C   0  0  0  0  0  0  0  0  0  0  0  0
    2.8692    0.6406   -0.0812 C   0  0  0  0  0  0  0  0  0  0  0  0
    3.4105    1.1160   -1.2856 C   0  0  0  0  0  0  0  0  0  0  0  0
    4.4610    2.0359   -1.2799 C   0  0  0  0  0  0  0  0  0  0  0  0
    4.9826    2.4918   -0.0712 C   0  0  0  0  0  0  0  0  0  0  0  0
    4.4551    2.0298    1.1325 C   0  0  0  0  0  0  0  0  0  0  0  0
    3.4048    1.1096    1.1284 C   0  0  0  0  0  0  0  0  0  0  0  0
    1.9732   -1.7199   -0.1680 C   0  0  0  0  0  0  0  0  0  0  0  0
    3.2992   -2.2604   -0.2453 C   0  0  0  0  0  0  0  0  0  0  0  0
    4.3670   -2.7158   -0.2799 N   0  0  0  0  0  0  0  0  0  0  0  0
    0.8746   -2.5774   -0.1611 C   0  0  0  0  0  0  0  0  0  0  0  0
    1.0086   -3.9617   -0.2809 N   0  0  0  0  0  0  0  0  0  0  0  0
   -0.3952   -2.1592   -0.0975 N   0  0  0  0  0  0  0  0  0  0  0  0
   -0.6164   -0.8178   -0.0219 C   0  0  0  0  0  0  0  0  0  0  0  0
   -5.8399    2.3961   -0.5651 H   0  0  0  0  0  0  0  0  0  0  0  0
   -4.8354    3.5297    0.3558 H   0  0  0  0  0  0  0  0  0  0  0  0
   -5.7793    2.3005    1.2162 H   0  0  0  0  0  0  0  0  0  0  0  0
   -5.3264   -0.1876    0.1741 H   0  0  0  0  0  0  0  0  0  0  0  0
   -3.1257   -2.6345   -0.9285 H   0  0  0  0  0  0  0  0  0  0  0  0
   -4.5981   -2.4228    0.0286 H   0  0  0  0  0  0  0  0  0  0  0  0
   -3.0641   -2.7312    0.8534 H   0  0  0  0  0  0  0  0  0  0  0  0
    3.0165    0.7737   -2.2406 H   0  0  0  0  0  0  0  0  0  0  0  0
    4.8729    2.3957   -2.2194 H   0  0  0  0  0  0  0  0  0  0  0  0
    5.8012    3.2070   -0.0676 H   0  0  0  0  0  0  0  0  0  0  0  0
    4.8621    2.3856    2.0756 H   0  0  0  0  0  0  0  0  0  0  0  0
    3.0062    0.7625    2.0794 H   0  0  0  0  0  0  0  0  0  0  0  0
    0.0833   -4.3791   -0.2102 H   0  0  0  0  0  0  0  0  0  0  0  0
    1.6617   -4.3705    0.3800 H   0  0  0  0  0  0  0  0  0  0  0  0
  1  2  1  0
  2  3  2  0
  3  4  1  0
  4  5  1  0
  4  6  2  0
  6  7  1  0
  7  8  2  0
  7  9  1  0
  9 10  1  0
 10 11  2  0
 11 12  1  0
 12 13  2  0
 13 14  1  0
 14 15  2  0
 15 16  1  0
 16 17  2  0
 11 18  1  0
 18 19  1  0
 19 20  3  0
 18 21  2  0
 21 22  1  0
 21 23  1  0
 23 24  2  0
  8  2  1  0
 24 10  1  0
 24  6  1  0
 17 12  1  0
  1 25  1  0
  1 26  1  0
  1 27  1  0
  3 28  1  0
  5 29  1  0
  5 30  1  0
  5 31  1  0
 13 32  1  0
 14 33  1  0
 15 34  1  0
 16 35  1  0
 17 36  1  0
 22 37  1  0
 22 38  1  0
M  END
$$$$
