
     RDKit          3D

 50 53  0  0  0  0  0  0  0  0999 V2000
    4.5371   -2.5644    2.8622 C   0  0  0  0  0  0  0  0  0  0  0  0
    4.3760   -1.3642    2.0171 C   0  0  0  0  0  0  0  0  0  0  0  0
    5.2527   -0.5765    1.3023 C   0  0  0  0  0  0  0  0  0  0  0  0
    4.4743    0.4439    0.7049 C   0  0  0  0  0  0  0  0  0  0  0  0
    3.1682    0.2131    1.0845 C   0  0  0  0  0  0  0  0  0  0  0  0
    1.8859    0.9139    0.8001 C   0  0  0  0  0  0  0  0  0  0  0  0
    0.8844    0.0226    0.1970 N   0  0  0  0  0  0  0  0  0  0  0  0
    1.2927   -0.8174   -0.9368 C   0  0  0  0  0  0  0  0  0  0  0  0
    1.7461   -0.0205   -2.1309 C   0  0  0  0  0  0  0  0  0  0  0  0
    0.9292    0.9383   -2.7399 C   0  0  0  0  0  0  0  0  0  0  0  0
    1.3945    1.6385   -3.8490 C   0  0  0  0  0  0  0  0  0  0  0  0
    2.6659    1.3541   -4.3188 C   0  0  0  0  0  0  0  0  0  0  0  0
    3.4814    0.4335   -3.7629 N   0  0  0  0  0  0  0  0  0  0  0  0
    3.0036   -0.2340   -2.6887 C   0  0  0  0  0  0  0  0  0  0  0  0
   -0.4328    0.1560    0.6391 C   0  0  0  0  0  0  0  0  0  0  0  0
   -0.7572    1.0364    1.4419 O   0  0  0  0  0  0  0  0  0  0  0  0
   -1.4787   -0.8132    0.0595 C   0  0  0  0  0  0  0  0  0  0  0  0
   -2.7773   -0.6891    0.7126 N   0  0  0  0  0  0  0  0  0  0  0  0
   -3.0316   -1.4975    1.8125 C   0  0  0  0  0  0  0  0  0  0  0  0
   -2.2622   -2.3749    2.2065 O   0  0  0  0  0  0  0  0  0  0  0  0
   -4.3157   -1.1682    2.5621 C   0  0  0  0  0  0  0  0  0  0  0  0
   -5.4113   -0.6820    1.8080 O   0  0  0  0  0  0  0  0  0  0  0  0
   -5.0290    0.2317    0.8625 C   0  0  0  0  0  0  0  0  0  0  0  0
   -6.0284    1.1078    0.4339 C   0  0  0  0  0  0  0  0  0  0  0  0
   -5.7486    2.0636   -0.5383 C   0  0  0  0  0  0  0  0  0  0  0  0
   -4.4712    2.1359   -1.0854 C   0  0  0  0  0  0  0  0  0  0  0  0
   -3.4756    1.2438   -0.6718 C   0  0  0  0  0  0  0  0  0  0  0  0
   -3.7431    0.2719    0.3019 C   0  0  0  0  0  0  0  0  0  0  0  0
    3.1062   -0.8896    1.8869 O   0  0  0  0  0  0  0  0  0  0  0  0
    4.1562   -2.3787    3.8710 H   0  0  0  0  0  0  0  0  0  0  0  0
    5.5895   -2.8522    2.9429 H   0  0  0  0  0  0  0  0  0  0  0  0
    3.9877   -3.4077    2.4350 H   0  0  0  0  0  0  0  0  0  0  0  0
    6.3224   -0.7169    1.2299 H   0  0  0  0  0  0  0  0  0  0  0  0
    4.8200    1.2530    0.0757 H   0  0  0  0  0  0  0  0  0  0  0  0
    1.5148    1.3451    1.7367 H   0  0  0  0  0  0  0  0  0  0  0  0
    2.0483    1.7480    0.1071 H   0  0  0  0  0  0  0  0  0  0  0  0
    0.4795   -1.4676   -1.2680 H   0  0  0  0  0  0  0  0  0  0  0  0
    2.0815   -1.4948   -0.5921 H   0  0  0  0  0  0  0  0  0  0  0  0
   -0.0647    1.1482   -2.3545 H   0  0  0  0  0  0  0  0  0  0  0  0
    0.7816    2.3888   -4.3360 H   0  0  0  0  0  0  0  0  0  0  0  0
    3.0733    1.8738   -5.1812 H   0  0  0  0  0  0  0  0  0  0  0  0
    3.6880   -0.9716   -2.2766 H   0  0  0  0  0  0  0  0  0  0  0  0
   -1.1082   -1.8342    0.2048 H   0  0  0  0  0  0  0  0  0  0  0  0
   -1.5913   -0.6525   -1.0168 H   0  0  0  0  0  0  0  0  0  0  0  0
   -4.0734   -0.4440    3.3495 H   0  0  0  0  0  0  0  0  0  0  0  0
   -4.6530   -2.0874    3.0537 H   0  0  0  0  0  0  0  0  0  0  0  0
   -7.0237    1.0463    0.8654 H   0  0  0  0  0  0  0  0  0  0  0  0
   -6.5235    2.7520   -0.8639 H   0  0  0  0  0  0  0  0  0  0  0  0
   -4.2466    2.8888   -1.8370 H   0  0  0  0  0  0  0  0  0  0  0  0
   -2.4937    1.3502   -1.1185 H   0  0  0  0  0  0  0  0  0  0  0  0
  1  2  1  0
  2  3  2  0
  3  4  1  0
  4  5  2  0
  5  6  1  0
  6  7  1  0
  7  8  1  0
  8  9  1  0
  9 10  2  0
 10 11  1  0
 11 12  2  0
 12 13  1  0
 13 14  2  0
  7 15  1  0
 15 16  2  0
 15 17  1  0
 17 18  1  0
 18 19  1  0
 19 20  2  0
 19 21  1  0
 21 22  1  0
 22 23  1  0
 23 24  2  0
 24 25  1  0
 25 26  2  0
 26 27  1  0
 27 28  2  0
  5 29  1  0
 29  2  1  0
 14  9  1  0
 28 18  1  0
 28 23  1  0
  1 30  1  0
  1 31  1  0
  1 32  1  0
  3 33  1  0
  4 34  1  0
  6 35  1  0
  6 36  1  0
  8 37  1  0
  8 38  1  0
 10 39  1  0
 11 40  1  0
 12 41  1  0
 14 42  1  0
 17 43  1  0
 17 44  1  0
 21 45  1  0
 21 46  1  0
 24 47  1  0
 25 48  1  0
 26 49  1  0
 27 50  1  0
M  END
$$$$
