
     RDKit          3D

 57 60  0  0  0  0  0  0  0  0999 V2000
    3.5706   -3.1418    0.3101 C   0  0  0  0  0  0  0  0  0  0  0  0
    4.4357   -2.0560    0.9340 C   0  0  0  0  0  0  0  0  0  0  0  0
    5.2680   -1.3185   -0.0960 C   0  0  0  0  0  0  0  0  0  0  0  0
    6.6116   -1.7156   -0.2311 C   0  0  0  0  0  0  0  0  0  0  0  0
    7.4403   -1.1224   -1.1742 C   0  0  0  0  0  0  0  0  0  0  0  0
    6.9455   -0.1027   -1.9774 C   0  0  0  0  0  0  0  0  0  0  0  0
    5.6132    0.3373   -1.8602 C   0  0  0  0  0  0  0  0  0  0  0  0
    5.2278    1.5248   -2.7026 C   0  0  0  0  0  0  0  0  0  0  0  0
    4.7471   -0.3138   -0.9530 C   0  0  0  0  0  0  0  0  0  0  0  0
    3.3793    0.0314   -0.8110 N   0  0  0  0  0  0  0  0  0  0  0  0
    2.4983    0.3099   -1.8423 C   0  0  0  0  0  0  0  0  0  0  0  0
    2.7299    0.2387   -3.0426 O   0  0  0  0  0  0  0  0  0  0  0  0
    1.1119    0.6367   -1.3992 C   0  0  0  0  0  0  0  0  0  0  0  0
    0.0400    0.2721   -2.2203 C   0  0  0  0  0  0  0  0  0  0  0  0
   -1.2698    0.5578   -1.8301 C   0  0  0  0  0  0  0  0  0  0  0  0
   -1.5262    1.2186   -0.6190 C   0  0  0  0  0  0  0  0  0  0  0  0
   -2.9508    1.5392   -0.2078 C   0  0  0  0  0  0  0  0  0  0  0  0
   -3.8011    0.3452   -0.0797 N   0  0  0  0  0  0  0  0  0  0  0  0
   -3.3234   -0.5544    0.9961 C   0  0  0  0  0  0  0  0  0  0  0  0
   -4.4174   -1.2884    1.7907 C   0  0  0  0  0  0  0  0  0  0  0  0
   -5.3850   -0.2666    2.3243 C   0  0  0  0  0  0  0  0  0  0  0  0
   -5.9143   -0.3210    3.6143 C   0  0  0  0  0  0  0  0  0  0  0  0
   -6.7982    0.6711    4.0388 C   0  0  0  0  0  0  0  0  0  0  0  0
   -7.1599    1.7073    3.1755 C   0  0  0  0  0  0  0  0  0  0  0  0
   -6.6447    1.7549    1.8792 C   0  0  0  0  0  0  0  0  0  0  0  0
   -5.7515    0.7704    1.4495 C   0  0  0  0  0  0  0  0  0  0  0  0
   -5.2241    0.7144    0.0358 C   0  0  0  0  0  0  0  0  0  0  0  0
   -0.4459    1.6000    0.1897 C   0  0  0  0  0  0  0  0  0  0  0  0
    0.8665    1.3137   -0.1973 C   0  0  0  0  0  0  0  0  0  0  0  0
    3.0060   -3.6665    1.0874 H   0  0  0  0  0  0  0  0  0  0  0  0
    4.1840   -3.8791   -0.2189 H   0  0  0  0  0  0  0  0  0  0  0  0
    2.8527   -2.7293   -0.4057 H   0  0  0  0  0  0  0  0  0  0  0  0
    5.0950   -2.5175    1.6806 H   0  0  0  0  0  0  0  0  0  0  0  0
    3.8212   -1.3504    1.5040 H   0  0  0  0  0  0  0  0  0  0  0  0
    7.0174   -2.5069    0.3959 H   0  0  0  0  0  0  0  0  0  0  0  0
    8.4730   -1.4443   -1.2757 H   0  0  0  0  0  0  0  0  0  0  0  0
    7.6137    0.3716   -2.6941 H   0  0  0  0  0  0  0  0  0  0  0  0
    6.0828    2.2007   -2.8234 H   0  0  0  0  0  0  0  0  0  0  0  0
    4.4441    2.1239   -2.2304 H   0  0  0  0  0  0  0  0  0  0  0  0
    4.9126    1.2037   -3.6993 H   0  0  0  0  0  0  0  0  0  0  0  0
    2.9291   -0.2802    0.0369 H   0  0  0  0  0  0  0  0  0  0  0  0
    0.2218   -0.2393   -3.1636 H   0  0  0  0  0  0  0  0  0  0  0  0
   -2.0971    0.2595   -2.4717 H   0  0  0  0  0  0  0  0  0  0  0  0
   -3.3474    2.2022   -0.9887 H   0  0  0  0  0  0  0  0  0  0  0  0
   -2.9613    2.1224    0.7226 H   0  0  0  0  0  0  0  0  0  0  0  0
   -2.6488   -1.2979    0.5554 H   0  0  0  0  0  0  0  0  0  0  0  0
   -2.7299    0.0127    1.7278 H   0  0  0  0  0  0  0  0  0  0  0  0
   -3.9544   -1.8486    2.6111 H   0  0  0  0  0  0  0  0  0  0  0  0
   -4.9521   -2.0033    1.1541 H   0  0  0  0  0  0  0  0  0  0  0  0
   -5.6408   -1.1249    4.2922 H   0  0  0  0  0  0  0  0  0  0  0  0
   -7.2098    0.6358    5.0442 H   0  0  0  0  0  0  0  0  0  0  0  0
   -7.8542    2.4734    3.5112 H   0  0  0  0  0  0  0  0  0  0  0  0
   -6.9514    2.5544    1.2098 H   0  0  0  0  0  0  0  0  0  0  0  0
   -5.4350    1.6546   -0.4894 H   0  0  0  0  0  0  0  0  0  0  0  0
   -5.8098   -0.0472   -0.4965 H   0  0  0  0  0  0  0  0  0  0  0  0
   -0.6209    2.1297    1.1239 H   0  0  0  0  0  0  0  0  0  0  0  0
    1.6857    1.6484    0.4338 H   0  0  0  0  0  0  0  0  0  0  0  0
  1  2  1  0
  2  3  1  0
  3  4  2  0
  4  5  1  0
  5  6  2  0
  6  7  1  0
  7  8  1  0
  7  9  2  0
  9 10  1  0
 10 11  1  0
 11 12  2  0
 11 13  1  0
 13 14  2  0
 14 15  1  0
 15 16  2  0
 16 17  1  0
 17 18  1  0
 18 19  1  0
 19 20  1  0
 20 21  1  0
 21 22  2  0
 22 23  1  0
 23 24  2  0
 24 25  1  0
 25 26  2  0
 26 27  1  0
 16 28  1  0
 28 29  2  0
  9  3  1  0
 29 13  1  0
 27 18  1  0
 26 21  1  0
  1 30  1  0
  1 31  1  0
  1 32  1  0
  2 33  1  0
  2 34  1  0
  4 35  1  0
  5 36  1  0
  6 37  1  0
  8 38  1  0
  8 39  1  0
  8 40  1  0
 10 41  1  0
 14 42  1  0
 15 43  1  0
 17 44  1  0
 17 45  1  0
 19 46  1  0
 19 47  1  0
 20 48  1  0
 20 49  1  0
 22 50  1  0
 23 51  1  0
 24 52  1  0
 25 53  1  0
 27 54  1  0
 27 55  1  0
 28 56  1  0
 29 57  1  0
M  END
$$$$
