
     RDKit          3D

 47 49  0  0  0  0  0  0  0  0999 V2000
    6.9217    0.9179    0.3715 C   0  0  0  0  0  0  0  0  0  0  0  0
    6.1957   -0.4078    0.1554 C   0  0  0  0  0  0  0  0  0  0  0  0
    6.8653   -1.5278    0.9440 C   0  0  0  0  0  0  0  0  0  0  0  0
    4.8000   -0.2931    0.5375 N   0  0  0  0  0  0  0  0  0  0  0  0
    3.8467    0.2479   -0.2980 C   0  0  0  0  0  0  0  0  0  0  0  0
    4.0090    0.5733   -1.4646 O   0  0  0  0  0  0  0  0  0  0  0  0
    2.4733    0.4366    0.3753 C   0  0  0  0  0  0  0  0  0  0  0  0
    2.3057    0.1380    1.5523 O   0  0  0  0  0  0  0  0  0  0  0  0
    1.5089    0.9472   -0.4665 N   0  0  0  0  0  0  0  0  0  0  0  0
    0.1697    0.8988   -0.0479 N   0  0  0  0  0  0  0  0  0  0  0  0
   -0.7703    0.4932   -0.9772 C   0  0  0  0  0  0  0  0  0  0  0  0
   -0.4835    0.3572   -2.1663 O   0  0  0  0  0  0  0  0  0  0  0  0
   -2.1738    0.2270   -0.4132 C   0  0  0  0  0  0  0  0  0  0  0  0
   -3.1438   -0.1428   -1.5652 C   0  0  0  0  0  0  0  0  0  0  0  0
   -4.5565   -0.4160   -1.0240 C   0  0  0  0  0  0  0  0  0  0  0  0
   -4.4957   -1.5807   -0.0231 C   0  0  0  0  0  0  0  0  0  0  0  0
   -3.5565   -1.2251    1.1404 C   0  0  0  0  0  0  0  0  0  0  0  0
   -4.0790    0.0386    1.8450 C   0  0  0  0  0  0  0  0  0  0  0  0
   -4.1398    1.2115    0.8514 C   0  0  0  0  0  0  0  0  0  0  0  0
   -5.0755    0.8426   -0.3108 C   0  0  0  0  0  0  0  0  0  0  0  0
   -2.7280    1.4826    0.3023 C   0  0  0  0  0  0  0  0  0  0  0  0
   -2.1453   -0.9507    0.5910 C   0  0  0  0  0  0  0  0  0  0  0  0
    7.9726    0.8408    0.0739 H   0  0  0  0  0  0  0  0  0  0  0  0
    6.4623    1.7180   -0.2188 H   0  0  0  0  0  0  0  0  0  0  0  0
    6.8849    1.2228    1.4233 H   0  0  0  0  0  0  0  0  0  0  0  0
    6.2347   -0.6546   -0.9124 H   0  0  0  0  0  0  0  0  0  0  0  0
    6.8402   -1.3271    2.0209 H   0  0  0  0  0  0  0  0  0  0  0  0
    6.3521   -2.4808    0.7747 H   0  0  0  0  0  0  0  0  0  0  0  0
    7.9111   -1.6479    0.6428 H   0  0  0  0  0  0  0  0  0  0  0  0
    4.5299   -0.3988    1.5126 H   0  0  0  0  0  0  0  0  0  0  0  0
    1.6821    0.9554   -1.4757 H   0  0  0  0  0  0  0  0  0  0  0  0
    0.0257    0.7616    0.9508 H   0  0  0  0  0  0  0  0  0  0  0  0
   -2.7782   -1.0290   -2.1009 H   0  0  0  0  0  0  0  0  0  0  0  0
   -3.1828    0.6689   -2.3038 H   0  0  0  0  0  0  0  0  0  0  0  0
   -5.2263   -0.6745   -1.8518 H   0  0  0  0  0  0  0  0  0  0  0  0
   -4.1423   -2.4894   -0.5258 H   0  0  0  0  0  0  0  0  0  0  0  0
   -5.5004   -1.7988    0.3594 H   0  0  0  0  0  0  0  0  0  0  0  0
   -3.5198   -2.0570    1.8526 H   0  0  0  0  0  0  0  0  0  0  0  0
   -5.0760   -0.1506    2.2615 H   0  0  0  0  0  0  0  0  0  0  0  0
   -3.4255    0.2950    2.6879 H   0  0  0  0  0  0  0  0  0  0  0  0
   -4.5165    2.1066    1.3589 H   0  0  0  0  0  0  0  0  0  0  0  0
   -5.1388    1.6768   -1.0203 H   0  0  0  0  0  0  0  0  0  0  0  0
   -6.0905    0.6677    0.0664 H   0  0  0  0  0  0  0  0  0  0  0  0
   -2.7526    2.3326   -0.3922 H   0  0  0  0  0  0  0  0  0  0  0  0
   -2.0729    1.7827    1.1299 H   0  0  0  0  0  0  0  0  0  0  0  0
   -1.7508   -1.8519    0.1037 H   0  0  0  0  0  0  0  0  0  0  0  0
   -1.4706   -0.7371    1.4291 H   0  0  0  0  0  0  0  0  0  0  0  0
  1  2  1  0
  2  3  1  0
  2  4  1  0
  4  5  1  0
  5  6  2  0
  5  7  1  0
  7  8  2  0
  7  9  1  0
  9 10  1  0
 10 11  1  0
 11 12  2  0
 11 13  1  0
 13 14  1  0
 14 15  1  0
 15 16  1  0
 16 17  1  0
 17 18  1  0
 18 19  1  0
 19 20  1  0
 19 21  1  0
 17 22  1  0
 21 13  1  0
 22 13  1  0
 20 15  1  0
  1 23  1  0
  1 24  1  0
  1 25  1  0
  2 26  1  0
  3 27  1  0
  3 28  1  0
  3 29  1  0
  4 30  1  0
  9 31  1  0
 10 32  1  0
 14 33  1  0
 14 34  1  0
 15 35  1  0
 16 36  1  0
 16 37  1  0
 17 38  1  0
 18 39  1  0
 18 40  1  0
 19 41  1  0
 20 42  1  0
 20 43  1  0
 21 44  1  0
 21 45  1  0
 22 46  1  0
 22 47  1  0
M  END
$$$$
