
     RDKit          3D

 37 38  0  0  0  0  0  0  0  0999 V2000
   -4.1543   -0.1232   -2.1963 C   0  0  0  0  0  0  0  0  0  0  0  0
   -3.4964   -0.1443   -0.8903 N   0  0  0  0  0  0  0  0  0  0  0  0
   -2.1766   -0.5803   -0.7985 C   0  0  0  0  0  0  0  0  0  0  0  0
   -1.5310   -1.0105   -1.9550 N   0  0  0  0  0  0  0  0  0  0  0  0
   -1.5601   -0.5681    0.4052 C   0  0  0  0  0  0  0  0  0  0  0  0
   -0.1333   -1.0150    0.5288 C   0  0  0  0  0  0  0  0  0  0  0  0
    0.3120   -1.8859   -0.2281 O   0  0  0  0  0  0  0  0  0  0  0  0
    0.7486   -0.3417    1.5840 C   0  0  0  0  0  0  0  0  0  0  0  0
    2.1352   -0.3670    1.2412 O   0  0  0  0  0  0  0  0  0  0  0  0
    2.4645    0.4455    0.2036 C   0  0  0  0  0  0  0  0  0  0  0  0
    1.6856    1.1809   -0.3881 O   0  0  0  0  0  0  0  0  0  0  0  0
    3.9160    0.3284   -0.1299 C   0  0  0  0  0  0  0  0  0  0  0  0
    4.4016    1.0136   -1.2400 C   0  0  0  0  0  0  0  0  0  0  0  0
    5.7554    0.9051   -1.5461 C   0  0  0  0  0  0  0  0  0  0  0  0
    6.5751    0.1226   -0.7398 C   0  0  0  0  0  0  0  0  0  0  0  0
    6.0079   -0.5232    0.3475 C   0  0  0  0  0  0  0  0  0  0  0  0
    4.7011   -0.4380    0.6739 N   0  0  0  0  0  0  0  0  0  0  0  0
   -2.3029   -0.1217    1.6013 C   0  0  0  0  0  0  0  0  0  0  0  0
   -1.7931   -0.2393    2.7153 O   0  0  0  0  0  0  0  0  0  0  0  0
   -3.5643    0.3884    1.4028 N   0  0  0  0  0  0  0  0  0  0  0  0
   -4.3084    0.8567    2.5580 C   0  0  0  0  0  0  0  0  0  0  0  0
   -4.2343    0.3244    0.1939 C   0  0  0  0  0  0  0  0  0  0  0  0
   -5.4176    0.6559    0.0971 O   0  0  0  0  0  0  0  0  0  0  0  0
   -3.5331    0.4234   -2.9135 H   0  0  0  0  0  0  0  0  0  0  0  0
   -5.1304    0.3686   -2.1651 H   0  0  0  0  0  0  0  0  0  0  0  0
   -4.3050   -1.1530   -2.5357 H   0  0  0  0  0  0  0  0  0  0  0  0
   -2.1177   -1.6144   -2.5221 H   0  0  0  0  0  0  0  0  0  0  0  0
   -0.6507   -1.5023   -1.7468 H   0  0  0  0  0  0  0  0  0  0  0  0
    0.6456   -0.9030    2.5177 H   0  0  0  0  0  0  0  0  0  0  0  0
    0.4365    0.6936    1.7617 H   0  0  0  0  0  0  0  0  0  0  0  0
    3.7415    1.6171   -1.8553 H   0  0  0  0  0  0  0  0  0  0  0  0
    6.1662    1.4256   -2.4071 H   0  0  0  0  0  0  0  0  0  0  0  0
    7.6333    0.0172   -0.9536 H   0  0  0  0  0  0  0  0  0  0  0  0
    6.6094   -1.1455    1.0047 H   0  0  0  0  0  0  0  0  0  0  0  0
   -4.9264    0.0321    2.9275 H   0  0  0  0  0  0  0  0  0  0  0  0
   -3.6388    1.1865    3.3576 H   0  0  0  0  0  0  0  0  0  0  0  0
   -4.9611    1.6906    2.2817 H   0  0  0  0  0  0  0  0  0  0  0  0
  1  2  1  0
  2  3  1  0
  3  4  1  0
  3  5  2  0
  5  6  1  0
  6  7  2  0
  6  8  1  0
  8  9  1  0
  9 10  1  0
 10 11  2  0
 10 12  1  0
 12 13  2  0
 13 14  1  0
 14 15  2  0
 15 16  1  0
 16 17  2  0
  5 18  1  0
 18 19  2  0
 18 20  1  0
 20 21  1  0
 20 22  1  0
 22 23  2  0
 22  2  1  0
 17 12  1  0
  1 24  1  0
  1 25  1  0
  1 26  1  0
  4 27  1  0
  4 28  1  0
  8 29  1  0
  8 30  1  0
 13 31  1  0
 14 32  1  0
 15 33  1  0
 16 34  1  0
 21 35  1  0
 21 36  1  0
 21 37  1  0
M  END
$$$$
