
     RDKit          3D

 40 43  0  0  0  0  0  0  0  0999 V2000
    6.4408    1.1536    0.7001 O   0  0  0  0  0  0  0  0  0  0  0  0
    5.9395    0.3667   -0.1163 N   0  0  0  0  0  4  0  0  0  0  0  0
    6.5763   -0.2331   -0.9944 O   0  0  0  0  0  1  0  0  0  0  0  0
    4.4941    0.1282   -0.0354 C   0  0  0  0  0  0  0  0  0  0  0  0
    3.8860   -0.7673   -0.9158 C   0  0  0  0  0  0  0  0  0  0  0  0
    2.5057   -0.9843   -0.8271 C   0  0  0  0  0  0  0  0  0  0  0  0
    1.7028   -0.3282    0.1260 C   0  0  0  0  0  0  0  0  0  0  0  0
    0.3315   -0.5663    0.1831 N   0  0  0  0  0  0  0  0  0  0  0  0
   -0.2570   -1.4770   -0.6504 N   0  0  0  0  0  0  0  0  0  0  0  0
   -1.4819   -1.6233   -0.2445 C   0  0  0  0  0  0  0  0  0  0  0  0
   -2.4141   -2.4932   -0.8970 C   0  0  0  0  0  0  0  0  0  0  0  0
   -2.2963   -3.2937   -2.0169 C   0  0  0  0  0  0  0  0  0  0  0  0
   -3.5468   -3.9323   -2.1945 C   0  0  0  0  0  0  0  0  0  0  0  0
   -4.3515   -3.4849   -1.1740 C   0  0  0  0  0  0  0  0  0  0  0  0
   -3.6757   -2.6136   -0.3817 O   0  0  0  0  0  0  0  0  0  0  0  0
   -1.8563   -0.8520    0.9825 C   0  0  0  0  0  0  0  0  0  0  0  0
   -0.6100    0.0150    1.1470 C   0  0  0  0  0  0  0  0  0  0  0  0
   -0.9254    1.4789    0.8784 C   0  0  0  0  0  0  0  0  0  0  0  0
   -0.9691    2.0081   -0.4218 C   0  0  0  0  0  0  0  0  0  0  0  0
   -1.2847    3.3511   -0.6351 C   0  0  0  0  0  0  0  0  0  0  0  0
   -1.5687    4.1819    0.4460 C   0  0  0  0  0  0  0  0  0  0  0  0
   -1.5392    3.6714    1.7416 C   0  0  0  0  0  0  0  0  0  0  0  0
   -1.2230    2.3287    1.9575 C   0  0  0  0  0  0  0  0  0  0  0  0
    2.3498    0.5667    0.9950 C   0  0  0  0  0  0  0  0  0  0  0  0
    3.7303    0.7992    0.9228 C   0  0  0  0  0  0  0  0  0  0  0  0
    4.4567   -1.3015   -1.6718 H   0  0  0  0  0  0  0  0  0  0  0  0
    2.0464   -1.6842   -1.5236 H   0  0  0  0  0  0  0  0  0  0  0  0
   -1.4077   -3.3958   -2.6254 H   0  0  0  0  0  0  0  0  0  0  0  0
   -3.8269   -4.6316   -2.9697 H   0  0  0  0  0  0  0  0  0  0  0  0
   -5.3756   -3.6806   -0.8872 H   0  0  0  0  0  0  0  0  0  0  0  0
   -2.7885   -0.2969    0.8441 H   0  0  0  0  0  0  0  0  0  0  0  0
   -1.9688   -1.5534    1.8163 H   0  0  0  0  0  0  0  0  0  0  0  0
   -0.2226   -0.0995    2.1676 H   0  0  0  0  0  0  0  0  0  0  0  0
   -0.7477    1.3772   -1.2816 H   0  0  0  0  0  0  0  0  0  0  0  0
   -1.3067    3.7474   -1.6471 H   0  0  0  0  0  0  0  0  0  0  0  0
   -1.8135    5.2275    0.2777 H   0  0  0  0  0  0  0  0  0  0  0  0
   -1.7639    4.3202    2.5844 H   0  0  0  0  0  0  0  0  0  0  0  0
   -1.2106    1.9515    2.9780 H   0  0  0  0  0  0  0  0  0  0  0  0
    1.7891    1.1142    1.7476 H   0  0  0  0  0  0  0  0  0  0  0  0
    4.1832    1.5052    1.6157 H   0  0  0  0  0  0  0  0  0  0  0  0
  1  2  2  0
  2  3  1  0
  2  4  1  0
  4  5  2  0
  5  6  1  0
  6  7  2  0
  7  8  1  0
  8  9  1  0
  9 10  2  0
 10 11  1  0
 11 12  2  0
 12 13  1  0
 13 14  2  0
 14 15  1  0
 10 16  1  0
 16 17  1  0
 17 18  1  0
 18 19  2  0
 19 20  1  0
 20 21  2  0
 21 22  1  0
 22 23  2  0
  7 24  1  0
 24 25  2  0
 25  4  1  0
 17  8  1  0
 23 18  1  0
 15 11  1  0
  5 26  1  0
  6 27  1  0
 12 28  1  0
 13 29  1  0
 14 30  1  0
 16 31  1  0
 16 32  1  0
 17 33  1  0
 19 34  1  0
 20 35  1  0
 21 36  1  0
 22 37  1  0
 23 38  1  0
 24 39  1  0
 25 40  1  0
M  CHG  2   2   1   3  -1
M  END
$$$$
