
     RDKit          3D

 61 63  0  0  0  0  0  0  0  0999 V2000
   -2.6272   -1.8469   -2.9185 C   0  0  0  0  0  0  0  0  0  0  0  0
   -1.2722   -1.9093   -2.2427 C   0  0  0  0  0  0  0  0  0  0  0  0
   -1.3687   -1.2301   -0.9866 O   0  0  0  0  0  0  0  0  0  0  0  0
   -0.2049   -0.7808   -0.4473 C   0  0  0  0  0  0  0  0  0  0  0  0
    0.8934   -0.9036   -0.9818 O   0  0  0  0  0  0  0  0  0  0  0  0
   -0.3694   -0.1057    0.8481 C   0  0  0  0  0  0  0  0  0  0  0  0
   -1.5791    0.0265    1.6358 C   0  0  0  0  0  0  0  0  0  0  0  0
   -2.9102   -0.4725    1.3330 C   0  0  0  0  0  0  0  0  0  0  0  0
   -3.8547    0.3697    0.7433 C   0  0  0  0  0  0  0  0  0  0  0  0
   -5.1270   -0.1188    0.4305 C   0  0  0  0  0  0  0  0  0  0  0  0
   -5.4746   -1.4523    0.6958 C   0  0  0  0  0  0  0  0  0  0  0  0
   -6.8074   -1.9587    0.3489 C   0  0  0  0  0  0  0  0  0  0  0  0
   -7.9522   -1.4747    0.9962 C   0  0  0  0  0  0  0  0  0  0  0  0
   -9.2232   -1.9459    0.6561 C   0  0  0  0  0  0  0  0  0  0  0  0
   -9.3656   -2.9095   -0.3375 C   0  0  0  0  0  0  0  0  0  0  0  0
   -8.2387   -3.4014   -0.9906 C   0  0  0  0  0  0  0  0  0  0  0  0
   -6.9676   -2.9324   -0.6493 C   0  0  0  0  0  0  0  0  0  0  0  0
   -4.5166   -2.2855    1.2932 C   0  0  0  0  0  0  0  0  0  0  0  0
   -3.2443   -1.8006    1.6120 C   0  0  0  0  0  0  0  0  0  0  0  0
   -1.3675    0.7323    2.8016 C   0  0  0  0  0  0  0  0  0  0  0  0
    0.2485    1.2478    2.9563 S   0  0  0  0  0  0  0  0  0  0  0  0
    0.6918    0.5398    1.4788 C   0  0  0  0  0  0  0  0  0  0  0  0
    1.9960    0.6084    1.0082 N   0  0  0  0  0  0  0  0  0  0  0  0
    3.0228    1.4159    1.4772 C   0  0  0  0  0  0  0  0  0  0  0  0
    2.9556    2.2496    2.3740 O   0  0  0  0  0  0  0  0  0  0  0  0
    4.3126    1.2176    0.6540 C   0  0  0  0  0  0  0  0  0  0  0  0
    5.4678    1.7393    1.3910 N   0  0  0  0  0  0  0  0  0  0  0  0
    6.6985    1.8005    0.5967 C   0  0  0  0  0  0  0  0  0  0  0  0
    6.6777    2.8297   -0.5585 C   0  0  0  0  0  0  0  0  0  0  0  0
    7.9325    3.0328   -1.3023 N   0  0  0  0  0  0  0  0  0  0  0  0
    8.9514    3.7095   -0.5071 C   0  0  0  0  0  0  0  0  0  0  0  0
    8.4557    1.7994   -1.8858 C   0  0  0  0  0  0  0  0  0  0  0  0
   -2.9054   -0.8080   -3.1256 H   0  0  0  0  0  0  0  0  0  0  0  0
   -3.4068   -2.2549   -2.2716 H   0  0  0  0  0  0  0  0  0  0  0  0
   -2.6173   -2.4015   -3.8583 H   0  0  0  0  0  0  0  0  0  0  0  0
   -0.5205   -1.4514   -2.8882 H   0  0  0  0  0  0  0  0  0  0  0  0
   -0.9980   -2.9518   -2.0494 H   0  0  0  0  0  0  0  0  0  0  0  0
   -3.6057    1.4007    0.5104 H   0  0  0  0  0  0  0  0  0  0  0  0
   -5.8496    0.5455   -0.0395 H   0  0  0  0  0  0  0  0  0  0  0  0
   -7.8586   -0.7248    1.7809 H   0  0  0  0  0  0  0  0  0  0  0  0
  -10.0991   -1.5551    1.1684 H   0  0  0  0  0  0  0  0  0  0  0  0
  -10.3546   -3.2744   -0.6051 H   0  0  0  0  0  0  0  0  0  0  0  0
   -8.3420   -4.1531   -1.7682 H   0  0  0  0  0  0  0  0  0  0  0  0
   -6.1013   -3.3231   -1.1750 H   0  0  0  0  0  0  0  0  0  0  0  0
   -4.7581   -3.3219    1.5234 H   0  0  0  0  0  0  0  0  0  0  0  0
   -2.5209   -2.4705    2.0689 H   0  0  0  0  0  0  0  0  0  0  0  0
   -2.0815    0.9733    3.5799 H   0  0  0  0  0  0  0  0  0  0  0  0
    2.1670    0.0864    0.1494 H   0  0  0  0  0  0  0  0  0  0  0  0
    4.4534    0.1488    0.4469 H   0  0  0  0  0  0  0  0  0  0  0  0
    4.1583    1.7493   -0.2924 H   0  0  0  0  0  0  0  0  0  0  0  0
    5.2259    2.6572    1.7651 H   0  0  0  0  0  0  0  0  0  0  0  0
    7.5046    2.0642    1.2907 H   0  0  0  0  0  0  0  0  0  0  0  0
    6.9305    0.7962    0.2189 H   0  0  0  0  0  0  0  0  0  0  0  0
    5.9119    2.5430   -1.2913 H   0  0  0  0  0  0  0  0  0  0  0  0
    6.3459    3.7988   -0.1675 H   0  0  0  0  0  0  0  0  0  0  0  0
    9.8097    3.9723   -1.1312 H   0  0  0  0  0  0  0  0  0  0  0  0
    9.3146    3.0990    0.3220 H   0  0  0  0  0  0  0  0  0  0  0  0
    8.5649    4.6457   -0.1035 H   0  0  0  0  0  0  0  0  0  0  0  0
    8.8367    1.1051   -1.1334 H   0  0  0  0  0  0  0  0  0  0  0  0
    9.2773    2.0202   -2.5747 H   0  0  0  0  0  0  0  0  0  0  0  0
    7.6854    1.2951   -2.4749 H   0  0  0  0  0  0  0  0  0  0  0  0
  1  2  1  0
  2  3  1  0
  3  4  1  0
  4  5  2  0
  4  6  1  0
  6  7  1  0
  7  8  1  0
  8  9  2  0
  9 10  1  0
 10 11  2  0
 11 12  1  0
 12 13  2  0
 13 14  1  0
 14 15  2  0
 15 16  1  0
 16 17  2  0
 11 18  1  0
 18 19  2  0
  7 20  2  0
 20 21  1  0
 21 22  1  0
 22 23  1  0
 23 24  1  0
 24 25  2  0
 24 26  1  0
 26 27  1  0
 27 28  1  0
 28 29  1  0
 29 30  1  0
 30 31  1  0
 30 32  1  0
 22  6  2  0
 19  8  1  0
 17 12  1  0
  1 33  1  0
  1 34  1  0
  1 35  1  0
  2 36  1  0
  2 37  1  0
  9 38  1  0
 10 39  1  0
 13 40  1  0
 14 41  1  0
 15 42  1  0
 16 43  1  0
 17 44  1  0
 18 45  1  0
 19 46  1  0
 20 47  1  0
 23 48  1  0
 26 49  1  0
 26 50  1  0
 27 51  1  0
 28 52  1  0
 28 53  1  0
 29 54  1  0
 29 55  1  0
 31 56  1  0
 31 57  1  0
 31 58  1  0
 32 59  1  0
 32 60  1  0
 32 61  1  0
M  END
$$$$
