
     RDKit          3D

 33 36  0  0  0  0  0  0  0  0999 V2000
    6.0521   -1.4274    0.3951 C   0  0  0  0  0  0  0  0  0  0  0  0
    5.5168   -0.0566    0.2867 C   0  0  0  0  0  0  0  0  0  0  0  0
    6.0949    1.1862    0.2110 C   0  0  0  0  0  0  0  0  0  0  0  0
    5.0230    2.1058    0.1227 C   0  0  0  0  0  0  0  0  0  0  0  0
    3.8307    1.3879    0.1476 C   0  0  0  0  0  0  0  0  0  0  0  0
    2.5047    1.9007    0.0826 C   0  0  0  0  0  0  0  0  0  0  0  0
    1.3800    1.1714    0.1036 C   0  0  0  0  0  0  0  0  0  0  0  0
    1.1806   -0.5674    0.2126 S   0  0  0  0  0  0  0  0  0  0  0  0
   -0.5203   -0.3769    0.1552 C   0  0  0  0  0  0  0  0  0  0  0  0
   -1.5482   -1.1732    0.1876 N   0  0  0  0  0  0  0  0  0  0  0  0
   -2.6084   -0.2811    0.0806 C   0  0  0  0  0  0  0  0  0  0  0  0
   -4.0018   -0.7124    0.0965 C   0  0  0  0  0  0  0  0  0  0  0  0
   -4.9165    0.0245    0.8734 C   0  0  0  0  0  0  0  0  0  0  0  0
   -6.2609   -0.3460    0.9511 C   0  0  0  0  0  0  0  0  0  0  0  0
   -6.7147   -1.4574    0.2489 C   0  0  0  0  0  0  0  0  0  0  0  0
   -5.8269   -2.1917   -0.5372 C   0  0  0  0  0  0  0  0  0  0  0  0
   -4.4761   -1.8230   -0.6198 C   0  0  0  0  0  0  0  0  0  0  0  0
   -3.3905   -2.8607   -1.7893 Br  0  0  0  0  0  0  0  0  0  0  0  0
   -2.2421    1.0207    0.0322 N   0  0  0  0  0  0  0  0  0  0  0  0
   -0.9033    0.9088    0.0623 N   0  0  0  0  0  0  0  0  0  0  0  0
    0.0666    1.8861    0.0267 C   0  0  0  0  0  0  0  0  0  0  0  0
   -0.1650    3.0795   -0.0490 O   0  0  0  0  0  0  0  0  0  0  0  0
    4.1645    0.0576    0.2497 O   0  0  0  0  0  0  0  0  0  0  0  0
    7.1462   -1.4213    0.4180 H   0  0  0  0  0  0  0  0  0  0  0  0
    5.7322   -2.0320   -0.4590 H   0  0  0  0  0  0  0  0  0  0  0  0
    5.6945   -1.9066    1.3116 H   0  0  0  0  0  0  0  0  0  0  0  0
    7.1537    1.4039    0.2182 H   0  0  0  0  0  0  0  0  0  0  0  0
    5.1047    3.1819    0.0479 H   0  0  0  0  0  0  0  0  0  0  0  0
    2.4196    2.9843    0.0093 H   0  0  0  0  0  0  0  0  0  0  0  0
   -4.5796    0.8979    1.4305 H   0  0  0  0  0  0  0  0  0  0  0  0
   -6.9499    0.2350    1.5593 H   0  0  0  0  0  0  0  0  0  0  0  0
   -7.7606   -1.7488    0.3056 H   0  0  0  0  0  0  0  0  0  0  0  0
   -6.1998   -3.0497   -1.0923 H   0  0  0  0  0  0  0  0  0  0  0  0
  1  2  1  0
  2  3  2  0
  3  4  1  0
  4  5  2  0
  5  6  1  0
  6  7  2  3
  7  8  1  0
  8  9  1  0
  9 10  2  0
 10 11  1  0
 11 12  1  0
 12 13  2  0
 13 14  1  0
 14 15  2  0
 15 16  1  0
 16 17  2  0
 17 18  1  0
 11 19  2  0
 19 20  1  0
 20 21  1  0
 21 22  2  0
  5 23  1  0
 23  2  1  0
 21  7  1  0
 20  9  1  0
 17 12  1  0
  1 24  1  0
  1 25  1  0
  1 26  1  0
  3 27  1  0
  4 28  1  0
  6 29  1  0
 13 30  1  0
 14 31  1  0
 15 32  1  0
 16 33  1  0
M  END
$$$$
