
     RDKit          3D

 57 59  0  0  0  0  0  0  0  0999 V2000
    7.5514    1.1052   -0.0069 C   0  0  0  0  0  0  0  0  0  0  0  0
    6.9334    0.1614    1.0286 C   0  0  0  0  0  0  0  0  0  0  0  0
    7.9388   -0.1040    2.1516 C   0  0  0  0  0  0  0  0  0  0  0  0
    5.6260    0.7270    1.6161 C   0  0  0  0  0  0  0  0  0  0  0  0
    4.5151    0.8099    0.6233 C   0  0  0  0  0  0  0  0  0  0  0  0
    3.7693   -0.2469    0.0548 C   0  0  0  0  0  0  0  0  0  0  0  0
    2.8826    0.3776   -0.7871 C   0  0  0  0  0  0  0  0  0  0  0  0
    1.8077   -0.0933   -1.6842 C   0  0  0  0  0  0  0  0  0  0  0  0
    0.6113   -0.3030   -0.8951 N   0  0  0  0  0  0  0  0  0  0  0  0
    0.3279   -1.5295   -0.3409 C   0  0  0  0  0  0  0  0  0  0  0  0
    0.9854   -2.5382   -0.5820 O   0  0  0  0  0  0  0  0  0  0  0  0
   -0.8889   -1.5774    0.5716 C   0  0  0  0  0  0  0  0  0  0  0  0
   -0.7845   -0.5984    1.7513 C   0  0  0  0  0  0  0  0  0  0  0  0
   -1.7972    0.5366    1.6660 C   0  0  0  0  0  0  0  0  0  0  0  0
   -3.2026   -0.0028    1.4920 C   0  0  0  0  0  0  0  0  0  0  0  0
   -4.1576    0.4909    2.0843 O   0  0  0  0  0  0  0  0  0  0  0  0
   -3.3053   -1.0489    0.5836 N   0  0  0  0  0  0  0  0  0  0  0  0
   -4.6278   -1.5255    0.1908 C   0  0  0  0  0  0  0  0  0  0  0  0
   -5.1355   -0.8522   -1.0645 C   0  0  0  0  0  0  0  0  0  0  0  0
   -5.0468   -1.4945   -2.3068 C   0  0  0  0  0  0  0  0  0  0  0  0
   -5.4973   -0.8624   -3.4655 C   0  0  0  0  0  0  0  0  0  0  0  0
   -6.0404    0.4206   -3.3962 C   0  0  0  0  0  0  0  0  0  0  0  0
   -6.1437    1.0848   -2.1650 C   0  0  0  0  0  0  0  0  0  0  0  0
   -6.7030    2.4844   -2.0845 C   0  0  0  0  0  0  0  0  0  0  0  0
   -5.7223    3.4273   -2.0180 F   0  0  0  0  0  0  0  0  0  0  0  0
   -7.4921    2.6823   -0.9920 F   0  0  0  0  0  0  0  0  0  0  0  0
   -7.4697    2.8207   -3.1608 F   0  0  0  0  0  0  0  0  0  0  0  0
   -5.6803    0.4401   -1.0062 C   0  0  0  0  0  0  0  0  0  0  0  0
   -2.1614   -1.3884   -0.2541 C   0  0  0  0  0  0  0  0  0  0  0  0
    3.0778    1.7213   -0.7243 O   0  0  0  0  0  0  0  0  0  0  0  0
    4.1000    1.9976    0.1643 N   0  0  0  0  0  0  0  0  0  0  0  0
    8.5010    0.7055   -0.3788 H   0  0  0  0  0  0  0  0  0  0  0  0
    6.8909    1.2360   -0.8703 H   0  0  0  0  0  0  0  0  0  0  0  0
    7.7470    2.0936    0.4239 H   0  0  0  0  0  0  0  0  0  0  0  0
    6.7227   -0.7960    0.5341 H   0  0  0  0  0  0  0  0  0  0  0  0
    8.8604   -0.5401    1.7523 H   0  0  0  0  0  0  0  0  0  0  0  0
    8.1997    0.8197    2.6798 H   0  0  0  0  0  0  0  0  0  0  0  0
    7.5276   -0.8096    2.8829 H   0  0  0  0  0  0  0  0  0  0  0  0
    5.2903    0.0845    2.4411 H   0  0  0  0  0  0  0  0  0  0  0  0
    5.8128    1.7155    2.0568 H   0  0  0  0  0  0  0  0  0  0  0  0
    3.8597   -1.3093    0.2310 H   0  0  0  0  0  0  0  0  0  0  0  0
    2.0994   -1.0172   -2.1948 H   0  0  0  0  0  0  0  0  0  0  0  0
    1.5705    0.6600   -2.4427 H   0  0  0  0  0  0  0  0  0  0  0  0
    0.1683    0.5279   -0.5264 H   0  0  0  0  0  0  0  0  0  0  0  0
   -0.9066   -2.5892    1.0016 H   0  0  0  0  0  0  0  0  0  0  0  0
   -0.9814   -1.1594    2.6752 H   0  0  0  0  0  0  0  0  0  0  0  0
    0.2274   -0.1909    1.8553 H   0  0  0  0  0  0  0  0  0  0  0  0
   -1.5763    1.2108    0.8314 H   0  0  0  0  0  0  0  0  0  0  0  0
   -1.7615    1.1247    2.5900 H   0  0  0  0  0  0  0  0  0  0  0  0
   -4.5671   -2.6120    0.0507 H   0  0  0  0  0  0  0  0  0  0  0  0
   -5.3456   -1.3610    1.0039 H   0  0  0  0  0  0  0  0  0  0  0  0
   -4.6248   -2.4959   -2.3811 H   0  0  0  0  0  0  0  0  0  0  0  0
   -5.4246   -1.3701   -4.4252 H   0  0  0  0  0  0  0  0  0  0  0  0
   -6.3857    0.9032   -4.3101 H   0  0  0  0  0  0  0  0  0  0  0  0
   -5.7458    0.9529   -0.0443 H   0  0  0  0  0  0  0  0  0  0  0  0
   -2.3742   -2.3160   -0.7986 H   0  0  0  0  0  0  0  0  0  0  0  0
   -2.0546   -0.5901   -0.9988 H   0  0  0  0  0  0  0  0  0  0  0  0
  1  2  1  0
  2  3  1  0
  2  4  1  0
  4  5  1  0
  5  6  1  0
  6  7  2  0
  7  8  1  0
  8  9  1  0
  9 10  1  0
 10 11  2  0
 10 12  1  0
 12 13  1  0
 13 14  1  0
 14 15  1  0
 15 16  2  0
 15 17  1  0
 17 18  1  0
 18 19  1  0
 19 20  2  0
 20 21  1  0
 21 22  2  0
 22 23  1  0
 23 24  1  0
 24 25  1  0
 24 26  1  0
 24 27  1  0
 23 28  2  0
 17 29  1  0
  7 30  1  0
 30 31  1  0
 31  5  2  0
 29 12  1  0
 28 19  1  0
  1 32  1  0
  1 33  1  0
  1 34  1  0
  2 35  1  0
  3 36  1  0
  3 37  1  0
  3 38  1  0
  4 39  1  0
  4 40  1  0
  6 41  1  0
  8 42  1  0
  8 43  1  0
  9 44  1  0
 12 45  1  0
 13 46  1  0
 13 47  1  0
 14 48  1  0
 14 49  1  0
 18 50  1  0
 18 51  1  0
 20 52  1  0
 21 53  1  0
 22 54  1  0
 28 55  1  0
 29 56  1  0
 29 57  1  0
M  END
$$$$
