
     RDKit          3D

 36 37  0  0  0  0  0  0  0  0999 V2000
   -3.2756   -1.8175   -0.6573 C   0  0  0  0  0  0  0  0  0  0  0  0
   -2.4220   -0.5822   -0.9666 C   0  0  0  0  0  0  0  0  0  0  0  0
   -2.8663    0.6248   -0.1203 C   0  0  0  0  0  0  0  0  0  0  0  0
   -1.8106    1.0626    0.9047 C   0  0  0  0  0  0  0  0  0  0  0  0
   -2.4142    2.0253    1.9258 C   0  0  0  0  0  0  0  0  0  0  0  0
   -1.1901   -0.1530    1.5969 C   0  0  0  0  0  0  0  0  0  0  0  0
   -0.5835   -1.0854    0.6200 N   0  0  0  0  0  0  0  0  0  0  0  0
    0.9469   -1.7247    0.9601 S   0  0  0  0  0  6  0  0  0  0  0  0
    1.1666   -2.8470    0.0713 O   0  0  0  0  0  0  0  0  0  0  0  0
    1.1055   -1.8548    2.3915 O   0  0  0  0  0  0  0  0  0  0  0  0
    2.1807   -0.5435    0.4414 C   0  0  0  0  0  0  0  0  0  0  0  0
    3.1418   -0.5970   -0.5517 C   0  0  0  0  0  0  0  0  0  0  0  0
    3.9444    0.5974   -0.6401 C   0  0  0  0  0  0  0  0  0  0  0  0
    5.0240    0.8215   -1.5851 C   0  0  0  0  0  0  0  0  0  0  0  0
    5.7183    1.8212   -1.6821 O   0  0  0  0  0  0  0  0  0  0  0  0
    5.2348   -0.2171   -2.4254 O   0  0  0  0  0  0  0  0  0  0  0  0
    3.5275    1.4978    0.3157 C   0  0  0  0  0  0  0  0  0  0  0  0
    4.1303    3.0779    0.6465 Cl  0  0  0  0  0  0  0  0  0  0  0  0
    2.2430    0.9428    1.2752 S   0  0  0  0  0  0  0  0  0  0  0  0
   -0.9275   -0.8840   -0.8024 C   0  0  0  0  0  0  0  0  0  0  0  0
   -3.1931   -2.1182    0.3920 H   0  0  0  0  0  0  0  0  0  0  0  0
   -4.3319   -1.6175   -0.8673 H   0  0  0  0  0  0  0  0  0  0  0  0
   -2.9696   -2.6662   -1.2782 H   0  0  0  0  0  0  0  0  0  0  0  0
   -2.5996   -0.3385   -2.0225 H   0  0  0  0  0  0  0  0  0  0  0  0
   -3.8174    0.4079    0.3826 H   0  0  0  0  0  0  0  0  0  0  0  0
   -3.0708    1.4721   -0.7880 H   0  0  0  0  0  0  0  0  0  0  0  0
   -1.0182    1.6053    0.3716 H   0  0  0  0  0  0  0  0  0  0  0  0
   -2.8443    2.9002    1.4272 H   0  0  0  0  0  0  0  0  0  0  0  0
   -1.6486    2.3798    2.6240 H   0  0  0  0  0  0  0  0  0  0  0  0
   -3.2061    1.5431    2.5090 H   0  0  0  0  0  0  0  0  0  0  0  0
   -0.4557    0.1865    2.3331 H   0  0  0  0  0  0  0  0  0  0  0  0
   -1.9563   -0.7065    2.1536 H   0  0  0  0  0  0  0  0  0  0  0  0
    3.2670   -1.4662   -1.1903 H   0  0  0  0  0  0  0  0  0  0  0  0
    5.9843    0.0903   -2.9769 H   0  0  0  0  0  0  0  0  0  0  0  0
   -0.6793   -1.7808   -1.3807 H   0  0  0  0  0  0  0  0  0  0  0  0
   -0.3344   -0.0563   -1.2090 H   0  0  0  0  0  0  0  0  0  0  0  0
  1  2  1  0
  2  3  1  0
  3  4  1  0
  4  5  1  0
  4  6  1  0
  6  7  1  0
  7  8  1  0
  8  9  2  0
  8 10  2  0
  8 11  1  0
 11 12  2  0
 12 13  1  0
 13 14  1  0
 14 15  2  0
 14 16  1  0
 13 17  2  0
 17 18  1  0
 17 19  1  0
  7 20  1  0
 20  2  1  0
 19 11  1  0
  1 21  1  0
  1 22  1  0
  1 23  1  0
  2 24  1  0
  3 25  1  0
  3 26  1  0
  4 27  1  0
  5 28  1  0
  5 29  1  0
  5 30  1  0
  6 31  1  0
  6 32  1  0
 12 33  1  0
 16 34  1  0
 20 35  1  0
 20 36  1  0
M  END
$$$$
