
     RDKit          3D

 53 56  0  0  0  0  0  0  0  0999 V2000
   -6.9298    3.3837    0.7896 C   0  0  0  0  0  0  0  0  0  0  0  0
   -5.6647    2.5786    0.8664 C   0  0  0  0  0  0  0  0  0  0  0  0
   -5.6524    1.3329    1.5032 C   0  0  0  0  0  0  0  0  0  0  0  0
   -4.4824    0.5636    1.5402 C   0  0  0  0  0  0  0  0  0  0  0  0
   -3.3153    1.0096    0.9154 C   0  0  0  0  0  0  0  0  0  0  0  0
   -2.0891    0.2972    0.9240 N   0  0  0  0  0  0  0  0  0  0  0  0
   -1.8442   -1.0682    1.0120 C   0  0  0  0  0  0  0  0  0  0  0  0
   -2.9744   -2.2472    0.5813 S   0  0  0  0  0  0  0  0  0  0  0  0
   -0.5283   -1.3736    1.4448 N   0  0  0  0  0  0  0  0  0  0  0  0
   -0.0635   -2.7723    1.5440 C   0  0  0  0  0  0  0  0  0  0  0  0
    0.2912   -3.3638    0.2063 C   0  0  0  0  0  0  0  0  0  0  0  0
    0.5689   -2.7605   -1.0075 C   0  0  0  0  0  0  0  0  0  0  0  0
    0.8369   -3.7051   -2.0429 C   0  0  0  0  0  0  0  0  0  0  0  0
    0.7608   -5.0034   -1.5891 C   0  0  0  0  0  0  0  0  0  0  0  0
    0.3872   -5.0789    0.0768 S   0  0  0  0  0  0  0  0  0  0  0  0
    0.3749   -0.3705    2.0407 C   0  0  0  0  0  0  0  0  0  0  0  0
    1.4883   -0.0293    1.0927 C   0  0  0  0  0  0  0  0  0  0  0  0
    2.6923   -0.6305    1.1086 C   0  0  0  0  0  0  0  0  0  0  0  0
    3.7279   -0.2749    0.1379 C   0  0  0  0  0  0  0  0  0  0  0  0
    4.9655   -0.9213    0.1432 C   0  0  0  0  0  0  0  0  0  0  0  0
    5.9380   -0.5720   -0.7919 C   0  0  0  0  0  0  0  0  0  0  0  0
    5.6751    0.4229   -1.7370 C   0  0  0  0  0  0  0  0  0  0  0  0
    4.4361    1.0826   -1.7639 C   0  0  0  0  0  0  0  0  0  0  0  0
    4.1883    2.1482   -2.7985 C   0  0  0  0  0  0  0  0  0  0  0  0
    3.4666    0.7234   -0.8135 C   0  0  0  0  0  0  0  0  0  0  0  0
    2.2149    1.3580   -0.7864 N   0  0  0  0  0  0  0  0  0  0  0  0
    1.2314    1.0694    0.1168 C   0  0  0  0  0  0  0  0  0  0  0  0
    0.1719    1.6922    0.1228 O   0  0  0  0  0  0  0  0  0  0  0  0
   -3.3234    2.2691    0.3034 C   0  0  0  0  0  0  0  0  0  0  0  0
   -4.4909    3.0396    0.2632 C   0  0  0  0  0  0  0  0  0  0  0  0
   -7.5074    3.0881   -0.0911 H   0  0  0  0  0  0  0  0  0  0  0  0
   -7.5400    3.2311    1.6863 H   0  0  0  0  0  0  0  0  0  0  0  0
   -6.7120    4.4544    0.7252 H   0  0  0  0  0  0  0  0  0  0  0  0
   -6.5508    0.9497    1.9825 H   0  0  0  0  0  0  0  0  0  0  0  0
   -4.5033   -0.3719    2.0910 H   0  0  0  0  0  0  0  0  0  0  0  0
   -1.3000    0.8411    0.5710 H   0  0  0  0  0  0  0  0  0  0  0  0
   -0.8350   -3.3644    2.0451 H   0  0  0  0  0  0  0  0  0  0  0  0
    0.8241   -2.8179    2.1867 H   0  0  0  0  0  0  0  0  0  0  0  0
    0.5544   -1.6876   -1.1623 H   0  0  0  0  0  0  0  0  0  0  0  0
    1.0653   -3.4410   -3.0684 H   0  0  0  0  0  0  0  0  0  0  0  0
    0.9003   -5.9164   -2.1553 H   0  0  0  0  0  0  0  0  0  0  0  0
    0.7749   -0.7913    2.9711 H   0  0  0  0  0  0  0  0  0  0  0  0
   -0.1694    0.5232    2.3597 H   0  0  0  0  0  0  0  0  0  0  0  0
    2.9185   -1.4145    1.8210 H   0  0  0  0  0  0  0  0  0  0  0  0
    5.1843   -1.7043    0.8687 H   0  0  0  0  0  0  0  0  0  0  0  0
    6.9020   -1.0762   -0.7883 H   0  0  0  0  0  0  0  0  0  0  0  0
    6.4486    0.6798   -2.4576 H   0  0  0  0  0  0  0  0  0  0  0  0
    4.0026    3.1111   -2.3125 H   0  0  0  0  0  0  0  0  0  0  0  0
    3.3294    1.8794   -3.4212 H   0  0  0  0  0  0  0  0  0  0  0  0
    5.0480    2.2758   -3.4626 H   0  0  0  0  0  0  0  0  0  0  0  0
    2.0040    2.0934   -1.4439 H   0  0  0  0  0  0  0  0  0  0  0  0
   -2.4256    2.6564   -0.1754 H   0  0  0  0  0  0  0  0  0  0  0  0
   -4.4709    4.0024   -0.2417 H   0  0  0  0  0  0  0  0  0  0  0  0
  1  2  1  0
  2  3  2  0
  3  4  1  0
  4  5  2  0
  5  6  1  0
  6  7  1  0
  7  8  2  0
  7  9  1  0
  9 10  1  0
 10 11  1  0
 11 12  2  0
 12 13  1  0
 13 14  2  0
 14 15  1  0
  9 16  1  0
 16 17  1  0
 17 18  2  0
 18 19  1  0
 19 20  2  0
 20 21  1  0
 21 22  2  0
 22 23  1  0
 23 24  1  0
 23 25  2  0
 25 26  1  0
 26 27  1  0
 27 28  2  0
  5 29  1  0
 29 30  2  0
 30  2  1  0
 15 11  1  0
 27 17  1  0
 25 19  1  0
  1 31  1  0
  1 32  1  0
  1 33  1  0
  3 34  1  0
  4 35  1  0
  6 36  1  0
 10 37  1  0
 10 38  1  0
 12 39  1  0
 13 40  1  0
 14 41  1  0
 16 42  1  0
 16 43  1  0
 18 44  1  0
 20 45  1  0
 21 46  1  0
 22 47  1  0
 24 48  1  0
 24 49  1  0
 24 50  1  0
 26 51  1  0
 29 52  1  0
 30 53  1  0
M  END
$$$$
