
     RDKit          3D

 49 51  0  0  0  0  0  0  0  0999 V2000
   -0.9302   -0.8989    2.3624 O   0  0  0  0  0  0  0  0  0  0  0  0
   -0.5841   -0.7797    1.1914 C   0  0  0  0  0  0  0  0  0  0  0  0
   -1.3295   -1.4501    0.0469 C   0  0  0  0  0  0  0  0  0  0  0  0
   -2.8202   -1.6420    0.3361 C   0  0  0  0  0  0  0  0  0  0  0  0
   -3.5981   -0.3918    0.2514 N   0  0  0  0  0  0  0  0  0  0  0  0
   -3.8270    0.0868   -1.1206 C   0  0  0  0  0  0  0  0  0  0  0  0
   -4.8438   -0.7396   -1.9143 C   0  0  0  0  0  0  0  0  0  0  0  0
   -6.1581   -0.8856   -1.1561 C   0  0  0  0  0  0  0  0  0  0  0  0
   -5.9154   -1.3679    0.2700 C   0  0  0  0  0  0  0  0  0  0  0  0
   -4.8746   -0.4969    0.9773 C   0  0  0  0  0  0  0  0  0  0  0  0
    0.5546   -0.1298    0.7488 N   0  0  0  0  0  0  0  0  0  0  0  0
    1.4671    0.6580    1.4907 C   0  0  0  0  0  0  0  0  0  0  0  0
    1.2482    0.9945    2.8312 C   0  0  0  0  0  0  0  0  0  0  0  0
    2.1417    1.8241    3.5174 C   0  0  0  0  0  0  0  0  0  0  0  0
    3.2586    2.3330    2.8645 C   0  0  0  0  0  0  0  0  0  0  0  0
    4.4464    3.4770    3.7873 Br  0  0  0  0  0  0  0  0  0  0  0  0
    3.5074    2.0072    1.5346 C   0  0  0  0  0  0  0  0  0  0  0  0
    2.6302    1.1508    0.8502 C   0  0  0  0  0  0  0  0  0  0  0  0
    2.9245    0.7807   -0.5644 C   0  0  0  0  0  0  0  0  0  0  0  0
    1.9918    0.5970   -1.3463 O   0  0  0  0  0  0  0  0  0  0  0  0
    4.3137    0.5948   -1.0551 C   0  0  0  0  0  0  0  0  0  0  0  0
    5.3063    0.0166   -0.2540 C   0  0  0  0  0  0  0  0  0  0  0  0
    6.5955   -0.1580   -0.7615 C   0  0  0  0  0  0  0  0  0  0  0  0
    6.8902    0.2265   -2.0697 C   0  0  0  0  0  0  0  0  0  0  0  0
    5.8979    0.7827   -2.8773 C   0  0  0  0  0  0  0  0  0  0  0  0
    4.6086    0.9614   -2.3732 C   0  0  0  0  0  0  0  0  0  0  0  0
   -0.8677   -2.4359   -0.0848 H   0  0  0  0  0  0  0  0  0  0  0  0
   -1.1711   -0.9030   -0.8877 H   0  0  0  0  0  0  0  0  0  0  0  0
   -2.9192   -2.0714    1.3417 H   0  0  0  0  0  0  0  0  0  0  0  0
   -3.2190   -2.3980   -0.3507 H   0  0  0  0  0  0  0  0  0  0  0  0
   -2.8869    0.1443   -1.6801 H   0  0  0  0  0  0  0  0  0  0  0  0
   -4.1873    1.1218   -1.0617 H   0  0  0  0  0  0  0  0  0  0  0  0
   -4.4341   -1.7313   -2.1365 H   0  0  0  0  0  0  0  0  0  0  0  0
   -5.0334   -0.2566   -2.8805 H   0  0  0  0  0  0  0  0  0  0  0  0
   -6.8195   -1.5837   -1.6815 H   0  0  0  0  0  0  0  0  0  0  0  0
   -6.6728    0.0832   -1.1266 H   0  0  0  0  0  0  0  0  0  0  0  0
   -6.8574   -1.3399    0.8291 H   0  0  0  0  0  0  0  0  0  0  0  0
   -5.5862   -2.4138    0.2551 H   0  0  0  0  0  0  0  0  0  0  0  0
   -4.7077   -0.8701    1.9954 H   0  0  0  0  0  0  0  0  0  0  0  0
   -5.2848    0.5147    1.1059 H   0  0  0  0  0  0  0  0  0  0  0  0
    0.7501   -0.1707   -0.2544 H   0  0  0  0  0  0  0  0  0  0  0  0
    0.3703    0.6470    3.3690 H   0  0  0  0  0  0  0  0  0  0  0  0
    1.9387    2.0779    4.5559 H   0  0  0  0  0  0  0  0  0  0  0  0
    4.3738    2.4315    1.0347 H   0  0  0  0  0  0  0  0  0  0  0  0
    5.0911   -0.3194    0.7575 H   0  0  0  0  0  0  0  0  0  0  0  0
    7.3686   -0.6085   -0.1422 H   0  0  0  0  0  0  0  0  0  0  0  0
    7.8932    0.0821   -2.4661 H   0  0  0  0  0  0  0  0  0  0  0  0
    6.1243    1.0662   -3.9022 H   0  0  0  0  0  0  0  0  0  0  0  0
    3.8350    1.3828   -3.0112 H   0  0  0  0  0  0  0  0  0  0  0  0
  1  2  2  0
  2  3  1  0
  3  4  1  0
  4  5  1  0
  5  6  1  0
  6  7  1  0
  7  8  1  0
  8  9  1  0
  9 10  1  0
  2 11  1  0
 11 12  1  0
 12 13  2  0
 13 14  1  0
 14 15  2  0
 15 16  1  0
 15 17  1  0
 17 18  2  0
 18 19  1  0
 19 20  2  0
 19 21  1  0
 21 22  2  0
 22 23  1  0
 23 24  2  0
 24 25  1  0
 25 26  2  0
 10  5  1  0
 18 12  1  0
 26 21  1  0
  3 27  1  0
  3 28  1  0
  4 29  1  0
  4 30  1  0
  6 31  1  0
  6 32  1  0
  7 33  1  0
  7 34  1  0
  8 35  1  0
  8 36  1  0
  9 37  1  0
  9 38  1  0
 10 39  1  0
 10 40  1  0
 11 41  1  0
 13 42  1  0
 14 43  1  0
 17 44  1  0
 22 45  1  0
 23 46  1  0
 24 47  1  0
 25 48  1  0
 26 49  1  0
M  END
$$$$
