
     RDKit          3D

 50 52  0  0  0  0  0  0  0  0999 V2000
   -6.8845   -0.4478    1.1788 C   0  0  0  0  0  0  0  0  0  0  0  0
   -5.6519   -0.8581    0.3723 C   0  0  0  0  0  0  0  0  0  0  0  0
   -4.3694   -0.4520    1.1171 C   0  0  0  0  0  0  0  0  0  0  0  0
   -3.1831   -0.3149    0.1680 C   0  0  0  0  0  0  0  0  0  0  0  0
   -3.4341    0.6890   -0.8710 N   0  0  0  0  0  0  0  0  0  0  0  0
   -2.4739    1.5657   -1.3717 C   0  0  0  0  0  0  0  0  0  0  0  0
   -2.7474    2.5908   -1.9906 O   0  0  0  0  0  0  0  0  0  0  0  0
   -1.0390    1.2613   -1.1663 C   0  0  0  0  0  0  0  0  0  0  0  0
   -0.1988    2.2730   -0.6868 C   0  0  0  0  0  0  0  0  0  0  0  0
    1.1687    2.0327   -0.5179 C   0  0  0  0  0  0  0  0  0  0  0  0
    1.7063    0.7734   -0.8252 C   0  0  0  0  0  0  0  0  0  0  0  0
    3.4751    0.5664   -0.7166 S   0  0  0  0  0  6  0  0  0  0  0  0
    3.8423   -0.3879   -1.7410 O   0  0  0  0  0  0  0  0  0  0  0  0
    4.0260    1.9110   -0.7509 O   0  0  0  0  0  0  0  0  0  0  0  0
    3.7344   -0.1029    0.9253 C   0  0  0  0  0  0  0  0  0  0  0  0
    5.2045   -0.3389    1.1282 C   0  0  0  0  0  0  0  0  0  0  0  0
    6.0578    0.6885    1.5553 C   0  0  0  0  0  0  0  0  0  0  0  0
    7.4249    0.4487    1.7182 C   0  0  0  0  0  0  0  0  0  0  0  0
    7.9532   -0.8156    1.4560 C   0  0  0  0  0  0  0  0  0  0  0  0
    7.1142   -1.8423    1.0291 C   0  0  0  0  0  0  0  0  0  0  0  0
    5.7544   -1.5969    0.8681 C   0  0  0  0  0  0  0  0  0  0  0  0
    4.9596   -2.5982    0.4673 F   0  0  0  0  0  0  0  0  0  0  0  0
    0.8614   -0.2186   -1.3331 C   0  0  0  0  0  0  0  0  0  0  0  0
    1.3280   -1.5626   -1.6080 N   0  0  0  0  0  4  0  0  0  0  0  0
    1.1428   -2.0057   -2.7468 O   0  0  0  0  0  0  0  0  0  0  0  0
    1.7767   -2.1887   -0.6398 O   0  0  0  0  0  1  0  0  0  0  0  0
   -0.5105    0.0161   -1.5137 C   0  0  0  0  0  0  0  0  0  0  0  0
   -4.8308    0.9554   -1.2139 C   0  0  0  0  0  0  0  0  0  0  0  0
   -5.6989   -0.2881   -1.0565 C   0  0  0  0  0  0  0  0  0  0  0  0
   -6.9565    0.6413    1.2696 H   0  0  0  0  0  0  0  0  0  0  0  0
   -7.8003   -0.8083    0.6984 H   0  0  0  0  0  0  0  0  0  0  0  0
   -6.8474   -0.8723    2.1876 H   0  0  0  0  0  0  0  0  0  0  0  0
   -5.6703   -1.9530    0.2890 H   0  0  0  0  0  0  0  0  0  0  0  0
   -4.5195    0.5055    1.6333 H   0  0  0  0  0  0  0  0  0  0  0  0
   -4.1445   -1.1937    1.8927 H   0  0  0  0  0  0  0  0  0  0  0  0
   -2.2902   -0.0473    0.7413 H   0  0  0  0  0  0  0  0  0  0  0  0
   -2.9930   -1.2690   -0.3365 H   0  0  0  0  0  0  0  0  0  0  0  0
   -0.6083    3.2586   -0.4661 H   0  0  0  0  0  0  0  0  0  0  0  0
    1.8046    2.8479   -0.1732 H   0  0  0  0  0  0  0  0  0  0  0  0
    3.1651   -1.0257    1.0417 H   0  0  0  0  0  0  0  0  0  0  0  0
    3.3567    0.6257    1.6501 H   0  0  0  0  0  0  0  0  0  0  0  0
    5.6714    1.6876    1.7493 H   0  0  0  0  0  0  0  0  0  0  0  0
    8.0816    1.2533    2.0417 H   0  0  0  0  0  0  0  0  0  0  0  0
    9.0179   -0.9978    1.5783 H   0  0  0  0  0  0  0  0  0  0  0  0
    7.5093   -2.8307    0.8165 H   0  0  0  0  0  0  0  0  0  0  0  0
   -1.1564   -0.7551   -1.9300 H   0  0  0  0  0  0  0  0  0  0  0  0
   -5.1859    1.7622   -0.5615 H   0  0  0  0  0  0  0  0  0  0  0  0
   -4.8867    1.3205   -2.2458 H   0  0  0  0  0  0  0  0  0  0  0  0
   -5.3275   -1.0568   -1.7475 H   0  0  0  0  0  0  0  0  0  0  0  0
   -6.7286   -0.0708   -1.3628 H   0  0  0  0  0  0  0  0  0  0  0  0
  1  2  1  0
  2  3  1  0
  3  4  1  0
  4  5  1  0
  5  6  1  0
  6  7  2  0
  6  8  1  0
  8  9  2  0
  9 10  1  0
 10 11  2  0
 11 12  1  0
 12 13  2  0
 12 14  2  0
 12 15  1  0
 15 16  1  0
 16 17  2  0
 17 18  1  0
 18 19  2  0
 19 20  1  0
 20 21  2  0
 21 22  1  0
 11 23  1  0
 23 24  1  0
 24 25  2  0
 24 26  1  0
 23 27  2  0
  5 28  1  0
 28 29  1  0
 29  2  1  0
 27  8  1  0
 21 16  1  0
  1 30  1  0
  1 31  1  0
  1 32  1  0
  2 33  1  0
  3 34  1  0
  3 35  1  0
  4 36  1  0
  4 37  1  0
  9 38  1  0
 10 39  1  0
 15 40  1  0
 15 41  1  0
 17 42  1  0
 18 43  1  0
 19 44  1  0
 20 45  1  0
 27 46  1  0
 28 47  1  0
 28 48  1  0
 29 49  1  0
 29 50  1  0
M  CHG  2  24   1  26  -1
M  END
$$$$
