
     RDKit          3D

 37 37  0  0  0  0  0  0  0  0999 V2000
    5.4341   -1.3685    0.5302 C   0  0  0  0  0  0  0  0  0  0  0  0
    4.2212   -0.5909    0.0421 C   0  0  0  0  0  0  0  0  0  0  0  0
    3.9627    0.6408    0.9106 C   0  0  0  0  0  0  0  0  0  0  0  0
    2.8224    1.5227    0.3935 C   0  0  0  0  0  0  0  0  0  0  0  0
    1.4516    0.8435    0.4548 C   0  0  0  0  0  0  0  0  0  0  0  0
    0.3393    1.8068    0.0315 C   0  0  0  0  0  0  0  0  0  0  0  0
   -1.0652    1.2151    0.1780 C   0  0  0  0  0  0  0  0  0  0  0  0
   -1.3326    0.0418   -0.7685 C   0  0  0  0  0  0  0  0  0  0  0  0
   -2.7356   -0.3940   -0.6605 N   0  0  0  0  0  0  0  0  0  0  0  0
   -3.1259   -1.3318    0.2874 C   0  0  0  0  0  0  0  0  0  0  0  0
   -4.3849   -1.7541    0.4641 C   0  0  0  0  0  0  0  0  0  0  0  0
   -5.4425   -1.1782   -0.4085 C   0  0  0  0  0  0  0  0  0  0  0  0
   -6.6874   -1.5200   -0.3247 N   0  0  0  0  0  0  0  0  0  0  0  0
   -5.0195   -0.1666   -1.4076 C   0  0  0  0  0  0  0  0  0  0  0  0
   -3.7220    0.1577   -1.4690 C   0  0  0  0  0  0  0  0  0  0  0  0
    5.6001   -2.2471   -0.1011 H   0  0  0  0  0  0  0  0  0  0  0  0
    6.3369   -0.7504    0.4956 H   0  0  0  0  0  0  0  0  0  0  0  0
    5.2913   -1.7118    1.5599 H   0  0  0  0  0  0  0  0  0  0  0  0
    3.3515   -1.2563    0.0552 H   0  0  0  0  0  0  0  0  0  0  0  0
    4.3846   -0.2864   -0.9981 H   0  0  0  0  0  0  0  0  0  0  0  0
    3.7491    0.3300    1.9406 H   0  0  0  0  0  0  0  0  0  0  0  0
    4.8746    1.2497    0.9480 H   0  0  0  0  0  0  0  0  0  0  0  0
    3.0359    1.8339   -0.6364 H   0  0  0  0  0  0  0  0  0  0  0  0
    2.7969    2.4364    1.0004 H   0  0  0  0  0  0  0  0  0  0  0  0
    1.2623    0.4894    1.4752 H   0  0  0  0  0  0  0  0  0  0  0  0
    1.4473   -0.0316   -0.2023 H   0  0  0  0  0  0  0  0  0  0  0  0
    0.3939    2.7113    0.6500 H   0  0  0  0  0  0  0  0  0  0  0  0
    0.4987    2.1241   -1.0062 H   0  0  0  0  0  0  0  0  0  0  0  0
   -1.7939    2.0119   -0.0190 H   0  0  0  0  0  0  0  0  0  0  0  0
   -1.2266    0.9017    1.2170 H   0  0  0  0  0  0  0  0  0  0  0  0
   -0.6701   -0.8004   -0.5368 H   0  0  0  0  0  0  0  0  0  0  0  0
   -1.1093    0.3337   -1.8025 H   0  0  0  0  0  0  0  0  0  0  0  0
   -2.3193   -1.7198    0.9030 H   0  0  0  0  0  0  0  0  0  0  0  0
   -4.6543   -2.4866    1.2103 H   0  0  0  0  0  0  0  0  0  0  0  0
   -6.8199   -2.2228    0.4076 H   0  0  0  0  0  0  0  0  0  0  0  0
   -5.7754    0.2702   -2.0447 H   0  0  0  0  0  0  0  0  0  0  0  0
   -3.3702    0.8968   -2.1830 H   0  0  0  0  0  0  0  0  0  0  0  0
  1  2  1  0
  2  3  1  0
  3  4  1  0
  4  5  1  0
  5  6  1  0
  6  7  1  0
  7  8  1  0
  8  9  1  0
  9 10  1  0
 10 11  2  0
 11 12  1  0
 12 13  2  3
 12 14  1  0
 14 15  2  0
 15  9  1  0
  1 16  1  0
  1 17  1  0
  1 18  1  0
  2 19  1  0
  2 20  1  0
  3 21  1  0
  3 22  1  0
  4 23  1  0
  4 24  1  0
  5 25  1  0
  5 26  1  0
  6 27  1  0
  6 28  1  0
  7 29  1  0
  7 30  1  0
  8 31  1  0
  8 32  1  0
 10 33  1  0
 11 34  1  0
 13 35  1  0
 14 36  1  0
 15 37  1  0
M  END
$$$$
