
     RDKit          3D

 57 61  0  0  0  0  0  0  0  0999 V2000
    7.2979   -0.0135   -3.7002 C   0  0  0  0  0  0  0  0  0  0  0  0
    6.7515    0.7230   -2.6137 O   0  0  0  0  0  0  0  0  0  0  0  0
    6.0578    0.0139   -1.6723 C   0  0  0  0  0  0  0  0  0  0  0  0
    5.8428   -1.3643   -1.6753 C   0  0  0  0  0  0  0  0  0  0  0  0
    5.1098   -1.9660   -0.6452 C   0  0  0  0  0  0  0  0  0  0  0  0
    4.5885   -1.1978    0.4040 C   0  0  0  0  0  0  0  0  0  0  0  0
    3.7742   -1.8334    1.4997 C   0  0  0  0  0  0  0  0  0  0  0  0
    2.3626   -1.7050    1.2137 N   0  0  0  0  0  0  0  0  0  0  0  0
    1.5695   -0.7938    1.8667 C   0  0  0  0  0  0  0  0  0  0  0  0
    1.9597   -0.1270    2.8215 O   0  0  0  0  0  0  0  0  0  0  0  0
    0.1558   -0.6867    1.3999 C   0  0  0  0  0  0  0  0  0  0  0  0
   -0.1997   -0.9372    0.1281 C   0  0  0  0  0  0  0  0  0  0  0  0
   -1.5751   -0.8577   -0.3412 C   0  0  0  0  0  0  0  0  0  0  0  0
   -1.8836   -1.2166   -1.7547 C   0  0  0  0  0  0  0  0  0  0  0  0
   -0.9791   -1.6128   -2.4941 O   0  0  0  0  0  0  0  0  0  0  0  0
   -3.2046   -1.0873   -2.1411 N   0  0  0  0  0  0  0  0  0  0  0  0
   -3.5681   -1.3774   -3.4520 C   0  0  0  0  0  0  0  0  0  0  0  0
   -4.8369   -1.2837   -3.8685 C   0  0  0  0  0  0  0  0  0  0  0  0
   -5.8639   -0.8758   -2.9480 C   0  0  0  0  0  0  0  0  0  0  0  0
   -5.5591   -0.5910   -1.6764 C   0  0  0  0  0  0  0  0  0  0  0  0
   -4.1469   -0.6934   -1.2099 C   0  0  0  0  0  0  0  0  0  0  0  0
   -3.8821   -0.4149    0.0258 N   0  0  0  0  0  0  0  0  0  0  0  0
   -2.5820   -0.4753    0.4759 C   0  0  0  0  0  0  0  0  0  0  0  0
   -2.2703   -0.1364    1.8147 N   0  0  0  0  0  0  0  0  0  0  0  0
   -3.3282    0.3915    2.6940 C   0  0  0  0  0  0  0  0  0  0  0  0
   -3.5452    1.8707    2.4867 C   0  0  0  0  0  0  0  0  0  0  0  0
   -2.7034    2.8267    3.0621 C   0  0  0  0  0  0  0  0  0  0  0  0
   -2.9374    4.1804    2.8396 C   0  0  0  0  0  0  0  0  0  0  0  0
   -4.0131    4.5376    2.0444 C   0  0  0  0  0  0  0  0  0  0  0  0
   -4.8494    3.6483    1.4678 N   0  0  0  0  0  0  0  0  0  0  0  0
   -4.5918    2.3392    1.6989 C   0  0  0  0  0  0  0  0  0  0  0  0
   -0.9589   -0.2134    2.3075 C   0  0  0  0  0  0  0  0  0  0  0  0
   -0.7018    0.1177    3.5433 N   0  0  0  0  0  0  0  0  0  0  0  0
    4.8012    0.1862    0.3970 C   0  0  0  0  0  0  0  0  0  0  0  0
    5.5327    0.7830   -0.6321 C   0  0  0  0  0  0  0  0  0  0  0  0
    6.5090   -0.4975   -4.2856 H   0  0  0  0  0  0  0  0  0  0  0  0
    8.0364   -0.7430   -3.3513 H   0  0  0  0  0  0  0  0  0  0  0  0
    7.8134    0.6933   -4.3575 H   0  0  0  0  0  0  0  0  0  0  0  0
    6.2297   -2.0005   -2.4640 H   0  0  0  0  0  0  0  0  0  0  0  0
    4.9513   -3.0419   -0.6706 H   0  0  0  0  0  0  0  0  0  0  0  0
    3.9962   -2.9039    1.5710 H   0  0  0  0  0  0  0  0  0  0  0  0
    4.0256   -1.3861    2.4677 H   0  0  0  0  0  0  0  0  0  0  0  0
    2.0019   -2.2583    0.4511 H   0  0  0  0  0  0  0  0  0  0  0  0
    0.5394   -1.2037   -0.6220 H   0  0  0  0  0  0  0  0  0  0  0  0
   -2.7753   -1.6840   -4.1299 H   0  0  0  0  0  0  0  0  0  0  0  0
   -5.1115   -1.5099   -4.8938 H   0  0  0  0  0  0  0  0  0  0  0  0
   -6.8851   -0.8030   -3.3083 H   0  0  0  0  0  0  0  0  0  0  0  0
   -6.3029   -0.2777   -0.9545 H   0  0  0  0  0  0  0  0  0  0  0  0
   -3.1100    0.2057    3.7536 H   0  0  0  0  0  0  0  0  0  0  0  0
   -4.2688   -0.1510    2.5282 H   0  0  0  0  0  0  0  0  0  0  0  0
   -1.8635    2.5187    3.6817 H   0  0  0  0  0  0  0  0  0  0  0  0
   -2.2945    4.9358    3.2765 H   0  0  0  0  0  0  0  0  0  0  0  0
   -4.2363    5.5812    1.8429 H   0  0  0  0  0  0  0  0  0  0  0  0
   -5.2790    1.6530    1.2118 H   0  0  0  0  0  0  0  0  0  0  0  0
    0.3144    0.0484    3.7311 H   0  0  0  0  0  0  0  0  0  0  0  0
    4.3942    0.8079    1.1930 H   0  0  0  0  0  0  0  0  0  0  0  0
    5.6920    1.8586   -0.6237 H   0  0  0  0  0  0  0  0  0  0  0  0
  1  2  1  0
  2  3  1  0
  3  4  2  0
  4  5  1  0
  5  6  2  0
  6  7  1  0
  7  8  1  0
  8  9  1  0
  9 10  2  0
  9 11  1  0
 11 12  2  0
 12 13  1  0
 13 14  1  0
 14 15  2  0
 14 16  1  0
 16 17  1  0
 17 18  2  0
 18 19  1  0
 19 20  2  0
 20 21  1  0
 21 22  2  0
 22 23  1  0
 23 24  1  0
 24 25  1  0
 25 26  1  0
 26 27  2  0
 27 28  1  0
 28 29  2  0
 29 30  1  0
 30 31  2  0
 24 32  1  0
 32 33  2  3
  6 34  1  0
 34 35  2  0
 35  3  1  0
 32 11  1  0
 23 13  2  0
 31 26  1  0
 21 16  1  0
  1 36  1  0
  1 37  1  0
  1 38  1  0
  4 39  1  0
  5 40  1  0
  7 41  1  0
  7 42  1  0
  8 43  1  0
 12 44  1  0
 17 45  1  0
 18 46  1  0
 19 47  1  0
 20 48  1  0
 25 49  1  0
 25 50  1  0
 27 51  1  0
 28 52  1  0
 29 53  1  0
 31 54  1  0
 33 55  1  0
 34 56  1  0
 35 57  1  0
M  END
$$$$
