
     RDKit          3D

 53 56  0  0  0  0  0  0  0  0999 V2000
    7.8889   -0.5618    0.9885 C   0  0  0  0  0  0  0  0  0  0  0  0
    6.9409   -0.0261    1.9023 O   0  0  0  0  0  0  0  0  0  0  0  0
    5.6379   -0.4068    1.7371 C   0  0  0  0  0  0  0  0  0  0  0  0
    5.1496   -1.2552    0.7433 C   0  0  0  0  0  0  0  0  0  0  0  0
    3.7849   -1.5634    0.6872 C   0  0  0  0  0  0  0  0  0  0  0  0
    2.8928   -1.0328    1.6284 C   0  0  0  0  0  0  0  0  0  0  0  0
    1.4199   -1.3384    1.5561 C   0  0  0  0  0  0  0  0  0  0  0  0
    0.7214   -0.2936    0.8422 N   0  0  0  0  0  0  0  0  0  0  0  0
    0.0264    0.7107    1.5027 C   0  0  0  0  0  0  0  0  0  0  0  0
   -0.0817    0.7194    2.7274 O   0  0  0  0  0  0  0  0  0  0  0  0
   -0.4970    1.8170    0.5931 C   0  0  0  0  0  0  0  0  0  0  0  0
   -1.2583    2.8384    1.3297 C   0  0  0  0  0  0  0  0  0  0  0  0
   -1.8493    3.6892    1.8585 N   0  0  0  0  0  0  0  0  0  0  0  0
   -1.2672    1.2682   -0.5876 C   0  0  0  0  0  0  0  0  0  0  0  0
   -0.7028    1.4525   -1.8178 N   0  0  0  0  0  0  0  0  0  0  0  0
   -1.3753    0.9666   -2.8763 C   0  0  0  0  0  0  0  0  0  0  0  0
   -0.8640    1.1428   -4.1565 C   0  0  0  0  0  0  0  0  0  0  0  0
   -1.5322    0.6513   -5.2788 C   0  0  0  0  0  0  0  0  0  0  0  0
   -2.7321   -0.0287   -5.1177 C   0  0  0  0  0  0  0  0  0  0  0  0
   -3.2527   -0.2109   -3.8357 C   0  0  0  0  0  0  0  0  0  0  0  0
   -2.5958    0.2747   -2.7116 C   0  0  0  0  0  0  0  0  0  0  0  0
   -3.1298    0.0730   -1.4927 N   0  0  0  0  0  0  0  0  0  0  0  0
   -2.4691    0.5657   -0.4213 C   0  0  0  0  0  0  0  0  0  0  0  0
   -2.9934    0.3646    0.8650 N   0  0  0  0  0  0  0  0  0  0  0  0
   -4.3176    1.0104    1.0185 C   0  0  0  0  0  0  0  0  0  0  0  0
   -5.3063   -0.1280    1.2423 C   0  0  0  0  0  0  0  0  0  0  0  0
   -4.4563   -1.1628    1.9509 C   0  0  0  0  0  0  0  0  0  0  0  0
   -3.1405   -1.0703    1.1885 C   0  0  0  0  0  0  0  0  0  0  0  0
    3.3880   -0.1752    2.6180 C   0  0  0  0  0  0  0  0  0  0  0  0
    4.7496    0.1310    2.6704 C   0  0  0  0  0  0  0  0  0  0  0  0
    7.6752   -0.2394   -0.0359 H   0  0  0  0  0  0  0  0  0  0  0  0
    8.8741   -0.1713    1.2614 H   0  0  0  0  0  0  0  0  0  0  0  0
    7.9326   -1.6537    1.0590 H   0  0  0  0  0  0  0  0  0  0  0  0
    5.8021   -1.6930   -0.0044 H   0  0  0  0  0  0  0  0  0  0  0  0
    3.4259   -2.2243   -0.0987 H   0  0  0  0  0  0  0  0  0  0  0  0
    1.2503   -2.2732    1.0104 H   0  0  0  0  0  0  0  0  0  0  0  0
    1.0065   -1.4719    2.5619 H   0  0  0  0  0  0  0  0  0  0  0  0
    0.9408   -0.1782   -0.1410 H   0  0  0  0  0  0  0  0  0  0  0  0
    0.4028    2.3157    0.2036 H   0  0  0  0  0  0  0  0  0  0  0  0
    0.0736    1.6789   -4.2824 H   0  0  0  0  0  0  0  0  0  0  0  0
   -1.1160    0.8034   -6.2717 H   0  0  0  0  0  0  0  0  0  0  0  0
   -3.2654   -0.4156   -5.9826 H   0  0  0  0  0  0  0  0  0  0  0  0
   -4.1930   -0.7421   -3.7077 H   0  0  0  0  0  0  0  0  0  0  0  0
   -4.2798    1.6455    1.9116 H   0  0  0  0  0  0  0  0  0  0  0  0
   -4.6165    1.6466    0.1766 H   0  0  0  0  0  0  0  0  0  0  0  0
   -6.1763    0.1821    1.8275 H   0  0  0  0  0  0  0  0  0  0  0  0
   -5.6582   -0.5202    0.2807 H   0  0  0  0  0  0  0  0  0  0  0  0
   -4.8901   -2.1659    1.9190 H   0  0  0  0  0  0  0  0  0  0  0  0
   -4.3100   -0.8810    3.0006 H   0  0  0  0  0  0  0  0  0  0  0  0
   -3.1888   -1.7114    0.2989 H   0  0  0  0  0  0  0  0  0  0  0  0
   -2.3027   -1.4113    1.8057 H   0  0  0  0  0  0  0  0  0  0  0  0
    2.7138    0.2621    3.3533 H   0  0  0  0  0  0  0  0  0  0  0  0
    5.1204    0.7967    3.4462 H   0  0  0  0  0  0  0  0  0  0  0  0
  1  2  1  0
  2  3  1  0
  3  4  2  0
  4  5  1  0
  5  6  2  0
  6  7  1  0
  7  8  1  0
  8  9  1  0
  9 10  2  0
  9 11  1  0
 11 12  1  0
 12 13  3  0
 11 14  1  0
 14 15  2  0
 15 16  1  0
 16 17  2  0
 17 18  1  0
 18 19  2  0
 19 20  1  0
 20 21  2  0
 21 22  1  0
 22 23  2  0
 23 24  1  0
 24 25  1  0
 25 26  1  0
 26 27  1  0
 27 28  1  0
  6 29  1  0
 29 30  2  0
 30  3  1  0
 23 14  1  0
 28 24  1  0
 21 16  1  0
  1 31  1  0
  1 32  1  0
  1 33  1  0
  4 34  1  0
  5 35  1  0
  7 36  1  0
  7 37  1  0
  8 38  1  0
 11 39  1  0
 17 40  1  0
 18 41  1  0
 19 42  1  0
 20 43  1  0
 25 44  1  0
 25 45  1  0
 26 46  1  0
 26 47  1  0
 27 48  1  0
 27 49  1  0
 28 50  1  0
 28 51  1  0
 29 52  1  0
 30 53  1  0
M  END
$$$$
