
     RDKit          3D

 50 53  0  0  0  0  0  0  0  0999 V2000
   -9.9901    1.0255   -0.1961 C   0  0  0  0  0  0  0  0  0  0  0  0
   -8.6125    0.4317   -0.2707 C   0  0  0  0  0  0  0  0  0  0  0  0
   -8.4395   -0.9520   -0.3511 C   0  0  0  0  0  0  0  0  0  0  0  0
   -7.1561   -1.5090   -0.3809 C   0  0  0  0  0  0  0  0  0  0  0  0
   -6.0228   -0.6691   -0.3281 C   0  0  0  0  0  0  0  0  0  0  0  0
   -4.7042   -1.0800   -0.3341 N   0  0  0  0  0  0  0  0  0  0  0  0
   -3.8842   -0.0453   -0.3017 C   0  0  0  0  0  0  0  0  0  0  0  0
   -2.4096   -0.1700   -0.3311 C   0  0  0  0  0  0  0  0  0  0  0  0
   -1.8378   -1.4557   -0.3513 C   0  0  0  0  0  0  0  0  0  0  0  0
   -0.4487   -1.6405   -0.4022 C   0  0  0  0  0  0  0  0  0  0  0  0
    0.4080   -0.5425   -0.4314 C   0  0  0  0  0  0  0  0  0  0  0  0
    1.8122   -0.6371   -0.5122 N   0  0  0  0  0  0  0  0  0  0  0  0
    2.5818   -1.7833   -0.5126 C   0  0  0  0  0  0  0  0  0  0  0  0
    2.1896   -2.9361   -0.3398 O   0  0  0  0  0  0  0  0  0  0  0  0
    4.0643   -1.5196   -0.7297 C   0  0  0  0  0  0  0  0  0  0  0  0
    4.8327   -1.7453    0.5630 C   0  0  0  0  0  0  0  0  0  0  0  0
    4.8208   -0.3140    1.6328 S   0  0  0  0  0  6  0  0  0  0  0  0
    3.6241    0.4676    1.3620 O   0  0  0  0  0  0  0  0  0  0  0  0
    5.1388   -0.7493    2.9817 O   0  0  0  0  0  0  0  0  0  0  0  0
    6.1947    0.6644    1.0515 C   0  0  0  0  0  0  0  0  0  0  0  0
    5.9441    1.8646    0.3630 C   0  0  0  0  0  0  0  0  0  0  0  0
    7.0174    2.6497   -0.0682 C   0  0  0  0  0  0  0  0  0  0  0  0
    8.3307    2.2408    0.1918 C   0  0  0  0  0  0  0  0  0  0  0  0
    8.5739    1.0499    0.8925 C   0  0  0  0  0  0  0  0  0  0  0  0
    7.5061    0.2575    1.3329 C   0  0  0  0  0  0  0  0  0  0  0  0
   -0.1461    0.7444   -0.3989 C   0  0  0  0  0  0  0  0  0  0  0  0
   -1.5352    0.9291   -0.3487 C   0  0  0  0  0  0  0  0  0  0  0  0
   -4.6744    1.4828   -0.2405 S   0  0  0  0  0  0  0  0  0  0  0  0
   -6.2105    0.7084   -0.2645 C   0  0  0  0  0  0  0  0  0  0  0  0
   -7.4926    1.2778   -0.2353 C   0  0  0  0  0  0  0  0  0  0  0  0
  -10.7604    0.2575   -0.3308 H   0  0  0  0  0  0  0  0  0  0  0  0
  -10.1267    1.7861   -0.9782 H   0  0  0  0  0  0  0  0  0  0  0  0
  -10.1375    1.4923    0.7861 H   0  0  0  0  0  0  0  0  0  0  0  0
   -9.3018   -1.6141   -0.3846 H   0  0  0  0  0  0  0  0  0  0  0  0
   -7.0250   -2.5833   -0.4318 H   0  0  0  0  0  0  0  0  0  0  0  0
   -2.4793   -2.3363   -0.3218 H   0  0  0  0  0  0  0  0  0  0  0  0
   -0.0764   -2.6603   -0.4144 H   0  0  0  0  0  0  0  0  0  0  0  0
    2.3084    0.2491   -0.4298 H   0  0  0  0  0  0  0  0  0  0  0  0
    4.3955   -2.2384   -1.4889 H   0  0  0  0  0  0  0  0  0  0  0  0
    4.2357   -0.5192   -1.1431 H   0  0  0  0  0  0  0  0  0  0  0  0
    4.4079   -2.5710    1.1498 H   0  0  0  0  0  0  0  0  0  0  0  0
    5.8786   -1.9967    0.3614 H   0  0  0  0  0  0  0  0  0  0  0  0
    4.9252    2.2075    0.1751 H   0  0  0  0  0  0  0  0  0  0  0  0
    6.8313    3.5879   -0.5957 H   0  0  0  0  0  0  0  0  0  0  0  0
    9.1641    2.8631   -0.1406 H   0  0  0  0  0  0  0  0  0  0  0  0
    9.6005    0.7466    1.1067 H   0  0  0  0  0  0  0  0  0  0  0  0
    7.7114   -0.6558    1.8984 H   0  0  0  0  0  0  0  0  0  0  0  0
    0.4911    1.6270   -0.4175 H   0  0  0  0  0  0  0  0  0  0  0  0
   -1.9069    1.9560   -0.3193 H   0  0  0  0  0  0  0  0  0  0  0  0
   -7.6108    2.3567   -0.1795 H   0  0  0  0  0  0  0  0  0  0  0  0
  1  2  1  0
  2  3  2  0
  3  4  1  0
  4  5  2  0
  5  6  1  0
  6  7  2  0
  7  8  1  0
  8  9  2  0
  9 10  1  0
 10 11  2  0
 11 12  1  0
 12 13  1  0
 13 14  2  0
 13 15  1  0
 15 16  1  0
 16 17  1  0
 17 18  2  0
 17 19  2  0
 17 20  1  0
 20 21  2  0
 21 22  1  0
 22 23  2  0
 23 24  1  0
 24 25  2  0
 11 26  1  0
 26 27  2  0
  7 28  1  0
 28 29  1  0
 29 30  2  0
 30  2  1  0
 29  5  1  0
 27  8  1  0
 25 20  1  0
  1 31  1  0
  1 32  1  0
  1 33  1  0
  3 34  1  0
  4 35  1  0
  9 36  1  0
 10 37  1  0
 12 38  1  0
 15 39  1  0
 15 40  1  0
 16 41  1  0
 16 42  1  0
 21 43  1  0
 22 44  1  0
 23 45  1  0
 24 46  1  0
 25 47  1  0
 26 48  1  0
 27 49  1  0
 30 50  1  0
M  END
$$$$
