
     RDKit          3D

 60 61  0  0  0  0  0  0  0  0999 V2000
   -6.5552   -0.8827    0.5937 C   0  0  0  0  0  0  0  0  0  0  0  0
   -5.8622    0.3031    0.2234 O   0  0  0  0  0  0  0  0  0  0  0  0
   -4.5138    0.3421    0.4591 C   0  0  0  0  0  0  0  0  0  0  0  0
   -3.9049    1.5514    0.1102 C   0  0  0  0  0  0  0  0  0  0  0  0
   -2.5324    1.7424    0.2887 C   0  0  0  0  0  0  0  0  0  0  0  0
   -1.8626    2.8849   -0.0723 O   0  0  0  0  0  0  0  0  0  0  0  0
   -2.6424    4.0259   -0.4059 C   0  0  0  0  0  0  0  0  0  0  0  0
   -1.7590    0.6963    0.8289 C   0  0  0  0  0  0  0  0  0  0  0  0
   -0.3192    0.8709    1.0152 C   0  0  0  0  0  0  0  0  0  0  0  0
    0.1591    1.6479    1.9992 N   0  0  0  0  0  0  0  0  0  0  0  0
    1.5323    1.5597    1.9201 O   0  0  0  0  0  0  0  0  0  0  0  0
    1.8890    0.7433    0.8885 C   0  0  0  0  0  0  0  0  0  0  0  0
    3.2865    0.5892    0.5858 C   0  0  0  0  0  0  0  0  0  0  0  0
    3.7442    0.2177   -0.4856 O   0  0  0  0  0  0  0  0  0  0  0  0
    4.0316    0.9481    1.6683 O   0  0  0  0  0  0  0  0  0  0  0  0
    5.4802    0.8977    1.6295 C   0  0  0  0  0  0  0  0  0  0  0  0
    5.9830   -0.5332    1.4104 C   0  0  0  0  0  0  0  0  0  0  0  0
    6.0433    1.8702    0.5876 C   0  0  0  0  0  0  0  0  0  0  0  0
    5.9231    1.3643    3.0248 C   0  0  0  0  0  0  0  0  0  0  0  0
    0.7434    0.2564    0.2921 C   0  0  0  0  0  0  0  0  0  0  0  0
    0.6819   -0.6890   -0.7942 C   0  0  0  0  0  0  0  0  0  0  0  0
    1.5325   -1.5466   -0.9835 O   0  0  0  0  0  0  0  0  0  0  0  0
   -0.4370   -0.5234   -1.5495 O   0  0  0  0  0  0  0  0  0  0  0  0
   -0.7269   -1.3943   -2.6699 C   0  0  0  0  0  0  0  0  0  0  0  0
   -0.9142   -2.8450   -2.2128 C   0  0  0  0  0  0  0  0  0  0  0  0
    0.3394   -1.2681   -3.7624 C   0  0  0  0  0  0  0  0  0  0  0  0
   -2.0641   -0.8785   -3.2234 C   0  0  0  0  0  0  0  0  0  0  0  0
   -2.3667   -0.5317    1.1710 C   0  0  0  0  0  0  0  0  0  0  0  0
   -1.5315   -1.5081    1.6585 O   0  0  0  0  0  0  0  0  0  0  0  0
   -2.1121   -2.7323    2.0855 C   0  0  0  0  0  0  0  0  0  0  0  0
   -3.7447   -0.6972    0.9852 C   0  0  0  0  0  0  0  0  0  0  0  0
   -6.4718   -1.0697    1.6694 H   0  0  0  0  0  0  0  0  0  0  0  0
   -6.2026   -1.7416    0.0132 H   0  0  0  0  0  0  0  0  0  0  0  0
   -7.6147   -0.7371    0.3624 H   0  0  0  0  0  0  0  0  0  0  0  0
   -4.5349    2.3269   -0.3141 H   0  0  0  0  0  0  0  0  0  0  0  0
   -1.9584    4.8683   -0.5452 H   0  0  0  0  0  0  0  0  0  0  0  0
   -3.3330    4.2881    0.4028 H   0  0  0  0  0  0  0  0  0  0  0  0
   -3.1763    3.8718   -1.3492 H   0  0  0  0  0  0  0  0  0  0  0  0
    5.5013   -1.2258    2.1094 H   0  0  0  0  0  0  0  0  0  0  0  0
    5.7575   -0.8967    0.4036 H   0  0  0  0  0  0  0  0  0  0  0  0
    7.0679   -0.5995    1.5461 H   0  0  0  0  0  0  0  0  0  0  0  0
    7.1318    1.9583    0.6719 H   0  0  0  0  0  0  0  0  0  0  0  0
    5.6028    2.8664    0.7072 H   0  0  0  0  0  0  0  0  0  0  0  0
    5.8199    1.5493   -0.4342 H   0  0  0  0  0  0  0  0  0  0  0  0
    5.5049    0.7155    3.8033 H   0  0  0  0  0  0  0  0  0  0  0  0
    7.0135    1.3677    3.1262 H   0  0  0  0  0  0  0  0  0  0  0  0
    5.5529    2.3747    3.2336 H   0  0  0  0  0  0  0  0  0  0  0  0
    0.0255   -3.2912   -1.8727 H   0  0  0  0  0  0  0  0  0  0  0  0
   -1.2987   -3.4713   -3.0250 H   0  0  0  0  0  0  0  0  0  0  0  0
   -1.6116   -2.9011   -1.3690 H   0  0  0  0  0  0  0  0  0  0  0  0
    0.5176   -0.2165   -4.0126 H   0  0  0  0  0  0  0  0  0  0  0  0
    0.0403   -1.7973   -4.6735 H   0  0  0  0  0  0  0  0  0  0  0  0
    1.3017   -1.6813   -3.4444 H   0  0  0  0  0  0  0  0  0  0  0  0
   -1.9844    0.1745   -3.5180 H   0  0  0  0  0  0  0  0  0  0  0  0
   -2.8473   -0.9255   -2.4575 H   0  0  0  0  0  0  0  0  0  0  0  0
   -2.3954   -1.4571   -4.0921 H   0  0  0  0  0  0  0  0  0  0  0  0
   -2.8305   -2.5685    2.8949 H   0  0  0  0  0  0  0  0  0  0  0  0
   -2.5731   -3.2614    1.2457 H   0  0  0  0  0  0  0  0  0  0  0  0
   -1.3087   -3.3647    2.4757 H   0  0  0  0  0  0  0  0  0  0  0  0
   -4.2167   -1.6361    1.2421 H   0  0  0  0  0  0  0  0  0  0  0  0
  1  2  1  0
  2  3  1  0
  3  4  2  0
  4  5  1  0
  5  6  1  0
  6  7  1  0
  5  8  2  0
  8  9  1  0
  9 10  2  0
 10 11  1  0
 11 12  1  0
 12 13  1  0
 13 14  2  0
 13 15  1  0
 15 16  1  0
 16 17  1  0
 16 18  1  0
 16 19  1  0
 12 20  2  0
 20 21  1  0
 21 22  2  0
 21 23  1  0
 23 24  1  0
 24 25  1  0
 24 26  1  0
 24 27  1  0
  8 28  1  0
 28 29  1  0
 29 30  1  0
 28 31  2  0
 31  3  1  0
 20  9  1  0
  1 32  1  0
  1 33  1  0
  1 34  1  0
  4 35  1  0
  7 36  1  0
  7 37  1  0
  7 38  1  0
 17 39  1  0
 17 40  1  0
 17 41  1  0
 18 42  1  0
 18 43  1  0
 18 44  1  0
 19 45  1  0
 19 46  1  0
 19 47  1  0
 25 48  1  0
 25 49  1  0
 25 50  1  0
 26 51  1  0
 26 52  1  0
 26 53  1  0
 27 54  1  0
 27 55  1  0
 27 56  1  0
 30 57  1  0
 30 58  1  0
 30 59  1  0
 31 60  1  0
M  END
$$$$
