
     RDKit          3D

 32 32  0  0  0  0  0  0  0  0999 V2000
    6.5926   -0.8628    0.8391 C   0  0  0  0  0  0  0  0  0  0  0  0
    5.1487   -1.0239    0.3989 C   0  0  0  0  0  0  0  0  0  0  0  0
    4.3854    0.6079    0.1635 S   0  0  0  0  0  0  0  0  0  0  0  0
    2.7576    0.1432   -0.2739 C   0  0  0  0  0  0  0  0  0  0  0  0
    2.3836   -1.1081   -0.4245 N   0  0  0  0  0  0  0  0  0  0  0  0
    1.0539   -1.2125   -0.7775 N   0  0  0  0  0  0  0  0  0  0  0  0
    0.4552   -0.0453   -0.8336 C   0  0  0  0  0  0  0  0  0  0  0  0
   -0.8457    0.1022   -1.2097 N   0  0  0  0  0  0  0  0  0  0  0  0
   -1.9034    0.1938   -0.1231 C   0  0  0  0  0  0  0  0  0  0  0  0
   -3.0016    0.5921   -1.0344 N   0  0  0  0  0  0  0  0  0  0  0  0
   -4.3039    0.7155   -0.6405 C   0  0  0  0  0  0  0  0  0  0  0  0
   -5.2268    1.2820   -1.6854 C   0  0  0  0  0  0  0  0  0  0  0  0
   -4.6994    0.3646    0.4606 O   0  0  0  0  0  0  0  0  0  0  0  0
   -2.0942   -1.1577    0.6372 C   0  0  0  0  0  0  0  0  0  0  0  0
   -3.0410   -1.1517    1.5912 F   0  0  0  0  0  0  0  0  0  0  0  0
   -2.4161   -2.1388   -0.2509 F   0  0  0  0  0  0  0  0  0  0  0  0
   -0.9481   -1.5559    1.2407 F   0  0  0  0  0  0  0  0  0  0  0  0
   -1.6313    1.2267    1.0064 C   0  0  0  0  0  0  0  0  0  0  0  0
   -1.4091    2.4592    0.4711 F   0  0  0  0  0  0  0  0  0  0  0  0
   -2.6547    1.3714    1.8725 F   0  0  0  0  0  0  0  0  0  0  0  0
   -0.5378    0.9203    1.7417 F   0  0  0  0  0  0  0  0  0  0  0  0
    1.5129    1.2847   -0.5574 S   0  0  0  0  0  0  0  0  0  0  0  0
    6.6654   -0.3254    1.7908 H   0  0  0  0  0  0  0  0  0  0  0  0
    7.0503   -1.8474    0.9797 H   0  0  0  0  0  0  0  0  0  0  0  0
    7.1852   -0.3271    0.0896 H   0  0  0  0  0  0  0  0  0  0  0  0
    5.1118   -1.5843   -0.5409 H   0  0  0  0  0  0  0  0  0  0  0  0
    4.5942   -1.5834    1.1593 H   0  0  0  0  0  0  0  0  0  0  0  0
   -1.1092   -0.7304   -1.7450 H   0  0  0  0  0  0  0  0  0  0  0  0
   -2.6920    1.1241   -1.8369 H   0  0  0  0  0  0  0  0  0  0  0  0
   -5.8421    0.4753   -2.0927 H   0  0  0  0  0  0  0  0  0  0  0  0
   -5.8680    2.0390   -1.2243 H   0  0  0  0  0  0  0  0  0  0  0  0
   -4.6723    1.7527   -2.5020 H   0  0  0  0  0  0  0  0  0  0  0  0
  1  2  1  0
  2  3  1  0
  3  4  1  0
  4  5  2  0
  5  6  1  0
  6  7  2  0
  7  8  1  0
  8  9  1  0
  9 10  1  0
 10 11  1  0
 11 12  1  0
 11 13  2  0
  9 14  1  0
 14 15  1  0
 14 16  1  0
 14 17  1  0
  9 18  1  0
 18 19  1  0
 18 20  1  0
 18 21  1  0
  7 22  1  0
 22  4  1  0
  1 23  1  0
  1 24  1  0
  1 25  1  0
  2 26  1  0
  2 27  1  0
  8 28  1  0
 10 29  1  0
 12 30  1  0
 12 31  1  0
 12 32  1  0
M  END
$$$$
