
     RDKit          3D

 37 38  0  0  0  0  0  0  0  0999 V2000
    4.4338    1.2360   -2.1381 C   0  0  0  0  0  0  0  0  0  0  0  0
    3.3176    1.3110   -1.2598 O   0  0  0  0  0  0  0  0  0  0  0  0
    2.9074    0.1577   -0.6440 C   0  0  0  0  0  0  0  0  0  0  0  0
    3.4365   -1.1082   -0.9413 C   0  0  0  0  0  0  0  0  0  0  0  0
    3.0282   -2.2395   -0.2337 C   0  0  0  0  0  0  0  0  0  0  0  0
    2.0839   -2.1196    0.7792 C   0  0  0  0  0  0  0  0  0  0  0  0
    1.5241   -0.8696    1.0671 C   0  0  0  0  0  0  0  0  0  0  0  0
    0.5235   -0.8284    2.1500 C   0  0  0  0  0  0  0  0  0  0  0  0
    0.7223   -1.3378    3.2433 O   0  0  0  0  0  0  0  0  0  0  0  0
   -0.6310   -0.3004    1.6477 O   0  0  0  0  0  0  0  0  0  0  0  0
   -1.6514   -0.3704    2.6157 N   0  0  0  0  0  0  0  0  0  0  0  0
   -2.8456   -0.3455    2.0954 C   0  0  0  0  0  0  0  0  0  0  0  0
   -3.9156   -0.4842    2.9432 N   0  0  0  0  0  0  0  0  0  0  0  0
   -3.1382   -0.1826    0.6495 C   0  0  0  0  0  0  0  0  0  0  0  0
   -2.6939    0.9451   -0.0328 C   0  0  0  0  0  0  0  0  0  0  0  0
   -3.0269    1.0520   -1.3694 C   0  0  0  0  0  0  0  0  0  0  0  0
   -3.7594    0.1315   -2.0356 N   0  0  0  0  0  0  0  0  0  0  0  0
   -4.1808   -0.9463   -1.3369 C   0  0  0  0  0  0  0  0  0  0  0  0
   -3.9057   -1.1468    0.0019 C   0  0  0  0  0  0  0  0  0  0  0  0
    1.9162    0.2746    0.3530 C   0  0  0  0  0  0  0  0  0  0  0  0
    1.3706    1.4718    0.7458 O   0  0  0  0  0  0  0  0  0  0  0  0
    0.8929    2.2796   -0.3264 C   0  0  0  0  0  0  0  0  0  0  0  0
    5.3102    0.8111   -1.6382 H   0  0  0  0  0  0  0  0  0  0  0  0
    4.1790    0.6705   -3.0422 H   0  0  0  0  0  0  0  0  0  0  0  0
    4.6876    2.2568   -2.4431 H   0  0  0  0  0  0  0  0  0  0  0  0
    4.1851   -1.2480   -1.7152 H   0  0  0  0  0  0  0  0  0  0  0  0
    3.4580   -3.2130   -0.4655 H   0  0  0  0  0  0  0  0  0  0  0  0
    1.7799   -2.9973    1.3456 H   0  0  0  0  0  0  0  0  0  0  0  0
   -3.6421   -0.3605    3.9145 H   0  0  0  0  0  0  0  0  0  0  0  0
   -4.7518    0.0334    2.6997 H   0  0  0  0  0  0  0  0  0  0  0  0
   -2.1152    1.7135    0.4655 H   0  0  0  0  0  0  0  0  0  0  0  0
   -2.7103    1.9068   -1.9600 H   0  0  0  0  0  0  0  0  0  0  0  0
   -4.7647   -1.6660   -1.9037 H   0  0  0  0  0  0  0  0  0  0  0  0
   -4.2641   -2.0281    0.5214 H   0  0  0  0  0  0  0  0  0  0  0  0
    0.0759    2.8896    0.0632 H   0  0  0  0  0  0  0  0  0  0  0  0
    0.4941    1.6846   -1.1561 H   0  0  0  0  0  0  0  0  0  0  0  0
    1.6700    2.9666   -0.6776 H   0  0  0  0  0  0  0  0  0  0  0  0
  1  2  1  0
  2  3  1  0
  3  4  2  0
  4  5  1  0
  5  6  2  0
  6  7  1  0
  7  8  1  0
  8  9  2  0
  8 10  1  0
 10 11  1  0
 11 12  2  3
 12 13  1  0
 12 14  1  0
 14 15  2  0
 15 16  1  0
 16 17  2  0
 17 18  1  0
 18 19  2  0
  7 20  2  0
 20 21  1  0
 21 22  1  0
 20  3  1  0
 19 14  1  0
  1 23  1  0
  1 24  1  0
  1 25  1  0
  4 26  1  0
  5 27  1  0
  6 28  1  0
 13 29  1  0
 13 30  1  0
 15 31  1  0
 16 32  1  0
 18 33  1  0
 19 34  1  0
 22 35  1  0
 22 36  1  0
 22 37  1  0
M  END
$$$$
