
     RDKit          3D

 40 42  0  0  0  0  0  0  0  0999 V2000
   -5.5299    1.3968    1.4678 C   0  0  0  0  0  0  0  0  0  0  0  0
   -4.4293    0.8817    0.5429 C   0  0  0  0  0  0  0  0  0  0  0  0
   -3.0378    1.1087    1.1666 C   0  0  0  0  0  0  0  0  0  0  0  0
   -1.9071    0.6941    0.2109 C   0  0  0  0  0  0  0  0  0  0  0  0
   -2.1693   -0.6359   -0.4427 C   0  0  0  0  0  0  0  0  0  0  0  0
   -1.2369   -1.4460   -1.1974 C   0  0  0  0  0  0  0  0  0  0  0  0
    0.1921   -1.2123   -1.4361 C   0  0  0  0  0  0  0  0  0  0  0  0
    0.6730   -1.3526   -2.5534 O   0  0  0  0  0  0  0  0  0  0  0  0
    0.8836   -0.9023   -0.2819 N   0  0  0  0  0  0  0  0  0  0  0  0
    2.2491   -0.5842   -0.1535 C   0  0  0  0  0  0  0  0  0  0  0  0
    3.1219   -0.4322   -1.2309 C   0  0  0  0  0  0  0  0  0  0  0  0
    4.4707   -0.1069   -1.0225 C   0  0  0  0  0  0  0  0  0  0  0  0
    4.9623    0.0730    0.2688 C   0  0  0  0  0  0  0  0  0  0  0  0
    6.2431    0.3888    0.6169 O   0  0  0  0  0  0  0  0  0  0  0  0
    7.1889    0.5573   -0.4254 C   0  0  0  0  0  0  0  0  0  0  0  0
    7.3354   -0.5782   -1.1404 F   0  0  0  0  0  0  0  0  0  0  0  0
    6.8343    1.5682   -1.2471 F   0  0  0  0  0  0  0  0  0  0  0  0
    8.3855    0.8643    0.1235 F   0  0  0  0  0  0  0  0  0  0  0  0
    4.0884   -0.0748    1.3479 C   0  0  0  0  0  0  0  0  0  0  0  0
    2.7439   -0.3987    1.1408 C   0  0  0  0  0  0  0  0  0  0  0  0
   -1.8800   -2.5349   -1.7627 C   0  0  0  0  0  0  0  0  0  0  0  0
   -3.5288   -2.6346   -1.3382 S   0  0  0  0  0  0  0  0  0  0  0  0
   -3.4395   -1.1869   -0.4539 C   0  0  0  0  0  0  0  0  0  0  0  0
   -4.6468   -0.6123    0.2245 C   0  0  0  0  0  0  0  0  0  0  0  0
   -6.5164    1.2498    1.0158 H   0  0  0  0  0  0  0  0  0  0  0  0
   -5.4052    2.4676    1.6602 H   0  0  0  0  0  0  0  0  0  0  0  0
   -5.5168    0.8763    2.4314 H   0  0  0  0  0  0  0  0  0  0  0  0
   -4.4801    1.4512   -0.3955 H   0  0  0  0  0  0  0  0  0  0  0  0
   -2.9076    2.1633    1.4373 H   0  0  0  0  0  0  0  0  0  0  0  0
   -2.9568    0.5296    2.0963 H   0  0  0  0  0  0  0  0  0  0  0  0
   -1.8062    1.4498   -0.5782 H   0  0  0  0  0  0  0  0  0  0  0  0
   -0.9695    0.6846    0.7731 H   0  0  0  0  0  0  0  0  0  0  0  0
    0.3597   -0.9865    0.5787 H   0  0  0  0  0  0  0  0  0  0  0  0
    2.7879   -0.5564   -2.2571 H   0  0  0  0  0  0  0  0  0  0  0  0
    5.0984   -0.0051   -1.9036 H   0  0  0  0  0  0  0  0  0  0  0  0
    4.4545    0.0617    2.3634 H   0  0  0  0  0  0  0  0  0  0  0  0
    2.0974   -0.5054    2.0080 H   0  0  0  0  0  0  0  0  0  0  0  0
   -1.4421   -3.2921   -2.4006 H   0  0  0  0  0  0  0  0  0  0  0  0
   -5.5380   -0.7240   -0.4049 H   0  0  0  0  0  0  0  0  0  0  0  0
   -4.8258   -1.1731    1.1511 H   0  0  0  0  0  0  0  0  0  0  0  0
  1  2  1  0
  2  3  1  0
  3  4  1  0
  4  5  1  0
  5  6  1  0
  6  7  1  0
  7  8  2  0
  7  9  1  0
  9 10  1  0
 10 11  2  0
 11 12  1  0
 12 13  2  0
 13 14  1  0
 14 15  1  0
 15 16  1  0
 15 17  1  0
 15 18  1  0
 13 19  1  0
 19 20  2  0
  6 21  2  0
 21 22  1  0
 22 23  1  0
 23 24  1  0
 24  2  1  0
 23  5  2  0
 20 10  1  0
  1 25  1  0
  1 26  1  0
  1 27  1  0
  2 28  1  0
  3 29  1  0
  3 30  1  0
  4 31  1  0
  4 32  1  0
  9 33  1  0
 11 34  1  0
 12 35  1  0
 19 36  1  0
 20 37  1  0
 21 38  1  0
 24 39  1  0
 24 40  1  0
M  END
$$$$
