
     RDKit          3D

 38 39  0  0  0  0  0  0  0  0999 V2000
    0.6591   -2.3829    0.1169 O   0  0  0  0  0  0  0  0  0  0  0  0
   -0.3066   -2.6746   -0.5692 C   0  0  0  0  0  0  0  0  0  0  0  0
   -0.2853   -3.7495   -1.3782 O   0  0  0  0  0  0  0  0  0  0  0  0
   -1.6091   -1.9295   -0.6568 C   0  0  0  0  0  0  0  0  0  0  0  0
   -1.7497   -0.8780    0.4414 C   0  0  0  0  0  0  0  0  0  0  0  0
   -1.4743    0.5213   -0.0931 C   0  0  0  0  0  0  0  0  0  0  0  0
   -0.2954    1.0657   -0.1600 N   0  0  0  0  0  0  0  0  0  0  0  0
    0.8096    0.3898    0.2487 N   0  0  0  0  0  0  0  0  0  0  0  0
    2.0403    1.0238    0.2300 C   0  0  0  0  0  0  0  0  0  0  0  0
    2.2534    2.1758   -0.1358 O   0  0  0  0  0  0  0  0  0  0  0  0
    3.1929    0.1787    0.6241 C   0  0  0  0  0  0  0  0  0  0  0  0
    4.2854    0.1704   -0.2579 C   0  0  0  0  0  0  0  0  0  0  0  0
    5.4154   -0.5994    0.0194 C   0  0  0  0  0  0  0  0  0  0  0  0
    5.4675   -1.3564    1.1872 C   0  0  0  0  0  0  0  0  0  0  0  0
    4.3940   -1.3387    2.0795 C   0  0  0  0  0  0  0  0  0  0  0  0
    3.2556   -0.5692    1.8063 C   0  0  0  0  0  0  0  0  0  0  0  0
    1.8926   -0.5565    3.1288 Br  0  0  0  0  0  0  0  0  0  0  0  0
   -2.6409    1.3427   -0.5724 C   0  0  0  0  0  0  0  0  0  0  0  0
   -2.4967    2.7365   -0.6465 C   0  0  0  0  0  0  0  0  0  0  0  0
   -3.5518    3.5372   -1.0885 C   0  0  0  0  0  0  0  0  0  0  0  0
   -4.7585    2.9525   -1.4667 C   0  0  0  0  0  0  0  0  0  0  0  0
   -4.9099    1.5679   -1.4060 C   0  0  0  0  0  0  0  0  0  0  0  0
   -3.8557    0.7634   -0.9622 C   0  0  0  0  0  0  0  0  0  0  0  0
    0.5963   -4.1553   -1.2463 H   0  0  0  0  0  0  0  0  0  0  0  0
   -2.4087   -2.6682   -0.5311 H   0  0  0  0  0  0  0  0  0  0  0  0
   -1.6881   -1.4929   -1.6575 H   0  0  0  0  0  0  0  0  0  0  0  0
   -2.7728   -0.9049    0.8358 H   0  0  0  0  0  0  0  0  0  0  0  0
   -1.1173   -1.0771    1.3118 H   0  0  0  0  0  0  0  0  0  0  0  0
    0.7593   -0.5952    0.5043 H   0  0  0  0  0  0  0  0  0  0  0  0
    4.2517    0.7693   -1.1672 H   0  0  0  0  0  0  0  0  0  0  0  0
    6.2547   -0.6011   -0.6718 H   0  0  0  0  0  0  0  0  0  0  0  0
    6.3493   -1.9524    1.4096 H   0  0  0  0  0  0  0  0  0  0  0  0
    4.4624   -1.9190    2.9968 H   0  0  0  0  0  0  0  0  0  0  0  0
   -1.5578    3.2101   -0.3605 H   0  0  0  0  0  0  0  0  0  0  0  0
   -3.4256    4.6166   -1.1408 H   0  0  0  0  0  0  0  0  0  0  0  0
   -5.5782    3.5760   -1.8143 H   0  0  0  0  0  0  0  0  0  0  0  0
   -5.8499    1.1133   -1.7111 H   0  0  0  0  0  0  0  0  0  0  0  0
   -4.0073   -0.3105   -0.9486 H   0  0  0  0  0  0  0  0  0  0  0  0
  1  2  2  0
  2  3  1  0
  2  4  1  0
  4  5  1  0
  5  6  1  0
  6  7  2  3
  7  8  1  0
  8  9  1  0
  9 10  2  0
  9 11  1  0
 11 12  2  0
 12 13  1  0
 13 14  2  0
 14 15  1  0
 15 16  2  0
 16 17  1  0
  6 18  1  0
 18 19  2  0
 19 20  1  0
 20 21  2  0
 21 22  1  0
 22 23  2  0
 16 11  1  0
 23 18  1  0
  3 24  1  0
  4 25  1  0
  4 26  1  0
  5 27  1  0
  5 28  1  0
  8 29  1  0
 12 30  1  0
 13 31  1  0
 14 32  1  0
 15 33  1  0
 19 34  1  0
 20 35  1  0
 21 36  1  0
 22 37  1  0
 23 38  1  0
M  END
$$$$
