
     RDKit          3D

 58 61  0  0  0  0  0  0  0  0999 V2000
   -6.3007    3.4138    0.3968 C   0  0  0  0  0  0  0  0  0  0  0  0
   -4.8301    3.1787    0.5781 C   0  0  0  0  0  0  0  0  0  0  0  0
   -4.0665    4.0474    1.3642 C   0  0  0  0  0  0  0  0  0  0  0  0
   -2.6938    3.8486    1.5041 C   0  0  0  0  0  0  0  0  0  0  0  0
   -2.0698    2.7844    0.8497 C   0  0  0  0  0  0  0  0  0  0  0  0
   -2.8096    1.9068    0.0442 C   0  0  0  0  0  0  0  0  0  0  0  0
   -2.1829    0.7913   -0.6608 C   0  0  0  0  0  0  0  0  0  0  0  0
   -2.7428   -0.1405   -1.4082 N   0  0  0  0  0  0  0  0  0  0  0  0
   -1.6654   -0.9038   -1.8336 C   0  0  0  0  0  0  0  0  0  0  0  0
   -1.8191   -2.2983   -2.8325 S   0  0  0  0  0  6  0  0  0  0  0  0
   -0.4674   -2.6651   -3.2197 O   0  0  0  0  0  0  0  0  0  0  0  0
   -2.8325   -1.9754   -3.8174 O   0  0  0  0  0  0  0  0  0  0  0  0
   -2.4608   -3.5499   -1.7527 C   0  0  0  0  0  0  0  0  0  0  0  0
   -1.6128   -4.5498   -1.2618 C   0  0  0  0  0  0  0  0  0  0  0  0
   -2.1340   -5.5392   -0.4267 C   0  0  0  0  0  0  0  0  0  0  0  0
   -3.4876   -5.5226   -0.1002 C   0  0  0  0  0  0  0  0  0  0  0  0
   -3.9824   -6.4747    0.7012 F   0  0  0  0  0  0  0  0  0  0  0  0
   -4.3360   -4.5360   -0.5953 C   0  0  0  0  0  0  0  0  0  0  0  0
   -3.8244   -3.5431   -1.4316 C   0  0  0  0  0  0  0  0  0  0  0  0
   -0.4938   -0.4153   -1.2959 C   0  0  0  0  0  0  0  0  0  0  0  0
    0.8041   -0.7861   -1.3532 N   0  0  0  0  0  0  0  0  0  0  0  0
    1.8720    0.1057   -0.9190 C   0  0  0  0  0  0  0  0  0  0  0  0
    2.1443   -0.0831    0.5736 C   0  0  0  0  0  0  0  0  0  0  0  0
    3.1725    0.9184    1.1139 C   0  0  0  0  0  0  0  0  0  0  0  0
    4.4722    0.8571    0.4330 N   0  0  0  0  0  0  0  0  0  0  0  0
    5.2614   -0.3481    0.7755 C   0  0  0  0  0  0  0  0  0  0  0  0
    6.3956   -0.0813    1.7788 C   0  0  0  0  0  0  0  0  0  0  0  0
    7.3387    0.8949    1.3183 O   0  0  0  0  0  0  0  0  0  0  0  0
    6.7561    1.8691    0.4408 C   0  0  0  0  0  0  0  0  0  0  0  0
    5.2583    2.0829    0.7032 C   0  0  0  0  0  0  0  0  0  0  0  0
   -0.8233    0.6748   -0.5412 O   0  0  0  0  0  0  0  0  0  0  0  0
   -4.1916    2.1203   -0.0854 C   0  0  0  0  0  0  0  0  0  0  0  0
   -6.8248    2.4770    0.1810 H   0  0  0  0  0  0  0  0  0  0  0  0
   -6.7423    3.8289    1.3081 H   0  0  0  0  0  0  0  0  0  0  0  0
   -6.4697    4.1109   -0.4292 H   0  0  0  0  0  0  0  0  0  0  0  0
   -4.5380    4.8859    1.8725 H   0  0  0  0  0  0  0  0  0  0  0  0
   -2.1080    4.5262    2.1202 H   0  0  0  0  0  0  0  0  0  0  0  0
   -0.9974    2.6511    0.9721 H   0  0  0  0  0  0  0  0  0  0  0  0
   -0.5563   -4.5684   -1.5215 H   0  0  0  0  0  0  0  0  0  0  0  0
   -1.4969   -6.3249   -0.0312 H   0  0  0  0  0  0  0  0  0  0  0  0
   -5.3887   -4.5499   -0.3288 H   0  0  0  0  0  0  0  0  0  0  0  0
   -4.4860   -2.7732   -1.8258 H   0  0  0  0  0  0  0  0  0  0  0  0
    1.0774   -1.4560   -2.0770 H   0  0  0  0  0  0  0  0  0  0  0  0
    2.7728   -0.1416   -1.4926 H   0  0  0  0  0  0  0  0  0  0  0  0
    1.6308    1.1506   -1.1505 H   0  0  0  0  0  0  0  0  0  0  0  0
    1.2149    0.0474    1.1414 H   0  0  0  0  0  0  0  0  0  0  0  0
    2.4640   -1.1145    0.7609 H   0  0  0  0  0  0  0  0  0  0  0  0
    3.2960    0.7694    2.1941 H   0  0  0  0  0  0  0  0  0  0  0  0
    2.7431    1.9213    0.9837 H   0  0  0  0  0  0  0  0  0  0  0  0
    5.7106   -0.7044   -0.1600 H   0  0  0  0  0  0  0  0  0  0  0  0
    4.6338   -1.1652    1.1451 H   0  0  0  0  0  0  0  0  0  0  0  0
    5.9915    0.2596    2.7390 H   0  0  0  0  0  0  0  0  0  0  0  0
    6.9509   -1.0049    1.9711 H   0  0  0  0  0  0  0  0  0  0  0  0
    7.3019    2.8069    0.5890 H   0  0  0  0  0  0  0  0  0  0  0  0
    6.9311    1.5494   -0.5931 H   0  0  0  0  0  0  0  0  0  0  0  0
    4.8864    2.8921    0.0655 H   0  0  0  0  0  0  0  0  0  0  0  0
    5.1329    2.3916    1.7494 H   0  0  0  0  0  0  0  0  0  0  0  0
   -4.7777    1.4527   -0.7166 H   0  0  0  0  0  0  0  0  0  0  0  0
  1  2  1  0
  2  3  2  0
  3  4  1  0
  4  5  2  0
  5  6  1  0
  6  7  1  0
  7  8  2  0
  8  9  1  0
  9 10  1  0
 10 11  2  0
 10 12  2  0
 10 13  1  0
 13 14  2  0
 14 15  1  0
 15 16  2  0
 16 17  1  0
 16 18  1  0
 18 19  2  0
  9 20  2  0
 20 21  1  0
 21 22  1  0
 22 23  1  0
 23 24  1  0
 24 25  1  0
 25 26  1  0
 26 27  1  0
 27 28  1  0
 28 29  1  0
 29 30  1  0
 20 31  1  0
  6 32  2  0
 32  2  1  0
 31  7  1  0
 19 13  1  0
 30 25  1  0
  1 33  1  0
  1 34  1  0
  1 35  1  0
  3 36  1  0
  4 37  1  0
  5 38  1  0
 14 39  1  0
 15 40  1  0
 18 41  1  0
 19 42  1  0
 21 43  1  0
 22 44  1  0
 22 45  1  0
 23 46  1  0
 23 47  1  0
 24 48  1  0
 24 49  1  0
 26 50  1  0
 26 51  1  0
 27 52  1  0
 27 53  1  0
 29 54  1  0
 29 55  1  0
 30 56  1  0
 30 57  1  0
 32 58  1  0
M  END
$$$$
