
     RDKit          3D

 72 74  0  0  0  0  0  0  0  0999 V2000
   10.6372    0.3211   -2.2399 C   0  0  0  0  0  0  0  0  0  0  0  0
   10.2708    1.5410   -1.4046 C   0  0  0  0  0  0  0  0  0  0  0  0
    8.7710    1.8560   -1.4062 C   0  0  0  0  0  0  0  0  0  0  0  0
    7.9123    0.7460   -0.7962 C   0  0  0  0  0  0  0  0  0  0  0  0
    6.4277    1.1220   -0.8153 C   0  0  0  0  0  0  0  0  0  0  0  0
    5.5598   -0.0431   -0.3333 C   0  0  0  0  0  0  0  0  0  0  0  0
    4.0647    0.2830   -0.2648 C   0  0  0  0  0  0  0  0  0  0  0  0
    3.4669    0.6723   -1.6197 C   0  0  0  0  0  0  0  0  0  0  0  0
    1.9378    0.7330   -1.6139 C   0  0  0  0  0  0  0  0  0  0  0  0
    1.2896   -0.6463   -1.5261 C   0  0  0  0  0  0  0  0  0  0  0  0
   -0.1369   -0.5304   -1.6807 O   0  0  0  0  0  0  0  0  0  0  0  0
   -0.8486   -0.3592   -0.5349 C   0  0  0  0  0  0  0  0  0  0  0  0
   -0.3778   -0.2187    0.5884 O   0  0  0  0  0  0  0  0  0  0  0  0
   -2.3415   -0.3625   -0.8287 C   0  0  0  0  0  0  0  0  0  0  0  0
   -3.0833   -0.9720    0.2981 N   0  0  0  0  0  0  0  0  0  0  0  0
   -3.4423   -0.3118    1.4259 C   0  0  0  0  0  0  0  0  0  0  0  0
   -3.2543    1.1758    1.6987 C   0  0  0  0  0  0  0  0  0  0  0  0
   -3.9866    1.9797    0.7673 O   0  0  0  0  0  0  0  0  0  0  0  0
   -5.3281    1.9455    1.0425 C   0  0  0  0  0  0  0  0  0  0  0  0
   -5.8531    2.6313    2.1359 C   0  0  0  0  0  0  0  0  0  0  0  0
   -7.2205    2.5608    2.3957 C   0  0  0  0  0  0  0  0  0  0  0  0
   -8.0559    1.8228    1.5541 C   0  0  0  0  0  0  0  0  0  0  0  0
   -7.5318    1.1461    0.4433 C   0  0  0  0  0  0  0  0  0  0  0  0
   -8.4470    0.4193   -0.4978 C   0  0  0  0  0  0  0  0  0  0  0  0
   -6.1595    1.2300    0.1799 C   0  0  0  0  0  0  0  0  0  0  0  0
   -4.0341   -1.2161    2.2433 N   0  0  0  0  0  4  0  0  0  0  0  0
   -4.5945   -0.8959    3.5541 C   0  0  0  0  0  0  0  0  0  0  0  0
   -4.0365   -2.4724    1.6442 C   0  0  0  0  0  0  0  0  0  0  0  0
   -4.5098   -3.7094    2.0814 C   0  0  0  0  0  0  0  0  0  0  0  0
   -4.3234   -4.7903    1.2084 C   0  0  0  0  0  0  0  0  0  0  0  0
   -3.6941   -4.6328   -0.0392 C   0  0  0  0  0  0  0  0  0  0  0  0
   -3.2270   -3.3843   -0.4736 C   0  0  0  0  0  0  0  0  0  0  0  0
   -3.4186   -2.3159    0.4009 C   0  0  0  0  0  0  0  0  0  0  0  0
   10.2808   -0.5981   -1.7699 H   0  0  0  0  0  0  0  0  0  0  0  0
   11.7257    0.2374   -2.3312 H   0  0  0  0  0  0  0  0  0  0  0  0
   10.2131    0.3850   -3.2454 H   0  0  0  0  0  0  0  0  0  0  0  0
   10.8062    2.4094   -1.8057 H   0  0  0  0  0  0  0  0  0  0  0  0
   10.6225    1.3942   -0.3749 H   0  0  0  0  0  0  0  0  0  0  0  0
    8.4452    2.0499   -2.4364 H   0  0  0  0  0  0  0  0  0  0  0  0
    8.6109    2.7858   -0.8432 H   0  0  0  0  0  0  0  0  0  0  0  0
    8.2303    0.5581    0.2342 H   0  0  0  0  0  0  0  0  0  0  0  0
    8.0516   -0.1865   -1.3524 H   0  0  0  0  0  0  0  0  0  0  0  0
    6.1433    1.3999   -1.8368 H   0  0  0  0  0  0  0  0  0  0  0  0
    6.2576    1.9980   -0.1781 H   0  0  0  0  0  0  0  0  0  0  0  0
    5.8937   -0.3544    0.6659 H   0  0  0  0  0  0  0  0  0  0  0  0
    5.7085   -0.9076   -0.9950 H   0  0  0  0  0  0  0  0  0  0  0  0
    3.5560   -0.5999    0.1335 H   0  0  0  0  0  0  0  0  0  0  0  0
    3.8970    1.0942    0.4534 H   0  0  0  0  0  0  0  0  0  0  0  0
    3.8400    1.6624   -1.9022 H   0  0  0  0  0  0  0  0  0  0  0  0
    3.8012   -0.0272   -2.3949 H   0  0  0  0  0  0  0  0  0  0  0  0
    1.5970    1.2217   -2.5363 H   0  0  0  0  0  0  0  0  0  0  0  0
    1.5846    1.3711   -0.7943 H   0  0  0  0  0  0  0  0  0  0  0  0
    1.6418   -1.2842   -2.3467 H   0  0  0  0  0  0  0  0  0  0  0  0
    1.5330   -1.1667   -0.5916 H   0  0  0  0  0  0  0  0  0  0  0  0
   -2.6803    0.6632   -0.9912 H   0  0  0  0  0  0  0  0  0  0  0  0
   -2.5482   -0.9383   -1.7360 H   0  0  0  0  0  0  0  0  0  0  0  0
   -3.5113    1.3824    2.7404 H   0  0  0  0  0  0  0  0  0  0  0  0
   -2.1879    1.3702    1.5681 H   0  0  0  0  0  0  0  0  0  0  0  0
   -5.2189    3.2434    2.7728 H   0  0  0  0  0  0  0  0  0  0  0  0
   -7.6422    3.1008    3.2413 H   0  0  0  0  0  0  0  0  0  0  0  0
   -9.1265    1.7970    1.7584 H   0  0  0  0  0  0  0  0  0  0  0  0
   -8.7956    1.0992   -1.2850 H   0  0  0  0  0  0  0  0  0  0  0  0
   -9.3153    0.0171    0.0354 H   0  0  0  0  0  0  0  0  0  0  0  0
   -7.9329   -0.4275   -0.9667 H   0  0  0  0  0  0  0  0  0  0  0  0
   -5.7450    0.7504   -0.7021 H   0  0  0  0  0  0  0  0  0  0  0  0
   -4.9508   -1.7932    4.0635 H   0  0  0  0  0  0  0  0  0  0  0  0
   -3.8160   -0.4386    4.1699 H   0  0  0  0  0  0  0  0  0  0  0  0
   -5.4294   -0.2017    3.4258 H   0  0  0  0  0  0  0  0  0  0  0  0
   -4.9898   -3.8358    3.0435 H   0  0  0  0  0  0  0  0  0  0  0  0
   -4.6714   -5.7822    1.5056 H   0  0  0  0  0  0  0  0  0  0  0  0
   -3.5688   -5.5046   -0.6840 H   0  0  0  0  0  0  0  0  0  0  0  0
   -2.7425   -3.2689   -1.4337 H   0  0  0  0  0  0  0  0  0  0  0  0
  1  2  1  0
  2  3  1  0
  3  4  1  0
  4  5  1  0
  5  6  1  0
  6  7  1  0
  7  8  1  0
  8  9  1  0
  9 10  1  0
 10 11  1  0
 11 12  1  0
 12 13  2  0
 12 14  1  0
 14 15  1  0
 15 16  1  0
 16 17  1  0
 17 18  1  0
 18 19  1  0
 19 20  2  0
 20 21  1  0
 21 22  2  0
 22 23  1  0
 23 24  1  0
 23 25  2  0
 16 26  2  0
 26 27  1  0
 26 28  1  0
 28 29  2  0
 29 30  1  0
 30 31  2  0
 31 32  1  0
 32 33  2  0
 33 15  1  0
 25 19  1  0
 33 28  1  0
  1 34  1  0
  1 35  1  0
  1 36  1  0
  2 37  1  0
  2 38  1  0
  3 39  1  0
  3 40  1  0
  4 41  1  0
  4 42  1  0
  5 43  1  0
  5 44  1  0
  6 45  1  0
  6 46  1  0
  7 47  1  0
  7 48  1  0
  8 49  1  0
  8 50  1  0
  9 51  1  0
  9 52  1  0
 10 53  1  0
 10 54  1  0
 14 55  1  0
 14 56  1  0
 17 57  1  0
 17 58  1  0
 20 59  1  0
 21 60  1  0
 22 61  1  0
 24 62  1  0
 24 63  1  0
 24 64  1  0
 25 65  1  0
 27 66  1  0
 27 67  1  0
 27 68  1  0
 29 69  1  0
 30 70  1  0
 31 71  1  0
 32 72  1  0
M  CHG  1  26   1
M  END
$$$$
