
     RDKit          3D

 59 62  0  0  0  0  0  0  0  0999 V2000
    0.1169   -3.3156   -2.9889 O   0  0  0  0  0  0  0  0  0  0  0  0
    0.2436   -2.1220   -2.6990 C   0  0  0  0  0  0  0  0  0  0  0  0
   -0.8879   -1.1356   -3.0261 C   0  0  0  0  0  0  0  0  0  0  0  0
   -1.4830   -0.5467   -1.8048 N   0  0  0  0  0  0  0  0  0  0  0  0
   -2.4882    0.4765   -2.1807 C   0  0  0  0  0  0  0  0  0  0  0  0
   -3.2180    1.0806   -0.9568 C   0  0  0  0  0  0  0  0  0  0  0  0
   -3.8634    0.0018   -0.1787 N   0  0  0  0  0  0  0  0  0  0  0  0
   -4.6192    0.5248    0.8910 C   0  0  0  0  0  0  0  0  0  0  0  0
   -4.0841    0.5016    2.1380 N   0  0  0  0  0  0  0  0  0  0  0  0
   -4.8075    0.9990    3.1701 C   0  0  0  0  0  0  0  0  0  0  0  0
   -6.0784    1.5309    3.0419 C   0  0  0  0  0  0  0  0  0  0  0  0
   -6.7978    2.0799    4.2337 C   0  0  0  0  0  0  0  0  0  0  0  0
   -6.4019    1.5167    5.4078 F   0  0  0  0  0  0  0  0  0  0  0  0
   -6.6065    3.4194    4.3779 F   0  0  0  0  0  0  0  0  0  0  0  0
   -8.1460    1.8979    4.1702 F   0  0  0  0  0  0  0  0  0  0  0  0
   -6.6326    1.5576    1.7608 C   0  0  0  0  0  0  0  0  0  0  0  0
   -5.9088    1.0486    0.6790 C   0  0  0  0  0  0  0  0  0  0  0  0
   -6.6788    1.0485   -0.8704 Cl  0  0  0  0  0  0  0  0  0  0  0  0
   -2.8695   -1.0042    0.2540 C   0  0  0  0  0  0  0  0  0  0  0  0
   -2.1479   -1.5926   -0.9823 C   0  0  0  0  0  0  0  0  0  0  0  0
    1.3917   -1.6394   -2.0893 N   0  0  0  0  0  0  0  0  0  0  0  0
    1.6095   -0.2472   -1.6799 C   0  0  0  0  0  0  0  0  0  0  0  0
    3.0995    0.1560   -1.6679 C   0  0  0  0  0  0  0  0  0  0  0  0
    3.9594   -0.8055   -0.9431 N   0  0  0  0  0  0  0  0  0  0  0  0
    4.8008   -0.2495    0.0299 C   0  0  0  0  0  0  0  0  0  0  0  0
    4.6475   -0.6737    1.3106 N   0  0  0  0  0  0  0  0  0  0  0  0
    5.4425   -0.1599    2.2784 C   0  0  0  0  0  0  0  0  0  0  0  0
    6.4278    0.7835    2.0524 C   0  0  0  0  0  0  0  0  0  0  0  0
    7.2596    1.2806    3.1917 C   0  0  0  0  0  0  0  0  0  0  0  0
    8.0923    2.3006    2.8484 F   0  0  0  0  0  0  0  0  0  0  0  0
    8.0544    0.3097    3.7185 F   0  0  0  0  0  0  0  0  0  0  0  0
    6.5042    1.7474    4.2231 F   0  0  0  0  0  0  0  0  0  0  0  0
    6.6071    1.2112    0.7377 C   0  0  0  0  0  0  0  0  0  0  0  0
    5.7978    0.6962   -0.2807 C   0  0  0  0  0  0  0  0  0  0  0  0
    6.1373    1.2248   -1.8933 Cl  0  0  0  0  0  0  0  0  0  0  0  0
    3.3127   -2.0724   -0.5525 C   0  0  0  0  0  0  0  0  0  0  0  0
    2.4308   -2.5966   -1.6963 C   0  0  0  0  0  0  0  0  0  0  0  0
   -1.6454   -1.6662   -3.6169 H   0  0  0  0  0  0  0  0  0  0  0  0
   -0.4726   -0.3572   -3.6764 H   0  0  0  0  0  0  0  0  0  0  0  0
   -3.2361    0.0425   -2.8584 H   0  0  0  0  0  0  0  0  0  0  0  0
   -1.9898    1.2920   -2.7187 H   0  0  0  0  0  0  0  0  0  0  0  0
   -3.9505    1.8084   -1.3229 H   0  0  0  0  0  0  0  0  0  0  0  0
   -2.4963    1.6253   -0.3324 H   0  0  0  0  0  0  0  0  0  0  0  0
   -4.3070    0.9484    4.1353 H   0  0  0  0  0  0  0  0  0  0  0  0
   -7.6314    1.9615    1.6053 H   0  0  0  0  0  0  0  0  0  0  0  0
   -2.1185   -0.5620    0.9232 H   0  0  0  0  0  0  0  0  0  0  0  0
   -3.3685   -1.8230    0.7876 H   0  0  0  0  0  0  0  0  0  0  0  0
   -2.8773   -2.1447   -1.5900 H   0  0  0  0  0  0  0  0  0  0  0  0
   -1.4041   -2.3118   -0.6206 H   0  0  0  0  0  0  0  0  0  0  0  0
    1.1913   -0.1448   -0.6717 H   0  0  0  0  0  0  0  0  0  0  0  0
    1.0667    0.4357   -2.3372 H   0  0  0  0  0  0  0  0  0  0  0  0
    3.4504    0.1964   -2.7062 H   0  0  0  0  0  0  0  0  0  0  0  0
    3.1699    1.1699   -1.2538 H   0  0  0  0  0  0  0  0  0  0  0  0
    5.2481   -0.5502    3.2761 H   0  0  0  0  0  0  0  0  0  0  0  0
    7.3836    1.9357    0.4998 H   0  0  0  0  0  0  0  0  0  0  0  0
    2.6864   -1.9334    0.3391 H   0  0  0  0  0  0  0  0  0  0  0  0
    4.0763   -2.8260   -0.3236 H   0  0  0  0  0  0  0  0  0  0  0  0
    3.0397   -2.7840   -2.5886 H   0  0  0  0  0  0  0  0  0  0  0  0
    1.9694   -3.5451   -1.4018 H   0  0  0  0  0  0  0  0  0  0  0  0
  1  2  2  0
  2  3  1  0
  3  4  1  0
  4  5  1  0
  5  6  1  0
  6  7  1  0
  7  8  1  0
  8  9  2  0
  9 10  1  0
 10 11  2  0
 11 12  1  0
 12 13  1  0
 12 14  1  0
 12 15  1  0
 11 16  1  0
 16 17  2  0
 17 18  1  0
  7 19  1  0
 19 20  1  0
  2 21  1  0
 21 22  1  0
 22 23  1  0
 23 24  1  0
 24 25  1  0
 25 26  2  0
 26 27  1  0
 27 28  2  0
 28 29  1  0
 29 30  1  0
 29 31  1  0
 29 32  1  0
 28 33  1  0
 33 34  2  0
 34 35  1  0
 24 36  1  0
 36 37  1  0
 20  4  1  0
 37 21  1  0
 17  8  1  0
 34 25  1  0
  3 38  1  0
  3 39  1  0
  5 40  1  0
  5 41  1  0
  6 42  1  0
  6 43  1  0
 10 44  1  0
 16 45  1  0
 19 46  1  0
 19 47  1  0
 20 48  1  0
 20 49  1  0
 22 50  1  0
 22 51  1  0
 23 52  1  0
 23 53  1  0
 27 54  1  0
 33 55  1  0
 36 56  1  0
 36 57  1  0
 37 58  1  0
 37 59  1  0
M  END
$$$$
