
     RDKit          3D

 35 37  0  0  0  0  0  0  0  0999 V2000
    5.4739   -1.2574    1.5879 C   0  0  0  0  0  0  0  0  0  0  0  0
    4.2174   -0.8923    0.8449 C   0  0  0  0  0  0  0  0  0  0  0  0
    3.4785   -1.9049    0.2147 C   0  0  0  0  0  0  0  0  0  0  0  0
    2.3194   -1.6021   -0.5009 C   0  0  0  0  0  0  0  0  0  0  0  0
    1.8736   -0.2850   -0.5927 C   0  0  0  0  0  0  0  0  0  0  0  0
    0.7032    0.0191   -1.2980 N   0  0  0  0  0  0  0  0  0  0  0  0
   -0.4237   -0.0209   -0.6757 C   0  0  0  0  0  0  0  0  0  0  0  0
   -0.6407   -0.3285    0.6295 N   0  0  0  0  0  0  0  0  0  0  0  0
   -1.9288   -0.3106    1.0776 C   0  0  0  0  0  0  0  0  0  0  0  0
   -2.2670   -0.5636    2.2237 O   0  0  0  0  0  0  0  0  0  0  0  0
   -2.8502    0.0549   -0.0359 C   0  0  0  0  0  0  0  0  0  0  0  0
   -4.1697    0.1497    0.1784 C   0  0  0  0  0  0  0  0  0  0  0  0
   -5.1507    0.4967   -0.7972 C   0  0  0  0  0  0  0  0  0  0  0  0
   -5.2581    0.1918   -2.1451 C   0  0  0  0  0  0  0  0  0  0  0  0
   -6.4227    0.7444   -2.7555 C   0  0  0  0  0  0  0  0  0  0  0  0
   -7.1935    1.4402   -1.8555 C   0  0  0  0  0  0  0  0  0  0  0  0
   -6.5170    1.4249   -0.2886 S   0  0  0  0  0  0  0  0  0  0  0  0
   -1.9337    0.3361   -1.4713 S   0  0  0  0  0  0  0  0  0  0  0  0
    2.6189    0.7320    0.0074 C   0  0  0  0  0  0  0  0  0  0  0  0
    3.7911    0.4458    0.7277 C   0  0  0  0  0  0  0  0  0  0  0  0
    4.5566    1.5745    1.3626 C   0  0  0  0  0  0  0  0  0  0  0  0
    5.4956   -0.7797    2.5729 H   0  0  0  0  0  0  0  0  0  0  0  0
    5.5381   -2.3384    1.7549 H   0  0  0  0  0  0  0  0  0  0  0  0
    6.3536   -0.9503    1.0119 H   0  0  0  0  0  0  0  0  0  0  0  0
    3.8066   -2.9406    0.2702 H   0  0  0  0  0  0  0  0  0  0  0  0
    1.7646   -2.3959   -0.9926 H   0  0  0  0  0  0  0  0  0  0  0  0
    0.1106   -0.5585    1.2607 H   0  0  0  0  0  0  0  0  0  0  0  0
   -4.5361   -0.0237    1.1912 H   0  0  0  0  0  0  0  0  0  0  0  0
   -4.5347   -0.4061   -2.6867 H   0  0  0  0  0  0  0  0  0  0  0  0
   -6.6819    0.6305   -3.8010 H   0  0  0  0  0  0  0  0  0  0  0  0
   -8.1263    1.9553   -2.0396 H   0  0  0  0  0  0  0  0  0  0  0  0
    2.2828    1.7596   -0.1051 H   0  0  0  0  0  0  0  0  0  0  0  0
    5.6031    1.5588    1.0454 H   0  0  0  0  0  0  0  0  0  0  0  0
    4.5018    1.4964    2.4522 H   0  0  0  0  0  0  0  0  0  0  0  0
    4.1460    2.5477    1.0782 H   0  0  0  0  0  0  0  0  0  0  0  0
  1  2  1  0
  2  3  2  0
  3  4  1  0
  4  5  2  0
  5  6  1  0
  6  7  2  3
  7  8  1  0
  8  9  1  0
  9 10  2  0
  9 11  1  0
 11 12  2  3
 12 13  1  0
 13 14  2  0
 14 15  1  0
 15 16  2  0
 16 17  1  0
 11 18  1  0
  5 19  1  0
 19 20  2  0
 20 21  1  0
 20  2  1  0
 18  7  1  0
 17 13  1  0
  1 22  1  0
  1 23  1  0
  1 24  1  0
  3 25  1  0
  4 26  1  0
  8 27  1  0
 12 28  1  0
 14 29  1  0
 15 30  1  0
 16 31  1  0
 19 32  1  0
 21 33  1  0
 21 34  1  0
 21 35  1  0
M  END
$$$$
