
     RDKit          3D

 38 40  0  0  0  0  0  0  0  0999 V2000
    1.3725    2.0820   -1.1502 O   0  0  0  0  0  0  0  0  0  0  0  0
    2.0238    1.2706   -0.4969 C   0  0  0  0  0  0  0  0  0  0  0  0
    1.4361    0.3730    0.3753 N   0  0  0  0  0  0  0  0  0  0  0  0
    0.0334    0.2888    0.3433 N   0  0  0  0  0  0  0  0  0  0  0  0
   -0.5307   -0.9743    0.2950 C   0  0  0  0  0  0  0  0  0  0  0  0
    0.1354   -1.9926    0.4836 O   0  0  0  0  0  0  0  0  0  0  0  0
   -2.0101   -0.9768   -0.0824 C   0  0  0  0  0  0  0  0  0  0  0  0
   -2.6405   -2.3232    0.2453 C   0  0  0  0  0  0  0  0  0  0  0  0
   -3.9995   -2.3683   -0.2126 O   0  0  0  0  0  0  0  0  0  0  0  0
   -4.6789   -1.2254    0.1215 C   0  0  0  0  0  0  0  0  0  0  0  0
   -6.0684   -1.2723    0.0277 C   0  0  0  0  0  0  0  0  0  0  0  0
   -6.8264   -0.1519    0.3718 C   0  0  0  0  0  0  0  0  0  0  0  0
   -6.1936    1.0140    0.8066 C   0  0  0  0  0  0  0  0  0  0  0  0
   -4.8010    1.0656    0.8874 C   0  0  0  0  0  0  0  0  0  0  0  0
   -4.0439   -0.0486    0.5306 C   0  0  0  0  0  0  0  0  0  0  0  0
   -2.6816    0.0806    0.6122 O   0  0  0  0  0  0  0  0  0  0  0  0
    3.5038    1.1922   -0.6432 C   0  0  0  0  0  0  0  0  0  0  0  0
    4.0799    1.7056   -1.8154 C   0  0  0  0  0  0  0  0  0  0  0  0
    5.4631    1.6654   -2.0059 C   0  0  0  0  0  0  0  0  0  0  0  0
    6.2862    1.1188   -1.0220 C   0  0  0  0  0  0  0  0  0  0  0  0
    5.7144    0.6189    0.1559 C   0  0  0  0  0  0  0  0  0  0  0  0
    6.5813    0.0550    1.1990 N   0  0  0  0  0  4  0  0  0  0  0  0
    6.0326   -0.4328    2.1971 O   0  0  0  0  0  0  0  0  0  0  0  0
    7.8057    0.0982    1.0179 O   0  0  0  0  0  1  0  0  0  0  0  0
    4.3252    0.6540    0.3551 C   0  0  0  0  0  0  0  0  0  0  0  0
    1.9070   -0.4880    0.6529 H   0  0  0  0  0  0  0  0  0  0  0  0
   -0.4547    1.0914   -0.0582 H   0  0  0  0  0  0  0  0  0  0  0  0
   -2.0730   -0.7732   -1.1603 H   0  0  0  0  0  0  0  0  0  0  0  0
   -2.6306   -2.5257    1.3244 H   0  0  0  0  0  0  0  0  0  0  0  0
   -2.1060   -3.1407   -0.2503 H   0  0  0  0  0  0  0  0  0  0  0  0
   -6.5605   -2.1831   -0.3019 H   0  0  0  0  0  0  0  0  0  0  0  0
   -7.9109   -0.1900    0.3057 H   0  0  0  0  0  0  0  0  0  0  0  0
   -6.7856    1.8842    1.0792 H   0  0  0  0  0  0  0  0  0  0  0  0
   -4.3096    1.9760    1.2191 H   0  0  0  0  0  0  0  0  0  0  0  0
    3.4475    2.1405   -2.5892 H   0  0  0  0  0  0  0  0  0  0  0  0
    5.8963    2.0642   -2.9211 H   0  0  0  0  0  0  0  0  0  0  0  0
    7.3626    1.0960   -1.1839 H   0  0  0  0  0  0  0  0  0  0  0  0
    3.8988    0.2909    1.2869 H   0  0  0  0  0  0  0  0  0  0  0  0
  1  2  2  0
  2  3  1  0
  3  4  1  0
  4  5  1  0
  5  6  2  0
  5  7  1  0
  7  8  1  0
  8  9  1  0
  9 10  1  0
 10 11  2  0
 11 12  1  0
 12 13  2  0
 13 14  1  0
 14 15  2  0
 15 16  1  0
  2 17  1  0
 17 18  2  0
 18 19  1  0
 19 20  2  0
 20 21  1  0
 21 22  1  0
 22 23  2  0
 22 24  1  0
 21 25  2  0
 16  7  1  0
 25 17  1  0
 15 10  1  0
  3 26  1  0
  4 27  1  0
  7 28  1  0
  8 29  1  0
  8 30  1  0
 11 31  1  0
 12 32  1  0
 13 33  1  0
 14 34  1  0
 18 35  1  0
 19 36  1  0
 20 37  1  0
 25 38  1  0
M  CHG  2  22   1  24  -1
M  END
$$$$
