
     RDKit          3D

 22 23  0  0  0  0  0  0  0  0999 V2000
   -3.7719    0.5232    0.3538 C   0  0  0  0  0  0  0  0  0  0  0  0
   -2.6703    0.3873   -0.3965 C   0  0  0  0  0  0  0  0  0  0  0  0
   -1.8351   -0.8619   -0.4803 C   0  0  0  0  0  0  0  0  0  0  0  0
   -0.4968   -0.5854    0.0458 N   0  0  0  0  0  0  0  0  0  0  0  0
   -0.1764   -0.8246    1.3984 C   0  0  0  0  0  0  0  0  0  0  0  0
   -1.1901   -1.4494    2.5845 S   0  0  0  0  0  0  0  0  0  0  0  0
    1.1039   -0.5254    1.8055 N   0  0  0  0  0  0  0  0  0  0  0  0
    1.9977   -0.0230    0.9158 C   0  0  0  0  0  0  0  0  0  0  0  0
    3.5586    0.3411    1.4111 S   0  0  0  0  0  0  0  0  0  0  0  0
    3.9597    0.8643   -0.1802 C   0  0  0  0  0  0  0  0  0  0  0  0
    2.8881    0.7463   -1.0476 C   0  0  0  0  0  0  0  0  0  0  0  0
    1.7323    0.2214   -0.3942 C   0  0  0  0  0  0  0  0  0  0  0  0
    0.4104   -0.0624   -0.9064 C   0  0  0  0  0  0  0  0  0  0  0  0
    0.1325    0.1499   -2.0840 O   0  0  0  0  0  0  0  0  0  0  0  0
   -4.3319    1.4536    0.3542 H   0  0  0  0  0  0  0  0  0  0  0  0
   -4.1385   -0.2801    0.9863 H   0  0  0  0  0  0  0  0  0  0  0  0
   -2.3553    1.2225   -1.0199 H   0  0  0  0  0  0  0  0  0  0  0  0
   -2.3034   -1.6942    0.0531 H   0  0  0  0  0  0  0  0  0  0  0  0
   -1.7714   -1.1739   -1.5294 H   0  0  0  0  0  0  0  0  0  0  0  0
    1.3751   -0.6805    2.7694 H   0  0  0  0  0  0  0  0  0  0  0  0
    4.9543    1.2299   -0.3975 H   0  0  0  0  0  0  0  0  0  0  0  0
    2.9284    1.0214   -2.0953 H   0  0  0  0  0  0  0  0  0  0  0  0
  1  2  2  0
  2  3  1  0
  3  4  1  0
  4  5  1  0
  5  6  2  0
  5  7  1  0
  7  8  1  0
  8  9  1  0
  9 10  1  0
 10 11  2  0
 11 12  1  0
 12 13  1  0
 13 14  2  0
 13  4  1  0
 12  8  2  0
  1 15  1  0
  1 16  1  0
  2 17  1  0
  3 18  1  0
  3 19  1  0
  7 20  1  0
 10 21  1  0
 11 22  1  0
M  END
$$$$
