
     RDKit          3D

 40 43  0  0  0  0  0  0  0  0999 V2000
   -2.8988    3.5112   -1.7986 O   0  0  0  0  0  0  0  0  0  0  0  0
   -3.4747    2.4414   -1.7011 C   0  0  0  0  0  0  0  0  0  0  0  0
   -4.8026    2.1924   -1.9651 N   0  0  0  0  0  0  0  0  0  0  0  0
   -4.9761    0.9442   -1.6921 C   0  0  0  0  0  0  0  0  0  0  0  0
   -6.2226    0.1623   -1.7978 C   0  0  0  0  0  0  0  0  0  0  0  0
   -6.1958   -1.1368   -1.4547 C   0  0  0  0  0  0  0  0  0  0  0  0
   -4.9911   -1.8060   -0.9900 C   0  0  0  0  0  0  0  0  0  0  0  0
   -3.8237   -1.1519   -0.8708 C   0  0  0  0  0  0  0  0  0  0  0  0
   -3.7811    0.2392   -1.2123 C   0  0  0  0  0  0  0  0  0  0  0  0
   -2.8421    1.1842   -1.2257 C   0  0  0  0  0  0  0  0  0  0  0  0
   -1.4961    1.0286   -0.8429 C   0  0  0  0  0  0  0  0  0  0  0  0
   -0.2367    1.1793   -2.0164 S   0  0  0  0  0  0  0  0  0  0  0  0
    0.9083    0.7962   -0.8181 C   0  0  0  0  0  0  0  0  0  0  0  0
    2.3318    0.7400   -1.0649 N   0  0  0  0  0  0  0  0  0  0  0  0
    2.8509   -0.8286   -1.3998 S   0  0  0  0  0  6  0  0  0  0  0  0
    1.8610   -1.4832   -2.2339 O   0  0  0  0  0  0  0  0  0  0  0  0
    4.2189   -0.7205   -1.8674 O   0  0  0  0  0  0  0  0  0  0  0  0
    2.8521   -1.6578    0.2056 C   0  0  0  0  0  0  0  0  0  0  0  0
    3.6486   -0.8810    1.2239 C   0  0  0  0  0  0  0  0  0  0  0  0
    2.9990   -0.2218    2.2784 C   0  0  0  0  0  0  0  0  0  0  0  0
    3.7282    0.5078    3.2184 C   0  0  0  0  0  0  0  0  0  0  0  0
    5.1155    0.5787    3.1237 C   0  0  0  0  0  0  0  0  0  0  0  0
    5.7753   -0.0845    2.0922 C   0  0  0  0  0  0  0  0  0  0  0  0
    5.0478   -0.8148    1.1511 C   0  0  0  0  0  0  0  0  0  0  0  0
    0.4558    0.6129    0.3924 N   0  0  0  0  0  0  0  0  0  0  0  0
   -0.9122    0.7384    0.3833 C   0  0  0  0  0  0  0  0  0  0  0  0
   -1.6162    0.5732    1.5188 O   0  0  0  0  0  0  0  0  0  0  0  0
   -7.1138    0.6666   -2.1485 H   0  0  0  0  0  0  0  0  0  0  0  0
   -7.0999   -1.7367   -1.5243 H   0  0  0  0  0  0  0  0  0  0  0  0
   -5.0628   -2.8640   -0.7504 H   0  0  0  0  0  0  0  0  0  0  0  0
   -2.9256   -1.6610   -0.5355 H   0  0  0  0  0  0  0  0  0  0  0  0
    2.8625    1.1383   -0.2896 H   0  0  0  0  0  0  0  0  0  0  0  0
    1.8114   -1.7967    0.5136 H   0  0  0  0  0  0  0  0  0  0  0  0
    3.2906   -2.6503    0.0552 H   0  0  0  0  0  0  0  0  0  0  0  0
    1.9151   -0.2662    2.3799 H   0  0  0  0  0  0  0  0  0  0  0  0
    3.2113    1.0186    4.0273 H   0  0  0  0  0  0  0  0  0  0  0  0
    5.6833    1.1459    3.8569 H   0  0  0  0  0  0  0  0  0  0  0  0
    6.8591   -0.0343    2.0192 H   0  0  0  0  0  0  0  0  0  0  0  0
    5.5884   -1.3253    0.3546 H   0  0  0  0  0  0  0  0  0  0  0  0
   -2.5433    0.8356    1.4057 H   0  0  0  0  0  0  0  0  0  0  0  0
  1  2  2  0
  2  3  1  0
  3  4  2  0
  4  5  1  0
  5  6  2  0
  6  7  1  0
  7  8  2  0
  8  9  1  0
  9 10  2  0
 10 11  1  0
 11 12  1  0
 12 13  1  0
 13 14  1  0
 14 15  1  0
 15 16  2  0
 15 17  2  0
 15 18  1  0
 18 19  1  0
 19 20  2  0
 20 21  1  0
 21 22  2  0
 22 23  1  0
 23 24  2  0
 13 25  2  0
 25 26  1  0
 26 27  1  0
 10  2  1  0
 26 11  2  0
  9  4  1  0
 24 19  1  0
  5 28  1  0
  6 29  1  0
  7 30  1  0
  8 31  1  0
 14 32  1  0
 18 33  1  0
 18 34  1  0
 20 35  1  0
 21 36  1  0
 22 37  1  0
 23 38  1  0
 24 39  1  0
 27 40  1  0
M  END
$$$$
