
     RDKit          3D

 48 50  0  0  0  0  0  0  0  0999 V2000
   -0.3868   -0.4100    2.2702 C   0  0  0  0  0  0  0  0  0  0  0  0
   -0.0830   -0.0682    1.0098 C   0  0  0  0  0  0  0  0  0  0  0  0
    1.2821    0.1247    0.4656 C   0  0  0  0  0  0  0  0  0  0  0  0
    2.4329    0.0505    1.1577 C   0  0  0  0  0  0  0  0  0  0  0  0
    3.7170    0.2790    0.5879 C   0  0  0  0  0  0  0  0  0  0  0  0
    4.9383   -0.9311    0.7373 S   0  0  0  0  0  0  0  0  0  0  0  0
    6.0257    0.0514   -0.1213 C   0  0  0  0  0  0  0  0  0  0  0  0
    7.3104   -0.3246   -0.4177 N   0  0  0  0  0  0  0  0  0  0  0  0
    7.9372   -1.4968   -0.0676 C   0  0  0  0  0  0  0  0  0  0  0  0
    9.3592   -1.5543   -0.5698 C   0  0  0  0  0  0  0  0  0  0  0  0
    7.4782   -2.4202    0.5945 O   0  0  0  0  0  0  0  0  0  0  0  0
    5.5710    1.2199   -0.4992 N   0  0  0  0  0  0  0  0  0  0  0  0
    4.2702    1.3633   -0.0814 C   0  0  0  0  0  0  0  0  0  0  0  0
    3.5961    2.5068   -0.3100 O   0  0  0  0  0  0  0  0  0  0  0  0
    1.1404    0.4012   -0.9622 C   0  0  0  0  0  0  0  0  0  0  0  0
   -0.1782    0.4019   -1.2423 C   0  0  0  0  0  0  0  0  0  0  0  0
   -0.7619    0.7069   -2.5809 C   0  0  0  0  0  0  0  0  0  0  0  0
   -0.9402    0.1360   -0.0853 N   0  0  0  0  0  0  0  0  0  0  0  0
   -2.3557    0.1401   -0.0299 C   0  0  0  0  0  0  0  0  0  0  0  0
   -3.1145   -0.7136   -0.8398 C   0  0  0  0  0  0  0  0  0  0  0  0
   -4.5151   -0.7083   -0.7905 C   0  0  0  0  0  0  0  0  0  0  0  0
   -5.1893    0.1544    0.0724 C   0  0  0  0  0  0  0  0  0  0  0  0
   -6.5932    0.2253    0.1823 N   0  0  0  0  0  0  0  0  0  0  0  0
   -7.5309   -0.5176   -0.5122 C   0  0  0  0  0  0  0  0  0  0  0  0
   -8.9434   -0.1641   -0.1168 C   0  0  0  0  0  0  0  0  0  0  0  0
   -7.3140   -1.3917   -1.3433 O   0  0  0  0  0  0  0  0  0  0  0  0
   -4.4399    1.0101    0.8872 C   0  0  0  0  0  0  0  0  0  0  0  0
   -3.0410    1.0012    0.8370 C   0  0  0  0  0  0  0  0  0  0  0  0
    0.3637   -0.5666    3.0345 H   0  0  0  0  0  0  0  0  0  0  0  0
   -1.4155   -0.5740    2.5722 H   0  0  0  0  0  0  0  0  0  0  0  0
    2.4202   -0.2199    2.2097 H   0  0  0  0  0  0  0  0  0  0  0  0
    7.8127    0.3822   -0.9364 H   0  0  0  0  0  0  0  0  0  0  0  0
   10.0285   -1.1611    0.1997 H   0  0  0  0  0  0  0  0  0  0  0  0
    9.4813   -0.9751   -1.4895 H   0  0  0  0  0  0  0  0  0  0  0  0
    9.6231   -2.5932   -0.7883 H   0  0  0  0  0  0  0  0  0  0  0  0
    2.7096    2.4618    0.0841 H   0  0  0  0  0  0  0  0  0  0  0  0
    1.9389    0.5754   -1.6657 H   0  0  0  0  0  0  0  0  0  0  0  0
    0.0087    1.0479   -3.2810 H   0  0  0  0  0  0  0  0  0  0  0  0
   -1.2274   -0.1815   -3.0168 H   0  0  0  0  0  0  0  0  0  0  0  0
   -1.5102    1.5025   -2.5092 H   0  0  0  0  0  0  0  0  0  0  0  0
   -2.6173   -1.4149   -1.5056 H   0  0  0  0  0  0  0  0  0  0  0  0
   -5.0448   -1.3982   -1.4398 H   0  0  0  0  0  0  0  0  0  0  0  0
   -6.9502    0.8953    0.8513 H   0  0  0  0  0  0  0  0  0  0  0  0
   -9.2108   -0.7055    0.7944 H   0  0  0  0  0  0  0  0  0  0  0  0
   -9.0446    0.9121    0.0506 H   0  0  0  0  0  0  0  0  0  0  0  0
   -9.6277   -0.4475   -0.9217 H   0  0  0  0  0  0  0  0  0  0  0  0
   -4.9273    1.7001    1.5705 H   0  0  0  0  0  0  0  0  0  0  0  0
   -2.4828    1.6880    1.4687 H   0  0  0  0  0  0  0  0  0  0  0  0
  1  2  2  0
  2  3  1  0
  3  4  2  3
  4  5  1  0
  5  6  1  0
  6  7  1  0
  7  8  1  0
  8  9  1  0
  9 10  1  0
  9 11  2  0
  7 12  2  0
 12 13  1  0
 13 14  1  0
  3 15  1  0
 15 16  2  0
 16 17  1  0
 16 18  1  0
 18 19  1  0
 19 20  2  0
 20 21  1  0
 21 22  2  0
 22 23  1  0
 23 24  1  0
 24 25  1  0
 24 26  2  0
 22 27  1  0
 27 28  2  0
 18  2  1  0
 28 19  1  0
 13  5  2  0
  1 29  1  0
  1 30  1  0
  4 31  1  0
  8 32  1  0
 10 33  1  0
 10 34  1  0
 10 35  1  0
 14 36  1  0
 15 37  1  0
 17 38  1  0
 17 39  1  0
 17 40  1  0
 20 41  1  0
 21 42  1  0
 23 43  1  0
 25 44  1  0
 25 45  1  0
 25 46  1  0
 27 47  1  0
 28 48  1  0
M  END
$$$$
