
     RDKit          3D

 40 42  0  0  0  0  0  0  0  0999 V2000
   -1.8889   -2.4646   -2.2140 C   0  0  0  0  0  0  0  0  0  0  0  0
   -1.1145   -1.5553   -1.2572 C   0  0  0  0  0  0  0  0  0  0  0  0
   -1.7595   -1.5952    0.1285 C   0  0  0  0  0  0  0  0  0  0  0  0
   -1.0388   -0.1318   -1.8418 C   0  0  0  0  0  0  0  0  0  0  0  0
   -0.1829    0.7744   -1.1029 N   0  0  0  0  0  0  0  0  0  0  0  0
    1.1830    0.8576   -1.1812 C   0  0  0  0  0  0  0  0  0  0  0  0
    2.1783   -0.1407   -2.1785 S   0  0  0  0  0  0  0  0  0  0  0  0
    3.5046   -0.5364   -0.9943 C   0  0  0  0  0  0  0  0  0  0  0  0
    2.9798   -1.4566    0.1003 C   0  0  0  0  0  0  0  0  0  0  0  0
    2.5726   -2.5813   -0.2108 O   0  0  0  0  0  0  0  0  0  0  0  0
    2.9813   -0.9714    1.4799 C   0  0  0  0  0  0  0  0  0  0  0  0
    3.2731    0.2773    2.0046 C   0  0  0  0  0  0  0  0  0  0  0  0
    3.1409    0.3242    3.4271 C   0  0  0  0  0  0  0  0  0  0  0  0
    2.7544   -0.8892    3.9266 C   0  0  0  0  0  0  0  0  0  0  0  0
    2.4761   -1.2769    5.5754 Cl  0  0  0  0  0  0  0  0  0  0  0  0
    2.5430   -2.0682    2.7373 S   0  0  0  0  0  0  0  0  0  0  0  0
    1.6299    1.7826   -0.3683 N   0  0  0  0  0  0  0  0  0  0  0  0
    0.5456    2.3334    0.2610 N   0  0  0  0  0  0  0  0  0  0  0  0
   -0.5458    1.7391   -0.1890 C   0  0  0  0  0  0  0  0  0  0  0  0
   -1.8620    2.0831    0.2593 C   0  0  0  0  0  0  0  0  0  0  0  0
   -2.2069    3.0332    1.2097 C   0  0  0  0  0  0  0  0  0  0  0  0
   -3.6167    3.0255    1.3301 C   0  0  0  0  0  0  0  0  0  0  0  0
   -4.0617    2.0711    0.4504 C   0  0  0  0  0  0  0  0  0  0  0  0
   -3.0164    1.5003   -0.1981 O   0  0  0  0  0  0  0  0  0  0  0  0
   -1.4062   -2.4971   -3.1963 H   0  0  0  0  0  0  0  0  0  0  0  0
   -2.9169   -2.1126   -2.3518 H   0  0  0  0  0  0  0  0  0  0  0  0
   -1.9296   -3.4889   -1.8294 H   0  0  0  0  0  0  0  0  0  0  0  0
   -0.1014   -1.9629   -1.1606 H   0  0  0  0  0  0  0  0  0  0  0  0
   -1.8034   -2.6244    0.5020 H   0  0  0  0  0  0  0  0  0  0  0  0
   -1.1838   -1.0123    0.8538 H   0  0  0  0  0  0  0  0  0  0  0  0
   -2.7824   -1.2066    0.1044 H   0  0  0  0  0  0  0  0  0  0  0  0
   -2.0339    0.3088   -1.9359 H   0  0  0  0  0  0  0  0  0  0  0  0
   -0.6498   -0.1682   -2.8673 H   0  0  0  0  0  0  0  0  0  0  0  0
    4.2920   -1.0808   -1.5270 H   0  0  0  0  0  0  0  0  0  0  0  0
    3.9621    0.3760   -0.6085 H   0  0  0  0  0  0  0  0  0  0  0  0
    3.5488    1.1444    1.4159 H   0  0  0  0  0  0  0  0  0  0  0  0
    3.3118    1.2040    4.0344 H   0  0  0  0  0  0  0  0  0  0  0  0
   -1.5062    3.6539    1.7523 H   0  0  0  0  0  0  0  0  0  0  0  0
   -4.2289    3.6358    1.9787 H   0  0  0  0  0  0  0  0  0  0  0  0
   -5.0407    1.6968    0.1831 H   0  0  0  0  0  0  0  0  0  0  0  0
  1  2  1  0
  2  3  1  0
  2  4  1  0
  4  5  1  0
  5  6  1  0
  6  7  1  0
  7  8  1  0
  8  9  1  0
  9 10  2  0
  9 11  1  0
 11 12  2  0
 12 13  1  0
 13 14  2  0
 14 15  1  0
 14 16  1  0
  6 17  2  0
 17 18  1  0
 18 19  2  0
 19 20  1  0
 20 21  2  0
 21 22  1  0
 22 23  2  0
 23 24  1  0
 19  5  1  0
 24 20  1  0
 16 11  1  0
  1 25  1  0
  1 26  1  0
  1 27  1  0
  2 28  1  0
  3 29  1  0
  3 30  1  0
  3 31  1  0
  4 32  1  0
  4 33  1  0
  8 34  1  0
  8 35  1  0
 12 36  1  0
 13 37  1  0
 21 38  1  0
 22 39  1  0
 23 40  1  0
M  END
$$$$
