
     RDKit          3D

 48 50  0  0  0  0  0  0  0  0999 V2000
    5.0910    0.4269    4.8557 C   0  0  0  0  0  0  0  0  0  0  0  0
    4.2151   -0.0726    3.7359 C   0  0  0  0  0  0  0  0  0  0  0  0
    4.2897   -1.4218    3.3686 C   0  0  0  0  0  0  0  0  0  0  0  0
    3.5009   -1.9432    2.3419 C   0  0  0  0  0  0  0  0  0  0  0  0
    2.6230   -1.0749    1.6814 C   0  0  0  0  0  0  0  0  0  0  0  0
    1.5391   -1.4163    0.3919 S   0  0  0  0  0  0  0  0  0  0  0  0
    0.9959    0.2105    0.3913 C   0  0  0  0  0  0  0  0  0  0  0  0
    0.0244    0.6132   -0.5371 N   0  0  0  0  0  0  0  0  0  0  0  0
   -0.5195   -0.2679   -1.5856 C   0  0  0  0  0  0  0  0  0  0  0  0
   -1.7564   -1.0368   -1.1068 C   0  0  0  0  0  0  0  0  0  0  0  0
   -2.3407   -1.8847   -2.2433 C   0  0  0  0  0  0  0  0  0  0  0  0
   -3.4416   -2.7552   -1.8027 N   0  0  0  0  0  0  0  0  0  0  0  0
   -3.7953   -3.6978   -2.8683 C   0  0  0  0  0  0  0  0  0  0  0  0
   -4.6298   -1.9938   -1.4080 C   0  0  0  0  0  0  0  0  0  0  0  0
   -0.5850    1.8619   -0.2657 C   0  0  0  0  0  0  0  0  0  0  0  0
   -0.6395    2.3744    0.8506 O   0  0  0  0  0  0  0  0  0  0  0  0
   -1.1949    2.5405   -1.4045 C   0  0  0  0  0  0  0  0  0  0  0  0
   -0.6150    2.9198   -2.6035 C   0  0  0  0  0  0  0  0  0  0  0  0
   -1.5415    3.5808   -3.4650 C   0  0  0  0  0  0  0  0  0  0  0  0
   -2.7747    3.6901   -2.8739 C   0  0  0  0  0  0  0  0  0  0  0  0
   -4.2774    4.5167   -3.7168 Br  0  0  0  0  0  0  0  0  0  0  0  0
   -2.8358    3.0282   -1.3163 S   0  0  0  0  0  0  0  0  0  0  0  0
    1.6069    0.9859    1.2537 N   0  0  0  0  0  0  0  0  0  0  0  0
    2.5201    0.2730    2.0162 C   0  0  0  0  0  0  0  0  0  0  0  0
    3.3234    0.8020    3.0614 C   0  0  0  0  0  0  0  0  0  0  0  0
    3.2322    2.2538    3.4526 C   0  0  0  0  0  0  0  0  0  0  0  0
    5.7563    1.2175    4.4947 H   0  0  0  0  0  0  0  0  0  0  0  0
    5.7211   -0.3720    5.2611 H   0  0  0  0  0  0  0  0  0  0  0  0
    4.4770    0.8097    5.6769 H   0  0  0  0  0  0  0  0  0  0  0  0
    4.9729   -2.0922    3.8883 H   0  0  0  0  0  0  0  0  0  0  0  0
    3.5669   -2.9914    2.0681 H   0  0  0  0  0  0  0  0  0  0  0  0
    0.2584   -0.9505   -1.9442 H   0  0  0  0  0  0  0  0  0  0  0  0
   -0.7955    0.3192   -2.4646 H   0  0  0  0  0  0  0  0  0  0  0  0
   -2.5021   -0.3227   -0.7409 H   0  0  0  0  0  0  0  0  0  0  0  0
   -1.4937   -1.6803   -0.2590 H   0  0  0  0  0  0  0  0  0  0  0  0
   -2.6642   -1.2345   -3.0669 H   0  0  0  0  0  0  0  0  0  0  0  0
   -1.5300   -2.5137   -2.6342 H   0  0  0  0  0  0  0  0  0  0  0  0
   -2.9335   -4.3197   -3.1353 H   0  0  0  0  0  0  0  0  0  0  0  0
   -4.5806   -4.3842   -2.5319 H   0  0  0  0  0  0  0  0  0  0  0  0
   -4.1462   -3.1864   -3.7721 H   0  0  0  0  0  0  0  0  0  0  0  0
   -4.4323   -1.3772   -0.5258 H   0  0  0  0  0  0  0  0  0  0  0  0
   -5.4434   -2.6711   -1.1234 H   0  0  0  0  0  0  0  0  0  0  0  0
   -4.9909   -1.3453   -2.2143 H   0  0  0  0  0  0  0  0  0  0  0  0
    0.4259    2.7382   -2.8457 H   0  0  0  0  0  0  0  0  0  0  0  0
   -1.3035    3.9595   -4.4516 H   0  0  0  0  0  0  0  0  0  0  0  0
    2.9210    2.3464    4.4979 H   0  0  0  0  0  0  0  0  0  0  0  0
    4.2007    2.7451    3.3166 H   0  0  0  0  0  0  0  0  0  0  0  0
    2.5009    2.7931    2.8426 H   0  0  0  0  0  0  0  0  0  0  0  0
  1  2  1  0
  2  3  2  0
  3  4  1  0
  4  5  2  0
  5  6  1  0
  6  7  1  0
  7  8  1  0
  8  9  1  0
  9 10  1  0
 10 11  1  0
 11 12  1  0
 12 13  1  0
 12 14  1  0
  8 15  1  0
 15 16  2  0
 15 17  1  0
 17 18  2  0
 18 19  1  0
 19 20  2  0
 20 21  1  0
 20 22  1  0
  7 23  2  0
 23 24  1  0
 24 25  2  0
 25 26  1  0
 25  2  1  0
 24  5  1  0
 22 17  1  0
  1 27  1  0
  1 28  1  0
  1 29  1  0
  3 30  1  0
  4 31  1  0
  9 32  1  0
  9 33  1  0
 10 34  1  0
 10 35  1  0
 11 36  1  0
 11 37  1  0
 13 38  1  0
 13 39  1  0
 13 40  1  0
 14 41  1  0
 14 42  1  0
 14 43  1  0
 18 44  1  0
 19 45  1  0
 26 46  1  0
 26 47  1  0
 26 48  1  0
M  END
$$$$
