
     RDKit          3D

 47 50  0  0  0  0  0  0  0  0999 V2000
    2.2726    3.5512    1.0227 C   0  0  0  0  0  0  0  0  0  0  0  0
    2.8259    2.2428    1.0593 O   0  0  0  0  0  0  0  0  0  0  0  0
    1.9522    1.1866    1.1410 C   0  0  0  0  0  0  0  0  0  0  0  0
    0.5579    1.3057    1.1690 C   0  0  0  0  0  0  0  0  0  0  0  0
   -0.2538    0.1658    1.2461 C   0  0  0  0  0  0  0  0  0  0  0  0
   -1.7086    0.3265    1.3004 C   0  0  0  0  0  0  0  0  0  0  0  0
   -2.6001   -0.1181    0.4047 C   0  0  0  0  0  0  0  0  0  0  0  0
   -3.9516    0.0860    0.5345 N   0  0  0  0  0  0  0  0  0  0  0  0
   -4.4332   -0.4767   -0.5272 C   0  0  0  0  0  0  0  0  0  0  0  0
   -5.8504   -0.5662   -0.9129 C   0  0  0  0  0  0  0  0  0  0  0  0
   -6.8145    0.0204   -0.0836 C   0  0  0  0  0  0  0  0  0  0  0  0
   -8.1672   -0.0534   -0.4213 C   0  0  0  0  0  0  0  0  0  0  0  0
   -8.5605   -0.7122   -1.5857 C   0  0  0  0  0  0  0  0  0  0  0  0
   -7.6041   -1.2975   -2.4151 C   0  0  0  0  0  0  0  0  0  0  0  0
   -6.2495   -1.2259   -2.0821 C   0  0  0  0  0  0  0  0  0  0  0  0
   -3.5596   -1.0511   -1.3846 O   0  0  0  0  0  0  0  0  0  0  0  0
   -2.3172   -0.8665   -0.8568 C   0  0  0  0  0  0  0  0  0  0  0  0
   -1.2677   -1.2435   -1.3359 O   0  0  0  0  0  0  0  0  0  0  0  0
    0.3393   -1.0965    1.3219 C   0  0  0  0  0  0  0  0  0  0  0  0
    1.7295   -1.2268    1.2916 C   0  0  0  0  0  0  0  0  0  0  0  0
    2.5381   -0.0921    1.1869 C   0  0  0  0  0  0  0  0  0  0  0  0
    3.9095   -0.1363    1.1731 O   0  0  0  0  0  0  0  0  0  0  0  0
    4.5035   -1.3073    0.6114 C   0  0  0  0  0  0  0  0  0  0  0  0
    5.9126   -1.0619    0.2776 C   0  0  0  0  0  0  0  0  0  0  0  0
    6.6693    0.1010    0.0341 C   0  0  0  0  0  0  0  0  0  0  0  0
    6.2279    1.5160    0.0573 C   0  0  0  0  0  0  0  0  0  0  0  0
    7.9389   -0.2053   -0.2563 N   0  0  0  0  0  0  0  0  0  0  0  0
    8.0278   -1.5951   -0.2077 O   0  0  0  0  0  0  0  0  0  0  0  0
    6.7311   -2.1000    0.1311 N   0  0  0  0  0  4  0  0  0  0  0  0
    6.6013   -3.3431    0.1979 O   0  0  0  0  0  1  0  0  0  0  0  0
    1.7070    3.7676    1.9353 H   0  0  0  0  0  0  0  0  0  0  0  0
    3.1024    4.2628    0.9699 H   0  0  0  0  0  0  0  0  0  0  0  0
    1.6561    3.6945    0.1295 H   0  0  0  0  0  0  0  0  0  0  0  0
    0.0784    2.2785    1.1266 H   0  0  0  0  0  0  0  0  0  0  0  0
   -2.0736    0.8837    2.1602 H   0  0  0  0  0  0  0  0  0  0  0  0
   -6.5204    0.5350    0.8288 H   0  0  0  0  0  0  0  0  0  0  0  0
   -8.9139    0.4020    0.2246 H   0  0  0  0  0  0  0  0  0  0  0  0
   -9.6147   -0.7707   -1.8469 H   0  0  0  0  0  0  0  0  0  0  0  0
   -7.9148   -1.8133   -3.3214 H   0  0  0  0  0  0  0  0  0  0  0  0
   -5.5219   -1.6908   -2.7429 H   0  0  0  0  0  0  0  0  0  0  0  0
   -0.2728   -1.9923    1.4039 H   0  0  0  0  0  0  0  0  0  0  0  0
    2.1499   -2.2241    1.3677 H   0  0  0  0  0  0  0  0  0  0  0  0
    4.4317   -2.1187    1.3460 H   0  0  0  0  0  0  0  0  0  0  0  0
    3.9757   -1.6012   -0.3051 H   0  0  0  0  0  0  0  0  0  0  0  0
    5.3559    1.6554   -0.5889 H   0  0  0  0  0  0  0  0  0  0  0  0
    7.0162    2.1891   -0.2966 H   0  0  0  0  0  0  0  0  0  0  0  0
    5.9597    1.8161    1.0753 H   0  0  0  0  0  0  0  0  0  0  0  0
  1  2  1  0
  2  3  1  0
  3  4  2  0
  4  5  1  0
  5  6  1  0
  6  7  2  3
  7  8  1  0
  8  9  2  0
  9 10  1  0
 10 11  2  0
 11 12  1  0
 12 13  2  0
 13 14  1  0
 14 15  2  0
  9 16  1  0
 16 17  1  0
 17 18  2  0
  5 19  2  0
 19 20  1  0
 20 21  2  0
 21 22  1  0
 22 23  1  0
 23 24  1  0
 24 25  1  0
 25 26  1  0
 25 27  2  0
 27 28  1  0
 28 29  1  0
 29 30  1  0
 21  3  1  0
 29 24  2  0
 17  7  1  0
 15 10  1  0
  1 31  1  0
  1 32  1  0
  1 33  1  0
  4 34  1  0
  6 35  1  0
 11 36  1  0
 12 37  1  0
 13 38  1  0
 14 39  1  0
 15 40  1  0
 19 41  1  0
 20 42  1  0
 23 43  1  0
 23 44  1  0
 26 45  1  0
 26 46  1  0
 26 47  1  0
M  CHG  2  29   1  30  -1
M  END
$$$$
