
     RDKit          3D

 48 50  0  0  0  0  0  0  0  0999 V2000
   -1.4364    4.0316    0.2577 C   0  0  0  0  0  0  0  0  0  0  0  0
   -2.5966    3.4033    1.0042 C   0  0  0  0  0  0  0  0  0  0  0  0
   -2.5872    1.9971    0.7314 O   0  0  0  0  0  0  0  0  0  0  0  0
   -3.5526    1.2877    1.3553 C   0  0  0  0  0  0  0  0  0  0  0  0
   -4.3934    1.7245    2.1249 O   0  0  0  0  0  0  0  0  0  0  0  0
   -3.4106   -0.1403    1.0630 C   0  0  0  0  0  0  0  0  0  0  0  0
   -3.7586   -1.0579    2.0272 C   0  0  0  0  0  0  0  0  0  0  0  0
   -3.6484   -2.3956    1.8657 N   0  0  0  0  0  0  0  0  0  0  0  0
   -3.1830   -2.8220    0.6792 C   0  0  0  0  0  0  0  0  0  0  0  0
   -3.0102   -4.5646    0.3890 S   0  0  0  0  0  0  0  0  0  0  0  0
   -3.3119   -5.2031    2.0545 C   0  0  0  0  0  0  0  0  0  0  0  0
   -2.8444   -2.0146   -0.3353 N   0  0  0  0  0  0  0  0  0  0  0  0
   -2.9538   -0.6823   -0.1172 C   0  0  0  0  0  0  0  0  0  0  0  0
   -2.7035    0.1554   -1.1939 O   0  0  0  0  0  0  0  0  0  0  0  0
   -1.5550   -0.1286   -1.8952 C   0  0  0  0  0  0  0  0  0  0  0  0
   -1.6739   -0.5741   -3.2090 C   0  0  0  0  0  0  0  0  0  0  0  0
   -0.5234   -0.8338   -3.9476 C   0  0  0  0  0  0  0  0  0  0  0  0
    0.7352   -0.6304   -3.3729 C   0  0  0  0  0  0  0  0  0  0  0  0
    0.8580   -0.1564   -2.0583 C   0  0  0  0  0  0  0  0  0  0  0  0
    2.1652    0.0218   -1.5565 N   0  0  0  0  0  0  0  0  0  0  0  0
    2.5267    0.5382   -0.3255 C   0  0  0  0  0  0  0  0  0  0  0  0
    1.7835    1.0115    0.5251 O   0  0  0  0  0  0  0  0  0  0  0  0
    3.9925    0.5396   -0.0561 C   0  0  0  0  0  0  0  0  0  0  0  0
    4.8166   -0.5182   -0.4658 C   0  0  0  0  0  0  0  0  0  0  0  0
    6.1868   -0.4809   -0.1895 C   0  0  0  0  0  0  0  0  0  0  0  0
    6.7283    0.6042    0.5009 C   0  0  0  0  0  0  0  0  0  0  0  0
    8.4149    0.6449    0.8373 Cl  0  0  0  0  0  0  0  0  0  0  0  0
    5.9114    1.6501    0.9280 C   0  0  0  0  0  0  0  0  0  0  0  0
    4.5415    1.6156    0.6547 C   0  0  0  0  0  0  0  0  0  0  0  0
   -0.2988    0.0997   -1.3227 C   0  0  0  0  0  0  0  0  0  0  0  0
   -1.5224    3.8432   -0.8172 H   0  0  0  0  0  0  0  0  0  0  0  0
   -0.4874    3.5922    0.5820 H   0  0  0  0  0  0  0  0  0  0  0  0
   -1.4025    5.1113    0.4269 H   0  0  0  0  0  0  0  0  0  0  0  0
   -3.5412    3.8381    0.6599 H   0  0  0  0  0  0  0  0  0  0  0  0
   -2.4811    3.5731    2.0805 H   0  0  0  0  0  0  0  0  0  0  0  0
   -4.1436   -0.7439    2.9952 H   0  0  0  0  0  0  0  0  0  0  0  0
   -2.5993   -4.7804    2.7693 H   0  0  0  0  0  0  0  0  0  0  0  0
   -4.3341   -4.9850    2.3777 H   0  0  0  0  0  0  0  0  0  0  0  0
   -3.1822   -6.2892    2.0457 H   0  0  0  0  0  0  0  0  0  0  0  0
   -2.6556   -0.7318   -3.6459 H   0  0  0  0  0  0  0  0  0  0  0  0
   -0.6048   -1.1979   -4.9684 H   0  0  0  0  0  0  0  0  0  0  0  0
    1.6164   -0.8451   -3.9721 H   0  0  0  0  0  0  0  0  0  0  0  0
    2.9126   -0.2070   -2.1987 H   0  0  0  0  0  0  0  0  0  0  0  0
    4.4038   -1.3895   -0.9691 H   0  0  0  0  0  0  0  0  0  0  0  0
    6.8239   -1.3047   -0.5032 H   0  0  0  0  0  0  0  0  0  0  0  0
    6.3306    2.4901    1.4767 H   0  0  0  0  0  0  0  0  0  0  0  0
    3.9019    2.4275    0.9967 H   0  0  0  0  0  0  0  0  0  0  0  0
   -0.2539    0.4766   -0.3074 H   0  0  0  0  0  0  0  0  0  0  0  0
  1  2  1  0
  2  3  1  0
  3  4  1  0
  4  5  2  0
  4  6  1  0
  6  7  2  0
  7  8  1  0
  8  9  2  0
  9 10  1  0
 10 11  1  0
  9 12  1  0
 12 13  2  0
 13 14  1  0
 14 15  1  0
 15 16  2  0
 16 17  1  0
 17 18  2  0
 18 19  1  0
 19 20  1  0
 20 21  1  0
 21 22  2  0
 21 23  1  0
 23 24  2  0
 24 25  1  0
 25 26  2  0
 26 27  1  0
 26 28  1  0
 28 29  2  0
 19 30  2  0
 13  6  1  0
 30 15  1  0
 29 23  1  0
  1 31  1  0
  1 32  1  0
  1 33  1  0
  2 34  1  0
  2 35  1  0
  7 36  1  0
 11 37  1  0
 11 38  1  0
 11 39  1  0
 16 40  1  0
 17 41  1  0
 18 42  1  0
 20 43  1  0
 24 44  1  0
 25 45  1  0
 28 46  1  0
 29 47  1  0
 30 48  1  0
M  END
$$$$
