
     RDKit          3D

 36 37  0  0  0  0  0  0  0  0999 V2000
    4.6787    2.0018   -0.9126 C   0  0  0  0  0  0  0  0  0  0  0  0
    4.5465    0.6688   -0.4342 O   0  0  0  0  0  0  0  0  0  0  0  0
    3.2776    0.1659   -0.3401 C   0  0  0  0  0  0  0  0  0  0  0  0
    2.1045    0.8386   -0.6743 C   0  0  0  0  0  0  0  0  0  0  0  0
    0.8638    0.2074   -0.5286 C   0  0  0  0  0  0  0  0  0  0  0  0
    0.7845   -1.0961   -0.0330 C   0  0  0  0  0  0  0  0  0  0  0  0
   -0.4303   -1.8017    0.1259 N   0  0  0  0  0  0  0  0  0  0  0  0
   -1.7425   -1.4030    0.1174 C   0  0  0  0  0  0  0  0  0  0  0  0
   -2.8836   -2.6126   -0.0793 S   0  0  0  0  0  0  0  0  0  0  0  0
   -1.9636   -0.0763    0.3862 N   0  0  0  0  0  0  0  0  0  0  0  0
   -3.1032    0.7373    0.2141 C   0  0  0  0  0  0  0  0  0  0  0  0
   -3.1524    1.9280    0.9518 C   0  0  0  0  0  0  0  0  0  0  0  0
   -4.2308    2.8069    0.8208 C   0  0  0  0  0  0  0  0  0  0  0  0
   -5.2645    2.5117   -0.0630 C   0  0  0  0  0  0  0  0  0  0  0  0
   -5.2124    1.3442   -0.8201 C   0  0  0  0  0  0  0  0  0  0  0  0
   -4.1325    0.4646   -0.6877 C   0  0  0  0  0  0  0  0  0  0  0  0
    1.9726   -1.7917    0.2711 C   0  0  0  0  0  0  0  0  0  0  0  0
    1.8052   -3.0856    0.7076 O   0  0  0  0  0  0  0  0  0  0  0  0
    2.9817   -3.8268    1.0075 C   0  0  0  0  0  0  0  0  0  0  0  0
    3.2068   -1.1506    0.1261 C   0  0  0  0  0  0  0  0  0  0  0  0
    4.3073    2.0911   -1.9388 H   0  0  0  0  0  0  0  0  0  0  0  0
    4.1773    2.7119   -0.2466 H   0  0  0  0  0  0  0  0  0  0  0  0
    5.7445    2.2494   -0.9215 H   0  0  0  0  0  0  0  0  0  0  0  0
    2.1163    1.8499   -1.0680 H   0  0  0  0  0  0  0  0  0  0  0  0
   -0.0180    0.7454   -0.8621 H   0  0  0  0  0  0  0  0  0  0  0  0
   -0.3054   -2.8080    0.2207 H   0  0  0  0  0  0  0  0  0  0  0  0
   -1.2409    0.3189    0.9751 H   0  0  0  0  0  0  0  0  0  0  0  0
   -2.3596    2.1812    1.6509 H   0  0  0  0  0  0  0  0  0  0  0  0
   -4.2631    3.7198    1.4097 H   0  0  0  0  0  0  0  0  0  0  0  0
   -6.1056    3.1919   -0.1678 H   0  0  0  0  0  0  0  0  0  0  0  0
   -6.0091    1.1158   -1.5237 H   0  0  0  0  0  0  0  0  0  0  0  0
   -4.1118   -0.4094   -1.3292 H   0  0  0  0  0  0  0  0  0  0  0  0
    3.5335   -3.3720    1.8367 H   0  0  0  0  0  0  0  0  0  0  0  0
    2.6733   -4.8281    1.3233 H   0  0  0  0  0  0  0  0  0  0  0  0
    3.6153   -3.9383    0.1214 H   0  0  0  0  0  0  0  0  0  0  0  0
    4.1398   -1.6505    0.3645 H   0  0  0  0  0  0  0  0  0  0  0  0
  1  2  1  0
  2  3  1  0
  3  4  2  0
  4  5  1  0
  5  6  2  0
  6  7  1  0
  7  8  1  0
  8  9  2  0
  8 10  1  0
 10 11  1  0
 11 12  2  0
 12 13  1  0
 13 14  2  0
 14 15  1  0
 15 16  2  0
  6 17  1  0
 17 18  1  0
 18 19  1  0
 17 20  2  0
 20  3  1  0
 16 11  1  0
  1 21  1  0
  1 22  1  0
  1 23  1  0
  4 24  1  0
  5 25  1  0
  7 26  1  0
 10 27  1  0
 12 28  1  0
 13 29  1  0
 14 30  1  0
 15 31  1  0
 16 32  1  0
 19 33  1  0
 19 34  1  0
 19 35  1  0
 20 36  1  0
M  END
$$$$
