
     RDKit          3D

 60 64  0  0  0  0  0  0  0  0999 V2000
   -6.1480   -1.4063    1.1625 C   0  0  0  0  0  0  0  0  0  0  0  0
   -4.9685   -0.4706    0.9358 C   0  0  0  0  0  0  0  0  0  0  0  0
   -3.9751   -0.4633    2.1099 C   0  0  0  0  0  0  0  0  0  0  0  0
   -3.2866   -1.7376    2.2428 N   0  0  0  0  0  0  0  0  0  0  0  0
   -2.2428   -1.9524    1.3513 C   0  0  0  0  0  0  0  0  0  0  0  0
   -2.0576   -3.2417    1.0327 N   0  0  0  0  0  0  0  0  0  0  0  0
   -1.0087   -3.5013    0.2570 C   0  0  0  0  0  0  0  0  0  0  0  0
   -0.1080   -2.6100   -0.1616 N   0  0  0  0  0  0  0  0  0  0  0  0
   -0.2869   -1.3197    0.1990 C   0  0  0  0  0  0  0  0  0  0  0  0
    0.8014   -0.4570   -0.0407 N   0  0  0  0  0  0  0  0  0  0  0  0
    1.6049   -0.2585    1.2036 C   0  0  0  0  0  0  0  0  0  0  0  0
    3.0776   -0.7164    1.0700 C   0  0  0  0  0  0  0  0  0  0  0  0
    3.7285   -0.0889   -0.0938 N   0  0  0  0  0  0  0  0  0  0  0  0
    5.1092    0.0007   -0.2007 C   0  0  0  0  0  0  0  0  0  0  0  0
    5.9782   -0.7031    0.6482 C   0  0  0  0  0  0  0  0  0  0  0  0
    7.3708   -0.5988    0.5359 C   0  0  0  0  0  0  0  0  0  0  0  0
    7.9338    0.2247   -0.4311 C   0  0  0  0  0  0  0  0  0  0  0  0
    7.1028    0.9438   -1.2803 C   0  0  0  0  0  0  0  0  0  0  0  0
    5.7122    0.8315   -1.1611 C   0  0  0  0  0  0  0  0  0  0  0  0
    2.8893    0.0567   -1.3031 C   0  0  0  0  0  0  0  0  0  0  0  0
    1.6213   -0.8229   -1.2201 C   0  0  0  0  0  0  0  0  0  0  0  0
   -1.4343   -0.9013    0.8983 C   0  0  0  0  0  0  0  0  0  0  0  0
   -1.8326    0.4574    1.1942 N   0  0  0  0  0  0  0  0  0  0  0  0
   -1.2597    1.6210    0.5250 C   0  0  0  0  0  0  0  0  0  0  0  0
   -2.0322    1.9934   -0.7291 C   0  0  0  0  0  0  0  0  0  0  0  0
   -3.0114    2.9982   -0.6891 C   0  0  0  0  0  0  0  0  0  0  0  0
   -3.7415    3.3280   -1.8321 C   0  0  0  0  0  0  0  0  0  0  0  0
   -3.5040    2.6565   -3.0289 C   0  0  0  0  0  0  0  0  0  0  0  0
   -2.5377    1.6544   -3.0828 C   0  0  0  0  0  0  0  0  0  0  0  0
   -1.8073    1.3241   -1.9397 C   0  0  0  0  0  0  0  0  0  0  0  0
   -2.9973    0.7084    1.9350 C   0  0  0  0  0  0  0  0  0  0  0  0
   -3.3076    1.8335    2.3405 O   0  0  0  0  0  0  0  0  0  0  0  0
   -6.8604   -1.3185    0.3361 H   0  0  0  0  0  0  0  0  0  0  0  0
   -5.8275   -2.4508    1.2154 H   0  0  0  0  0  0  0  0  0  0  0  0
   -6.6739   -1.1576    2.0897 H   0  0  0  0  0  0  0  0  0  0  0  0
   -5.3595    0.5439    0.7857 H   0  0  0  0  0  0  0  0  0  0  0  0
   -4.4682   -0.7456   -0.0010 H   0  0  0  0  0  0  0  0  0  0  0  0
   -4.5155   -0.2832    3.0475 H   0  0  0  0  0  0  0  0  0  0  0  0
   -3.8527   -2.5756    2.3172 H   0  0  0  0  0  0  0  0  0  0  0  0
   -0.8580   -4.5323   -0.0426 H   0  0  0  0  0  0  0  0  0  0  0  0
    1.6027    0.8153    1.4274 H   0  0  0  0  0  0  0  0  0  0  0  0
    1.1614   -0.7606    2.0735 H   0  0  0  0  0  0  0  0  0  0  0  0
    3.5899   -0.4346    1.9978 H   0  0  0  0  0  0  0  0  0  0  0  0
    3.1220   -1.8083    0.9738 H   0  0  0  0  0  0  0  0  0  0  0  0
    5.5897   -1.3725    1.4096 H   0  0  0  0  0  0  0  0  0  0  0  0
    8.0105   -1.1662    1.2065 H   0  0  0  0  0  0  0  0  0  0  0  0
    9.0132    0.3086   -0.5191 H   0  0  0  0  0  0  0  0  0  0  0  0
    7.5294    1.6005   -2.0336 H   0  0  0  0  0  0  0  0  0  0  0  0
    5.0994    1.4345   -1.8257 H   0  0  0  0  0  0  0  0  0  0  0  0
    2.6031    1.1099   -1.4093 H   0  0  0  0  0  0  0  0  0  0  0  0
    3.4380   -0.2434   -2.2041 H   0  0  0  0  0  0  0  0  0  0  0  0
    1.9412   -1.8727   -1.1850 H   0  0  0  0  0  0  0  0  0  0  0  0
    1.0305   -0.6832   -2.1327 H   0  0  0  0  0  0  0  0  0  0  0  0
   -0.2060    1.5271    0.2847 H   0  0  0  0  0  0  0  0  0  0  0  0
   -1.2888    2.4712    1.2199 H   0  0  0  0  0  0  0  0  0  0  0  0
   -3.2172    3.5263    0.2409 H   0  0  0  0  0  0  0  0  0  0  0  0
   -4.4975    4.1075   -1.7853 H   0  0  0  0  0  0  0  0  0  0  0  0
   -4.0730    2.9129   -3.9185 H   0  0  0  0  0  0  0  0  0  0  0  0
   -2.3533    1.1274   -4.0153 H   0  0  0  0  0  0  0  0  0  0  0  0
   -1.0614    0.5374   -2.0011 H   0  0  0  0  0  0  0  0  0  0  0  0
  1  2  1  0
  2  3  1  0
  3  4  1  0
  4  5  1  0
  5  6  2  0
  6  7  1  0
  7  8  2  0
  8  9  1  0
  9 10  1  0
 10 11  1  0
 11 12  1  0
 12 13  1  0
 13 14  1  0
 14 15  2  0
 15 16  1  0
 16 17  2  0
 17 18  1  0
 18 19  2  0
 13 20  1  0
 20 21  1  0
  9 22  2  0
 22 23  1  0
 23 24  1  0
 24 25  1  0
 25 26  2  0
 26 27  1  0
 27 28  2  0
 28 29  1  0
 29 30  2  0
 23 31  1  0
 31 32  2  0
 31  3  1  0
 22  5  1  0
 30 25  1  0
 21 10  1  0
 19 14  1  0
  1 33  1  0
  1 34  1  0
  1 35  1  0
  2 36  1  0
  2 37  1  0
  3 38  1  0
  4 39  1  0
  7 40  1  0
 11 41  1  0
 11 42  1  0
 12 43  1  0
 12 44  1  0
 15 45  1  0
 16 46  1  0
 17 47  1  0
 18 48  1  0
 19 49  1  0
 20 50  1  0
 20 51  1  0
 21 52  1  0
 21 53  1  0
 24 54  1  0
 24 55  1  0
 26 56  1  0
 27 57  1  0
 28 58  1  0
 29 59  1  0
 30 60  1  0
M  END
$$$$
