
     RDKit          3D

 36 38  0  0  0  0  0  0  0  0999 V2000
   -2.4505    1.9334    2.3608 C   0  0  0  0  0  0  0  0  0  0  0  0
   -2.4330    0.8058    1.3699 C   0  0  0  0  0  0  0  0  0  0  0  0
   -3.1248    0.9207    0.1563 C   0  0  0  0  0  0  0  0  0  0  0  0
   -3.1397   -0.1376   -0.7532 C   0  0  0  0  0  0  0  0  0  0  0  0
   -2.4511   -1.3142   -0.4490 C   0  0  0  0  0  0  0  0  0  0  0  0
   -2.4300   -2.6499   -1.6212 S   0  0  0  0  0  6  0  0  0  0  0  0
   -3.6448   -2.5532   -2.4036 O   0  0  0  0  0  0  0  0  0  0  0  0
   -2.0830   -3.8650   -0.9216 O   0  0  0  0  0  0  0  0  0  0  0  0
   -1.1667   -2.2516   -2.6951 N   0  0  0  0  0  0  0  0  0  0  0  0
   -0.1181   -1.2678   -2.2283 N   0  0  0  0  0  0  0  0  0  0  0  0
    0.8201   -1.6438   -1.2797 C   0  0  0  0  0  0  0  0  0  0  0  0
    0.9271   -2.7330   -0.7365 O   0  0  0  0  0  0  0  0  0  0  0  0
    1.7028   -0.4769   -0.9847 C   0  0  0  0  0  0  0  0  0  0  0  0
    2.6948   -0.5902   -0.0906 C   0  0  0  0  0  0  0  0  0  0  0  0
    3.6000    0.4485    0.2734 C   0  0  0  0  0  0  0  0  0  0  0  0
    3.3953    1.7955    0.5239 C   0  0  0  0  0  0  0  0  0  0  0  0
    4.5906    2.4889    0.8754 C   0  0  0  0  0  0  0  0  0  0  0  0
    5.6801    1.6514    0.9038 C   0  0  0  0  0  0  0  0  0  0  0  0
    5.2598    0.0426    0.5198 S   0  0  0  0  0  0  0  0  0  0  0  0
    1.2511    0.8759   -1.9551 S   0  0  0  0  0  0  0  0  0  0  0  0
   -0.0506    0.0074   -2.7465 C   0  0  0  0  0  0  0  0  0  0  0  0
   -1.0203    0.6550   -3.9368 S   0  0  0  0  0  0  0  0  0  0  0  0
   -1.7976   -1.4602    0.7775 C   0  0  0  0  0  0  0  0  0  0  0  0
   -1.7866   -0.3979    1.6816 C   0  0  0  0  0  0  0  0  0  0  0  0
   -2.5124    2.9003    1.8503 H   0  0  0  0  0  0  0  0  0  0  0  0
   -1.5335    1.9408    2.9593 H   0  0  0  0  0  0  0  0  0  0  0  0
   -3.3101    1.8301    3.0301 H   0  0  0  0  0  0  0  0  0  0  0  0
   -3.6639    1.8358   -0.0832 H   0  0  0  0  0  0  0  0  0  0  0  0
   -3.6886   -0.0346   -1.6872 H   0  0  0  0  0  0  0  0  0  0  0  0
   -1.5777   -2.0175   -3.6055 H   0  0  0  0  0  0  0  0  0  0  0  0
    2.8550   -1.5585    0.3854 H   0  0  0  0  0  0  0  0  0  0  0  0
    2.4263    2.2767    0.4676 H   0  0  0  0  0  0  0  0  0  0  0  0
    4.6446    3.5468    1.1019 H   0  0  0  0  0  0  0  0  0  0  0  0
    6.7045    1.9044    1.1407 H   0  0  0  0  0  0  0  0  0  0  0  0
   -1.2921   -2.3909    1.0331 H   0  0  0  0  0  0  0  0  0  0  0  0
   -1.2769   -0.5172    2.6362 H   0  0  0  0  0  0  0  0  0  0  0  0
  1  2  1  0
  2  3  2  0
  3  4  1  0
  4  5  2  0
  5  6  1  0
  6  7  2  0
  6  8  2  0
  6  9  1  0
  9 10  1  0
 10 11  1  0
 11 12  2  0
 11 13  1  0
 13 14  2  3
 14 15  1  0
 15 16  2  0
 16 17  1  0
 17 18  2  0
 18 19  1  0
 13 20  1  0
 20 21  1  0
 21 22  2  0
  5 23  1  0
 23 24  2  0
 24  2  1  0
 21 10  1  0
 19 15  1  0
  1 25  1  0
  1 26  1  0
  1 27  1  0
  3 28  1  0
  4 29  1  0
  9 30  1  0
 14 31  1  0
 16 32  1  0
 17 33  1  0
 18 34  1  0
 23 35  1  0
 24 36  1  0
M  END
$$$$
