
     RDKit          3D

 67 69  0  0  0  0  0  0  0  0999 V2000
   -3.6159    2.8744   -3.2397 C   0  0  0  0  0  0  0  0  0  0  0  0
   -3.6467    1.3470   -3.4113 C   0  0  0  0  0  0  0  0  0  0  0  0
   -3.4910    1.0319   -4.9108 C   0  0  0  0  0  0  0  0  0  0  0  0
   -4.9936    0.7856   -2.9310 C   0  0  0  0  0  0  0  0  0  0  0  0
   -2.5311    0.7053   -2.6969 N   0  0  0  0  0  0  0  0  0  0  0  0
   -2.3102    0.7982   -1.3275 C   0  0  0  0  0  0  0  0  0  0  0  0
   -3.0037    1.4857   -0.5828 O   0  0  0  0  0  0  0  0  0  0  0  0
   -1.1016   -0.0543   -0.8337 C   0  0  0  0  0  0  0  0  0  0  0  0
   -1.2973   -1.5679   -0.9578 C   0  0  0  0  0  0  0  0  0  0  0  0
   -2.5689   -2.1678   -1.0030 C   0  0  0  0  0  0  0  0  0  0  0  0
   -2.6966   -3.5549   -1.1041 C   0  0  0  0  0  0  0  0  0  0  0  0
   -1.5584   -4.3497   -1.1477 C   0  0  0  0  0  0  0  0  0  0  0  0
   -1.6856   -5.6797   -1.2433 F   0  0  0  0  0  0  0  0  0  0  0  0
   -0.2915   -3.7848   -1.0863 C   0  0  0  0  0  0  0  0  0  0  0  0
   -0.1598   -2.3988   -0.9887 C   0  0  0  0  0  0  0  0  0  0  0  0
   -0.6391    0.3222    0.5223 N   0  0  0  0  0  0  0  0  0  0  0  0
    0.5773    0.9521    0.7800 C   0  0  0  0  0  0  0  0  0  0  0  0
    0.9494    1.2287    1.9222 O   0  0  0  0  0  0  0  0  0  0  0  0
    1.4489    1.3393   -0.4076 C   0  0  0  0  0  0  0  0  0  0  0  0
    2.8150    1.8550    0.0416 C   0  0  0  0  0  0  0  0  0  0  0  0
    3.7238    0.7107    0.4658 C   0  0  0  0  0  0  0  0  0  0  0  0
    3.4944   -0.4506    0.1402 O   0  0  0  0  0  0  0  0  0  0  0  0
    4.8190    1.1573    1.1662 N   0  0  0  0  0  0  0  0  0  0  0  0
    5.8825    0.4169    1.6804 C   0  0  0  0  0  0  0  0  0  0  0  0
    6.0012   -0.9616    1.5726 C   0  0  0  0  0  0  0  0  0  0  0  0
    7.1200   -1.5849    2.1241 C   0  0  0  0  0  0  0  0  0  0  0  0
    8.0816   -0.8182    2.7669 C   0  0  0  0  0  0  0  0  0  0  0  0
    7.8829    0.5487    2.8290 C   0  0  0  0  0  0  0  0  0  0  0  0
    6.8104    1.1790    2.3006 N   0  0  0  0  0  0  0  0  0  0  0  0
   -1.5383    0.0056    1.6477 C   0  0  0  0  0  0  0  0  0  0  0  0
   -1.9327    1.2085    2.5286 C   0  0  0  0  0  0  0  0  0  0  0  0
   -1.5685    0.8150    3.9573 C   0  0  0  0  0  0  0  0  0  0  0  0
   -1.5998   -0.7044    3.9499 C   0  0  0  0  0  0  0  0  0  0  0  0
   -0.9824   -1.0592    2.6062 C   0  0  0  0  0  0  0  0  0  0  0  0
   -2.6425    3.2835   -3.5336 H   0  0  0  0  0  0  0  0  0  0  0  0
   -4.3839    3.3560   -3.8564 H   0  0  0  0  0  0  0  0  0  0  0  0
   -3.7988    3.1778   -2.2044 H   0  0  0  0  0  0  0  0  0  0  0  0
   -4.2967    1.4824   -5.5014 H   0  0  0  0  0  0  0  0  0  0  0  0
   -3.5067   -0.0495   -5.0918 H   0  0  0  0  0  0  0  0  0  0  0  0
   -2.5373    1.4121   -5.2960 H   0  0  0  0  0  0  0  0  0  0  0  0
   -5.1815    1.0196   -1.8781 H   0  0  0  0  0  0  0  0  0  0  0  0
   -5.0223   -0.3056   -3.0320 H   0  0  0  0  0  0  0  0  0  0  0  0
   -5.8253    1.2000   -3.5122 H   0  0  0  0  0  0  0  0  0  0  0  0
   -2.0554   -0.0469   -3.1822 H   0  0  0  0  0  0  0  0  0  0  0  0
   -0.3248    0.1921   -1.5620 H   0  0  0  0  0  0  0  0  0  0  0  0
   -3.4764   -1.5692   -0.9442 H   0  0  0  0  0  0  0  0  0  0  0  0
   -3.6772   -4.0208   -1.1388 H   0  0  0  0  0  0  0  0  0  0  0  0
    0.5857   -4.4241   -1.1047 H   0  0  0  0  0  0  0  0  0  0  0  0
    0.8405   -1.9711   -0.9178 H   0  0  0  0  0  0  0  0  0  0  0  0
    0.9284    2.1353   -0.9524 H   0  0  0  0  0  0  0  0  0  0  0  0
    1.5891    0.4844   -1.0740 H   0  0  0  0  0  0  0  0  0  0  0  0
    2.7226    2.5845    0.8537 H   0  0  0  0  0  0  0  0  0  0  0  0
    3.3043    2.3544   -0.8032 H   0  0  0  0  0  0  0  0  0  0  0  0
    4.9075    2.1420    1.3784 H   0  0  0  0  0  0  0  0  0  0  0  0
    5.2544   -1.5689    1.0765 H   0  0  0  0  0  0  0  0  0  0  0  0
    7.2348   -2.6622    2.0481 H   0  0  0  0  0  0  0  0  0  0  0  0
    8.9620   -1.2729    3.2060 H   0  0  0  0  0  0  0  0  0  0  0  0
    8.6057    1.1959    3.3181 H   0  0  0  0  0  0  0  0  0  0  0  0
   -2.4756   -0.3861    1.2341 H   0  0  0  0  0  0  0  0  0  0  0  0
   -1.4660    2.1540    2.2358 H   0  0  0  0  0  0  0  0  0  0  0  0
   -3.0174    1.3603    2.4608 H   0  0  0  0  0  0  0  0  0  0  0  0
   -2.2585    1.2407    4.6916 H   0  0  0  0  0  0  0  0  0  0  0  0
   -0.5597    1.1687    4.1994 H   0  0  0  0  0  0  0  0  0  0  0  0
   -2.6344   -1.0637    3.9987 H   0  0  0  0  0  0  0  0  0  0  0  0
   -1.0464   -1.1362    4.7886 H   0  0  0  0  0  0  0  0  0  0  0  0
   -1.2518   -2.0721    2.2890 H   0  0  0  0  0  0  0  0  0  0  0  0
    0.1101   -1.0244    2.6770 H   0  0  0  0  0  0  0  0  0  0  0  0
  1  2  1  0
  2  3  1  0
  2  4  1  0
  2  5  1  0
  5  6  1  0
  6  7  2  0
  6  8  1  0
  8  9  1  0
  9 10  2  0
 10 11  1  0
 11 12  2  0
 12 13  1  0
 12 14  1  0
 14 15  2  0
  8 16  1  0
 16 17  1  0
 17 18  2  0
 17 19  1  0
 19 20  1  0
 20 21  1  0
 21 22  2  0
 21 23  1  0
 23 24  1  0
 24 25  2  0
 25 26  1  0
 26 27  2  0
 27 28  1  0
 28 29  2  0
 16 30  1  0
 30 31  1  0
 31 32  1  0
 32 33  1  0
 33 34  1  0
 15  9  1  0
 29 24  1  0
 34 30  1  0
  1 35  1  0
  1 36  1  0
  1 37  1  0
  3 38  1  0
  3 39  1  0
  3 40  1  0
  4 41  1  0
  4 42  1  0
  4 43  1  0
  5 44  1  0
  8 45  1  0
 10 46  1  0
 11 47  1  0
 14 48  1  0
 15 49  1  0
 19 50  1  0
 19 51  1  0
 20 52  1  0
 20 53  1  0
 23 54  1  0
 25 55  1  0
 26 56  1  0
 27 57  1  0
 28 58  1  0
 30 59  1  0
 31 60  1  0
 31 61  1  0
 32 62  1  0
 32 63  1  0
 33 64  1  0
 33 65  1  0
 34 66  1  0
 34 67  1  0
M  END
$$$$
