
     RDKit          3D

 38 39  0  0  0  0  0  0  0  0999 V2000
    0.1096    0.2137   -2.3807 O   0  0  0  0  0  0  0  0  0  0  0  0
    0.6435    0.0757   -1.2922 C   0  0  0  0  0  0  0  0  0  0  0  0
    1.9787   -0.1744   -1.0739 N   0  0  0  0  0  0  0  0  0  0  0  0
    2.9343   -0.1797   -2.1580 C   0  0  0  0  0  0  0  0  0  0  0  0
    3.3610    1.2284   -2.5730 C   0  0  0  0  0  0  0  0  0  0  0  0
    4.2634    1.1719   -3.6727 O   0  0  0  0  0  0  0  0  0  0  0  0
   -0.1707    0.2200   -0.0083 C   0  0  0  0  0  0  0  0  0  0  0  0
   -1.6145   -0.2296   -0.0953 C   0  0  0  0  0  0  0  0  0  0  0  0
   -1.7462   -1.7251   -0.2687 C   0  0  0  0  0  0  0  0  0  0  0  0
   -1.9171   -2.2806   -1.5458 C   0  0  0  0  0  0  0  0  0  0  0  0
   -2.0247   -3.6630   -1.7124 C   0  0  0  0  0  0  0  0  0  0  0  0
   -1.9589   -4.4993   -0.6012 C   0  0  0  0  0  0  0  0  0  0  0  0
   -2.1111   -6.3698   -0.8229 Br  0  0  0  0  0  0  0  0  0  0  0  0
   -1.7858   -3.9648    0.6733 C   0  0  0  0  0  0  0  0  0  0  0  0
   -1.6745   -2.5822    0.8382 C   0  0  0  0  0  0  0  0  0  0  0  0
    0.4551    0.7428    1.0086 N   0  0  0  0  0  0  0  0  0  0  0  0
   -0.2361    0.9109    2.1784 C   0  0  0  0  0  0  0  0  0  0  0  0
   -0.7008   -0.0235    2.8198 O   0  0  0  0  0  0  0  0  0  0  0  0
   -0.3379    2.3025    2.6033 C   0  0  0  0  0  0  0  0  0  0  0  0
   -0.9197    2.7616    3.7735 C   0  0  0  0  0  0  0  0  0  0  0  0
   -0.8737    4.1802    3.8946 C   0  0  0  0  0  0  0  0  0  0  0  0
   -0.2579    4.7666    2.8129 C   0  0  0  0  0  0  0  0  0  0  0  0
    0.2573    3.6107    1.6650 S   0  0  0  0  0  0  0  0  0  0  0  0
    2.3055   -0.0938   -0.1147 H   0  0  0  0  0  0  0  0  0  0  0  0
    3.8043   -0.7640   -1.8391 H   0  0  0  0  0  0  0  0  0  0  0  0
    2.4971   -0.6983   -3.0197 H   0  0  0  0  0  0  0  0  0  0  0  0
    3.8656    1.7336   -1.7426 H   0  0  0  0  0  0  0  0  0  0  0  0
    2.5003    1.8429   -2.8586 H   0  0  0  0  0  0  0  0  0  0  0  0
    3.7362    0.9578   -4.4639 H   0  0  0  0  0  0  0  0  0  0  0  0
   -2.1907    0.0873    0.7790 H   0  0  0  0  0  0  0  0  0  0  0  0
   -2.0819    0.2881   -0.9424 H   0  0  0  0  0  0  0  0  0  0  0  0
   -1.9607   -1.6390   -2.4247 H   0  0  0  0  0  0  0  0  0  0  0  0
   -2.1554   -4.0723   -2.7103 H   0  0  0  0  0  0  0  0  0  0  0  0
   -1.7365   -4.6125    1.5446 H   0  0  0  0  0  0  0  0  0  0  0  0
   -1.5465   -2.1859    1.8433 H   0  0  0  0  0  0  0  0  0  0  0  0
   -1.3602    2.0995    4.5104 H   0  0  0  0  0  0  0  0  0  0  0  0
   -1.2645    4.7419    4.7341 H   0  0  0  0  0  0  0  0  0  0  0  0
   -0.0858    5.8218    2.6420 H   0  0  0  0  0  0  0  0  0  0  0  0
  1  2  2  0
  2  3  1  0
  3  4  1  0
  4  5  1  0
  5  6  1  0
  2  7  1  0
  7  8  1  0
  8  9  1  0
  9 10  2  0
 10 11  1  0
 11 12  2  0
 12 13  1  0
 12 14  1  0
 14 15  2  0
  7 16  2  3
 16 17  1  0
 17 18  2  0
 17 19  1  0
 19 20  2  0
 20 21  1  0
 21 22  2  0
 22 23  1  0
 15  9  1  0
 23 19  1  0
  3 24  1  0
  4 25  1  0
  4 26  1  0
  5 27  1  0
  5 28  1  0
  6 29  1  0
  8 30  1  0
  8 31  1  0
 10 32  1  0
 11 33  1  0
 14 34  1  0
 15 35  1  0
 20 36  1  0
 21 37  1  0
 22 38  1  0
M  END
$$$$
