
     RDKit          3D

 69 72  0  0  0  0  0  0  0  0999 V2000
  -10.7258   -0.7413   -1.3330 C   0  0  0  0  0  0  0  0  0  0  0  0
   -9.3608   -0.2143   -1.0034 C   0  0  0  0  0  0  0  0  0  0  0  0
   -8.8928   -0.2275    0.3130 C   0  0  0  0  0  0  0  0  0  0  0  0
   -7.6053    0.2285    0.6126 C   0  0  0  0  0  0  0  0  0  0  0  0
   -6.7611    0.7123   -0.4009 C   0  0  0  0  0  0  0  0  0  0  0  0
   -5.4491    1.1607   -0.0512 N   0  0  0  0  0  0  0  0  0  0  0  0
   -4.9377    0.7998    1.1571 N   0  0  0  0  0  0  0  0  0  0  0  0
   -3.6506    1.1501    1.1088 C   0  0  0  0  0  0  0  0  0  0  0  0
   -2.6476    0.9070    2.1376 C   0  0  0  0  0  0  0  0  0  0  0  0
   -2.8758    0.3023    3.1831 O   0  0  0  0  0  0  0  0  0  0  0  0
   -1.3856    1.4477    1.8049 N   0  0  0  0  0  0  0  0  0  0  0  0
   -0.2764    1.2765    2.7363 C   0  0  0  0  0  0  0  0  0  0  0  0
    0.4455   -0.0594    2.5639 C   0  0  0  0  0  0  0  0  0  0  0  0
    1.2263   -0.1436    1.2528 C   0  0  0  0  0  0  0  0  0  0  0  0
    2.0367   -1.4221    1.1584 C   0  0  0  0  0  0  0  0  0  0  0  0
    1.9664   -2.3363    1.9724 O   0  0  0  0  0  0  0  0  0  0  0  0
    2.8518   -1.4611    0.0446 N   0  0  0  0  0  0  0  0  0  0  0  0
    3.8313   -2.5235   -0.1083 C   0  0  0  0  0  0  0  0  0  0  0  0
    5.1146   -2.2344    0.6957 C   0  0  0  0  0  0  0  0  0  0  0  0
    5.7627   -0.9596    0.3140 N   0  0  0  0  0  0  0  0  0  0  0  0
    6.3160   -1.0216   -1.0591 C   0  0  0  0  0  0  0  0  0  0  0  0
    7.4979   -0.0530   -1.2942 C   0  0  0  0  0  0  0  0  0  0  0  0
    8.6509   -0.2790   -0.4010 N   0  0  0  0  0  0  0  0  0  0  0  0
    9.7241   -1.0163   -1.0596 C   0  0  0  0  0  0  0  0  0  0  0  0
    8.2454   -0.9485    0.8512 C   0  0  0  0  0  0  0  0  0  0  0  0
    6.8113   -0.5767    1.2878 C   0  0  0  0  0  0  0  0  0  0  0  0
   -1.0855    2.1220    0.6150 N   0  0  0  0  0  0  0  0  0  0  0  0
   -2.0000    2.3194   -0.2937 C   0  0  0  0  0  0  0  0  0  0  0  0
   -1.6111    3.0445   -1.5506 C   0  0  0  0  0  0  0  0  0  0  0  0
   -3.3412    1.8417   -0.0668 C   0  0  0  0  0  0  0  0  0  0  0  0
   -4.5331    1.9430   -0.7655 C   0  0  0  0  0  0  0  0  0  0  0  0
   -4.8635    2.7408   -1.9746 C   0  0  0  0  0  0  0  0  0  0  0  0
   -7.2181    0.6886   -1.7225 C   0  0  0  0  0  0  0  0  0  0  0  0
   -8.5080    0.2296   -2.0188 C   0  0  0  0  0  0  0  0  0  0  0  0
  -11.1528   -0.2088   -2.1889 H   0  0  0  0  0  0  0  0  0  0  0  0
  -11.4129   -0.6073   -0.4907 H   0  0  0  0  0  0  0  0  0  0  0  0
  -10.6671   -1.8074   -1.5733 H   0  0  0  0  0  0  0  0  0  0  0  0
   -9.5240   -0.5950    1.1197 H   0  0  0  0  0  0  0  0  0  0  0  0
   -7.2758    0.2045    1.6509 H   0  0  0  0  0  0  0  0  0  0  0  0
    0.4198    2.1145    2.6115 H   0  0  0  0  0  0  0  0  0  0  0  0
   -0.6707    1.3379    3.7574 H   0  0  0  0  0  0  0  0  0  0  0  0
   -0.2710   -0.8879    2.6228 H   0  0  0  0  0  0  0  0  0  0  0  0
    1.1413   -0.1858    3.4032 H   0  0  0  0  0  0  0  0  0  0  0  0
    1.9116    0.7083    1.1735 H   0  0  0  0  0  0  0  0  0  0  0  0
    0.5429   -0.1205    0.3971 H   0  0  0  0  0  0  0  0  0  0  0  0
    3.1108   -0.5712   -0.3624 H   0  0  0  0  0  0  0  0  0  0  0  0
    4.0447   -2.6187   -1.1773 H   0  0  0  0  0  0  0  0  0  0  0  0
    3.3933   -3.4690    0.2295 H   0  0  0  0  0  0  0  0  0  0  0  0
    5.8122   -3.0748    0.5926 H   0  0  0  0  0  0  0  0  0  0  0  0
    4.8301   -2.1856    1.7547 H   0  0  0  0  0  0  0  0  0  0  0  0
    5.5186   -0.7790   -1.7701 H   0  0  0  0  0  0  0  0  0  0  0  0
    6.6635   -2.0360   -1.2954 H   0  0  0  0  0  0  0  0  0  0  0  0
    7.1434    0.9725   -1.1262 H   0  0  0  0  0  0  0  0  0  0  0  0
    7.7972   -0.0890   -2.3492 H   0  0  0  0  0  0  0  0  0  0  0  0
   10.0991   -0.4571   -1.9230 H   0  0  0  0  0  0  0  0  0  0  0  0
   10.5734   -1.1518   -0.3799 H   0  0  0  0  0  0  0  0  0  0  0  0
    9.3954   -2.0034   -1.4040 H   0  0  0  0  0  0  0  0  0  0  0  0
    8.9469   -0.6642    1.6442 H   0  0  0  0  0  0  0  0  0  0  0  0
    8.2997   -2.0412    0.7498 H   0  0  0  0  0  0  0  0  0  0  0  0
    6.6103   -0.9947    2.2823 H   0  0  0  0  0  0  0  0  0  0  0  0
    6.7574    0.5121    1.4176 H   0  0  0  0  0  0  0  0  0  0  0  0
   -1.9964    2.5182   -2.4273 H   0  0  0  0  0  0  0  0  0  0  0  0
   -2.0125    4.0609   -1.5230 H   0  0  0  0  0  0  0  0  0  0  0  0
   -0.5219    3.1036   -1.6332 H   0  0  0  0  0  0  0  0  0  0  0  0
   -4.2592    3.6515   -2.0176 H   0  0  0  0  0  0  0  0  0  0  0  0
   -5.9034    3.0815   -1.9708 H   0  0  0  0  0  0  0  0  0  0  0  0
   -4.6695    2.1661   -2.8854 H   0  0  0  0  0  0  0  0  0  0  0  0
   -6.5886    0.9650   -2.5595 H   0  0  0  0  0  0  0  0  0  0  0  0
   -8.8377    0.2068   -3.0555 H   0  0  0  0  0  0  0  0  0  0  0  0
  1  2  1  0
  2  3  2  0
  3  4  1  0
  4  5  2  0
  5  6  1  0
  6  7  1  0
  7  8  2  0
  8  9  1  0
  9 10  2  0
  9 11  1  0
 11 12  1  0
 12 13  1  0
 13 14  1  0
 14 15  1  0
 15 16  2  0
 15 17  1  0
 17 18  1  0
 18 19  1  0
 19 20  1  0
 20 21  1  0
 21 22  1  0
 22 23  1  0
 23 24  1  0
 23 25  1  0
 25 26  1  0
 11 27  1  0
 27 28  2  0
 28 29  1  0
 28 30  1  0
 30 31  2  0
 31 32  1  0
  5 33  1  0
 33 34  2  0
 34  2  1  0
 31  6  1  0
 30  8  1  0
 26 20  1  0
  1 35  1  0
  1 36  1  0
  1 37  1  0
  3 38  1  0
  4 39  1  0
 12 40  1  0
 12 41  1  0
 13 42  1  0
 13 43  1  0
 14 44  1  0
 14 45  1  0
 17 46  1  0
 18 47  1  0
 18 48  1  0
 19 49  1  0
 19 50  1  0
 21 51  1  0
 21 52  1  0
 22 53  1  0
 22 54  1  0
 24 55  1  0
 24 56  1  0
 24 57  1  0
 25 58  1  0
 25 59  1  0
 26 60  1  0
 26 61  1  0
 29 62  1  0
 29 63  1  0
 29 64  1  0
 32 65  1  0
 32 66  1  0
 32 67  1  0
 33 68  1  0
 34 69  1  0
M  END
$$$$
