
     RDKit          3D

 63 66  0  0  0  0  0  0  0  0999 V2000
    5.2568   -1.8707   -1.1781 C   0  0  0  0  0  0  0  0  0  0  0  0
    5.8873   -0.5353   -0.7630 C   0  0  0  0  0  0  0  0  0  0  0  0
    5.2886   -0.0138    0.5572 C   0  0  0  0  0  0  0  0  0  0  0  0
    3.8902    0.3619    0.4074 N   0  0  0  0  0  0  0  0  0  0  0  0
    2.9796    0.1695    1.4276 C   0  0  0  0  0  0  0  0  0  0  0  0
    3.2553   -0.3727    2.4931 O   0  0  0  0  0  0  0  0  0  0  0  0
    1.6028    0.6894    1.1900 C   0  0  0  0  0  0  0  0  0  0  0  0
    0.8060    0.9990    2.2997 C   0  0  0  0  0  0  0  0  0  0  0  0
   -0.4967    1.4822    2.1281 C   0  0  0  0  0  0  0  0  0  0  0  0
   -1.0159    1.6485    0.8446 C   0  0  0  0  0  0  0  0  0  0  0  0
   -2.2589    2.1201    0.5356 O   0  0  0  0  0  0  0  0  0  0  0  0
   -3.3071    2.0055    1.5100 C   0  0  0  0  0  0  0  0  0  0  0  0
   -4.4608    2.8965    1.0402 C   0  0  0  0  0  0  0  0  0  0  0  0
   -5.1100    2.3530   -0.2338 C   0  0  0  0  0  0  0  0  0  0  0  0
   -5.5831    0.9721   -0.0455 N   0  0  0  0  0  0  0  0  0  0  0  0
   -6.2244    0.4981   -1.2966 C   0  0  0  0  0  0  0  0  0  0  0  0
   -6.9272   -0.8434   -1.1697 C   0  0  0  0  0  0  0  0  0  0  0  0
   -8.0142   -0.9863   -0.3085 C   0  0  0  0  0  0  0  0  0  0  0  0
   -8.6318   -2.2298   -0.2059 C   0  0  0  0  0  0  0  0  0  0  0  0
   -8.1509   -3.2954   -0.9594 C   0  0  0  0  0  0  0  0  0  0  0  0
   -7.0659   -3.0712   -1.7898 C   0  0  0  0  0  0  0  0  0  0  0  0
   -6.4470   -1.8758   -1.9136 N   0  0  0  0  0  0  0  0  0  0  0  0
   -4.4587    0.0911    0.3233 C   0  0  0  0  0  0  0  0  0  0  0  0
   -3.8004    0.5613    1.6227 C   0  0  0  0  0  0  0  0  0  0  0  0
   -0.2207    1.3382   -0.2631 C   0  0  0  0  0  0  0  0  0  0  0  0
    1.0776    0.8483   -0.0976 C   0  0  0  0  0  0  0  0  0  0  0  0
    7.4009   -0.6543   -0.6794 C   0  0  0  0  0  0  0  0  0  0  0  0
    8.2093    0.0829   -1.5595 C   0  0  0  0  0  0  0  0  0  0  0  0
    9.6015   -0.0156   -1.5015 C   0  0  0  0  0  0  0  0  0  0  0  0
   10.2041   -0.8514   -0.5645 C   0  0  0  0  0  0  0  0  0  0  0  0
    9.4148   -1.5894    0.3158 C   0  0  0  0  0  0  0  0  0  0  0  0
    8.0223   -1.4928    0.2594 C   0  0  0  0  0  0  0  0  0  0  0  0
    5.6869   -2.2285   -2.1196 H   0  0  0  0  0  0  0  0  0  0  0  0
    5.4145   -2.6490   -0.4231 H   0  0  0  0  0  0  0  0  0  0  0  0
    4.1771   -1.7650   -1.3268 H   0  0  0  0  0  0  0  0  0  0  0  0
    5.6415    0.1908   -1.5505 H   0  0  0  0  0  0  0  0  0  0  0  0
    5.8149    0.8906    0.8868 H   0  0  0  0  0  0  0  0  0  0  0  0
    5.3906   -0.7576    1.3557 H   0  0  0  0  0  0  0  0  0  0  0  0
    3.6728    1.0504   -0.3008 H   0  0  0  0  0  0  0  0  0  0  0  0
    1.2002    0.8691    3.3073 H   0  0  0  0  0  0  0  0  0  0  0  0
   -1.0671    1.7238    3.0187 H   0  0  0  0  0  0  0  0  0  0  0  0
   -2.9759    2.3875    2.4814 H   0  0  0  0  0  0  0  0  0  0  0  0
   -5.2158    2.9690    1.8331 H   0  0  0  0  0  0  0  0  0  0  0  0
   -4.0920    3.9100    0.8429 H   0  0  0  0  0  0  0  0  0  0  0  0
   -4.4030    2.4165   -1.0713 H   0  0  0  0  0  0  0  0  0  0  0  0
   -5.9607    3.0009   -0.4807 H   0  0  0  0  0  0  0  0  0  0  0  0
   -6.9888    1.2205   -1.6123 H   0  0  0  0  0  0  0  0  0  0  0  0
   -5.4901    0.4471   -2.1114 H   0  0  0  0  0  0  0  0  0  0  0  0
   -8.3649   -0.1428    0.2798 H   0  0  0  0  0  0  0  0  0  0  0  0
   -9.4790   -2.3648    0.4592 H   0  0  0  0  0  0  0  0  0  0  0  0
   -8.6094   -4.2763   -0.8987 H   0  0  0  0  0  0  0  0  0  0  0  0
   -6.6504   -3.8717   -2.3979 H   0  0  0  0  0  0  0  0  0  0  0  0
   -3.7128    0.0464   -0.4806 H   0  0  0  0  0  0  0  0  0  0  0  0
   -4.8142   -0.9317    0.4920 H   0  0  0  0  0  0  0  0  0  0  0  0
   -2.9720   -0.1166    1.8582 H   0  0  0  0  0  0  0  0  0  0  0  0
   -4.5230    0.4850    2.4454 H   0  0  0  0  0  0  0  0  0  0  0  0
   -0.6268    1.4592   -1.2658 H   0  0  0  0  0  0  0  0  0  0  0  0
    1.6466    0.5721   -0.9809 H   0  0  0  0  0  0  0  0  0  0  0  0
    7.7619    0.7401   -2.3018 H   0  0  0  0  0  0  0  0  0  0  0  0
   10.2162    0.5593   -2.1899 H   0  0  0  0  0  0  0  0  0  0  0  0
   11.2880   -0.9284   -0.5216 H   0  0  0  0  0  0  0  0  0  0  0  0
    9.8831   -2.2434    1.0474 H   0  0  0  0  0  0  0  0  0  0  0  0
    7.4279   -2.0821    0.9558 H   0  0  0  0  0  0  0  0  0  0  0  0
  1  2  1  0
  2  3  1  0
  3  4  1  0
  4  5  1  0
  5  6  2  0
  5  7  1  0
  7  8  2  0
  8  9  1  0
  9 10  2  0
 10 11  1  0
 11 12  1  0
 12 13  1  0
 13 14  1  0
 14 15  1  0
 15 16  1  0
 16 17  1  0
 17 18  2  0
 18 19  1  0
 19 20  2  0
 20 21  1  0
 21 22  2  0
 15 23  1  0
 23 24  1  0
 10 25  1  0
 25 26  2  0
  2 27  1  0
 27 28  2  0
 28 29  1  0
 29 30  2  0
 30 31  1  0
 31 32  2  0
 26  7  1  0
 32 27  1  0
 24 12  1  0
 22 17  1  0
  1 33  1  0
  1 34  1  0
  1 35  1  0
  2 36  1  0
  3 37  1  0
  3 38  1  0
  4 39  1  0
  8 40  1  0
  9 41  1  0
 12 42  1  0
 13 43  1  0
 13 44  1  0
 14 45  1  0
 14 46  1  0
 16 47  1  0
 16 48  1  0
 18 49  1  0
 19 50  1  0
 20 51  1  0
 21 52  1  0
 23 53  1  0
 23 54  1  0
 24 55  1  0
 24 56  1  0
 25 57  1  0
 26 58  1  0
 28 59  1  0
 29 60  1  0
 30 61  1  0
 31 62  1  0
 32 63  1  0
M  END
$$$$
