
     RDKit          3D

 49 51  0  0  0  0  0  0  0  0999 V2000
   -2.7847    2.7720   -0.7854 C   0  0  0  0  0  0  0  0  0  0  0  0
   -1.5827    2.3071    0.0259 C   0  0  0  0  0  0  0  0  0  0  0  0
   -1.8524    1.3463    1.2068 C   0  0  0  0  0  0  0  0  0  0  0  0
   -3.0961    1.6840    2.0345 C   0  0  0  0  0  0  0  0  0  0  0  0
   -1.8074   -0.0891    0.8109 N   0  0  0  0  0  0  0  0  0  0  0  0
   -0.7125   -0.9369    1.0375 C   0  0  0  0  0  0  0  0  0  0  0  0
   -0.6852   -2.0633    0.5263 O   0  0  0  0  0  0  0  0  0  0  0  0
    0.4238   -0.5219    1.9425 C   0  0  0  0  0  0  0  0  0  0  0  0
    1.5064    0.0462    1.1821 N   0  0  0  0  0  0  0  0  0  0  0  0
    1.5337    1.3515    0.8646 N   0  0  0  0  0  0  0  0  0  0  0  0
    2.7041    1.5295    0.2704 N   0  0  0  0  0  0  0  0  0  0  0  0
    3.3552    0.3156    0.2924 C   0  0  0  0  0  0  0  0  0  0  0  0
    4.6878    0.1187   -0.2645 C   0  0  0  0  0  0  0  0  0  0  0  0
    5.2951   -1.1494   -0.2465 C   0  0  0  0  0  0  0  0  0  0  0  0
    6.5737   -1.3333   -0.7803 C   0  0  0  0  0  0  0  0  0  0  0  0
    7.2472   -0.2512   -1.3328 C   0  0  0  0  0  0  0  0  0  0  0  0
    8.4728   -0.4271   -1.8429 F   0  0  0  0  0  0  0  0  0  0  0  0
    6.6676    1.0121   -1.3621 C   0  0  0  0  0  0  0  0  0  0  0  0
    5.3887    1.1978   -0.8289 C   0  0  0  0  0  0  0  0  0  0  0  0
    2.6268   -0.6428    0.8924 N   0  0  0  0  0  0  0  0  0  0  0  0
   -2.9100   -0.6181   -0.0294 C   0  0  0  0  0  0  0  0  0  0  0  0
   -2.4741   -0.9621   -1.4810 C   0  0  0  0  0  0  0  0  0  0  0  0
   -2.8210   -2.4143   -1.7861 C   0  0  0  0  0  0  0  0  0  0  0  0
   -4.2191   -2.7704   -0.7569 S   0  0  0  0  0  6  0  0  0  0  0  0
   -5.3835   -2.1111   -1.3159 O   0  0  0  0  0  0  0  0  0  0  0  0
   -4.2259   -4.1726   -0.3984 O   0  0  0  0  0  0  0  0  0  0  0  0
   -3.6449   -1.8065    0.6112 C   0  0  0  0  0  0  0  0  0  0  0  0
   -2.4580    3.4866   -1.5486 H   0  0  0  0  0  0  0  0  0  0  0  0
   -3.2748    1.9490   -1.3072 H   0  0  0  0  0  0  0  0  0  0  0  0
   -3.5237    3.2808   -0.1585 H   0  0  0  0  0  0  0  0  0  0  0  0
   -1.1129    3.2114    0.4353 H   0  0  0  0  0  0  0  0  0  0  0  0
   -0.8471    1.8619   -0.6555 H   0  0  0  0  0  0  0  0  0  0  0  0
   -1.0189    1.5189    1.8884 H   0  0  0  0  0  0  0  0  0  0  0  0
   -3.0434    2.7139    2.4032 H   0  0  0  0  0  0  0  0  0  0  0  0
   -3.1675    1.0196    2.9032 H   0  0  0  0  0  0  0  0  0  0  0  0
   -4.0267    1.5801    1.4692 H   0  0  0  0  0  0  0  0  0  0  0  0
    0.8011   -1.4187    2.4487 H   0  0  0  0  0  0  0  0  0  0  0  0
    0.1282    0.1650    2.7360 H   0  0  0  0  0  0  0  0  0  0  0  0
    4.7743   -2.0029    0.1840 H   0  0  0  0  0  0  0  0  0  0  0  0
    7.0445   -2.3116   -0.7669 H   0  0  0  0  0  0  0  0  0  0  0  0
    7.2130    1.8439   -1.7962 H   0  0  0  0  0  0  0  0  0  0  0  0
    4.9472    2.1927   -0.8547 H   0  0  0  0  0  0  0  0  0  0  0  0
   -3.6599    0.1736   -0.1205 H   0  0  0  0  0  0  0  0  0  0  0  0
   -1.4180   -0.7550   -1.6831 H   0  0  0  0  0  0  0  0  0  0  0  0
   -3.0425   -0.3215   -2.1687 H   0  0  0  0  0  0  0  0  0  0  0  0
   -2.0119   -3.0918   -1.4997 H   0  0  0  0  0  0  0  0  0  0  0  0
   -3.0827   -2.5755   -2.8342 H   0  0  0  0  0  0  0  0  0  0  0  0
   -3.0044   -2.4450    1.2247 H   0  0  0  0  0  0  0  0  0  0  0  0
   -4.4991   -1.4862    1.2145 H   0  0  0  0  0  0  0  0  0  0  0  0
  1  2  1  0
  2  3  1  0
  3  4  1  0
  3  5  1  0
  5  6  1  0
  6  7  2  0
  6  8  1  0
  8  9  1  0
  9 10  1  0
 10 11  2  0
 11 12  1  0
 12 13  1  0
 13 14  2  0
 14 15  1  0
 15 16  2  0
 16 17  1  0
 16 18  1  0
 18 19  2  0
 12 20  2  0
  5 21  1  0
 21 22  1  0
 22 23  1  0
 23 24  1  0
 24 25  2  0
 24 26  2  0
 24 27  1  0
 20  9  1  0
 27 21  1  0
 19 13  1  0
  1 28  1  0
  1 29  1  0
  1 30  1  0
  2 31  1  0
  2 32  1  0
  3 33  1  0
  4 34  1  0
  4 35  1  0
  4 36  1  0
  8 37  1  0
  8 38  1  0
 14 39  1  0
 15 40  1  0
 18 41  1  0
 19 42  1  0
 21 43  1  0
 22 44  1  0
 22 45  1  0
 23 46  1  0
 23 47  1  0
 27 48  1  0
 27 49  1  0
M  END
$$$$
