
     RDKit          3D

 43 44  0  0  0  0  0  0  0  0999 V2000
   -6.5579    1.4634    2.0351 C   0  0  0  0  0  0  0  0  0  0  0  0
   -6.8462    0.8795    0.7700 O   0  0  0  0  0  0  0  0  0  0  0  0
   -5.7750    0.4471    0.0309 C   0  0  0  0  0  0  0  0  0  0  0  0
   -4.4297    0.5340    0.3959 C   0  0  0  0  0  0  0  0  0  0  0  0
   -3.4239    0.0569   -0.4641 C   0  0  0  0  0  0  0  0  0  0  0  0
   -2.0205    0.1421   -0.0281 C   0  0  0  0  0  0  0  0  0  0  0  0
   -1.0084    0.4245   -0.8620 C   0  0  0  0  0  0  0  0  0  0  0  0
    0.4249    0.5243   -0.4591 C   0  0  0  0  0  0  0  0  0  0  0  0
    1.2407    0.8017   -1.3367 O   0  0  0  0  0  0  0  0  0  0  0  0
    0.8028    0.3038    0.9846 C   0  0  0  0  0  0  0  0  0  0  0  0
    2.2786    0.3275    1.2917 C   0  0  0  0  0  0  0  0  0  0  0  0
    2.7889   -0.5458    1.9930 O   0  0  0  0  0  0  0  0  0  0  0  0
    3.0711    1.5093    0.8484 C   0  0  0  0  0  0  0  0  0  0  0  0
    4.3076    1.4352    0.3336 C   0  0  0  0  0  0  0  0  0  0  0  0
    5.0461    0.1993    0.0711 C   0  0  0  0  0  0  0  0  0  0  0  0
    6.0982   -0.1823    0.9107 C   0  0  0  0  0  0  0  0  0  0  0  0
    6.8094   -1.3583    0.6579 C   0  0  0  0  0  0  0  0  0  0  0  0
    6.4646   -2.1445   -0.4379 C   0  0  0  0  0  0  0  0  0  0  0  0
    7.1320   -3.2998   -0.7199 O   0  0  0  0  0  0  0  0  0  0  0  0
    5.4234   -1.7755   -1.2815 C   0  0  0  0  0  0  0  0  0  0  0  0
    4.7112   -0.6024   -1.0272 C   0  0  0  0  0  0  0  0  0  0  0  0
   -3.7869   -0.5338   -1.6838 C   0  0  0  0  0  0  0  0  0  0  0  0
   -5.1284   -0.6228   -2.0549 C   0  0  0  0  0  0  0  0  0  0  0  0
   -6.1038   -0.1313   -1.1992 C   0  0  0  0  0  0  0  0  0  0  0  0
   -7.4121   -0.2309   -1.5869 O   0  0  0  0  0  0  0  0  0  0  0  0
   -5.9573    2.3720    1.9222 H   0  0  0  0  0  0  0  0  0  0  0  0
   -7.5087    1.7479    2.4960 H   0  0  0  0  0  0  0  0  0  0  0  0
   -6.0679    0.7439    2.6993 H   0  0  0  0  0  0  0  0  0  0  0  0
   -4.1387    0.9775    1.3425 H   0  0  0  0  0  0  0  0  0  0  0  0
   -1.8594   -0.0269    1.0328 H   0  0  0  0  0  0  0  0  0  0  0  0
   -1.1743    0.6145   -1.9191 H   0  0  0  0  0  0  0  0  0  0  0  0
    0.3209    1.0650    1.6077 H   0  0  0  0  0  0  0  0  0  0  0  0
    0.4327   -0.6853    1.2796 H   0  0  0  0  0  0  0  0  0  0  0  0
    2.5739    2.4691    0.9274 H   0  0  0  0  0  0  0  0  0  0  0  0
    4.8189    2.3455    0.0313 H   0  0  0  0  0  0  0  0  0  0  0  0
    6.3592    0.4255    1.7733 H   0  0  0  0  0  0  0  0  0  0  0  0
    7.6166   -1.6427    1.3247 H   0  0  0  0  0  0  0  0  0  0  0  0
    7.7906   -3.4504   -0.0226 H   0  0  0  0  0  0  0  0  0  0  0  0
    5.1629   -2.3997   -2.1310 H   0  0  0  0  0  0  0  0  0  0  0  0
    3.8944   -0.3199   -1.6882 H   0  0  0  0  0  0  0  0  0  0  0  0
   -3.0350   -0.9417   -2.3553 H   0  0  0  0  0  0  0  0  0  0  0  0
   -5.4113   -1.0763   -3.0002 H   0  0  0  0  0  0  0  0  0  0  0  0
   -7.9244    0.1609   -0.8532 H   0  0  0  0  0  0  0  0  0  0  0  0
  1  2  1  0
  2  3  1  0
  3  4  2  0
  4  5  1  0
  5  6  1  0
  6  7  2  3
  7  8  1  0
  8  9  2  0
  8 10  1  0
 10 11  1  0
 11 12  2  0
 11 13  1  0
 13 14  2  3
 14 15  1  0
 15 16  2  0
 16 17  1  0
 17 18  2  0
 18 19  1  0
 18 20  1  0
 20 21  2  0
  5 22  2  0
 22 23  1  0
 23 24  2  0
 24 25  1  0
 24  3  1  0
 21 15  1  0
  1 26  1  0
  1 27  1  0
  1 28  1  0
  4 29  1  0
  6 30  1  0
  7 31  1  0
 10 32  1  0
 10 33  1  0
 13 34  1  0
 14 35  1  0
 16 36  1  0
 17 37  1  0
 19 38  1  0
 20 39  1  0
 21 40  1  0
 22 41  1  0
 23 42  1  0
 25 43  1  0
M  END
$$$$
