
     RDKit          3D

 49 51  0  0  0  0  0  0  0  0999 V2000
   -3.1723    2.8440    1.9041 C   0  0  0  0  0  0  0  0  0  0  0  0
   -2.1203    1.8311    1.4667 C   0  0  0  0  0  0  0  0  0  0  0  0
   -2.4941    1.1103    0.1565 C   0  0  0  0  0  0  0  0  0  0  0  0
   -2.3877    1.9948   -1.0885 C   0  0  0  0  0  0  0  0  0  0  0  0
   -1.8061   -0.2021   -0.0220 N   0  0  0  0  0  0  0  0  0  0  0  0
   -0.4286   -0.4474    0.1174 C   0  0  0  0  0  0  0  0  0  0  0  0
   -0.0064   -1.6074    0.1591 O   0  0  0  0  0  0  0  0  0  0  0  0
    0.5341    0.7063    0.2625 C   0  0  0  0  0  0  0  0  0  0  0  0
    1.8136    0.3931   -0.3376 N   0  0  0  0  0  0  0  0  0  0  0  0
    1.9809    0.4226   -1.6713 N   0  0  0  0  0  0  0  0  0  0  0  0
    3.2856    0.2765   -1.8490 N   0  0  0  0  0  0  0  0  0  0  0  0
    3.8580    0.2211   -0.5985 C   0  0  0  0  0  0  0  0  0  0  0  0
    5.2929    0.0733   -0.3899 C   0  0  0  0  0  0  0  0  0  0  0  0
    6.1748    0.0746   -1.4837 C   0  0  0  0  0  0  0  0  0  0  0  0
    7.5513   -0.0664   -1.2859 C   0  0  0  0  0  0  0  0  0  0  0  0
    8.0478   -0.2120    0.0039 C   0  0  0  0  0  0  0  0  0  0  0  0
    9.3667   -0.3486    0.1922 F   0  0  0  0  0  0  0  0  0  0  0  0
    7.1952   -0.2189    1.1009 C   0  0  0  0  0  0  0  0  0  0  0  0
    5.8191   -0.0754    0.9047 C   0  0  0  0  0  0  0  0  0  0  0  0
    2.9503    0.3490    0.3865 N   0  0  0  0  0  0  0  0  0  0  0  0
   -2.6559   -1.4019   -0.2307 C   0  0  0  0  0  0  0  0  0  0  0  0
   -3.7083   -1.2724   -1.3460 C   0  0  0  0  0  0  0  0  0  0  0  0
   -4.5114   -2.5642   -1.2842 C   0  0  0  0  0  0  0  0  0  0  0  0
   -4.7150   -2.8880    0.4599 S   0  0  0  0  0  6  0  0  0  0  0  0
   -4.3836   -4.2718    0.7182 O   0  0  0  0  0  0  0  0  0  0  0  0
   -5.9687   -2.2997    0.8865 O   0  0  0  0  0  0  0  0  0  0  0  0
   -3.3870   -1.8455    1.0384 C   0  0  0  0  0  0  0  0  0  0  0  0
   -4.1476    2.3664    2.0372 H   0  0  0  0  0  0  0  0  0  0  0  0
   -3.2787    3.6508    1.1742 H   0  0  0  0  0  0  0  0  0  0  0  0
   -2.8851    3.2935    2.8595 H   0  0  0  0  0  0  0  0  0  0  0  0
   -2.0020    1.0931    2.2692 H   0  0  0  0  0  0  0  0  0  0  0  0
   -1.1679    2.3592    1.3733 H   0  0  0  0  0  0  0  0  0  0  0  0
   -3.5587    0.8741    0.2624 H   0  0  0  0  0  0  0  0  0  0  0  0
   -2.6448    1.4290   -1.9905 H   0  0  0  0  0  0  0  0  0  0  0  0
   -1.3874    2.4058   -1.2375 H   0  0  0  0  0  0  0  0  0  0  0  0
   -3.0799    2.8405   -1.0243 H   0  0  0  0  0  0  0  0  0  0  0  0
    0.6946    0.9028    1.3271 H   0  0  0  0  0  0  0  0  0  0  0  0
    0.1936    1.6132   -0.2299 H   0  0  0  0  0  0  0  0  0  0  0  0
    5.7972    0.1864   -2.4990 H   0  0  0  0  0  0  0  0  0  0  0  0
    8.2354   -0.0650   -2.1288 H   0  0  0  0  0  0  0  0  0  0  0  0
    7.6030   -0.3391    2.1001 H   0  0  0  0  0  0  0  0  0  0  0  0
    5.1566   -0.0867    1.7693 H   0  0  0  0  0  0  0  0  0  0  0  0
   -2.0142   -2.2384   -0.5378 H   0  0  0  0  0  0  0  0  0  0  0  0
   -3.2446   -1.1367   -2.3287 H   0  0  0  0  0  0  0  0  0  0  0  0
   -4.3815   -0.4249   -1.1795 H   0  0  0  0  0  0  0  0  0  0  0  0
   -3.9533   -3.3987   -1.7187 H   0  0  0  0  0  0  0  0  0  0  0  0
   -5.4894   -2.4780   -1.7618 H   0  0  0  0  0  0  0  0  0  0  0  0
   -2.7385   -2.4134    1.7101 H   0  0  0  0  0  0  0  0  0  0  0  0
   -3.8319   -1.0089    1.5841 H   0  0  0  0  0  0  0  0  0  0  0  0
  1  2  1  0
  2  3  1  0
  3  4  1  0
  3  5  1  0
  5  6  1  0
  6  7  2  0
  6  8  1  0
  8  9  1  0
  9 10  1  0
 10 11  2  0
 11 12  1  0
 12 13  1  0
 13 14  2  0
 14 15  1  0
 15 16  2  0
 16 17  1  0
 16 18  1  0
 18 19  2  0
 12 20  2  0
  5 21  1  0
 21 22  1  0
 22 23  1  0
 23 24  1  0
 24 25  2  0
 24 26  2  0
 24 27  1  0
 20  9  1  0
 27 21  1  0
 19 13  1  0
  1 28  1  0
  1 29  1  0
  1 30  1  0
  2 31  1  0
  2 32  1  0
  3 33  1  0
  4 34  1  0
  4 35  1  0
  4 36  1  0
  8 37  1  0
  8 38  1  0
 14 39  1  0
 15 40  1  0
 18 41  1  0
 19 42  1  0
 21 43  1  0
 22 44  1  0
 22 45  1  0
 23 46  1  0
 23 47  1  0
 27 48  1  0
 27 49  1  0
M  END
$$$$
