
     RDKit          3D

 37 39  0  0  0  0  0  0  0  0999 V2000
    3.8828   -1.4194   -1.3389 C   0  0  0  0  0  0  0  0  0  0  0  0
    3.6700   -0.4521   -0.2109 C   0  0  0  0  0  0  0  0  0  0  0  0
    4.6653    0.4757    0.1210 C   0  0  0  0  0  0  0  0  0  0  0  0
    4.4704    1.3796    1.1662 C   0  0  0  0  0  0  0  0  0  0  0  0
    3.2723    1.3749    1.8732 C   0  0  0  0  0  0  0  0  0  0  0  0
    3.1664    2.2702    2.9037 O   0  0  0  0  0  0  0  0  0  0  0  0
    2.2434    0.4909    1.5238 C   0  0  0  0  0  0  0  0  0  0  0  0
    0.9630    0.5319    2.2733 C   0  0  0  0  0  0  0  0  0  0  0  0
    0.9735    0.9144    3.4424 O   0  0  0  0  0  0  0  0  0  0  0  0
   -0.3248    0.1613    1.6568 C   0  0  0  0  0  0  0  0  0  0  0  0
   -1.2692   -0.5065    2.4242 C   0  0  0  0  0  0  0  0  0  0  0  0
   -2.4801   -0.8949    1.9549 N   0  0  0  0  0  0  0  0  0  0  0  0
   -2.7731   -0.5646    0.6817 C   0  0  0  0  0  0  0  0  0  0  0  0
   -1.9101    0.1208   -0.1564 C   0  0  0  0  0  0  0  0  0  0  0  0
   -0.6567    0.4910    0.3416 C   0  0  0  0  0  0  0  0  0  0  0  0
   -2.3172    0.3600   -1.5709 C   0  0  0  0  0  0  0  0  0  0  0  0
   -3.7467    0.2413   -1.7914 N   0  0  0  0  0  0  0  0  0  0  0  0
   -4.2431    0.6242   -3.1001 C   0  0  0  0  0  0  0  0  0  0  0  0
   -4.5367   -0.5637   -0.9945 C   0  0  0  0  0  0  0  0  0  0  0  0
   -5.6734   -0.9167   -1.3013 O   0  0  0  0  0  0  0  0  0  0  0  0
   -4.0110   -0.9411    0.2011 N   0  0  0  0  0  0  0  0  0  0  0  0
    2.4553   -0.4351    0.4912 C   0  0  0  0  0  0  0  0  0  0  0  0
    4.9440   -1.6670   -1.4474 H   0  0  0  0  0  0  0  0  0  0  0  0
    3.3481   -2.3570   -1.1545 H   0  0  0  0  0  0  0  0  0  0  0  0
    3.5232   -0.9845   -2.2765 H   0  0  0  0  0  0  0  0  0  0  0  0
    5.6084    0.4911   -0.4221 H   0  0  0  0  0  0  0  0  0  0  0  0
    5.2555    2.0815    1.4357 H   0  0  0  0  0  0  0  0  0  0  0  0
    2.3830    2.0165    3.4419 H   0  0  0  0  0  0  0  0  0  0  0  0
   -1.0750   -0.7636    3.4630 H   0  0  0  0  0  0  0  0  0  0  0  0
    0.0373    1.0398   -0.2897 H   0  0  0  0  0  0  0  0  0  0  0  0
   -1.8170   -0.3682   -2.2202 H   0  0  0  0  0  0  0  0  0  0  0  0
   -2.0167    1.3700   -1.8727 H   0  0  0  0  0  0  0  0  0  0  0  0
   -5.3363    0.6456   -3.1208 H   0  0  0  0  0  0  0  0  0  0  0  0
   -3.8673    1.6200   -3.3520 H   0  0  0  0  0  0  0  0  0  0  0  0
   -3.8878   -0.1022   -3.8371 H   0  0  0  0  0  0  0  0  0  0  0  0
   -4.6107   -1.4571    0.8273 H   0  0  0  0  0  0  0  0  0  0  0  0
    1.6911   -1.1649    0.2344 H   0  0  0  0  0  0  0  0  0  0  0  0
  1  2  1  0
  2  3  2  0
  3  4  1  0
  4  5  2  0
  5  6  1  0
  5  7  1  0
  7  8  1  0
  8  9  2  0
  8 10  1  0
 10 11  2  0
 11 12  1  0
 12 13  2  0
 13 14  1  0
 14 15  2  0
 14 16  1  0
 16 17  1  0
 17 18  1  0
 17 19  1  0
 19 20  2  0
 19 21  1  0
  7 22  2  0
 22  2  1  0
 15 10  1  0
 21 13  1  0
  1 23  1  0
  1 24  1  0
  1 25  1  0
  3 26  1  0
  4 27  1  0
  6 28  1  0
 11 29  1  0
 15 30  1  0
 16 31  1  0
 16 32  1  0
 18 33  1  0
 18 34  1  0
 18 35  1  0
 21 36  1  0
 22 37  1  0
M  END
$$$$
