
     RDKit          3D

 45 47  0  0  0  0  0  0  0  0999 V2000
    5.6842    0.4575    2.9972 C   0  0  0  0  0  0  0  0  0  0  0  0
    4.5022    0.6377    2.0907 C   0  0  0  0  0  0  0  0  0  0  0  0
    4.2084    1.8948    1.5495 C   0  0  0  0  0  0  0  0  0  0  0  0
    3.1264    2.0595    0.6791 C   0  0  0  0  0  0  0  0  0  0  0  0
    2.3284    0.9632    0.3365 C   0  0  0  0  0  0  0  0  0  0  0  0
    1.1677    1.1032   -0.5903 C   0  0  0  0  0  0  0  0  0  0  0  0
    0.7835    0.0768   -1.2907 N   0  0  0  0  0  0  0  0  0  0  0  0
   -0.2872    0.2249   -2.1483 N   0  0  0  0  0  0  0  0  0  0  0  0
   -0.5524   -0.8843   -3.0687 C   0  0  0  0  0  0  0  0  0  0  0  0
   -1.3949   -1.9583   -2.3795 C   0  0  0  0  0  0  0  0  0  0  0  0
   -2.1860   -2.6754   -2.9881 O   0  0  0  0  0  0  0  0  0  0  0  0
   -1.0927   -2.1431   -1.0473 N   0  0  0  0  0  0  0  0  0  0  0  0
   -1.9684   -2.8765   -0.1631 C   0  0  0  0  0  0  0  0  0  0  0  0
   -2.9764   -1.9473    0.4754 C   0  0  0  0  0  0  0  0  0  0  0  0
   -4.1841   -1.6773   -0.1655 C   0  0  0  0  0  0  0  0  0  0  0  0
   -5.0670   -0.7733    0.4171 C   0  0  0  0  0  0  0  0  0  0  0  0
   -4.7220   -0.1604    1.6151 C   0  0  0  0  0  0  0  0  0  0  0  0
   -3.4975   -0.4725    2.1804 C   0  0  0  0  0  0  0  0  0  0  0  0
   -2.6151   -1.3396    1.6367 N   0  0  0  0  0  0  0  0  0  0  0  0
   -1.2180    1.2569   -2.0550 C   0  0  0  0  0  0  0  0  0  0  0  0
   -2.2044    1.3604   -2.7819 O   0  0  0  0  0  0  0  0  0  0  0  0
   -0.9863    2.2183   -0.9215 C   0  0  0  0  0  0  0  0  0  0  0  0
    0.4925    2.4464   -0.7198 C   0  0  0  0  0  0  0  0  0  0  0  0
    2.6354   -0.3001    0.8552 C   0  0  0  0  0  0  0  0  0  0  0  0
    3.7165   -0.4610    1.7254 C   0  0  0  0  0  0  0  0  0  0  0  0
    5.8708    1.3653    3.5806 H   0  0  0  0  0  0  0  0  0  0  0  0
    6.5763    0.2261    2.4071 H   0  0  0  0  0  0  0  0  0  0  0  0
    5.5096   -0.3557    3.7096 H   0  0  0  0  0  0  0  0  0  0  0  0
    4.8260    2.7554    1.7994 H   0  0  0  0  0  0  0  0  0  0  0  0
    2.9412    3.0469    0.2663 H   0  0  0  0  0  0  0  0  0  0  0  0
   -1.0984   -0.5169   -3.9432 H   0  0  0  0  0  0  0  0  0  0  0  0
    0.3976   -1.3219   -3.3916 H   0  0  0  0  0  0  0  0  0  0  0  0
   -0.5122   -1.4176   -0.6302 H   0  0  0  0  0  0  0  0  0  0  0  0
   -1.3417   -3.3259    0.6145 H   0  0  0  0  0  0  0  0  0  0  0  0
   -2.4731   -3.6866   -0.7003 H   0  0  0  0  0  0  0  0  0  0  0  0
   -4.4269   -2.1507   -1.1131 H   0  0  0  0  0  0  0  0  0  0  0  0
   -6.0124   -0.5450   -0.0668 H   0  0  0  0  0  0  0  0  0  0  0  0
   -5.3894    0.5474    2.0931 H   0  0  0  0  0  0  0  0  0  0  0  0
   -3.1822   -0.0169    3.1146 H   0  0  0  0  0  0  0  0  0  0  0  0
   -1.4811    3.1678   -1.1506 H   0  0  0  0  0  0  0  0  0  0  0  0
   -1.4482    1.7946   -0.0222 H   0  0  0  0  0  0  0  0  0  0  0  0
    0.6437    3.0606    0.1723 H   0  0  0  0  0  0  0  0  0  0  0  0
    0.9297    2.9633   -1.5818 H   0  0  0  0  0  0  0  0  0  0  0  0
    2.0371   -1.1690    0.5902 H   0  0  0  0  0  0  0  0  0  0  0  0
    3.9407   -1.4518    2.1154 H   0  0  0  0  0  0  0  0  0  0  0  0
  1  2  1  0
  2  3  2  0
  3  4  1  0
  4  5  2  0
  5  6  1  0
  6  7  2  0
  7  8  1  0
  8  9  1  0
  9 10  1  0
 10 11  2  0
 10 12  1  0
 12 13  1  0
 13 14  1  0
 14 15  2  0
 15 16  1  0
 16 17  2  0
 17 18  1  0
 18 19  2  0
  8 20  1  0
 20 21  2  0
 20 22  1  0
 22 23  1  0
  5 24  1  0
 24 25  2  0
 25  2  1  0
 23  6  1  0
 19 14  1  0
  1 26  1  0
  1 27  1  0
  1 28  1  0
  3 29  1  0
  4 30  1  0
  9 31  1  0
  9 32  1  0
 12 33  1  0
 13 34  1  0
 13 35  1  0
 15 36  1  0
 16 37  1  0
 17 38  1  0
 18 39  1  0
 22 40  1  0
 22 41  1  0
 23 42  1  0
 23 43  1  0
 24 44  1  0
 25 45  1  0
M  END
$$$$
