
     RDKit          3D

 64 67  0  0  0  0  0  0  0  0999 V2000
   10.8465   -2.1974   -0.0142 C   0  0  0  0  0  0  0  0  0  0  0  0
   10.2136   -1.2278   -1.0000 C   0  0  0  0  0  0  0  0  0  0  0  0
    8.7481   -1.0190   -0.7179 C   0  0  0  0  0  0  0  0  0  0  0  0
    8.3296   -0.0204    0.1670 C   0  0  0  0  0  0  0  0  0  0  0  0
    6.9702    0.1596    0.4417 C   0  0  0  0  0  0  0  0  0  0  0  0
    5.9972   -0.6562   -0.1552 C   0  0  0  0  0  0  0  0  0  0  0  0
    4.5730   -0.4624    0.1512 C   0  0  0  0  0  0  0  0  0  0  0  0
    3.4651   -1.2541   -0.2699 C   0  0  0  0  0  0  0  0  0  0  0  0
    2.3589   -0.6656    0.2944 C   0  0  0  0  0  0  0  0  0  0  0  0
    0.9597   -0.9622    0.2777 C   0  0  0  0  0  0  0  0  0  0  0  0
    0.4909   -1.9251   -0.3241 O   0  0  0  0  0  0  0  0  0  0  0  0
    0.1773   -0.0664    1.0308 N   0  0  0  0  0  0  0  0  0  0  0  0
   -1.2684   -0.2297    1.0170 C   0  0  0  0  0  0  0  0  0  0  0  0
   -1.8827    0.3983   -0.2355 C   0  0  0  0  0  0  0  0  0  0  0  0
   -1.2590    1.0787   -1.0468 O   0  0  0  0  0  0  0  0  0  0  0  0
   -3.2325    0.1345   -0.3692 N   0  0  0  0  0  0  0  0  0  0  0  0
   -4.0246    0.7658   -1.4087 C   0  0  0  0  0  0  0  0  0  0  0  0
   -5.4084    0.1028   -1.5239 C   0  0  0  0  0  0  0  0  0  0  0  0
   -6.1158    0.0195   -0.2211 N   0  0  0  0  0  0  0  0  0  0  0  0
   -7.1749   -1.0007   -0.2674 C   0  0  0  0  0  0  0  0  0  0  0  0
   -8.3828   -0.6022   -1.1184 C   0  0  0  0  0  0  0  0  0  0  0  0
   -8.8604    0.8213   -0.8322 C   0  0  0  0  0  0  0  0  0  0  0  0
   -8.1578    1.4139    0.3830 C   0  0  0  0  0  0  0  0  0  0  0  0
   -6.6251    1.3418    0.2211 C   0  0  0  0  0  0  0  0  0  0  0  0
   -5.9546    1.7013    1.5505 C   0  0  0  0  0  0  0  0  0  0  0  0
    0.6796    1.0256    1.7492 N   0  0  0  0  0  0  0  0  0  0  0  0
    1.9634    1.2402    1.7066 C   0  0  0  0  0  0  0  0  0  0  0  0
    2.6231    2.3765    2.4200 C   0  0  0  0  0  0  0  0  0  0  0  0
    2.8132    0.4081    0.9869 N   0  0  0  0  0  0  0  0  0  0  0  0
    4.1526    0.5558    0.9282 N   0  0  0  0  0  0  0  0  0  0  0  0
    6.4237   -1.6582   -1.0385 C   0  0  0  0  0  0  0  0  0  0  0  0
    7.7842   -1.8392   -1.3147 C   0  0  0  0  0  0  0  0  0  0  0  0
   10.3485   -3.1736   -0.0382 H   0  0  0  0  0  0  0  0  0  0  0  0
   11.9033   -2.3492   -0.2587 H   0  0  0  0  0  0  0  0  0  0  0  0
   10.7875   -1.8148    1.0114 H   0  0  0  0  0  0  0  0  0  0  0  0
   10.7377   -0.2652   -0.9604 H   0  0  0  0  0  0  0  0  0  0  0  0
   10.3434   -1.6011   -2.0229 H   0  0  0  0  0  0  0  0  0  0  0  0
    9.0572    0.6257    0.6530 H   0  0  0  0  0  0  0  0  0  0  0  0
    6.6764    0.9455    1.1349 H   0  0  0  0  0  0  0  0  0  0  0  0
    3.4633   -2.1387   -0.8919 H   0  0  0  0  0  0  0  0  0  0  0  0
   -1.6932    0.2531    1.9039 H   0  0  0  0  0  0  0  0  0  0  0  0
   -1.5162   -1.2966    1.0388 H   0  0  0  0  0  0  0  0  0  0  0  0
   -3.7599   -0.1907    0.4327 H   0  0  0  0  0  0  0  0  0  0  0  0
   -3.4872    0.6882   -2.3607 H   0  0  0  0  0  0  0  0  0  0  0  0
   -4.1093    1.8299   -1.1612 H   0  0  0  0  0  0  0  0  0  0  0  0
   -6.0113    0.6223   -2.2788 H   0  0  0  0  0  0  0  0  0  0  0  0
   -5.2355   -0.9150   -1.8994 H   0  0  0  0  0  0  0  0  0  0  0  0
   -7.5054   -1.2054    0.7596 H   0  0  0  0  0  0  0  0  0  0  0  0
   -6.7723   -1.9578   -0.6227 H   0  0  0  0  0  0  0  0  0  0  0  0
   -8.1455   -0.6966   -2.1856 H   0  0  0  0  0  0  0  0  0  0  0  0
   -9.2000   -1.3086   -0.9246 H   0  0  0  0  0  0  0  0  0  0  0  0
   -9.9465    0.8309   -0.6841 H   0  0  0  0  0  0  0  0  0  0  0  0
   -8.6617    1.4516   -1.7085 H   0  0  0  0  0  0  0  0  0  0  0  0
   -8.4674    2.4588    0.5119 H   0  0  0  0  0  0  0  0  0  0  0  0
   -8.4798    0.8815    1.2879 H   0  0  0  0  0  0  0  0  0  0  0  0
   -6.3489    2.1186   -0.5044 H   0  0  0  0  0  0  0  0  0  0  0  0
   -4.8654    1.7521    1.4484 H   0  0  0  0  0  0  0  0  0  0  0  0
   -6.1881    0.9671    2.3297 H   0  0  0  0  0  0  0  0  0  0  0  0
   -6.2954    2.6818    1.9014 H   0  0  0  0  0  0  0  0  0  0  0  0
    1.8736    2.9611    2.9614 H   0  0  0  0  0  0  0  0  0  0  0  0
    3.3541    1.9982    3.1402 H   0  0  0  0  0  0  0  0  0  0  0  0
    3.1239    3.0332    1.7023 H   0  0  0  0  0  0  0  0  0  0  0  0
    5.7114   -2.3158   -1.5292 H   0  0  0  0  0  0  0  0  0  0  0  0
    8.0855   -2.6279   -2.0010 H   0  0  0  0  0  0  0  0  0  0  0  0
  1  2  1  0
  2  3  1  0
  3  4  2  0
  4  5  1  0
  5  6  2  0
  6  7  1  0
  7  8  1  0
  8  9  2  0
  9 10  1  0
 10 11  2  0
 10 12  1  0
 12 13  1  0
 13 14  1  0
 14 15  2  0
 14 16  1  0
 16 17  1  0
 17 18  1  0
 18 19  1  0
 19 20  1  0
 20 21  1  0
 21 22  1  0
 22 23  1  0
 23 24  1  0
 24 25  1  0
 12 26  1  0
 26 27  2  0
 27 28  1  0
 27 29  1  0
 29 30  1  0
  6 31  1  0
 31 32  2  0
 32  3  1  0
 30  7  2  0
 29  9  1  0
 24 19  1  0
  1 33  1  0
  1 34  1  0
  1 35  1  0
  2 36  1  0
  2 37  1  0
  4 38  1  0
  5 39  1  0
  8 40  1  0
 13 41  1  0
 13 42  1  0
 16 43  1  0
 17 44  1  0
 17 45  1  0
 18 46  1  0
 18 47  1  0
 20 48  1  0
 20 49  1  0
 21 50  1  0
 21 51  1  0
 22 52  1  0
 22 53  1  0
 23 54  1  0
 23 55  1  0
 24 56  1  0
 25 57  1  0
 25 58  1  0
 25 59  1  0
 28 60  1  0
 28 61  1  0
 28 62  1  0
 31 63  1  0
 32 64  1  0
M  END
$$$$
