
     RDKit          3D

 52 55  0  0  0  0  0  0  0  0999 V2000
    7.7855    0.3991    1.9751 C   0  0  0  0  0  0  0  0  0  0  0  0
    6.3594   -0.0077    1.7359 C   0  0  0  0  0  0  0  0  0  0  0  0
    5.4990   -0.2213    2.8229 C   0  0  0  0  0  0  0  0  0  0  0  0
    4.1581   -0.5745    2.6352 C   0  0  0  0  0  0  0  0  0  0  0  0
    3.7230   -0.6882    1.3180 C   0  0  0  0  0  0  0  0  0  0  0  0
    2.4649   -1.0235    0.9347 O   0  0  0  0  0  0  0  0  0  0  0  0
    2.4283   -1.0081   -0.4343 C   0  0  0  0  0  0  0  0  0  0  0  0
    1.2085   -1.3856   -1.1367 C   0  0  0  0  0  0  0  0  0  0  0  0
    1.2692   -1.9533   -2.2303 O   0  0  0  0  0  0  0  0  0  0  0  0
   -0.0450   -1.0810   -0.5729 N   0  0  0  0  0  0  0  0  0  0  0  0
   -1.1889   -1.8676   -1.0215 C   0  0  0  0  0  0  0  0  0  0  0  0
   -2.4748   -1.0490   -1.0526 C   0  0  0  0  0  0  0  0  0  0  0  0
   -2.7557   -0.3748    0.3015 C   0  0  0  0  0  0  0  0  0  0  0  0
   -2.9267   -1.4223    1.2693 O   0  0  0  0  0  0  0  0  0  0  0  0
   -4.0214    0.4910    0.3406 C   0  0  0  0  0  0  0  0  0  0  0  0
   -4.4912    0.9624    1.5828 C   0  0  0  0  0  0  0  0  0  0  0  0
   -5.6346    1.7563    1.6762 C   0  0  0  0  0  0  0  0  0  0  0  0
   -6.3384    2.0986    0.5257 C   0  0  0  0  0  0  0  0  0  0  0  0
   -5.9057    1.6473   -0.7283 C   0  0  0  0  0  0  0  0  0  0  0  0
   -6.6802    2.0274   -1.9675 C   0  0  0  0  0  0  0  0  0  0  0  0
   -7.9837    1.6372   -1.9063 F   0  0  0  0  0  0  0  0  0  0  0  0
   -6.1816    1.4799   -3.1112 F   0  0  0  0  0  0  0  0  0  0  0  0
   -6.7014    3.3728   -2.1766 F   0  0  0  0  0  0  0  0  0  0  0  0
   -4.7485    0.8483   -0.8080 C   0  0  0  0  0  0  0  0  0  0  0  0
   -1.5280    0.4602    0.6989 C   0  0  0  0  0  0  0  0  0  0  0  0
   -0.2320   -0.3493    0.6786 C   0  0  0  0  0  0  0  0  0  0  0  0
    3.6904   -0.6929   -0.9302 C   0  0  0  0  0  0  0  0  0  0  0  0
    4.0808   -0.6122   -2.3610 C   0  0  0  0  0  0  0  0  0  0  0  0
    4.5254   -0.4730    0.2080 C   0  0  0  0  0  0  0  0  0  0  0  0
    5.8732   -0.1214    0.4190 C   0  0  0  0  0  0  0  0  0  0  0  0
    8.4300    0.0692    1.1538 H   0  0  0  0  0  0  0  0  0  0  0  0
    8.1715   -0.0559    2.8931 H   0  0  0  0  0  0  0  0  0  0  0  0
    7.8535    1.4876    2.0626 H   0  0  0  0  0  0  0  0  0  0  0  0
    5.8735   -0.1168    3.8400 H   0  0  0  0  0  0  0  0  0  0  0  0
    3.4886   -0.7514    3.4676 H   0  0  0  0  0  0  0  0  0  0  0  0
   -1.0116   -2.2849   -2.0181 H   0  0  0  0  0  0  0  0  0  0  0  0
   -1.2845   -2.7199   -0.3380 H   0  0  0  0  0  0  0  0  0  0  0  0
   -2.3759   -0.2936   -1.8425 H   0  0  0  0  0  0  0  0  0  0  0  0
   -3.3017   -1.7153   -1.3287 H   0  0  0  0  0  0  0  0  0  0  0  0
   -3.8626   -1.6899    1.2471 H   0  0  0  0  0  0  0  0  0  0  0  0
   -3.9588    0.7063    2.4991 H   0  0  0  0  0  0  0  0  0  0  0  0
   -5.9737    2.1072    2.6483 H   0  0  0  0  0  0  0  0  0  0  0  0
   -7.2296    2.7191    0.6071 H   0  0  0  0  0  0  0  0  0  0  0  0
   -4.4288    0.5135   -1.7931 H   0  0  0  0  0  0  0  0  0  0  0  0
   -1.6426    0.8765    1.7075 H   0  0  0  0  0  0  0  0  0  0  0  0
   -1.4271    1.3113    0.0114 H   0  0  0  0  0  0  0  0  0  0  0  0
    0.5891    0.3566    0.8296 H   0  0  0  0  0  0  0  0  0  0  0  0
   -0.2133   -1.0780    1.4972 H   0  0  0  0  0  0  0  0  0  0  0  0
    4.1899   -1.6165   -2.7820 H   0  0  0  0  0  0  0  0  0  0  0  0
    3.3260   -0.0716   -2.9413 H   0  0  0  0  0  0  0  0  0  0  0  0
    5.0316   -0.0857   -2.4866 H   0  0  0  0  0  0  0  0  0  0  0  0
    6.5289    0.0570   -0.4284 H   0  0  0  0  0  0  0  0  0  0  0  0
  1  2  1  0
  2  3  2  0
  3  4  1  0
  4  5  2  0
  5  6  1  0
  6  7  1  0
  7  8  1  0
  8  9  2  0
  8 10  1  0
 10 11  1  0
 11 12  1  0
 12 13  1  0
 13 14  1  0
 13 15  1  0
 15 16  2  0
 16 17  1  0
 17 18  2  0
 18 19  1  0
 19 20  1  0
 20 21  1  0
 20 22  1  0
 20 23  1  0
 19 24  2  0
 13 25  1  0
 25 26  1  0
  7 27  2  0
 27 28  1  0
 27 29  1  0
 29 30  2  0
 30  2  1  0
 29  5  1  0
 26 10  1  0
 24 15  1  0
  1 31  1  0
  1 32  1  0
  1 33  1  0
  3 34  1  0
  4 35  1  0
 11 36  1  0
 11 37  1  0
 12 38  1  0
 12 39  1  0
 14 40  1  0
 16 41  1  0
 17 42  1  0
 18 43  1  0
 24 44  1  0
 25 45  1  0
 25 46  1  0
 26 47  1  0
 26 48  1  0
 28 49  1  0
 28 50  1  0
 28 51  1  0
 30 52  1  0
M  END
$$$$
