
     RDKit          3D

 67 69  0  0  0  0  0  0  0  0999 V2000
    1.1473    0.1600   -2.2785 C   0  0  0  0  0  0  0  0  0  0  0  0
    0.2403   -0.9567   -1.7686 C   0  0  0  0  0  0  0  0  0  0  0  0
   -1.0993   -0.5007   -1.3972 N   0  0  0  0  0  0  0  0  0  0  0  0
   -2.0036   -0.0739   -2.3466 C   0  0  0  0  0  0  0  0  0  0  0  0
   -1.7241    0.0685   -3.5305 O   0  0  0  0  0  0  0  0  0  0  0  0
   -3.3917    0.1795   -1.8679 C   0  0  0  0  0  0  0  0  0  0  0  0
   -4.4395    0.0889   -2.7852 C   0  0  0  0  0  0  0  0  0  0  0  0
   -5.7571    0.3196   -2.3763 C   0  0  0  0  0  0  0  0  0  0  0  0
   -6.0670    0.6560   -1.0440 C   0  0  0  0  0  0  0  0  0  0  0  0
   -7.5297    0.9055   -0.6328 C   0  0  0  0  0  0  0  0  0  0  0  0
   -8.3700   -0.3604   -0.9074 C   0  0  0  0  0  0  0  0  0  0  0  0
   -8.1039    2.0835   -1.4491 C   0  0  0  0  0  0  0  0  0  0  0  0
   -7.7075    1.2553    0.8620 C   0  0  0  0  0  0  0  0  0  0  0  0
   -4.9958    0.7582   -0.1401 C   0  0  0  0  0  0  0  0  0  0  0  0
   -3.6736    0.5269   -0.5443 C   0  0  0  0  0  0  0  0  0  0  0  0
    0.9188   -1.7235   -0.6087 C   0  0  0  0  0  0  0  0  0  0  0  0
    1.6695   -2.6703   -0.8659 O   0  0  0  0  0  0  0  0  0  0  0  0
    0.7089   -1.3034    0.7073 N   0  0  0  0  0  0  0  0  0  0  0  0
    1.3312   -2.1067    1.7657 C   0  0  0  0  0  0  0  0  0  0  0  0
    2.7142   -1.5399    2.1480 C   0  0  0  0  0  0  0  0  0  0  0  0
    2.6169   -0.1161    2.5390 N   0  0  0  0  0  0  0  0  0  0  0  0
    3.8936    0.4358    2.9984 C   0  0  0  0  0  0  0  0  0  0  0  0
    5.0080    0.4396    1.9904 C   0  0  0  0  0  0  0  0  0  0  0  0
    6.1670   -0.2193    2.1552 C   0  0  0  0  0  0  0  0  0  0  0  0
    7.2567   -0.2078    1.1714 C   0  0  0  0  0  0  0  0  0  0  0  0
    8.5806   -0.1362    1.6224 C   0  0  0  0  0  0  0  0  0  0  0  0
    9.6423   -0.1507    0.7142 C   0  0  0  0  0  0  0  0  0  0  0  0
    9.3901   -0.2489   -0.6527 C   0  0  0  0  0  0  0  0  0  0  0  0
    8.0775   -0.3379   -1.1120 C   0  0  0  0  0  0  0  0  0  0  0  0
    7.0157   -0.3230   -0.2040 C   0  0  0  0  0  0  0  0  0  0  0  0
    1.9717    0.6854    1.4825 C   0  0  0  0  0  0  0  0  0  0  0  0
    0.5897    0.1082    1.0963 C   0  0  0  0  0  0  0  0  0  0  0  0
    2.1623   -0.2136   -2.4515 H   0  0  0  0  0  0  0  0  0  0  0  0
    0.7793    0.5696   -3.2242 H   0  0  0  0  0  0  0  0  0  0  0  0
    1.2189    0.9939   -1.5754 H   0  0  0  0  0  0  0  0  0  0  0  0
    0.0988   -1.6883   -2.5752 H   0  0  0  0  0  0  0  0  0  0  0  0
   -1.4726   -0.8933   -0.5416 H   0  0  0  0  0  0  0  0  0  0  0  0
   -4.2371   -0.1640   -3.8243 H   0  0  0  0  0  0  0  0  0  0  0  0
   -6.5433    0.2349   -3.1242 H   0  0  0  0  0  0  0  0  0  0  0  0
   -9.4100   -0.2212   -0.5895 H   0  0  0  0  0  0  0  0  0  0  0  0
   -8.3930   -0.6203   -1.9713 H   0  0  0  0  0  0  0  0  0  0  0  0
   -7.9687   -1.2254   -0.3660 H   0  0  0  0  0  0  0  0  0  0  0  0
   -7.5110    2.9937   -1.2996 H   0  0  0  0  0  0  0  0  0  0  0  0
   -9.1354    2.3051   -1.1513 H   0  0  0  0  0  0  0  0  0  0  0  0
   -8.1189    1.8742   -2.5243 H   0  0  0  0  0  0  0  0  0  0  0  0
   -8.7640    1.4198    1.1066 H   0  0  0  0  0  0  0  0  0  0  0  0
   -7.3487    0.4477    1.5107 H   0  0  0  0  0  0  0  0  0  0  0  0
   -7.1696    2.1726    1.1282 H   0  0  0  0  0  0  0  0  0  0  0  0
   -5.1594    1.0286    0.8998 H   0  0  0  0  0  0  0  0  0  0  0  0
   -2.8793    0.6499    0.1859 H   0  0  0  0  0  0  0  0  0  0  0  0
    1.4228   -3.1535    1.4564 H   0  0  0  0  0  0  0  0  0  0  0  0
    0.6601   -2.0829    2.6333 H   0  0  0  0  0  0  0  0  0  0  0  0
    3.1091   -2.1279    2.9846 H   0  0  0  0  0  0  0  0  0  0  0  0
    3.3964   -1.6641    1.2980 H   0  0  0  0  0  0  0  0  0  0  0  0
    3.7346    1.4683    3.3349 H   0  0  0  0  0  0  0  0  0  0  0  0
    4.2007   -0.1095    3.9005 H   0  0  0  0  0  0  0  0  0  0  0  0
    4.8530    1.0440    1.1011 H   0  0  0  0  0  0  0  0  0  0  0  0
    6.3500   -0.7957    3.0589 H   0  0  0  0  0  0  0  0  0  0  0  0
    8.7969   -0.0586    2.6852 H   0  0  0  0  0  0  0  0  0  0  0  0
   10.6656   -0.0866    1.0748 H   0  0  0  0  0  0  0  0  0  0  0  0
   10.2157   -0.2618   -1.3595 H   0  0  0  0  0  0  0  0  0  0  0  0
    7.8781   -0.4254   -2.1771 H   0  0  0  0  0  0  0  0  0  0  0  0
    6.0000   -0.4149   -0.5819 H   0  0  0  0  0  0  0  0  0  0  0  0
    2.5991    0.7204    0.5839 H   0  0  0  0  0  0  0  0  0  0  0  0
    1.8292    1.7146    1.8317 H   0  0  0  0  0  0  0  0  0  0  0  0
    0.1535    0.7206    0.3089 H   0  0  0  0  0  0  0  0  0  0  0  0
   -0.0903    0.1537    1.9558 H   0  0  0  0  0  0  0  0  0  0  0  0
  1  2  1  0
  2  3  1  0
  3  4  1  0
  4  5  2  0
  4  6  1  0
  6  7  2  0
  7  8  1  0
  8  9  2  0
  9 10  1  0
 10 11  1  0
 10 12  1  0
 10 13  1  0
  9 14  1  0
 14 15  2  0
  2 16  1  0
 16 17  2  0
 16 18  1  0
 18 19  1  0
 19 20  1  0
 20 21  1  0
 21 22  1  0
 22 23  1  0
 23 24  2  3
 24 25  1  0
 25 26  2  0
 26 27  1  0
 27 28  2  0
 28 29  1  0
 29 30  2  0
 21 31  1  0
 31 32  1  0
 15  6  1  0
 32 18  1  0
 30 25  1  0
  1 33  1  0
  1 34  1  0
  1 35  1  0
  2 36  1  0
  3 37  1  0
  7 38  1  0
  8 39  1  0
 11 40  1  0
 11 41  1  0
 11 42  1  0
 12 43  1  0
 12 44  1  0
 12 45  1  0
 13 46  1  0
 13 47  1  0
 13 48  1  0
 14 49  1  0
 15 50  1  0
 19 51  1  0
 19 52  1  0
 20 53  1  0
 20 54  1  0
 22 55  1  0
 22 56  1  0
 23 57  1  0
 24 58  1  0
 26 59  1  0
 27 60  1  0
 28 61  1  0
 29 62  1  0
 30 63  1  0
 31 64  1  0
 31 65  1  0
 32 66  1  0
 32 67  1  0
M  END
$$$$
