
     RDKit          3D

 43 45  0  0  0  0  0  0  0  0999 V2000
   -4.6787    1.9379   -1.6137 C   0  0  0  0  0  0  0  0  0  0  0  0
   -3.3173    1.4803   -2.1138 C   0  0  0  0  0  0  0  0  0  0  0  0
   -2.7923    0.2350   -1.3977 C   0  0  0  0  0  0  0  0  0  0  0  0
   -2.4905    0.4728    0.0828 C   0  0  0  0  0  0  0  0  0  0  0  0
   -1.9027   -0.7087    0.7102 N   0  0  0  0  0  0  0  0  0  0  0  0
   -2.5856   -1.7709    1.3018 C   0  0  0  0  0  0  0  0  0  0  0  0
   -4.1998   -1.9366    1.6200 S   0  0  0  0  0  0  0  0  0  0  0  0
   -1.6642   -2.7678    1.5866 N   0  0  0  0  0  0  0  0  0  0  0  0
   -0.4101   -2.5021    0.9303 C   0  0  0  0  0  0  0  0  0  0  0  0
   -0.4678   -1.0006    0.6141 C   0  0  0  0  0  0  0  0  0  0  0  0
    0.3411   -0.1568    1.6177 C   0  0  0  0  0  0  0  0  0  0  0  0
    1.8420   -0.2651    1.4170 C   0  0  0  0  0  0  0  0  0  0  0  0
    2.5690   -1.0586    2.3226 C   0  0  0  0  0  0  0  0  0  0  0  0
    3.9412   -1.2276    2.1805 C   0  0  0  0  0  0  0  0  0  0  0  0
    4.6104   -0.6042    1.1321 C   0  0  0  0  0  0  0  0  0  0  0  0
    3.9213    0.2043    0.2171 C   0  0  0  0  0  0  0  0  0  0  0  0
    4.6202    0.8301   -0.8286 C   0  0  0  0  0  0  0  0  0  0  0  0
    3.9616    1.6463   -1.7457 C   0  0  0  0  0  0  0  0  0  0  0  0
    2.5944    1.8506   -1.6261 C   0  0  0  0  0  0  0  0  0  0  0  0
    1.8854    1.2342   -0.5919 C   0  0  0  0  0  0  0  0  0  0  0  0
    2.5214    0.3919    0.3506 C   0  0  0  0  0  0  0  0  0  0  0  0
   -4.6294    2.2883   -0.5787 H   0  0  0  0  0  0  0  0  0  0  0  0
   -5.0441    2.7681   -2.2267 H   0  0  0  0  0  0  0  0  0  0  0  0
   -5.4115    1.1268   -1.6707 H   0  0  0  0  0  0  0  0  0  0  0  0
   -3.3968    1.2576   -3.1845 H   0  0  0  0  0  0  0  0  0  0  0  0
   -2.5967    2.3003   -2.0135 H   0  0  0  0  0  0  0  0  0  0  0  0
   -3.5114   -0.5858   -1.5073 H   0  0  0  0  0  0  0  0  0  0  0  0
   -1.8769   -0.0915   -1.9065 H   0  0  0  0  0  0  0  0  0  0  0  0
   -3.4086    0.7288    0.6191 H   0  0  0  0  0  0  0  0  0  0  0  0
   -1.7954    1.3096    0.2057 H   0  0  0  0  0  0  0  0  0  0  0  0
   -1.9939   -3.6917    1.8396 H   0  0  0  0  0  0  0  0  0  0  0  0
   -0.3972   -3.0923    0.0074 H   0  0  0  0  0  0  0  0  0  0  0  0
    0.4168   -2.8195    1.5678 H   0  0  0  0  0  0  0  0  0  0  0  0
   -0.1366   -0.8288   -0.4152 H   0  0  0  0  0  0  0  0  0  0  0  0
    0.0595    0.9015    1.5557 H   0  0  0  0  0  0  0  0  0  0  0  0
    0.0768   -0.4448    2.6446 H   0  0  0  0  0  0  0  0  0  0  0  0
    2.0643   -1.5543    3.1502 H   0  0  0  0  0  0  0  0  0  0  0  0
    4.4911   -1.8444    2.8866 H   0  0  0  0  0  0  0  0  0  0  0  0
    5.6846   -0.7499    1.0382 H   0  0  0  0  0  0  0  0  0  0  0  0
    5.6937    0.6874   -0.9350 H   0  0  0  0  0  0  0  0  0  0  0  0
    4.5183    2.1246   -2.5472 H   0  0  0  0  0  0  0  0  0  0  0  0
    2.0756    2.4925   -2.3334 H   0  0  0  0  0  0  0  0  0  0  0  0
    0.8188    1.4329   -0.5319 H   0  0  0  0  0  0  0  0  0  0  0  0
  1  2  1  0
  2  3  1  0
  3  4  1  0
  4  5  1  0
  5  6  1  0
  6  7  2  0
  6  8  1  0
  8  9  1  0
  9 10  1  0
 10 11  1  0
 11 12  1  0
 12 13  2  0
 13 14  1  0
 14 15  2  0
 15 16  1  0
 16 17  2  0
 17 18  1  0
 18 19  2  0
 19 20  1  0
 20 21  2  0
 10  5  1  0
 21 12  1  0
 21 16  1  0
  1 22  1  0
  1 23  1  0
  1 24  1  0
  2 25  1  0
  2 26  1  0
  3 27  1  0
  3 28  1  0
  4 29  1  0
  4 30  1  0
  8 31  1  0
  9 32  1  0
  9 33  1  0
 10 34  1  0
 11 35  1  0
 11 36  1  0
 13 37  1  0
 14 38  1  0
 15 39  1  0
 17 40  1  0
 18 41  1  0
 19 42  1  0
 20 43  1  0
M  END
$$$$
