
     RDKit          3D

 42 44  0  0  0  0  0  0  0  0999 V2000
    4.9473   -1.1603   -1.4661 C   0  0  0  0  0  0  0  0  0  0  0  0
    4.7442   -0.7994   -0.0025 C   0  0  0  0  0  0  0  0  0  0  0  0
    3.3505   -0.2904    0.2607 C   0  0  0  0  0  0  0  0  0  0  0  0
    3.0573    1.0719    0.1492 C   0  0  0  0  0  0  0  0  0  0  0  0
    1.7605    1.5384    0.3785 C   0  0  0  0  0  0  0  0  0  0  0  0
    0.7226    0.6547    0.7235 C   0  0  0  0  0  0  0  0  0  0  0  0
   -0.6831    1.2201    0.9353 C   0  0  0  0  0  0  0  0  0  0  0  0
   -1.4433    1.3529   -0.4014 C   0  0  0  0  0  0  0  0  0  0  0  0
   -2.3988    2.5238   -0.2822 C   0  0  0  0  0  0  0  0  0  0  0  0
   -2.0598    3.6807   -0.0717 O   0  0  0  0  0  0  0  0  0  0  0  0
   -3.7036    2.2328   -0.4267 O   0  0  0  0  0  0  0  0  0  0  0  0
   -2.0977    0.0464   -0.7938 C   0  0  0  0  0  0  0  0  0  0  0  0
   -2.3183   -0.2651   -2.1453 C   0  0  0  0  0  0  0  0  0  0  0  0
   -2.9500   -1.4575   -2.5009 C   0  0  0  0  0  0  0  0  0  0  0  0
   -3.3731   -2.3460   -1.5148 C   0  0  0  0  0  0  0  0  0  0  0  0
   -3.1619   -2.0447   -0.1694 C   0  0  0  0  0  0  0  0  0  0  0  0
   -2.5221   -0.8528    0.1953 C   0  0  0  0  0  0  0  0  0  0  0  0
   -2.2942   -0.5679    1.6403 C   0  0  0  0  0  0  0  0  0  0  0  0
   -2.8268   -1.2812    2.4857 O   0  0  0  0  0  0  0  0  0  0  0  0
   -1.4614    0.5017    1.9570 N   0  0  0  0  0  0  0  0  0  0  0  0
   -1.1414    0.7585    3.3525 C   0  0  0  0  0  0  0  0  0  0  0  0
    1.0236   -0.7107    0.8241 C   0  0  0  0  0  0  0  0  0  0  0  0
    2.3216   -1.1771    0.5947 C   0  0  0  0  0  0  0  0  0  0  0  0
    4.2511   -1.9446   -1.7822 H   0  0  0  0  0  0  0  0  0  0  0  0
    5.9662   -1.5259   -1.6278 H   0  0  0  0  0  0  0  0  0  0  0  0
    4.7915   -0.2916   -2.1148 H   0  0  0  0  0  0  0  0  0  0  0  0
    5.4771   -0.0403    0.2971 H   0  0  0  0  0  0  0  0  0  0  0  0
    4.9419   -1.6760    0.6264 H   0  0  0  0  0  0  0  0  0  0  0  0
    3.8382    1.7807   -0.1180 H   0  0  0  0  0  0  0  0  0  0  0  0
    1.5670    2.6059    0.2840 H   0  0  0  0  0  0  0  0  0  0  0  0
   -0.5380    2.2258    1.3552 H   0  0  0  0  0  0  0  0  0  0  0  0
   -0.7458    1.6328   -1.2036 H   0  0  0  0  0  0  0  0  0  0  0  0
   -4.1710    3.0851   -0.3038 H   0  0  0  0  0  0  0  0  0  0  0  0
   -2.0051    0.4208   -2.9296 H   0  0  0  0  0  0  0  0  0  0  0  0
   -3.1182   -1.6914   -3.5494 H   0  0  0  0  0  0  0  0  0  0  0  0
   -3.8697   -3.2726   -1.7914 H   0  0  0  0  0  0  0  0  0  0  0  0
   -3.4960   -2.7427    0.5958 H   0  0  0  0  0  0  0  0  0  0  0  0
   -0.1369    0.3817    3.5643 H   0  0  0  0  0  0  0  0  0  0  0  0
   -1.1763    1.8363    3.5357 H   0  0  0  0  0  0  0  0  0  0  0  0
   -1.8498    0.2679    4.0251 H   0  0  0  0  0  0  0  0  0  0  0  0
    0.2596   -1.4375    1.0872 H   0  0  0  0  0  0  0  0  0  0  0  0
    2.5223   -2.2432    0.6799 H   0  0  0  0  0  0  0  0  0  0  0  0
  1  2  1  0
  2  3  1  0
  3  4  2  0
  4  5  1  0
  5  6  2  0
  6  7  1  0
  7  8  1  0
  8  9  1  0
  9 10  2  0
  9 11  1  0
  8 12  1  0
 12 13  2  0
 13 14  1  0
 14 15  2  0
 15 16  1  0
 16 17  2  0
 17 18  1  0
 18 19  2  0
 18 20  1  0
 20 21  1  0
  6 22  1  0
 22 23  2  0
 23  3  1  0
 20  7  1  0
 17 12  1  0
  1 24  1  0
  1 25  1  0
  1 26  1  0
  2 27  1  0
  2 28  1  0
  4 29  1  0
  5 30  1  0
  7 31  1  0
  8 32  1  0
 11 33  1  0
 13 34  1  0
 14 35  1  0
 15 36  1  0
 16 37  1  0
 21 38  1  0
 21 39  1  0
 21 40  1  0
 22 41  1  0
 23 42  1  0
M  END
$$$$
