
     RDKit          3D

 67 72  0  0  0  0  0  0  0  0999 V2000
   -1.9921   -2.2261   -1.9379 O   0  0  0  0  0  0  0  0  0  0  0  0
   -2.0798   -1.2316   -1.2146 C   0  0  0  0  0  0  0  0  0  0  0  0
   -0.8326   -0.4588   -0.7913 C   0  0  0  0  0  0  0  0  0  0  0  0
   -0.6528    0.7989   -1.6638 C   0  0  0  0  0  0  0  0  0  0  0  0
    0.6163    0.7475   -2.5071 C   0  0  0  0  0  0  0  0  0  0  0  0
    1.8541    0.4815   -1.6466 C   0  0  0  0  0  0  0  0  0  0  0  0
    1.6068   -0.5784   -0.6650 N   0  0  0  0  0  0  0  0  0  0  0  0
    2.7313   -1.2075   -0.1197 C   0  0  0  0  0  0  0  0  0  0  0  0
    2.6019   -2.4637    0.4061 N   0  0  0  0  0  0  0  0  0  0  0  0
    3.6697   -3.0782    0.9545 C   0  0  0  0  0  0  0  0  0  0  0  0
    4.9235   -2.6139    1.0786 N   0  0  0  0  0  0  0  0  0  0  0  0
    5.0251   -1.3784    0.5644 C   0  0  0  0  0  0  0  0  0  0  0  0
    4.0244   -0.6242   -0.0297 C   0  0  0  0  0  0  0  0  0  0  0  0
    4.5315    0.6035   -0.4261 N   0  0  0  0  0  0  0  0  0  0  0  0
    5.8048    0.5961   -0.0818 C   0  0  0  0  0  0  0  0  0  0  0  0
    6.1433   -0.5921    0.5193 N   0  0  0  0  0  0  0  0  0  0  0  0
    7.4514   -0.9420    1.0277 C   0  0  0  0  0  0  0  0  0  0  0  0
    7.9258   -0.0103    2.1398 C   0  0  0  0  0  0  0  0  0  0  0  0
    8.4214    1.3484    1.6383 C   0  0  0  0  0  0  0  0  0  0  0  0
    7.3460    2.2435    1.0171 C   0  0  0  0  0  0  0  0  0  0  0  0
    6.7735    1.7084   -0.2944 C   0  0  0  0  0  0  0  0  0  0  0  0
    0.3958   -1.3845   -0.8343 C   0  0  0  0  0  0  0  0  0  0  0  0
   -3.3146   -0.7478   -0.8033 N   0  0  0  0  0  0  0  0  0  0  0  0
   -4.5218   -1.4886   -1.1894 C   0  0  0  0  0  0  0  0  0  0  0  0
   -5.6564   -1.3903   -0.1524 C   0  0  0  0  0  0  0  0  0  0  0  0
   -5.9941    0.0123    0.1492 N   0  0  0  0  0  0  0  0  0  0  0  0
   -7.2371    0.3533    0.6721 C   0  0  0  0  0  0  0  0  0  0  0  0
   -7.7178    1.6740    0.5947 C   0  0  0  0  0  0  0  0  0  0  0  0
   -8.9704    2.0456    1.1043 C   0  0  0  0  0  0  0  0  0  0  0  0
   -9.7890    1.0999    1.7111 C   0  0  0  0  0  0  0  0  0  0  0  0
   -9.3511   -0.2149    1.8055 C   0  0  0  0  0  0  0  0  0  0  0  0
   -8.1010   -0.5744    1.2937 C   0  0  0  0  0  0  0  0  0  0  0  0
   -7.7342   -1.8581    1.4444 F   0  0  0  0  0  0  0  0  0  0  0  0
   -4.9303    1.0135   -0.0209 C   0  0  0  0  0  0  0  0  0  0  0  0
   -3.5269    0.3877    0.1017 C   0  0  0  0  0  0  0  0  0  0  0  0
   -0.9601   -0.1462    0.2525 H   0  0  0  0  0  0  0  0  0  0  0  0
   -1.5151    0.9630   -2.3209 H   0  0  0  0  0  0  0  0  0  0  0  0
   -0.5946    1.6765   -1.0072 H   0  0  0  0  0  0  0  0  0  0  0  0
    0.7441    1.6879   -3.0547 H   0  0  0  0  0  0  0  0  0  0  0  0
    0.5155   -0.0415   -3.2631 H   0  0  0  0  0  0  0  0  0  0  0  0
    2.6777    0.2209   -2.3232 H   0  0  0  0  0  0  0  0  0  0  0  0
    2.1181    1.4047   -1.1172 H   0  0  0  0  0  0  0  0  0  0  0  0
    3.4888   -4.0751    1.3471 H   0  0  0  0  0  0  0  0  0  0  0  0
    7.4035   -1.9664    1.4125 H   0  0  0  0  0  0  0  0  0  0  0  0
    8.1450   -0.9441    0.1799 H   0  0  0  0  0  0  0  0  0  0  0  0
    8.7618   -0.4968    2.6573 H   0  0  0  0  0  0  0  0  0  0  0  0
    7.1335    0.1335    2.8846 H   0  0  0  0  0  0  0  0  0  0  0  0
    8.8554    1.8847    2.4913 H   0  0  0  0  0  0  0  0  0  0  0  0
    9.2373    1.2005    0.9199 H   0  0  0  0  0  0  0  0  0  0  0  0
    6.5445    2.4224    1.7450 H   0  0  0  0  0  0  0  0  0  0  0  0
    7.8070    3.2183    0.8115 H   0  0  0  0  0  0  0  0  0  0  0  0
    6.2496    2.5263   -0.8049 H   0  0  0  0  0  0  0  0  0  0  0  0
    7.5768    1.3844   -0.9667 H   0  0  0  0  0  0  0  0  0  0  0  0
    0.2711   -2.1225   -0.0313 H   0  0  0  0  0  0  0  0  0  0  0  0
    0.4620   -1.9486   -1.7732 H   0  0  0  0  0  0  0  0  0  0  0  0
   -4.2829   -2.5426   -1.3677 H   0  0  0  0  0  0  0  0  0  0  0  0
   -4.8539   -1.0600   -2.1434 H   0  0  0  0  0  0  0  0  0  0  0  0
   -5.3480   -1.8923    0.7725 H   0  0  0  0  0  0  0  0  0  0  0  0
   -6.5228   -1.9190   -0.5675 H   0  0  0  0  0  0  0  0  0  0  0  0
   -7.1307    2.4462    0.1042 H   0  0  0  0  0  0  0  0  0  0  0  0
   -9.3043    3.0767    1.0164 H   0  0  0  0  0  0  0  0  0  0  0  0
  -10.7603    1.3850    2.1054 H   0  0  0  0  0  0  0  0  0  0  0  0
   -9.9686   -0.9725    2.2780 H   0  0  0  0  0  0  0  0  0  0  0  0
   -5.0027    1.8012    0.7387 H   0  0  0  0  0  0  0  0  0  0  0  0
   -5.0378    1.4791   -1.0082 H   0  0  0  0  0  0  0  0  0  0  0  0
   -2.7754    1.1609   -0.0716 H   0  0  0  0  0  0  0  0  0  0  0  0
   -3.3794    0.0052    1.1195 H   0  0  0  0  0  0  0  0  0  0  0  0
  1  2  2  0
  2  3  1  0
  3  4  1  0
  4  5  1  0
  5  6  1  0
  6  7  1  0
  7  8  1  0
  8  9  2  0
  9 10  1  0
 10 11  2  0
 11 12  1  0
 12 13  2  0
 13 14  1  0
 14 15  2  0
 15 16  1  0
 16 17  1  0
 17 18  1  0
 18 19  1  0
 19 20  1  0
 20 21  1  0
  7 22  1  0
  2 23  1  0
 23 24  1  0
 24 25  1  0
 25 26  1  0
 26 27  1  0
 27 28  2  0
 28 29  1  0
 29 30  2  0
 30 31  1  0
 31 32  2  0
 32 33  1  0
 26 34  1  0
 34 35  1  0
 22  3  1  0
 35 23  1  0
 13  8  1  0
 21 15  1  0
 32 27  1  0
 16 12  1  0
  3 36  1  0
  4 37  1  0
  4 38  1  0
  5 39  1  0
  5 40  1  0
  6 41  1  0
  6 42  1  0
 10 43  1  0
 17 44  1  0
 17 45  1  0
 18 46  1  0
 18 47  1  0
 19 48  1  0
 19 49  1  0
 20 50  1  0
 20 51  1  0
 21 52  1  0
 21 53  1  0
 22 54  1  0
 22 55  1  0
 24 56  1  0
 24 57  1  0
 25 58  1  0
 25 59  1  0
 28 60  1  0
 29 61  1  0
 30 62  1  0
 31 63  1  0
 34 64  1  0
 34 65  1  0
 35 66  1  0
 35 67  1  0
M  END
$$$$
