
     RDKit          3D

 44 46  0  0  0  0  0  0  0  0999 V2000
    4.3050    0.8656    1.3854 C   0  0  0  0  0  0  0  0  0  0  0  0
    4.7500    0.6236   -0.0624 C   0  0  0  0  0  0  0  0  0  0  0  0
    5.9392    1.5547   -0.3633 C   0  0  0  0  0  0  0  0  0  0  0  0
    5.2064   -0.8304   -0.2425 C   0  0  0  0  0  0  0  0  0  0  0  0
    3.6062    0.9157   -1.0586 C   0  0  0  0  0  0  0  0  0  0  0  0
    3.7849    1.6390   -2.0446 O   0  0  0  0  0  0  0  0  0  0  0  0
    2.2534    0.2638   -0.8319 C   0  0  0  0  0  0  0  0  0  0  0  0
    1.0977    1.4858   -0.1379 S   0  0  0  0  0  0  0  0  0  0  0  0
   -0.4131    0.5194   -0.0840 C   0  0  0  0  0  0  0  0  0  0  0  0
   -0.2662   -0.8067   -0.3469 N   0  0  0  0  0  0  0  0  0  0  0  0
   -1.3823   -1.5473   -0.3200 C   0  0  0  0  0  0  0  0  0  0  0  0
   -2.6471   -1.0590   -0.0345 C   0  0  0  0  0  0  0  0  0  0  0  0
   -2.8023    0.2888    0.2614 C   0  0  0  0  0  0  0  0  0  0  0  0
   -4.1266    0.8219    0.5823 C   0  0  0  0  0  0  0  0  0  0  0  0
   -5.0071    1.5034   -0.2339 C   0  0  0  0  0  0  0  0  0  0  0  0
   -6.2018    1.8717    0.4514 C   0  0  0  0  0  0  0  0  0  0  0  0
   -6.1914    1.4593    1.7651 C   0  0  0  0  0  0  0  0  0  0  0  0
   -4.7491    0.6329    2.1674 S   0  0  0  0  0  0  0  0  0  0  0  0
   -1.6534    1.1060    0.2280 C   0  0  0  0  0  0  0  0  0  0  0  0
   -1.7551    2.5079    0.5141 C   0  0  0  0  0  0  0  0  0  0  0  0
   -1.8585    3.6415    0.7435 N   0  0  0  0  0  0  0  0  0  0  0  0
   -3.6574   -2.1635   -0.0601 C   0  0  0  0  0  0  0  0  0  0  0  0
   -2.9013   -3.2469   -0.8438 C   0  0  0  0  0  0  0  0  0  0  0  0
   -1.4117   -3.0312   -0.5546 C   0  0  0  0  0  0  0  0  0  0  0  0
    3.5150    0.1727    1.6933 H   0  0  0  0  0  0  0  0  0  0  0  0
    3.9210    1.8836    1.5152 H   0  0  0  0  0  0  0  0  0  0  0  0
    5.1399    0.7322    2.0828 H   0  0  0  0  0  0  0  0  0  0  0  0
    6.7694    1.3779    0.3298 H   0  0  0  0  0  0  0  0  0  0  0  0
    6.3192    1.4023   -1.3802 H   0  0  0  0  0  0  0  0  0  0  0  0
    5.6483    2.6080   -0.2763 H   0  0  0  0  0  0  0  0  0  0  0  0
    5.4834   -1.0301   -1.2841 H   0  0  0  0  0  0  0  0  0  0  0  0
    4.4171   -1.5411    0.0241 H   0  0  0  0  0  0  0  0  0  0  0  0
    6.0756   -1.0539    0.3862 H   0  0  0  0  0  0  0  0  0  0  0  0
    2.3517   -0.5977   -0.1676 H   0  0  0  0  0  0  0  0  0  0  0  0
    1.8940   -0.0968   -1.8019 H   0  0  0  0  0  0  0  0  0  0  0  0
   -4.8067    1.7357   -1.2734 H   0  0  0  0  0  0  0  0  0  0  0  0
   -7.0240    2.4177    0.0048 H   0  0  0  0  0  0  0  0  0  0  0  0
   -6.9594    1.6074    2.5120 H   0  0  0  0  0  0  0  0  0  0  0  0
   -3.8780   -2.4986    0.9586 H   0  0  0  0  0  0  0  0  0  0  0  0
   -4.5818   -1.8831   -0.5726 H   0  0  0  0  0  0  0  0  0  0  0  0
   -3.0836   -3.1068   -1.9185 H   0  0  0  0  0  0  0  0  0  0  0  0
   -3.2356   -4.2575   -0.5892 H   0  0  0  0  0  0  0  0  0  0  0  0
   -1.1014   -3.5570    0.3539 H   0  0  0  0  0  0  0  0  0  0  0  0
   -0.7827   -3.3309   -1.3968 H   0  0  0  0  0  0  0  0  0  0  0  0
  1  2  1  0
  2  3  1  0
  2  4  1  0
  2  5  1  0
  5  6  2  0
  5  7  1  0
  7  8  1  0
  8  9  1  0
  9 10  2  0
 10 11  1  0
 11 12  2  0
 12 13  1  0
 13 14  1  0
 14 15  2  0
 15 16  1  0
 16 17  2  0
 17 18  1  0
 13 19  2  0
 19 20  1  0
 20 21  3  0
 12 22  1  0
 22 23  1  0
 23 24  1  0
 19  9  1  0
 24 11  1  0
 18 14  1  0
  1 25  1  0
  1 26  1  0
  1 27  1  0
  3 28  1  0
  3 29  1  0
  3 30  1  0
  4 31  1  0
  4 32  1  0
  4 33  1  0
  7 34  1  0
  7 35  1  0
 15 36  1  0
 16 37  1  0
 17 38  1  0
 22 39  1  0
 22 40  1  0
 23 41  1  0
 23 42  1  0
 24 43  1  0
 24 44  1  0
M  END
$$$$
