
     RDKit          3D

 70 72  0  0  0  0  0  0  0  0999 V2000
    9.9434   -0.9392    0.0573 C   0  0  0  0  0  0  0  0  0  0  0  0
    9.7059   -0.7333   -1.4311 C   0  0  0  0  0  0  0  0  0  0  0  0
    8.5017    0.1589   -1.7398 C   0  0  0  0  0  0  0  0  0  0  0  0
    7.1621   -0.4626   -1.3318 C   0  0  0  0  0  0  0  0  0  0  0  0
    5.9948    0.4476   -1.7212 C   0  0  0  0  0  0  0  0  0  0  0  0
    4.6155   -0.1507   -1.4222 C   0  0  0  0  0  0  0  0  0  0  0  0
    4.3679   -0.3864    0.0700 C   0  0  0  0  0  0  0  0  0  0  0  0
    2.9426   -0.8521    0.3881 C   0  0  0  0  0  0  0  0  0  0  0  0
    1.8850    0.2348    0.1587 C   0  0  0  0  0  0  0  0  0  0  0  0
    0.5239   -0.2221    0.6903 C   0  0  0  0  0  0  0  0  0  0  0  0
   -0.6343    0.7853    0.4445 N   0  0  0  0  0  4  0  0  0  0  0  0
   -0.9027    0.9123   -1.0558 C   0  0  0  0  0  0  0  0  0  0  0  0
   -0.2938    2.1544    1.0233 C   0  0  0  0  0  0  0  0  0  0  0  0
   -1.8790    0.1842    1.1650 C   0  0  0  0  0  0  0  0  0  0  0  0
   -3.1301    1.0734    1.1358 C   0  0  0  0  0  0  0  0  0  0  0  0
   -4.3400    0.3611    1.6885 C   0  0  0  0  0  0  0  0  0  0  0  0
   -5.4390   -0.0693    1.0255 C   0  0  0  0  0  0  0  0  0  0  0  0
   -6.6179   -0.4775    1.8386 C   0  0  0  0  0  0  0  0  0  0  0  0
   -6.5151   -1.3840    2.9048 C   0  0  0  0  0  0  0  0  0  0  0  0
   -7.6464   -1.7334    3.6456 C   0  0  0  0  0  0  0  0  0  0  0  0
   -8.8878   -1.1876    3.3258 C   0  0  0  0  0  0  0  0  0  0  0  0
   -9.0070   -0.3008    2.2547 C   0  0  0  0  0  0  0  0  0  0  0  0
   -7.8813    0.0494    1.4995 C   0  0  0  0  0  0  0  0  0  0  0  0
   -8.0980    1.1783    0.1193 S   0  0  0  0  0  0  0  0  0  0  0  0
   -6.7650    0.6560   -0.9566 C   0  0  0  0  0  0  0  0  0  0  0  0
   -6.9163    0.8194   -2.3400 C   0  0  0  0  0  0  0  0  0  0  0  0
   -5.9226    0.3776   -3.2165 C   0  0  0  0  0  0  0  0  0  0  0  0
   -4.7898   -0.2504   -2.7098 C   0  0  0  0  0  0  0  0  0  0  0  0
   -3.5587   -0.8062   -3.7739 Cl  0  0  0  0  0  0  0  0  0  0  0  0
   -4.6297   -0.4234   -1.3361 C   0  0  0  0  0  0  0  0  0  0  0  0
   -5.5903    0.0723   -0.4451 C   0  0  0  0  0  0  0  0  0  0  0  0
    9.1324   -1.5089    0.5193 H   0  0  0  0  0  0  0  0  0  0  0  0
   10.8716   -1.4982    0.2143 H   0  0  0  0  0  0  0  0  0  0  0  0
   10.0336    0.0202    0.5766 H   0  0  0  0  0  0  0  0  0  0  0  0
   10.6010   -0.2684   -1.8633 H   0  0  0  0  0  0  0  0  0  0  0  0
    9.5868   -1.7068   -1.9223 H   0  0  0  0  0  0  0  0  0  0  0  0
    8.4913    0.3574   -2.8193 H   0  0  0  0  0  0  0  0  0  0  0  0
    8.6271    1.1284   -1.2415 H   0  0  0  0  0  0  0  0  0  0  0  0
    7.1521   -0.6296   -0.2507 H   0  0  0  0  0  0  0  0  0  0  0  0
    7.0462   -1.4389   -1.8174 H   0  0  0  0  0  0  0  0  0  0  0  0
    6.0486    0.6604   -2.7963 H   0  0  0  0  0  0  0  0  0  0  0  0
    6.0920    1.4107   -1.2048 H   0  0  0  0  0  0  0  0  0  0  0  0
    4.4953   -1.0941   -1.9682 H   0  0  0  0  0  0  0  0  0  0  0  0
    3.8652    0.5413   -1.8196 H   0  0  0  0  0  0  0  0  0  0  0  0
    4.5884    0.5272    0.6347 H   0  0  0  0  0  0  0  0  0  0  0  0
    5.0565   -1.1581    0.4325 H   0  0  0  0  0  0  0  0  0  0  0  0
    2.9153   -1.1593    1.4414 H   0  0  0  0  0  0  0  0  0  0  0  0
    2.6994   -1.7399   -0.2072 H   0  0  0  0  0  0  0  0  0  0  0  0
    2.2070    1.1453    0.6734 H   0  0  0  0  0  0  0  0  0  0  0  0
    1.8270    0.4579   -0.9087 H   0  0  0  0  0  0  0  0  0  0  0  0
    0.2219   -1.1660    0.2215 H   0  0  0  0  0  0  0  0  0  0  0  0
    0.5821   -0.3745    1.7744 H   0  0  0  0  0  0  0  0  0  0  0  0
   -1.1431   -0.0796   -1.4486 H   0  0  0  0  0  0  0  0  0  0  0  0
   -1.7315    1.6047   -1.2144 H   0  0  0  0  0  0  0  0  0  0  0  0
   -0.0128    1.3165   -1.5433 H   0  0  0  0  0  0  0  0  0  0  0  0
   -1.1399    2.8264    0.8646 H   0  0  0  0  0  0  0  0  0  0  0  0
   -0.0836    2.0365    2.0896 H   0  0  0  0  0  0  0  0  0  0  0  0
    0.5730    2.5601    0.4952 H   0  0  0  0  0  0  0  0  0  0  0  0
   -1.5812    0.0030    2.2058 H   0  0  0  0  0  0  0  0  0  0  0  0
   -2.0695   -0.7856    0.6906 H   0  0  0  0  0  0  0  0  0  0  0  0
   -2.9677    1.9557    1.7665 H   0  0  0  0  0  0  0  0  0  0  0  0
   -3.3321    1.4637    0.1366 H   0  0  0  0  0  0  0  0  0  0  0  0
   -4.3406    0.3015    2.7792 H   0  0  0  0  0  0  0  0  0  0  0  0
   -5.5612   -1.8355    3.1642 H   0  0  0  0  0  0  0  0  0  0  0  0
   -7.5611   -2.4339    4.4734 H   0  0  0  0  0  0  0  0  0  0  0  0
   -9.7679   -1.4585    3.9058 H   0  0  0  0  0  0  0  0  0  0  0  0
   -9.9855    0.1081    2.0123 H   0  0  0  0  0  0  0  0  0  0  0  0
   -7.8157    1.2786   -2.7467 H   0  0  0  0  0  0  0  0  0  0  0  0
   -6.0538    0.5085   -4.2880 H   0  0  0  0  0  0  0  0  0  0  0  0
   -3.7646   -0.9622   -0.9669 H   0  0  0  0  0  0  0  0  0  0  0  0
  1  2  1  0
  2  3  1  0
  3  4  1  0
  4  5  1  0
  5  6  1  0
  6  7  1  0
  7  8  1  0
  8  9  1  0
  9 10  1  0
 10 11  1  0
 11 12  1  0
 11 13  1  0
 11 14  1  0
 14 15  1  0
 15 16  1  0
 16 17  2  3
 17 18  1  0
 18 19  2  0
 19 20  1  0
 20 21  2  0
 21 22  1  0
 22 23  2  0
 23 24  1  0
 24 25  1  0
 25 26  2  0
 26 27  1  0
 27 28  2  0
 28 29  1  0
 28 30  1  0
 30 31  2  0
 31 17  1  0
 23 18  1  0
 31 25  1  0
  1 32  1  0
  1 33  1  0
  1 34  1  0
  2 35  1  0
  2 36  1  0
  3 37  1  0
  3 38  1  0
  4 39  1  0
  4 40  1  0
  5 41  1  0
  5 42  1  0
  6 43  1  0
  6 44  1  0
  7 45  1  0
  7 46  1  0
  8 47  1  0
  8 48  1  0
  9 49  1  0
  9 50  1  0
 10 51  1  0
 10 52  1  0
 12 53  1  0
 12 54  1  0
 12 55  1  0
 13 56  1  0
 13 57  1  0
 13 58  1  0
 14 59  1  0
 14 60  1  0
 15 61  1  0
 15 62  1  0
 16 63  1  0
 19 64  1  0
 20 65  1  0
 21 66  1  0
 22 67  1  0
 26 68  1  0
 27 69  1  0
 30 70  1  0
M  CHG  1  11   1
M  END
$$$$
