
     RDKit          3D

 67 72  0  0  0  0  0  0  0  0999 V2000
   -2.4888    5.4567    2.9342 C   0  0  0  0  0  0  0  0  0  0  0  0
   -2.2608    4.9284    1.6337 O   0  0  0  0  0  0  0  0  0  0  0  0
   -1.8154    3.6379    1.5618 C   0  0  0  0  0  0  0  0  0  0  0  0
   -1.5566    3.1771    0.2716 C   0  0  0  0  0  0  0  0  0  0  0  0
   -1.0933    1.8757    0.0539 C   0  0  0  0  0  0  0  0  0  0  0  0
   -0.8762    1.0016    1.1246 C   0  0  0  0  0  0  0  0  0  0  0  0
   -0.3848   -0.4212    0.9448 C   0  0  0  0  0  0  0  0  0  0  0  0
   -1.4026   -1.4567    0.4296 C   0  0  0  0  0  0  0  0  0  0  0  0
   -2.2477   -1.0304   -0.7867 C   0  0  0  0  0  0  0  0  0  0  0  0
   -1.7176   -0.6658   -1.8424 O   0  0  0  0  0  0  0  0  0  0  0  0
   -3.7856   -1.1303   -0.6696 C   0  0  0  0  0  0  0  0  0  0  0  0
   -4.4310   -0.6758   -1.9921 C   0  0  0  0  0  0  0  0  0  0  0  0
   -4.1891   -2.5882   -0.4102 C   0  0  0  0  0  0  0  0  0  0  0  0
   -4.2995   -0.2219    0.4538 C   0  0  0  0  0  0  0  0  0  0  0  0
   -0.5464   -2.5850    0.0419 N   0  0  0  0  0  0  0  0  0  0  0  0
   -0.5414   -3.6412    0.9276 N   0  0  0  0  0  0  0  0  0  0  0  0
    0.4998   -4.4184    0.9496 C   0  0  0  0  0  0  0  0  0  0  0  0
    1.7106   -4.2239    0.1487 C   0  0  0  0  0  0  0  0  0  0  0  0
    2.7341   -5.1717    0.1633 C   0  0  0  0  0  0  0  0  0  0  0  0
    3.8733   -4.9554   -0.6117 C   0  0  0  0  0  0  0  0  0  0  0  0
    3.9793   -3.8030   -1.3925 C   0  0  0  0  0  0  0  0  0  0  0  0
    2.9530   -2.8561   -1.3927 C   0  0  0  0  0  0  0  0  0  0  0  0
    1.8112   -3.0584   -0.6075 C   0  0  0  0  0  0  0  0  0  0  0  0
    0.6910   -2.0620   -0.5586 C   0  0  0  0  0  0  0  0  0  0  0  0
    0.9340   -0.7143    0.1632 C   0  0  0  0  0  0  0  0  0  0  0  0
    1.3162    0.3425   -0.8126 N   0  0  0  0  0  0  0  0  0  0  0  0
    2.4498    0.7770   -0.3667 C   0  0  0  0  0  0  0  0  0  0  0  0
    3.2559    1.8548   -0.9629 C   0  0  0  0  0  0  0  0  0  0  0  0
    2.7793    2.4932   -2.1146 C   0  0  0  0  0  0  0  0  0  0  0  0
    3.5185    3.5201   -2.7039 C   0  0  0  0  0  0  0  0  0  0  0  0
    4.7346    3.9125   -2.1459 C   0  0  0  0  0  0  0  0  0  0  0  0
    5.2138    3.2802   -0.9987 C   0  0  0  0  0  0  0  0  0  0  0  0
    4.4773    2.2524   -0.4051 C   0  0  0  0  0  0  0  0  0  0  0  0
    2.9772    0.2120    0.7309 O   0  0  0  0  0  0  0  0  0  0  0  0
    2.0990   -0.7430    1.1352 C   0  0  0  0  0  0  0  0  0  0  0  0
    2.2554   -1.4428    2.1218 O   0  0  0  0  0  0  0  0  0  0  0  0
   -1.1479    1.4746    2.4197 C   0  0  0  0  0  0  0  0  0  0  0  0
   -1.6106    2.7784    2.6377 C   0  0  0  0  0  0  0  0  0  0  0  0
   -3.2879    4.9113    3.4469 H   0  0  0  0  0  0  0  0  0  0  0  0
   -2.8146    6.4953    2.8207 H   0  0  0  0  0  0  0  0  0  0  0  0
   -1.5680    5.4594    3.5272 H   0  0  0  0  0  0  0  0  0  0  0  0
   -1.7146    3.8367   -0.5785 H   0  0  0  0  0  0  0  0  0  0  0  0
   -0.9050    1.5657   -0.9729 H   0  0  0  0  0  0  0  0  0  0  0  0
   -0.1809   -0.7694    1.9709 H   0  0  0  0  0  0  0  0  0  0  0  0
   -2.0674   -1.7688    1.2407 H   0  0  0  0  0  0  0  0  0  0  0  0
   -4.1049   -1.3027   -2.8299 H   0  0  0  0  0  0  0  0  0  0  0  0
   -4.1598    0.3586   -2.2320 H   0  0  0  0  0  0  0  0  0  0  0  0
   -5.5244   -0.7308   -1.9419 H   0  0  0  0  0  0  0  0  0  0  0  0
   -5.2775   -2.7100   -0.4449 H   0  0  0  0  0  0  0  0  0  0  0  0
   -3.8560   -2.9380    0.5722 H   0  0  0  0  0  0  0  0  0  0  0  0
   -3.7510   -3.2569   -1.1596 H   0  0  0  0  0  0  0  0  0  0  0  0
   -4.0138    0.8204    0.2790 H   0  0  0  0  0  0  0  0  0  0  0  0
   -5.3929   -0.2598    0.5224 H   0  0  0  0  0  0  0  0  0  0  0  0
   -3.9029   -0.5087    1.4321 H   0  0  0  0  0  0  0  0  0  0  0  0
    0.4763   -5.2866    1.6294 H   0  0  0  0  0  0  0  0  0  0  0  0
    2.6538   -6.0717    0.7658 H   0  0  0  0  0  0  0  0  0  0  0  0
    4.6777   -5.6870   -0.6124 H   0  0  0  0  0  0  0  0  0  0  0  0
    4.8650   -3.6427   -2.0031 H   0  0  0  0  0  0  0  0  0  0  0  0
    3.0450   -1.9674   -2.0138 H   0  0  0  0  0  0  0  0  0  0  0  0
    0.4232   -1.8653   -1.6057 H   0  0  0  0  0  0  0  0  0  0  0  0
    1.8298    2.1973   -2.5573 H   0  0  0  0  0  0  0  0  0  0  0  0
    3.1442    4.0147   -3.5969 H   0  0  0  0  0  0  0  0  0  0  0  0
    5.3086    4.7138   -2.6046 H   0  0  0  0  0  0  0  0  0  0  0  0
    6.1614    3.5899   -0.5644 H   0  0  0  0  0  0  0  0  0  0  0  0
    4.8685    1.7765    0.4910 H   0  0  0  0  0  0  0  0  0  0  0  0
   -0.9992    0.8308    3.2860 H   0  0  0  0  0  0  0  0  0  0  0  0
   -1.7998    3.0862    3.6606 H   0  0  0  0  0  0  0  0  0  0  0  0
  1  2  1  0
  2  3  1  0
  3  4  2  0
  4  5  1  0
  5  6  2  0
  6  7  1  0
  7  8  1  0
  8  9  1  0
  9 10  2  0
  9 11  1  0
 11 12  1  0
 11 13  1  0
 11 14  1  0
  8 15  1  0
 15 16  1  0
 16 17  2  0
 17 18  1  0
 18 19  2  0
 19 20  1  0
 20 21  2  0
 21 22  1  0
 22 23  2  0
 23 24  1  0
 24 25  1  0
 25 26  1  0
 26 27  2  0
 27 28  1  0
 28 29  2  0
 29 30  1  0
 30 31  2  0
 31 32  1  0
 32 33  2  0
 27 34  1  0
 34 35  1  0
 35 36  2  0
  6 37  1  0
 37 38  2  0
 38  3  1  0
 25  7  1  0
 33 28  1  0
 24 15  1  0
 35 25  1  0
 23 18  1  0
  1 39  1  0
  1 40  1  0
  1 41  1  0
  4 42  1  0
  5 43  1  0
  7 44  1  0
  8 45  1  0
 12 46  1  0
 12 47  1  0
 12 48  1  0
 13 49  1  0
 13 50  1  0
 13 51  1  0
 14 52  1  0
 14 53  1  0
 14 54  1  0
 17 55  1  0
 19 56  1  0
 20 57  1  0
 21 58  1  0
 22 59  1  0
 24 60  1  0
 29 61  1  0
 30 62  1  0
 31 63  1  0
 32 64  1  0
 33 65  1  0
 37 66  1  0
 38 67  1  0
M  END
$$$$
