
     RDKit          3D

 30 30  0  0  0  0  0  0  0  0999 V2000
    3.6456    0.2823    3.1222 C   0  0  0  0  0  0  0  0  0  0  0  0
    2.6447    0.8294    2.2075 N   0  0  0  0  0  0  0  0  0  0  0  0
    1.2799    0.8210    2.7375 C   0  0  0  0  0  0  0  0  0  0  0  0
    2.9978    1.3767    0.9667 C   0  0  0  0  0  0  0  0  0  0  0  0
    4.5575    1.7829    0.4867 S   0  0  0  0  0  0  0  0  0  0  0  0
    1.6621    1.6200   -0.1642 S   0  0  0  0  0  0  0  0  0  0  0  0
    1.8835    0.1082   -1.1571 C   0  0  0  0  0  0  0  0  0  0  0  0
    0.6180   -0.2609   -1.9210 C   0  0  0  0  0  0  0  0  0  0  0  0
    0.6881   -0.7144   -3.0605 O   0  0  0  0  0  0  0  0  0  0  0  0
   -0.5395   -0.1260   -1.1753 N   0  0  0  0  0  0  0  0  0  0  0  0
   -1.8687   -0.4388   -1.5365 C   0  0  0  0  0  0  0  0  0  0  0  0
   -2.2164   -1.0048   -2.7657 C   0  0  0  0  0  0  0  0  0  0  0  0
   -3.5550   -1.2903   -3.0626 C   0  0  0  0  0  0  0  0  0  0  0  0
   -4.5519   -1.0143   -2.1300 C   0  0  0  0  0  0  0  0  0  0  0  0
   -6.1931   -1.3662   -2.5039 Cl  0  0  0  0  0  0  0  0  0  0  0  0
   -4.2289   -0.4544   -0.8990 C   0  0  0  0  0  0  0  0  0  0  0  0
   -2.8934   -0.1709   -0.6058 C   0  0  0  0  0  0  0  0  0  0  0  0
   -2.5257    0.5057    0.9485 Cl  0  0  0  0  0  0  0  0  0  0  0  0
    3.2305   -0.5985    3.6260 H   0  0  0  0  0  0  0  0  0  0  0  0
    4.5578   -0.0270    2.6049 H   0  0  0  0  0  0  0  0  0  0  0  0
    3.8868    1.0462    3.8672 H   0  0  0  0  0  0  0  0  0  0  0  0
    0.6565    1.6048    2.3000 H   0  0  0  0  0  0  0  0  0  0  0  0
    0.8391   -0.1617    2.5397 H   0  0  0  0  0  0  0  0  0  0  0  0
    1.3095    0.9944    3.8195 H   0  0  0  0  0  0  0  0  0  0  0  0
    2.1454   -0.7417   -0.5180 H   0  0  0  0  0  0  0  0  0  0  0  0
    2.6897    0.2754   -1.8771 H   0  0  0  0  0  0  0  0  0  0  0  0
   -0.4325    0.3318   -0.2732 H   0  0  0  0  0  0  0  0  0  0  0  0
   -1.4717   -1.2365   -3.5205 H   0  0  0  0  0  0  0  0  0  0  0  0
   -3.8066   -1.7267   -4.0271 H   0  0  0  0  0  0  0  0  0  0  0  0
   -5.0091   -0.2460   -0.1721 H   0  0  0  0  0  0  0  0  0  0  0  0
  1  2  1  0
  2  3  1  0
  2  4  1  0
  4  5  2  0
  4  6  1  0
  6  7  1  0
  7  8  1  0
  8  9  2  0
  8 10  1  0
 10 11  1  0
 11 12  2  0
 12 13  1  0
 13 14  2  0
 14 15  1  0
 14 16  1  0
 16 17  2  0
 17 18  1  0
 17 11  1  0
  1 19  1  0
  1 20  1  0
  1 21  1  0
  3 22  1  0
  3 23  1  0
  3 24  1  0
  7 25  1  0
  7 26  1  0
 10 27  1  0
 12 28  1  0
 13 29  1  0
 16 30  1  0
M  END
$$$$
