
     RDKit          3D

 46 49  0  0  0  0  0  0  0  0999 V2000
    6.1672   -1.7562   -0.2719 C   0  0  0  0  0  0  0  0  0  0  0  0
    5.9618   -0.3961    0.3682 C   0  0  0  0  0  0  0  0  0  0  0  0
    4.5861   -0.2251    0.7366 O   0  0  0  0  0  0  0  0  0  0  0  0
    3.7643    0.2624   -0.2319 C   0  0  0  0  0  0  0  0  0  0  0  0
    4.1341    0.5394   -1.3669 O   0  0  0  0  0  0  0  0  0  0  0  0
    2.4604    0.4084    0.2071 N   0  0  0  0  0  0  0  0  0  0  0  0
    1.4765    1.0073   -0.6860 C   0  0  0  0  0  0  0  0  0  0  0  0
    0.3436    1.6741    0.0856 C   0  0  0  0  0  0  0  0  0  0  0  0
   -0.3867    0.6823    1.0290 C   0  0  0  0  0  0  0  0  0  0  0  0
    0.5676   -0.4371    1.5225 C   0  0  0  0  0  0  0  0  0  0  0  0
    2.0185    0.0276    1.5474 C   0  0  0  0  0  0  0  0  0  0  0  0
   -0.8620    1.4357    2.2324 N   0  0  0  0  0  0  0  0  0  0  0  0
   -2.0195    2.3158    1.9431 C   0  0  0  0  0  0  0  0  0  0  0  0
   -3.2820    1.5343    1.5171 C   0  0  0  0  0  0  0  0  0  0  0  0
   -2.9171    0.4779    0.5338 C   0  0  0  0  0  0  0  0  0  0  0  0
   -1.6018    0.0949    0.3413 C   0  0  0  0  0  0  0  0  0  0  0  0
   -1.5945   -0.8695   -0.6337 N   0  0  0  0  0  0  0  0  0  0  0  0
   -2.8815   -1.1353   -1.0497 C   0  0  0  0  0  0  0  0  0  0  0  0
   -3.3477   -2.0447   -2.0067 C   0  0  0  0  0  0  0  0  0  0  0  0
   -4.7268   -2.0997   -2.2306 C   0  0  0  0  0  0  0  0  0  0  0  0
   -5.6022   -1.2766   -1.5257 C   0  0  0  0  0  0  0  0  0  0  0  0
   -5.1202   -0.3716   -0.5730 C   0  0  0  0  0  0  0  0  0  0  0  0
   -3.7352   -0.2985   -0.3287 C   0  0  0  0  0  0  0  0  0  0  0  0
    5.8226   -2.5517    0.3970 H   0  0  0  0  0  0  0  0  0  0  0  0
    5.5901   -1.8466   -1.1975 H   0  0  0  0  0  0  0  0  0  0  0  0
    7.2237   -1.9211   -0.5017 H   0  0  0  0  0  0  0  0  0  0  0  0
    6.3049    0.4131   -0.2867 H   0  0  0  0  0  0  0  0  0  0  0  0
    6.5492   -0.3322    1.2901 H   0  0  0  0  0  0  0  0  0  0  0  0
    1.0955    0.2109   -1.3349 H   0  0  0  0  0  0  0  0  0  0  0  0
    1.9681    1.7431   -1.3326 H   0  0  0  0  0  0  0  0  0  0  0  0
   -0.3522    2.1456   -0.6201 H   0  0  0  0  0  0  0  0  0  0  0  0
    0.7864    2.4920    0.6723 H   0  0  0  0  0  0  0  0  0  0  0  0
    0.2780   -0.7996    2.5175 H   0  0  0  0  0  0  0  0  0  0  0  0
    0.5115   -1.3193    0.8716 H   0  0  0  0  0  0  0  0  0  0  0  0
    2.1469    0.8976    2.2015 H   0  0  0  0  0  0  0  0  0  0  0  0
    2.6504   -0.7757    1.9397 H   0  0  0  0  0  0  0  0  0  0  0  0
   -1.1804    0.7487    2.9173 H   0  0  0  0  0  0  0  0  0  0  0  0
   -2.2495    2.8950    2.8446 H   0  0  0  0  0  0  0  0  0  0  0  0
   -1.7489    3.0483    1.1731 H   0  0  0  0  0  0  0  0  0  0  0  0
   -3.7346    1.0595    2.3960 H   0  0  0  0  0  0  0  0  0  0  0  0
   -4.0177    2.2251    1.0913 H   0  0  0  0  0  0  0  0  0  0  0  0
   -0.7758   -1.3315   -1.0041 H   0  0  0  0  0  0  0  0  0  0  0  0
   -2.6694   -2.6865   -2.5590 H   0  0  0  0  0  0  0  0  0  0  0  0
   -5.1209   -2.7957   -2.9675 H   0  0  0  0  0  0  0  0  0  0  0  0
   -6.6709   -1.3356   -1.7165 H   0  0  0  0  0  0  0  0  0  0  0  0
   -5.8100    0.2666   -0.0295 H   0  0  0  0  0  0  0  0  0  0  0  0
  1  2  1  0
  2  3  1  0
  3  4  1  0
  4  5  2  0
  4  6  1  0
  6  7  1  0
  7  8  1  0
  8  9  1  0
  9 10  1  0
 10 11  1  0
  9 12  1  0
 12 13  1  0
 13 14  1  0
 14 15  1  0
 15 16  2  0
 16 17  1  0
 17 18  1  0
 18 19  2  0
 19 20  1  0
 20 21  2  0
 21 22  1  0
 22 23  2  0
 11  6  1  0
 23 15  1  0
 16  9  1  0
 23 18  1  0
  1 24  1  0
  1 25  1  0
  1 26  1  0
  2 27  1  0
  2 28  1  0
  7 29  1  0
  7 30  1  0
  8 31  1  0
  8 32  1  0
 10 33  1  0
 10 34  1  0
 11 35  1  0
 11 36  1  0
 12 37  1  0
 13 38  1  0
 13 39  1  0
 14 40  1  0
 14 41  1  0
 17 42  1  0
 19 43  1  0
 20 44  1  0
 21 45  1  0
 22 46  1  0
M  END
$$$$
