
     RDKit          3D

 40 41  0  0  0  0  0  0  0  0999 V2000
    1.3652    3.6511    1.7053 C   0  0  0  0  0  0  0  0  0  0  0  0
    0.3621    2.8315    0.9100 C   0  0  0  0  0  0  0  0  0  0  0  0
    0.7360    1.3465    0.7858 C   0  0  0  0  0  0  0  0  0  0  0  0
    1.9924    1.1294   -0.0764 C   0  0  0  0  0  0  0  0  0  0  0  0
    2.4252   -0.3209   -0.0978 C   0  0  0  0  0  0  0  0  0  0  0  0
    2.0031   -1.1733   -1.1274 C   0  0  0  0  0  0  0  0  0  0  0  0
    2.3831   -2.5159   -1.1346 C   0  0  0  0  0  0  0  0  0  0  0  0
    3.1856   -3.0194   -0.1127 C   0  0  0  0  0  0  0  0  0  0  0  0
    3.6072   -2.1815    0.9182 C   0  0  0  0  0  0  0  0  0  0  0  0
    3.2278   -0.8384    0.9278 C   0  0  0  0  0  0  0  0  0  0  0  0
   -0.3583    0.6723    0.1222 O   0  0  0  0  0  0  0  0  0  0  0  0
   -1.3305    0.1770    0.9240 C   0  0  0  0  0  0  0  0  0  0  0  0
   -1.4027    0.2672    2.1377 O   0  0  0  0  0  0  0  0  0  0  0  0
   -2.2523   -0.6342    0.1060 C   0  0  0  0  0  0  0  0  0  0  0  0
   -2.5647   -1.9164    0.5824 C   0  0  0  0  0  0  0  0  0  0  0  0
   -3.3662   -2.7717   -0.1760 C   0  0  0  0  0  0  0  0  0  0  0  0
   -3.8576   -2.3541   -1.4122 C   0  0  0  0  0  0  0  0  0  0  0  0
   -3.5647   -1.0732   -1.8843 C   0  0  0  0  0  0  0  0  0  0  0  0
   -2.7766   -0.2020   -1.1176 C   0  0  0  0  0  0  0  0  0  0  0  0
   -2.5673    1.1554   -1.6501 C   0  0  0  0  0  0  0  0  0  0  0  0
   -2.3631    1.4410   -2.8143 O   0  0  0  0  0  0  0  0  0  0  0  0
   -2.7435    2.0914   -0.7032 O   0  0  0  0  0  0  0  0  0  0  0  0
    1.5339    3.2131    2.6941 H   0  0  0  0  0  0  0  0  0  0  0  0
    0.9885    4.6693    1.8466 H   0  0  0  0  0  0  0  0  0  0  0  0
    2.3265    3.7253    1.1896 H   0  0  0  0  0  0  0  0  0  0  0  0
    0.2340    3.2684   -0.0883 H   0  0  0  0  0  0  0  0  0  0  0  0
   -0.6189    2.9168    1.3937 H   0  0  0  0  0  0  0  0  0  0  0  0
    0.8999    0.9159    1.7824 H   0  0  0  0  0  0  0  0  0  0  0  0
    2.8326    1.7282    0.2923 H   0  0  0  0  0  0  0  0  0  0  0  0
    1.8042    1.4584   -1.1067 H   0  0  0  0  0  0  0  0  0  0  0  0
    1.3695   -0.7956   -1.9273 H   0  0  0  0  0  0  0  0  0  0  0  0
    2.0510   -3.1689   -1.9373 H   0  0  0  0  0  0  0  0  0  0  0  0
    3.4813   -4.0651   -0.1187 H   0  0  0  0  0  0  0  0  0  0  0  0
    4.2305   -2.5748    1.7169 H   0  0  0  0  0  0  0  0  0  0  0  0
    3.5608   -0.1991    1.7423 H   0  0  0  0  0  0  0  0  0  0  0  0
   -2.1683   -2.2554    1.5382 H   0  0  0  0  0  0  0  0  0  0  0  0
   -3.5989   -3.7676    0.1946 H   0  0  0  0  0  0  0  0  0  0  0  0
   -4.4756   -3.0240   -2.0062 H   0  0  0  0  0  0  0  0  0  0  0  0
   -3.9632   -0.7495   -2.8443 H   0  0  0  0  0  0  0  0  0  0  0  0
   -2.6281    2.9429   -1.1746 H   0  0  0  0  0  0  0  0  0  0  0  0
  1  2  1  0
  2  3  1  0
  3  4  1  0
  4  5  1  0
  5  6  2  0
  6  7  1  0
  7  8  2  0
  8  9  1  0
  9 10  2  0
  3 11  1  0
 11 12  1  0
 12 13  2  0
 12 14  1  0
 14 15  2  0
 15 16  1  0
 16 17  2  0
 17 18  1  0
 18 19  2  0
 19 20  1  0
 20 21  2  0
 20 22  1  0
 10  5  1  0
 19 14  1  0
  1 23  1  0
  1 24  1  0
  1 25  1  0
  2 26  1  0
  2 27  1  0
  3 28  1  0
  4 29  1  0
  4 30  1  0
  6 31  1  0
  7 32  1  0
  8 33  1  0
  9 34  1  0
 10 35  1  0
 15 36  1  0
 16 37  1  0
 17 38  1  0
 18 39  1  0
 22 40  1  0
M  END
$$$$
