
     RDKit          3D

 35 36  0  0  0  0  0  0  0  0999 V2000
   -5.9398   -0.1316   -0.3874 C   0  0  0  0  0  0  0  0  0  0  0  0
   -4.4483   -0.1829   -0.2396 C   0  0  0  0  0  0  0  0  0  0  0  0
   -3.8506   -1.1324    0.5926 C   0  0  0  0  0  0  0  0  0  0  0  0
   -2.4618   -1.1605    0.7517 C   0  0  0  0  0  0  0  0  0  0  0  0
   -1.6430   -0.2214    0.1016 C   0  0  0  0  0  0  0  0  0  0  0  0
   -0.2268   -0.2930    0.2925 N   0  0  0  0  0  0  0  0  0  0  0  0
    0.2994   -1.4315    0.8036 N   0  0  0  0  0  0  0  0  0  0  0  0
    1.6244   -1.3122    0.6806 C   0  0  0  0  0  0  0  0  0  0  0  0
    2.4585   -2.4684    1.0934 C   0  0  0  0  0  0  0  0  0  0  0  0
    1.9822   -0.0312    0.1920 C   0  0  0  0  0  0  0  0  0  0  0  0
    3.1945    0.5846   -0.0819 N   0  0  0  0  0  0  0  0  0  0  0  0
    4.4585    0.0374   -0.0421 C   0  0  0  0  0  0  0  0  0  0  0  0
    4.7353   -1.1208    0.2583 O   0  0  0  0  0  0  0  0  0  0  0  0
    5.5854    1.0115   -0.3574 C   0  0  0  0  0  0  0  0  0  0  0  0
    5.0239    2.4672   -1.2156 Cl  0  0  0  0  0  0  0  0  0  0  0  0
    0.7753    0.6402    0.0403 C   0  0  0  0  0  0  0  0  0  0  0  0
    0.5364    2.0761   -0.2704 C   0  0  0  0  0  0  0  0  0  0  0  0
   -2.2441    0.7215   -0.7387 C   0  0  0  0  0  0  0  0  0  0  0  0
   -3.6359    0.7459   -0.8972 C   0  0  0  0  0  0  0  0  0  0  0  0
   -6.3688    0.5259    0.3750 H   0  0  0  0  0  0  0  0  0  0  0  0
   -6.3779   -1.1297   -0.2814 H   0  0  0  0  0  0  0  0  0  0  0  0
   -6.2217    0.2426   -1.3772 H   0  0  0  0  0  0  0  0  0  0  0  0
   -4.4582   -1.8625    1.1228 H   0  0  0  0  0  0  0  0  0  0  0  0
   -2.0311   -1.9191    1.4040 H   0  0  0  0  0  0  0  0  0  0  0  0
    2.9935   -2.8858    0.2354 H   0  0  0  0  0  0  0  0  0  0  0  0
    1.8433   -3.2744    1.5100 H   0  0  0  0  0  0  0  0  0  0  0  0
    3.1699   -2.1772    1.8717 H   0  0  0  0  0  0  0  0  0  0  0  0
    3.1422    1.5379   -0.4252 H   0  0  0  0  0  0  0  0  0  0  0  0
    6.0576    1.3255    0.5771 H   0  0  0  0  0  0  0  0  0  0  0  0
    6.3191    0.5147   -0.9977 H   0  0  0  0  0  0  0  0  0  0  0  0
   -0.3426    2.4660    0.2512 H   0  0  0  0  0  0  0  0  0  0  0  0
    1.3773    2.6941    0.0618 H   0  0  0  0  0  0  0  0  0  0  0  0
    0.4250    2.2259   -1.3484 H   0  0  0  0  0  0  0  0  0  0  0  0
   -1.6699    1.4269   -1.3257 H   0  0  0  0  0  0  0  0  0  0  0  0
   -4.0811    1.4908   -1.5540 H   0  0  0  0  0  0  0  0  0  0  0  0
  1  2  1  0
  2  3  2  0
  3  4  1  0
  4  5  2  0
  5  6  1  0
  6  7  1  0
  7  8  2  0
  8  9  1  0
  8 10  1  0
 10 11  1  0
 11 12  1  0
 12 13  2  0
 12 14  1  0
 14 15  1  0
 10 16  2  0
 16 17  1  0
  5 18  1  0
 18 19  2  0
 19  2  1  0
 16  6  1  0
  1 20  1  0
  1 21  1  0
  1 22  1  0
  3 23  1  0
  4 24  1  0
  9 25  1  0
  9 26  1  0
  9 27  1  0
 11 28  1  0
 14 29  1  0
 14 30  1  0
 17 31  1  0
 17 32  1  0
 17 33  1  0
 18 34  1  0
 19 35  1  0
M  END
$$$$
