
     RDKit          3D

 30 31  0  0  0  0  0  0  0  0999 V2000
    1.6914    0.1466    1.5715 C   0  0  0  0  0  0  0  0  0  0  0  0
    2.0193   -0.0596    0.1030 C   0  0  0  0  0  0  0  0  0  0  0  0
    1.2381    0.2817   -0.8847 N   0  0  0  0  0  0  0  0  0  0  0  0
   -0.0354    0.7174   -0.6230 N   0  0  0  0  0  0  0  0  0  0  0  0
   -0.9844   -0.1390   -0.0698 C   0  0  0  0  0  0  0  0  0  0  0  0
   -0.7155   -1.1833    0.5210 O   0  0  0  0  0  0  0  0  0  0  0  0
   -2.4180    0.2744   -0.2059 C   0  0  0  0  0  0  0  0  0  0  0  0
   -3.3640   -0.4484    0.5407 C   0  0  0  0  0  0  0  0  0  0  0  0
   -4.7168   -0.1226    0.4680 C   0  0  0  0  0  0  0  0  0  0  0  0
   -5.8632   -1.0118    1.3922 Cl  0  0  0  0  0  0  0  0  0  0  0  0
   -5.1500    0.9203   -0.3472 C   0  0  0  0  0  0  0  0  0  0  0  0
   -4.2244    1.6438   -1.0999 C   0  0  0  0  0  0  0  0  0  0  0  0
   -2.8658    1.3203   -1.0303 C   0  0  0  0  0  0  0  0  0  0  0  0
   -1.9804    2.0367   -1.7918 O   0  0  0  0  0  0  0  0  0  0  0  0
    3.3207   -0.6585   -0.1989 C   0  0  0  0  0  0  0  0  0  0  0  0
    4.2252   -1.2581    0.6651 C   0  0  0  0  0  0  0  0  0  0  0  0
    5.3981   -1.7294    0.0006 C   0  0  0  0  0  0  0  0  0  0  0  0
    5.3397   -1.4720   -1.3436 C   0  0  0  0  0  0  0  0  0  0  0  0
    6.7241   -1.9537   -2.5698 Br  0  0  0  0  0  0  0  0  0  0  0  0
    3.9187   -0.6863   -1.8139 S   0  0  0  0  0  0  0  0  0  0  0  0
    1.4346   -0.8134    2.0283 H   0  0  0  0  0  0  0  0  0  0  0  0
    2.5606    0.5608    2.0923 H   0  0  0  0  0  0  0  0  0  0  0  0
    0.8694    0.8503    1.7177 H   0  0  0  0  0  0  0  0  0  0  0  0
   -0.4041    1.3434   -1.3409 H   0  0  0  0  0  0  0  0  0  0  0  0
   -3.0423   -1.2677    1.1814 H   0  0  0  0  0  0  0  0  0  0  0  0
   -6.2066    1.1716   -0.4018 H   0  0  0  0  0  0  0  0  0  0  0  0
   -4.5819    2.4512   -1.7332 H   0  0  0  0  0  0  0  0  0  0  0  0
   -2.4700    2.6819   -2.3341 H   0  0  0  0  0  0  0  0  0  0  0  0
    4.0583   -1.3678    1.7300 H   0  0  0  0  0  0  0  0  0  0  0  0
    6.2246   -2.2289    0.4907 H   0  0  0  0  0  0  0  0  0  0  0  0
  1  2  1  0
  2  3  2  3
  3  4  1  0
  4  5  1  0
  5  6  2  0
  5  7  1  0
  7  8  2  0
  8  9  1  0
  9 10  1  0
  9 11  2  0
 11 12  1  0
 12 13  2  0
 13 14  1  0
  2 15  1  0
 15 16  2  0
 16 17  1  0
 17 18  2  0
 18 19  1  0
 18 20  1  0
 13  7  1  0
 20 15  1  0
  1 21  1  0
  1 22  1  0
  1 23  1  0
  4 24  1  0
  8 25  1  0
 11 26  1  0
 12 27  1  0
 14 28  1  0
 16 29  1  0
 17 30  1  0
M  END
$$$$
