
     RDKit          3D

 45 49  0  0  0  0  0  0  0  0999 V2000
   -1.2869    2.6271   -0.4833 O   0  0  0  0  0  0  0  0  0  0  0  0
   -1.2820    1.4231   -0.2253 C   0  0  0  0  0  0  0  0  0  0  0  0
    0.0664    0.7883   -0.1117 C   0  0  0  0  0  0  0  0  0  0  0  0
    1.2806    1.5203   -0.0190 C   0  0  0  0  0  0  0  0  0  0  0  0
    2.2904    0.5941    0.0405 C   0  0  0  0  0  0  0  0  0  0  0  0
    3.6434    0.7389    0.1387 N   0  0  0  0  0  0  0  0  0  0  0  0
    4.3700   -0.3471    0.1938 C   0  0  0  0  0  0  0  0  0  0  0  0
    5.8195   -0.1708    0.2796 C   0  0  0  0  0  0  0  0  0  0  0  0
    6.5096    1.0330    0.3024 C   0  0  0  0  0  0  0  0  0  0  0  0
    7.9223    0.8675    0.3732 C   0  0  0  0  0  0  0  0  0  0  0  0
    8.2781   -0.4617    0.4080 C   0  0  0  0  0  0  0  0  0  0  0  0
    6.9158   -1.4888    0.3585 S   0  0  0  0  0  0  0  0  0  0  0  0
    3.7680   -1.7275    0.1660 C   0  0  0  0  0  0  0  0  0  0  0  0
    2.4281   -1.8133    0.0517 C   0  0  0  0  0  0  0  0  0  0  0  0
    1.6842   -3.0917    0.0002 C   0  0  0  0  0  0  0  0  0  0  0  0
    0.7929   -3.2225    1.0135 F   0  0  0  0  0  0  0  0  0  0  0  0
    2.5223   -4.1623    0.1025 F   0  0  0  0  0  0  0  0  0  0  0  0
    1.0102   -3.2581   -1.1642 F   0  0  0  0  0  0  0  0  0  0  0  0
    1.6705   -0.6515   -0.0194 N   0  0  0  0  0  0  0  0  0  0  0  0
    0.3292   -0.5295   -0.1418 N   0  0  0  0  0  0  0  0  0  0  0  0
   -2.4693    0.6496   -0.0453 N   0  0  0  0  0  0  0  0  0  0  0  0
   -2.3821   -0.7792    0.2862 C   0  0  0  0  0  0  0  0  0  0  0  0
   -3.6762   -1.4301    0.7466 C   0  0  0  0  0  0  0  0  0  0  0  0
   -4.7486   -1.1720   -0.2858 C   0  0  0  0  0  0  0  0  0  0  0  0
   -4.9002    0.3150   -0.4521 C   0  0  0  0  0  0  0  0  0  0  0  0
   -6.1775    0.8109   -0.7791 C   0  0  0  0  0  0  0  0  0  0  0  0
   -6.3908    2.1776   -0.9281 C   0  0  0  0  0  0  0  0  0  0  0  0
   -5.3306    3.0556   -0.7476 C   0  0  0  0  0  0  0  0  0  0  0  0
   -4.0534    2.5656   -0.4434 C   0  0  0  0  0  0  0  0  0  0  0  0
   -3.7940    1.1882   -0.3144 C   0  0  0  0  0  0  0  0  0  0  0  0
    1.3934    2.5945   -0.0000 H   0  0  0  0  0  0  0  0  0  0  0  0
    6.0129    1.9965    0.2653 H   0  0  0  0  0  0  0  0  0  0  0  0
    8.6381    1.6818    0.3973 H   0  0  0  0  0  0  0  0  0  0  0  0
    9.2746   -0.8788    0.4616 H   0  0  0  0  0  0  0  0  0  0  0  0
    4.3976   -2.6051    0.2308 H   0  0  0  0  0  0  0  0  0  0  0  0
   -2.0132   -1.2981   -0.6065 H   0  0  0  0  0  0  0  0  0  0  0  0
   -1.6654   -0.9005    1.1041 H   0  0  0  0  0  0  0  0  0  0  0  0
   -3.5290   -2.5069    0.8802 H   0  0  0  0  0  0  0  0  0  0  0  0
   -3.9743   -1.0196    1.7210 H   0  0  0  0  0  0  0  0  0  0  0  0
   -4.4883   -1.6226   -1.2521 H   0  0  0  0  0  0  0  0  0  0  0  0
   -5.6883   -1.6241    0.0558 H   0  0  0  0  0  0  0  0  0  0  0  0
   -7.0145    0.1263   -0.9107 H   0  0  0  0  0  0  0  0  0  0  0  0
   -7.3795    2.5563   -1.1719 H   0  0  0  0  0  0  0  0  0  0  0  0
   -5.4855    4.1310   -0.8390 H   0  0  0  0  0  0  0  0  0  0  0  0
   -3.2886    3.3206   -0.2873 H   0  0  0  0  0  0  0  0  0  0  0  0
  1  2  2  0
  2  3  1  0
  3  4  1  0
  4  5  2  0
  5  6  1  0
  6  7  2  0
  7  8  1  0
  8  9  2  0
  9 10  1  0
 10 11  2  0
 11 12  1  0
  7 13  1  0
 13 14  2  0
 14 15  1  0
 15 16  1  0
 15 17  1  0
 15 18  1  0
 14 19  1  0
 19 20  1  0
  2 21  1  0
 21 22  1  0
 22 23  1  0
 23 24  1  0
 24 25  1  0
 25 26  2  0
 26 27  1  0
 27 28  2  0
 28 29  1  0
 29 30  2  0
 20  3  2  0
 30 21  1  0
 19  5  1  0
 30 25  1  0
 12  8  1  0
  4 31  1  0
  9 32  1  0
 10 33  1  0
 11 34  1  0
 13 35  1  0
 22 36  1  0
 22 37  1  0
 23 38  1  0
 23 39  1  0
 24 40  1  0
 24 41  1  0
 26 42  1  0
 27 43  1  0
 28 44  1  0
 29 45  1  0
M  END
$$$$
