
     RDKit          3D

 32 34  0  0  0  0  0  0  0  0999 V2000
    4.7898    2.5206    2.3926 O   0  0  0  0  0  0  0  0  0  0  0  0
    4.5049    1.3540    2.6943 N   0  0  0  0  0  4  0  0  0  0  0  0
    5.0408    0.7082    3.6049 O   0  0  0  0  0  1  0  0  0  0  0  0
    3.4491    0.6905    1.9177 C   0  0  0  0  0  0  0  0  0  0  0  0
    3.1012   -0.6379    2.2119 C   0  0  0  0  0  0  0  0  0  0  0  0
    2.0960   -1.2733    1.4744 C   0  0  0  0  0  0  0  0  0  0  0  0
    1.4221   -0.5847    0.4601 C   0  0  0  0  0  0  0  0  0  0  0  0
    0.4739   -1.2862   -0.2401 O   0  0  0  0  0  0  0  0  0  0  0  0
   -0.8444   -0.8848   -0.0805 C   0  0  0  0  0  0  0  0  0  0  0  0
   -1.3939   -0.6823    1.1940 C   0  0  0  0  0  0  0  0  0  0  0  0
   -2.7251   -0.3014    1.3182 C   0  0  0  0  0  0  0  0  0  0  0  0
   -3.5037   -0.1355    0.1754 C   0  0  0  0  0  0  0  0  0  0  0  0
   -2.9578   -0.3587   -1.1010 C   0  0  0  0  0  0  0  0  0  0  0  0
   -3.7305   -0.1965   -2.2590 C   0  0  0  0  0  0  0  0  0  0  0  0
   -3.1641   -0.4174   -3.5076 C   0  0  0  0  0  0  0  0  0  0  0  0
   -1.8388   -0.7993   -3.5571 C   0  0  0  0  0  0  0  0  0  0  0  0
   -1.0660   -0.9722   -2.4638 N   0  0  0  0  0  0  0  0  0  0  0  0
   -1.6093   -0.7506   -1.2464 C   0  0  0  0  0  0  0  0  0  0  0  0
    1.8046    0.7259    0.1638 C   0  0  0  0  0  0  0  0  0  0  0  0
    1.1973    1.4417   -0.9334 N   0  0  0  0  0  4  0  0  0  0  0  0
    0.2376    2.1724   -0.6547 O   0  0  0  0  0  0  0  0  0  0  0  0
    1.7418    1.3351   -2.0388 O   0  0  0  0  0  1  0  0  0  0  0  0
    2.8076    1.3852    0.8855 C   0  0  0  0  0  0  0  0  0  0  0  0
    3.6055   -1.1920    3.0027 H   0  0  0  0  0  0  0  0  0  0  0  0
    1.8359   -2.3080    1.6918 H   0  0  0  0  0  0  0  0  0  0  0  0
   -0.8000   -0.8279    2.0908 H   0  0  0  0  0  0  0  0  0  0  0  0
   -3.1583   -0.1355    2.3014 H   0  0  0  0  0  0  0  0  0  0  0  0
   -4.5431    0.1676    0.2840 H   0  0  0  0  0  0  0  0  0  0  0  0
   -4.7721    0.1077   -2.1942 H   0  0  0  0  0  0  0  0  0  0  0  0
   -3.7402   -0.2915   -4.4170 H   0  0  0  0  0  0  0  0  0  0  0  0
   -1.3421   -0.9816   -4.5059 H   0  0  0  0  0  0  0  0  0  0  0  0
    3.0809    2.4082    0.6329 H   0  0  0  0  0  0  0  0  0  0  0  0
  1  2  2  0
  2  3  1  0
  2  4  1  0
  4  5  2  0
  5  6  1  0
  6  7  2  0
  7  8  1  0
  8  9  1  0
  9 10  2  0
 10 11  1  0
 11 12  2  0
 12 13  1  0
 13 14  2  0
 14 15  1  0
 15 16  2  0
 16 17  1  0
 17 18  2  0
  7 19  1  0
 19 20  1  0
 20 21  2  0
 20 22  1  0
 19 23  2  0
 23  4  1  0
 18  9  1  0
 18 13  1  0
  5 24  1  0
  6 25  1  0
 10 26  1  0
 11 27  1  0
 12 28  1  0
 14 29  1  0
 15 30  1  0
 16 31  1  0
 23 32  1  0
M  CHG  4   2   1   3  -1  20   1  22  -1
M  END
$$$$
