
     RDKit          3D

 70 75  0  0  0  0  0  0  0  0999 V2000
   -0.8320   -6.9206   -0.2415 C   0  0  0  0  0  0  0  0  0  0  0  0
   -0.6048   -5.4678   -0.5352 C   0  0  0  0  0  0  0  0  0  0  0  0
    0.1830   -4.6821    0.3123 C   0  0  0  0  0  0  0  0  0  0  0  0
    0.3656   -3.3214    0.0514 C   0  0  0  0  0  0  0  0  0  0  0  0
   -0.2448   -2.7172   -1.0550 C   0  0  0  0  0  0  0  0  0  0  0  0
   -0.0708   -1.2366   -1.3265 C   0  0  0  0  0  0  0  0  0  0  0  0
   -1.1288   -0.4269   -0.7236 N   0  0  0  0  0  0  0  0  0  0  0  0
   -2.2914   -0.2329   -1.4811 C   0  0  0  0  0  0  0  0  0  0  0  0
   -2.3634   -0.4937   -2.6848 O   0  0  0  0  0  0  0  0  0  0  0  0
   -3.4749    0.4368   -0.7638 C   0  0  0  0  0  0  0  0  0  0  0  0
   -3.3565    1.9648   -0.8998 C   0  0  0  0  0  0  0  0  0  0  0  0
   -4.5911    2.6989   -0.4302 C   0  0  0  0  0  0  0  0  0  0  0  0
   -4.6632    3.2085    0.8734 C   0  0  0  0  0  0  0  0  0  0  0  0
   -5.8134    3.8655    1.3115 C   0  0  0  0  0  0  0  0  0  0  0  0
   -6.8995    4.0204    0.4525 C   0  0  0  0  0  0  0  0  0  0  0  0
   -6.8384    3.5162   -0.8451 C   0  0  0  0  0  0  0  0  0  0  0  0
   -5.6902    2.8563   -1.2850 C   0  0  0  0  0  0  0  0  0  0  0  0
   -3.5593   -0.0094    0.6280 N   0  0  0  0  0  0  0  0  0  0  0  0
   -2.3607    0.0689    1.3320 C   0  0  0  0  0  0  0  0  0  0  0  0
   -2.4918    0.3111    2.6431 N   0  0  0  0  0  0  0  0  0  0  0  0
   -1.3577    0.3438    3.3411 C   0  0  0  0  0  0  0  0  0  0  0  0
   -0.1232    0.2237    2.8425 N   0  0  0  0  0  0  0  0  0  0  0  0
   -0.0025    0.0270    1.5119 C   0  0  0  0  0  0  0  0  0  0  0  0
    1.3026    0.1008    0.9733 N   0  0  0  0  0  0  0  0  0  0  0  0
    1.5340    1.4375    0.3611 C   0  0  0  0  0  0  0  0  0  0  0  0
    2.9194    1.4912   -0.3284 C   0  0  0  0  0  0  0  0  0  0  0  0
    4.0057    1.1046    0.6109 N   0  0  0  0  0  0  0  0  0  0  0  0
    5.2933    1.3328    0.0918 C   0  0  0  0  0  0  0  0  0  0  0  0
    6.2417    0.3186   -0.1091 C   0  0  0  0  0  0  0  0  0  0  0  0
    7.5106    0.5966   -0.6330 C   0  0  0  0  0  0  0  0  0  0  0  0
    7.8641    1.9018   -0.9577 C   0  0  0  0  0  0  0  0  0  0  0  0
    6.9515    2.9297   -0.7506 C   0  0  0  0  0  0  0  0  0  0  0  0
    5.6855    2.6446   -0.2286 C   0  0  0  0  0  0  0  0  0  0  0  0
    3.7481   -0.2016    1.2663 C   0  0  0  0  0  0  0  0  0  0  0  0
    2.3685   -0.2027    1.9630 C   0  0  0  0  0  0  0  0  0  0  0  0
   -1.1316   -0.1271    0.6891 C   0  0  0  0  0  0  0  0  0  0  0  0
   -1.0476   -3.5046   -1.8922 C   0  0  0  0  0  0  0  0  0  0  0  0
   -1.2272   -4.8655   -1.6335 C   0  0  0  0  0  0  0  0  0  0  0  0
   -1.7809   -7.0522    0.2880 H   0  0  0  0  0  0  0  0  0  0  0  0
   -0.8568   -7.5024   -1.1692 H   0  0  0  0  0  0  0  0  0  0  0  0
   -0.0259   -7.3287    0.3776 H   0  0  0  0  0  0  0  0  0  0  0  0
    0.6588   -5.1224    1.1857 H   0  0  0  0  0  0  0  0  0  0  0  0
    0.9838   -2.7346    0.7252 H   0  0  0  0  0  0  0  0  0  0  0  0
    0.9283   -0.9127   -1.0399 H   0  0  0  0  0  0  0  0  0  0  0  0
   -0.0820   -1.0860   -2.4146 H   0  0  0  0  0  0  0  0  0  0  0  0
   -4.3852    0.0861   -1.2669 H   0  0  0  0  0  0  0  0  0  0  0  0
   -2.4808    2.3469   -0.3592 H   0  0  0  0  0  0  0  0  0  0  0  0
   -3.1740    2.2298   -1.9498 H   0  0  0  0  0  0  0  0  0  0  0  0
   -3.8267    3.0913    1.5597 H   0  0  0  0  0  0  0  0  0  0  0  0
   -5.8621    4.2561    2.3249 H   0  0  0  0  0  0  0  0  0  0  0  0
   -7.7946    4.5328    0.7948 H   0  0  0  0  0  0  0  0  0  0  0  0
   -7.6856    3.6367   -1.5156 H   0  0  0  0  0  0  0  0  0  0  0  0
   -5.6603    2.4674   -2.3002 H   0  0  0  0  0  0  0  0  0  0  0  0
   -4.3222    0.3614    1.1867 H   0  0  0  0  0  0  0  0  0  0  0  0
   -1.4419    0.4991    4.4113 H   0  0  0  0  0  0  0  0  0  0  0  0
    0.7703    1.6650   -0.3923 H   0  0  0  0  0  0  0  0  0  0  0  0
    1.4849    2.2170    1.1336 H   0  0  0  0  0  0  0  0  0  0  0  0
    3.0565    2.5084   -0.7110 H   0  0  0  0  0  0  0  0  0  0  0  0
    2.9245    0.8077   -1.1875 H   0  0  0  0  0  0  0  0  0  0  0  0
    6.0130   -0.7174    0.1186 H   0  0  0  0  0  0  0  0  0  0  0  0
    8.2196   -0.2131   -0.7877 H   0  0  0  0  0  0  0  0  0  0  0  0
    8.8483    2.1174   -1.3639 H   0  0  0  0  0  0  0  0  0  0  0  0
    7.2207    3.9552   -0.9866 H   0  0  0  0  0  0  0  0  0  0  0  0
    5.0043    3.4725   -0.0468 H   0  0  0  0  0  0  0  0  0  0  0  0
    4.5137   -0.4025    2.0250 H   0  0  0  0  0  0  0  0  0  0  0  0
    3.7686   -1.0079    0.5216 H   0  0  0  0  0  0  0  0  0  0  0  0
    2.3806    0.5421    2.7699 H   0  0  0  0  0  0  0  0  0  0  0  0
    2.2018   -1.1923    2.4054 H   0  0  0  0  0  0  0  0  0  0  0  0
   -1.5466   -3.0592   -2.7519 H   0  0  0  0  0  0  0  0  0  0  0  0
   -1.8611   -5.4514   -2.2949 H   0  0  0  0  0  0  0  0  0  0  0  0
  1  2  1  0
  2  3  2  0
  3  4  1  0
  4  5  2  0
  5  6  1  0
  6  7  1  0
  7  8  1  0
  8  9  2  0
  8 10  1  0
 10 11  1  0
 11 12  1  0
 12 13  2  0
 13 14  1  0
 14 15  2  0
 15 16  1  0
 16 17  2  0
 10 18  1  0
 18 19  1  0
 19 20  2  0
 20 21  1  0
 21 22  2  0
 22 23  1  0
 23 24  1  0
 24 25  1  0
 25 26  1  0
 26 27  1  0
 27 28  1  0
 28 29  2  0
 29 30  1  0
 30 31  2  0
 31 32  1  0
 32 33  2  0
 27 34  1  0
 34 35  1  0
 23 36  2  0
  5 37  1  0
 37 38  2  0
 38  2  1  0
 36  7  1  0
 17 12  1  0
 36 19  1  0
 35 24  1  0
 33 28  1  0
  1 39  1  0
  1 40  1  0
  1 41  1  0
  3 42  1  0
  4 43  1  0
  6 44  1  0
  6 45  1  0
 10 46  1  0
 11 47  1  0
 11 48  1  0
 13 49  1  0
 14 50  1  0
 15 51  1  0
 16 52  1  0
 17 53  1  0
 18 54  1  0
 21 55  1  0
 25 56  1  0
 25 57  1  0
 26 58  1  0
 26 59  1  0
 29 60  1  0
 30 61  1  0
 31 62  1  0
 32 63  1  0
 33 64  1  0
 34 65  1  0
 34 66  1  0
 35 67  1  0
 35 68  1  0
 37 69  1  0
 38 70  1  0
M  END
$$$$
