
     RDKit          3D

 60 64  0  0  0  0  0  0  0  0999 V2000
   -1.8546   -1.3432    2.6139 O   0  0  0  0  0  0  0  0  0  0  0  0
   -2.1872   -0.6808    1.6301 C   0  0  0  0  0  0  0  0  0  0  0  0
   -1.1527    0.0115    0.7645 C   0  0  0  0  0  0  0  0  0  0  0  0
    0.2555   -0.1861    1.3234 C   0  0  0  0  0  0  0  0  0  0  0  0
    1.2681    0.4792    0.5002 N   0  0  0  0  0  0  0  0  0  0  0  0
    1.5414    1.8080    0.7790 C   0  0  0  0  0  0  0  0  0  0  0  0
    0.9448    2.4660    1.6284 O   0  0  0  0  0  0  0  0  0  0  0  0
    2.5940    2.4495   -0.0211 C   0  0  0  0  0  0  0  0  0  0  0  0
    2.9684    3.7696    0.2811 C   0  0  0  0  0  0  0  0  0  0  0  0
    3.9578    4.4025   -0.4624 C   0  0  0  0  0  0  0  0  0  0  0  0
    4.5669    3.7179   -1.5062 C   0  0  0  0  0  0  0  0  0  0  0  0
    4.1883    2.4026   -1.8049 C   0  0  0  0  0  0  0  0  0  0  0  0
    3.1960    1.7417   -1.0621 C   0  0  0  0  0  0  0  0  0  0  0  0
    2.7705    0.4105   -1.3368 N   0  0  0  0  0  0  0  0  0  0  0  0
    3.3570   -0.3787   -2.4216 C   0  0  0  0  0  0  0  0  0  0  0  0
    4.4127   -1.3543   -1.9346 C   0  0  0  0  0  0  0  0  0  0  0  0
    5.6977   -0.9200   -1.5733 C   0  0  0  0  0  0  0  0  0  0  0  0
    6.6590   -1.8237   -1.1104 C   0  0  0  0  0  0  0  0  0  0  0  0
    6.3527   -3.1791   -1.0001 C   0  0  0  0  0  0  0  0  0  0  0  0
    5.0747   -3.6236   -1.3559 C   0  0  0  0  0  0  0  0  0  0  0  0
    4.7485   -5.0501   -1.2492 N   0  0  0  0  0  4  0  0  0  0  0  0
    3.7125   -5.4485   -1.8001 O   0  0  0  0  0  0  0  0  0  0  0  0
    5.5373   -5.7753   -0.6257 O   0  0  0  0  0  1  0  0  0  0  0  0
    4.1065   -2.7214   -1.8187 C   0  0  0  0  0  0  0  0  0  0  0  0
    1.7744   -0.2163   -0.5881 C   0  0  0  0  0  0  0  0  0  0  0  0
    1.3475   -1.3345   -0.8883 O   0  0  0  0  0  0  0  0  0  0  0  0
   -3.5220   -0.5236    1.2688 N   0  0  0  0  0  0  0  0  0  0  0  0
   -3.9704   -0.0265   -0.0310 C   0  0  0  0  0  0  0  0  0  0  0  0
   -5.2417    0.8088    0.1004 C   0  0  0  0  0  0  0  0  0  0  0  0
   -6.3054    0.0786    0.8749 C   0  0  0  0  0  0  0  0  0  0  0  0
   -7.6554    0.4173    0.7086 C   0  0  0  0  0  0  0  0  0  0  0  0
   -8.6421   -0.2363    1.4455 C   0  0  0  0  0  0  0  0  0  0  0  0
   -8.2879   -1.2249    2.3598 C   0  0  0  0  0  0  0  0  0  0  0  0
   -6.9455   -1.5575    2.5419 C   0  0  0  0  0  0  0  0  0  0  0  0
   -5.9410   -0.9064    1.8090 C   0  0  0  0  0  0  0  0  0  0  0  0
   -4.4978   -1.2962    2.0352 C   0  0  0  0  0  0  0  0  0  0  0  0
   -1.3862    1.0812    0.7215 H   0  0  0  0  0  0  0  0  0  0  0  0
   -1.2056   -0.4025   -0.2483 H   0  0  0  0  0  0  0  0  0  0  0  0
    0.3126    0.2053    2.3468 H   0  0  0  0  0  0  0  0  0  0  0  0
    0.4918   -1.2557    1.3860 H   0  0  0  0  0  0  0  0  0  0  0  0
    2.4872    4.3040    1.0985 H   0  0  0  0  0  0  0  0  0  0  0  0
    4.2490    5.4237   -0.2289 H   0  0  0  0  0  0  0  0  0  0  0  0
    5.3396    4.2071   -2.0958 H   0  0  0  0  0  0  0  0  0  0  0  0
    4.7029    1.9335   -2.6361 H   0  0  0  0  0  0  0  0  0  0  0  0
    2.5524   -0.9389   -2.9172 H   0  0  0  0  0  0  0  0  0  0  0  0
    3.7629    0.2480   -3.2202 H   0  0  0  0  0  0  0  0  0  0  0  0
    5.9677    0.1306   -1.6404 H   0  0  0  0  0  0  0  0  0  0  0  0
    7.6484   -1.4672   -0.8315 H   0  0  0  0  0  0  0  0  0  0  0  0
    7.1117   -3.8693   -0.6381 H   0  0  0  0  0  0  0  0  0  0  0  0
    3.1066   -3.0718   -2.0758 H   0  0  0  0  0  0  0  0  0  0  0  0
   -4.1422   -0.9031   -0.6683 H   0  0  0  0  0  0  0  0  0  0  0  0
   -3.2020    0.5785   -0.5172 H   0  0  0  0  0  0  0  0  0  0  0  0
   -5.0179    1.7450    0.6264 H   0  0  0  0  0  0  0  0  0  0  0  0
   -5.6063    1.0621   -0.9017 H   0  0  0  0  0  0  0  0  0  0  0  0
   -7.9449    1.1937    0.0040 H   0  0  0  0  0  0  0  0  0  0  0  0
   -9.6874    0.0284    1.3092 H   0  0  0  0  0  0  0  0  0  0  0  0
   -9.0564   -1.7339    2.9355 H   0  0  0  0  0  0  0  0  0  0  0  0
   -6.6828   -2.3278    3.2645 H   0  0  0  0  0  0  0  0  0  0  0  0
   -4.2628   -1.1981    3.1020 H   0  0  0  0  0  0  0  0  0  0  0  0
   -4.3672   -2.3481    1.7507 H   0  0  0  0  0  0  0  0  0  0  0  0
  1  2  2  0
  2  3  1  0
  3  4  1  0
  4  5  1  0
  5  6  1  0
  6  7  2  0
  6  8  1  0
  8  9  2  0
  9 10  1  0
 10 11  2  0
 11 12  1  0
 12 13  2  0
 13 14  1  0
 14 15  1  0
 15 16  1  0
 16 17  2  0
 17 18  1  0
 18 19  2  0
 19 20  1  0
 20 21  1  0
 21 22  2  0
 21 23  1  0
 20 24  2  0
 14 25  1  0
 25 26  2  0
  2 27  1  0
 27 28  1  0
 28 29  1  0
 29 30  1  0
 30 31  2  0
 31 32  1  0
 32 33  2  0
 33 34  1  0
 34 35  2  0
 35 36  1  0
 25  5  1  0
 36 27  1  0
 13  8  1  0
 24 16  1  0
 35 30  1  0
  3 37  1  0
  3 38  1  0
  4 39  1  0
  4 40  1  0
  9 41  1  0
 10 42  1  0
 11 43  1  0
 12 44  1  0
 15 45  1  0
 15 46  1  0
 17 47  1  0
 18 48  1  0
 19 49  1  0
 24 50  1  0
 28 51  1  0
 28 52  1  0
 29 53  1  0
 29 54  1  0
 31 55  1  0
 32 56  1  0
 33 57  1  0
 34 58  1  0
 36 59  1  0
 36 60  1  0
M  CHG  2  21   1  23  -1
M  END
$$$$
