
     RDKit          3D

 33 35  0  0  0  0  0  0  0  0999 V2000
    4.7433    0.2859   -1.1421 C   0  0  0  0  0  0  0  0  0  0  0  0
    3.5878    0.2904   -0.2242 C   0  0  0  0  0  0  0  0  0  0  0  0
    3.3740    0.8068    1.0309 C   0  0  0  0  0  0  0  0  0  0  0  0
    2.0474    0.4564    1.3760 C   0  0  0  0  0  0  0  0  0  0  0  0
    1.5073   -0.2626    0.3154 C   0  0  0  0  0  0  0  0  0  0  0  0
    0.2013   -0.8460    0.1766 C   0  0  0  0  0  0  0  0  0  0  0  0
   -1.0184   -0.0254    0.0566 C   0  0  0  0  0  0  0  0  0  0  0  0
   -2.2227   -0.6190   -0.0327 C   0  0  0  0  0  0  0  0  0  0  0  0
   -2.3075   -1.9873   -0.0378 N   0  0  0  0  0  0  0  0  0  0  0  0
   -1.2322   -2.8419    0.0299 C   0  0  0  0  0  0  0  0  0  0  0  0
   -1.5767   -4.4860   -0.0254 S   0  0  0  0  0  0  0  0  0  0  0  0
    0.1212   -2.2013    0.1536 C   0  0  0  0  0  0  0  0  0  0  0  0
    1.2702   -3.0446    0.2789 C   0  0  0  0  0  0  0  0  0  0  0  0
    2.2028   -3.7264    0.3992 N   0  0  0  0  0  0  0  0  0  0  0  0
   -3.5244    0.1338   -0.1353 C   0  0  0  0  0  0  0  0  0  0  0  0
   -3.3865    1.6198    0.1920 C   0  0  0  0  0  0  0  0  0  0  0  0
   -2.1456    2.2037   -0.4685 C   0  0  0  0  0  0  0  0  0  0  0  0
   -0.8799    1.4825    0.0044 C   0  0  0  0  0  0  0  0  0  0  0  0
    2.4705   -0.3452   -0.6640 O   0  0  0  0  0  0  0  0  0  0  0  0
    5.5934    0.8197   -0.7062 H   0  0  0  0  0  0  0  0  0  0  0  0
    4.4835    0.7725   -2.0872 H   0  0  0  0  0  0  0  0  0  0  0  0
    5.0582   -0.7401   -1.3560 H   0  0  0  0  0  0  0  0  0  0  0  0
    4.0878    1.3587    1.6265 H   0  0  0  0  0  0  0  0  0  0  0  0
    1.5362    0.6890    2.3003 H   0  0  0  0  0  0  0  0  0  0  0  0
   -3.2206   -2.4267   -0.1193 H   0  0  0  0  0  0  0  0  0  0  0  0
   -3.9114    0.0211   -1.1560 H   0  0  0  0  0  0  0  0  0  0  0  0
   -4.2688   -0.3047    0.5406 H   0  0  0  0  0  0  0  0  0  0  0  0
   -3.3209    1.7550    1.2791 H   0  0  0  0  0  0  0  0  0  0  0  0
   -4.2813    2.1566   -0.1428 H   0  0  0  0  0  0  0  0  0  0  0  0
   -2.0658    3.2730   -0.2423 H   0  0  0  0  0  0  0  0  0  0  0  0
   -2.2348    2.1144   -1.5588 H   0  0  0  0  0  0  0  0  0  0  0  0
   -0.0645    1.7728   -0.6691 H   0  0  0  0  0  0  0  0  0  0  0  0
   -0.6227    1.8453    1.0076 H   0  0  0  0  0  0  0  0  0  0  0  0
  1  2  1  0
  2  3  2  0
  3  4  1  0
  4  5  2  0
  5  6  1  0
  6  7  1  0
  7  8  2  0
  8  9  1  0
  9 10  1  0
 10 11  2  0
 10 12  1  0
 12 13  1  0
 13 14  3  0
  8 15  1  0
 15 16  1  0
 16 17  1  0
 17 18  1  0
  5 19  1  0
 19  2  1  0
 12  6  2  0
 18  7  1  0
  1 20  1  0
  1 21  1  0
  1 22  1  0
  3 23  1  0
  4 24  1  0
  9 25  1  0
 15 26  1  0
 15 27  1  0
 16 28  1  0
 16 29  1  0
 17 30  1  0
 17 31  1  0
 18 32  1  0
 18 33  1  0
M  END
$$$$
