
     RDKit          3D

 52 54  0  0  0  0  0  0  0  0999 V2000
   -3.4305    2.6957   -2.8581 C   0  0  0  0  0  0  0  0  0  0  0  0
   -3.1140    1.7703   -1.6686 C   0  0  0  0  0  0  0  0  0  0  0  0
   -4.1183    2.0991   -0.5547 C   0  0  0  0  0  0  0  0  0  0  0  0
   -1.6599    2.0539   -1.2080 C   0  0  0  0  0  0  0  0  0  0  0  0
   -1.1294    0.9561   -0.3303 C   0  0  0  0  0  0  0  0  0  0  0  0
   -1.7080   -0.3051   -0.3727 C   0  0  0  0  0  0  0  0  0  0  0  0
   -0.9308   -1.3906    0.6878 S   0  0  0  0  0  0  0  0  0  0  0  0
    0.1932   -0.2166    1.1772 C   0  0  0  0  0  0  0  0  0  0  0  0
    1.0769   -0.6986    2.1142 N   0  0  0  0  0  0  0  0  0  0  0  0
    1.8233    0.1033    2.9549 C   0  0  0  0  0  0  0  0  0  0  0  0
    1.5848    1.2783    3.2182 O   0  0  0  0  0  0  0  0  0  0  0  0
    2.9897   -0.6375    3.6171 C   0  0  0  0  0  0  0  0  0  0  0  0
    3.2503   -1.9369    3.1003 O   0  0  0  0  0  0  0  0  0  0  0  0
    4.0367   -2.0517    1.9796 C   0  0  0  0  0  0  0  0  0  0  0  0
    4.3572   -0.9944    1.1145 C   0  0  0  0  0  0  0  0  0  0  0  0
    5.1389   -1.2136   -0.0160 C   0  0  0  0  0  0  0  0  0  0  0  0
    5.5971   -2.4945   -0.2996 C   0  0  0  0  0  0  0  0  0  0  0  0
    6.5395   -2.7649   -1.7228 Cl  0  0  0  0  0  0  0  0  0  0  0  0
    5.2878   -3.5606    0.5437 C   0  0  0  0  0  0  0  0  0  0  0  0
    4.5066   -3.3396    1.6751 C   0  0  0  0  0  0  0  0  0  0  0  0
    4.1326   -4.7007    2.6939 Cl  0  0  0  0  0  0  0  0  0  0  0  0
    0.0525    0.9881    0.5137 C   0  0  0  0  0  0  0  0  0  0  0  0
    1.0519    2.0530    0.5677 C   0  0  0  0  0  0  0  0  0  0  0  0
    0.5786    3.3267    0.7093 N   0  0  0  0  0  0  0  0  0  0  0  0
    2.2518    1.8491    0.4256 O   0  0  0  0  0  0  0  0  0  0  0  0
   -2.8781   -0.7161   -1.2430 C   0  0  0  0  0  0  0  0  0  0  0  0
   -2.4801   -1.8891   -2.1613 C   0  0  0  0  0  0  0  0  0  0  0  0
   -4.0820   -1.1686   -0.4039 C   0  0  0  0  0  0  0  0  0  0  0  0
   -3.2721    0.3844   -2.1746 N   0  0  0  0  0  0  0  0  0  0  0  0
   -2.7542    2.5167   -3.7001 H   0  0  0  0  0  0  0  0  0  0  0  0
   -3.3208    3.7489   -2.5779 H   0  0  0  0  0  0  0  0  0  0  0  0
   -4.4516    2.5478   -3.2233 H   0  0  0  0  0  0  0  0  0  0  0  0
   -5.1218    1.7362   -0.8173 H   0  0  0  0  0  0  0  0  0  0  0  0
   -4.2054    3.1906   -0.3983 H   0  0  0  0  0  0  0  0  0  0  0  0
   -3.8283    1.6672    0.4095 H   0  0  0  0  0  0  0  0  0  0  0  0
   -1.6334    3.0166   -0.6931 H   0  0  0  0  0  0  0  0  0  0  0  0
   -0.9998    2.1293   -2.0758 H   0  0  0  0  0  0  0  0  0  0  0  0
    1.1046   -1.7023    2.2557 H   0  0  0  0  0  0  0  0  0  0  0  0
    3.8924   -0.0105    3.5921 H   0  0  0  0  0  0  0  0  0  0  0  0
    2.7202   -0.7689    4.6740 H   0  0  0  0  0  0  0  0  0  0  0  0
    4.0029    0.0171    1.2746 H   0  0  0  0  0  0  0  0  0  0  0  0
    5.3719   -0.3817   -0.6781 H   0  0  0  0  0  0  0  0  0  0  0  0
    5.6439   -4.5598    0.3175 H   0  0  0  0  0  0  0  0  0  0  0  0
   -0.3742    3.5051    1.0203 H   0  0  0  0  0  0  0  0  0  0  0  0
    1.2786    4.0459    0.9141 H   0  0  0  0  0  0  0  0  0  0  0  0
   -3.3005   -2.1631   -2.8249 H   0  0  0  0  0  0  0  0  0  0  0  0
   -1.6127   -1.6323   -2.7906 H   0  0  0  0  0  0  0  0  0  0  0  0
   -2.2161   -2.7883   -1.5886 H   0  0  0  0  0  0  0  0  0  0  0  0
   -4.3123   -0.4780    0.3929 H   0  0  0  0  0  0  0  0  0  0  0  0
   -4.9715   -1.2846   -1.0144 H   0  0  0  0  0  0  0  0  0  0  0  0
   -3.9017   -2.1376    0.0639 H   0  0  0  0  0  0  0  0  0  0  0  0
   -2.6564    0.3070   -2.9963 H   0  0  0  0  0  0  0  0  0  0  0  0
  1  2  1  0
  2  3  1  0
  2  4  1  0
  4  5  1  0
  5  6  2  0
  6  7  1  0
  7  8  1  0
  8  9  1  0
  9 10  1  0
 10 11  2  0
 10 12  1  0
 12 13  1  0
 13 14  1  0
 14 15  2  0
 15 16  1  0
 16 17  2  0
 17 18  1  0
 17 19  1  0
 19 20  2  0
 20 21  1  0
  8 22  2  0
 22 23  1  0
 23 24  1  0
 23 25  2  0
  6 26  1  0
 26 27  1  0
 26 28  1  0
 26 29  1  0
 29  2  1  0
 22  5  1  0
 20 14  1  0
  1 30  1  0
  1 31  1  0
  1 32  1  0
  3 33  1  0
  3 34  1  0
  3 35  1  0
  4 36  1  0
  4 37  1  0
  9 38  1  0
 12 39  1  0
 12 40  1  0
 15 41  1  0
 16 42  1  0
 19 43  1  0
 24 44  1  0
 24 45  1  0
 27 46  1  0
 27 47  1  0
 27 48  1  0
 28 49  1  0
 28 50  1  0
 28 51  1  0
 29 52  1  0
M  END
$$$$
