
     RDKit          3D

 49 52  0  0  0  0  0  0  0  0999 V2000
   -3.8646   -5.1210   -1.7596 C   0  0  0  0  0  0  0  0  0  0  0  0
   -3.3106   -4.4422   -0.6392 O   0  0  0  0  0  0  0  0  0  0  0  0
   -2.7008   -3.2430   -0.8860 C   0  0  0  0  0  0  0  0  0  0  0  0
   -2.1548   -2.6222    0.2383 C   0  0  0  0  0  0  0  0  0  0  0  0
   -1.5037   -1.3900    0.1299 C   0  0  0  0  0  0  0  0  0  0  0  0
   -1.3817   -0.7531   -1.1139 C   0  0  0  0  0  0  0  0  0  0  0  0
   -0.6935    0.6075   -1.2556 C   0  0  0  0  0  0  0  0  0  0  0  0
    0.6504    0.5676   -0.6387 N   0  0  0  0  0  0  0  0  0  0  0  0
    0.8109    1.1798    0.4830 C   0  0  0  0  0  0  0  0  0  0  0  0
    1.9536    1.1983    1.2438 N   0  0  0  0  0  0  0  0  0  0  0  0
    3.2089    0.6086    0.9847 C   0  0  0  0  0  0  0  0  0  0  0  0
    3.5871    0.0730   -0.2493 C   0  0  0  0  0  0  0  0  0  0  0  0
    4.8630   -0.4713   -0.4469 C   0  0  0  0  0  0  0  0  0  0  0  0
    5.8054   -0.4726    0.5835 C   0  0  0  0  0  0  0  0  0  0  0  0
    7.1579   -1.0860    0.3789 C   0  0  0  0  0  0  0  0  0  0  0  0
    5.4437    0.0605    1.8216 C   0  0  0  0  0  0  0  0  0  0  0  0
    4.1673    0.6022    2.0132 C   0  0  0  0  0  0  0  0  0  0  0  0
   -0.1928    1.9113    1.0411 N   0  0  0  0  0  0  0  0  0  0  0  0
   -1.3419    2.2659    0.4128 C   0  0  0  0  0  0  0  0  0  0  0  0
   -2.1295    3.1501    0.9481 N   0  0  0  0  0  0  0  0  0  0  0  0
   -3.2496    3.5126    0.2442 C   0  0  0  0  0  0  0  0  0  0  0  0
   -4.1466    4.5042    0.9282 C   0  0  0  0  0  0  0  0  0  0  0  0
   -3.5392    3.0433   -0.9747 C   0  0  0  0  0  0  0  0  0  0  0  0
   -2.6275    2.0658   -1.5904 C   0  0  0  0  0  0  0  0  0  0  0  0
   -2.8567    1.6713   -2.7305 O   0  0  0  0  0  0  0  0  0  0  0  0
   -1.5655    1.6824   -0.8061 N   0  0  0  0  0  0  0  0  0  0  0  0
   -1.9387   -1.3835   -2.2381 C   0  0  0  0  0  0  0  0  0  0  0  0
   -2.5919   -2.6170   -2.1266 C   0  0  0  0  0  0  0  0  0  0  0  0
   -4.2971   -6.0600   -1.4011 H   0  0  0  0  0  0  0  0  0  0  0  0
   -3.0912   -5.3703   -2.4938 H   0  0  0  0  0  0  0  0  0  0  0  0
   -4.6708   -4.5365   -2.2156 H   0  0  0  0  0  0  0  0  0  0  0  0
   -2.2356   -3.1035    1.2097 H   0  0  0  0  0  0  0  0  0  0  0  0
   -1.0875   -0.9382    1.0258 H   0  0  0  0  0  0  0  0  0  0  0  0
   -0.5142    0.7805   -2.3250 H   0  0  0  0  0  0  0  0  0  0  0  0
    1.8424    1.4547    2.2134 H   0  0  0  0  0  0  0  0  0  0  0  0
    2.9031    0.0643   -1.0923 H   0  0  0  0  0  0  0  0  0  0  0  0
    5.1101   -0.8906   -1.4201 H   0  0  0  0  0  0  0  0  0  0  0  0
    7.1278   -2.1508    0.6293 H   0  0  0  0  0  0  0  0  0  0  0  0
    7.9084   -0.5955    1.0077 H   0  0  0  0  0  0  0  0  0  0  0  0
    7.4838   -0.9755   -0.6609 H   0  0  0  0  0  0  0  0  0  0  0  0
    6.1520    0.0618    2.6468 H   0  0  0  0  0  0  0  0  0  0  0  0
    3.9312    1.0176    2.9898 H   0  0  0  0  0  0  0  0  0  0  0  0
    0.0059    2.4827    1.8470 H   0  0  0  0  0  0  0  0  0  0  0  0
   -4.5142    4.0923    1.8737 H   0  0  0  0  0  0  0  0  0  0  0  0
   -3.5980    5.4273    1.1432 H   0  0  0  0  0  0  0  0  0  0  0  0
   -5.0165    4.7658    0.3166 H   0  0  0  0  0  0  0  0  0  0  0  0
   -4.4128    3.3327   -1.5421 H   0  0  0  0  0  0  0  0  0  0  0  0
   -1.8789   -0.9075   -3.2161 H   0  0  0  0  0  0  0  0  0  0  0  0
   -3.0066   -3.0538   -3.0283 H   0  0  0  0  0  0  0  0  0  0  0  0
  1  2  1  0
  2  3  1  0
  3  4  2  0
  4  5  1  0
  5  6  2  0
  6  7  1  0
  7  8  1  0
  8  9  2  0
  9 10  1  0
 10 11  1  0
 11 12  2  0
 12 13  1  0
 13 14  2  0
 14 15  1  0
 14 16  1  0
 16 17  2  0
  9 18  1  0
 18 19  1  0
 19 20  2  0
 20 21  1  0
 21 22  1  0
 21 23  2  0
 23 24  1  0
 24 25  2  0
 24 26  1  0
  6 27  1  0
 27 28  2  0
 28  3  1  0
 26  7  1  0
 17 11  1  0
 26 19  1  0
  1 29  1  0
  1 30  1  0
  1 31  1  0
  4 32  1  0
  5 33  1  0
  7 34  1  0
 10 35  1  0
 12 36  1  0
 13 37  1  0
 15 38  1  0
 15 39  1  0
 15 40  1  0
 16 41  1  0
 17 42  1  0
 18 43  1  0
 22 44  1  0
 22 45  1  0
 22 46  1  0
 23 47  1  0
 27 48  1  0
 28 49  1  0
M  END
$$$$
