
     RDKit          3D

 52 56  0  0  0  0  0  0  0  0999 V2000
    0.2057    1.7954   -2.4256 O   0  0  0  0  0  0  0  0  0  0  0  0
    0.1701    1.1888   -1.3575 C   0  0  0  0  0  0  0  0  0  0  0  0
    1.4435    0.9897   -0.6406 C   0  0  0  0  0  0  0  0  0  0  0  0
    2.3180    0.0440   -1.1691 C   0  0  0  0  0  0  0  0  0  0  0  0
    3.5208   -0.1620   -0.5177 C   0  0  0  0  0  0  0  0  0  0  0  0
    4.5085   -1.1505   -0.9737 C   0  0  0  0  0  0  0  0  0  0  0  0
    4.8547   -2.2130   -0.1134 C   0  0  0  0  0  0  0  0  0  0  0  0
    5.7674   -3.1992   -0.4983 C   0  0  0  0  0  0  0  0  0  0  0  0
    6.3611   -3.1399   -1.7556 C   0  0  0  0  0  0  0  0  0  0  0  0
    6.0470   -2.0936   -2.6199 C   0  0  0  0  0  0  0  0  0  0  0  0
    5.1289   -1.1070   -2.2358 C   0  0  0  0  0  0  0  0  0  0  0  0
    4.8217    0.1618   -3.3754 Cl  0  0  0  0  0  0  0  0  0  0  0  0
    3.8456    0.5035    0.6184 N   0  0  0  0  0  0  0  0  0  0  0  0
    3.0145    1.4445    1.0973 C   0  0  0  0  0  0  0  0  0  0  0  0
    3.3950    2.1485    2.2331 C   0  0  0  0  0  0  0  0  0  0  0  0
    2.5932    3.1509    2.7874 C   0  0  0  0  0  0  0  0  0  0  0  0
    1.3801    3.4605    2.1895 C   0  0  0  0  0  0  0  0  0  0  0  0
    0.2850    4.8144    2.9201 Br  0  0  0  0  0  0  0  0  0  0  0  0
    0.9690    2.7717    1.0522 C   0  0  0  0  0  0  0  0  0  0  0  0
    1.7785    1.7482    0.4984 C   0  0  0  0  0  0  0  0  0  0  0  0
   -0.9875    0.6747   -0.7915 N   0  0  0  0  0  0  0  0  0  0  0  0
   -2.2674    0.9114   -1.4609 C   0  0  0  0  0  0  0  0  0  0  0  0
   -3.4338    1.0940   -0.4701 C   0  0  0  0  0  0  0  0  0  0  0  0
   -3.4806    0.0366    0.5629 N   0  0  0  0  0  0  0  0  0  0  0  0
   -4.7453   -0.5172    0.8026 C   0  0  0  0  0  0  0  0  0  0  0  0
   -5.8331    0.3176    1.0709 C   0  0  0  0  0  0  0  0  0  0  0  0
   -7.0904   -0.2315    1.3202 C   0  0  0  0  0  0  0  0  0  0  0  0
   -7.2423   -1.6077    1.2977 C   0  0  0  0  0  0  0  0  0  0  0  0
   -6.1223   -2.3730    1.0355 C   0  0  0  0  0  0  0  0  0  0  0  0
   -4.8930   -1.8594    0.8003 N   0  0  0  0  0  0  0  0  0  0  0  0
   -2.3763   -0.9364    0.5448 C   0  0  0  0  0  0  0  0  0  0  0  0
   -1.0297   -0.2043    0.3892 C   0  0  0  0  0  0  0  0  0  0  0  0
    2.0580   -0.5090   -2.0665 H   0  0  0  0  0  0  0  0  0  0  0  0
    4.4026   -2.2747    0.8785 H   0  0  0  0  0  0  0  0  0  0  0  0
    6.0128   -4.0103    0.1838 H   0  0  0  0  0  0  0  0  0  0  0  0
    7.0740   -3.9032   -2.0589 H   0  0  0  0  0  0  0  0  0  0  0  0
    6.5219   -2.0489   -3.5970 H   0  0  0  0  0  0  0  0  0  0  0  0
    4.3510    1.9137    2.6986 H   0  0  0  0  0  0  0  0  0  0  0  0
    2.9315    3.6784    3.6772 H   0  0  0  0  0  0  0  0  0  0  0  0
    0.0188    3.0289    0.5893 H   0  0  0  0  0  0  0  0  0  0  0  0
   -2.4532    0.0422   -2.1030 H   0  0  0  0  0  0  0  0  0  0  0  0
   -2.2004    1.7884   -2.1130 H   0  0  0  0  0  0  0  0  0  0  0  0
   -3.3141    2.0549    0.0449 H   0  0  0  0  0  0  0  0  0  0  0  0
   -4.3619    1.1478   -1.0556 H   0  0  0  0  0  0  0  0  0  0  0  0
   -5.7056    1.3948    1.1038 H   0  0  0  0  0  0  0  0  0  0  0  0
   -7.9362    0.4151    1.5337 H   0  0  0  0  0  0  0  0  0  0  0  0
   -8.2021   -2.0706    1.4870 H   0  0  0  0  0  0  0  0  0  0  0  0
   -6.1819   -3.4549    1.0024 H   0  0  0  0  0  0  0  0  0  0  0  0
   -2.5000   -1.6446   -0.2862 H   0  0  0  0  0  0  0  0  0  0  0  0
   -2.3524   -1.5067    1.4819 H   0  0  0  0  0  0  0  0  0  0  0  0
   -0.2133   -0.9306    0.3277 H   0  0  0  0  0  0  0  0  0  0  0  0
   -0.8562    0.4279    1.2680 H   0  0  0  0  0  0  0  0  0  0  0  0
  1  2  2  0
  2  3  1  0
  3  4  2  0
  4  5  1  0
  5  6  1  0
  6  7  2  0
  7  8  1  0
  8  9  2  0
  9 10  1  0
 10 11  2  0
 11 12  1  0
  5 13  2  0
 13 14  1  0
 14 15  2  0
 15 16  1  0
 16 17  2  0
 17 18  1  0
 17 19  1  0
 19 20  2  0
  2 21  1  0
 21 22  1  0
 22 23  1  0
 23 24  1  0
 24 25  1  0
 25 26  2  0
 26 27  1  0
 27 28  2  0
 28 29  1  0
 29 30  2  0
 24 31  1  0
 31 32  1  0
 20  3  1  0
 32 21  1  0
 11  6  1  0
 20 14  1  0
 30 25  1  0
  4 33  1  0
  7 34  1  0
  8 35  1  0
  9 36  1  0
 10 37  1  0
 15 38  1  0
 16 39  1  0
 19 40  1  0
 22 41  1  0
 22 42  1  0
 23 43  1  0
 23 44  1  0
 26 45  1  0
 27 46  1  0
 28 47  1  0
 29 48  1  0
 31 49  1  0
 31 50  1  0
 32 51  1  0
 32 52  1  0
M  END
$$$$
