
     RDKit          3D

 31 32  0  0  0  0  0  0  0  0999 V2000
    0.7043    2.4502    0.6510 S   0  0  0  0  0  0  0  0  0  0  0  0
    0.1084    1.0827   -0.1260 C   0  0  0  0  0  0  0  0  0  0  0  0
    0.9061    0.1245   -0.7414 N   0  0  0  0  0  0  0  0  0  0  0  0
    2.2733   -0.2091   -0.5729 C   0  0  0  0  0  0  0  0  0  0  0  0
    2.9697    0.0019    0.6204 C   0  0  0  0  0  0  0  0  0  0  0  0
    4.3115   -0.3785    0.7386 C   0  0  0  0  0  0  0  0  0  0  0  0
    4.9599   -0.9917   -0.3303 C   0  0  0  0  0  0  0  0  0  0  0  0
    6.6076   -1.4599   -0.1755 Cl  0  0  0  0  0  0  0  0  0  0  0  0
    4.2786   -1.2428   -1.5160 C   0  0  0  0  0  0  0  0  0  0  0  0
    2.9399   -0.8615   -1.6295 C   0  0  0  0  0  0  0  0  0  0  0  0
    2.1200   -1.2102   -3.1159 Cl  0  0  0  0  0  0  0  0  0  0  0  0
   -1.2709    0.8003   -0.2775 N   0  0  0  0  0  0  0  0  0  0  0  0
   -2.3349    1.7386    0.1115 C   0  0  0  0  0  0  0  0  0  0  0  0
   -3.1711    1.1622    1.2515 C   0  0  0  0  0  0  0  0  0  0  0  0
   -3.6195   -0.2795    0.9899 C   0  0  0  0  0  0  0  0  0  0  0  0
   -3.2330   -0.7670   -0.4025 C   0  0  0  0  0  0  0  0  0  0  0  0
   -1.7460   -0.5370   -0.6727 C   0  0  0  0  0  0  0  0  0  0  0  0
    0.5161   -0.2176   -1.6126 H   0  0  0  0  0  0  0  0  0  0  0  0
    2.4861    0.4317    1.4922 H   0  0  0  0  0  0  0  0  0  0  0  0
    4.8374   -0.1996    1.6736 H   0  0  0  0  0  0  0  0  0  0  0  0
    4.7831   -1.7332   -2.3437 H   0  0  0  0  0  0  0  0  0  0  0  0
   -2.9584    1.9048   -0.7758 H   0  0  0  0  0  0  0  0  0  0  0  0
   -1.9534    2.7211    0.3951 H   0  0  0  0  0  0  0  0  0  0  0  0
   -2.5905    1.1868    2.1821 H   0  0  0  0  0  0  0  0  0  0  0  0
   -4.0475    1.7999    1.4164 H   0  0  0  0  0  0  0  0  0  0  0  0
   -3.1637   -0.9366    1.7413 H   0  0  0  0  0  0  0  0  0  0  0  0
   -4.7038   -0.3632    1.1259 H   0  0  0  0  0  0  0  0  0  0  0  0
   -3.4712   -1.8309   -0.5122 H   0  0  0  0  0  0  0  0  0  0  0  0
   -3.8323   -0.2349   -1.1519 H   0  0  0  0  0  0  0  0  0  0  0  0
   -1.1567   -1.2843   -0.1279 H   0  0  0  0  0  0  0  0  0  0  0  0
   -1.5489   -0.6669   -1.7427 H   0  0  0  0  0  0  0  0  0  0  0  0
  1  2  2  0
  2  3  1  0
  3  4  1  0
  4  5  2  0
  5  6  1  0
  6  7  2  0
  7  8  1  0
  7  9  1  0
  9 10  2  0
 10 11  1  0
  2 12  1  0
 12 13  1  0
 13 14  1  0
 14 15  1  0
 15 16  1  0
 16 17  1  0
 10  4  1  0
 17 12  1  0
  3 18  1  0
  5 19  1  0
  6 20  1  0
  9 21  1  0
 13 22  1  0
 13 23  1  0
 14 24  1  0
 14 25  1  0
 15 26  1  0
 15 27  1  0
 16 28  1  0
 16 29  1  0
 17 30  1  0
 17 31  1  0
M  END
$$$$
