
     RDKit          3D

 60 64  0  0  0  0  0  0  0  0999 V2000
    3.1964   -1.9778    1.2117 O   0  0  0  0  0  0  0  0  0  0  0  0
    2.8792   -1.1988    0.3231 C   0  0  0  0  0  0  0  0  0  0  0  0
    3.7131   -0.3973   -0.4350 N   0  0  0  0  0  0  0  0  0  0  0  0
    5.0994   -0.2052   -0.2568 C   0  0  0  0  0  0  0  0  0  0  0  0
    5.7517    0.6156   -1.1831 C   0  0  0  0  0  0  0  0  0  0  0  0
    7.1160    0.8876   -1.0552 C   0  0  0  0  0  0  0  0  0  0  0  0
    7.8475    0.3341   -0.0018 C   0  0  0  0  0  0  0  0  0  0  0  0
    9.2893    0.6527    0.1382 C   0  0  0  0  0  0  0  0  0  0  0  0
    9.8238    1.6731   -0.4873 N   0  0  0  0  0  0  0  0  0  0  0  0
   11.2556    1.6565   -0.0827 C   0  0  0  0  0  0  0  0  0  0  0  0
   11.4929    0.3239    0.6329 C   0  0  0  0  0  0  0  0  0  0  0  0
   10.1395   -0.0998    0.9194 N   0  0  0  0  0  0  0  0  0  0  0  0
    7.2048   -0.4875    0.9235 C   0  0  0  0  0  0  0  0  0  0  0  0
    5.8358   -0.7545    0.7954 C   0  0  0  0  0  0  0  0  0  0  0  0
    1.4344   -1.0887   -0.0143 C   0  0  0  0  0  0  0  0  0  0  0  0
    0.6479   -2.2501   -0.0070 C   0  0  0  0  0  0  0  0  0  0  0  0
   -0.7186   -2.1819   -0.2988 C   0  0  0  0  0  0  0  0  0  0  0  0
   -1.3183   -0.9449   -0.5615 C   0  0  0  0  0  0  0  0  0  0  0  0
   -2.7476   -0.9371   -0.9279 C   0  0  0  0  0  0  0  0  0  0  0  0
   -3.0448   -1.4857   -1.9809 O   0  0  0  0  0  0  0  0  0  0  0  0
   -3.5785   -0.3466   -0.0037 N   0  0  0  0  0  0  0  0  0  0  0  0
   -4.9801   -0.2047   -0.0863 C   0  0  0  0  0  0  0  0  0  0  0  0
   -5.6236    0.3963    1.0019 C   0  0  0  0  0  0  0  0  0  0  0  0
   -7.0117    0.5700    1.0077 C   0  0  0  0  0  0  0  0  0  0  0  0
   -7.7708    0.1523   -0.0847 C   0  0  0  0  0  0  0  0  0  0  0  0
   -9.2427    0.3379   -0.1003 C   0  0  0  0  0  0  0  0  0  0  0  0
   -9.9246    0.2885   -1.2176 N   0  0  0  0  0  0  0  0  0  0  0  0
  -11.3332    0.5466   -0.8037 C   0  0  0  0  0  0  0  0  0  0  0  0
  -11.3729    0.3823    0.7163 C   0  0  0  0  0  0  0  0  0  0  0  0
   -9.9751    0.5438    1.0517 N   0  0  0  0  0  0  0  0  0  0  0  0
   -7.1339   -0.4326   -1.1832 C   0  0  0  0  0  0  0  0  0  0  0  0
   -5.7454   -0.6199   -1.1811 C   0  0  0  0  0  0  0  0  0  0  0  0
   -0.5271    0.2024   -0.5487 C   0  0  0  0  0  0  0  0  0  0  0  0
   -1.1082    1.4966   -0.8098 N   0  0  0  0  0  4  0  0  0  0  0  0
   -0.7278    2.0802   -1.8324 O   0  0  0  0  0  0  0  0  0  0  0  0
   -1.8751    1.9460    0.0525 O   0  0  0  0  0  1  0  0  0  0  0  0
    0.8476    0.1514   -0.2799 C   0  0  0  0  0  0  0  0  0  0  0  0
    3.3087    0.0792   -1.2319 H   0  0  0  0  0  0  0  0  0  0  0  0
    5.2107    1.0655   -2.0126 H   0  0  0  0  0  0  0  0  0  0  0  0
    7.6075    1.5358   -1.7759 H   0  0  0  0  0  0  0  0  0  0  0  0
   11.4499    2.5081    0.5809 H   0  0  0  0  0  0  0  0  0  0  0  0
   11.9043    1.7486   -0.9631 H   0  0  0  0  0  0  0  0  0  0  0  0
   12.0909    0.4425    1.5395 H   0  0  0  0  0  0  0  0  0  0  0  0
   11.9838   -0.3969   -0.0322 H   0  0  0  0  0  0  0  0  0  0  0  0
    9.9808   -1.1003    0.9134 H   0  0  0  0  0  0  0  0  0  0  0  0
    7.7472   -0.9007    1.7699 H   0  0  0  0  0  0  0  0  0  0  0  0
    5.3697   -1.3799    1.5484 H   0  0  0  0  0  0  0  0  0  0  0  0
    1.1024   -3.2151    0.2196 H   0  0  0  0  0  0  0  0  0  0  0  0
   -1.3097   -3.0958   -0.3260 H   0  0  0  0  0  0  0  0  0  0  0  0
   -3.1521    0.0691    0.8196 H   0  0  0  0  0  0  0  0  0  0  0  0
   -5.0537    0.7488    1.8605 H   0  0  0  0  0  0  0  0  0  0  0  0
   -7.4817    1.0608    1.8568 H   0  0  0  0  0  0  0  0  0  0  0  0
  -11.6079    1.5677   -1.0997 H   0  0  0  0  0  0  0  0  0  0  0  0
  -12.0111   -0.1546   -1.2982 H   0  0  0  0  0  0  0  0  0  0  0  0
  -12.0105    1.1308    1.2020 H   0  0  0  0  0  0  0  0  0  0  0  0
  -11.7121   -0.6211    0.9879 H   0  0  0  0  0  0  0  0  0  0  0  0
   -9.6571    0.0469    1.8785 H   0  0  0  0  0  0  0  0  0  0  0  0
   -7.7153   -0.7548   -2.0485 H   0  0  0  0  0  0  0  0  0  0  0  0
   -5.2958   -1.0760   -2.0593 H   0  0  0  0  0  0  0  0  0  0  0  0
    1.4360    1.0667   -0.2517 H   0  0  0  0  0  0  0  0  0  0  0  0
  1  2  2  0
  2  3  1  0
  3  4  1  0
  4  5  2  0
  5  6  1  0
  6  7  2  0
  7  8  1  0
  8  9  2  0
  9 10  1  0
 10 11  1  0
 11 12  1  0
  7 13  1  0
 13 14  2  0
  2 15  1  0
 15 16  2  0
 16 17  1  0
 17 18  2  0
 18 19  1  0
 19 20  2  0
 19 21  1  0
 21 22  1  0
 22 23  2  0
 23 24  1  0
 24 25  2  0
 25 26  1  0
 26 27  2  0
 27 28  1  0
 28 29  1  0
 29 30  1  0
 25 31  1  0
 31 32  2  0
 18 33  1  0
 33 34  1  0
 34 35  2  0
 34 36  1  0
 33 37  2  0
 14  4  1  0
 37 15  1  0
 12  8  1  0
 32 22  1  0
 30 26  1  0
  3 38  1  0
  5 39  1  0
  6 40  1  0
 10 41  1  0
 10 42  1  0
 11 43  1  0
 11 44  1  0
 12 45  1  0
 13 46  1  0
 14 47  1  0
 16 48  1  0
 17 49  1  0
 21 50  1  0
 23 51  1  0
 24 52  1  0
 28 53  1  0
 28 54  1  0
 29 55  1  0
 29 56  1  0
 30 57  1  0
 31 58  1  0
 32 59  1  0
 37 60  1  0
M  CHG  2  34   1  36  -1
M  END
$$$$
