
     RDKit          3D

 61 65  0  0  0  0  0  0  0  0999 V2000
   -7.0412   -0.2941    3.9206 C   0  0  0  0  0  0  0  0  0  0  0  0
   -6.5264   -0.1446    2.5199 C   0  0  0  0  0  0  0  0  0  0  0  0
   -5.4106    0.6590    2.2608 C   0  0  0  0  0  0  0  0  0  0  0  0
   -4.9426    0.8215    0.9553 C   0  0  0  0  0  0  0  0  0  0  0  0
   -5.5908    0.1940   -0.1179 C   0  0  0  0  0  0  0  0  0  0  0  0
   -5.0715    0.3507   -1.5251 C   0  0  0  0  0  0  0  0  0  0  0  0
   -4.1480   -0.7091   -1.8716 N   0  0  0  0  0  0  0  0  0  0  0  0
   -4.5530   -1.7774   -2.6035 N   0  0  0  0  0  0  0  0  0  0  0  0
   -3.4994   -2.5784   -2.7682 N   0  0  0  0  0  0  0  0  0  0  0  0
   -2.4401   -1.9855   -2.1515 C   0  0  0  0  0  0  0  0  0  0  0  0
   -1.0744   -2.4110   -2.0044 C   0  0  0  0  0  0  0  0  0  0  0  0
   -0.6043   -3.4475   -2.4584 O   0  0  0  0  0  0  0  0  0  0  0  0
   -0.3171   -1.4928   -1.2815 N   0  0  0  0  0  0  0  0  0  0  0  0
   -0.8108   -0.2981   -0.7725 C   0  0  0  0  0  0  0  0  0  0  0  0
    0.1576    0.6240   -0.0349 C   0  0  0  0  0  0  0  0  0  0  0  0
    1.1316    1.3086   -1.0044 C   0  0  0  0  0  0  0  0  0  0  0  0
    2.3923    0.5028   -1.2984 C   0  0  0  0  0  0  0  0  0  0  0  0
    2.9780   -0.1188   -0.0834 N   0  0  0  0  0  0  0  0  0  0  0  0
    3.4302   -1.7574   -0.2177 S   0  0  0  0  0  6  0  0  0  0  0  0
    2.2326   -2.4080   -0.7209 O   0  0  0  0  0  0  0  0  0  0  0  0
    3.9805   -2.1788    1.0524 O   0  0  0  0  0  0  0  0  0  0  0  0
    4.6530   -1.8745   -1.4326 C   0  0  0  0  0  0  0  0  0  0  0  0
    5.7206   -1.0638   -1.5252 C   0  0  0  0  0  0  0  0  0  0  0  0
    6.0992    0.0588   -0.6609 C   0  0  0  0  0  0  0  0  0  0  0  0
    6.2196    1.3373   -1.2203 C   0  0  0  0  0  0  0  0  0  0  0  0
    6.6034    2.4224   -0.4296 C   0  0  0  0  0  0  0  0  0  0  0  0
    6.8779    2.2364    0.9238 C   0  0  0  0  0  0  0  0  0  0  0  0
    6.7790    0.9644    1.4844 C   0  0  0  0  0  0  0  0  0  0  0  0
    6.4023   -0.1226    0.6923 C   0  0  0  0  0  0  0  0  0  0  0  0
    2.3386    0.2680    1.1925 C   0  0  0  0  0  0  0  0  0  0  0  0
    0.8515   -0.0518    1.1533 C   0  0  0  0  0  0  0  0  0  0  0  0
   -2.0457    0.1018   -0.9204 N   0  0  0  0  0  0  0  0  0  0  0  0
   -2.8126   -0.7862   -1.5975 C   0  0  0  0  0  0  0  0  0  0  0  0
   -6.7113   -0.6061    0.1436 C   0  0  0  0  0  0  0  0  0  0  0  0
   -7.1794   -0.7661    1.4501 C   0  0  0  0  0  0  0  0  0  0  0  0
   -7.6080   -1.2237    4.0354 H   0  0  0  0  0  0  0  0  0  0  0  0
   -6.2123   -0.3283    4.6355 H   0  0  0  0  0  0  0  0  0  0  0  0
   -7.6934    0.5484    4.1717 H   0  0  0  0  0  0  0  0  0  0  0  0
   -4.8937    1.1587    3.0773 H   0  0  0  0  0  0  0  0  0  0  0  0
   -4.0600    1.4348    0.7830 H   0  0  0  0  0  0  0  0  0  0  0  0
   -5.8953    0.3404   -2.2485 H   0  0  0  0  0  0  0  0  0  0  0  0
   -4.5512    1.3077   -1.6483 H   0  0  0  0  0  0  0  0  0  0  0  0
    0.6325   -1.8109   -1.0919 H   0  0  0  0  0  0  0  0  0  0  0  0
   -0.4689    1.4282    0.3808 H   0  0  0  0  0  0  0  0  0  0  0  0
    1.4341    2.2683   -0.5633 H   0  0  0  0  0  0  0  0  0  0  0  0
    0.6318    1.5588   -1.9484 H   0  0  0  0  0  0  0  0  0  0  0  0
    3.1454    1.1631   -1.7416 H   0  0  0  0  0  0  0  0  0  0  0  0
    2.1632   -0.2501   -2.0588 H   0  0  0  0  0  0  0  0  0  0  0  0
    4.5140   -2.6730   -2.1507 H   0  0  0  0  0  0  0  0  0  0  0  0
    6.4144   -1.2305   -2.3484 H   0  0  0  0  0  0  0  0  0  0  0  0
    6.0140    1.5011   -2.2757 H   0  0  0  0  0  0  0  0  0  0  0  0
    6.7028    3.4109   -0.8733 H   0  0  0  0  0  0  0  0  0  0  0  0
    7.1790    3.0795    1.5397 H   0  0  0  0  0  0  0  0  0  0  0  0
    6.9996    0.8154    2.5392 H   0  0  0  0  0  0  0  0  0  0  0  0
    6.3528   -1.1105    1.1453 H   0  0  0  0  0  0  0  0  0  0  0  0
    2.5040    1.3395    1.3573 H   0  0  0  0  0  0  0  0  0  0  0  0
    2.8152   -0.2293    2.0428 H   0  0  0  0  0  0  0  0  0  0  0  0
    0.6989   -1.1366    1.1490 H   0  0  0  0  0  0  0  0  0  0  0  0
    0.3920    0.3003    2.0856 H   0  0  0  0  0  0  0  0  0  0  0  0
   -7.2249   -1.1188   -0.6684 H   0  0  0  0  0  0  0  0  0  0  0  0
   -8.0549   -1.3880    1.6268 H   0  0  0  0  0  0  0  0  0  0  0  0
  1  2  1  0
  2  3  2  0
  3  4  1  0
  4  5  2  0
  5  6  1  0
  6  7  1  0
  7  8  1  0
  8  9  2  0
  9 10  1  0
 10 11  1  0
 11 12  2  0
 11 13  1  0
 13 14  1  0
 14 15  1  0
 15 16  1  0
 16 17  1  0
 17 18  1  0
 18 19  1  0
 19 20  2  0
 19 21  2  0
 19 22  1  0
 22 23  2  3
 23 24  1  0
 24 25  2  0
 25 26  1  0
 26 27  2  0
 27 28  1  0
 28 29  2  0
 18 30  1  0
 30 31  1  0
 14 32  2  0
 32 33  1  0
  5 34  1  0
 34 35  2  0
 35  2  1  0
 33  7  1  0
 33 10  2  0
 31 15  1  0
 29 24  1  0
  1 36  1  0
  1 37  1  0
  1 38  1  0
  3 39  1  0
  4 40  1  0
  6 41  1  0
  6 42  1  0
 13 43  1  0
 15 44  1  0
 16 45  1  0
 16 46  1  0
 17 47  1  0
 17 48  1  0
 22 49  1  0
 23 50  1  0
 25 51  1  0
 26 52  1  0
 27 53  1  0
 28 54  1  0
 29 55  1  0
 30 56  1  0
 30 57  1  0
 31 58  1  0
 31 59  1  0
 34 60  1  0
 35 61  1  0
M  END
$$$$
