
     RDKit          3D

 45 47  0  0  0  0  0  0  0  0999 V2000
   -0.2566    3.1973   -1.0046 C   0  0  0  0  0  0  0  0  0  0  0  0
    0.2498    2.0468   -0.1964 C   0  0  0  0  0  0  0  0  0  0  0  0
   -0.4814    1.2978    0.6458 C   0  0  0  0  0  0  0  0  0  0  0  0
   -1.8199    1.2763    1.0008 N   0  0  0  0  0  0  0  0  0  0  0  0
   -2.8631    0.9243    0.0255 C   0  0  0  0  0  0  0  0  0  0  0  0
   -4.2347    1.1794    0.6525 C   0  0  0  0  0  0  0  0  0  0  0  0
   -2.7409   -0.5158   -0.4480 C   0  0  0  0  0  0  0  0  0  0  0  0
   -2.8513   -0.7952   -1.8218 C   0  0  0  0  0  0  0  0  0  0  0  0
   -2.7519   -2.1051   -2.2998 C   0  0  0  0  0  0  0  0  0  0  0  0
   -2.5436   -3.1593   -1.4130 C   0  0  0  0  0  0  0  0  0  0  0  0
   -2.4332   -2.9054   -0.0485 C   0  0  0  0  0  0  0  0  0  0  0  0
   -2.5333   -1.5970    0.4191 C   0  0  0  0  0  0  0  0  0  0  0  0
   -2.3936   -1.3911    1.7637 O   0  0  0  0  0  0  0  0  0  0  0  0
    0.4974    0.3108    1.2360 C   0  0  0  0  0  0  0  0  0  0  0  0
    0.1456   -0.5758    2.0069 O   0  0  0  0  0  0  0  0  0  0  0  0
    1.7405    0.5787    0.6535 N   0  0  0  0  0  0  0  0  0  0  0  0
    2.7908   -0.3650    0.5051 C   0  0  0  0  0  0  0  0  0  0  0  0
    2.9785   -1.3829    1.4504 C   0  0  0  0  0  0  0  0  0  0  0  0
    4.0141   -2.3133    1.3122 C   0  0  0  0  0  0  0  0  0  0  0  0
    4.8766   -2.2426    0.2223 C   0  0  0  0  0  0  0  0  0  0  0  0
    4.7027   -1.2437   -0.7306 C   0  0  0  0  0  0  0  0  0  0  0  0
    3.6678   -0.3136   -0.5894 C   0  0  0  0  0  0  0  0  0  0  0  0
    1.6096    1.6923   -0.2280 N   0  0  0  0  0  0  0  0  0  0  0  0
    2.6050    2.7513    0.0121 C   0  0  0  0  0  0  0  0  0  0  0  0
    0.2637    4.1223   -0.7370 H   0  0  0  0  0  0  0  0  0  0  0  0
   -0.0999    3.0073   -2.0712 H   0  0  0  0  0  0  0  0  0  0  0  0
   -1.3240    3.3772   -0.8489 H   0  0  0  0  0  0  0  0  0  0  0  0
   -1.9295    0.6343    1.7951 H   0  0  0  0  0  0  0  0  0  0  0  0
   -2.7689    1.5942   -0.8375 H   0  0  0  0  0  0  0  0  0  0  0  0
   -4.3969    0.5668    1.5466 H   0  0  0  0  0  0  0  0  0  0  0  0
   -4.3315    2.2284    0.9536 H   0  0  0  0  0  0  0  0  0  0  0  0
   -5.0393    0.9548   -0.0563 H   0  0  0  0  0  0  0  0  0  0  0  0
   -3.0136    0.0105   -2.5347 H   0  0  0  0  0  0  0  0  0  0  0  0
   -2.8373   -2.3018   -3.3655 H   0  0  0  0  0  0  0  0  0  0  0  0
   -2.4668   -4.1777   -1.7841 H   0  0  0  0  0  0  0  0  0  0  0  0
   -2.2728   -3.7237    0.6473 H   0  0  0  0  0  0  0  0  0  0  0  0
   -1.4267   -1.4710    1.9400 H   0  0  0  0  0  0  0  0  0  0  0  0
    2.3366   -1.4611    2.3239 H   0  0  0  0  0  0  0  0  0  0  0  0
    4.1433   -3.0917    2.0599 H   0  0  0  0  0  0  0  0  0  0  0  0
    5.6787   -2.9678    0.1137 H   0  0  0  0  0  0  0  0  0  0  0  0
    5.3647   -1.1911   -1.5910 H   0  0  0  0  0  0  0  0  0  0  0  0
    3.5377    0.4318   -1.3690 H   0  0  0  0  0  0  0  0  0  0  0  0
    2.5851    3.4795   -0.8055 H   0  0  0  0  0  0  0  0  0  0  0  0
    2.3990    3.2738    0.9535 H   0  0  0  0  0  0  0  0  0  0  0  0
    3.6234    2.3557    0.0630 H   0  0  0  0  0  0  0  0  0  0  0  0
  1  2  1  0
  2  3  2  0
  3  4  1  0
  4  5  1  0
  5  6  1  0
  5  7  1  0
  7  8  2  0
  8  9  1  0
  9 10  2  0
 10 11  1  0
 11 12  2  0
 12 13  1  0
  3 14  1  0
 14 15  2  0
 14 16  1  0
 16 17  1  0
 17 18  2  0
 18 19  1  0
 19 20  2  0
 20 21  1  0
 21 22  2  0
 16 23  1  0
 23 24  1  0
 23  2  1  0
 12  7  1  0
 22 17  1  0
  1 25  1  0
  1 26  1  0
  1 27  1  0
  4 28  1  0
  5 29  1  0
  6 30  1  0
  6 31  1  0
  6 32  1  0
  8 33  1  0
  9 34  1  0
 10 35  1  0
 11 36  1  0
 13 37  1  0
 18 38  1  0
 19 39  1  0
 20 40  1  0
 21 41  1  0
 22 42  1  0
 24 43  1  0
 24 44  1  0
 24 45  1  0
M  END
$$$$
