
     RDKit          3D

 52 54  0  0  0  0  0  0  0  0999 V2000
   -1.6139    0.2427   -2.3812 C   0  0  0  0  0  0  0  0  0  0  0  0
   -3.0599    0.6233   -2.1014 C   0  0  0  0  0  0  0  0  0  0  0  0
   -3.8757   -0.5002   -1.4569 C   0  0  0  0  0  0  0  0  0  0  0  0
   -3.3370   -1.0292   -0.1206 C   0  0  0  0  0  0  0  0  0  0  0  0
   -3.1330    0.0223    0.9971 C   0  0  0  0  0  0  0  0  0  0  0  0
   -4.4707    0.7048    1.3616 C   0  0  0  0  0  0  0  0  0  0  0  0
   -4.3415    1.8130    2.3987 C   0  0  0  0  0  0  0  0  0  0  0  0
   -2.4773   -0.6229    2.2472 C   0  0  0  0  0  0  0  0  0  0  0  0
   -1.1657   -1.2224    1.9764 N   0  0  0  0  0  0  0  0  0  0  0  0
   -0.0909   -0.3786    1.7476 C   0  0  0  0  0  0  0  0  0  0  0  0
   -0.1178    0.8446    1.7797 O   0  0  0  0  0  0  0  0  0  0  0  0
    1.1384   -1.1651    1.4614 C   0  0  0  0  0  0  0  0  0  0  0  0
    2.2845   -0.5536    1.1275 C   0  0  0  0  0  0  0  0  0  0  0  0
    3.5497   -1.1310    0.7993 C   0  0  0  0  0  0  0  0  0  0  0  0
    4.1262   -2.2368    1.3802 C   0  0  0  0  0  0  0  0  0  0  0  0
    5.3129   -2.4234    0.7386 N   0  0  0  0  0  0  0  0  0  0  0  0
    5.5617   -1.5120   -0.2104 N   0  0  0  0  0  0  0  0  0  0  0  0
    4.5020   -0.6866   -0.1721 C   0  0  0  0  0  0  0  0  0  0  0  0
    4.4244    0.4564   -1.0780 C   0  0  0  0  0  0  0  0  0  0  0  0
    4.5391    0.2593   -2.4605 C   0  0  0  0  0  0  0  0  0  0  0  0
    4.4552    1.3422   -3.3381 C   0  0  0  0  0  0  0  0  0  0  0  0
    4.2639    2.6299   -2.8393 C   0  0  0  0  0  0  0  0  0  0  0  0
    4.1644    2.8377   -1.4641 C   0  0  0  0  0  0  0  0  0  0  0  0
    4.2485    1.7554   -0.5848 C   0  0  0  0  0  0  0  0  0  0  0  0
    0.7983   -2.8421    1.5745 S   0  0  0  0  0  0  0  0  0  0  0  0
   -0.8974   -2.5756    1.9601 C   0  0  0  0  0  0  0  0  0  0  0  0
   -1.9400   -3.8458    2.2486 S   0  0  0  0  0  0  0  0  0  0  0  0
   -1.1130    1.0476   -2.9285 H   0  0  0  0  0  0  0  0  0  0  0  0
   -1.5575   -0.6660   -2.9887 H   0  0  0  0  0  0  0  0  0  0  0  0
   -1.0554    0.0754   -1.4555 H   0  0  0  0  0  0  0  0  0  0  0  0
   -3.0875    1.5224   -1.4764 H   0  0  0  0  0  0  0  0  0  0  0  0
   -3.5383    0.8942   -3.0505 H   0  0  0  0  0  0  0  0  0  0  0  0
   -4.9098   -0.1598   -1.3313 H   0  0  0  0  0  0  0  0  0  0  0  0
   -3.9262   -1.3428   -2.1587 H   0  0  0  0  0  0  0  0  0  0  0  0
   -4.0258   -1.8043    0.2395 H   0  0  0  0  0  0  0  0  0  0  0  0
   -2.3897   -1.5394   -0.3264 H   0  0  0  0  0  0  0  0  0  0  0  0
   -2.4535    0.7955    0.6206 H   0  0  0  0  0  0  0  0  0  0  0  0
   -4.9098    1.1546    0.4647 H   0  0  0  0  0  0  0  0  0  0  0  0
   -5.1865   -0.0432    1.7233 H   0  0  0  0  0  0  0  0  0  0  0  0
   -3.5736    2.5368    2.1082 H   0  0  0  0  0  0  0  0  0  0  0  0
   -5.2922    2.3478    2.4939 H   0  0  0  0  0  0  0  0  0  0  0  0
   -4.0929    1.4152    3.3866 H   0  0  0  0  0  0  0  0  0  0  0  0
   -2.3074    0.1446    3.0107 H   0  0  0  0  0  0  0  0  0  0  0  0
   -3.1583   -1.3579    2.6858 H   0  0  0  0  0  0  0  0  0  0  0  0
    2.2468    0.5335    1.0598 H   0  0  0  0  0  0  0  0  0  0  0  0
    3.8138   -2.9016    2.1724 H   0  0  0  0  0  0  0  0  0  0  0  0
    6.0026   -3.1506    0.8965 H   0  0  0  0  0  0  0  0  0  0  0  0
    4.6973   -0.7421   -2.8552 H   0  0  0  0  0  0  0  0  0  0  0  0
    4.5445    1.1797   -4.4089 H   0  0  0  0  0  0  0  0  0  0  0  0
    4.2020    3.4731   -3.5224 H   0  0  0  0  0  0  0  0  0  0  0  0
    4.0288    3.8437   -1.0751 H   0  0  0  0  0  0  0  0  0  0  0  0
    4.1931    1.9375    0.4854 H   0  0  0  0  0  0  0  0  0  0  0  0
  1  2  1  0
  2  3  1  0
  3  4  1  0
  4  5  1  0
  5  6  1  0
  6  7  1  0
  5  8  1  0
  8  9  1  0
  9 10  1  0
 10 11  2  0
 10 12  1  0
 12 13  2  3
 13 14  1  0
 14 15  2  0
 15 16  1  0
 16 17  1  0
 17 18  2  0
 18 19  1  0
 19 20  2  0
 20 21  1  0
 21 22  2  0
 22 23  1  0
 23 24  2  0
 12 25  1  0
 25 26  1  0
 26 27  2  0
 26  9  1  0
 18 14  1  0
 24 19  1  0
  1 28  1  0
  1 29  1  0
  1 30  1  0
  2 31  1  0
  2 32  1  0
  3 33  1  0
  3 34  1  0
  4 35  1  0
  4 36  1  0
  5 37  1  0
  6 38  1  0
  6 39  1  0
  7 40  1  0
  7 41  1  0
  7 42  1  0
  8 43  1  0
  8 44  1  0
 13 45  1  0
 15 46  1  0
 16 47  1  0
 20 48  1  0
 21 49  1  0
 22 50  1  0
 23 51  1  0
 24 52  1  0
M  END
$$$$
