
     RDKit          3D

 37 38  0  0  0  0  0  0  0  0999 V2000
   -3.1543    2.8692   -0.3174 C   0  0  0  0  0  0  0  0  0  0  0  0
   -2.1413    1.9396   -0.6766 O   0  0  0  0  0  0  0  0  0  0  0  0
   -2.2697    0.6526   -0.2201 C   0  0  0  0  0  0  0  0  0  0  0  0
   -3.3057    0.2064    0.6132 C   0  0  0  0  0  0  0  0  0  0  0  0
   -3.3530   -1.1163    1.0683 C   0  0  0  0  0  0  0  0  0  0  0  0
   -4.4551   -1.5709    1.8059 N   0  0  0  0  0  0  0  0  0  0  0  0
   -2.4069   -2.0230    0.5951 C   0  0  0  0  0  0  0  0  0  0  0  0
   -1.3676   -1.5947   -0.2312 C   0  0  0  0  0  0  0  0  0  0  0  0
   -1.2817   -0.2547   -0.6426 C   0  0  0  0  0  0  0  0  0  0  0  0
   -0.1252    0.1647   -1.5290 C   0  0  0  0  0  0  0  0  0  0  0  0
    1.1643    0.4057   -0.7687 C   0  0  0  0  0  0  0  0  0  0  0  0
    1.3367    1.6272   -0.0979 C   0  0  0  0  0  0  0  0  0  0  0  0
    2.5015    1.8876    0.6246 C   0  0  0  0  0  0  0  0  0  0  0  0
    3.4966    0.9187    0.7342 C   0  0  0  0  0  0  0  0  0  0  0  0
    4.7099    1.2254    1.3660 N   0  0  0  0  0  0  0  0  0  0  0  0
    3.3555   -0.2766    0.0198 C   0  0  0  0  0  0  0  0  0  0  0  0
    2.1923   -0.5527   -0.7135 C   0  0  0  0  0  0  0  0  0  0  0  0
    1.9710   -1.7142   -1.4080 O   0  0  0  0  0  0  0  0  0  0  0  0
    3.0203   -2.6727   -1.4393 C   0  0  0  0  0  0  0  0  0  0  0  0
   -2.9057    3.8290   -0.7807 H   0  0  0  0  0  0  0  0  0  0  0  0
   -3.1834    3.0216    0.7665 H   0  0  0  0  0  0  0  0  0  0  0  0
   -4.1313    2.5587   -0.7025 H   0  0  0  0  0  0  0  0  0  0  0  0
   -4.0953    0.8788    0.9289 H   0  0  0  0  0  0  0  0  0  0  0  0
   -4.2658   -2.4150    2.3377 H   0  0  0  0  0  0  0  0  0  0  0  0
   -4.8943   -0.8515    2.3711 H   0  0  0  0  0  0  0  0  0  0  0  0
   -2.4635   -3.0722    0.8702 H   0  0  0  0  0  0  0  0  0  0  0  0
   -0.6224   -2.3145   -0.5635 H   0  0  0  0  0  0  0  0  0  0  0  0
    0.0155   -0.5939   -2.3098 H   0  0  0  0  0  0  0  0  0  0  0  0
   -0.3750    1.0697   -2.0977 H   0  0  0  0  0  0  0  0  0  0  0  0
    0.5602    2.3878   -0.1450 H   0  0  0  0  0  0  0  0  0  0  0  0
    2.6180    2.8540    1.1067 H   0  0  0  0  0  0  0  0  0  0  0  0
    4.6227    1.9338    2.0882 H   0  0  0  0  0  0  0  0  0  0  0  0
    5.2211    0.4101    1.6881 H   0  0  0  0  0  0  0  0  0  0  0  0
    4.1739   -0.9868    0.0548 H   0  0  0  0  0  0  0  0  0  0  0  0
    3.2297   -3.0605   -0.4368 H   0  0  0  0  0  0  0  0  0  0  0  0
    2.6864   -3.5124   -2.0567 H   0  0  0  0  0  0  0  0  0  0  0  0
    3.9217   -2.2580   -1.9023 H   0  0  0  0  0  0  0  0  0  0  0  0
  1  2  1  0
  2  3  1  0
  3  4  2  0
  4  5  1  0
  5  6  1  0
  5  7  2  0
  7  8  1  0
  8  9  2  0
  9 10  1  0
 10 11  1  0
 11 12  2  0
 12 13  1  0
 13 14  2  0
 14 15  1  0
 14 16  1  0
 16 17  2  0
 17 18  1  0
 18 19  1  0
  9  3  1  0
 17 11  1  0
  1 20  1  0
  1 21  1  0
  1 22  1  0
  4 23  1  0
  6 24  1  0
  6 25  1  0
  7 26  1  0
  8 27  1  0
 10 28  1  0
 10 29  1  0
 12 30  1  0
 13 31  1  0
 15 32  1  0
 15 33  1  0
 16 34  1  0
 19 35  1  0
 19 36  1  0
 19 37  1  0
M  END
$$$$
