
     RDKit          3D

 61 64  0  0  0  0  0  0  0  0999 V2000
    9.6198    0.7418   -0.4235 C   0  0  0  0  0  0  0  0  0  0  0  0
    8.1304    0.8069   -0.2582 C   0  0  0  0  0  0  0  0  0  0  0  0
    7.4979    0.0454    0.7307 C   0  0  0  0  0  0  0  0  0  0  0  0
    6.1139    0.1195    0.9061 C   0  0  0  0  0  0  0  0  0  0  0  0
    5.3391    0.9660    0.1020 C   0  0  0  0  0  0  0  0  0  0  0  0
    3.8414    1.0271    0.2675 C   0  0  0  0  0  0  0  0  0  0  0  0
    3.1342    0.2913   -0.7694 N   0  0  0  0  0  0  0  0  0  0  0  0
    3.2602   -1.1413   -0.9104 C   0  0  0  0  0  0  0  0  0  0  0  0
    2.3066   -1.4721   -2.0422 C   0  0  0  0  0  0  0  0  0  0  0  0
    0.9347   -1.9063   -1.5348 C   0  0  0  0  0  0  0  0  0  0  0  0
    0.4758   -2.9883   -1.8911 O   0  0  0  0  0  0  0  0  0  0  0  0
    0.3156   -0.9975   -0.6962 N   0  0  0  0  0  0  0  0  0  0  0  0
   -0.9352   -1.1251   -0.0577 C   0  0  0  0  0  0  0  0  0  0  0  0
   -1.3535   -0.0477    0.7379 C   0  0  0  0  0  0  0  0  0  0  0  0
   -2.5750   -0.0913    1.4144 C   0  0  0  0  0  0  0  0  0  0  0  0
   -3.3861   -1.2203    1.2928 C   0  0  0  0  0  0  0  0  0  0  0  0
   -4.9299   -1.2684    2.1677 S   0  0  0  0  0  6  0  0  0  0  0  0
   -5.5829   -2.5308    1.8889 O   0  0  0  0  0  0  0  0  0  0  0  0
   -4.6585   -0.8474    3.5258 O   0  0  0  0  0  0  0  0  0  0  0  0
   -5.8411   -0.0380    1.3911 N   0  0  0  0  0  0  0  0  0  0  0  0
   -6.1725   -0.3234   -0.0357 C   0  0  0  0  0  0  0  0  0  0  0  0
   -6.7661    0.9270   -0.6802 C   0  0  0  0  0  0  0  0  0  0  0  0
   -7.9992    1.4070    0.0784 C   0  0  0  0  0  0  0  0  0  0  0  0
   -7.6780    1.5996    1.5574 C   0  0  0  0  0  0  0  0  0  0  0  0
   -7.0616    0.3397    2.1615 C   0  0  0  0  0  0  0  0  0  0  0  0
   -2.9827   -2.3033    0.5119 C   0  0  0  0  0  0  0  0  0  0  0  0
   -1.7592   -2.2495   -0.1651 C   0  0  0  0  0  0  0  0  0  0  0  0
    2.2438   -0.2006   -2.8872 C   0  0  0  0  0  0  0  0  0  0  0  0
    2.6801    0.8879   -1.9366 C   0  0  0  0  0  0  0  0  0  0  0  0
    2.6272    2.0839   -2.1671 O   0  0  0  0  0  0  0  0  0  0  0  0
    5.9766    1.7373   -0.8788 C   0  0  0  0  0  0  0  0  0  0  0  0
    7.3604    1.6628   -1.0529 C   0  0  0  0  0  0  0  0  0  0  0  0
   10.1088    1.3743    0.3248 H   0  0  0  0  0  0  0  0  0  0  0  0
    9.9753   -0.2885   -0.3087 H   0  0  0  0  0  0  0  0  0  0  0  0
    9.9221    1.0803   -1.4206 H   0  0  0  0  0  0  0  0  0  0  0  0
    8.0816   -0.6130    1.3706 H   0  0  0  0  0  0  0  0  0  0  0  0
    5.6470   -0.4897    1.6767 H   0  0  0  0  0  0  0  0  0  0  0  0
    3.5175    2.0748    0.2570 H   0  0  0  0  0  0  0  0  0  0  0  0
    3.5386    0.6095    1.2346 H   0  0  0  0  0  0  0  0  0  0  0  0
    4.2914   -1.3748   -1.1963 H   0  0  0  0  0  0  0  0  0  0  0  0
    3.0184   -1.6345    0.0359 H   0  0  0  0  0  0  0  0  0  0  0  0
    2.6962   -2.3097   -2.6348 H   0  0  0  0  0  0  0  0  0  0  0  0
    0.8196   -0.1410   -0.4921 H   0  0  0  0  0  0  0  0  0  0  0  0
   -0.7359    0.8414    0.8429 H   0  0  0  0  0  0  0  0  0  0  0  0
   -2.8882    0.7483    2.0315 H   0  0  0  0  0  0  0  0  0  0  0  0
   -6.8829   -1.1560   -0.1001 H   0  0  0  0  0  0  0  0  0  0  0  0
   -5.2707   -0.5965   -0.5911 H   0  0  0  0  0  0  0  0  0  0  0  0
   -6.0142    1.7262   -0.6918 H   0  0  0  0  0  0  0  0  0  0  0  0
   -7.0315    0.7169   -1.7224 H   0  0  0  0  0  0  0  0  0  0  0  0
   -8.3600    2.3481   -0.3518 H   0  0  0  0  0  0  0  0  0  0  0  0
   -8.8064    0.6719   -0.0298 H   0  0  0  0  0  0  0  0  0  0  0  0
   -6.9795    2.4387    1.6689 H   0  0  0  0  0  0  0  0  0  0  0  0
   -8.5904    1.8645    2.1027 H   0  0  0  0  0  0  0  0  0  0  0  0
   -6.7987    0.5541    3.2030 H   0  0  0  0  0  0  0  0  0  0  0  0
   -7.7842   -0.4851    2.1492 H   0  0  0  0  0  0  0  0  0  0  0  0
   -3.6045   -3.1915    0.4228 H   0  0  0  0  0  0  0  0  0  0  0  0
   -1.4766   -3.1108   -0.7629 H   0  0  0  0  0  0  0  0  0  0  0  0
    1.2422    0.0107   -3.2722 H   0  0  0  0  0  0  0  0  0  0  0  0
    2.9624   -0.2411   -3.7124 H   0  0  0  0  0  0  0  0  0  0  0  0
    5.3948    2.4031   -1.5150 H   0  0  0  0  0  0  0  0  0  0  0  0
    7.8315    2.2773   -1.8170 H   0  0  0  0  0  0  0  0  0  0  0  0
  1  2  1  0
  2  3  2  0
  3  4  1  0
  4  5  2  0
  5  6  1  0
  6  7  1  0
  7  8  1  0
  8  9  1  0
  9 10  1  0
 10 11  2  0
 10 12  1  0
 12 13  1  0
 13 14  2  0
 14 15  1  0
 15 16  2  0
 16 17  1  0
 17 18  2  0
 17 19  2  0
 17 20  1  0
 20 21  1  0
 21 22  1  0
 22 23  1  0
 23 24  1  0
 24 25  1  0
 16 26  1  0
 26 27  2  0
  9 28  1  0
 28 29  1  0
 29 30  2  0
  5 31  1  0
 31 32  2  0
 32  2  1  0
 29  7  1  0
 27 13  1  0
 25 20  1  0
  1 33  1  0
  1 34  1  0
  1 35  1  0
  3 36  1  0
  4 37  1  0
  6 38  1  0
  6 39  1  0
  8 40  1  0
  8 41  1  0
  9 42  1  0
 12 43  1  0
 14 44  1  0
 15 45  1  0
 21 46  1  0
 21 47  1  0
 22 48  1  0
 22 49  1  0
 23 50  1  0
 23 51  1  0
 24 52  1  0
 24 53  1  0
 25 54  1  0
 25 55  1  0
 26 56  1  0
 27 57  1  0
 28 58  1  0
 28 59  1  0
 31 60  1  0
 32 61  1  0
M  END
$$$$
