
     RDKit          3D

 54 56  0  0  0  0  0  0  0  0999 V2000
    7.0125    1.6681   -0.6049 C   0  0  0  0  0  0  0  0  0  0  0  0
    6.2261    0.5674    0.1007 C   0  0  0  0  0  0  0  0  0  0  0  0
    4.8876    1.0049    0.5166 N   0  0  0  0  0  0  0  0  0  0  0  0
    4.2248   -0.0005    1.3749 C   0  0  0  0  0  0  0  0  0  0  0  0
    3.2883   -0.9980    0.6518 C   0  0  0  0  0  0  0  0  0  0  0  0
    2.2799   -0.3075   -0.1729 N   0  0  0  0  0  0  0  0  0  0  0  0
    0.9491   -0.7068   -0.0927 C   0  0  0  0  0  0  0  0  0  0  0  0
    0.6115   -2.0424    0.0013 C   0  0  0  0  0  0  0  0  0  0  0  0
   -0.7275   -2.3601    0.0749 C   0  0  0  0  0  0  0  0  0  0  0  0
   -1.1815   -4.0856    0.2068 S   0  0  0  0  0  0  0  0  0  0  0  0
   -2.9886   -3.9814    0.5109 C   0  0  0  0  0  0  0  0  0  0  0  0
   -3.7478   -3.8372   -0.8068 C   0  0  0  0  0  0  0  0  0  0  0  0
   -3.4229   -5.2563    1.2345 C   0  0  0  0  0  0  0  0  0  0  0  0
   -1.6958   -1.4374    0.0484 N   0  0  0  0  0  0  0  0  0  0  0  0
   -1.2983   -0.1627   -0.0748 C   0  0  0  0  0  0  0  0  0  0  0  0
   -2.3425    0.8818   -0.1284 C   0  0  0  0  0  0  0  0  0  0  0  0
   -2.0174    2.2434   -0.2779 C   0  0  0  0  0  0  0  0  0  0  0  0
   -3.0041    3.2395   -0.3295 C   0  0  0  0  0  0  0  0  0  0  0  0
   -4.3498    2.8972   -0.2305 C   0  0  0  0  0  0  0  0  0  0  0  0
   -5.4075    3.7627   -0.2595 O   0  0  0  0  0  0  0  0  0  0  0  0
   -5.1064    5.1369   -0.4659 C   0  0  0  0  0  0  0  0  0  0  0  0
   -4.6959    1.5551   -0.0812 C   0  0  0  0  0  0  0  0  0  0  0  0
   -3.7092    0.5633   -0.0321 C   0  0  0  0  0  0  0  0  0  0  0  0
   -0.0124    0.2292   -0.1521 N   0  0  0  0  0  0  0  0  0  0  0  0
    2.5228    1.1247   -0.4154 C   0  0  0  0  0  0  0  0  0  0  0  0
    4.0331    1.3642   -0.6411 C   0  0  0  0  0  0  0  0  0  0  0  0
    7.0742    2.5682    0.0162 H   0  0  0  0  0  0  0  0  0  0  0  0
    8.0344    1.3275   -0.8030 H   0  0  0  0  0  0  0  0  0  0  0  0
    6.5630    1.9399   -1.5649 H   0  0  0  0  0  0  0  0  0  0  0  0
    6.8036    0.2831    0.9895 H   0  0  0  0  0  0  0  0  0  0  0  0
    6.1708   -0.3198   -0.5426 H   0  0  0  0  0  0  0  0  0  0  0  0
    3.6228    0.5559    2.1060 H   0  0  0  0  0  0  0  0  0  0  0  0
    4.9570   -0.5560    1.9738 H   0  0  0  0  0  0  0  0  0  0  0  0
    3.8797   -1.6530    0.0017 H   0  0  0  0  0  0  0  0  0  0  0  0
    2.8262   -1.6265    1.4225 H   0  0  0  0  0  0  0  0  0  0  0  0
    1.3654   -2.8174   -0.0010 H   0  0  0  0  0  0  0  0  0  0  0  0
   -3.2088   -3.1340    1.1681 H   0  0  0  0  0  0  0  0  0  0  0  0
   -4.8261   -3.7911   -0.6134 H   0  0  0  0  0  0  0  0  0  0  0  0
   -3.4748   -2.9214   -1.3419 H   0  0  0  0  0  0  0  0  0  0  0  0
   -3.5688   -4.6879   -1.4748 H   0  0  0  0  0  0  0  0  0  0  0  0
   -4.4987   -5.2272    1.4440 H   0  0  0  0  0  0  0  0  0  0  0  0
   -2.9080   -5.3646    2.1962 H   0  0  0  0  0  0  0  0  0  0  0  0
   -3.2299   -6.1539    0.6353 H   0  0  0  0  0  0  0  0  0  0  0  0
   -0.9736    2.5444   -0.3563 H   0  0  0  0  0  0  0  0  0  0  0  0
   -2.6806    4.2685   -0.4446 H   0  0  0  0  0  0  0  0  0  0  0  0
   -4.6280    5.2928   -1.4378 H   0  0  0  0  0  0  0  0  0  0  0  0
   -6.0507    5.6895   -0.4665 H   0  0  0  0  0  0  0  0  0  0  0  0
   -4.4901    5.5345    0.3467 H   0  0  0  0  0  0  0  0  0  0  0  0
   -5.7434    1.2738   -0.0023 H   0  0  0  0  0  0  0  0  0  0  0  0
   -4.0222   -0.4728    0.0847 H   0  0  0  0  0  0  0  0  0  0  0  0
    1.9893    1.4525   -1.3162 H   0  0  0  0  0  0  0  0  0  0  0  0
    2.1704    1.7297    0.4298 H   0  0  0  0  0  0  0  0  0  0  0  0
    4.3259    0.7814   -1.5254 H   0  0  0  0  0  0  0  0  0  0  0  0
    4.1929    2.4219   -0.8792 H   0  0  0  0  0  0  0  0  0  0  0  0
  1  2  1  0
  2  3  1  0
  3  4  1  0
  4  5  1  0
  5  6  1  0
  6  7  1  0
  7  8  2  0
  8  9  1  0
  9 10  1  0
 10 11  1  0
 11 12  1  0
 11 13  1  0
  9 14  2  0
 14 15  1  0
 15 16  1  0
 16 17  2  0
 17 18  1  0
 18 19  2  0
 19 20  1  0
 20 21  1  0
 19 22  1  0
 22 23  2  0
 15 24  2  0
  6 25  1  0
 25 26  1  0
 26  3  1  0
 24  7  1  0
 23 16  1  0
  1 27  1  0
  1 28  1  0
  1 29  1  0
  2 30  1  0
  2 31  1  0
  4 32  1  0
  4 33  1  0
  5 34  1  0
  5 35  1  0
  8 36  1  0
 11 37  1  0
 12 38  1  0
 12 39  1  0
 12 40  1  0
 13 41  1  0
 13 42  1  0
 13 43  1  0
 17 44  1  0
 18 45  1  0
 21 46  1  0
 21 47  1  0
 21 48  1  0
 22 49  1  0
 23 50  1  0
 25 51  1  0
 25 52  1  0
 26 53  1  0
 26 54  1  0
M  END
$$$$
