
     RDKit          3D

 42 44  0  0  0  0  0  0  0  0999 V2000
   -1.8883   -5.4632   -0.9017 C   0  0  0  0  0  0  0  0  0  0  0  0
   -1.2957   -4.0894   -0.6397 C   0  0  0  0  0  0  0  0  0  0  0  0
   -2.6308   -2.8961   -0.3018 S   0  0  0  0  0  0  0  0  0  0  0  0
   -1.6807   -1.4057   -0.0240 C   0  0  0  0  0  0  0  0  0  0  0  0
   -2.3556   -0.2482    0.2996 C   0  0  0  0  0  0  0  0  0  0  0  0
   -1.6063    0.8908    0.5049 C   0  0  0  0  0  0  0  0  0  0  0  0
   -2.1892    2.0895    0.8451 N   0  0  0  0  0  0  0  0  0  0  0  0
   -1.3597    3.2790    1.0000 C   0  0  0  0  0  0  0  0  0  0  0  0
   -2.3799    4.3723    1.3008 C   0  0  0  0  0  0  0  0  0  0  0  0
   -3.5689    3.9605    0.4475 C   0  0  0  0  0  0  0  0  0  0  0  0
   -3.5752    2.4345    0.5504 C   0  0  0  0  0  0  0  0  0  0  0  0
   -0.2668    0.8437    0.4084 N   0  0  0  0  0  0  0  0  0  0  0  0
    0.3177   -0.3257    0.0879 C   0  0  0  0  0  0  0  0  0  0  0  0
    1.7914   -0.3523   -0.0209 C   0  0  0  0  0  0  0  0  0  0  0  0
    2.4841   -1.5270   -0.3703 C   0  0  0  0  0  0  0  0  0  0  0  0
    3.8801   -1.5538   -0.4742 C   0  0  0  0  0  0  0  0  0  0  0  0
    4.6302   -0.3988   -0.2410 C   0  0  0  0  0  0  0  0  0  0  0  0
    6.1272   -0.4334   -0.3182 C   0  0  0  0  0  0  0  0  0  0  0  0
    3.9645    0.7742    0.1217 C   0  0  0  0  0  0  0  0  0  0  0  0
    2.5683    0.7955    0.2242 C   0  0  0  0  0  0  0  0  0  0  0  0
   -0.3482   -1.4671   -0.1407 N   0  0  0  0  0  0  0  0  0  0  0  0
   -2.5516   -5.4559   -1.7733 H   0  0  0  0  0  0  0  0  0  0  0  0
   -1.0866   -6.1817   -1.1027 H   0  0  0  0  0  0  0  0  0  0  0  0
   -2.4517   -5.8302   -0.0370 H   0  0  0  0  0  0  0  0  0  0  0  0
   -0.6211   -4.1415    0.2209 H   0  0  0  0  0  0  0  0  0  0  0  0
   -0.7250   -3.7655   -1.5160 H   0  0  0  0  0  0  0  0  0  0  0  0
   -3.4319   -0.2460    0.4008 H   0  0  0  0  0  0  0  0  0  0  0  0
   -0.6373    3.1811    1.8173 H   0  0  0  0  0  0  0  0  0  0  0  0
   -0.8268    3.5068    0.0685 H   0  0  0  0  0  0  0  0  0  0  0  0
   -2.0081    5.3718    1.0593 H   0  0  0  0  0  0  0  0  0  0  0  0
   -2.6558    4.3521    2.3620 H   0  0  0  0  0  0  0  0  0  0  0  0
   -4.5095    4.4060    0.7833 H   0  0  0  0  0  0  0  0  0  0  0  0
   -3.4014    4.2629   -0.5935 H   0  0  0  0  0  0  0  0  0  0  0  0
   -3.9384    1.9995   -0.3873 H   0  0  0  0  0  0  0  0  0  0  0  0
   -4.2206    2.1047    1.3720 H   0  0  0  0  0  0  0  0  0  0  0  0
    1.9326   -2.4454   -0.5647 H   0  0  0  0  0  0  0  0  0  0  0  0
    4.3734   -2.4862   -0.7398 H   0  0  0  0  0  0  0  0  0  0  0  0
    6.4632   -1.1631   -1.0625 H   0  0  0  0  0  0  0  0  0  0  0  0
    6.5257    0.5418   -0.6172 H   0  0  0  0  0  0  0  0  0  0  0  0
    6.5460   -0.7030    0.6562 H   0  0  0  0  0  0  0  0  0  0  0  0
    4.5240    1.6839    0.3281 H   0  0  0  0  0  0  0  0  0  0  0  0
    2.0826    1.7290    0.5051 H   0  0  0  0  0  0  0  0  0  0  0  0
  1  2  1  0
  2  3  1  0
  3  4  1  0
  4  5  2  0
  5  6  1  0
  6  7  1  0
  7  8  1  0
  8  9  1  0
  9 10  1  0
 10 11  1  0
  6 12  2  0
 12 13  1  0
 13 14  1  0
 14 15  2  0
 15 16  1  0
 16 17  2  0
 17 18  1  0
 17 19  1  0
 19 20  2  0
 13 21  2  0
 21  4  1  0
 11  7  1  0
 20 14  1  0
  1 22  1  0
  1 23  1  0
  1 24  1  0
  2 25  1  0
  2 26  1  0
  5 27  1  0
  8 28  1  0
  8 29  1  0
  9 30  1  0
  9 31  1  0
 10 32  1  0
 10 33  1  0
 11 34  1  0
 11 35  1  0
 15 36  1  0
 16 37  1  0
 18 38  1  0
 18 39  1  0
 18 40  1  0
 19 41  1  0
 20 42  1  0
M  END
$$$$
