
     RDKit          3D

 43 46  0  0  0  0  0  0  0  0999 V2000
    2.4212    1.1755    1.5960 O   0  0  0  0  0  0  0  0  0  0  0  0
    2.8860    0.3143    0.8519 C   0  0  0  0  0  0  0  0  0  0  0  0
    4.2949    0.4265    0.4345 C   0  0  0  0  0  0  0  0  0  0  0  0
    5.1157    1.4499    0.9210 C   0  0  0  0  0  0  0  0  0  0  0  0
    6.4441    1.5304    0.5010 C   0  0  0  0  0  0  0  0  0  0  0  0
    6.9476    0.5926   -0.4021 C   0  0  0  0  0  0  0  0  0  0  0  0
    6.1251   -0.4269   -0.8873 C   0  0  0  0  0  0  0  0  0  0  0  0
    4.7981   -0.5039   -0.4632 C   0  0  0  0  0  0  0  0  0  0  0  0
    3.9705   -1.5136   -0.9463 N   0  0  0  0  0  0  0  0  0  0  0  0
    2.6626   -1.6770   -0.5776 C   0  0  0  0  0  0  0  0  0  0  0  0
    1.8485   -2.9540   -1.3022 S   0  0  0  0  0  0  0  0  0  0  0  0
    2.1510   -0.7719    0.3514 N   0  0  0  0  0  0  0  0  0  0  0  0
    0.7536   -0.8494    0.8155 C   0  0  0  0  0  0  0  0  0  0  0  0
   -0.1892   -0.0026   -0.0652 C   0  0  0  0  0  0  0  0  0  0  0  0
   -1.6090   -0.1228    0.3189 N   0  0  0  0  0  0  0  0  0  0  0  0
   -2.1989   -1.3889   -0.1502 C   0  0  0  0  0  0  0  0  0  0  0  0
   -3.6166   -1.5677    0.4112 C   0  0  0  0  0  0  0  0  0  0  0  0
   -4.4747   -0.3446    0.2184 C   0  0  0  0  0  0  0  0  0  0  0  0
   -5.8656   -0.4274    0.3664 C   0  0  0  0  0  0  0  0  0  0  0  0
   -6.6577    0.7110    0.2228 C   0  0  0  0  0  0  0  0  0  0  0  0
   -6.0666    1.9396   -0.0625 C   0  0  0  0  0  0  0  0  0  0  0  0
   -4.6814    2.0323   -0.2011 C   0  0  0  0  0  0  0  0  0  0  0  0
   -3.8722    0.8963   -0.0498 C   0  0  0  0  0  0  0  0  0  0  0  0
   -2.3749    1.0079   -0.2474 C   0  0  0  0  0  0  0  0  0  0  0  0
    4.7234    2.1819    1.6240 H   0  0  0  0  0  0  0  0  0  0  0  0
    7.0853    2.3241    0.8777 H   0  0  0  0  0  0  0  0  0  0  0  0
    7.9832    0.6572   -0.7285 H   0  0  0  0  0  0  0  0  0  0  0  0
    6.5315   -1.1486   -1.5905 H   0  0  0  0  0  0  0  0  0  0  0  0
    4.3377   -2.1847   -1.6122 H   0  0  0  0  0  0  0  0  0  0  0  0
    0.6979   -0.4901    1.8511 H   0  0  0  0  0  0  0  0  0  0  0  0
    0.4404   -1.8958    0.8481 H   0  0  0  0  0  0  0  0  0  0  0  0
   -0.0545   -0.2485   -1.1264 H   0  0  0  0  0  0  0  0  0  0  0  0
    0.1266    1.0437    0.0426 H   0  0  0  0  0  0  0  0  0  0  0  0
   -2.2228   -1.4204   -1.2482 H   0  0  0  0  0  0  0  0  0  0  0  0
   -1.6066   -2.2485    0.1803 H   0  0  0  0  0  0  0  0  0  0  0  0
   -3.5602   -1.7804    1.4863 H   0  0  0  0  0  0  0  0  0  0  0  0
   -4.0836   -2.4306   -0.0782 H   0  0  0  0  0  0  0  0  0  0  0  0
   -6.3362   -1.3800    0.5974 H   0  0  0  0  0  0  0  0  0  0  0  0
   -7.7360    0.6400    0.3371 H   0  0  0  0  0  0  0  0  0  0  0  0
   -6.6842    2.8266   -0.1750 H   0  0  0  0  0  0  0  0  0  0  0  0
   -4.2332    2.9975   -0.4253 H   0  0  0  0  0  0  0  0  0  0  0  0
   -2.1868    1.0996   -1.3258 H   0  0  0  0  0  0  0  0  0  0  0  0
   -2.0341    1.9317    0.2370 H   0  0  0  0  0  0  0  0  0  0  0  0
  1  2  2  0
  2  3  1  0
  3  4  2  0
  4  5  1  0
  5  6  2  0
  6  7  1  0
  7  8  2  0
  8  9  1  0
  9 10  1  0
 10 11  2  0
 10 12  1  0
 12 13  1  0
 13 14  1  0
 14 15  1  0
 15 16  1  0
 16 17  1  0
 17 18  1  0
 18 19  2  0
 19 20  1  0
 20 21  2  0
 21 22  1  0
 22 23  2  0
 23 24  1  0
 12  2  1  0
 24 15  1  0
  8  3  1  0
 23 18  1  0
  4 25  1  0
  5 26  1  0
  6 27  1  0
  7 28  1  0
  9 29  1  0
 13 30  1  0
 13 31  1  0
 14 32  1  0
 14 33  1  0
 16 34  1  0
 16 35  1  0
 17 36  1  0
 17 37  1  0
 19 38  1  0
 20 39  1  0
 21 40  1  0
 22 41  1  0
 24 42  1  0
 24 43  1  0
M  END
$$$$
