
     RDKit          3D

 57 61  0  0  0  0  0  0  0  0999 V2000
   -6.8136   -3.7960    1.8386 C   0  0  0  0  0  0  0  0  0  0  0  0
   -6.0006   -2.6936    1.2286 C   0  0  0  0  0  0  0  0  0  0  0  0
   -6.5615   -1.8432    0.2739 C   0  0  0  0  0  0  0  0  0  0  0  0
   -5.7918   -0.8344   -0.3162 C   0  0  0  0  0  0  0  0  0  0  0  0
   -4.4366   -0.6496    0.0134 C   0  0  0  0  0  0  0  0  0  0  0  0
   -3.6448    0.4217   -0.6301 C   0  0  0  0  0  0  0  0  0  0  0  0
   -2.2787    0.3350   -0.8362 C   0  0  0  0  0  0  0  0  0  0  0  0
   -1.6308    1.4052   -1.4566 C   0  0  0  0  0  0  0  0  0  0  0  0
   -0.1679    1.2945   -1.6496 C   0  0  0  0  0  0  0  0  0  0  0  0
    0.2678    1.2414   -2.7903 O   0  0  0  0  0  0  0  0  0  0  0  0
    0.5399    1.2690   -0.4631 N   0  0  0  0  0  0  0  0  0  0  0  0
    1.9363    1.1566   -0.3040 C   0  0  0  0  0  0  0  0  0  0  0  0
    2.4347    1.1961    1.0067 C   0  0  0  0  0  0  0  0  0  0  0  0
    3.8064    1.0910    1.2537 C   0  0  0  0  0  0  0  0  0  0  0  0
    4.6865    0.9367    0.1826 C   0  0  0  0  0  0  0  0  0  0  0  0
    6.4363    0.8395    0.4715 S   0  0  0  0  0  6  0  0  0  0  0  0
    6.7026    1.0709    1.8757 O   0  0  0  0  0  0  0  0  0  0  0  0
    7.0624    1.6777   -0.5327 O   0  0  0  0  0  0  0  0  0  0  0  0
    6.8184   -0.7227    0.0645 N   0  0  0  0  0  0  0  0  0  0  0  0
    6.6062   -1.7064    1.0207 C   0  0  0  0  0  0  0  0  0  0  0  0
    5.4504   -1.7317    1.6868 N   0  0  0  0  0  0  0  0  0  0  0  0
    5.2647   -2.8002    2.4829 C   0  0  0  0  0  0  0  0  0  0  0  0
    6.1663   -3.8337    2.5886 C   0  0  0  0  0  0  0  0  0  0  0  0
    7.2943   -3.7181    1.8098 C   0  0  0  0  0  0  0  0  0  0  0  0
    7.5313   -2.6713    0.9978 N   0  0  0  0  0  0  0  0  0  0  0  0
    4.2067    0.9057   -1.1282 C   0  0  0  0  0  0  0  0  0  0  0  0
    2.8321    1.0103   -1.3668 C   0  0  0  0  0  0  0  0  0  0  0  0
   -2.3384    2.5445   -1.8863 C   0  0  0  0  0  0  0  0  0  0  0  0
   -1.7571    3.6662   -2.5294 C   0  0  0  0  0  0  0  0  0  0  0  0
   -2.5359    4.7565   -2.9108 C   0  0  0  0  0  0  0  0  0  0  0  0
   -3.8995    4.7429   -2.6552 C   0  0  0  0  0  0  0  0  0  0  0  0
   -4.4738    3.6381   -2.0217 C   0  0  0  0  0  0  0  0  0  0  0  0
   -3.7199    2.5385   -1.6327 C   0  0  0  0  0  0  0  0  0  0  0  0
   -4.3449    1.5154   -1.0230 N   0  0  0  0  0  0  0  0  0  0  0  0
   -3.8881   -1.5205    0.9723 C   0  0  0  0  0  0  0  0  0  0  0  0
   -4.6548   -2.5315    1.5659 C   0  0  0  0  0  0  0  0  0  0  0  0
   -7.8695   -3.5129    1.9039 H   0  0  0  0  0  0  0  0  0  0  0  0
   -6.4732   -4.0153    2.8560 H   0  0  0  0  0  0  0  0  0  0  0  0
   -6.7274   -4.7035    1.2332 H   0  0  0  0  0  0  0  0  0  0  0  0
   -7.6029   -1.9536   -0.0201 H   0  0  0  0  0  0  0  0  0  0  0  0
   -6.2623   -0.1842   -1.0530 H   0  0  0  0  0  0  0  0  0  0  0  0
   -1.7207   -0.5527   -0.5584 H   0  0  0  0  0  0  0  0  0  0  0  0
    0.0063    1.3865    0.3899 H   0  0  0  0  0  0  0  0  0  0  0  0
    1.7650    1.3124    1.8550 H   0  0  0  0  0  0  0  0  0  0  0  0
    4.1773    1.1234    2.2757 H   0  0  0  0  0  0  0  0  0  0  0  0
    7.7039   -0.8157   -0.4186 H   0  0  0  0  0  0  0  0  0  0  0  0
    4.3365   -2.8038    3.0470 H   0  0  0  0  0  0  0  0  0  0  0  0
    5.9955   -4.6845    3.2334 H   0  0  0  0  0  0  0  0  0  0  0  0
    8.0602   -4.4885    1.8117 H   0  0  0  0  0  0  0  0  0  0  0  0
    4.8910    0.8043   -1.9676 H   0  0  0  0  0  0  0  0  0  0  0  0
    2.4938    0.9775   -2.3981 H   0  0  0  0  0  0  0  0  0  0  0  0
   -0.6903    3.6908   -2.7477 H   0  0  0  0  0  0  0  0  0  0  0  0
   -2.0780    5.6075   -3.4087 H   0  0  0  0  0  0  0  0  0  0  0  0
   -4.5211    5.5849   -2.9484 H   0  0  0  0  0  0  0  0  0  0  0  0
   -5.5440    3.6350   -1.8258 H   0  0  0  0  0  0  0  0  0  0  0  0
   -2.8529   -1.4201    1.2883 H   0  0  0  0  0  0  0  0  0  0  0  0
   -4.1917   -3.1880    2.2995 H   0  0  0  0  0  0  0  0  0  0  0  0
  1  2  1  0
  2  3  2  0
  3  4  1  0
  4  5  2  0
  5  6  1  0
  6  7  2  0
  7  8  1  0
  8  9  1  0
  9 10  2  0
  9 11  1  0
 11 12  1  0
 12 13  2  0
 13 14  1  0
 14 15  2  0
 15 16  1  0
 16 17  2  0
 16 18  2  0
 16 19  1  0
 19 20  1  0
 20 21  2  0
 21 22  1  0
 22 23  2  0
 23 24  1  0
 24 25  2  0
 15 26  1  0
 26 27  2  0
  8 28  2  0
 28 29  1  0
 29 30  2  0
 30 31  1  0
 31 32  2  0
 32 33  1  0
 33 34  2  0
  5 35  1  0
 35 36  2  0
 36  2  1  0
 34  6  1  0
 27 12  1  0
 33 28  1  0
 25 20  1  0
  1 37  1  0
  1 38  1  0
  1 39  1  0
  3 40  1  0
  4 41  1  0
  7 42  1  0
 11 43  1  0
 13 44  1  0
 14 45  1  0
 19 46  1  0
 22 47  1  0
 23 48  1  0
 24 49  1  0
 26 50  1  0
 27 51  1  0
 29 52  1  0
 30 53  1  0
 31 54  1  0
 32 55  1  0
 35 56  1  0
 36 57  1  0
M  END
$$$$
