
     RDKit          3D

 43 45  0  0  0  0  0  0  0  0999 V2000
   -3.2950   -2.8317   -0.8208 C   0  0  0  0  0  0  0  0  0  0  0  0
   -2.9239   -1.9990   -2.0456 C   0  0  0  0  0  0  0  0  0  0  0  0
   -3.7492   -2.4388   -3.2541 C   0  0  0  0  0  0  0  0  0  0  0  0
   -1.1469   -2.2091   -2.4585 S   0  0  0  0  0  0  0  0  0  0  0  0
   -0.3550   -1.2030   -1.2107 C   0  0  0  0  0  0  0  0  0  0  0  0
    1.0118   -1.2929   -1.0674 C   0  0  0  0  0  0  0  0  0  0  0  0
    1.6038   -0.4935   -0.1087 C   0  0  0  0  0  0  0  0  0  0  0  0
    3.0003   -0.5471    0.0731 N   0  0  0  0  0  0  0  0  0  0  0  0
    3.5018    0.1357    1.2889 C   0  0  0  0  0  0  0  0  0  0  0  0
    4.0144    1.5414    0.9462 C   0  0  0  0  0  0  0  0  0  0  0  0
    5.1100    1.5334    0.0121 O   0  0  0  0  0  0  0  0  0  0  0  0
    5.1406    0.3603   -0.8161 C   0  0  0  0  0  0  0  0  0  0  0  0
    3.7394   -0.1705   -1.1594 C   0  0  0  0  0  0  0  0  0  0  0  0
    0.8614    0.3223    0.6561 N   0  0  0  0  0  0  0  0  0  0  0  0
   -0.4680    0.3532    0.4492 C   0  0  0  0  0  0  0  0  0  0  0  0
   -1.2766    1.2559    1.2962 C   0  0  0  0  0  0  0  0  0  0  0  0
   -2.6728    1.3644    1.1334 C   0  0  0  0  0  0  0  0  0  0  0  0
   -3.4418    2.2150    1.9368 C   0  0  0  0  0  0  0  0  0  0  0  0
   -2.8257    2.9775    2.9231 C   0  0  0  0  0  0  0  0  0  0  0  0
   -3.7675    4.0219    3.9134 Cl  0  0  0  0  0  0  0  0  0  0  0  0
   -1.4502    2.8968    3.1114 C   0  0  0  0  0  0  0  0  0  0  0  0
   -0.6865    2.0444    2.3047 C   0  0  0  0  0  0  0  0  0  0  0  0
   -1.1099   -0.3794   -0.4725 N   0  0  0  0  0  0  0  0  0  0  0  0
   -3.1210   -3.9011   -0.9872 H   0  0  0  0  0  0  0  0  0  0  0  0
   -2.7329   -2.5291    0.0679 H   0  0  0  0  0  0  0  0  0  0  0  0
   -4.3589   -2.7051   -0.5879 H   0  0  0  0  0  0  0  0  0  0  0  0
   -3.1380   -0.9406   -1.8618 H   0  0  0  0  0  0  0  0  0  0  0  0
   -3.5916   -3.4965   -3.4959 H   0  0  0  0  0  0  0  0  0  0  0  0
   -4.8179   -2.3043   -3.0530 H   0  0  0  0  0  0  0  0  0  0  0  0
   -3.5082   -1.8416   -4.1407 H   0  0  0  0  0  0  0  0  0  0  0  0
    1.5969   -1.9762   -1.6683 H   0  0  0  0  0  0  0  0  0  0  0  0
    4.3377   -0.4626    1.6735 H   0  0  0  0  0  0  0  0  0  0  0  0
    2.7643    0.1701    2.0988 H   0  0  0  0  0  0  0  0  0  0  0  0
    4.3646    2.0473    1.8516 H   0  0  0  0  0  0  0  0  0  0  0  0
    3.2153    2.1548    0.5141 H   0  0  0  0  0  0  0  0  0  0  0  0
    5.7309   -0.4050   -0.2987 H   0  0  0  0  0  0  0  0  0  0  0  0
    5.6791    0.6217   -1.7324 H   0  0  0  0  0  0  0  0  0  0  0  0
    3.8334   -1.0441   -1.8141 H   0  0  0  0  0  0  0  0  0  0  0  0
    3.2003    0.6182   -1.7018 H   0  0  0  0  0  0  0  0  0  0  0  0
   -3.1786    0.7775    0.3677 H   0  0  0  0  0  0  0  0  0  0  0  0
   -4.5160    2.2732    1.7842 H   0  0  0  0  0  0  0  0  0  0  0  0
   -0.9625    3.4896    3.8806 H   0  0  0  0  0  0  0  0  0  0  0  0
    0.3887    1.9968    2.4725 H   0  0  0  0  0  0  0  0  0  0  0  0
  1  2  1  0
  2  3  1  0
  2  4  1  0
  4  5  1  0
  5  6  2  0
  6  7  1  0
  7  8  1  0
  8  9  1  0
  9 10  1  0
 10 11  1  0
 11 12  1  0
 12 13  1  0
  7 14  2  0
 14 15  1  0
 15 16  1  0
 16 17  2  0
 17 18  1  0
 18 19  2  0
 19 20  1  0
 19 21  1  0
 21 22  2  0
 15 23  2  0
 23  5  1  0
 13  8  1  0
 22 16  1  0
  1 24  1  0
  1 25  1  0
  1 26  1  0
  2 27  1  0
  3 28  1  0
  3 29  1  0
  3 30  1  0
  6 31  1  0
  9 32  1  0
  9 33  1  0
 10 34  1  0
 10 35  1  0
 12 36  1  0
 12 37  1  0
 13 38  1  0
 13 39  1  0
 17 40  1  0
 18 41  1  0
 21 42  1  0
 22 43  1  0
M  END
$$$$
