
     RDKit          3D

 46 47  0  0  0  0  0  0  0  0999 V2000
   -0.4418   -0.9629    4.9337 C   0  0  0  0  0  0  0  0  0  0  0  0
    0.8037   -1.7423    3.8776 S   0  0  0  0  0  0  0  0  0  0  0  0
    1.3485   -0.2930    2.9112 C   0  0  0  0  0  0  0  0  0  0  0  0
    0.3138    0.2067    1.8993 C   0  0  0  0  0  0  0  0  0  0  0  0
    0.0633   -0.7511    0.7171 C   0  0  0  0  0  0  0  0  0  0  0  0
   -1.2142   -0.4310    0.0677 N   0  0  0  0  0  0  0  0  0  0  0  0
   -1.7608   -1.3033   -0.8504 C   0  0  0  0  0  0  0  0  0  0  0  0
   -1.1196   -2.2143   -1.3618 O   0  0  0  0  0  0  0  0  0  0  0  0
   -3.1707   -1.0666   -1.2735 C   0  0  0  0  0  0  0  0  0  0  0  0
   -3.4860   -1.4356   -2.5942 C   0  0  0  0  0  0  0  0  0  0  0  0
   -4.7725   -1.2514   -3.1038 C   0  0  0  0  0  0  0  0  0  0  0  0
   -5.7644   -0.7022   -2.2980 C   0  0  0  0  0  0  0  0  0  0  0  0
   -5.4709   -0.3454   -0.9815 C   0  0  0  0  0  0  0  0  0  0  0  0
   -4.1810   -0.5286   -0.4633 C   0  0  0  0  0  0  0  0  0  0  0  0
   -3.9519   -0.0965    1.1963 Cl  0  0  0  0  0  0  0  0  0  0  0  0
    1.2963   -0.7305   -0.2323 C   0  0  0  0  0  0  0  0  0  0  0  0
    2.2110   -1.5389   -0.0238 O   0  0  0  0  0  0  0  0  0  0  0  0
    1.4515    0.2778   -1.1797 N   0  0  0  0  0  0  0  0  0  0  0  0
    0.4976    1.3396   -1.4571 C   0  0  0  0  0  0  0  0  0  0  0  0
    2.5920    0.1827   -2.0896 C   0  0  0  0  0  0  0  0  0  0  0  0
    3.6928    1.0880   -1.6143 C   0  0  0  0  0  0  0  0  0  0  0  0
    4.5047    0.9337   -0.5058 C   0  0  0  0  0  0  0  0  0  0  0  0
    5.4517    1.9886   -0.3720 C   0  0  0  0  0  0  0  0  0  0  0  0
    5.3394    2.9115   -1.3870 C   0  0  0  0  0  0  0  0  0  0  0  0
    4.1016    2.5024   -2.4932 S   0  0  0  0  0  0  0  0  0  0  0  0
   -0.0165   -0.1054    5.4615 H   0  0  0  0  0  0  0  0  0  0  0  0
   -1.3059   -0.6459    4.3455 H   0  0  0  0  0  0  0  0  0  0  0  0
   -0.7834   -1.6897    5.6758 H   0  0  0  0  0  0  0  0  0  0  0  0
    1.5910    0.5102    3.6156 H   0  0  0  0  0  0  0  0  0  0  0  0
    2.2844   -0.5557    2.4095 H   0  0  0  0  0  0  0  0  0  0  0  0
   -0.6279    0.4247    2.4168 H   0  0  0  0  0  0  0  0  0  0  0  0
    0.6674    1.1734    1.5199 H   0  0  0  0  0  0  0  0  0  0  0  0
   -0.0444   -1.7832    1.0715 H   0  0  0  0  0  0  0  0  0  0  0  0
   -1.8676    0.1360    0.5936 H   0  0  0  0  0  0  0  0  0  0  0  0
   -2.7204   -1.8717   -3.2358 H   0  0  0  0  0  0  0  0  0  0  0  0
   -4.9974   -1.5420   -4.1277 H   0  0  0  0  0  0  0  0  0  0  0  0
   -6.7691   -0.5613   -2.6902 H   0  0  0  0  0  0  0  0  0  0  0  0
   -6.2609    0.0678   -0.3577 H   0  0  0  0  0  0  0  0  0  0  0  0
    1.0199    2.2264   -1.8262 H   0  0  0  0  0  0  0  0  0  0  0  0
   -0.1975    0.9910   -2.2262 H   0  0  0  0  0  0  0  0  0  0  0  0
   -0.0544    1.6367   -0.5661 H   0  0  0  0  0  0  0  0  0  0  0  0
    2.2526    0.4360   -3.1011 H   0  0  0  0  0  0  0  0  0  0  0  0
    2.9681   -0.8459   -2.1376 H   0  0  0  0  0  0  0  0  0  0  0  0
    4.4180    0.0940    0.1755 H   0  0  0  0  0  0  0  0  0  0  0  0
    6.1811    2.0619    0.4251 H   0  0  0  0  0  0  0  0  0  0  0  0
    5.9290    3.8053   -1.5371 H   0  0  0  0  0  0  0  0  0  0  0  0
  1  2  1  0
  2  3  1  0
  3  4  1  0
  4  5  1  0
  5  6  1  0
  6  7  1  0
  7  8  2  0
  7  9  1  0
  9 10  2  0
 10 11  1  0
 11 12  2  0
 12 13  1  0
 13 14  2  0
 14 15  1  0
  5 16  1  0
 16 17  2  0
 16 18  1  0
 18 19  1  0
 18 20  1  0
 20 21  1  0
 21 22  2  0
 22 23  1  0
 23 24  2  0
 24 25  1  0
 14  9  1  0
 25 21  1  0
  1 26  1  0
  1 27  1  0
  1 28  1  0
  3 29  1  0
  3 30  1  0
  4 31  1  0
  4 32  1  0
  5 33  1  0
  6 34  1  0
 10 35  1  0
 11 36  1  0
 12 37  1  0
 13 38  1  0
 19 39  1  0
 19 40  1  0
 19 41  1  0
 20 42  1  0
 20 43  1  0
 22 44  1  0
 23 45  1  0
 24 46  1  0
M  END
$$$$
