
     RDKit          3D

 36 37  0  0  0  0  0  0  0  0999 V2000
    1.3790   -2.6832    2.0848 O   0  0  0  0  0  0  0  0  0  0  0  0
    0.9809   -1.5629    1.7760 C   0  0  0  0  0  0  0  0  0  0  0  0
   -0.1511   -0.8597    2.5291 C   0  0  0  0  0  0  0  0  0  0  0  0
   -1.3905   -0.8500    1.8192 O   0  0  0  0  0  0  0  0  0  0  0  0
   -1.4964    0.1073    0.8710 C   0  0  0  0  0  0  0  0  0  0  0  0
   -0.6559    0.9299    0.5503 O   0  0  0  0  0  0  0  0  0  0  0  0
   -2.8088   -0.0162    0.2391 C   0  0  0  0  0  0  0  0  0  0  0  0
   -2.9508   -0.7777   -0.9247 C   0  0  0  0  0  0  0  0  0  0  0  0
   -1.6263   -1.6249   -1.6397 Cl  0  0  0  0  0  0  0  0  0  0  0  0
   -4.2022   -0.8779   -1.5399 C   0  0  0  0  0  0  0  0  0  0  0  0
   -5.3056   -0.2172   -0.9972 C   0  0  0  0  0  0  0  0  0  0  0  0
   -5.1600    0.5472    0.1618 C   0  0  0  0  0  0  0  0  0  0  0  0
   -3.9111    0.6511    0.7811 C   0  0  0  0  0  0  0  0  0  0  0  0
   -3.7944    1.6156    2.2093 Cl  0  0  0  0  0  0  0  0  0  0  0  0
    1.5292   -0.8190    0.7540 N   0  0  0  0  0  0  0  0  0  0  0  0
    2.4869   -1.3993   -0.1689 C   0  0  0  0  0  0  0  0  0  0  0  0
    3.1651   -0.3525   -1.0644 C   0  0  0  0  0  0  0  0  0  0  0  0
    3.9633    0.7046   -0.3093 C   0  0  0  0  0  0  0  0  0  0  0  0
    3.0477    1.9047   -0.2983 C   0  0  0  0  0  0  0  0  0  0  0  0
    2.3036    1.7517   -1.6045 C   0  0  0  0  0  0  0  0  0  0  0  0
    2.1600    0.3443   -1.8315 O   0  0  0  0  0  0  0  0  0  0  0  0
   -0.3174   -1.3996    3.4672 H   0  0  0  0  0  0  0  0  0  0  0  0
    0.1585    0.1565    2.8052 H   0  0  0  0  0  0  0  0  0  0  0  0
   -4.3244   -1.4703   -2.4443 H   0  0  0  0  0  0  0  0  0  0  0  0
   -6.2783   -0.2954   -1.4788 H   0  0  0  0  0  0  0  0  0  0  0  0
   -6.0245    1.0625    0.5751 H   0  0  0  0  0  0  0  0  0  0  0  0
    0.9633   -0.0519    0.3865 H   0  0  0  0  0  0  0  0  0  0  0  0
    1.9248   -2.1064   -0.7904 H   0  0  0  0  0  0  0  0  0  0  0  0
    3.2337   -1.9647    0.4002 H   0  0  0  0  0  0  0  0  0  0  0  0
    3.8199   -0.8786   -1.7688 H   0  0  0  0  0  0  0  0  0  0  0  0
    4.2827    0.3914    0.6899 H   0  0  0  0  0  0  0  0  0  0  0  0
    4.8683    0.9493   -0.8804 H   0  0  0  0  0  0  0  0  0  0  0  0
    3.5800    2.8571   -0.2201 H   0  0  0  0  0  0  0  0  0  0  0  0
    2.3524    1.8379    0.5437 H   0  0  0  0  0  0  0  0  0  0  0  0
    1.3187    2.2264   -1.5883 H   0  0  0  0  0  0  0  0  0  0  0  0
    2.8795    2.1701   -2.4380 H   0  0  0  0  0  0  0  0  0  0  0  0
  1  2  2  0
  2  3  1  0
  3  4  1  0
  4  5  1  0
  5  6  2  0
  5  7  1  0
  7  8  2  0
  8  9  1  0
  8 10  1  0
 10 11  2  0
 11 12  1  0
 12 13  2  0
 13 14  1  0
  2 15  1  0
 15 16  1  0
 16 17  1  0
 17 18  1  0
 18 19  1  0
 19 20  1  0
 20 21  1  0
 13  7  1  0
 21 17  1  0
  3 22  1  0
  3 23  1  0
 10 24  1  0
 11 25  1  0
 12 26  1  0
 15 27  1  0
 16 28  1  0
 16 29  1  0
 17 30  1  0
 18 31  1  0
 18 32  1  0
 19 33  1  0
 19 34  1  0
 20 35  1  0
 20 36  1  0
M  END
$$$$
