
     RDKit          3D

 38 40  0  0  0  0  0  0  0  0999 V2000
    0.6557   -4.8731   -3.2188 N   0  0  0  0  0  0  0  0  0  0  0  0
    0.7518   -3.9743   -2.4907 C   0  0  0  0  0  0  0  0  0  0  0  0
    0.9049   -2.8300   -1.6567 C   0  0  0  0  0  0  0  0  0  0  0  0
    1.9397   -1.9875   -1.8566 C   0  0  0  0  0  0  0  0  0  0  0  0
    2.2697   -0.8132   -1.0415 C   0  0  0  0  0  0  0  0  0  0  0  0
    2.5802   -0.9391    0.3220 C   0  0  0  0  0  0  0  0  0  0  0  0
    2.8382    0.1951    1.0961 C   0  0  0  0  0  0  0  0  0  0  0  0
    2.7839    1.4471    0.5033 C   0  0  0  0  0  0  0  0  0  0  0  0
    2.9669    2.5550    1.2767 O   0  0  0  0  0  0  0  0  0  0  0  0
    2.5217    1.5747   -0.8567 C   0  0  0  0  0  0  0  0  0  0  0  0
    2.5305    2.8019   -1.4533 O   0  0  0  0  0  0  0  0  0  0  0  0
    2.2612    0.4547   -1.6358 C   0  0  0  0  0  0  0  0  0  0  0  0
   -0.0890   -2.6751   -0.5484 C   0  0  0  0  0  0  0  0  0  0  0  0
   -0.3237   -3.6324    0.1786 O   0  0  0  0  0  0  0  0  0  0  0  0
   -0.6630   -1.4182   -0.4883 N   0  0  0  0  0  0  0  0  0  0  0  0
   -1.5779   -0.9139    0.4749 C   0  0  0  0  0  0  0  0  0  0  0  0
   -2.1080   -1.7347    1.4754 C   0  0  0  0  0  0  0  0  0  0  0  0
   -2.9967   -1.2224    2.4140 C   0  0  0  0  0  0  0  0  0  0  0  0
   -3.3627    0.1184    2.3613 C   0  0  0  0  0  0  0  0  0  0  0  0
   -2.8659    0.9709    1.3913 C   0  0  0  0  0  0  0  0  0  0  0  0
   -3.2796    2.2500    1.4283 N   0  0  0  0  0  0  0  0  0  0  0  0
   -2.8142    3.1043    0.4970 C   0  0  0  0  0  0  0  0  0  0  0  0
   -1.9299    2.7396   -0.4921 C   0  0  0  0  0  0  0  0  0  0  0  0
   -1.5026    1.4154   -0.5266 C   0  0  0  0  0  0  0  0  0  0  0  0
   -1.9609    0.4682    0.4242 C   0  0  0  0  0  0  0  0  0  0  0  0
    2.6285   -2.1633   -2.6835 H   0  0  0  0  0  0  0  0  0  0  0  0
    2.6090   -1.9172    0.8002 H   0  0  0  0  0  0  0  0  0  0  0  0
    3.0561    0.0985    2.1561 H   0  0  0  0  0  0  0  0  0  0  0  0
    2.2156    3.1464    1.0843 H   0  0  0  0  0  0  0  0  0  0  0  0
    3.1528    3.3479   -0.9357 H   0  0  0  0  0  0  0  0  0  0  0  0
    2.0551    0.5797   -2.6956 H   0  0  0  0  0  0  0  0  0  0  0  0
   -0.3517   -0.7583   -1.1842 H   0  0  0  0  0  0  0  0  0  0  0  0
   -1.8576   -2.7875    1.5543 H   0  0  0  0  0  0  0  0  0  0  0  0
   -3.4053   -1.8688    3.1868 H   0  0  0  0  0  0  0  0  0  0  0  0
   -4.0586    0.5101    3.1003 H   0  0  0  0  0  0  0  0  0  0  0  0
   -3.1871    4.1217    0.5736 H   0  0  0  0  0  0  0  0  0  0  0  0
   -1.5809    3.4618   -1.2215 H   0  0  0  0  0  0  0  0  0  0  0  0
   -0.8062    1.1477   -1.3129 H   0  0  0  0  0  0  0  0  0  0  0  0
  1  2  3  0
  2  3  1  0
  3  4  2  3
  4  5  1  0
  5  6  2  0
  6  7  1  0
  7  8  2  0
  8  9  1  0
  8 10  1  0
 10 11  1  0
 10 12  2  0
  3 13  1  0
 13 14  2  0
 13 15  1  0
 15 16  1  0
 16 17  2  0
 17 18  1  0
 18 19  2  0
 19 20  1  0
 20 21  2  0
 21 22  1  0
 22 23  2  0
 23 24  1  0
 24 25  2  0
 12  5  1  0
 25 16  1  0
 25 20  1  0
  4 26  1  0
  6 27  1  0
  7 28  1  0
  9 29  1  0
 11 30  1  0
 12 31  1  0
 15 32  1  0
 17 33  1  0
 18 34  1  0
 19 35  1  0
 22 36  1  0
 23 37  1  0
 24 38  1  0
M  END
$$$$
