
     RDKit          3D

 55 57  0  0  0  0  0  0  0  0999 V2000
   -0.4948   -4.0776   -1.1777 C   0  0  0  0  0  0  0  0  0  0  0  0
    0.2798   -2.8344   -1.5774 C   0  0  0  0  0  0  0  0  0  0  0  0
   -0.5047   -1.6595   -1.3939 O   0  0  0  0  0  0  0  0  0  0  0  0
   -0.4961   -1.1536   -0.0562 C   0  0  0  0  0  0  0  0  0  0  0  0
    0.8015   -0.6824    0.3386 O   0  0  0  0  0  0  0  0  0  0  0  0
    1.1779    0.5259   -0.2205 C   0  0  0  0  0  0  0  0  0  0  0  0
    2.6466    0.8802   -0.2000 C   0  0  0  0  0  0  0  0  0  0  0  0
    3.0601    1.9322   -0.6707 O   0  0  0  0  0  0  0  0  0  0  0  0
    3.3894   -0.1156    0.4025 N   0  0  0  0  0  0  0  0  0  0  0  0
    4.7807   -0.1578    0.6079 C   0  0  0  0  0  0  0  0  0  0  0  0
    5.6587    0.8500    0.2063 C   0  0  0  0  0  0  0  0  0  0  0  0
    7.0313    0.7312    0.4477 C   0  0  0  0  0  0  0  0  0  0  0  0
    7.5365   -0.3955    1.0920 C   0  0  0  0  0  0  0  0  0  0  0  0
    6.6693   -1.4065    1.4964 C   0  0  0  0  0  0  0  0  0  0  0  0
    5.2980   -1.2877    1.2552 C   0  0  0  0  0  0  0  0  0  0  0  0
    0.3110    1.3866   -0.7754 C   0  0  0  0  0  0  0  0  0  0  0  0
   -1.1744    1.1482   -0.7986 C   0  0  0  0  0  0  0  0  0  0  0  0
   -1.9368    2.4136   -0.4145 C   0  0  0  0  0  0  0  0  0  0  0  0
   -1.7284    3.0508    0.8209 C   0  0  0  0  0  0  0  0  0  0  0  0
   -2.4407    4.2043    1.1576 C   0  0  0  0  0  0  0  0  0  0  0  0
   -3.3681    4.7299    0.2617 C   0  0  0  0  0  0  0  0  0  0  0  0
   -4.3343    6.2892    0.7183 Br  0  0  0  0  0  0  0  0  0  0  0  0
   -3.5879    4.1152   -0.9681 C   0  0  0  0  0  0  0  0  0  0  0  0
   -2.8737    2.9628   -1.3051 C   0  0  0  0  0  0  0  0  0  0  0  0
   -1.5689   -0.0586    0.0949 C   0  0  0  0  0  0  0  0  0  0  0  0
   -2.9936   -0.5529   -0.2560 C   0  0  0  0  0  0  0  0  0  0  0  0
   -3.4950   -1.6827    0.6524 C   0  0  0  0  0  0  0  0  0  0  0  0
   -4.9296   -2.0888    0.3250 C   0  0  0  0  0  0  0  0  0  0  0  0
   -5.8254   -1.0071    0.5311 O   0  0  0  0  0  0  0  0  0  0  0  0
   -1.4646   -4.1071   -1.6850 H   0  0  0  0  0  0  0  0  0  0  0  0
   -0.6951   -4.0943   -0.1025 H   0  0  0  0  0  0  0  0  0  0  0  0
    0.0668   -4.9805   -1.4344 H   0  0  0  0  0  0  0  0  0  0  0  0
    1.2317   -2.7681   -1.0397 H   0  0  0  0  0  0  0  0  0  0  0  0
    0.5138   -2.8948   -2.6454 H   0  0  0  0  0  0  0  0  0  0  0  0
   -0.7321   -1.9684    0.6348 H   0  0  0  0  0  0  0  0  0  0  0  0
    2.8518   -0.9074    0.7352 H   0  0  0  0  0  0  0  0  0  0  0  0
    5.3075    1.7442   -0.2991 H   0  0  0  0  0  0  0  0  0  0  0  0
    7.7034    1.5243    0.1292 H   0  0  0  0  0  0  0  0  0  0  0  0
    8.6037   -0.4835    1.2775 H   0  0  0  0  0  0  0  0  0  0  0  0
    7.0590   -2.2872    1.9997 H   0  0  0  0  0  0  0  0  0  0  0  0
    4.6421   -2.0902    1.5812 H   0  0  0  0  0  0  0  0  0  0  0  0
    0.6737    2.3085   -1.2279 H   0  0  0  0  0  0  0  0  0  0  0  0
   -1.4206    0.9060   -1.8425 H   0  0  0  0  0  0  0  0  0  0  0  0
   -1.0015    2.6578    1.5288 H   0  0  0  0  0  0  0  0  0  0  0  0
   -2.2615    4.6843    2.1158 H   0  0  0  0  0  0  0  0  0  0  0  0
   -4.3102    4.5221   -1.6708 H   0  0  0  0  0  0  0  0  0  0  0  0
   -3.0586    2.4935   -2.2695 H   0  0  0  0  0  0  0  0  0  0  0  0
   -1.5642    0.2584    1.1475 H   0  0  0  0  0  0  0  0  0  0  0  0
   -3.0289   -0.8862   -1.3007 H   0  0  0  0  0  0  0  0  0  0  0  0
   -3.6915    0.2884   -0.1760 H   0  0  0  0  0  0  0  0  0  0  0  0
   -3.4414   -1.3483    1.6952 H   0  0  0  0  0  0  0  0  0  0  0  0
   -2.8583   -2.5667    0.5499 H   0  0  0  0  0  0  0  0  0  0  0  0
   -5.0143   -2.4089   -0.7182 H   0  0  0  0  0  0  0  0  0  0  0  0
   -5.2453   -2.9220    0.9609 H   0  0  0  0  0  0  0  0  0  0  0  0
   -5.7534   -0.7332    1.4613 H   0  0  0  0  0  0  0  0  0  0  0  0
  1  2  1  0
  2  3  1  0
  3  4  1  0
  4  5  1  0
  5  6  1  0
  6  7  1  0
  7  8  2  0
  7  9  1  0
  9 10  1  0
 10 11  2  0
 11 12  1  0
 12 13  2  0
 13 14  1  0
 14 15  2  0
  6 16  2  0
 16 17  1  0
 17 18  1  0
 18 19  2  0
 19 20  1  0
 20 21  2  0
 21 22  1  0
 21 23  1  0
 23 24  2  0
 17 25  1  0
 25 26  1  0
 26 27  1  0
 27 28  1  0
 28 29  1  0
 25  4  1  0
 15 10  1  0
 24 18  1  0
  1 30  1  0
  1 31  1  0
  1 32  1  0
  2 33  1  0
  2 34  1  0
  4 35  1  0
  9 36  1  0
 11 37  1  0
 12 38  1  0
 13 39  1  0
 14 40  1  0
 15 41  1  0
 16 42  1  0
 17 43  1  0
 19 44  1  0
 20 45  1  0
 23 46  1  0
 24 47  1  0
 25 48  1  0
 26 49  1  0
 26 50  1  0
 27 51  1  0
 27 52  1  0
 28 53  1  0
 28 54  1  0
 29 55  1  0
M  END
$$$$
