
     RDKit          3D

 39 41  0  0  0  0  0  0  0  0999 V2000
   -3.9165   -2.3788   -0.8927 C   0  0  0  0  0  0  0  0  0  0  0  0
   -3.5639   -2.5561    0.5745 C   0  0  0  0  0  0  0  0  0  0  0  0
   -1.8707   -3.2003    0.7914 S   0  0  0  0  0  0  0  0  0  0  0  0
   -0.8828   -1.7381    0.4951 C   0  0  0  0  0  0  0  0  0  0  0  0
    0.4838   -1.8838    0.3855 C   0  0  0  0  0  0  0  0  0  0  0  0
    1.2316   -0.7472    0.1615 C   0  0  0  0  0  0  0  0  0  0  0  0
    2.6006   -0.7910    0.0484 N   0  0  0  0  0  0  0  0  0  0  0  0
    3.3586   -1.9846   -0.3073 C   0  0  0  0  0  0  0  0  0  0  0  0
    4.6393   -1.4399   -0.9410 C   0  0  0  0  0  0  0  0  0  0  0  0
    4.7905   -0.0628   -0.3146 C   0  0  0  0  0  0  0  0  0  0  0  0
    3.3484    0.4282   -0.2354 C   0  0  0  0  0  0  0  0  0  0  0  0
    0.6289    0.4512    0.0788 N   0  0  0  0  0  0  0  0  0  0  0  0
   -0.7092    0.5100    0.2025 C   0  0  0  0  0  0  0  0  0  0  0  0
   -1.3524    1.8375    0.0996 C   0  0  0  0  0  0  0  0  0  0  0  0
   -0.5921    3.0093   -0.1007 C   0  0  0  0  0  0  0  0  0  0  0  0
   -1.1977    4.2662   -0.1995 C   0  0  0  0  0  0  0  0  0  0  0  0
   -2.5773    4.3701   -0.0991 C   0  0  0  0  0  0  0  0  0  0  0  0
   -3.1592    5.5726   -0.1937 F   0  0  0  0  0  0  0  0  0  0  0  0
   -3.3615    3.2428    0.0983 C   0  0  0  0  0  0  0  0  0  0  0  0
   -2.7523    1.9875    0.1967 C   0  0  0  0  0  0  0  0  0  0  0  0
   -1.4995   -0.5531    0.4076 N   0  0  0  0  0  0  0  0  0  0  0  0
   -3.2800   -1.6369   -1.3843 H   0  0  0  0  0  0  0  0  0  0  0  0
   -4.9522   -2.0352   -0.9852 H   0  0  0  0  0  0  0  0  0  0  0  0
   -3.8329   -3.3236   -1.4404 H   0  0  0  0  0  0  0  0  0  0  0  0
   -4.2457   -3.2920    1.0141 H   0  0  0  0  0  0  0  0  0  0  0  0
   -3.7036   -1.6253    1.1328 H   0  0  0  0  0  0  0  0  0  0  0  0
    0.9451   -2.8564    0.4859 H   0  0  0  0  0  0  0  0  0  0  0  0
    3.5881   -2.5600    0.5963 H   0  0  0  0  0  0  0  0  0  0  0  0
    2.8350   -2.6306   -1.0206 H   0  0  0  0  0  0  0  0  0  0  0  0
    4.5062   -1.3420   -2.0254 H   0  0  0  0  0  0  0  0  0  0  0  0
    5.5024   -2.0871   -0.7618 H   0  0  0  0  0  0  0  0  0  0  0  0
    5.4295    0.6038   -0.9002 H   0  0  0  0  0  0  0  0  0  0  0  0
    5.2156   -0.1543    0.6922 H   0  0  0  0  0  0  0  0  0  0  0  0
    3.0417    0.8571   -1.1973 H   0  0  0  0  0  0  0  0  0  0  0  0
    3.2343    1.1818    0.5511 H   0  0  0  0  0  0  0  0  0  0  0  0
    0.4925    2.9458   -0.1808 H   0  0  0  0  0  0  0  0  0  0  0  0
   -0.5993    5.1583   -0.3532 H   0  0  0  0  0  0  0  0  0  0  0  0
   -4.4393    3.3427    0.1752 H   0  0  0  0  0  0  0  0  0  0  0  0
   -3.3838    1.1141    0.3522 H   0  0  0  0  0  0  0  0  0  0  0  0
  1  2  1  0
  2  3  1  0
  3  4  1  0
  4  5  2  0
  5  6  1  0
  6  7  1  0
  7  8  1  0
  8  9  1  0
  9 10  1  0
 10 11  1  0
  6 12  2  0
 12 13  1  0
 13 14  1  0
 14 15  2  0
 15 16  1  0
 16 17  2  0
 17 18  1  0
 17 19  1  0
 19 20  2  0
 13 21  2  0
 21  4  1  0
 11  7  1  0
 20 14  1  0
  1 22  1  0
  1 23  1  0
  1 24  1  0
  2 25  1  0
  2 26  1  0
  5 27  1  0
  8 28  1  0
  8 29  1  0
  9 30  1  0
  9 31  1  0
 10 32  1  0
 10 33  1  0
 11 34  1  0
 11 35  1  0
 15 36  1  0
 16 37  1  0
 19 38  1  0
 20 39  1  0
M  END
$$$$
