
     RDKit          3D

 60 61  0  0  0  0  0  0  0  0999 V2000
    0.7472   -5.4234   -0.4179 C   0  0  0  0  0  0  0  0  0  0  0  0
    0.3441   -4.1062   -0.7625 O   0  0  0  0  0  0  0  0  0  0  0  0
    1.1726   -3.0695   -0.4146 C   0  0  0  0  0  0  0  0  0  0  0  0
    2.3803   -3.2329    0.2710 C   0  0  0  0  0  0  0  0  0  0  0  0
    3.1672   -2.1262    0.5929 C   0  0  0  0  0  0  0  0  0  0  0  0
    2.7431   -0.8356    0.2632 C   0  0  0  0  0  0  0  0  0  0  0  0
    3.6370    0.2863    0.6527 C   0  0  0  0  0  0  0  0  0  0  0  0
    4.8509    0.1420    0.5686 O   0  0  0  0  0  0  0  0  0  0  0  0
    2.9983    1.5025    1.2354 C   0  0  0  0  0  0  0  0  0  0  0  0
    3.5455    2.7237    1.3422 C   0  0  0  0  0  0  0  0  0  0  0  0
    4.8517    3.1797    0.8543 C   0  0  0  0  0  0  0  0  0  0  0  0
    5.7085    3.8588    1.7283 C   0  0  0  0  0  0  0  0  0  0  0  0
    6.9375    4.3488    1.2776 C   0  0  0  0  0  0  0  0  0  0  0  0
    7.3032    4.1699   -0.0495 C   0  0  0  0  0  0  0  0  0  0  0  0
    8.5088    4.6644   -0.4490 O   0  0  0  0  0  0  0  0  0  0  0  0
    6.4623    3.5072   -0.9373 C   0  0  0  0  0  0  0  0  0  0  0  0
    5.2346    3.0165   -0.4840 C   0  0  0  0  0  0  0  0  0  0  0  0
    1.5345   -0.6621   -0.4273 C   0  0  0  0  0  0  0  0  0  0  0  0
    1.1532    0.6125   -0.7639 O   0  0  0  0  0  0  0  0  0  0  0  0
    0.7446   -1.7754   -0.7945 C   0  0  0  0  0  0  0  0  0  0  0  0
   -0.5315   -1.6040   -1.6031 C   0  0  0  0  0  0  0  0  0  0  0  0
   -1.6826   -1.1176   -0.7587 C   0  0  0  0  0  0  0  0  0  0  0  0
   -2.4543   -0.0239   -0.9290 C   0  0  0  0  0  0  0  0  0  0  0  0
   -2.3139    0.9775   -2.0438 C   0  0  0  0  0  0  0  0  0  0  0  0
   -3.5608    0.2810    0.0704 C   0  0  0  0  0  0  0  0  0  0  0  0
   -4.9644    0.0717   -0.5102 C   0  0  0  0  0  0  0  0  0  0  0  0
   -6.0247    0.2662    0.5414 C   0  0  0  0  0  0  0  0  0  0  0  0
   -6.8726   -0.6545    1.0426 C   0  0  0  0  0  0  0  0  0  0  0  0
   -7.9021   -0.2660    2.0728 C   0  0  0  0  0  0  0  0  0  0  0  0
   -6.9016   -2.1095    0.6592 C   0  0  0  0  0  0  0  0  0  0  0  0
    0.8098   -5.5449    0.6669 H   0  0  0  0  0  0  0  0  0  0  0  0
   -0.0187   -6.1114   -0.7869 H   0  0  0  0  0  0  0  0  0  0  0  0
    1.6914   -5.6868   -0.9018 H   0  0  0  0  0  0  0  0  0  0  0  0
    2.7462   -4.2107    0.5668 H   0  0  0  0  0  0  0  0  0  0  0  0
    4.1119   -2.2732    1.1141 H   0  0  0  0  0  0  0  0  0  0  0  0
    1.9928    1.3565    1.6166 H   0  0  0  0  0  0  0  0  0  0  0  0
    2.9627    3.5051    1.8287 H   0  0  0  0  0  0  0  0  0  0  0  0
    5.4343    3.9976    2.7709 H   0  0  0  0  0  0  0  0  0  0  0  0
    7.6026    4.8670    1.9620 H   0  0  0  0  0  0  0  0  0  0  0  0
    8.6702    4.3702   -1.3618 H   0  0  0  0  0  0  0  0  0  0  0  0
    6.7356    3.3630   -1.9768 H   0  0  0  0  0  0  0  0  0  0  0  0
    4.5783    2.5027   -1.1822 H   0  0  0  0  0  0  0  0  0  0  0  0
    0.2021    0.6269   -0.9618 H   0  0  0  0  0  0  0  0  0  0  0  0
   -0.8295   -2.5472   -2.0745 H   0  0  0  0  0  0  0  0  0  0  0  0
   -0.3143   -0.9409   -2.4458 H   0  0  0  0  0  0  0  0  0  0  0  0
   -1.9010   -1.7730    0.0862 H   0  0  0  0  0  0  0  0  0  0  0  0
   -1.4850    0.7630   -2.7199 H   0  0  0  0  0  0  0  0  0  0  0  0
   -2.1414    1.9759   -1.6300 H   0  0  0  0  0  0  0  0  0  0  0  0
   -3.2229    1.0087   -2.6515 H   0  0  0  0  0  0  0  0  0  0  0  0
   -3.4461   -0.3446    0.9646 H   0  0  0  0  0  0  0  0  0  0  0  0
   -3.4466    1.3150    0.4167 H   0  0  0  0  0  0  0  0  0  0  0  0
   -5.1511    0.8007   -1.3092 H   0  0  0  0  0  0  0  0  0  0  0  0
   -5.0307   -0.9147   -0.9809 H   0  0  0  0  0  0  0  0  0  0  0  0
   -6.1036    1.2909    0.9040 H   0  0  0  0  0  0  0  0  0  0  0  0
   -7.7867   -0.8776    2.9747 H   0  0  0  0  0  0  0  0  0  0  0  0
   -7.8161    0.7856    2.3716 H   0  0  0  0  0  0  0  0  0  0  0  0
   -8.9111   -0.4190    1.6754 H   0  0  0  0  0  0  0  0  0  0  0  0
   -6.0424   -2.4207    0.0625 H   0  0  0  0  0  0  0  0  0  0  0  0
   -6.8982   -2.7358    1.5577 H   0  0  0  0  0  0  0  0  0  0  0  0
   -7.8088   -2.3301    0.0883 H   0  0  0  0  0  0  0  0  0  0  0  0
  1  2  1  0
  2  3  1  0
  3  4  2  0
  4  5  1  0
  5  6  2  0
  6  7  1  0
  7  8  2  0
  7  9  1  0
  9 10  2  3
 10 11  1  0
 11 12  2  0
 12 13  1  0
 13 14  2  0
 14 15  1  0
 14 16  1  0
 16 17  2  0
  6 18  1  0
 18 19  1  0
 18 20  2  0
 20 21  1  0
 21 22  1  0
 22 23  2  3
 23 24  1  0
 23 25  1  0
 25 26  1  0
 26 27  1  0
 27 28  2  3
 28 29  1  0
 28 30  1  0
 20  3  1  0
 17 11  1  0
  1 31  1  0
  1 32  1  0
  1 33  1  0
  4 34  1  0
  5 35  1  0
  9 36  1  0
 10 37  1  0
 12 38  1  0
 13 39  1  0
 15 40  1  0
 16 41  1  0
 17 42  1  0
 19 43  1  0
 21 44  1  0
 21 45  1  0
 22 46  1  0
 24 47  1  0
 24 48  1  0
 24 49  1  0
 25 50  1  0
 25 51  1  0
 26 52  1  0
 26 53  1  0
 27 54  1  0
 29 55  1  0
 29 56  1  0
 29 57  1  0
 30 58  1  0
 30 59  1  0
 30 60  1  0
M  END
$$$$
