
     RDKit          3D

 50 52  0  0  0  0  0  0  0  0999 V2000
    2.8690   -1.4368   -1.4516 O   0  0  0  0  0  0  0  0  0  0  0  0
    2.9142   -0.6819   -0.4906 C   0  0  0  0  0  0  0  0  0  0  0  0
    3.3983    0.7460   -0.5571 C   0  0  0  0  0  0  0  0  0  0  0  0
    4.8444    0.8872   -0.1559 C   0  0  0  0  0  0  0  0  0  0  0  0
    5.1893    1.3743    1.1143 C   0  0  0  0  0  0  0  0  0  0  0  0
    6.5304    1.4863    1.4845 C   0  0  0  0  0  0  0  0  0  0  0  0
    7.5241    1.1087    0.5893 C   0  0  0  0  0  0  0  0  0  0  0  0
    8.8101    1.2164    0.9477 F   0  0  0  0  0  0  0  0  0  0  0  0
    7.2027    0.6182   -0.6702 C   0  0  0  0  0  0  0  0  0  0  0  0
    5.8631    0.5049   -1.0436 C   0  0  0  0  0  0  0  0  0  0  0  0
    2.5519   -1.0059    0.7830 O   0  0  0  0  0  0  0  0  0  0  0  0
    2.1371   -2.3587    0.9557 C   0  0  0  0  0  0  0  0  0  0  0  0
    0.7895   -2.7548    0.3315 C   0  0  0  0  0  0  0  0  0  0  0  0
    0.6703   -3.8318   -0.2573 O   0  0  0  0  0  0  0  0  0  0  0  0
   -0.2881   -1.8965    0.4997 N   0  0  0  0  0  0  0  0  0  0  0  0
   -1.5593   -2.2257   -0.1496 C   0  0  0  0  0  0  0  0  0  0  0  0
   -2.3569   -0.9693   -0.5142 C   0  0  0  0  0  0  0  0  0  0  0  0
   -2.6245   -0.0841    0.6718 N   0  0  0  0  0  0  0  0  0  0  0  0
   -4.2603    0.0236    1.1522 S   0  0  0  0  0  6  0  0  0  0  0  0
   -4.3404    0.9466    2.2631 O   0  0  0  0  0  0  0  0  0  0  0  0
   -4.7596   -1.3312    1.2552 O   0  0  0  0  0  0  0  0  0  0  0  0
   -5.0248    0.8111   -0.2438 C   0  0  0  0  0  0  0  0  0  0  0  0
   -6.0185    0.1465   -0.9689 C   0  0  0  0  0  0  0  0  0  0  0  0
   -6.6051    0.7809   -2.0661 C   0  0  0  0  0  0  0  0  0  0  0  0
   -6.1997    2.0680   -2.4240 C   0  0  0  0  0  0  0  0  0  0  0  0
   -6.9245    2.8436   -3.7781 Cl  0  0  0  0  0  0  0  0  0  0  0  0
   -5.2126    2.7319   -1.6934 C   0  0  0  0  0  0  0  0  0  0  0  0
   -4.6216    2.1037   -0.5958 C   0  0  0  0  0  0  0  0  0  0  0  0
   -1.7040   -0.3324    1.8287 C   0  0  0  0  0  0  0  0  0  0  0  0
   -0.2927   -0.7098    1.3597 C   0  0  0  0  0  0  0  0  0  0  0  0
    3.2562    1.1131   -1.5812 H   0  0  0  0  0  0  0  0  0  0  0  0
    2.7486    1.3729    0.0664 H   0  0  0  0  0  0  0  0  0  0  0  0
    4.4186    1.6675    1.8241 H   0  0  0  0  0  0  0  0  0  0  0  0
    6.8074    1.8627    2.4643 H   0  0  0  0  0  0  0  0  0  0  0  0
    7.9953    0.3240   -1.3509 H   0  0  0  0  0  0  0  0  0  0  0  0
    5.6185    0.1105   -2.0286 H   0  0  0  0  0  0  0  0  0  0  0  0
    2.0662   -2.5477    2.0329 H   0  0  0  0  0  0  0  0  0  0  0  0
    2.9161   -3.0302    0.5737 H   0  0  0  0  0  0  0  0  0  0  0  0
   -1.3778   -2.8199   -1.0517 H   0  0  0  0  0  0  0  0  0  0  0  0
   -2.1266   -2.8503    0.5509 H   0  0  0  0  0  0  0  0  0  0  0  0
   -1.7921   -0.3673   -1.2368 H   0  0  0  0  0  0  0  0  0  0  0  0
   -3.2850   -1.2655   -1.0120 H   0  0  0  0  0  0  0  0  0  0  0  0
   -6.3416   -0.8541   -0.6886 H   0  0  0  0  0  0  0  0  0  0  0  0
   -7.3780    0.2696   -2.6353 H   0  0  0  0  0  0  0  0  0  0  0  0
   -4.9040    3.7364   -1.9721 H   0  0  0  0  0  0  0  0  0  0  0  0
   -3.8567    2.6199   -0.0193 H   0  0  0  0  0  0  0  0  0  0  0  0
   -1.6442    0.5790    2.4330 H   0  0  0  0  0  0  0  0  0  0  0  0
   -2.1053   -1.1396    2.4537 H   0  0  0  0  0  0  0  0  0  0  0  0
    0.1327    0.1119    0.7721 H   0  0  0  0  0  0  0  0  0  0  0  0
    0.3496   -0.8807    2.2287 H   0  0  0  0  0  0  0  0  0  0  0  0
  1  2  2  0
  2  3  1  0
  3  4  1  0
  4  5  2  0
  5  6  1  0
  6  7  2  0
  7  8  1  0
  7  9  1  0
  9 10  2  0
  2 11  1  0
 11 12  1  0
 12 13  1  0
 13 14  2  0
 13 15  1  0
 15 16  1  0
 16 17  1  0
 17 18  1  0
 18 19  1  0
 19 20  2  0
 19 21  2  0
 19 22  1  0
 22 23  2  0
 23 24  1  0
 24 25  2  0
 25 26  1  0
 25 27  1  0
 27 28  2  0
 18 29  1  0
 29 30  1  0
 10  4  1  0
 30 15  1  0
 28 22  1  0
  3 31  1  0
  3 32  1  0
  5 33  1  0
  6 34  1  0
  9 35  1  0
 10 36  1  0
 12 37  1  0
 12 38  1  0
 16 39  1  0
 16 40  1  0
 17 41  1  0
 17 42  1  0
 23 43  1  0
 24 44  1  0
 27 45  1  0
 28 46  1  0
 29 47  1  0
 29 48  1  0
 30 49  1  0
 30 50  1  0
M  END
$$$$
