
     RDKit          3D

 53 56  0  0  0  0  0  0  0  0999 V2000
    8.2043   -0.3042    2.0152 C   0  0  0  0  0  0  0  0  0  0  0  0
    6.9993    0.1933    2.5821 O   0  0  0  0  0  0  0  0  0  0  0  0
    5.8310   -0.3594    2.1353 C   0  0  0  0  0  0  0  0  0  0  0  0
    5.7114   -1.3593    1.1701 C   0  0  0  0  0  0  0  0  0  0  0  0
    4.4478   -1.8366    0.8020 C   0  0  0  0  0  0  0  0  0  0  0  0
    3.2884   -1.3251    1.3995 C   0  0  0  0  0  0  0  0  0  0  0  0
    1.9253   -1.8145    0.9873 C   0  0  0  0  0  0  0  0  0  0  0  0
    1.3648   -0.9516   -0.0289 N   0  0  0  0  0  0  0  0  0  0  0  0
    0.4191    0.0139    0.2662 C   0  0  0  0  0  0  0  0  0  0  0  0
   -0.0069    0.1474    1.4170 O   0  0  0  0  0  0  0  0  0  0  0  0
   -0.0092    0.9544   -0.8633 C   0  0  0  0  0  0  0  0  0  0  0  0
    0.2967    0.4344   -2.2040 C   0  0  0  0  0  0  0  0  0  0  0  0
    0.5984    0.0111   -3.2439 N   0  0  0  0  0  0  0  0  0  0  0  0
   -1.4618    1.3569   -0.7575 C   0  0  0  0  0  0  0  0  0  0  0  0
   -1.7211    2.6940   -0.6594 N   0  0  0  0  0  0  0  0  0  0  0  0
   -3.0125    3.0601   -0.5890 C   0  0  0  0  0  0  0  0  0  0  0  0
   -3.3403    4.4054   -0.4718 C   0  0  0  0  0  0  0  0  0  0  0  0
   -4.6691    4.8256   -0.3987 C   0  0  0  0  0  0  0  0  0  0  0  0
   -5.6880    3.8834   -0.4442 C   0  0  0  0  0  0  0  0  0  0  0  0
   -5.3684    2.5300   -0.5626 C   0  0  0  0  0  0  0  0  0  0  0  0
   -4.0488    2.1005   -0.6356 C   0  0  0  0  0  0  0  0  0  0  0  0
   -3.7861    0.7854   -0.7522 N   0  0  0  0  0  0  0  0  0  0  0  0
   -2.4899    0.4031   -0.8081 C   0  0  0  0  0  0  0  0  0  0  0  0
   -2.1771   -0.9669   -0.9518 N   0  0  0  0  0  0  0  0  0  0  0  0
   -2.8624   -1.5488   -2.1298 C   0  0  0  0  0  0  0  0  0  0  0  0
   -3.9072   -2.5068   -1.5711 C   0  0  0  0  0  0  0  0  0  0  0  0
   -3.2491   -2.9942   -0.2971 C   0  0  0  0  0  0  0  0  0  0  0  0
   -2.6173   -1.7190    0.2491 C   0  0  0  0  0  0  0  0  0  0  0  0
    3.4148   -0.3153    2.3610 C   0  0  0  0  0  0  0  0  0  0  0  0
    4.6767    0.1589    2.7255 C   0  0  0  0  0  0  0  0  0  0  0  0
    9.0380    0.2339    2.4764 H   0  0  0  0  0  0  0  0  0  0  0  0
    8.3336   -1.3693    2.2343 H   0  0  0  0  0  0  0  0  0  0  0  0
    8.2414   -0.1143    0.9375 H   0  0  0  0  0  0  0  0  0  0  0  0
    6.5799   -1.7887    0.6822 H   0  0  0  0  0  0  0  0  0  0  0  0
    4.3782   -2.6131    0.0431 H   0  0  0  0  0  0  0  0  0  0  0  0
    1.2631   -1.8818    1.8576 H   0  0  0  0  0  0  0  0  0  0  0  0
    1.9944   -2.8201    0.5578 H   0  0  0  0  0  0  0  0  0  0  0  0
    1.7959   -0.9974   -0.9442 H   0  0  0  0  0  0  0  0  0  0  0  0
    0.6022    1.8563   -0.7171 H   0  0  0  0  0  0  0  0  0  0  0  0
   -2.5408    5.1415   -0.4358 H   0  0  0  0  0  0  0  0  0  0  0  0
   -4.9018    5.8835   -0.3062 H   0  0  0  0  0  0  0  0  0  0  0  0
   -6.7279    4.1951   -0.3879 H   0  0  0  0  0  0  0  0  0  0  0  0
   -6.1650    1.7907   -0.5984 H   0  0  0  0  0  0  0  0  0  0  0  0
   -3.3031   -0.8141   -2.8147 H   0  0  0  0  0  0  0  0  0  0  0  0
   -2.1153   -2.1131   -2.7011 H   0  0  0  0  0  0  0  0  0  0  0  0
   -4.8337   -1.9687   -1.3384 H   0  0  0  0  0  0  0  0  0  0  0  0
   -4.1445   -3.3179   -2.2648 H   0  0  0  0  0  0  0  0  0  0  0  0
   -3.9571   -3.4445    0.4039 H   0  0  0  0  0  0  0  0  0  0  0  0
   -2.4736   -3.7340   -0.5290 H   0  0  0  0  0  0  0  0  0  0  0  0
   -3.3539   -1.1766    0.8562 H   0  0  0  0  0  0  0  0  0  0  0  0
   -1.7611   -1.9556    0.8886 H   0  0  0  0  0  0  0  0  0  0  0  0
    2.5283    0.1104    2.8292 H   0  0  0  0  0  0  0  0  0  0  0  0
    4.7600    0.9419    3.4755 H   0  0  0  0  0  0  0  0  0  0  0  0
  1  2  1  0
  2  3  1  0
  3  4  2  0
  4  5  1  0
  5  6  2  0
  6  7  1  0
  7  8  1  0
  8  9  1  0
  9 10  2  0
  9 11  1  0
 11 12  1  0
 12 13  3  0
 11 14  1  0
 14 15  2  0
 15 16  1  0
 16 17  2  0
 17 18  1  0
 18 19  2  0
 19 20  1  0
 20 21  2  0
 21 22  1  0
 22 23  2  0
 23 24  1  0
 24 25  1  0
 25 26  1  0
 26 27  1  0
 27 28  1  0
  6 29  1  0
 29 30  2  0
 30  3  1  0
 23 14  1  0
 28 24  1  0
 21 16  1  0
  1 31  1  0
  1 32  1  0
  1 33  1  0
  4 34  1  0
  5 35  1  0
  7 36  1  0
  7 37  1  0
  8 38  1  0
 11 39  1  0
 17 40  1  0
 18 41  1  0
 19 42  1  0
 20 43  1  0
 25 44  1  0
 25 45  1  0
 26 46  1  0
 26 47  1  0
 27 48  1  0
 27 49  1  0
 28 50  1  0
 28 51  1  0
 29 52  1  0
 30 53  1  0
M  END
$$$$
