
     RDKit          3D

 35 37  0  0  0  0  0  0  0  0999 V2000
   -2.1441   -2.6544   -0.5962 C   0  0  0  0  0  0  0  0  0  0  0  0
   -1.2531   -1.4958   -0.2989 C   0  0  0  0  0  0  0  0  0  0  0  0
    0.0502   -1.5699   -0.3782 N   0  0  0  0  0  0  0  0  0  0  0  0
    0.5275   -0.3329    0.0216 N   0  0  0  0  0  0  0  0  0  0  0  0
    1.8768   -0.0563    0.0774 C   0  0  0  0  0  0  0  0  0  0  0  0
    2.8765   -0.8588   -0.2316 N   0  0  0  0  0  0  0  0  0  0  0  0
    4.0208   -0.1324   -0.0139 C   0  0  0  0  0  0  0  0  0  0  0  0
    5.3633   -0.5008   -0.1822 C   0  0  0  0  0  0  0  0  0  0  0  0
    6.3599    0.4382    0.1138 C   0  0  0  0  0  0  0  0  0  0  0  0
    6.0262    1.7172    0.5678 C   0  0  0  0  0  0  0  0  0  0  0  0
    4.6918    2.1031    0.7419 C   0  0  0  0  0  0  0  0  0  0  0  0
    3.7209    1.1467    0.4391 C   0  0  0  0  0  0  0  0  0  0  0  0
    2.3530    1.1680    0.4879 N   0  0  0  0  0  0  0  0  0  0  0  0
   -0.4556    0.5905    0.3768 C   0  0  0  0  0  0  0  0  0  0  0  0
   -0.3507    1.7383    0.7766 O   0  0  0  0  0  0  0  0  0  0  0  0
   -1.7070   -0.1624    0.1300 C   0  0  0  0  0  0  0  0  0  0  0  0
   -2.9154    0.3789    0.3143 C   0  0  0  0  0  0  0  0  0  0  0  0
   -4.1915   -0.1264    0.0759 N   0  0  0  0  0  0  0  0  0  0  0  0
   -4.5952   -0.4480   -1.3028 C   0  0  0  0  0  0  0  0  0  0  0  0
   -5.3145    0.3997    0.8688 C   0  0  0  0  0  0  0  0  0  0  0  0
   -3.0567   -2.6170    0.0013 H   0  0  0  0  0  0  0  0  0  0  0  0
   -2.3928   -2.6601   -1.6602 H   0  0  0  0  0  0  0  0  0  0  0  0
   -1.6210   -3.5856   -0.3579 H   0  0  0  0  0  0  0  0  0  0  0  0
    5.6131   -1.4952   -0.5347 H   0  0  0  0  0  0  0  0  0  0  0  0
    7.4048    0.1652   -0.0123 H   0  0  0  0  0  0  0  0  0  0  0  0
    6.8197    2.4278    0.7908 H   0  0  0  0  0  0  0  0  0  0  0  0
    4.4326    3.0954    1.0945 H   0  0  0  0  0  0  0  0  0  0  0  0
    1.7674    1.9410    0.7754 H   0  0  0  0  0  0  0  0  0  0  0  0
   -2.9617    1.3836    0.7400 H   0  0  0  0  0  0  0  0  0  0  0  0
   -5.3360   -1.2543   -1.2984 H   0  0  0  0  0  0  0  0  0  0  0  0
   -3.7491   -0.7711   -1.9155 H   0  0  0  0  0  0  0  0  0  0  0  0
   -5.0359    0.4311   -1.7862 H   0  0  0  0  0  0  0  0  0  0  0  0
   -6.1945   -0.2438    0.7636 H   0  0  0  0  0  0  0  0  0  0  0  0
   -5.0524    0.4284    1.9321 H   0  0  0  0  0  0  0  0  0  0  0  0
   -5.5774    1.4122    0.5437 H   0  0  0  0  0  0  0  0  0  0  0  0
  1  2  1  0
  2  3  2  0
  3  4  1  0
  4  5  1  0
  5  6  2  0
  6  7  1  0
  7  8  2  0
  8  9  1  0
  9 10  2  0
 10 11  1  0
 11 12  2  0
 12 13  1  0
  4 14  1  0
 14 15  2  0
 14 16  1  0
 16 17  2  3
 17 18  1  0
 18 19  1  0
 18 20  1  0
 16  2  1  0
 13  5  1  0
 12  7  1  0
  1 21  1  0
  1 22  1  0
  1 23  1  0
  8 24  1  0
  9 25  1  0
 10 26  1  0
 11 27  1  0
 13 28  1  0
 17 29  1  0
 19 30  1  0
 19 31  1  0
 19 32  1  0
 20 33  1  0
 20 34  1  0
 20 35  1  0
M  END
$$$$
