
     RDKit          3D

 51 54  0  0  0  0  0  0  0  0999 V2000
   -6.8093   -1.0180   -1.5656 C   0  0  0  0  0  0  0  0  0  0  0  0
   -5.6614   -1.8600   -1.0123 C   0  0  0  0  0  0  0  0  0  0  0  0
   -6.1519   -3.0037   -0.1199 C   0  0  0  0  0  0  0  0  0  0  0  0
   -4.6275   -1.0507   -0.3590 N   0  0  0  0  0  0  0  0  0  0  0  0
   -3.3320   -0.9885   -0.8178 C   0  0  0  0  0  0  0  0  0  0  0  0
   -2.5865   -0.2033    0.0419 C   0  0  0  0  0  0  0  0  0  0  0  0
   -1.1609    0.0191   -0.1235 C   0  0  0  0  0  0  0  0  0  0  0  0
   -0.5077    0.6866    0.7731 N   0  0  0  0  0  0  0  0  0  0  0  0
    0.8454    0.8612    0.6091 N   0  0  0  0  0  0  0  0  0  0  0  0
    1.5156    0.9803   -0.6105 C   0  0  0  0  0  0  0  0  0  0  0  0
    0.9885    0.9080   -1.7181 O   0  0  0  0  0  0  0  0  0  0  0  0
    3.0176    1.2006   -0.4057 C   0  0  0  0  0  0  0  0  0  0  0  0
    3.7221    1.0816   -1.6354 O   0  0  0  0  0  0  0  0  0  0  0  0
    5.0234    0.6152   -1.5246 C   0  0  0  0  0  0  0  0  0  0  0  0
    5.4034   -0.2113   -2.5999 C   0  0  0  0  0  0  0  0  0  0  0  0
    6.6682   -0.7874   -2.6380 C   0  0  0  0  0  0  0  0  0  0  0  0
    7.5649   -0.5229   -1.6054 C   0  0  0  0  0  0  0  0  0  0  0  0
    7.1977    0.3196   -0.5359 C   0  0  0  0  0  0  0  0  0  0  0  0
    8.1117    0.5853    0.4968 C   0  0  0  0  0  0  0  0  0  0  0  0
    7.7572    1.4404    1.5369 C   0  0  0  0  0  0  0  0  0  0  0  0
    6.4856    1.9924    1.5162 C   0  0  0  0  0  0  0  0  0  0  0  0
    5.5729    1.7416    0.5544 N   0  0  0  0  0  0  0  0  0  0  0  0
    5.9083    0.9145   -0.4749 C   0  0  0  0  0  0  0  0  0  0  0  0
   -3.4897    0.2679    1.0497 C   0  0  0  0  0  0  0  0  0  0  0  0
   -3.3428    1.1057    2.1785 C   0  0  0  0  0  0  0  0  0  0  0  0
   -4.4387    1.3755    3.0049 C   0  0  0  0  0  0  0  0  0  0  0  0
   -5.6772    0.8139    2.7296 C   0  0  0  0  0  0  0  0  0  0  0  0
   -5.8557   -0.0205    1.6213 C   0  0  0  0  0  0  0  0  0  0  0  0
   -4.7537   -0.2819    0.7849 C   0  0  0  0  0  0  0  0  0  0  0  0
   -6.4258   -0.1942   -2.1781 H   0  0  0  0  0  0  0  0  0  0  0  0
   -7.4259   -0.5847   -0.7728 H   0  0  0  0  0  0  0  0  0  0  0  0
   -7.4659   -1.6290   -2.1934 H   0  0  0  0  0  0  0  0  0  0  0  0
   -5.1679   -2.3254   -1.8780 H   0  0  0  0  0  0  0  0  0  0  0  0
   -6.7876   -3.6984   -0.6852 H   0  0  0  0  0  0  0  0  0  0  0  0
   -6.7385   -2.6437    0.7302 H   0  0  0  0  0  0  0  0  0  0  0  0
   -5.3075   -3.5730    0.2805 H   0  0  0  0  0  0  0  0  0  0  0  0
   -3.0316   -1.5278   -1.7101 H   0  0  0  0  0  0  0  0  0  0  0  0
   -0.6941   -0.4610   -0.9982 H   0  0  0  0  0  0  0  0  0  0  0  0
    1.3041    1.2275    1.4377 H   0  0  0  0  0  0  0  0  0  0  0  0
    3.3498    0.4501    0.3246 H   0  0  0  0  0  0  0  0  0  0  0  0
    3.1396    2.2127   -0.0089 H   0  0  0  0  0  0  0  0  0  0  0  0
    4.6805   -0.4201   -3.3878 H   0  0  0  0  0  0  0  0  0  0  0  0
    6.9550   -1.4386   -3.4602 H   0  0  0  0  0  0  0  0  0  0  0  0
    8.5589   -0.9788   -1.6376 H   0  0  0  0  0  0  0  0  0  0  0  0
    9.1071    0.1414    0.4817 H   0  0  0  0  0  0  0  0  0  0  0  0
    8.4474    1.6644    2.3444 H   0  0  0  0  0  0  0  0  0  0  0  0
    6.1579    2.6775    2.3002 H   0  0  0  0  0  0  0  0  0  0  0  0
   -2.3752    1.5446    2.4089 H   0  0  0  0  0  0  0  0  0  0  0  0
   -4.3144    2.0230    3.8693 H   0  0  0  0  0  0  0  0  0  0  0  0
   -6.5203    1.0236    3.3833 H   0  0  0  0  0  0  0  0  0  0  0  0
   -6.8333   -0.4512    1.4337 H   0  0  0  0  0  0  0  0  0  0  0  0
  1  2  1  0
  2  3  1  0
  2  4  1  0
  4  5  1  0
  5  6  2  0
  6  7  1  0
  7  8  2  3
  8  9  1  0
  9 10  1  0
 10 11  2  0
 10 12  1  0
 12 13  1  0
 13 14  1  0
 14 15  2  0
 15 16  1  0
 16 17  2  0
 17 18  1  0
 18 19  2  0
 19 20  1  0
 20 21  2  0
 21 22  1  0
 22 23  2  0
  6 24  1  0
 24 25  2  0
 25 26  1  0
 26 27  2  0
 27 28  1  0
 28 29  2  0
 29  4  1  0
 23 14  1  0
 29 24  1  0
 23 18  1  0
  1 30  1  0
  1 31  1  0
  1 32  1  0
  2 33  1  0
  3 34  1  0
  3 35  1  0
  3 36  1  0
  5 37  1  0
  7 38  1  0
  9 39  1  0
 12 40  1  0
 12 41  1  0
 15 42  1  0
 16 43  1  0
 17 44  1  0
 19 45  1  0
 20 46  1  0
 21 47  1  0
 25 48  1  0
 26 49  1  0
 27 50  1  0
 28 51  1  0
M  END
$$$$
