
     RDKit          3D

 38 40  0  0  0  0  0  0  0  0999 V2000
    1.7609   -0.5763    1.3846 O   0  0  0  0  0  0  0  0  0  0  0  0
    2.2011   -0.4666    0.2435 C   0  0  0  0  0  0  0  0  0  0  0  0
    1.4894   -0.8646   -0.8732 N   0  0  0  0  0  0  0  0  0  0  0  0
    0.1398   -1.2198   -0.6692 N   0  0  0  0  0  0  0  0  0  0  0  0
   -0.7803   -0.7049   -1.5702 C   0  0  0  0  0  0  0  0  0  0  0  0
   -0.4371   -0.1860   -2.6322 O   0  0  0  0  0  0  0  0  0  0  0  0
   -2.2288   -0.9168   -1.1435 C   0  0  0  0  0  0  0  0  0  0  0  0
   -3.1689   -0.0828   -2.0011 C   0  0  0  0  0  0  0  0  0  0  0  0
   -4.5353   -0.3513   -1.6558 O   0  0  0  0  0  0  0  0  0  0  0  0
   -4.7164   -0.3527   -0.2966 C   0  0  0  0  0  0  0  0  0  0  0  0
   -6.0299   -0.2717    0.1610 C   0  0  0  0  0  0  0  0  0  0  0  0
   -6.2876   -0.2458    1.5325 C   0  0  0  0  0  0  0  0  0  0  0  0
   -5.2317   -0.3032    2.4438 C   0  0  0  0  0  0  0  0  0  0  0  0
   -3.9166   -0.3986    1.9859 C   0  0  0  0  0  0  0  0  0  0  0  0
   -3.6608   -0.4394    0.6166 C   0  0  0  0  0  0  0  0  0  0  0  0
   -2.3483   -0.5578    0.2394 O   0  0  0  0  0  0  0  0  0  0  0  0
    3.5353    0.1467    0.0020 C   0  0  0  0  0  0  0  0  0  0  0  0
    4.2797   -0.1263   -1.1558 C   0  0  0  0  0  0  0  0  0  0  0  0
    5.5350    0.4602   -1.3409 C   0  0  0  0  0  0  0  0  0  0  0  0
    6.0584    1.3160   -0.3710 C   0  0  0  0  0  0  0  0  0  0  0  0
    5.3197    1.5783    0.7907 C   0  0  0  0  0  0  0  0  0  0  0  0
    5.8718    2.4758    1.8131 N   0  0  0  0  0  4  0  0  0  0  0  0
    5.1295    2.8136    2.7455 O   0  0  0  0  0  0  0  0  0  0  0  0
    7.0467    2.8460    1.6783 O   0  0  0  0  0  1  0  0  0  0  0  0
    4.0615    0.9952    0.9853 C   0  0  0  0  0  0  0  0  0  0  0  0
    1.6909   -0.4716   -1.7922 H   0  0  0  0  0  0  0  0  0  0  0  0
   -0.1422   -1.2866    0.3137 H   0  0  0  0  0  0  0  0  0  0  0  0
   -2.4552   -1.9871   -1.2451 H   0  0  0  0  0  0  0  0  0  0  0  0
   -2.9851    0.9933   -1.8812 H   0  0  0  0  0  0  0  0  0  0  0  0
   -3.0500   -0.3226   -3.0632 H   0  0  0  0  0  0  0  0  0  0  0  0
   -6.8505   -0.2165   -0.5489 H   0  0  0  0  0  0  0  0  0  0  0  0
   -7.3118   -0.1751    1.8905 H   0  0  0  0  0  0  0  0  0  0  0  0
   -5.4336   -0.2768    3.5120 H   0  0  0  0  0  0  0  0  0  0  0  0
   -3.0963   -0.4494    2.6965 H   0  0  0  0  0  0  0  0  0  0  0  0
    3.9123   -0.8137   -1.9143 H   0  0  0  0  0  0  0  0  0  0  0  0
    6.1098    0.2429   -2.2394 H   0  0  0  0  0  0  0  0  0  0  0  0
    7.0382    1.7632   -0.5309 H   0  0  0  0  0  0  0  0  0  0  0  0
    3.4864    1.1920    1.8896 H   0  0  0  0  0  0  0  0  0  0  0  0
  1  2  2  0
  2  3  1  0
  3  4  1  0
  4  5  1  0
  5  6  2  0
  5  7  1  0
  7  8  1  0
  8  9  1  0
  9 10  1  0
 10 11  2  0
 11 12  1  0
 12 13  2  0
 13 14  1  0
 14 15  2  0
 15 16  1  0
  2 17  1  0
 17 18  2  0
 18 19  1  0
 19 20  2  0
 20 21  1  0
 21 22  1  0
 22 23  2  0
 22 24  1  0
 21 25  2  0
 16  7  1  0
 25 17  1  0
 15 10  1  0
  3 26  1  0
  4 27  1  0
  7 28  1  0
  8 29  1  0
  8 30  1  0
 11 31  1  0
 12 32  1  0
 13 33  1  0
 14 34  1  0
 18 35  1  0
 19 36  1  0
 20 37  1  0
 25 38  1  0
M  CHG  2  22   1  24  -1
M  END
$$$$
