
     RDKit          3D

 59 62  0  0  0  0  0  0  0  0999 V2000
   -2.4419    3.6767   -2.2612 C   0  0  0  0  0  0  0  0  0  0  0  0
   -1.2634    2.8607   -1.7552 C   0  0  0  0  0  0  0  0  0  0  0  0
   -1.3335    1.4183   -2.2517 C   0  0  0  0  0  0  0  0  0  0  0  0
   -0.2273    0.6089   -1.7693 N   0  0  0  0  0  0  0  0  0  0  0  0
   -0.2486   -0.2859   -0.7102 C   0  0  0  0  0  0  0  0  0  0  0  0
   -1.4033   -0.5410    0.1462 C   0  0  0  0  0  0  0  0  0  0  0  0
   -2.1087   -1.7460    0.0123 C   0  0  0  0  0  0  0  0  0  0  0  0
   -3.2285   -2.0006    0.8053 C   0  0  0  0  0  0  0  0  0  0  0  0
   -3.9967   -3.1354    0.7376 O   0  0  0  0  0  0  0  0  0  0  0  0
   -3.6716   -4.0907   -0.2642 C   0  0  0  0  0  0  0  0  0  0  0  0
   -3.6152   -1.0396    1.7573 C   0  0  0  0  0  0  0  0  0  0  0  0
   -4.7484   -1.2550    2.5126 O   0  0  0  0  0  0  0  0  0  0  0  0
   -4.4021   -1.9423    3.7161 C   0  0  0  0  0  0  0  0  0  0  0  0
   -2.9131    0.1706    1.9081 C   0  0  0  0  0  0  0  0  0  0  0  0
   -3.3899    1.0361    2.8588 O   0  0  0  0  0  0  0  0  0  0  0  0
   -2.7011    2.2679    3.0335 C   0  0  0  0  0  0  0  0  0  0  0  0
   -1.7980    0.4053    1.1030 C   0  0  0  0  0  0  0  0  0  0  0  0
    0.9188   -0.8995   -0.5965 N   0  0  0  0  0  0  0  0  0  0  0  0
    1.7021   -0.3674   -1.5712 C   0  0  0  0  0  0  0  0  0  0  0  0
    1.0245    0.5496   -2.3206 C   0  0  0  0  0  0  0  0  0  0  0  0
    1.6220    1.2324   -3.4151 C   0  0  0  0  0  0  0  0  0  0  0  0
    1.0651    2.0661   -4.1196 O   0  0  0  0  0  0  0  0  0  0  0  0
    2.9304    0.8564   -3.6184 N   0  0  0  0  0  0  0  0  0  0  0  0
    3.6672   -0.0509   -2.8793 C   0  0  0  0  0  0  0  0  0  0  0  0
    4.8406   -0.2562   -3.1922 O   0  0  0  0  0  0  0  0  0  0  0  0
    3.0208   -0.6836   -1.8233 N   0  0  0  0  0  0  0  0  0  0  0  0
    3.7569   -1.6071   -0.9723 C   0  0  0  0  0  0  0  0  0  0  0  0
    4.3924   -0.9123    0.2124 C   0  0  0  0  0  0  0  0  0  0  0  0
    3.6894   -0.7768    1.4185 C   0  0  0  0  0  0  0  0  0  0  0  0
    4.2666   -0.1183    2.5060 C   0  0  0  0  0  0  0  0  0  0  0  0
    5.5493    0.4164    2.3978 C   0  0  0  0  0  0  0  0  0  0  0  0
    6.2544    0.2968    1.2013 C   0  0  0  0  0  0  0  0  0  0  0  0
    5.6786   -0.3614    0.1127 C   0  0  0  0  0  0  0  0  0  0  0  0
   -3.3889    3.2590   -1.9053 H   0  0  0  0  0  0  0  0  0  0  0  0
   -2.4636    3.6968   -3.3554 H   0  0  0  0  0  0  0  0  0  0  0  0
   -2.3698    4.7084   -1.9039 H   0  0  0  0  0  0  0  0  0  0  0  0
   -0.3309    3.3326   -2.0856 H   0  0  0  0  0  0  0  0  0  0  0  0
   -1.2529    2.8864   -0.6598 H   0  0  0  0  0  0  0  0  0  0  0  0
   -2.2691    0.9446   -1.9365 H   0  0  0  0  0  0  0  0  0  0  0  0
   -1.3187    1.3764   -3.3465 H   0  0  0  0  0  0  0  0  0  0  0  0
   -1.7588   -2.4659   -0.7220 H   0  0  0  0  0  0  0  0  0  0  0  0
   -4.4094   -4.8990   -0.2091 H   0  0  0  0  0  0  0  0  0  0  0  0
   -3.7356   -3.6514   -1.2664 H   0  0  0  0  0  0  0  0  0  0  0  0
   -2.6831   -4.5290   -0.0840 H   0  0  0  0  0  0  0  0  0  0  0  0
   -3.6757   -1.3735    4.3115 H   0  0  0  0  0  0  0  0  0  0  0  0
   -4.0162   -2.9475    3.5039 H   0  0  0  0  0  0  0  0  0  0  0  0
   -5.3149   -2.0500    4.3114 H   0  0  0  0  0  0  0  0  0  0  0  0
   -1.6722    2.0992    3.3707 H   0  0  0  0  0  0  0  0  0  0  0  0
   -3.2184    2.8327    3.8153 H   0  0  0  0  0  0  0  0  0  0  0  0
   -2.7253    2.8686    2.1177 H   0  0  0  0  0  0  0  0  0  0  0  0
   -1.2107    1.3122    1.2055 H   0  0  0  0  0  0  0  0  0  0  0  0
    3.4190    1.3091   -4.3745 H   0  0  0  0  0  0  0  0  0  0  0  0
    4.5379   -2.1049   -1.5610 H   0  0  0  0  0  0  0  0  0  0  0  0
    3.0870   -2.4070   -0.6325 H   0  0  0  0  0  0  0  0  0  0  0  0
    2.6819   -1.1797    1.5120 H   0  0  0  0  0  0  0  0  0  0  0  0
    3.7126   -0.0205    3.4360 H   0  0  0  0  0  0  0  0  0  0  0  0
    5.9980    0.9301    3.2442 H   0  0  0  0  0  0  0  0  0  0  0  0
    7.2523    0.7188    1.1135 H   0  0  0  0  0  0  0  0  0  0  0  0
    6.2377   -0.4393   -0.8186 H   0  0  0  0  0  0  0  0  0  0  0  0
  1  2  1  0
  2  3  1  0
  3  4  1  0
  4  5  1  0
  5  6  1  0
  6  7  2  0
  7  8  1  0
  8  9  1  0
  9 10  1  0
  8 11  2  0
 11 12  1  0
 12 13  1  0
 11 14  1  0
 14 15  1  0
 15 16  1  0
 14 17  2  0
  5 18  2  0
 18 19  1  0
 19 20  2  0
 20 21  1  0
 21 22  2  0
 21 23  1  0
 23 24  1  0
 24 25  2  0
 24 26  1  0
 26 27  1  0
 27 28  1  0
 28 29  2  0
 29 30  1  0
 30 31  2  0
 31 32  1  0
 32 33  2  0
 20  4  1  0
 33 28  1  0
 17  6  1  0
 26 19  1  0
  1 34  1  0
  1 35  1  0
  1 36  1  0
  2 37  1  0
  2 38  1  0
  3 39  1  0
  3 40  1  0
  7 41  1  0
 10 42  1  0
 10 43  1  0
 10 44  1  0
 13 45  1  0
 13 46  1  0
 13 47  1  0
 16 48  1  0
 16 49  1  0
 16 50  1  0
 17 51  1  0
 23 52  1  0
 27 53  1  0
 27 54  1  0
 29 55  1  0
 30 56  1  0
 31 57  1  0
 32 58  1  0
 33 59  1  0
M  END
$$$$
