
     RDKit          3D

 57 61  0  0  0  0  0  0  0  0999 V2000
    7.2722   -0.0712   -1.5438 C   0  0  0  0  0  0  0  0  0  0  0  0
    6.0432   -0.9094   -1.7363 C   0  0  0  0  0  0  0  0  0  0  0  0
    6.1231   -2.3051   -1.6769 C   0  0  0  0  0  0  0  0  0  0  0  0
    4.9760   -3.0880   -1.8246 C   0  0  0  0  0  0  0  0  0  0  0  0
    3.7261   -2.4878   -2.0287 C   0  0  0  0  0  0  0  0  0  0  0  0
    2.4859   -3.3323   -2.1774 C   0  0  0  0  0  0  0  0  0  0  0  0
    1.9791   -3.7644   -0.8919 N   0  0  0  0  0  0  0  0  0  0  0  0
    2.2367   -5.0119   -0.4243 N   0  0  0  0  0  0  0  0  0  0  0  0
    1.6359   -5.1341    0.7598 N   0  0  0  0  0  0  0  0  0  0  0  0
    0.9920   -3.9618    1.0088 C   0  0  0  0  0  0  0  0  0  0  0  0
    0.1964   -3.5439    2.1304 C   0  0  0  0  0  0  0  0  0  0  0  0
   -0.0599   -4.2159    3.1230 O   0  0  0  0  0  0  0  0  0  0  0  0
   -0.2791   -2.2470    1.9775 N   0  0  0  0  0  0  0  0  0  0  0  0
   -0.0171   -1.4401    0.8716 C   0  0  0  0  0  0  0  0  0  0  0  0
   -0.6651   -0.0658    0.9290 C   0  0  0  0  0  0  0  0  0  0  0  0
   -2.1821   -0.1947    0.6970 C   0  0  0  0  0  0  0  0  0  0  0  0
   -2.7506    0.9440   -0.1490 C   0  0  0  0  0  0  0  0  0  0  0  0
   -2.1456    2.2133    0.3137 N   0  0  0  0  0  0  0  0  0  0  0  0
   -2.9891    3.6389   -0.1191 S   0  0  0  0  0  6  0  0  0  0  0  0
   -3.3027    3.5387   -1.5287 O   0  0  0  0  0  0  0  0  0  0  0  0
   -2.2651    4.7701    0.4186 O   0  0  0  0  0  0  0  0  0  0  0  0
   -4.4962    3.4935    0.8103 C   0  0  0  0  0  0  0  0  0  0  0  0
   -5.7235    3.3817    0.1475 C   0  0  0  0  0  0  0  0  0  0  0  0
   -6.8951    3.2678    0.8970 C   0  0  0  0  0  0  0  0  0  0  0  0
   -6.8264    3.2725    2.2880 C   0  0  0  0  0  0  0  0  0  0  0  0
   -7.9537    3.1610    3.0021 F   0  0  0  0  0  0  0  0  0  0  0  0
   -5.6071    3.3921    2.9498 C   0  0  0  0  0  0  0  0  0  0  0  0
   -4.4307    3.5062    2.2093 C   0  0  0  0  0  0  0  0  0  0  0  0
   -0.6820    2.2986    0.0344 C   0  0  0  0  0  0  0  0  0  0  0  0
   -0.0366    0.9171   -0.0619 C   0  0  0  0  0  0  0  0  0  0  0  0
    0.6859   -1.8199   -0.1592 N   0  0  0  0  0  0  0  0  0  0  0  0
    1.1739   -3.0784   -0.0280 C   0  0  0  0  0  0  0  0  0  0  0  0
    3.6451   -1.0889   -2.0641 C   0  0  0  0  0  0  0  0  0  0  0  0
    4.7933   -0.3074   -1.9166 C   0  0  0  0  0  0  0  0  0  0  0  0
    8.1534   -0.5715   -1.9594 H   0  0  0  0  0  0  0  0  0  0  0  0
    7.4374    0.1116   -0.4774 H   0  0  0  0  0  0  0  0  0  0  0  0
    7.1742    0.8917   -2.0562 H   0  0  0  0  0  0  0  0  0  0  0  0
    7.0811   -2.7936   -1.5114 H   0  0  0  0  0  0  0  0  0  0  0  0
    5.0643   -4.1721   -1.7688 H   0  0  0  0  0  0  0  0  0  0  0  0
    1.6865   -2.7799   -2.6850 H   0  0  0  0  0  0  0  0  0  0  0  0
    2.6945   -4.2214   -2.7841 H   0  0  0  0  0  0  0  0  0  0  0  0
   -0.8315   -1.9071    2.7511 H   0  0  0  0  0  0  0  0  0  0  0  0
   -0.5041    0.3240    1.9441 H   0  0  0  0  0  0  0  0  0  0  0  0
   -2.4410   -1.1495    0.2229 H   0  0  0  0  0  0  0  0  0  0  0  0
   -2.6797   -0.1984    1.6760 H   0  0  0  0  0  0  0  0  0  0  0  0
   -3.8380    0.9518   -0.0309 H   0  0  0  0  0  0  0  0  0  0  0  0
   -2.5343    0.7860   -1.2121 H   0  0  0  0  0  0  0  0  0  0  0  0
   -5.7754    3.3857   -0.9391 H   0  0  0  0  0  0  0  0  0  0  0  0
   -7.8609    3.1802    0.4083 H   0  0  0  0  0  0  0  0  0  0  0  0
   -5.5845    3.4012    4.0353 H   0  0  0  0  0  0  0  0  0  0  0  0
   -3.4738    3.6091    2.7165 H   0  0  0  0  0  0  0  0  0  0  0  0
   -0.2203    2.8533    0.8597 H   0  0  0  0  0  0  0  0  0  0  0  0
   -0.4895    2.8469   -0.8947 H   0  0  0  0  0  0  0  0  0  0  0  0
   -0.1495    0.5390   -1.0872 H   0  0  0  0  0  0  0  0  0  0  0  0
    1.0437    1.0049    0.1078 H   0  0  0  0  0  0  0  0  0  0  0  0
    2.6841   -0.5958   -2.1977 H   0  0  0  0  0  0  0  0  0  0  0  0
    4.7056    0.7765   -1.9414 H   0  0  0  0  0  0  0  0  0  0  0  0
  1  2  1  0
  2  3  2  0
  3  4  1  0
  4  5  2  0
  5  6  1  0
  6  7  1  0
  7  8  1  0
  8  9  2  0
  9 10  1  0
 10 11  1  0
 11 12  2  0
 11 13  1  0
 13 14  1  0
 14 15  1  0
 15 16  1  0
 16 17  1  0
 17 18  1  0
 18 19  1  0
 19 20  2  0
 19 21  2  0
 19 22  1  0
 22 23  2  0
 23 24  1  0
 24 25  2  0
 25 26  1  0
 25 27  1  0
 27 28  2  0
 18 29  1  0
 29 30  1  0
 14 31  2  0
 31 32  1  0
  5 33  1  0
 33 34  2  0
 34  2  1  0
 32  7  1  0
 32 10  2  0
 30 15  1  0
 28 22  1  0
  1 35  1  0
  1 36  1  0
  1 37  1  0
  3 38  1  0
  4 39  1  0
  6 40  1  0
  6 41  1  0
 13 42  1  0
 15 43  1  0
 16 44  1  0
 16 45  1  0
 17 46  1  0
 17 47  1  0
 23 48  1  0
 24 49  1  0
 27 50  1  0
 28 51  1  0
 29 52  1  0
 29 53  1  0
 30 54  1  0
 30 55  1  0
 33 56  1  0
 34 57  1  0
M  END
$$$$
