
     RDKit          3D

 52 54  0  0  0  0  0  0  0  0999 V2000
    3.4380   -1.4370   -3.3985 C   0  0  0  0  0  0  0  0  0  0  0  0
    3.8230   -0.1122   -2.7679 C   0  0  0  0  0  0  0  0  0  0  0  0
    3.7480   -0.2091   -1.3341 O   0  0  0  0  0  0  0  0  0  0  0  0
    4.8687   -0.6654   -0.7146 C   0  0  0  0  0  0  0  0  0  0  0  0
    5.9008   -0.9814   -1.2867 O   0  0  0  0  0  0  0  0  0  0  0  0
    4.7011   -0.7412    0.7725 C   0  0  0  0  0  0  0  0  0  0  0  0
    5.8567   -1.1314    1.4801 C   0  0  0  0  0  0  0  0  0  0  0  0
    5.8437   -1.2540    2.8673 C   0  0  0  0  0  0  0  0  0  0  0  0
    4.6739   -0.9904    3.5653 C   0  0  0  0  0  0  0  0  0  0  0  0
    3.5177   -0.6038    2.8806 C   0  0  0  0  0  0  0  0  0  0  0  0
    3.5058   -0.4700    1.4841 C   0  0  0  0  0  0  0  0  0  0  0  0
    2.3336   -0.0779    0.7900 N   0  0  0  0  0  0  0  0  0  0  0  0
    1.0797    0.2201    1.2934 C   0  0  0  0  0  0  0  0  0  0  0  0
    0.7544    0.2293    2.4748 O   0  0  0  0  0  0  0  0  0  0  0  0
    0.1014    0.6084    0.1990 C   0  0  0  0  0  0  0  0  0  0  0  0
   -0.0928   -0.4831   -0.8505 C   0  0  0  0  0  0  0  0  0  0  0  0
   -1.5285   -0.3202   -1.2772 C   0  0  0  0  0  0  0  0  0  0  0  0
   -2.0397   -0.8982   -2.2223 O   0  0  0  0  0  0  0  0  0  0  0  0
   -2.1525    0.5599   -0.3990 N   0  0  0  0  0  0  0  0  0  0  0  0
   -3.6102    0.6992   -0.3640 C   0  0  0  0  0  0  0  0  0  0  0  0
   -4.2717   -0.4465    0.4189 C   0  0  0  0  0  0  0  0  0  0  0  0
   -5.7935   -0.3165    0.4221 C   0  0  0  0  0  0  0  0  0  0  0  0
   -6.2442    1.0476    0.9366 C   0  0  0  0  0  0  0  0  0  0  0  0
   -5.5850    2.1878    0.1655 C   0  0  0  0  0  0  0  0  0  0  0  0
   -4.0629    2.0631    0.1745 C   0  0  0  0  0  0  0  0  0  0  0  0
   -1.3033    0.8289    0.7401 C   0  0  0  0  0  0  0  0  0  0  0  0
    3.4305   -1.3598   -4.4893 H   0  0  0  0  0  0  0  0  0  0  0  0
    4.1371   -2.2278   -3.1087 H   0  0  0  0  0  0  0  0  0  0  0  0
    2.4452   -1.7503   -3.0594 H   0  0  0  0  0  0  0  0  0  0  0  0
    3.1094    0.6609   -3.0709 H   0  0  0  0  0  0  0  0  0  0  0  0
    4.8149    0.2186   -3.0958 H   0  0  0  0  0  0  0  0  0  0  0  0
    6.7827   -1.3457    0.9472 H   0  0  0  0  0  0  0  0  0  0  0  0
    6.7430   -1.5561    3.3985 H   0  0  0  0  0  0  0  0  0  0  0  0
    4.6519   -1.0848    4.6489 H   0  0  0  0  0  0  0  0  0  0  0  0
    2.6339   -0.4129    3.4819 H   0  0  0  0  0  0  0  0  0  0  0  0
    2.4534    0.0041   -0.2170 H   0  0  0  0  0  0  0  0  0  0  0  0
    0.4588    1.5286   -0.2817 H   0  0  0  0  0  0  0  0  0  0  0  0
    0.0471   -1.4898   -0.4435 H   0  0  0  0  0  0  0  0  0  0  0  0
    0.5701   -0.3347   -1.7076 H   0  0  0  0  0  0  0  0  0  0  0  0
   -3.9499    0.6212   -1.4061 H   0  0  0  0  0  0  0  0  0  0  0  0
   -3.9087   -0.4531    1.4543 H   0  0  0  0  0  0  0  0  0  0  0  0
   -3.9915   -1.4140   -0.0145 H   0  0  0  0  0  0  0  0  0  0  0  0
   -6.1733   -0.4654   -0.5962 H   0  0  0  0  0  0  0  0  0  0  0  0
   -6.2291   -1.1070    1.0435 H   0  0  0  0  0  0  0  0  0  0  0  0
   -7.3339    1.1300    0.8564 H   0  0  0  0  0  0  0  0  0  0  0  0
   -5.9945    1.1357    2.0011 H   0  0  0  0  0  0  0  0  0  0  0  0
   -5.9463    2.1865   -0.8702 H   0  0  0  0  0  0  0  0  0  0  0  0
   -5.8786    3.1476    0.6053 H   0  0  0  0  0  0  0  0  0  0  0  0
   -3.7050    2.2071    1.2013 H   0  0  0  0  0  0  0  0  0  0  0  0
   -3.6245    2.8676   -0.4279 H   0  0  0  0  0  0  0  0  0  0  0  0
   -1.5669    0.1310    1.5422 H   0  0  0  0  0  0  0  0  0  0  0  0
   -1.4382    1.8563    1.0891 H   0  0  0  0  0  0  0  0  0  0  0  0
  1  2  1  0
  2  3  1  0
  3  4  1  0
  4  5  2  0
  4  6  1  0
  6  7  2  0
  7  8  1  0
  8  9  2  0
  9 10  1  0
 10 11  2  0
 11 12  1  0
 12 13  1  0
 13 14  2  0
 13 15  1  0
 15 16  1  0
 16 17  1  0
 17 18  2  0
 17 19  1  0
 19 20  1  0
 20 21  1  0
 21 22  1  0
 22 23  1  0
 23 24  1  0
 24 25  1  0
 19 26  1  0
 11  6  1  0
 26 15  1  0
 25 20  1  0
  1 27  1  0
  1 28  1  0
  1 29  1  0
  2 30  1  0
  2 31  1  0
  7 32  1  0
  8 33  1  0
  9 34  1  0
 10 35  1  0
 12 36  1  0
 15 37  1  0
 16 38  1  0
 16 39  1  0
 20 40  1  0
 21 41  1  0
 21 42  1  0
 22 43  1  0
 22 44  1  0
 23 45  1  0
 23 46  1  0
 24 47  1  0
 24 48  1  0
 25 49  1  0
 25 50  1  0
 26 51  1  0
 26 52  1  0
M  END
$$$$
