
     RDKit          3D

 53 58  0  0  0  0  0  0  0  0999 V2000
    6.5148   -0.6251   -1.4606 C   0  0  0  0  0  0  0  0  0  0  0  0
    5.8092   -0.6341   -0.1158 C   0  0  0  0  0  0  0  0  0  0  0  0
    5.5208    0.7192    0.2605 O   0  0  0  0  0  0  0  0  0  0  0  0
    4.2014    0.9268    0.5424 C   0  0  0  0  0  0  0  0  0  0  0  0
    3.8820    1.4119    1.8045 C   0  0  0  0  0  0  0  0  0  0  0  0
    2.5468    1.6400    2.1463 C   0  0  0  0  0  0  0  0  0  0  0  0
    1.5140    1.4066    1.2221 C   0  0  0  0  0  0  0  0  0  0  0  0
    0.0624    1.6438    1.6453 C   0  0  0  0  0  0  0  0  0  0  0  0
   -0.6096    2.6194    0.7656 N   0  0  0  0  0  0  0  0  0  0  0  0
   -1.2902    2.0906   -0.3497 C   0  0  0  0  0  0  0  0  0  0  0  0
   -1.5390    2.9414   -1.4295 C   0  0  0  0  0  0  0  0  0  0  0  0
   -2.1118    2.4523   -2.5975 C   0  0  0  0  0  0  0  0  0  0  0  0
   -2.3941    1.0922   -2.7301 C   0  0  0  0  0  0  0  0  0  0  0  0
   -2.8438    0.6041   -3.9692 C   0  0  0  0  0  0  0  0  0  0  0  0
   -3.0498   -0.7560   -4.1711 C   0  0  0  0  0  0  0  0  0  0  0  0
   -2.8048   -1.6461   -3.1373 C   0  0  0  0  0  0  0  0  0  0  0  0
   -2.3710   -1.1696   -1.8975 C   0  0  0  0  0  0  0  0  0  0  0  0
   -2.1891    0.2110   -1.6336 C   0  0  0  0  0  0  0  0  0  0  0  0
   -1.7541    0.7541   -0.3815 C   0  0  0  0  0  0  0  0  0  0  0  0
   -1.6760   -0.0226    0.9013 C   0  0  0  0  0  0  0  0  0  0  0  0
   -0.7394    0.3818    1.7815 C   0  0  0  0  0  0  0  0  0  0  0  0
   -0.4606   -0.3766    3.0218 C   0  0  0  0  0  0  0  0  0  0  0  0
    0.1680    0.1062    3.9587 O   0  0  0  0  0  0  0  0  0  0  0  0
   -0.8606   -1.6996    3.0249 O   0  0  0  0  0  0  0  0  0  0  0  0
   -2.0607   -1.9733    2.3603 C   0  0  0  0  0  0  0  0  0  0  0  0
   -2.7834   -3.0812    2.8028 C   0  0  0  0  0  0  0  0  0  0  0  0
   -4.0484   -3.3217    2.2730 C   0  0  0  0  0  0  0  0  0  0  0  0
   -4.5848   -2.4436    1.3326 C   0  0  0  0  0  0  0  0  0  0  0  0
   -3.8422   -1.3457    0.8947 C   0  0  0  0  0  0  0  0  0  0  0  0
   -2.5430   -1.1235    1.3692 C   0  0  0  0  0  0  0  0  0  0  0  0
    1.8639    0.9391   -0.0555 C   0  0  0  0  0  0  0  0  0  0  0  0
    3.1996    0.7241   -0.4027 C   0  0  0  0  0  0  0  0  0  0  0  0
    7.4733   -0.0977   -1.3868 H   0  0  0  0  0  0  0  0  0  0  0  0
    6.7009   -1.6431   -1.8213 H   0  0  0  0  0  0  0  0  0  0  0  0
    5.9204   -0.0905   -2.2099 H   0  0  0  0  0  0  0  0  0  0  0  0
    6.4754   -1.0508    0.6482 H   0  0  0  0  0  0  0  0  0  0  0  0
    4.9201   -1.2772   -0.1522 H   0  0  0  0  0  0  0  0  0  0  0  0
    4.6679    1.5933    2.5316 H   0  0  0  0  0  0  0  0  0  0  0  0
    2.3176    1.9909    3.1523 H   0  0  0  0  0  0  0  0  0  0  0  0
    0.0762    2.1539    2.6175 H   0  0  0  0  0  0  0  0  0  0  0  0
    0.0394    3.3442    0.4807 H   0  0  0  0  0  0  0  0  0  0  0  0
   -1.2504    3.9901   -1.3777 H   0  0  0  0  0  0  0  0  0  0  0  0
   -2.2676    3.1392   -3.4296 H   0  0  0  0  0  0  0  0  0  0  0  0
   -3.0106    1.2855   -4.8026 H   0  0  0  0  0  0  0  0  0  0  0  0
   -3.3740   -1.1196   -5.1403 H   0  0  0  0  0  0  0  0  0  0  0  0
   -2.9321   -2.7152   -3.2917 H   0  0  0  0  0  0  0  0  0  0  0  0
   -2.1399   -1.9143   -1.1402 H   0  0  0  0  0  0  0  0  0  0  0  0
   -2.3809   -3.7261    3.5801 H   0  0  0  0  0  0  0  0  0  0  0  0
   -4.6304   -4.1720    2.6168 H   0  0  0  0  0  0  0  0  0  0  0  0
   -5.5881   -2.6090    0.9443 H   0  0  0  0  0  0  0  0  0  0  0  0
   -4.2948   -0.6691    0.1724 H   0  0  0  0  0  0  0  0  0  0  0  0
    1.1050    0.7508   -0.8091 H   0  0  0  0  0  0  0  0  0  0  0  0
    3.4459    0.3911   -1.4059 H   0  0  0  0  0  0  0  0  0  0  0  0
  1  2  1  0
  2  3  1  0
  3  4  1  0
  4  5  2  0
  5  6  1  0
  6  7  2  0
  7  8  1  0
  8  9  1  0
  9 10  1  0
 10 11  2  0
 11 12  1  0
 12 13  2  0
 13 14  1  0
 14 15  2  0
 15 16  1  0
 16 17  2  0
 17 18  1  0
 18 19  2  0
 19 20  1  0
 20 21  2  0
 21 22  1  0
 22 23  2  0
 22 24  1  0
 24 25  1  0
 25 26  2  0
 26 27  1  0
 27 28  2  0
 28 29  1  0
 29 30  2  0
  7 31  1  0
 31 32  2  0
 32  4  1  0
 21  8  1  0
 30 25  1  0
 19 10  1  0
 30 20  1  0
 18 13  1  0
  1 33  1  0
  1 34  1  0
  1 35  1  0
  2 36  1  0
  2 37  1  0
  5 38  1  0
  6 39  1  0
  8 40  1  0
  9 41  1  0
 11 42  1  0
 12 43  1  0
 14 44  1  0
 15 45  1  0
 16 46  1  0
 17 47  1  0
 26 48  1  0
 27 49  1  0
 28 50  1  0
 29 51  1  0
 31 52  1  0
 32 53  1  0
M  END
$$$$
