
     RDKit          3D

 43 44  0  0  0  0  0  0  0  0999 V2000
    7.0859    1.3314   -0.1308 C   0  0  0  0  0  0  0  0  0  0  0  0
    6.1089    0.3645    0.5110 C   0  0  0  0  0  0  0  0  0  0  0  0
    4.8835    1.0388    0.8314 O   0  0  0  0  0  0  0  0  0  0  0  0
    3.9536    1.0864   -0.1636 C   0  0  0  0  0  0  0  0  0  0  0  0
    4.1061    0.6500   -1.2991 O   0  0  0  0  0  0  0  0  0  0  0  0
    2.7130    1.8283    0.3174 C   0  0  0  0  0  0  0  0  0  0  0  0
    1.5960    1.5820   -0.5821 N   0  0  0  0  0  0  0  0  0  0  0  0
    0.7274    0.5382   -0.3614 C   0  0  0  0  0  0  0  0  0  0  0  0
    0.7560   -0.1597    0.6490 O   0  0  0  0  0  0  0  0  0  0  0  0
   -0.2855    0.2997   -1.4645 C   0  0  0  0  0  0  0  0  0  0  0  0
   -1.4647    1.6707   -1.6175 S   0  0  0  0  0  0  0  0  0  0  0  0
   -1.9533    1.9172    0.0293 C   0  0  0  0  0  0  0  0  0  0  0  0
   -1.6851    3.0141    0.7021 N   0  0  0  0  0  0  0  0  0  0  0  0
   -1.9754    2.7331    2.0098 N   0  0  0  0  0  0  0  0  0  0  0  0
   -2.4083    1.4883    2.1475 N   0  0  0  0  0  0  0  0  0  0  0  0
   -2.5003    0.9801    0.8908 N   0  0  0  0  0  0  0  0  0  0  0  0
   -3.0285   -0.3143    0.6709 C   0  0  0  0  0  0  0  0  0  0  0  0
   -2.6364   -1.3176    1.5789 C   0  0  0  0  0  0  0  0  0  0  0  0
   -3.0484   -2.6438    1.4076 C   0  0  0  0  0  0  0  0  0  0  0  0
   -2.5735   -3.7144    2.3448 C   0  0  0  0  0  0  0  0  0  0  0  0
   -3.8522   -2.9642    0.3132 C   0  0  0  0  0  0  0  0  0  0  0  0
   -4.2840   -1.9660   -0.5629 C   0  0  0  0  0  0  0  0  0  0  0  0
   -3.9090   -0.6221   -0.3840 C   0  0  0  0  0  0  0  0  0  0  0  0
   -4.5572    0.3872   -1.2928 C   0  0  0  0  0  0  0  0  0  0  0  0
    7.2541    2.1968    0.5186 H   0  0  0  0  0  0  0  0  0  0  0  0
    8.0451    0.8428   -0.3236 H   0  0  0  0  0  0  0  0  0  0  0  0
    6.6937    1.7158   -1.0777 H   0  0  0  0  0  0  0  0  0  0  0  0
    5.9285   -0.5069   -0.1287 H   0  0  0  0  0  0  0  0  0  0  0  0
    6.5247   -0.0086    1.4527 H   0  0  0  0  0  0  0  0  0  0  0  0
    2.4555    1.5005    1.3288 H   0  0  0  0  0  0  0  0  0  0  0  0
    2.9186    2.9021    0.3071 H   0  0  0  0  0  0  0  0  0  0  0  0
    1.6616    1.9659   -1.5172 H   0  0  0  0  0  0  0  0  0  0  0  0
   -0.8172   -0.6360   -1.2685 H   0  0  0  0  0  0  0  0  0  0  0  0
    0.2467    0.1780   -2.4134 H   0  0  0  0  0  0  0  0  0  0  0  0
   -1.9651   -1.0783    2.4055 H   0  0  0  0  0  0  0  0  0  0  0  0
   -1.6434   -4.1533    1.9716 H   0  0  0  0  0  0  0  0  0  0  0  0
   -3.3243   -4.5052    2.4456 H   0  0  0  0  0  0  0  0  0  0  0  0
   -2.3957   -3.3071    3.3457 H   0  0  0  0  0  0  0  0  0  0  0  0
   -4.1681   -3.9920    0.1463 H   0  0  0  0  0  0  0  0  0  0  0  0
   -4.9498   -2.2430   -1.3797 H   0  0  0  0  0  0  0  0  0  0  0  0
   -4.0742    0.3877   -2.2736 H   0  0  0  0  0  0  0  0  0  0  0  0
   -5.6152    0.1371   -1.4359 H   0  0  0  0  0  0  0  0  0  0  0  0
   -4.5441    1.3958   -0.8708 H   0  0  0  0  0  0  0  0  0  0  0  0
  1  2  1  0
  2  3  1  0
  3  4  1  0
  4  5  2  0
  4  6  1  0
  6  7  1  0
  7  8  1  0
  8  9  2  0
  8 10  1  0
 10 11  1  0
 11 12  1  0
 12 13  2  0
 13 14  1  0
 14 15  2  0
 15 16  1  0
 16 17  1  0
 17 18  2  0
 18 19  1  0
 19 20  1  0
 19 21  2  0
 21 22  1  0
 22 23  2  0
 23 24  1  0
 16 12  1  0
 23 17  1  0
  1 25  1  0
  1 26  1  0
  1 27  1  0
  2 28  1  0
  2 29  1  0
  6 30  1  0
  6 31  1  0
  7 32  1  0
 10 33  1  0
 10 34  1  0
 18 35  1  0
 20 36  1  0
 20 37  1  0
 20 38  1  0
 21 39  1  0
 22 40  1  0
 24 41  1  0
 24 42  1  0
 24 43  1  0
M  END
$$$$
