
     RDKit          3D

 55 58  0  0  0  0  0  0  0  0999 V2000
    0.6754    3.2251   -1.1283 C   0  0  0  0  0  0  0  0  0  0  0  0
   -0.2602    2.2996   -0.5639 O   0  0  0  0  0  0  0  0  0  0  0  0
   -1.4648    2.8493   -0.2568 C   0  0  0  0  0  0  0  0  0  0  0  0
   -1.7510    4.0262   -0.4218 O   0  0  0  0  0  0  0  0  0  0  0  0
   -2.4155    1.8490    0.3287 C   0  0  0  0  0  0  0  0  0  0  0  0
   -3.6461    2.3840    0.7620 C   0  0  0  0  0  0  0  0  0  0  0  0
   -4.6280    1.5730    1.3333 C   0  0  0  0  0  0  0  0  0  0  0  0
   -5.8453    2.0226    1.7782 O   0  0  0  0  0  0  0  0  0  0  0  0
   -6.1470    3.4012    1.6123 C   0  0  0  0  0  0  0  0  0  0  0  0
   -4.3824    0.1985    1.4810 C   0  0  0  0  0  0  0  0  0  0  0  0
   -5.3931   -0.5340    2.0542 O   0  0  0  0  0  0  0  0  0  0  0  0
   -5.1894   -1.9311    2.2188 C   0  0  0  0  0  0  0  0  0  0  0  0
   -3.1615   -0.3387    1.0501 C   0  0  0  0  0  0  0  0  0  0  0  0
   -2.1682    0.4643    0.4684 C   0  0  0  0  0  0  0  0  0  0  0  0
   -0.9394   -0.0889    0.0299 N   0  0  0  0  0  0  0  0  0  0  0  0
   -0.5177   -1.4039    0.0549 C   0  0  0  0  0  0  0  0  0  0  0  0
   -1.1406   -2.3830    0.4384 O   0  0  0  0  0  0  0  0  0  0  0  0
    0.8629   -1.5855   -0.4596 C   0  0  0  0  0  0  0  0  0  0  0  0
    1.8814   -0.8600    0.1655 C   0  0  0  0  0  0  0  0  0  0  0  0
    3.1739   -0.9824   -0.3136 C   0  0  0  0  0  0  0  0  0  0  0  0
    4.3227   -0.2478    0.2600 C   0  0  0  0  0  0  0  0  0  0  0  0
    5.6222   -0.7857    0.1939 C   0  0  0  0  0  0  0  0  0  0  0  0
    6.7234   -0.1115    0.7305 C   0  0  0  0  0  0  0  0  0  0  0  0
    6.5507    1.1244    1.3444 C   0  0  0  0  0  0  0  0  0  0  0  0
    5.2800    1.6861    1.4180 C   0  0  0  0  0  0  0  0  0  0  0  0
    4.1798    1.0085    0.8803 C   0  0  0  0  0  0  0  0  0  0  0  0
    3.4585   -1.8006   -1.3565 N   0  0  0  0  0  0  0  0  0  0  0  0
    2.4823   -2.5131   -1.9456 C   0  0  0  0  0  0  0  0  0  0  0  0
    2.8212   -3.3395   -3.0090 C   0  0  0  0  0  0  0  0  0  0  0  0
    1.8686   -4.1057   -3.6845 C   0  0  0  0  0  0  0  0  0  0  0  0
    0.5392   -4.0485   -3.2933 C   0  0  0  0  0  0  0  0  0  0  0  0
    0.1731   -3.2262   -2.2297 C   0  0  0  0  0  0  0  0  0  0  0  0
    1.1383   -2.4500   -1.5388 C   0  0  0  0  0  0  0  0  0  0  0  0
    0.8941    4.0287   -0.4187 H   0  0  0  0  0  0  0  0  0  0  0  0
    1.6021    2.6824   -1.3336 H   0  0  0  0  0  0  0  0  0  0  0  0
    0.2929    3.6286   -2.0706 H   0  0  0  0  0  0  0  0  0  0  0  0
   -3.8162    3.4509    0.6440 H   0  0  0  0  0  0  0  0  0  0  0  0
   -7.1547    3.5724    2.0029 H   0  0  0  0  0  0  0  0  0  0  0  0
   -5.4573    4.0277    2.1872 H   0  0  0  0  0  0  0  0  0  0  0  0
   -6.1491    3.6804    0.5536 H   0  0  0  0  0  0  0  0  0  0  0  0
   -6.0911   -2.3477    2.6787 H   0  0  0  0  0  0  0  0  0  0  0  0
   -5.0511   -2.4274    1.2527 H   0  0  0  0  0  0  0  0  0  0  0  0
   -4.3503   -2.1305    2.8933 H   0  0  0  0  0  0  0  0  0  0  0  0
   -2.9856   -1.3996    1.1719 H   0  0  0  0  0  0  0  0  0  0  0  0
   -0.2976    0.5828   -0.3863 H   0  0  0  0  0  0  0  0  0  0  0  0
    1.6595   -0.2375    1.0258 H   0  0  0  0  0  0  0  0  0  0  0  0
    5.7839   -1.7519   -0.2829 H   0  0  0  0  0  0  0  0  0  0  0  0
    7.7134   -0.5552    0.6645 H   0  0  0  0  0  0  0  0  0  0  0  0
    7.4060    1.6503    1.7604 H   0  0  0  0  0  0  0  0  0  0  0  0
    5.1433    2.6556    1.8901 H   0  0  0  0  0  0  0  0  0  0  0  0
    3.2084    1.4924    0.9423 H   0  0  0  0  0  0  0  0  0  0  0  0
    3.8618   -3.3887   -3.3231 H   0  0  0  0  0  0  0  0  0  0  0  0
    2.1709   -4.7436   -4.5110 H   0  0  0  0  0  0  0  0  0  0  0  0
   -0.2116   -4.6429   -3.8080 H   0  0  0  0  0  0  0  0  0  0  0  0
   -0.8748   -3.2029   -1.9346 H   0  0  0  0  0  0  0  0  0  0  0  0
  1  2  1  0
  2  3  1  0
  3  4  2  0
  3  5  1  0
  5  6  2  0
  6  7  1  0
  7  8  1  0
  8  9  1  0
  7 10  2  0
 10 11  1  0
 11 12  1  0
 10 13  1  0
 13 14  2  0
 14 15  1  0
 15 16  1  0
 16 17  2  0
 16 18  1  0
 18 19  2  0
 19 20  1  0
 20 21  1  0
 21 22  2  0
 22 23  1  0
 23 24  2  0
 24 25  1  0
 25 26  2  0
 20 27  2  0
 27 28  1  0
 28 29  2  0
 29 30  1  0
 30 31  2  0
 31 32  1  0
 32 33  2  0
 14  5  1  0
 33 18  1  0
 26 21  1  0
 33 28  1  0
  1 34  1  0
  1 35  1  0
  1 36  1  0
  6 37  1  0
  9 38  1  0
  9 39  1  0
  9 40  1  0
 12 41  1  0
 12 42  1  0
 12 43  1  0
 13 44  1  0
 15 45  1  0
 19 46  1  0
 22 47  1  0
 23 48  1  0
 24 49  1  0
 25 50  1  0
 26 51  1  0
 29 52  1  0
 30 53  1  0
 31 54  1  0
 32 55  1  0
M  END
$$$$
