
     RDKit          3D

 41 42  0  0  0  0  0  0  0  0999 V2000
   -5.4415   -0.1759   -3.7267 C   0  0  0  0  0  0  0  0  0  0  0  0
   -5.6163    0.9810   -2.3418 S   0  0  0  0  0  0  0  0  0  0  0  0
   -3.9218    1.0742   -1.7918 C   0  0  0  0  0  0  0  0  0  0  0  0
   -3.1825   -0.0671   -1.4735 C   0  0  0  0  0  0  0  0  0  0  0  0
   -1.8601    0.0451   -1.0327 C   0  0  0  0  0  0  0  0  0  0  0  0
   -1.2581    1.3032   -0.8861 C   0  0  0  0  0  0  0  0  0  0  0  0
    0.1732    1.4240   -0.4063 C   0  0  0  0  0  0  0  0  0  0  0  0
    0.3942    1.5665    1.0505 N   0  0  0  0  0  0  0  0  0  0  0  0
   -0.1748    2.8072    1.5766 C   0  0  0  0  0  0  0  0  0  0  0  0
   -0.0999    0.4101    1.8378 C   0  0  0  0  0  0  0  0  0  0  0  0
    0.7125   -0.8586    1.5426 C   0  0  0  0  0  0  0  0  0  0  0  0
    0.1755   -1.9601    1.4853 O   0  0  0  0  0  0  0  0  0  0  0  0
    2.0635   -0.5861    1.4065 N   0  0  0  0  0  0  0  0  0  0  0  0
    3.1167   -1.4860    1.1705 C   0  0  0  0  0  0  0  0  0  0  0  0
    4.3938   -0.9379    0.9892 C   0  0  0  0  0  0  0  0  0  0  0  0
    5.4974   -1.7611    0.7514 C   0  0  0  0  0  0  0  0  0  0  0  0
    5.3333   -3.1426    0.6940 C   0  0  0  0  0  0  0  0  0  0  0  0
    4.0653   -3.6904    0.8764 C   0  0  0  0  0  0  0  0  0  0  0  0
    3.8440   -5.5682    0.8014 Br  0  0  0  0  0  0  0  0  0  0  0  0
    2.9585   -2.8718    1.1148 C   0  0  0  0  0  0  0  0  0  0  0  0
   -2.0074    2.4449   -1.2020 C   0  0  0  0  0  0  0  0  0  0  0  0
   -3.3290    2.3307   -1.6436 C   0  0  0  0  0  0  0  0  0  0  0  0
   -5.1870   -1.1773   -3.3706 H   0  0  0  0  0  0  0  0  0  0  0  0
   -6.3929   -0.2349   -4.2623 H   0  0  0  0  0  0  0  0  0  0  0  0
   -4.6734    0.1711   -4.4235 H   0  0  0  0  0  0  0  0  0  0  0  0
   -3.6253   -1.0567   -1.5494 H   0  0  0  0  0  0  0  0  0  0  0  0
   -1.3071   -0.8629   -0.7956 H   0  0  0  0  0  0  0  0  0  0  0  0
    0.6409    2.2788   -0.9146 H   0  0  0  0  0  0  0  0  0  0  0  0
    0.7402    0.5628   -0.7827 H   0  0  0  0  0  0  0  0  0  0  0  0
    0.1566    2.9652    2.6093 H   0  0  0  0  0  0  0  0  0  0  0  0
    0.1786    3.6722    1.0045 H   0  0  0  0  0  0  0  0  0  0  0  0
   -1.2699    2.8067    1.5737 H   0  0  0  0  0  0  0  0  0  0  0  0
    0.0358    0.6041    2.9098 H   0  0  0  0  0  0  0  0  0  0  0  0
   -1.1643    0.2151    1.6736 H   0  0  0  0  0  0  0  0  0  0  0  0
    2.2795    0.4078    1.4050 H   0  0  0  0  0  0  0  0  0  0  0  0
    4.5466    0.1379    1.0306 H   0  0  0  0  0  0  0  0  0  0  0  0
    6.4831   -1.3241    0.6125 H   0  0  0  0  0  0  0  0  0  0  0  0
    6.1931   -3.7810    0.5094 H   0  0  0  0  0  0  0  0  0  0  0  0
    1.9876   -3.3345    1.2574 H   0  0  0  0  0  0  0  0  0  0  0  0
   -1.5682    3.4353   -1.1052 H   0  0  0  0  0  0  0  0  0  0  0  0
   -3.8905    3.2331   -1.8744 H   0  0  0  0  0  0  0  0  0  0  0  0
  1  2  1  0
  2  3  1  0
  3  4  2  0
  4  5  1  0
  5  6  2  0
  6  7  1  0
  7  8  1  0
  8  9  1  0
  8 10  1  0
 10 11  1  0
 11 12  2  0
 11 13  1  0
 13 14  1  0
 14 15  2  0
 15 16  1  0
 16 17  2  0
 17 18  1  0
 18 19  1  0
 18 20  2  0
  6 21  1  0
 21 22  2  0
 22  3  1  0
 20 14  1  0
  1 23  1  0
  1 24  1  0
  1 25  1  0
  4 26  1  0
  5 27  1  0
  7 28  1  0
  7 29  1  0
  9 30  1  0
  9 31  1  0
  9 32  1  0
 10 33  1  0
 10 34  1  0
 13 35  1  0
 15 36  1  0
 16 37  1  0
 17 38  1  0
 20 39  1  0
 21 40  1  0
 22 41  1  0
M  END
$$$$
