
     RDKit          3D

 49 52  0  0  0  0  0  0  0  0999 V2000
   -0.4894   -0.2863   -2.7825 C   0  0  0  0  0  0  0  0  0  0  0  0
   -0.3594   -0.0778   -1.2761 C   0  0  0  0  0  0  0  0  0  0  0  0
    1.0284   -0.1697   -0.8610 N   0  0  0  0  0  0  0  0  0  0  0  0
    1.9027    0.8709   -0.9920 C   0  0  0  0  0  0  0  0  0  0  0  0
    1.6002    1.9699   -1.4396 O   0  0  0  0  0  0  0  0  0  0  0  0
    3.2700    0.5388   -0.5315 C   0  0  0  0  0  0  0  0  0  0  0  0
    4.2375    1.4622   -0.6213 C   0  0  0  0  0  0  0  0  0  0  0  0
    5.5604    1.1771   -0.1882 C   0  0  0  0  0  0  0  0  0  0  0  0
    6.6761    2.0069   -0.2103 C   0  0  0  0  0  0  0  0  0  0  0  0
    7.7697    1.2849    0.3235 C   0  0  0  0  0  0  0  0  0  0  0  0
    7.2768    0.0479    0.6482 C   0  0  0  0  0  0  0  0  0  0  0  0
    5.9583   -0.0297    0.3476 O   0  0  0  0  0  0  0  0  0  0  0  0
   -1.1056   -1.1457   -0.5244 C   0  0  0  0  0  0  0  0  0  0  0  0
   -0.5637   -2.2976   -0.1606 N   0  0  0  0  0  0  0  0  0  0  0  0
   -1.5673   -3.0215    0.4203 C   0  0  0  0  0  0  0  0  0  0  0  0
   -1.5304   -4.3206    0.9485 C   0  0  0  0  0  0  0  0  0  0  0  0
   -2.7037   -4.8693    1.4766 C   0  0  0  0  0  0  0  0  0  0  0  0
   -3.8907   -4.1378    1.4774 C   0  0  0  0  0  0  0  0  0  0  0  0
   -3.9443   -2.8394    0.9562 C   0  0  0  0  0  0  0  0  0  0  0  0
   -2.7573   -2.3022    0.4357 C   0  0  0  0  0  0  0  0  0  0  0  0
   -2.4302   -1.0806   -0.1283 N   0  0  0  0  0  0  0  0  0  0  0  0
   -3.3873   -0.0005   -0.3777 C   0  0  0  0  0  0  0  0  0  0  0  0
   -3.0346    1.3306    0.2523 C   0  0  0  0  0  0  0  0  0  0  0  0
   -2.8998    1.4863    1.6470 C   0  0  0  0  0  0  0  0  0  0  0  0
   -3.2020    0.2005    2.7609 Cl  0  0  0  0  0  0  0  0  0  0  0  0
   -2.5529    2.7203    2.2133 C   0  0  0  0  0  0  0  0  0  0  0  0
   -2.3558    3.8353    1.4078 C   0  0  0  0  0  0  0  0  0  0  0  0
   -2.5278    3.7219    0.0340 C   0  0  0  0  0  0  0  0  0  0  0  0
   -2.8754    2.4909   -0.5367 C   0  0  0  0  0  0  0  0  0  0  0  0
   -3.1022    2.4848   -2.2536 Cl  0  0  0  0  0  0  0  0  0  0  0  0
   -0.0774   -1.2552   -3.0890 H   0  0  0  0  0  0  0  0  0  0  0  0
    0.0525    0.4890   -3.3345 H   0  0  0  0  0  0  0  0  0  0  0  0
   -1.5370   -0.2565   -3.0995 H   0  0  0  0  0  0  0  0  0  0  0  0
   -0.7069    0.9198   -1.0119 H   0  0  0  0  0  0  0  0  0  0  0  0
    1.3186   -1.0723   -0.4990 H   0  0  0  0  0  0  0  0  0  0  0  0
    3.4529   -0.4502   -0.1298 H   0  0  0  0  0  0  0  0  0  0  0  0
    4.0285    2.4480   -1.0283 H   0  0  0  0  0  0  0  0  0  0  0  0
    6.6893    3.0248   -0.5756 H   0  0  0  0  0  0  0  0  0  0  0  0
    8.7871    1.6246    0.4540 H   0  0  0  0  0  0  0  0  0  0  0  0
    7.7109   -0.8435    1.0788 H   0  0  0  0  0  0  0  0  0  0  0  0
   -0.6040   -4.8837    0.9383 H   0  0  0  0  0  0  0  0  0  0  0  0
   -2.6866   -5.8752    1.8887 H   0  0  0  0  0  0  0  0  0  0  0  0
   -4.7918   -4.5820    1.8955 H   0  0  0  0  0  0  0  0  0  0  0  0
   -4.8736   -2.2811    0.9767 H   0  0  0  0  0  0  0  0  0  0  0  0
   -4.3726   -0.3056   -0.0104 H   0  0  0  0  0  0  0  0  0  0  0  0
   -3.4793    0.0409   -1.4661 H   0  0  0  0  0  0  0  0  0  0  0  0
   -2.4410    2.8177    3.2916 H   0  0  0  0  0  0  0  0  0  0  0  0
   -2.0820    4.7903    1.8494 H   0  0  0  0  0  0  0  0  0  0  0  0
   -2.3878    4.5999   -0.5939 H   0  0  0  0  0  0  0  0  0  0  0  0
  1  2  1  0
  2  3  1  0
  3  4  1  0
  4  5  2  0
  4  6  1  0
  6  7  2  3
  7  8  1  0
  8  9  2  0
  9 10  1  0
 10 11  2  0
 11 12  1  0
  2 13  1  0
 13 14  2  0
 14 15  1  0
 15 16  2  0
 16 17  1  0
 17 18  2  0
 18 19  1  0
 19 20  2  0
 20 21  1  0
 21 22  1  0
 22 23  1  0
 23 24  2  0
 24 25  1  0
 24 26  1  0
 26 27  2  0
 27 28  1  0
 28 29  2  0
 29 30  1  0
 12  8  1  0
 21 13  1  0
 29 23  1  0
 20 15  1  0
  1 31  1  0
  1 32  1  0
  1 33  1  0
  2 34  1  0
  3 35  1  0
  6 36  1  0
  7 37  1  0
  9 38  1  0
 10 39  1  0
 11 40  1  0
 16 41  1  0
 17 42  1  0
 18 43  1  0
 19 44  1  0
 22 45  1  0
 22 46  1  0
 26 47  1  0
 27 48  1  0
 28 49  1  0
M  END
$$$$
