
     RDKit          3D

 36 37  0  0  0  0  0  0  0  0999 V2000
   -1.5527   -2.1153    2.2889 C   0  0  0  0  0  0  0  0  0  0  0  0
   -1.3232   -0.9948    1.2776 C   0  0  0  0  0  0  0  0  0  0  0  0
   -2.1965    0.2274    1.6047 C   0  0  0  0  0  0  0  0  0  0  0  0
   -2.4799    1.0998    0.3704 C   0  0  0  0  0  0  0  0  0  0  0  0
   -2.7140    2.5541    0.7722 C   0  0  0  0  0  0  0  0  0  0  0  0
   -1.3525    0.9812   -0.6592 C   0  0  0  0  0  0  0  0  0  0  0  0
   -1.2426   -0.4172   -1.1346 N   0  0  0  0  0  0  0  0  0  0  0  0
   -0.0640   -0.7333   -2.3104 S   0  0  0  0  0  6  0  0  0  0  0  0
   -0.1820   -2.1073   -2.7457 O   0  0  0  0  0  0  0  0  0  0  0  0
   -0.0742    0.3622   -3.2573 O   0  0  0  0  0  0  0  0  0  0  0  0
    1.5367   -0.5947   -1.5311 C   0  0  0  0  0  0  0  0  0  0  0  0
    2.4754    0.4199   -1.5382 C   0  0  0  0  0  0  0  0  0  0  0  0
    3.6521    0.1260   -0.7556 C   0  0  0  0  0  0  0  0  0  0  0  0
    4.7647    1.0519   -0.6223 C   0  0  0  0  0  0  0  0  0  0  0  0
    4.7867    2.1742   -1.1077 O   0  0  0  0  0  0  0  0  0  0  0  0
    5.8239    0.6166    0.0868 O   0  0  0  0  0  0  0  0  0  0  0  0
    3.5210   -1.1250   -0.1913 C   0  0  0  0  0  0  0  0  0  0  0  0
    4.5995   -1.9820    0.8455 Cl  0  0  0  0  0  0  0  0  0  0  0  0
    2.0664   -1.9101   -0.5845 S   0  0  0  0  0  0  0  0  0  0  0  0
   -1.5656   -1.4796   -0.1538 C   0  0  0  0  0  0  0  0  0  0  0  0
   -1.3629   -1.7628    3.3081 H   0  0  0  0  0  0  0  0  0  0  0  0
   -0.8797   -2.9570    2.0944 H   0  0  0  0  0  0  0  0  0  0  0  0
   -2.5816   -2.4878    2.2435 H   0  0  0  0  0  0  0  0  0  0  0  0
   -0.2726   -0.6859    1.3633 H   0  0  0  0  0  0  0  0  0  0  0  0
   -1.6931    0.8107    2.3866 H   0  0  0  0  0  0  0  0  0  0  0  0
   -3.1575   -0.0852    2.0334 H   0  0  0  0  0  0  0  0  0  0  0  0
   -3.4056    0.7327   -0.0948 H   0  0  0  0  0  0  0  0  0  0  0  0
   -3.5320    2.6295    1.4964 H   0  0  0  0  0  0  0  0  0  0  0  0
   -1.8173    2.9911    1.2245 H   0  0  0  0  0  0  0  0  0  0  0  0
   -2.9812    3.1595   -0.1003 H   0  0  0  0  0  0  0  0  0  0  0  0
   -0.4015    1.3071   -0.2224 H   0  0  0  0  0  0  0  0  0  0  0  0
   -1.5784    1.6296   -1.5132 H   0  0  0  0  0  0  0  0  0  0  0  0
    2.3297    1.3433   -2.0910 H   0  0  0  0  0  0  0  0  0  0  0  0
    6.4534    1.3659    0.0516 H   0  0  0  0  0  0  0  0  0  0  0  0
   -0.9816   -2.3854   -0.3425 H   0  0  0  0  0  0  0  0  0  0  0  0
   -2.6172   -1.7592   -0.2934 H   0  0  0  0  0  0  0  0  0  0  0  0
  1  2  1  0
  2  3  1  0
  3  4  1  0
  4  5  1  0
  4  6  1  0
  6  7  1  0
  7  8  1  0
  8  9  2  0
  8 10  2  0
  8 11  1  0
 11 12  2  0
 12 13  1  0
 13 14  1  0
 14 15  2  0
 14 16  1  0
 13 17  2  0
 17 18  1  0
 17 19  1  0
  7 20  1  0
 20  2  1  0
 19 11  1  0
  1 21  1  0
  1 22  1  0
  1 23  1  0
  2 24  1  0
  3 25  1  0
  3 26  1  0
  4 27  1  0
  5 28  1  0
  5 29  1  0
  5 30  1  0
  6 31  1  0
  6 32  1  0
 12 33  1  0
 16 34  1  0
 20 35  1  0
 20 36  1  0
M  END
$$$$
