
     RDKit          3D

 51 54  0  0  0  0  0  0  0  0999 V2000
   -0.5124    1.1642   -2.3128 O   0  0  0  0  0  0  0  0  0  0  0  0
   -0.8839    0.5758   -1.2942 C   0  0  0  0  0  0  0  0  0  0  0  0
    0.1236    0.1018   -0.3286 C   0  0  0  0  0  0  0  0  0  0  0  0
    1.5178   -0.0206   -0.5834 C   0  0  0  0  0  0  0  0  0  0  0  0
    2.0630   -0.4497    0.6011 C   0  0  0  0  0  0  0  0  0  0  0  0
    3.4257   -0.7912    1.0708 C   0  0  0  0  0  0  0  0  0  0  0  0
    4.3446   -0.3354    0.0793 O   0  0  0  0  0  0  0  0  0  0  0  0
    5.6756   -0.5139    0.3357 C   0  0  0  0  0  0  0  0  0  0  0  0
    6.2198   -1.1823    1.4322 C   0  0  0  0  0  0  0  0  0  0  0  0
    7.6060   -1.2960    1.5666 C   0  0  0  0  0  0  0  0  0  0  0  0
    8.4543   -0.7411    0.6082 C   0  0  0  0  0  0  0  0  0  0  0  0
    7.9247   -0.0603   -0.4961 C   0  0  0  0  0  0  0  0  0  0  0  0
    8.8291    0.5237   -1.5516 C   0  0  0  0  0  0  0  0  0  0  0  0
    9.0309   -0.3321   -2.5909 F   0  0  0  0  0  0  0  0  0  0  0  0
   10.0687    0.8380   -1.0803 F   0  0  0  0  0  0  0  0  0  0  0  0
    8.3401    1.6709   -2.0997 F   0  0  0  0  0  0  0  0  0  0  0  0
    6.5299    0.0375   -0.6239 C   0  0  0  0  0  0  0  0  0  0  0  0
    1.0691   -0.5738    1.5195 O   0  0  0  0  0  0  0  0  0  0  0  0
   -0.1363   -0.2149    0.9523 N   0  0  0  0  0  0  0  0  0  0  0  0
   -2.2514    0.3648   -1.0554 N   0  0  0  0  0  0  0  0  0  0  0  0
   -3.2083    1.0438   -1.9246 C   0  0  0  0  0  0  0  0  0  0  0  0
   -4.5089    1.3397   -1.1897 C   0  0  0  0  0  0  0  0  0  0  0  0
   -5.1907    0.0402   -0.7296 C   0  0  0  0  0  0  0  0  0  0  0  0
   -6.1617    0.2885    0.4109 C   0  0  0  0  0  0  0  0  0  0  0  0
   -5.7372    0.7312    1.6682 C   0  0  0  0  0  0  0  0  0  0  0  0
   -6.6826    0.9349    2.6632 C   0  0  0  0  0  0  0  0  0  0  0  0
   -8.0053    0.7292    2.4979 N   0  0  0  0  0  0  0  0  0  0  0  0
   -8.3997    0.3031    1.2806 C   0  0  0  0  0  0  0  0  0  0  0  0
   -7.5315    0.0730    0.2232 C   0  0  0  0  0  0  0  0  0  0  0  0
   -4.1803   -1.0810   -0.4192 C   0  0  0  0  0  0  0  0  0  0  0  0
   -2.7884   -0.5644   -0.0590 C   0  0  0  0  0  0  0  0  0  0  0  0
    2.0382    0.1864   -1.5077 H   0  0  0  0  0  0  0  0  0  0  0  0
    3.5003   -1.8781    1.1885 H   0  0  0  0  0  0  0  0  0  0  0  0
    3.6175   -0.2890    2.0262 H   0  0  0  0  0  0  0  0  0  0  0  0
    5.5989   -1.6327    2.1999 H   0  0  0  0  0  0  0  0  0  0  0  0
    8.0259   -1.8211    2.4219 H   0  0  0  0  0  0  0  0  0  0  0  0
    9.5324   -0.8408    0.7268 H   0  0  0  0  0  0  0  0  0  0  0  0
    6.1001    0.5558   -1.4811 H   0  0  0  0  0  0  0  0  0  0  0  0
   -3.3867    0.3975   -2.7925 H   0  0  0  0  0  0  0  0  0  0  0  0
   -2.7777    1.9807   -2.2955 H   0  0  0  0  0  0  0  0  0  0  0  0
   -4.2867    1.9961   -0.3386 H   0  0  0  0  0  0  0  0  0  0  0  0
   -5.1901    1.9012   -1.8405 H   0  0  0  0  0  0  0  0  0  0  0  0
   -5.7817   -0.3239   -1.5828 H   0  0  0  0  0  0  0  0  0  0  0  0
   -4.6929    0.9262    1.8836 H   0  0  0  0  0  0  0  0  0  0  0  0
   -6.3887    1.2812    3.6502 H   0  0  0  0  0  0  0  0  0  0  0  0
   -9.4687    0.1450    1.1697 H   0  0  0  0  0  0  0  0  0  0  0  0
   -7.9276   -0.2700   -0.7270 H   0  0  0  0  0  0  0  0  0  0  0  0
   -4.5475   -1.7522    0.3667 H   0  0  0  0  0  0  0  0  0  0  0  0
   -4.0775   -1.7008   -1.3214 H   0  0  0  0  0  0  0  0  0  0  0  0
   -2.1188   -1.4253    0.0334 H   0  0  0  0  0  0  0  0  0  0  0  0
   -2.8130   -0.0398    0.9009 H   0  0  0  0  0  0  0  0  0  0  0  0
  1  2  2  0
  2  3  1  0
  3  4  1  0
  4  5  2  0
  5  6  1  0
  6  7  1  0
  7  8  1  0
  8  9  2  0
  9 10  1  0
 10 11  2  0
 11 12  1  0
 12 13  1  0
 13 14  1  0
 13 15  1  0
 13 16  1  0
 12 17  2  0
  5 18  1  0
 18 19  1  0
  2 20  1  0
 20 21  1  0
 21 22  1  0
 22 23  1  0
 23 24  1  0
 24 25  2  0
 25 26  1  0
 26 27  2  0
 27 28  1  0
 28 29  2  0
 23 30  1  0
 30 31  1  0
 19  3  2  0
 31 20  1  0
 17  8  1  0
 29 24  1  0
  4 32  1  0
  6 33  1  0
  6 34  1  0
  9 35  1  0
 10 36  1  0
 11 37  1  0
 17 38  1  0
 21 39  1  0
 21 40  1  0
 22 41  1  0
 22 42  1  0
 23 43  1  0
 25 44  1  0
 26 45  1  0
 28 46  1  0
 29 47  1  0
 30 48  1  0
 30 49  1  0
 31 50  1  0
 31 51  1  0
M  END
$$$$
