
     RDKit          3D

 47 49  0  0  0  0  0  0  0  0999 V2000
    4.7797    2.3300    0.1985 C   0  0  0  0  0  0  0  0  0  0  0  0
    3.3429    2.0575   -0.1531 C   0  0  0  0  0  0  0  0  0  0  0  0
    2.4059    1.8823    0.8745 C   0  0  0  0  0  0  0  0  0  0  0  0
    1.0646    1.6279    0.5847 C   0  0  0  0  0  0  0  0  0  0  0  0
    0.6238    1.5448   -0.7427 C   0  0  0  0  0  0  0  0  0  0  0  0
   -0.8254    1.2446   -1.0828 C   0  0  0  0  0  0  0  0  0  0  0  0
   -1.7808    2.2682   -0.4623 C   0  0  0  0  0  0  0  0  0  0  0  0
   -1.1521   -0.1061   -0.6614 N   0  0  0  0  0  0  0  0  0  0  0  0
   -2.2224   -0.8015   -1.1688 C   0  0  0  0  0  0  0  0  0  0  0  0
   -2.9555   -0.3429   -2.0392 O   0  0  0  0  0  0  0  0  0  0  0  0
   -2.4057   -2.1363   -0.6348 C   0  0  0  0  0  0  0  0  0  0  0  0
   -2.0565   -2.7174    0.6236 C   0  0  0  0  0  0  0  0  0  0  0  0
   -1.4482   -2.0870    1.7894 C   0  0  0  0  0  0  0  0  0  0  0  0
   -2.0197   -0.9395    2.3569 C   0  0  0  0  0  0  0  0  0  0  0  0
   -1.4162   -0.3219    3.4541 C   0  0  0  0  0  0  0  0  0  0  0  0
   -0.2426   -0.8479    3.9922 C   0  0  0  0  0  0  0  0  0  0  0  0
    0.3253   -1.9959    3.4407 C   0  0  0  0  0  0  0  0  0  0  0  0
   -0.2771   -2.6171    2.3450 C   0  0  0  0  0  0  0  0  0  0  0  0
   -2.3801   -4.0197    0.6544 N   0  0  0  0  0  0  0  0  0  0  0  0
   -2.9972   -4.2919   -0.5466 O   0  0  0  0  0  0  0  0  0  0  0  0
   -3.0231   -3.1708   -1.3091 C   0  0  0  0  0  0  0  0  0  0  0  0
   -3.6557   -3.2968   -2.6370 C   0  0  0  0  0  0  0  0  0  0  0  0
    1.5641    1.7120   -1.7708 C   0  0  0  0  0  0  0  0  0  0  0  0
    2.9177    1.9700   -1.4926 C   0  0  0  0  0  0  0  0  0  0  0  0
    3.8828    2.1443   -2.6338 C   0  0  0  0  0  0  0  0  0  0  0  0
    5.0965    3.2931   -0.2140 H   0  0  0  0  0  0  0  0  0  0  0  0
    5.4238    1.5353   -0.1908 H   0  0  0  0  0  0  0  0  0  0  0  0
    4.9274    2.3725    1.2829 H   0  0  0  0  0  0  0  0  0  0  0  0
    2.7154    1.9409    1.9160 H   0  0  0  0  0  0  0  0  0  0  0  0
    0.3688    1.4893    1.4091 H   0  0  0  0  0  0  0  0  0  0  0  0
   -0.9587    1.2887   -2.1714 H   0  0  0  0  0  0  0  0  0  0  0  0
   -1.7836    2.2150    0.6321 H   0  0  0  0  0  0  0  0  0  0  0  0
   -1.5044    3.2883   -0.7508 H   0  0  0  0  0  0  0  0  0  0  0  0
   -2.8102    2.0937   -0.7931 H   0  0  0  0  0  0  0  0  0  0  0  0
   -0.5043   -0.5664   -0.0365 H   0  0  0  0  0  0  0  0  0  0  0  0
   -2.9414   -0.5226    1.9559 H   0  0  0  0  0  0  0  0  0  0  0  0
   -1.8661    0.5650    3.8938 H   0  0  0  0  0  0  0  0  0  0  0  0
    0.2242   -0.3703    4.8502 H   0  0  0  0  0  0  0  0  0  0  0  0
    1.2341   -2.4128    3.8679 H   0  0  0  0  0  0  0  0  0  0  0  0
    0.1712   -3.5169    1.9274 H   0  0  0  0  0  0  0  0  0  0  0  0
   -3.9074   -4.3383   -2.8612 H   0  0  0  0  0  0  0  0  0  0  0  0
   -2.9813   -2.9384   -3.4208 H   0  0  0  0  0  0  0  0  0  0  0  0
   -4.5781   -2.7095   -2.6776 H   0  0  0  0  0  0  0  0  0  0  0  0
    1.2390    1.6384   -2.8078 H   0  0  0  0  0  0  0  0  0  0  0  0
    3.3830    2.0435   -3.6031 H   0  0  0  0  0  0  0  0  0  0  0  0
    4.6677    1.3828   -2.5877 H   0  0  0  0  0  0  0  0  0  0  0  0
    4.3361    3.1400   -2.5996 H   0  0  0  0  0  0  0  0  0  0  0  0
  1  2  1  0
  2  3  2  0
  3  4  1  0
  4  5  2  0
  5  6  1  0
  6  7  1  0
  6  8  1  0
  8  9  1  0
  9 10  2  0
  9 11  1  0
 11 12  1  0
 12 13  1  0
 13 14  2  0
 14 15  1  0
 15 16  2  0
 16 17  1  0
 17 18  2  0
 12 19  2  0
 19 20  1  0
 20 21  1  0
 21 22  1  0
  5 23  1  0
 23 24  2  0
 24 25  1  0
 24  2  1  0
 21 11  2  0
 18 13  1  0
  1 26  1  0
  1 27  1  0
  1 28  1  0
  3 29  1  0
  4 30  1  0
  6 31  1  0
  7 32  1  0
  7 33  1  0
  7 34  1  0
  8 35  1  0
 14 36  1  0
 15 37  1  0
 16 38  1  0
 17 39  1  0
 18 40  1  0
 22 41  1  0
 22 42  1  0
 22 43  1  0
 23 44  1  0
 25 45  1  0
 25 46  1  0
 25 47  1  0
M  END
$$$$
