
     RDKit          3D

 55 58  0  0  0  0  0  0  0  0999 V2000
   -5.1660   -4.0486    0.7978 C   0  0  0  0  0  0  0  0  0  0  0  0
   -3.8549   -3.9398    1.4516 N   0  0  0  0  0  0  0  0  0  0  0  0
   -3.0462   -5.1570    1.3828 C   0  0  0  0  0  0  0  0  0  0  0  0
   -3.2152   -2.7072    1.2532 C   0  0  0  0  0  0  0  0  0  0  0  0
   -1.9147   -2.5818    0.7550 C   0  0  0  0  0  0  0  0  0  0  0  0
   -1.3054   -1.3258    0.5832 C   0  0  0  0  0  0  0  0  0  0  0  0
   -1.9547   -0.1272    0.9088 C   0  0  0  0  0  0  0  0  0  0  0  0
   -1.3229    1.1229    0.7548 N   0  0  0  0  0  0  0  0  0  0  0  0
   -0.2800    1.4082   -0.1229 C   0  0  0  0  0  0  0  0  0  0  0  0
    0.1150    0.6864   -1.1186 N   0  0  0  0  0  0  0  0  0  0  0  0
    1.1075    1.1555   -1.9371 C   0  0  0  0  0  0  0  0  0  0  0  0
    0.9540    2.0789   -2.7306 O   0  0  0  0  0  0  0  0  0  0  0  0
    2.3921    0.3589   -1.8393 C   0  0  0  0  0  0  0  0  0  0  0  0
    3.5630    1.1112   -2.4630 C   0  0  0  0  0  0  0  0  0  0  0  0
    4.8364    0.3032   -2.3937 C   0  0  0  0  0  0  0  0  0  0  0  0
    5.6692    0.3785   -1.2681 C   0  0  0  0  0  0  0  0  0  0  0  0
    6.8367   -0.3858   -1.2005 C   0  0  0  0  0  0  0  0  0  0  0  0
    7.1800   -1.2331   -2.2545 C   0  0  0  0  0  0  0  0  0  0  0  0
    6.3557   -1.3186   -3.3760 C   0  0  0  0  0  0  0  0  0  0  0  0
    5.1874   -0.5562   -3.4453 C   0  0  0  0  0  0  0  0  0  0  0  0
    0.4676    2.9661    0.3238 S   0  0  0  0  0  0  0  0  0  0  0  0
   -0.5025    3.0901    1.8606 C   0  0  0  0  0  0  0  0  0  0  0  0
   -0.9107    4.5036    2.2352 C   0  0  0  0  0  0  0  0  0  0  0  0
   -2.5728    4.7224    1.6347 S   0  0  0  0  0  6  0  0  0  0  0  0
   -3.4622    4.7329    2.7787 O   0  0  0  0  0  0  0  0  0  0  0  0
   -2.5895    5.7670    0.6349 O   0  0  0  0  0  0  0  0  0  0  0  0
   -2.7490    3.1490    0.8380 C   0  0  0  0  0  0  0  0  0  0  0  0
   -1.7606    2.2547    1.5829 C   0  0  0  0  0  0  0  0  0  0  0  0
   -3.2531   -0.2577    1.4212 C   0  0  0  0  0  0  0  0  0  0  0  0
   -3.8629   -1.5131    1.5909 C   0  0  0  0  0  0  0  0  0  0  0  0
   -5.8820   -3.3140    1.1815 H   0  0  0  0  0  0  0  0  0  0  0  0
   -5.6076   -5.0335    0.9866 H   0  0  0  0  0  0  0  0  0  0  0  0
   -5.0727   -3.9262   -0.2877 H   0  0  0  0  0  0  0  0  0  0  0  0
   -2.7359   -5.3771    0.3539 H   0  0  0  0  0  0  0  0  0  0  0  0
   -3.6261   -6.0123    1.7480 H   0  0  0  0  0  0  0  0  0  0  0  0
   -2.1592   -5.0858    2.0236 H   0  0  0  0  0  0  0  0  0  0  0  0
   -1.3397   -3.4539    0.4619 H   0  0  0  0  0  0  0  0  0  0  0  0
   -0.2893   -1.3236    0.1981 H   0  0  0  0  0  0  0  0  0  0  0  0
    2.2305   -0.6008   -2.3438 H   0  0  0  0  0  0  0  0  0  0  0  0
    2.5972    0.1537   -0.7817 H   0  0  0  0  0  0  0  0  0  0  0  0
    3.3481    1.3605   -3.5117 H   0  0  0  0  0  0  0  0  0  0  0  0
    3.7112    2.0737   -1.9555 H   0  0  0  0  0  0  0  0  0  0  0  0
    5.4157    1.0354   -0.4382 H   0  0  0  0  0  0  0  0  0  0  0  0
    7.4802   -0.3201   -0.3262 H   0  0  0  0  0  0  0  0  0  0  0  0
    8.0904   -1.8264   -2.2028 H   0  0  0  0  0  0  0  0  0  0  0  0
    6.6228   -1.9788   -4.1985 H   0  0  0  0  0  0  0  0  0  0  0  0
    4.5536   -0.6347   -4.3271 H   0  0  0  0  0  0  0  0  0  0  0  0
    0.1096    2.6390    2.6504 H   0  0  0  0  0  0  0  0  0  0  0  0
   -0.9517    4.6128    3.3237 H   0  0  0  0  0  0  0  0  0  0  0  0
   -0.2602    5.2814    1.8248 H   0  0  0  0  0  0  0  0  0  0  0  0
   -2.5095    3.2725   -0.2223 H   0  0  0  0  0  0  0  0  0  0  0  0
   -3.7842    2.8123    0.9298 H   0  0  0  0  0  0  0  0  0  0  0  0
   -2.1740    1.9425    2.5514 H   0  0  0  0  0  0  0  0  0  0  0  0
   -3.8501    0.6066    1.6953 H   0  0  0  0  0  0  0  0  0  0  0  0
   -4.8583   -1.5408    2.0281 H   0  0  0  0  0  0  0  0  0  0  0  0
  1  2  1  0
  2  3  1  0
  2  4  1  0
  4  5  2  0
  5  6  1  0
  6  7  2  0
  7  8  1  0
  8  9  1  0
  9 10  2  3
 10 11  1  0
 11 12  2  0
 11 13  1  0
 13 14  1  0
 14 15  1  0
 15 16  2  0
 16 17  1  0
 17 18  2  0
 18 19  1  0
 19 20  2  0
  9 21  1  0
 21 22  1  0
 22 23  1  0
 23 24  1  0
 24 25  2  0
 24 26  2  0
 24 27  1  0
 27 28  1  0
  7 29  1  0
 29 30  2  0
 30  4  1  0
 28  8  1  0
 20 15  1  0
 28 22  1  0
  1 31  1  0
  1 32  1  0
  1 33  1  0
  3 34  1  0
  3 35  1  0
  3 36  1  0
  5 37  1  0
  6 38  1  0
 13 39  1  0
 13 40  1  0
 14 41  1  0
 14 42  1  0
 16 43  1  0
 17 44  1  0
 18 45  1  0
 19 46  1  0
 20 47  1  0
 22 48  1  0
 23 49  1  0
 23 50  1  0
 27 51  1  0
 27 52  1  0
 28 53  1  0
 29 54  1  0
 30 55  1  0
M  END
$$$$
