
     RDKit          3D

 50 52  0  0  0  0  0  0  0  0999 V2000
    9.5158   -1.4814    1.3247 C   0  0  0  0  0  0  0  0  0  0  0  0
    9.2076   -0.0280    0.9996 C   0  0  0  0  0  0  0  0  0  0  0  0
    7.8695    0.1166    0.3548 C   0  0  0  0  0  0  0  0  0  0  0  0
    6.7299    0.2181    1.0086 N   0  0  0  0  0  0  0  0  0  0  0  0
    5.6513    0.3413    0.1542 N   0  0  0  0  0  0  0  0  0  0  0  0
    6.0250    0.3514   -1.1025 C   0  0  0  0  0  0  0  0  0  0  0  0
    5.0754    0.4282   -2.1878 N   0  0  0  0  0  0  0  0  0  0  0  0
    4.3169    1.9240   -2.2890 S   0  0  0  0  0  6  0  0  0  0  0  0
    5.0206    2.9168   -1.5079 O   0  0  0  0  0  0  0  0  0  0  0  0
    4.0942    2.1339   -3.7065 O   0  0  0  0  0  0  0  0  0  0  0  0
    2.7432    1.5992   -1.5404 C   0  0  0  0  0  0  0  0  0  0  0  0
    1.6572    1.2298   -2.3311 C   0  0  0  0  0  0  0  0  0  0  0  0
    0.4172    1.0006   -1.7274 C   0  0  0  0  0  0  0  0  0  0  0  0
    0.2395    1.1478   -0.3403 C   0  0  0  0  0  0  0  0  0  0  0  0
   -1.0600    0.8794    0.1427 N   0  0  0  0  0  0  0  0  0  0  0  0
   -1.6563    0.9590    1.3790 C   0  0  0  0  0  0  0  0  0  0  0  0
   -1.0460    1.4840    2.8415 S   0  0  0  0  0  0  0  0  0  0  0  0
   -2.9814    0.5404    1.4095 N   0  0  0  0  0  0  0  0  0  0  0  0
   -3.7677    0.0627    0.3759 C   0  0  0  0  0  0  0  0  0  0  0  0
   -3.3885   -0.0407   -0.7860 O   0  0  0  0  0  0  0  0  0  0  0  0
   -5.1379   -0.3104    0.8114 C   0  0  0  0  0  0  0  0  0  0  0  0
   -6.0112   -0.7920   -0.0871 C   0  0  0  0  0  0  0  0  0  0  0  0
   -7.3939   -1.1682    0.2354 C   0  0  0  0  0  0  0  0  0  0  0  0
   -8.3989   -0.9121   -0.7072 C   0  0  0  0  0  0  0  0  0  0  0  0
   -9.7238   -1.2731   -0.4512 C   0  0  0  0  0  0  0  0  0  0  0  0
  -10.0555   -1.9045    0.7458 C   0  0  0  0  0  0  0  0  0  0  0  0
   -9.0625   -2.1818    1.6831 C   0  0  0  0  0  0  0  0  0  0  0  0
   -7.7369   -1.8203    1.4277 C   0  0  0  0  0  0  0  0  0  0  0  0
    1.3382    1.5278    0.4306 C   0  0  0  0  0  0  0  0  0  0  0  0
    2.5861    1.7607   -0.1641 C   0  0  0  0  0  0  0  0  0  0  0  0
    7.6996    0.1496   -1.3582 S   0  0  0  0  0  0  0  0  0  0  0  0
   10.4937   -1.5633    1.8103 H   0  0  0  0  0  0  0  0  0  0  0  0
    8.7651   -1.9031    2.0024 H   0  0  0  0  0  0  0  0  0  0  0  0
    9.5320   -2.0978    0.4193 H   0  0  0  0  0  0  0  0  0  0  0  0
    9.9967    0.3828    0.3580 H   0  0  0  0  0  0  0  0  0  0  0  0
    9.2211    0.5596    1.9255 H   0  0  0  0  0  0  0  0  0  0  0  0
    5.4376    0.1578   -3.0981 H   0  0  0  0  0  0  0  0  0  0  0  0
    1.7590    1.1172   -3.4078 H   0  0  0  0  0  0  0  0  0  0  0  0
   -0.4182    0.7085   -2.3622 H   0  0  0  0  0  0  0  0  0  0  0  0
   -1.7084    0.5676   -0.5833 H   0  0  0  0  0  0  0  0  0  0  0  0
   -3.3867    0.6064    2.3337 H   0  0  0  0  0  0  0  0  0  0  0  0
   -5.4073   -0.1680    1.8500 H   0  0  0  0  0  0  0  0  0  0  0  0
   -5.7244   -0.8991   -1.1326 H   0  0  0  0  0  0  0  0  0  0  0  0
   -8.1604   -0.4227   -1.6496 H   0  0  0  0  0  0  0  0  0  0  0  0
  -10.4952   -1.0636   -1.1882 H   0  0  0  0  0  0  0  0  0  0  0  0
  -11.0860   -2.1881    0.9438 H   0  0  0  0  0  0  0  0  0  0  0  0
   -9.3180   -2.6886    2.6107 H   0  0  0  0  0  0  0  0  0  0  0  0
   -6.9787   -2.0710    2.1652 H   0  0  0  0  0  0  0  0  0  0  0  0
    1.2839    1.6486    1.5043 H   0  0  0  0  0  0  0  0  0  0  0  0
    3.4272    2.0578    0.4610 H   0  0  0  0  0  0  0  0  0  0  0  0
  1  2  1  0
  2  3  1  0
  3  4  2  0
  4  5  1  0
  5  6  2  0
  6  7  1  0
  7  8  1  0
  8  9  2  0
  8 10  2  0
  8 11  1  0
 11 12  2  0
 12 13  1  0
 13 14  2  0
 14 15  1  0
 15 16  1  0
 16 17  2  0
 16 18  1  0
 18 19  1  0
 19 20  2  0
 19 21  1  0
 21 22  2  3
 22 23  1  0
 23 24  2  0
 24 25  1  0
 25 26  2  0
 26 27  1  0
 27 28  2  0
 14 29  1  0
 29 30  2  0
  6 31  1  0
 31  3  1  0
 30 11  1  0
 28 23  1  0
  1 32  1  0
  1 33  1  0
  1 34  1  0
  2 35  1  0
  2 36  1  0
  7 37  1  0
 12 38  1  0
 13 39  1  0
 15 40  1  0
 18 41  1  0
 21 42  1  0
 22 43  1  0
 24 44  1  0
 25 45  1  0
 26 46  1  0
 27 47  1  0
 28 48  1  0
 29 49  1  0
 30 50  1  0
M  END
$$$$
