
     RDKit          3D

 32 34  0  0  0  0  0  0  0  0999 V2000
    5.3650    1.2628   -0.5309 O   0  0  0  0  0  0  0  0  0  0  0  0
    4.8248    0.2043   -0.1827 N   0  0  0  0  0  4  0  0  0  0  0  0
    5.3601   -0.9115   -0.2355 O   0  0  0  0  0  1  0  0  0  0  0  0
    3.4520    0.2787    0.3345 C   0  0  0  0  0  0  0  0  0  0  0  0
    2.8283   -0.8842    0.8127 C   0  0  0  0  0  0  0  0  0  0  0  0
    1.5192   -0.8198    1.2996 C   0  0  0  0  0  0  0  0  0  0  0  0
    0.8275    0.3985    1.3007 C   0  0  0  0  0  0  0  0  0  0  0  0
   -0.4621    0.4482    1.7754 O   0  0  0  0  0  0  0  0  0  0  0  0
   -1.4030   -0.2879    1.0705 C   0  0  0  0  0  0  0  0  0  0  0  0
   -2.2116   -1.1200    1.8557 C   0  0  0  0  0  0  0  0  0  0  0  0
   -3.2049   -1.8838    1.2576 C   0  0  0  0  0  0  0  0  0  0  0  0
   -3.3987   -1.7986   -0.1185 C   0  0  0  0  0  0  0  0  0  0  0  0
   -2.6071   -0.9407   -0.9039 C   0  0  0  0  0  0  0  0  0  0  0  0
   -2.8189   -0.8339   -2.2854 C   0  0  0  0  0  0  0  0  0  0  0  0
   -2.0448    0.0342   -3.0437 C   0  0  0  0  0  0  0  0  0  0  0  0
   -1.0756    0.7681   -2.3933 C   0  0  0  0  0  0  0  0  0  0  0  0
   -0.8340    0.6815   -1.0673 N   0  0  0  0  0  0  0  0  0  0  0  0
   -1.5876   -0.1585   -0.3166 C   0  0  0  0  0  0  0  0  0  0  0  0
    1.4729    1.5554    0.8478 C   0  0  0  0  0  0  0  0  0  0  0  0
    0.7858    2.8389    0.8596 N   0  0  0  0  0  4  0  0  0  0  0  0
    0.9354    3.5670   -0.1333 O   0  0  0  0  0  0  0  0  0  0  0  0
    0.1648    3.1519    1.8845 O   0  0  0  0  0  1  0  0  0  0  0  0
    2.7834    1.5090    0.3508 C   0  0  0  0  0  0  0  0  0  0  0  0
    3.3435   -1.8437    0.8102 H   0  0  0  0  0  0  0  0  0  0  0  0
    1.0393   -1.7233    1.6698 H   0  0  0  0  0  0  0  0  0  0  0  0
   -2.0601   -1.1673    2.9310 H   0  0  0  0  0  0  0  0  0  0  0  0
   -3.8321   -2.5362    1.8600 H   0  0  0  0  0  0  0  0  0  0  0  0
   -4.1842   -2.3965   -0.5769 H   0  0  0  0  0  0  0  0  0  0  0  0
   -3.5943   -1.4179   -2.7754 H   0  0  0  0  0  0  0  0  0  0  0  0
   -2.1994    0.1392   -4.1115 H   0  0  0  0  0  0  0  0  0  0  0  0
   -0.4464    1.4706   -2.9333 H   0  0  0  0  0  0  0  0  0  0  0  0
    3.2628    2.4155   -0.0151 H   0  0  0  0  0  0  0  0  0  0  0  0
  1  2  2  0
  2  3  1  0
  2  4  1  0
  4  5  2  0
  5  6  1  0
  6  7  2  0
  7  8  1  0
  8  9  1  0
  9 10  2  0
 10 11  1  0
 11 12  2  0
 12 13  1  0
 13 14  2  0
 14 15  1  0
 15 16  2  0
 16 17  1  0
 17 18  2  0
  7 19  1  0
 19 20  1  0
 20 21  2  0
 20 22  1  0
 19 23  2  0
 23  4  1  0
 18  9  1  0
 18 13  1  0
  5 24  1  0
  6 25  1  0
 10 26  1  0
 11 27  1  0
 12 28  1  0
 14 29  1  0
 15 30  1  0
 16 31  1  0
 23 32  1  0
M  CHG  4   2   1   3  -1  20   1  22  -1
M  END
$$$$
