
     RDKit          3D

 32 34  0  0  0  0  0  0  0  0999 V2000
    5.9992   -1.9024   -1.0085 C   0  0  0  0  0  0  0  0  0  0  0  0
    5.7072   -0.5121   -0.9340 O   0  0  0  0  0  0  0  0  0  0  0  0
    4.4061   -0.1621   -0.6889 C   0  0  0  0  0  0  0  0  0  0  0  0
    4.1845    1.2134   -0.6219 C   0  0  0  0  0  0  0  0  0  0  0  0
    2.9071    1.7308   -0.3779 C   0  0  0  0  0  0  0  0  0  0  0  0
    1.8257    0.8490   -0.1966 C   0  0  0  0  0  0  0  0  0  0  0  0
    0.5112    1.2103    0.0502 N   0  0  0  0  0  0  0  0  0  0  0  0
   -0.2263    0.1336    0.1739 C   0  0  0  0  0  0  0  0  0  0  0  0
   -1.5716    0.2395    0.4113 N   0  0  0  0  0  0  0  0  0  0  0  0
   -2.4597   -0.7810    0.6455 C   0  0  0  0  0  0  0  0  0  0  0  0
   -2.1845   -1.9687    0.7621 O   0  0  0  0  0  0  0  0  0  0  0  0
   -3.8422   -0.3367    0.8190 C   0  0  0  0  0  0  0  0  0  0  0  0
   -4.8481   -1.0180    1.5726 C   0  0  0  0  0  0  0  0  0  0  0  0
   -5.9947   -0.2709    1.4761 C   0  0  0  0  0  0  0  0  0  0  0  0
   -5.7814    0.8149    0.6953 O   0  0  0  0  0  0  0  0  0  0  0  0
   -4.4844    0.7679    0.2747 C   0  0  0  0  0  0  0  0  0  0  0  0
   -4.0947    1.8509   -0.6564 C   0  0  0  0  0  0  0  0  0  0  0  0
    0.5756   -1.3525   -0.0136 S   0  0  0  0  0  0  0  0  0  0  0  0
    2.0631   -0.5240   -0.2671 C   0  0  0  0  0  0  0  0  0  0  0  0
    3.3440   -1.0546   -0.5121 C   0  0  0  0  0  0  0  0  0  0  0  0
    5.7833   -2.4024   -0.0585 H   0  0  0  0  0  0  0  0  0  0  0  0
    7.0705   -2.0087   -1.2047 H   0  0  0  0  0  0  0  0  0  0  0  0
    5.4604   -2.3747   -1.8365 H   0  0  0  0  0  0  0  0  0  0  0  0
    5.0182    1.8988   -0.7611 H   0  0  0  0  0  0  0  0  0  0  0  0
    2.7455    2.8027   -0.3274 H   0  0  0  0  0  0  0  0  0  0  0  0
   -1.8774    1.1959    0.4951 H   0  0  0  0  0  0  0  0  0  0  0  0
   -4.7297   -1.9421    2.1227 H   0  0  0  0  0  0  0  0  0  0  0  0
   -6.9944   -0.3745    1.8747 H   0  0  0  0  0  0  0  0  0  0  0  0
   -3.5856    2.6540   -0.1154 H   0  0  0  0  0  0  0  0  0  0  0  0
   -4.9724    2.2789   -1.1514 H   0  0  0  0  0  0  0  0  0  0  0  0
   -3.4264    1.4743   -1.4366 H   0  0  0  0  0  0  0  0  0  0  0  0
    3.4720   -2.1295   -0.5569 H   0  0  0  0  0  0  0  0  0  0  0  0
  1  2  1  0
  2  3  1  0
  3  4  2  0
  4  5  1  0
  5  6  2  0
  6  7  1  0
  7  8  2  0
  8  9  1  0
  9 10  1  0
 10 11  2  0
 10 12  1  0
 12 13  1  0
 13 14  2  0
 14 15  1  0
 15 16  1  0
 16 17  1  0
  8 18  1  0
 18 19  1  0
 19 20  2  0
 20  3  1  0
 19  6  1  0
 16 12  2  0
  1 21  1  0
  1 22  1  0
  1 23  1  0
  4 24  1  0
  5 25  1  0
  9 26  1  0
 13 27  1  0
 14 28  1  0
 17 29  1  0
 17 30  1  0
 17 31  1  0
 20 32  1  0
M  END
$$$$
