
     RDKit          3D

 48 48  0  0  0  0  0  0  0  0999 V2000
   -6.4300   -1.4776   -0.2449 C   0  0  0  0  0  0  0  0  0  0  0  0
   -6.6075   -0.1681    0.5078 C   0  0  0  0  0  0  0  0  0  0  0  0
   -5.4456    0.8091    0.3173 C   0  0  0  0  0  0  0  0  0  0  0  0
   -4.1294    0.3122    0.9218 C   0  0  0  0  0  0  0  0  0  0  0  0
   -3.0269    1.3656    0.7836 C   0  0  0  0  0  0  0  0  0  0  0  0
   -1.7181    0.9791    1.4810 C   0  0  0  0  0  0  0  0  0  0  0  0
   -1.0234   -0.2283    0.8449 C   0  0  0  0  0  0  0  0  0  0  0  0
    0.2938   -0.6057    1.5360 C   0  0  0  0  0  0  0  0  0  0  0  0
    1.4204    0.4154    1.3746 C   0  0  0  0  0  0  0  0  0  0  0  0
    1.9804    0.4890   -0.0372 C   0  0  0  0  0  0  0  0  0  0  0  0
    1.6822   -0.3065   -0.9233 O   0  0  0  0  0  0  0  0  0  0  0  0
    2.8949    1.5421   -0.1705 N   0  0  0  0  0  0  0  0  0  0  0  0
    3.3549    1.9040   -1.4121 N   0  0  0  0  0  0  0  0  0  0  0  0
    4.0887    1.0583   -2.0799 C   0  0  0  0  0  0  0  0  0  0  0  0
    4.4195    1.4137   -3.5118 C   0  0  0  0  0  0  0  0  0  0  0  0
    4.6726   -0.1996   -1.5638 C   0  0  0  0  0  0  0  0  0  0  0  0
    4.4890   -1.4101   -2.2286 C   0  0  0  0  0  0  0  0  0  0  0  0
    5.0755   -2.5608   -1.7078 C   0  0  0  0  0  0  0  0  0  0  0  0
    5.8296   -2.4511   -0.5479 C   0  0  0  0  0  0  0  0  0  0  0  0
    6.0335   -1.2887    0.1127 N   0  0  0  0  0  0  0  0  0  0  0  0
    5.4462   -0.1858   -0.4115 C   0  0  0  0  0  0  0  0  0  0  0  0
   -6.2526   -1.2980   -1.3099 H   0  0  0  0  0  0  0  0  0  0  0  0
   -7.3327   -2.0898   -0.1505 H   0  0  0  0  0  0  0  0  0  0  0  0
   -5.5935   -2.0593    0.1527 H   0  0  0  0  0  0  0  0  0  0  0  0
   -7.5270    0.3137    0.1545 H   0  0  0  0  0  0  0  0  0  0  0  0
   -6.7491   -0.3765    1.5746 H   0  0  0  0  0  0  0  0  0  0  0  0
   -5.7197    1.7610    0.7884 H   0  0  0  0  0  0  0  0  0  0  0  0
   -5.3084    1.0136   -0.7515 H   0  0  0  0  0  0  0  0  0  0  0  0
   -4.2792    0.0734    1.9814 H   0  0  0  0  0  0  0  0  0  0  0  0
   -3.8215   -0.6092    0.4179 H   0  0  0  0  0  0  0  0  0  0  0  0
   -2.8337    1.5624   -0.2780 H   0  0  0  0  0  0  0  0  0  0  0  0
   -3.3777    2.3091    1.2203 H   0  0  0  0  0  0  0  0  0  0  0  0
   -1.0545    1.8496    1.4397 H   0  0  0  0  0  0  0  0  0  0  0  0
   -1.9127    0.7788    2.5415 H   0  0  0  0  0  0  0  0  0  0  0  0
   -1.6845   -1.1002    0.9063 H   0  0  0  0  0  0  0  0  0  0  0  0
   -0.8539   -0.0382   -0.2205 H   0  0  0  0  0  0  0  0  0  0  0  0
    0.6253   -1.5756    1.1444 H   0  0  0  0  0  0  0  0  0  0  0  0
    0.1026   -0.7524    2.6062 H   0  0  0  0  0  0  0  0  0  0  0  0
    2.2510    0.1206    2.0282 H   0  0  0  0  0  0  0  0  0  0  0  0
    1.0948    1.4107    1.6918 H   0  0  0  0  0  0  0  0  0  0  0  0
    2.6990    2.3469    0.4188 H   0  0  0  0  0  0  0  0  0  0  0  0
    5.2414    0.8070   -3.9009 H   0  0  0  0  0  0  0  0  0  0  0  0
    4.7117    2.4668   -3.5678 H   0  0  0  0  0  0  0  0  0  0  0  0
    3.5323    1.2582   -4.1324 H   0  0  0  0  0  0  0  0  0  0  0  0
    3.8718   -1.4673   -3.1203 H   0  0  0  0  0  0  0  0  0  0  0  0
    4.9393   -3.5230   -2.1893 H   0  0  0  0  0  0  0  0  0  0  0  0
    6.3023   -3.3236   -0.1051 H   0  0  0  0  0  0  0  0  0  0  0  0
    5.6293    0.7352    0.1342 H   0  0  0  0  0  0  0  0  0  0  0  0
  1  2  1  0
  2  3  1  0
  3  4  1  0
  4  5  1  0
  5  6  1  0
  6  7  1  0
  7  8  1  0
  8  9  1  0
  9 10  1  0
 10 11  2  0
 10 12  1  0
 12 13  1  0
 13 14  2  3
 14 15  1  0
 14 16  1  0
 16 17  2  0
 17 18  1  0
 18 19  2  0
 19 20  1  0
 20 21  2  0
 21 16  1  0
  1 22  1  0
  1 23  1  0
  1 24  1  0
  2 25  1  0
  2 26  1  0
  3 27  1  0
  3 28  1  0
  4 29  1  0
  4 30  1  0
  5 31  1  0
  5 32  1  0
  6 33  1  0
  6 34  1  0
  7 35  1  0
  7 36  1  0
  8 37  1  0
  8 38  1  0
  9 39  1  0
  9 40  1  0
 12 41  1  0
 15 42  1  0
 15 43  1  0
 15 44  1  0
 17 45  1  0
 18 46  1  0
 19 47  1  0
 21 48  1  0
M  END
$$$$
