
     RDKit          3D

 52 56  0  0  0  0  0  0  0  0999 V2000
    0.3785    1.6519   -2.7301 O   0  0  0  0  0  0  0  0  0  0  0  0
    0.2465    1.1590   -1.6145 C   0  0  0  0  0  0  0  0  0  0  0  0
    1.4568    1.0004   -0.7891 C   0  0  0  0  0  0  0  0  0  0  0  0
    2.3208   -0.0356   -1.1365 C   0  0  0  0  0  0  0  0  0  0  0  0
    3.4529   -0.2223   -0.3648 C   0  0  0  0  0  0  0  0  0  0  0  0
    4.4158   -1.3073   -0.6101 C   0  0  0  0  0  0  0  0  0  0  0  0
    4.6909   -2.2178    0.4318 C   0  0  0  0  0  0  0  0  0  0  0  0
    5.5826   -3.2800    0.2605 C   0  0  0  0  0  0  0  0  0  0  0  0
    6.2282   -3.4535   -0.9585 C   0  0  0  0  0  0  0  0  0  0  0  0
    5.9885   -2.5596   -2.0004 C   0  0  0  0  0  0  0  0  0  0  0  0
    5.0952   -1.4930   -1.8294 C   0  0  0  0  0  0  0  0  0  0  0  0
    4.9099   -0.4113   -3.1692 Cl  0  0  0  0  0  0  0  0  0  0  0  0
    3.7162    0.5520    0.7184 N   0  0  0  0  0  0  0  0  0  0  0  0
    2.8985    1.5734    1.0229 C   0  0  0  0  0  0  0  0  0  0  0  0
    3.2181    2.3756    2.1107 C   0  0  0  0  0  0  0  0  0  0  0  0
    2.4221    3.4601    2.4902 C   0  0  0  0  0  0  0  0  0  0  0  0
    1.2785    3.7532    1.7618 C   0  0  0  0  0  0  0  0  0  0  0  0
    0.1927    5.2165    2.2572 Br  0  0  0  0  0  0  0  0  0  0  0  0
    0.9301    2.9676    0.6671 C   0  0  0  0  0  0  0  0  0  0  0  0
    1.7331    1.8620    0.2908 C   0  0  0  0  0  0  0  0  0  0  0  0
   -0.9670    0.7376   -1.0907 N   0  0  0  0  0  0  0  0  0  0  0  0
   -1.1524    0.0491    0.1947 C   0  0  0  0  0  0  0  0  0  0  0  0
   -2.3233   -0.9549    0.1830 C   0  0  0  0  0  0  0  0  0  0  0  0
   -3.5710   -0.3636   -0.3277 N   0  0  0  0  0  0  0  0  0  0  0  0
   -4.7407   -0.5501    0.4052 C   0  0  0  0  0  0  0  0  0  0  0  0
   -5.0473   -1.7943    0.9609 C   0  0  0  0  0  0  0  0  0  0  0  0
   -6.2300   -1.9714    1.6792 C   0  0  0  0  0  0  0  0  0  0  0  0
   -7.0980   -0.9024    1.8252 C   0  0  0  0  0  0  0  0  0  0  0  0
   -6.7431    0.2950    1.2364 C   0  0  0  0  0  0  0  0  0  0  0  0
   -5.6011    0.4839    0.5371 N   0  0  0  0  0  0  0  0  0  0  0  0
   -3.4604    0.9265   -1.0297 C   0  0  0  0  0  0  0  0  0  0  0  0
   -2.1810    0.9707   -1.8799 C   0  0  0  0  0  0  0  0  0  0  0  0
    2.0996   -0.6765   -1.9842 H   0  0  0  0  0  0  0  0  0  0  0  0
    4.2022   -2.0930    1.3978 H   0  0  0  0  0  0  0  0  0  0  0  0
    5.7744   -3.9654    1.0826 H   0  0  0  0  0  0  0  0  0  0  0  0
    6.9260   -4.2757   -1.0953 H   0  0  0  0  0  0  0  0  0  0  0  0
    6.5098   -2.6915   -2.9457 H   0  0  0  0  0  0  0  0  0  0  0  0
    4.1198    2.1537    2.6783 H   0  0  0  0  0  0  0  0  0  0  0  0
    2.7112    4.0642    3.3462 H   0  0  0  0  0  0  0  0  0  0  0  0
    0.0366    3.2159    0.0971 H   0  0  0  0  0  0  0  0  0  0  0  0
   -0.2354   -0.4700    0.4874 H   0  0  0  0  0  0  0  0  0  0  0  0
   -1.3463    0.8285    0.9415 H   0  0  0  0  0  0  0  0  0  0  0  0
   -2.4325   -1.3444    1.2023 H   0  0  0  0  0  0  0  0  0  0  0  0
   -2.0632   -1.7999   -0.4659 H   0  0  0  0  0  0  0  0  0  0  0  0
   -4.3854   -2.6413    0.8179 H   0  0  0  0  0  0  0  0  0  0  0  0
   -6.4700   -2.9397    2.1079 H   0  0  0  0  0  0  0  0  0  0  0  0
   -8.0281   -1.0003    2.3723 H   0  0  0  0  0  0  0  0  0  0  0  0
   -7.3867    1.1668    1.3086 H   0  0  0  0  0  0  0  0  0  0  0  0
   -3.4368    1.7512   -0.3049 H   0  0  0  0  0  0  0  0  0  0  0  0
   -4.3208    1.0742   -1.6939 H   0  0  0  0  0  0  0  0  0  0  0  0
   -2.1029    1.9367   -2.3912 H   0  0  0  0  0  0  0  0  0  0  0  0
   -2.2121    0.1892   -2.6490 H   0  0  0  0  0  0  0  0  0  0  0  0
  1  2  2  0
  2  3  1  0
  3  4  2  0
  4  5  1  0
  5  6  1  0
  6  7  2  0
  7  8  1  0
  8  9  2  0
  9 10  1  0
 10 11  2  0
 11 12  1  0
  5 13  2  0
 13 14  1  0
 14 15  2  0
 15 16  1  0
 16 17  2  0
 17 18  1  0
 17 19  1  0
 19 20  2  0
  2 21  1  0
 21 22  1  0
 22 23  1  0
 23 24  1  0
 24 25  1  0
 25 26  2  0
 26 27  1  0
 27 28  2  0
 28 29  1  0
 29 30  2  0
 24 31  1  0
 31 32  1  0
 20  3  1  0
 32 21  1  0
 11  6  1  0
 20 14  1  0
 30 25  1  0
  4 33  1  0
  7 34  1  0
  8 35  1  0
  9 36  1  0
 10 37  1  0
 15 38  1  0
 16 39  1  0
 19 40  1  0
 22 41  1  0
 22 42  1  0
 23 43  1  0
 23 44  1  0
 26 45  1  0
 27 46  1  0
 28 47  1  0
 29 48  1  0
 31 49  1  0
 31 50  1  0
 32 51  1  0
 32 52  1  0
M  END
$$$$
