
     RDKit          3D

 32 33  0  0  0  0  0  0  0  0999 V2000
   -0.7538    1.9942    0.9232 C   0  0  0  0  0  0  0  0  0  0  0  0
   -0.1469    0.7786    0.2187 C   0  0  0  0  0  0  0  0  0  0  0  0
   -1.0205    0.2632   -0.9402 C   0  0  0  0  0  0  0  0  0  0  0  0
   -2.3046   -0.3760   -0.4755 C   0  0  0  0  0  0  0  0  0  0  0  0
   -3.5143    0.3294   -0.5342 C   0  0  0  0  0  0  0  0  0  0  0  0
   -4.6960   -0.2575   -0.0796 C   0  0  0  0  0  0  0  0  0  0  0  0
   -4.6806   -1.5524    0.4341 C   0  0  0  0  0  0  0  0  0  0  0  0
   -3.4847   -2.2646    0.4902 C   0  0  0  0  0  0  0  0  0  0  0  0
   -2.3008   -1.6812    0.0370 C   0  0  0  0  0  0  0  0  0  0  0  0
    1.1932    1.0930   -0.2687 N   0  0  0  0  0  4  0  0  0  0  0  0
    2.3054    0.3955    0.1106 C   0  0  0  0  0  0  0  0  0  0  0  0
    3.3477    0.9251   -0.6278 C   0  0  0  0  0  0  0  0  0  0  0  0
    4.6616    0.6110   -0.7234 N   0  0  0  0  0  0  0  0  0  0  0  0
    4.9884   -0.6169   -0.4587 C   0  0  0  0  0  0  0  0  0  0  0  0
    6.2674   -1.0233   -0.5401 N   0  0  0  0  0  0  0  0  0  0  0  0
    4.3756   -1.6225   -0.0845 O   0  0  0  0  0  1  0  0  0  0  0  0
    2.8043    1.9670   -1.3735 O   0  0  0  0  0  0  0  0  0  0  0  0
    1.4233    2.0493   -1.1400 N   0  0  0  0  0  0  0  0  0  0  0  0
   -0.9500    2.8081    0.2171 H   0  0  0  0  0  0  0  0  0  0  0  0
   -1.6940    1.7393    1.4213 H   0  0  0  0  0  0  0  0  0  0  0  0
   -0.0658    2.3770    1.6849 H   0  0  0  0  0  0  0  0  0  0  0  0
   -0.0443   -0.0160    0.9705 H   0  0  0  0  0  0  0  0  0  0  0  0
   -1.2392    1.0772   -1.6435 H   0  0  0  0  0  0  0  0  0  0  0  0
   -0.4587   -0.4785   -1.5241 H   0  0  0  0  0  0  0  0  0  0  0  0
   -3.5537    1.3392   -0.9377 H   0  0  0  0  0  0  0  0  0  0  0  0
   -5.6327    0.2928   -0.1309 H   0  0  0  0  0  0  0  0  0  0  0  0
   -5.6029   -2.0106    0.7831 H   0  0  0  0  0  0  0  0  0  0  0  0
   -3.4766   -3.2797    0.8808 H   0  0  0  0  0  0  0  0  0  0  0  0
   -1.3827   -2.2649    0.0787 H   0  0  0  0  0  0  0  0  0  0  0  0
    2.3228   -0.4207    0.8157 H   0  0  0  0  0  0  0  0  0  0  0  0
    6.9338   -0.2973   -0.3319 H   0  0  0  0  0  0  0  0  0  0  0  0
    6.3793   -1.8776   -0.0104 H   0  0  0  0  0  0  0  0  0  0  0  0
  1  2  1  0
  2  3  1  0
  3  4  1  0
  4  5  2  0
  5  6  1  0
  6  7  2  0
  7  8  1  0
  8  9  2  0
  2 10  1  0
 10 11  1  0
 11 12  2  0
 12 13  1  0
 13 14  2  3
 14 15  1  0
 14 16  1  0
 12 17  1  0
 17 18  1  0
  9  4  1  0
 18 10  2  0
  1 19  1  0
  1 20  1  0
  1 21  1  0
  2 22  1  0
  3 23  1  0
  3 24  1  0
  5 25  1  0
  6 26  1  0
  7 27  1  0
  8 28  1  0
  9 29  1  0
 11 30  1  0
 15 31  1  0
 15 32  1  0
M  CHG  2  10   1  16  -1
M  END
$$$$
