
     RDKit          3D

 54 57  0  0  0  0  0  0  0  0999 V2000
    7.5450    3.3351    2.3343 C   0  0  0  0  0  0  0  0  0  0  0  0
    6.6262    3.6536    1.2945 O   0  0  0  0  0  0  0  0  0  0  0  0
    5.7608    2.6674    0.9128 C   0  0  0  0  0  0  0  0  0  0  0  0
    4.8446    3.0425   -0.0696 C   0  0  0  0  0  0  0  0  0  0  0  0
    3.8948    2.1327   -0.5482 C   0  0  0  0  0  0  0  0  0  0  0  0
    3.8377    0.8170   -0.0565 C   0  0  0  0  0  0  0  0  0  0  0  0
    2.8357   -0.1529   -0.5361 C   0  0  0  0  0  0  0  0  0  0  0  0
    1.5359    0.2059   -0.8428 C   0  0  0  0  0  0  0  0  0  0  0  0
    0.6532   -0.7848   -1.2743 C   0  0  0  0  0  0  0  0  0  0  0  0
   -0.7413   -0.3432   -1.5021 C   0  0  0  0  0  0  0  0  0  0  0  0
   -0.9598    0.6424   -2.1918 O   0  0  0  0  0  0  0  0  0  0  0  0
   -1.7083   -1.0582   -0.8347 N   0  0  0  0  0  0  0  0  0  0  0  0
   -3.1223   -0.7521   -0.9524 C   0  0  0  0  0  0  0  0  0  0  0  0
   -3.7543   -0.4788    0.4238 C   0  0  0  0  0  0  0  0  0  0  0  0
   -5.1937   -0.1899    0.3414 N   0  0  0  0  0  0  0  0  0  0  0  0
   -5.8534   -0.4338    1.6442 C   0  0  0  0  0  0  0  0  0  0  0  0
   -7.1803    0.3339    1.7674 C   0  0  0  0  0  0  0  0  0  0  0  0
   -7.0016    1.7542    1.7408 O   0  0  0  0  0  0  0  0  0  0  0  0
   -5.8368    2.1599    1.0113 C   0  0  0  0  0  0  0  0  0  0  0  0
   -5.4700    1.1893   -0.1268 C   0  0  0  0  0  0  0  0  0  0  0  0
    1.0847   -2.1174   -1.4551 C   0  0  0  0  0  0  0  0  0  0  0  0
    0.2936   -3.1731   -1.9800 C   0  0  0  0  0  0  0  0  0  0  0  0
    0.8051   -4.4637   -2.1049 C   0  0  0  0  0  0  0  0  0  0  0  0
    2.1135   -4.7192   -1.7210 C   0  0  0  0  0  0  0  0  0  0  0  0
    2.9033   -3.6779   -1.2275 C   0  0  0  0  0  0  0  0  0  0  0  0
    2.4191   -2.3828   -1.0963 C   0  0  0  0  0  0  0  0  0  0  0  0
    3.2548   -1.4379   -0.6330 N   0  0  0  0  0  0  0  0  0  0  0  0
    4.7829    0.4519    0.9185 C   0  0  0  0  0  0  0  0  0  0  0  0
    5.7294    1.3645    1.4047 C   0  0  0  0  0  0  0  0  0  0  0  0
    7.0208    3.0706    3.2572 H   0  0  0  0  0  0  0  0  0  0  0  0
    8.1391    4.2293    2.5386 H   0  0  0  0  0  0  0  0  0  0  0  0
    8.2317    2.5398    2.0299 H   0  0  0  0  0  0  0  0  0  0  0  0
    4.8740    4.0518   -0.4728 H   0  0  0  0  0  0  0  0  0  0  0  0
    3.2127    2.4647   -1.3274 H   0  0  0  0  0  0  0  0  0  0  0  0
    1.1908    1.2286   -0.7275 H   0  0  0  0  0  0  0  0  0  0  0  0
   -1.4358   -1.8298   -0.2357 H   0  0  0  0  0  0  0  0  0  0  0  0
   -3.2601    0.0953   -1.6322 H   0  0  0  0  0  0  0  0  0  0  0  0
   -3.5940   -1.6282   -1.4134 H   0  0  0  0  0  0  0  0  0  0  0  0
   -3.5987   -1.3828    1.0271 H   0  0  0  0  0  0  0  0  0  0  0  0
   -3.2182    0.3283    0.9396 H   0  0  0  0  0  0  0  0  0  0  0  0
   -6.0446   -1.5086    1.7481 H   0  0  0  0  0  0  0  0  0  0  0  0
   -5.1992   -0.1233    2.4716 H   0  0  0  0  0  0  0  0  0  0  0  0
   -7.8648    0.0589    0.9577 H   0  0  0  0  0  0  0  0  0  0  0  0
   -7.6759    0.0827    2.7109 H   0  0  0  0  0  0  0  0  0  0  0  0
   -5.0063    2.2585    1.7239 H   0  0  0  0  0  0  0  0  0  0  0  0
   -6.0352    3.1549    0.6051 H   0  0  0  0  0  0  0  0  0  0  0  0
   -4.6410    1.6030   -0.7116 H   0  0  0  0  0  0  0  0  0  0  0  0
   -6.3277    1.1231   -0.8091 H   0  0  0  0  0  0  0  0  0  0  0  0
   -0.7260   -2.9922   -2.3164 H   0  0  0  0  0  0  0  0  0  0  0  0
    0.1873   -5.2614   -2.5094 H   0  0  0  0  0  0  0  0  0  0  0  0
    2.5278   -5.7196   -1.8131 H   0  0  0  0  0  0  0  0  0  0  0  0
    3.9337   -3.8807   -0.9447 H   0  0  0  0  0  0  0  0  0  0  0  0
    4.7846   -0.5651    1.3146 H   0  0  0  0  0  0  0  0  0  0  0  0
    6.4265    1.0179    2.1604 H   0  0  0  0  0  0  0  0  0  0  0  0
  1  2  1  0
  2  3  1  0
  3  4  2  0
  4  5  1  0
  5  6  2  0
  6  7  1  0
  7  8  2  0
  8  9  1  0
  9 10  1  0
 10 11  2  0
 10 12  1  0
 12 13  1  0
 13 14  1  0
 14 15  1  0
 15 16  1  0
 16 17  1  0
 17 18  1  0
 18 19  1  0
 19 20  1  0
  9 21  2  0
 21 22  1  0
 22 23  2  0
 23 24  1  0
 24 25  2  0
 25 26  1  0
 26 27  2  0
  6 28  1  0
 28 29  2  0
 29  3  1  0
 27  7  1  0
 20 15  1  0
 26 21  1  0
  1 30  1  0
  1 31  1  0
  1 32  1  0
  4 33  1  0
  5 34  1  0
  8 35  1  0
 12 36  1  0
 13 37  1  0
 13 38  1  0
 14 39  1  0
 14 40  1  0
 16 41  1  0
 16 42  1  0
 17 43  1  0
 17 44  1  0
 19 45  1  0
 19 46  1  0
 20 47  1  0
 20 48  1  0
 22 49  1  0
 23 50  1  0
 24 51  1  0
 25 52  1  0
 28 53  1  0
 29 54  1  0
M  END
$$$$
