
     RDKit          3D

 55 57  0  0  0  0  0  0  0  0999 V2000
   -0.3579    1.1432    2.1036 O   0  0  0  0  0  0  0  0  0  0  0  0
   -0.0343    0.8722    0.9505 C   0  0  0  0  0  0  0  0  0  0  0  0
   -0.4862    1.5825   -0.1388 N   0  0  0  0  0  0  0  0  0  0  0  0
   -1.4704    2.6388   -0.0017 C   0  0  0  0  0  0  0  0  0  0  0  0
   -2.8976    2.1017    0.1182 C   0  0  0  0  0  0  0  0  0  0  0  0
   -3.3407    1.3338   -1.1320 C   0  0  0  0  0  0  0  0  0  0  0  0
   -4.8129    0.9208   -1.0781 C   0  0  0  0  0  0  0  0  0  0  0  0
   -5.1531   -0.0661    0.0357 C   0  0  0  0  0  0  0  0  0  0  0  0
   -6.5044   -0.6297   -0.3863 C   0  0  0  0  0  0  0  0  0  0  0  0
   -6.5170   -0.5827   -1.9145 C   0  0  0  0  0  0  0  0  0  0  0  0
   -5.2501    0.1590   -2.3293 C   0  0  0  0  0  0  0  0  0  0  0  0
    0.9264   -0.2674    0.6498 C   0  0  0  0  0  0  0  0  0  0  0  0
    0.3523   -1.2819   -0.3301 C   0  0  0  0  0  0  0  0  0  0  0  0
    1.3199   -2.4439   -0.4561 C   0  0  0  0  0  0  0  0  0  0  0  0
    2.7393   -2.0289   -0.7940 C   0  0  0  0  0  0  0  0  0  0  0  0
    3.4901   -2.8297   -1.3519 O   0  0  0  0  0  0  0  0  0  0  0  0
    3.1563   -0.7765   -0.3699 N   0  0  0  0  0  0  0  0  0  0  0  0
    4.5427   -0.3801   -0.6130 C   0  0  0  0  0  0  0  0  0  0  0  0
    5.3580   -0.3858    0.6595 C   0  0  0  0  0  0  0  0  0  0  0  0
    5.7700    0.8149    1.2565 C   0  0  0  0  0  0  0  0  0  0  0  0
    6.5160    0.7976    2.4376 C   0  0  0  0  0  0  0  0  0  0  0  0
    6.8538   -0.4192    3.0274 C   0  0  0  0  0  0  0  0  0  0  0  0
    7.7732   -0.4371    4.4819 Cl  0  0  0  0  0  0  0  0  0  0  0  0
    6.4512   -1.6196    2.4476 C   0  0  0  0  0  0  0  0  0  0  0  0
    5.7052   -1.6026    1.2672 C   0  0  0  0  0  0  0  0  0  0  0  0
    2.2443    0.2640    0.1080 C   0  0  0  0  0  0  0  0  0  0  0  0
   -0.2962    1.2477   -1.0736 H   0  0  0  0  0  0  0  0  0  0  0  0
   -1.3746    3.2881   -0.8781 H   0  0  0  0  0  0  0  0  0  0  0  0
   -1.2268    3.2325    0.8863 H   0  0  0  0  0  0  0  0  0  0  0  0
   -2.9736    1.4527    0.9982 H   0  0  0  0  0  0  0  0  0  0  0  0
   -3.5746    2.9486    0.2827 H   0  0  0  0  0  0  0  0  0  0  0  0
   -3.1819    1.9618   -2.0176 H   0  0  0  0  0  0  0  0  0  0  0  0
   -2.7123    0.4437   -1.2599 H   0  0  0  0  0  0  0  0  0  0  0  0
   -5.4388    1.8170   -0.9702 H   0  0  0  0  0  0  0  0  0  0  0  0
   -5.2047    0.4093    1.0197 H   0  0  0  0  0  0  0  0  0  0  0  0
   -4.4103   -0.8714    0.0846 H   0  0  0  0  0  0  0  0  0  0  0  0
   -6.6583   -1.6437   -0.0043 H   0  0  0  0  0  0  0  0  0  0  0  0
   -7.3140   -0.0022    0.0070 H   0  0  0  0  0  0  0  0  0  0  0  0
   -7.4104   -0.0564   -2.2674 H   0  0  0  0  0  0  0  0  0  0  0  0
   -6.5380   -1.5882   -2.3480 H   0  0  0  0  0  0  0  0  0  0  0  0
   -5.4256    0.8262   -3.1786 H   0  0  0  0  0  0  0  0  0  0  0  0
   -4.4845   -0.5659   -2.6314 H   0  0  0  0  0  0  0  0  0  0  0  0
    1.1169   -0.7797    1.6034 H   0  0  0  0  0  0  0  0  0  0  0  0
   -0.6248   -1.6412    0.0138 H   0  0  0  0  0  0  0  0  0  0  0  0
    0.1956   -0.8324   -1.3184 H   0  0  0  0  0  0  0  0  0  0  0  0
    0.9653   -3.1201   -1.2422 H   0  0  0  0  0  0  0  0  0  0  0  0
    1.3583   -3.0114    0.4812 H   0  0  0  0  0  0  0  0  0  0  0  0
    5.0241   -1.0467   -1.3381 H   0  0  0  0  0  0  0  0  0  0  0  0
    4.5385    0.6154   -1.0737 H   0  0  0  0  0  0  0  0  0  0  0  0
    5.5117    1.7721    0.8087 H   0  0  0  0  0  0  0  0  0  0  0  0
    6.8292    1.7338    2.8921 H   0  0  0  0  0  0  0  0  0  0  0  0
    6.7121   -2.5696    2.9060 H   0  0  0  0  0  0  0  0  0  0  0  0
    5.3931   -2.5448    0.8181 H   0  0  0  0  0  0  0  0  0  0  0  0
    2.0811    0.9434   -0.7375 H   0  0  0  0  0  0  0  0  0  0  0  0
    2.7493    0.8428    0.8898 H   0  0  0  0  0  0  0  0  0  0  0  0
  1  2  2  0
  2  3  1  0
  3  4  1  0
  4  5  1  0
  5  6  1  0
  6  7  1  0
  7  8  1  0
  8  9  1  0
  9 10  1  0
 10 11  1  0
  2 12  1  0
 12 13  1  0
 13 14  1  0
 14 15  1  0
 15 16  2  0
 15 17  1  0
 17 18  1  0
 18 19  1  0
 19 20  2  0
 20 21  1  0
 21 22  2  0
 22 23  1  0
 22 24  1  0
 24 25  2  0
 17 26  1  0
 11  7  1  0
 26 12  1  0
 25 19  1  0
  3 27  1  0
  4 28  1  0
  4 29  1  0
  5 30  1  0
  5 31  1  0
  6 32  1  0
  6 33  1  0
  7 34  1  0
  8 35  1  0
  8 36  1  0
  9 37  1  0
  9 38  1  0
 10 39  1  0
 10 40  1  0
 11 41  1  0
 11 42  1  0
 12 43  1  0
 13 44  1  0
 13 45  1  0
 14 46  1  0
 14 47  1  0
 18 48  1  0
 18 49  1  0
 20 50  1  0
 21 51  1  0
 24 52  1  0
 25 53  1  0
 26 54  1  0
 26 55  1  0
M  END
$$$$
