
     RDKit          3D

 51 52  0  0  0  0  0  0  0  0999 V2000
    4.5133   -2.1731   -0.2538 C   0  0  0  0  0  0  0  0  0  0  0  0
    4.0978   -0.7694   -0.3740 N   0  0  0  0  0  0  0  0  0  0  0  0
    3.2871   -0.2830    0.7482 C   0  0  0  0  0  0  0  0  0  0  0  0
    3.7974   -0.1872   -1.9168 S   0  0  0  0  0  6  0  0  0  0  0  0
    3.4319    1.2080   -1.8369 O   0  0  0  0  0  0  0  0  0  0  0  0
    4.8668   -0.6209   -2.7857 O   0  0  0  0  0  0  0  0  0  0  0  0
    2.4472   -1.0839   -2.3932 N   0  0  0  0  0  0  0  0  0  0  0  0
    1.1887   -0.8309   -1.7724 C   0  0  0  0  0  0  0  0  0  0  0  0
    0.5653   -1.8786   -1.1064 C   0  0  0  0  0  0  0  0  0  0  0  0
   -0.6834   -1.6877   -0.5031 C   0  0  0  0  0  0  0  0  0  0  0  0
   -1.3550   -0.4604   -0.5864 C   0  0  0  0  0  0  0  0  0  0  0  0
   -2.5958   -0.2550    0.1242 N   0  0  0  0  0  0  0  0  0  0  0  0
   -3.8027   -1.4306    0.0644 S   0  0  0  0  0  6  0  0  0  0  0  0
   -3.7513   -2.0895   -1.2190 O   0  0  0  0  0  0  0  0  0  0  0  0
   -5.0161   -0.8187    0.5509 O   0  0  0  0  0  0  0  0  0  0  0  0
   -3.2659   -2.5160    1.2558 N   0  0  0  0  0  0  0  0  0  0  0  0
   -3.9778   -3.8144    1.2121 C   0  0  0  0  0  0  0  0  0  0  0  0
   -3.2455   -1.9612    2.6283 C   0  0  0  0  0  0  0  0  0  0  0  0
   -0.6938    0.5908   -1.2417 C   0  0  0  0  0  0  0  0  0  0  0  0
   -1.3627    2.2348   -1.3182 S   0  0  0  0  0  6  0  0  0  0  0  0
   -1.0242    2.7829   -2.6181 O   0  0  0  0  0  0  0  0  0  0  0  0
   -2.7532    2.1599   -0.8991 O   0  0  0  0  0  0  0  0  0  0  0  0
   -0.4837    3.1634   -0.0823 C   0  0  0  0  0  0  0  0  0  0  0  0
   -1.0069    3.2620    1.2109 C   0  0  0  0  0  0  0  0  0  0  0  0
   -0.3071    3.9828    2.1792 C   0  0  0  0  0  0  0  0  0  0  0  0
    0.8999    4.6032    1.8522 C   0  0  0  0  0  0  0  0  0  0  0  0
    1.4112    4.5110    0.5555 C   0  0  0  0  0  0  0  0  0  0  0  0
    0.7167    3.7958   -0.4198 C   0  0  0  0  0  0  0  0  0  0  0  0
    0.5452    0.3946   -1.8755 C   0  0  0  0  0  0  0  0  0  0  0  0
    4.9094   -2.3614    0.7488 H   0  0  0  0  0  0  0  0  0  0  0  0
    5.3140   -2.4089   -0.9598 H   0  0  0  0  0  0  0  0  0  0  0  0
    3.6702   -2.8463   -0.4235 H   0  0  0  0  0  0  0  0  0  0  0  0
    2.4324   -0.9387    0.9352 H   0  0  0  0  0  0  0  0  0  0  0  0
    2.9266    0.7363    0.5845 H   0  0  0  0  0  0  0  0  0  0  0  0
    3.9034   -0.2579    1.6532 H   0  0  0  0  0  0  0  0  0  0  0  0
    2.3947   -1.0137   -3.4120 H   0  0  0  0  0  0  0  0  0  0  0  0
    1.0468   -2.8514   -1.0420 H   0  0  0  0  0  0  0  0  0  0  0  0
   -1.1140   -2.5307    0.0289 H   0  0  0  0  0  0  0  0  0  0  0  0
   -3.0667    0.6298   -0.1312 H   0  0  0  0  0  0  0  0  0  0  0  0
   -3.8321   -4.2979    0.2413 H   0  0  0  0  0  0  0  0  0  0  0  0
   -3.5688   -4.4888    1.9708 H   0  0  0  0  0  0  0  0  0  0  0  0
   -5.0469   -3.6839    1.4041 H   0  0  0  0  0  0  0  0  0  0  0  0
   -2.6753   -1.0289    2.6701 H   0  0  0  0  0  0  0  0  0  0  0  0
   -4.2596   -1.7869    3.0006 H   0  0  0  0  0  0  0  0  0  0  0  0
   -2.7475   -2.6680    3.3004 H   0  0  0  0  0  0  0  0  0  0  0  0
   -1.9491    2.7870    1.4744 H   0  0  0  0  0  0  0  0  0  0  0  0
   -0.7039    4.0666    3.1887 H   0  0  0  0  0  0  0  0  0  0  0  0
    1.4424    5.1671    2.6084 H   0  0  0  0  0  0  0  0  0  0  0  0
    2.3496    5.0009    0.3037 H   0  0  0  0  0  0  0  0  0  0  0  0
    1.1221    3.7370   -1.4288 H   0  0  0  0  0  0  0  0  0  0  0  0
    1.0089    1.2101   -2.4273 H   0  0  0  0  0  0  0  0  0  0  0  0
  1  2  1  0
  2  3  1  0
  2  4  1  0
  4  5  2  0
  4  6  2  0
  4  7  1  0
  7  8  1  0
  8  9  2  0
  9 10  1  0
 10 11  2  0
 11 12  1  0
 12 13  1  0
 13 14  2  0
 13 15  2  0
 13 16  1  0
 16 17  1  0
 16 18  1  0
 11 19  1  0
 19 20  1  0
 20 21  2  0
 20 22  2  0
 20 23  1  0
 23 24  2  0
 24 25  1  0
 25 26  2  0
 26 27  1  0
 27 28  2  0
 19 29  2  0
 29  8  1  0
 28 23  1  0
  1 30  1  0
  1 31  1  0
  1 32  1  0
  3 33  1  0
  3 34  1  0
  3 35  1  0
  7 36  1  0
  9 37  1  0
 10 38  1  0
 12 39  1  0
 17 40  1  0
 17 41  1  0
 17 42  1  0
 18 43  1  0
 18 44  1  0
 18 45  1  0
 24 46  1  0
 25 47  1  0
 26 48  1  0
 27 49  1  0
 28 50  1  0
 29 51  1  0
M  END
$$$$
