
     RDKit          3D

 43 45  0  0  0  0  0  0  0  0999 V2000
   -6.6731    0.8614   -0.8318 C   0  0  0  0  0  0  0  0  0  0  0  0
   -7.0252   -0.1676   -0.0471 C   0  0  0  0  0  0  0  0  0  0  0  0
   -6.1675   -0.9759    0.8953 C   0  0  0  0  0  0  0  0  0  0  0  0
   -4.7805   -0.5390    0.9051 N   0  0  0  0  0  0  0  0  0  0  0  0
   -4.4118    0.4274    1.8297 C   0  0  0  0  0  0  0  0  0  0  0  0
   -5.1728    0.9251    2.6566 O   0  0  0  0  0  0  0  0  0  0  0  0
   -3.1106    0.8270    1.8016 N   0  0  0  0  0  0  0  0  0  0  0  0
   -2.1655    0.3200    0.9300 C   0  0  0  0  0  0  0  0  0  0  0  0
   -0.9154    0.8186    1.0138 N   0  0  0  0  0  0  0  0  0  0  0  0
   -0.0055    0.3082    0.1549 C   0  0  0  0  0  0  0  0  0  0  0  0
    1.3000    0.7744    0.1840 C   0  0  0  0  0  0  0  0  0  0  0  0
    2.2805    0.2696   -0.6758 C   0  0  0  0  0  0  0  0  0  0  0  0
    3.5812    0.7897   -0.6138 N   0  0  0  0  0  0  0  0  0  0  0  0
    4.3823    0.2226    0.2279 C   0  0  0  0  0  0  0  0  0  0  0  0
    5.6973    0.5625    0.4507 N   0  0  0  0  0  0  0  0  0  0  0  0
    6.3890    0.0678    1.6299 C   0  0  0  0  0  0  0  0  0  0  0  0
    6.2233    1.7897   -0.1325 C   0  0  0  0  0  0  0  0  0  0  0  0
    1.9344   -0.7100   -1.6151 C   0  0  0  0  0  0  0  0  0  0  0  0
    2.9543   -1.2562   -2.5736 C   0  0  0  0  0  0  0  0  0  0  0  0
    0.6164   -1.1892   -1.6426 C   0  0  0  0  0  0  0  0  0  0  0  0
   -0.3545   -0.7013   -0.7792 C   0  0  0  0  0  0  0  0  0  0  0  0
   -1.6046   -1.1932   -0.8467 N   0  0  0  0  0  0  0  0  0  0  0  0
   -2.5014   -0.6628    0.0221 C   0  0  0  0  0  0  0  0  0  0  0  0
   -3.8969   -1.1535    0.0101 C   0  0  0  0  0  0  0  0  0  0  0  0
   -4.2224   -2.0613   -0.7521 O   0  0  0  0  0  0  0  0  0  0  0  0
   -7.4117    1.3460   -1.4643 H   0  0  0  0  0  0  0  0  0  0  0  0
   -5.6624    1.2502   -0.8764 H   0  0  0  0  0  0  0  0  0  0  0  0
   -8.0670   -0.4848   -0.0762 H   0  0  0  0  0  0  0  0  0  0  0  0
   -6.5883   -0.9000    1.9045 H   0  0  0  0  0  0  0  0  0  0  0  0
   -6.2235   -2.0306    0.6034 H   0  0  0  0  0  0  0  0  0  0  0  0
   -2.8174    1.5380    2.4570 H   0  0  0  0  0  0  0  0  0  0  0  0
    1.5685    1.5552    0.8909 H   0  0  0  0  0  0  0  0  0  0  0  0
    4.0512   -0.6240    0.8601 H   0  0  0  0  0  0  0  0  0  0  0  0
    6.0975    0.6461    2.5126 H   0  0  0  0  0  0  0  0  0  0  0  0
    7.4750    0.1394    1.5093 H   0  0  0  0  0  0  0  0  0  0  0  0
    6.1514   -0.9861    1.8099 H   0  0  0  0  0  0  0  0  0  0  0  0
    5.8262    2.6632    0.3950 H   0  0  0  0  0  0  0  0  0  0  0  0
    5.9579    1.8670   -1.1923 H   0  0  0  0  0  0  0  0  0  0  0  0
    7.3165    1.8184   -0.0727 H   0  0  0  0  0  0  0  0  0  0  0  0
    2.4923   -1.9152   -3.3164 H   0  0  0  0  0  0  0  0  0  0  0  0
    3.7089   -1.8362   -2.0330 H   0  0  0  0  0  0  0  0  0  0  0  0
    3.4426   -0.4423   -3.1195 H   0  0  0  0  0  0  0  0  0  0  0  0
    0.3314   -1.9582   -2.3584 H   0  0  0  0  0  0  0  0  0  0  0  0
  1  2  2  0
  2  3  1  0
  3  4  1  0
  4  5  1  0
  5  6  2  0
  5  7  1  0
  7  8  1  0
  8  9  2  0
  9 10  1  0
 10 11  2  0
 11 12  1  0
 12 13  1  0
 13 14  2  3
 14 15  1  0
 15 16  1  0
 15 17  1  0
 12 18  2  0
 18 19  1  0
 18 20  1  0
 20 21  2  0
 21 22  1  0
 22 23  2  0
 23 24  1  0
 24 25  2  0
 24  4  1  0
 23  8  1  0
 21 10  1  0
  1 26  1  0
  1 27  1  0
  2 28  1  0
  3 29  1  0
  3 30  1  0
  7 31  1  0
 11 32  1  0
 14 33  1  0
 16 34  1  0
 16 35  1  0
 16 36  1  0
 17 37  1  0
 17 38  1  0
 17 39  1  0
 19 40  1  0
 19 41  1  0
 19 42  1  0
 20 43  1  0
M  END
$$$$
