
     RDKit          3D

 39 41  0  0  0  0  0  0  0  0999 V2000
    0.3452    1.6783    2.1976 S   0  0  0  0  0  0  0  0  0  0  0  0
    0.1052    0.2647    1.3156 C   0  0  0  0  0  0  0  0  0  0  0  0
    1.0655   -0.7230    1.1821 N   0  0  0  0  0  0  0  0  0  0  0  0
    2.4486   -0.6875    1.6694 C   0  0  0  0  0  0  0  0  0  0  0  0
    3.4536   -0.3518    0.5587 C   0  0  0  0  0  0  0  0  0  0  0  0
    4.8947   -0.3788    1.0471 C   0  0  0  0  0  0  0  0  0  0  0  0
    5.5657    0.5697    0.0859 C   0  0  0  0  0  0  0  0  0  0  0  0
    4.5020    1.6302   -0.0931 C   0  0  0  0  0  0  0  0  0  0  0  0
    3.2379    0.9645    0.0187 O   0  0  0  0  0  0  0  0  0  0  0  0
   -1.1094   -0.0519    0.6758 N   0  0  0  0  0  0  0  0  0  0  0  0
   -1.4461   -1.4124    0.2255 C   0  0  0  0  0  0  0  0  0  0  0  0
   -2.9430   -1.7176    0.2528 C   0  0  0  0  0  0  0  0  0  0  0  0
   -3.6800   -0.7005   -0.5679 C   0  0  0  0  0  0  0  0  0  0  0  0
   -4.8014   -1.0438   -1.3306 C   0  0  0  0  0  0  0  0  0  0  0  0
   -5.4668   -0.0679   -2.0713 C   0  0  0  0  0  0  0  0  0  0  0  0
   -5.0235    1.2531   -2.0428 C   0  0  0  0  0  0  0  0  0  0  0  0
   -3.9157    1.6021   -1.2695 C   0  0  0  0  0  0  0  0  0  0  0  0
   -3.2312    0.6280   -0.5302 C   0  0  0  0  0  0  0  0  0  0  0  0
   -2.0776    1.0200    0.3641 C   0  0  0  0  0  0  0  0  0  0  0  0
    0.9355   -1.3251    0.3847 H   0  0  0  0  0  0  0  0  0  0  0  0
    2.6578   -1.6912    2.0556 H   0  0  0  0  0  0  0  0  0  0  0  0
    2.5415    0.0154    2.5009 H   0  0  0  0  0  0  0  0  0  0  0  0
    3.3296   -1.0538   -0.2756 H   0  0  0  0  0  0  0  0  0  0  0  0
    5.3262   -1.3836    1.0380 H   0  0  0  0  0  0  0  0  0  0  0  0
    4.9716    0.0171    2.0671 H   0  0  0  0  0  0  0  0  0  0  0  0
    5.7530    0.0613   -0.8672 H   0  0  0  0  0  0  0  0  0  0  0  0
    6.5131    0.9721    0.4535 H   0  0  0  0  0  0  0  0  0  0  0  0
    4.5548    2.3835    0.7003 H   0  0  0  0  0  0  0  0  0  0  0  0
    4.5696    2.1356   -1.0604 H   0  0  0  0  0  0  0  0  0  0  0  0
   -1.0540   -1.5134   -0.7946 H   0  0  0  0  0  0  0  0  0  0  0  0
   -0.9355   -2.1489    0.8553 H   0  0  0  0  0  0  0  0  0  0  0  0
   -3.3230   -1.6862    1.2809 H   0  0  0  0  0  0  0  0  0  0  0  0
   -3.1108   -2.7268   -0.1400 H   0  0  0  0  0  0  0  0  0  0  0  0
   -5.1611   -2.0695   -1.3534 H   0  0  0  0  0  0  0  0  0  0  0  0
   -6.3351   -0.3361   -2.6673 H   0  0  0  0  0  0  0  0  0  0  0  0
   -5.5470    2.0143   -2.6154 H   0  0  0  0  0  0  0  0  0  0  0  0
   -3.5921    2.6404   -1.2412 H   0  0  0  0  0  0  0  0  0  0  0  0
   -2.4950    1.3797    1.3123 H   0  0  0  0  0  0  0  0  0  0  0  0
   -1.5228    1.8398   -0.1083 H   0  0  0  0  0  0  0  0  0  0  0  0
  1  2  2  0
  2  3  1  0
  3  4  1  0
  4  5  1  0
  5  6  1  0
  6  7  1  0
  7  8  1  0
  8  9  1  0
  2 10  1  0
 10 11  1  0
 11 12  1  0
 12 13  1  0
 13 14  2  0
 14 15  1  0
 15 16  2  0
 16 17  1  0
 17 18  2  0
 18 19  1  0
  9  5  1  0
 19 10  1  0
 18 13  1  0
  3 20  1  0
  4 21  1  0
  4 22  1  0
  5 23  1  0
  6 24  1  0
  6 25  1  0
  7 26  1  0
  7 27  1  0
  8 28  1  0
  8 29  1  0
 11 30  1  0
 11 31  1  0
 12 32  1  0
 12 33  1  0
 14 34  1  0
 15 35  1  0
 16 36  1  0
 17 37  1  0
 19 38  1  0
 19 39  1  0
M  END
$$$$
