
     RDKit          3D

 51 54  0  0  0  0  0  0  0  0999 V2000
    6.0776   -0.5953    3.2499 C   0  0  0  0  0  0  0  0  0  0  0  0
    5.3920   -0.7326    1.9229 C   0  0  0  0  0  0  0  0  0  0  0  0
    4.0494   -0.3664    1.7792 C   0  0  0  0  0  0  0  0  0  0  0  0
    3.4013   -0.5208    0.5518 C   0  0  0  0  0  0  0  0  0  0  0  0
    4.0809   -1.0571   -0.5511 C   0  0  0  0  0  0  0  0  0  0  0  0
    3.3765   -1.2045   -1.8764 C   0  0  0  0  0  0  0  0  0  0  0  0
    3.1433    0.0989   -2.4823 N   0  0  0  0  0  0  0  0  0  0  0  0
    1.9650    0.2400   -3.6535 S   0  0  0  0  0  6  0  0  0  0  0  0
    1.9253   -1.0012   -4.3949 O   0  0  0  0  0  0  0  0  0  0  0  0
    2.1705    1.5140   -4.3038 O   0  0  0  0  0  0  0  0  0  0  0  0
    0.4905    0.3718   -2.6745 C   0  0  0  0  0  0  0  0  0  0  0  0
    0.3415    1.4743   -1.8157 C   0  0  0  0  0  0  0  0  0  0  0  0
   -0.8012    1.5935   -1.0177 C   0  0  0  0  0  0  0  0  0  0  0  0
   -1.7765    0.6118   -1.1016 C   0  0  0  0  0  0  0  0  0  0  0  0
   -1.6227   -0.4757   -1.9666 C   0  0  0  0  0  0  0  0  0  0  0  0
   -0.4939   -0.6163   -2.7615 C   0  0  0  0  0  0  0  0  0  0  0  0
   -2.7821   -1.4139   -1.8750 C   0  0  0  0  0  0  0  0  0  0  0  0
   -3.7199   -0.6704   -0.9165 C   0  0  0  0  0  0  0  0  0  0  0  0
   -3.0021    0.5132   -0.4161 N   0  0  0  0  0  0  0  0  0  0  0  0
   -3.4772    1.3996    0.5463 C   0  0  0  0  0  0  0  0  0  0  0  0
   -2.8284    2.3755    0.9411 O   0  0  0  0  0  0  0  0  0  0  0  0
   -4.8940    1.0849    1.1110 C   0  0  0  0  0  0  0  0  0  0  0  0
   -4.9774    0.1125    2.3218 C   0  0  0  0  0  0  0  0  0  0  0  0
   -6.1413    0.9695    2.8516 C   0  0  0  0  0  0  0  0  0  0  0  0
   -5.5491    2.1420    2.0491 C   0  0  0  0  0  0  0  0  0  0  0  0
    5.4225   -1.4311   -0.4030 C   0  0  0  0  0  0  0  0  0  0  0  0
    6.0693   -1.2771    0.8260 C   0  0  0  0  0  0  0  0  0  0  0  0
    5.9106   -1.4936    3.8519 H   0  0  0  0  0  0  0  0  0  0  0  0
    5.6975    0.2741    3.7963 H   0  0  0  0  0  0  0  0  0  0  0  0
    7.1555   -0.4513    3.1210 H   0  0  0  0  0  0  0  0  0  0  0  0
    3.4990    0.0470    2.6216 H   0  0  0  0  0  0  0  0  0  0  0  0
    2.3604   -0.2163    0.4589 H   0  0  0  0  0  0  0  0  0  0  0  0
    3.9845   -1.8109   -2.5576 H   0  0  0  0  0  0  0  0  0  0  0  0
    2.4358   -1.7416   -1.7104 H   0  0  0  0  0  0  0  0  0  0  0  0
    3.9275    0.7401   -2.5801 H   0  0  0  0  0  0  0  0  0  0  0  0
    1.1129    2.2404   -1.7657 H   0  0  0  0  0  0  0  0  0  0  0  0
   -0.9038    2.4502   -0.3597 H   0  0  0  0  0  0  0  0  0  0  0  0
   -0.3827   -1.4684   -3.4257 H   0  0  0  0  0  0  0  0  0  0  0  0
   -2.4697   -2.3733   -1.4510 H   0  0  0  0  0  0  0  0  0  0  0  0
   -3.2551   -1.5770   -2.8478 H   0  0  0  0  0  0  0  0  0  0  0  0
   -4.0230   -1.3054   -0.0780 H   0  0  0  0  0  0  0  0  0  0  0  0
   -4.6237   -0.3332   -1.4369 H   0  0  0  0  0  0  0  0  0  0  0  0
   -5.6007    0.8112    0.3140 H   0  0  0  0  0  0  0  0  0  0  0  0
   -5.2330   -0.9235    2.0846 H   0  0  0  0  0  0  0  0  0  0  0  0
   -4.0907    0.1212    2.9668 H   0  0  0  0  0  0  0  0  0  0  0  0
   -6.1791    1.1038    3.9352 H   0  0  0  0  0  0  0  0  0  0  0  0
   -7.1260    0.6438    2.4962 H   0  0  0  0  0  0  0  0  0  0  0  0
   -6.2804    2.8040    1.5775 H   0  0  0  0  0  0  0  0  0  0  0  0
   -4.8409    2.7496    2.6243 H   0  0  0  0  0  0  0  0  0  0  0  0
    5.9762   -1.8474   -1.2419 H   0  0  0  0  0  0  0  0  0  0  0  0
    7.1092   -1.5825    0.9210 H   0  0  0  0  0  0  0  0  0  0  0  0
  1  2  1  0
  2  3  2  0
  3  4  1  0
  4  5  2  0
  5  6  1  0
  6  7  1  0
  7  8  1  0
  8  9  2  0
  8 10  2  0
  8 11  1  0
 11 12  2  0
 12 13  1  0
 13 14  2  0
 14 15  1  0
 15 16  2  0
 15 17  1  0
 17 18  1  0
 18 19  1  0
 19 20  1  0
 20 21  2  0
 20 22  1  0
 22 23  1  0
 23 24  1  0
 24 25  1  0
  5 26  1  0
 26 27  2  0
 27  2  1  0
 16 11  1  0
 25 22  1  0
 19 14  1  0
  1 28  1  0
  1 29  1  0
  1 30  1  0
  3 31  1  0
  4 32  1  0
  6 33  1  0
  6 34  1  0
  7 35  1  0
 12 36  1  0
 13 37  1  0
 16 38  1  0
 17 39  1  0
 17 40  1  0
 18 41  1  0
 18 42  1  0
 22 43  1  0
 23 44  1  0
 23 45  1  0
 24 46  1  0
 24 47  1  0
 25 48  1  0
 25 49  1  0
 26 50  1  0
 27 51  1  0
M  END
$$$$
