
     RDKit          3D

 57 60  0  0  0  0  0  0  0  0999 V2000
    6.3338    1.2396   -2.0055 C   0  0  0  0  0  0  0  0  0  0  0  0
    5.0642    0.7403   -1.6042 O   0  0  0  0  0  0  0  0  0  0  0  0
    4.9442    0.2734   -0.3195 C   0  0  0  0  0  0  0  0  0  0  0  0
    6.0237    0.0754    0.5467 C   0  0  0  0  0  0  0  0  0  0  0  0
    5.8084   -0.3689    1.8505 C   0  0  0  0  0  0  0  0  0  0  0  0
    4.5110   -0.6006    2.3036 C   0  0  0  0  0  0  0  0  0  0  0  0
    3.4068   -0.4097    1.4564 C   0  0  0  0  0  0  0  0  0  0  0  0
    2.0580   -0.6289    2.0659 C   0  0  0  0  0  0  0  0  0  0  0  0
    1.9618   -1.1669    3.1658 O   0  0  0  0  0  0  0  0  0  0  0  0
    0.9606   -0.1677    1.3782 N   0  0  0  0  0  0  0  0  0  0  0  0
   -0.3644   -0.1768    1.9643 C   0  0  0  0  0  0  0  0  0  0  0  0
   -1.0104   -1.5842    1.9744 C   0  0  0  0  0  0  0  0  0  0  0  0
   -1.7368   -1.9926    0.6550 C   0  0  0  0  0  0  0  0  0  0  0  0
   -0.7348   -2.1597   -0.5030 C   0  0  0  0  0  0  0  0  0  0  0  0
   -2.4258   -3.3540    0.8780 C   0  0  0  0  0  0  0  0  0  0  0  0
   -2.8231   -0.9403    0.2703 C   0  0  0  0  0  0  0  0  0  0  0  0
   -2.3285    0.4547    0.4644 C   0  0  0  0  0  0  0  0  0  0  0  0
   -1.2159    0.7898    1.2167 C   0  0  0  0  0  0  0  0  0  0  0  0
   -1.0935    2.1757    1.0752 C   0  0  0  0  0  0  0  0  0  0  0  0
   -2.0366    2.6879    0.2897 N   0  0  0  0  0  0  0  0  0  0  0  0
   -2.8456    1.6400   -0.0453 N   0  0  0  0  0  0  0  0  0  0  0  0
   -4.0239    1.9047   -0.8109 C   0  0  0  0  0  0  0  0  0  0  0  0
   -5.0442    0.9613   -0.9898 C   0  0  0  0  0  0  0  0  0  0  0  0
   -6.1797    1.2745   -1.7495 C   0  0  0  0  0  0  0  0  0  0  0  0
   -6.3093    2.5321   -2.3313 C   0  0  0  0  0  0  0  0  0  0  0  0
   -5.3074    3.4735   -2.1433 C   0  0  0  0  0  0  0  0  0  0  0  0
   -5.4340    4.6867   -2.6969 F   0  0  0  0  0  0  0  0  0  0  0  0
   -4.1765    3.1774   -1.3897 C   0  0  0  0  0  0  0  0  0  0  0  0
    3.6349   -0.0122    0.1269 C   0  0  0  0  0  0  0  0  0  0  0  0
    2.5668    0.1640   -0.7265 O   0  0  0  0  0  0  0  0  0  0  0  0
    2.5260   -0.8801   -1.7045 C   0  0  0  0  0  0  0  0  0  0  0  0
    6.6748    2.0417   -1.3423 H   0  0  0  0  0  0  0  0  0  0  0  0
    7.0709    0.4326   -2.0640 H   0  0  0  0  0  0  0  0  0  0  0  0
    6.2238    1.6620   -3.0091 H   0  0  0  0  0  0  0  0  0  0  0  0
    7.0476    0.2590    0.2376 H   0  0  0  0  0  0  0  0  0  0  0  0
    6.6507   -0.5195    2.5221 H   0  0  0  0  0  0  0  0  0  0  0  0
    4.3620   -0.9213    3.3339 H   0  0  0  0  0  0  0  0  0  0  0  0
    1.1071    0.2842    0.4799 H   0  0  0  0  0  0  0  0  0  0  0  0
   -0.2625    0.1609    3.0036 H   0  0  0  0  0  0  0  0  0  0  0  0
   -1.7606   -1.5911    2.7789 H   0  0  0  0  0  0  0  0  0  0  0  0
   -0.2698   -2.3464    2.2464 H   0  0  0  0  0  0  0  0  0  0  0  0
   -0.3036   -1.2045   -0.8125 H   0  0  0  0  0  0  0  0  0  0  0  0
    0.0859   -2.8293   -0.2228 H   0  0  0  0  0  0  0  0  0  0  0  0
   -1.2236   -2.5873   -1.3867 H   0  0  0  0  0  0  0  0  0  0  0  0
   -3.1472   -3.3048    1.7013 H   0  0  0  0  0  0  0  0  0  0  0  0
   -2.9670   -3.6747   -0.0190 H   0  0  0  0  0  0  0  0  0  0  0  0
   -1.6934   -4.1316    1.1232 H   0  0  0  0  0  0  0  0  0  0  0  0
   -3.1264   -1.1066   -0.7693 H   0  0  0  0  0  0  0  0  0  0  0  0
   -3.7013   -1.0807    0.9134 H   0  0  0  0  0  0  0  0  0  0  0  0
   -0.3433    2.8347    1.4950 H   0  0  0  0  0  0  0  0  0  0  0  0
   -5.0235   -0.0165   -0.5276 H   0  0  0  0  0  0  0  0  0  0  0  0
   -6.9683    0.5361   -1.8766 H   0  0  0  0  0  0  0  0  0  0  0  0
   -7.1846    2.7875   -2.9200 H   0  0  0  0  0  0  0  0  0  0  0  0
   -3.4221    3.9515   -1.2734 H   0  0  0  0  0  0  0  0  0  0  0  0
    1.5834   -0.7841   -2.2511 H   0  0  0  0  0  0  0  0  0  0  0  0
    3.3364   -0.7923   -2.4338 H   0  0  0  0  0  0  0  0  0  0  0  0
    2.5447   -1.8680   -1.2311 H   0  0  0  0  0  0  0  0  0  0  0  0
  1  2  1  0
  2  3  1  0
  3  4  2  0
  4  5  1  0
  5  6  2  0
  6  7  1  0
  7  8  1  0
  8  9  2  0
  8 10  1  0
 10 11  1  0
 11 12  1  0
 12 13  1  0
 13 14  1  0
 13 15  1  0
 13 16  1  0
 16 17  1  0
 17 18  2  0
 18 19  1  0
 19 20  2  0
 20 21  1  0
 21 22  1  0
 22 23  2  0
 23 24  1  0
 24 25  2  0
 25 26  1  0
 26 27  1  0
 26 28  2  0
  7 29  2  0
 29 30  1  0
 30 31  1  0
 29  3  1  0
 18 11  1  0
 28 22  1  0
 21 17  1  0
  1 32  1  0
  1 33  1  0
  1 34  1  0
  4 35  1  0
  5 36  1  0
  6 37  1  0
 10 38  1  0
 11 39  1  0
 12 40  1  0
 12 41  1  0
 14 42  1  0
 14 43  1  0
 14 44  1  0
 15 45  1  0
 15 46  1  0
 15 47  1  0
 16 48  1  0
 16 49  1  0
 19 50  1  0
 23 51  1  0
 24 52  1  0
 25 53  1  0
 28 54  1  0
 31 55  1  0
 31 56  1  0
 31 57  1  0
M  END
$$$$
