
     RDKit          3D

 41 44  0  0  0  0  0  0  0  0999 V2000
   -2.2531   -0.0278   -2.3572 C   0  0  0  0  0  0  0  0  0  0  0  0
   -1.7226   -0.5102   -1.0025 C   0  0  0  0  0  0  0  0  0  0  0  0
   -2.7219   -1.4896   -0.3379 C   0  0  0  0  0  0  0  0  0  0  0  0
   -3.4391   -0.5652    0.5884 C   0  0  0  0  0  0  0  0  0  0  0  0
   -4.6251   -0.7903    1.2697 C   0  0  0  0  0  0  0  0  0  0  0  0
   -5.0991    0.2142    2.1107 C   0  0  0  0  0  0  0  0  0  0  0  0
   -4.3790    1.4068    2.2632 C   0  0  0  0  0  0  0  0  0  0  0  0
   -3.1764    1.6107    1.5750 C   0  0  0  0  0  0  0  0  0  0  0  0
   -2.7087    0.6212    0.7259 C   0  0  0  0  0  0  0  0  0  0  0  0
   -1.5231    0.6030   -0.0288 N   0  0  0  0  0  0  0  0  0  0  0  0
   -0.9221    1.8801   -0.4587 C   0  0  0  0  0  0  0  0  0  0  0  0
    0.5455    1.6882   -0.8717 C   0  0  0  0  0  0  0  0  0  0  0  0
    1.0594    2.3709   -1.7523 O   0  0  0  0  0  0  0  0  0  0  0  0
    1.1688    0.7232   -0.0967 N   0  0  0  0  0  0  0  0  0  0  0  0
    2.5009    0.2820   -0.1462 C   0  0  0  0  0  0  0  0  0  0  0  0
    3.4702    0.8284   -1.0088 C   0  0  0  0  0  0  0  0  0  0  0  0
    4.7856    0.3452   -1.0133 C   0  0  0  0  0  0  0  0  0  0  0  0
    5.0979   -0.6781   -0.1480 C   0  0  0  0  0  0  0  0  0  0  0  0
    4.1584   -1.2152    0.6974 C   0  0  0  0  0  0  0  0  0  0  0  0
    2.8565   -0.7591    0.7234 C   0  0  0  0  0  0  0  0  0  0  0  0
    4.6657   -2.2133    1.4699 O   0  0  0  0  0  0  0  0  0  0  0  0
    6.0350   -2.2386    1.0144 C   0  0  0  0  0  0  0  0  0  0  0  0
    6.3149   -1.2683   -0.0156 O   0  0  0  0  0  0  0  0  0  0  0  0
   -1.5130    0.5939   -2.8712 H   0  0  0  0  0  0  0  0  0  0  0  0
   -3.1704    0.5615   -2.2517 H   0  0  0  0  0  0  0  0  0  0  0  0
   -2.4699   -0.8795   -3.0108 H   0  0  0  0  0  0  0  0  0  0  0  0
   -0.7730   -1.0305   -1.1753 H   0  0  0  0  0  0  0  0  0  0  0  0
   -2.1903   -2.2498    0.2450 H   0  0  0  0  0  0  0  0  0  0  0  0
   -3.3895   -1.9731   -1.0567 H   0  0  0  0  0  0  0  0  0  0  0  0
   -5.1710   -1.7208    1.1552 H   0  0  0  0  0  0  0  0  0  0  0  0
   -6.0275    0.0708    2.6578 H   0  0  0  0  0  0  0  0  0  0  0  0
   -4.7540    2.1793    2.9303 H   0  0  0  0  0  0  0  0  0  0  0  0
   -2.6323    2.5347    1.7302 H   0  0  0  0  0  0  0  0  0  0  0  0
   -1.4814    2.3234   -1.2888 H   0  0  0  0  0  0  0  0  0  0  0  0
   -0.8989    2.6037    0.3636 H   0  0  0  0  0  0  0  0  0  0  0  0
    0.5323    0.2516    0.5450 H   0  0  0  0  0  0  0  0  0  0  0  0
    3.2273    1.6380   -1.6909 H   0  0  0  0  0  0  0  0  0  0  0  0
    5.5324    0.7658   -1.6773 H   0  0  0  0  0  0  0  0  0  0  0  0
    2.1425   -1.2064    1.4056 H   0  0  0  0  0  0  0  0  0  0  0  0
    6.2556   -3.2386    0.6235 H   0  0  0  0  0  0  0  0  0  0  0  0
    6.6924   -2.0423    1.8693 H   0  0  0  0  0  0  0  0  0  0  0  0
  1  2  1  0
  2  3  1  0
  3  4  1  0
  4  5  2  0
  5  6  1  0
  6  7  2  0
  7  8  1  0
  8  9  2  0
  9 10  1  0
 10 11  1  0
 11 12  1  0
 12 13  2  0
 12 14  1  0
 14 15  1  0
 15 16  2  0
 16 17  1  0
 17 18  2  0
 18 19  1  0
 19 20  2  0
 19 21  1  0
 21 22  1  0
 22 23  1  0
 10  2  1  0
 20 15  1  0
  9  4  1  0
 23 18  1  0
  1 24  1  0
  1 25  1  0
  1 26  1  0
  2 27  1  0
  3 28  1  0
  3 29  1  0
  5 30  1  0
  6 31  1  0
  7 32  1  0
  8 33  1  0
 11 34  1  0
 11 35  1  0
 14 36  1  0
 16 37  1  0
 17 38  1  0
 20 39  1  0
 22 40  1  0
 22 41  1  0
M  END
$$$$
