
     RDKit          3D

 37 38  0  0  0  0  0  0  0  0999 V2000
   -5.0027    0.6701   -1.2892 C   0  0  0  0  0  0  0  0  0  0  0  0
   -4.0202    0.2763   -0.1733 C   0  0  0  0  0  0  0  0  0  0  0  0
   -3.5199    1.5718    0.4831 C   0  0  0  0  0  0  0  0  0  0  0  0
   -2.8496   -0.5869   -0.7217 C   0  0  0  0  0  0  0  0  0  0  0  0
   -3.2558   -1.9973   -1.1861 C   0  0  0  0  0  0  0  0  0  0  0  0
   -4.2959   -2.3127   -1.7418 O   0  0  0  0  0  0  0  0  0  0  0  0
   -2.2959   -2.9342   -1.0162 O   0  0  0  0  0  0  0  0  0  0  0  0
   -1.6584   -0.6671    0.1628 N   0  0  0  0  0  0  0  0  0  0  0  0
   -0.4345   -0.2750   -0.3627 C   0  0  0  0  0  0  0  0  0  0  0  0
   -0.2637    0.1639   -1.4922 O   0  0  0  0  0  0  0  0  0  0  0  0
    0.6567   -0.4545    0.6374 C   0  0  0  0  0  0  0  0  0  0  0  0
    1.9638   -0.1715    0.5162 C   0  0  0  0  0  0  0  0  0  0  0  0
    2.6428    0.3785   -0.6409 C   0  0  0  0  0  0  0  0  0  0  0  0
    3.9366    0.7102   -0.7867 C   0  0  0  0  0  0  0  0  0  0  0  0
    4.9643    0.6162    0.1948 C   0  0  0  0  0  0  0  0  0  0  0  0
    6.3255    0.8552    0.0191 C   0  0  0  0  0  0  0  0  0  0  0  0
    6.9756    0.6528    1.2591 C   0  0  0  0  0  0  0  0  0  0  0  0
    5.9880    0.3032    2.1414 C   0  0  0  0  0  0  0  0  0  0  0  0
    4.7863    0.2805    1.5188 O   0  0  0  0  0  0  0  0  0  0  0  0
   -0.0022   -1.1158    2.0888 S   0  0  0  0  0  0  0  0  0  0  0  0
   -1.6322   -1.2028    1.4361 C   0  0  0  0  0  0  0  0  0  0  0  0
   -2.8748   -1.8737    2.3275 S   0  0  0  0  0  0  0  0  0  0  0  0
   -5.4966   -0.2012   -1.7254 H   0  0  0  0  0  0  0  0  0  0  0  0
   -4.4941    1.2123   -2.0937 H   0  0  0  0  0  0  0  0  0  0  0  0
   -5.7938    1.3189   -0.8968 H   0  0  0  0  0  0  0  0  0  0  0  0
   -4.5945   -0.2897    0.5670 H   0  0  0  0  0  0  0  0  0  0  0  0
   -4.3618    2.1928    0.8088 H   0  0  0  0  0  0  0  0  0  0  0  0
   -2.9113    1.3726    1.3695 H   0  0  0  0  0  0  0  0  0  0  0  0
   -2.9183    2.1617   -0.2171 H   0  0  0  0  0  0  0  0  0  0  0  0
   -2.5263   -0.1033   -1.6530 H   0  0  0  0  0  0  0  0  0  0  0  0
   -2.6928   -3.7516   -1.3874 H   0  0  0  0  0  0  0  0  0  0  0  0
    2.5943   -0.3822    1.3766 H   0  0  0  0  0  0  0  0  0  0  0  0
    2.0251    0.5390   -1.5239 H   0  0  0  0  0  0  0  0  0  0  0  0
    4.2404    1.0953   -1.7584 H   0  0  0  0  0  0  0  0  0  0  0  0
    6.7922    1.1443   -0.9128 H   0  0  0  0  0  0  0  0  0  0  0  0
    8.0289    0.7512    1.4796 H   0  0  0  0  0  0  0  0  0  0  0  0
    5.9749    0.0528    3.1929 H   0  0  0  0  0  0  0  0  0  0  0  0
  1  2  1  0
  2  3  1  0
  2  4  1  0
  4  5  1  0
  5  6  2  0
  5  7  1  0
  4  8  1  0
  8  9  1  0
  9 10  2  0
  9 11  1  0
 11 12  2  3
 12 13  1  0
 13 14  2  3
 14 15  1  0
 15 16  2  0
 16 17  1  0
 17 18  2  0
 18 19  1  0
 11 20  1  0
 20 21  1  0
 21 22  2  0
 21  8  1  0
 19 15  1  0
  1 23  1  0
  1 24  1  0
  1 25  1  0
  2 26  1  0
  3 27  1  0
  3 28  1  0
  3 29  1  0
  4 30  1  0
  7 31  1  0
 12 32  1  0
 13 33  1  0
 14 34  1  0
 16 35  1  0
 17 36  1  0
 18 37  1  0
M  END
$$$$
