
     RDKit          3D

 46 48  0  0  0  0  0  0  0  0999 V2000
   -7.1856   -0.6464   -0.5550 C   0  0  0  0  0  0  0  0  0  0  0  0
   -5.8233   -0.4461   -1.1504 C   0  0  0  0  0  0  0  0  0  0  0  0
   -5.5928   -0.7566   -2.4908 C   0  0  0  0  0  0  0  0  0  0  0  0
   -4.3104   -0.6385   -3.0221 C   0  0  0  0  0  0  0  0  0  0  0  0
   -3.2521   -0.2075   -2.2149 C   0  0  0  0  0  0  0  0  0  0  0  0
   -3.4658    0.1261   -0.8719 C   0  0  0  0  0  0  0  0  0  0  0  0
   -2.3434    0.5712   -0.1372 N   0  0  0  0  0  0  0  0  0  0  0  0
   -2.3185    1.0466    1.1583 C   0  0  0  0  0  0  0  0  0  0  0  0
   -3.2950    1.1435    1.8877 O   0  0  0  0  0  0  0  0  0  0  0  0
   -1.0329    1.4649    1.6747 C   0  0  0  0  0  0  0  0  0  0  0  0
   -0.9619    2.1118    2.8957 N   0  0  0  0  0  0  0  0  0  0  0  0
    0.3430    2.3817    3.1698 C   0  0  0  0  0  0  0  0  0  0  0  0
    1.1331    1.9335    2.2281 N   0  0  0  0  0  0  0  0  0  0  0  0
    0.2975    1.3631    1.2630 C   0  0  0  0  0  0  0  0  0  0  0  0
    0.8686    0.7017    0.0835 C   0  0  0  0  0  0  0  0  0  0  0  0
    0.1948    0.2511   -0.8482 O   0  0  0  0  0  0  0  0  0  0  0  0
    2.2256    0.5881    0.1855 N   0  0  0  0  0  0  0  0  0  0  0  0
    2.9858   -0.3655   -0.5952 C   0  0  0  0  0  0  0  0  0  0  0  0
    3.2726    0.1664   -2.0055 C   0  0  0  0  0  0  0  0  0  0  0  0
    4.2308   -0.7631    0.1908 C   0  0  0  0  0  0  0  0  0  0  0  0
    5.4238   -0.0148    0.1326 C   0  0  0  0  0  0  0  0  0  0  0  0
    6.5370   -0.3915    0.8804 C   0  0  0  0  0  0  0  0  0  0  0  0
    6.4703   -1.5028    1.7190 C   0  0  0  0  0  0  0  0  0  0  0  0
    5.2899   -2.2525    1.8079 C   0  0  0  0  0  0  0  0  0  0  0  0
    4.1741   -1.8813    1.0594 C   0  0  0  0  0  0  0  0  0  0  0  0
   -4.7543   -0.0001   -0.3475 C   0  0  0  0  0  0  0  0  0  0  0  0
   -7.9532   -0.3011   -1.2552 H   0  0  0  0  0  0  0  0  0  0  0  0
   -7.3618   -1.6951   -0.3363 H   0  0  0  0  0  0  0  0  0  0  0  0
   -7.3025   -0.0757    0.3694 H   0  0  0  0  0  0  0  0  0  0  0  0
   -6.4045   -1.1041   -3.1269 H   0  0  0  0  0  0  0  0  0  0  0  0
   -4.1258   -0.8855   -4.0633 H   0  0  0  0  0  0  0  0  0  0  0  0
   -2.2547   -0.1362   -2.6472 H   0  0  0  0  0  0  0  0  0  0  0  0
   -1.4453    0.4677   -0.6278 H   0  0  0  0  0  0  0  0  0  0  0  0
   -1.7663    2.3218    3.4803 H   0  0  0  0  0  0  0  0  0  0  0  0
    0.6505    2.8906    4.0704 H   0  0  0  0  0  0  0  0  0  0  0  0
    2.6381    0.9767    1.0205 H   0  0  0  0  0  0  0  0  0  0  0  0
    2.3606   -1.2655   -0.7113 H   0  0  0  0  0  0  0  0  0  0  0  0
    3.8874   -0.5413   -2.5735 H   0  0  0  0  0  0  0  0  0  0  0  0
    3.7946    1.1303   -1.9809 H   0  0  0  0  0  0  0  0  0  0  0  0
    2.3400    0.3231   -2.5676 H   0  0  0  0  0  0  0  0  0  0  0  0
    5.5031    0.8672   -0.4953 H   0  0  0  0  0  0  0  0  0  0  0  0
    7.4615    0.1912    0.8037 H   0  0  0  0  0  0  0  0  0  0  0  0
    7.3397   -1.7846    2.3010 H   0  0  0  0  0  0  0  0  0  0  0  0
    5.2285   -3.1174    2.4685 H   0  0  0  0  0  0  0  0  0  0  0  0
    3.2524   -2.4596    1.1486 H   0  0  0  0  0  0  0  0  0  0  0  0
   -4.9532    0.2144    0.6967 H   0  0  0  0  0  0  0  0  0  0  0  0
  1  2  1  0
  2  3  2  0
  3  4  1  0
  4  5  2  0
  5  6  1  0
  6  7  1  0
  7  8  1  0
  8  9  2  0
  8 10  1  0
 10 11  1  0
 11 12  1  0
 12 13  2  0
 13 14  1  0
 14 15  1  0
 15 16  2  0
 15 17  1  0
 17 18  1  0
 18 19  1  0
 18 20  1  0
 20 21  2  0
 21 22  1  0
 22 23  2  0
 23 24  1  0
 24 25  2  0
  6 26  2  0
 26  2  1  0
 14 10  2  0
 25 20  1  0
  1 27  1  0
  1 28  1  0
  1 29  1  0
  3 30  1  0
  4 31  1  0
  5 32  1  0
  7 33  1  0
 11 34  1  0
 12 35  1  0
 17 36  1  0
 18 37  1  0
 19 38  1  0
 19 39  1  0
 19 40  1  0
 21 41  1  0
 22 42  1  0
 23 43  1  0
 24 44  1  0
 25 45  1  0
 26 46  1  0
M  END
$$$$
