
     RDKit          3D

 51 53  0  0  0  0  0  0  0  0999 V2000
   -8.5908    0.4777   -0.5229 C   0  0  0  0  0  0  0  0  0  0  0  0
   -7.1166    0.2742   -0.3036 C   0  0  0  0  0  0  0  0  0  0  0  0
   -6.4157    1.1658    0.5199 C   0  0  0  0  0  0  0  0  0  0  0  0
   -5.0476    1.0041    0.7412 C   0  0  0  0  0  0  0  0  0  0  0  0
   -4.3515   -0.0468    0.1461 C   0  0  0  0  0  0  0  0  0  0  0  0
   -3.0178   -0.0885    0.4466 O   0  0  0  0  0  0  0  0  0  0  0  0
   -2.2477   -1.1203   -0.1662 C   0  0  0  0  0  0  0  0  0  0  0  0
   -0.8469   -0.9601    0.2884 C   0  0  0  0  0  0  0  0  0  0  0  0
   -0.1862   -0.1151    1.1443 C   0  0  0  0  0  0  0  0  0  0  0  0
    1.1762   -0.5345    1.1132 C   0  0  0  0  0  0  0  0  0  0  0  0
    2.2650    0.0839    1.8983 C   0  0  0  0  0  0  0  0  0  0  0  0
    1.9693    0.9845    2.6898 O   0  0  0  0  0  0  0  0  0  0  0  0
    3.6042   -0.3256    1.7648 N   0  0  0  0  0  0  0  0  0  0  0  0
    4.6023    0.3078    2.6177 C   0  0  0  0  0  0  0  0  0  0  0  0
    4.1222   -1.3214    0.8162 C   0  0  0  0  0  0  0  0  0  0  0  0
    4.2387   -0.8148   -0.6307 C   0  0  0  0  0  0  0  0  0  0  0  0
    5.3665    0.1692   -0.8385 C   0  0  0  0  0  0  0  0  0  0  0  0
    5.1084    1.5463   -0.8857 C   0  0  0  0  0  0  0  0  0  0  0  0
    6.1521    2.4558   -1.0626 C   0  0  0  0  0  0  0  0  0  0  0  0
    7.4620    1.9983   -1.1944 C   0  0  0  0  0  0  0  0  0  0  0  0
    7.7298    0.6312   -1.1492 C   0  0  0  0  0  0  0  0  0  0  0  0
    6.6877   -0.2802   -0.9714 C   0  0  0  0  0  0  0  0  0  0  0  0
    1.3032   -1.5807    0.2796 N   0  0  0  0  0  0  0  0  0  0  0  0
    0.0501   -1.8375   -0.2325 O   0  0  0  0  0  0  0  0  0  0  0  0
   -5.0403   -0.9406   -0.6759 C   0  0  0  0  0  0  0  0  0  0  0  0
   -6.4213   -0.7921   -0.9080 C   0  0  0  0  0  0  0  0  0  0  0  0
   -7.1263   -1.7739   -1.8051 C   0  0  0  0  0  0  0  0  0  0  0  0
   -8.9621    1.3512    0.0239 H   0  0  0  0  0  0  0  0  0  0  0  0
   -8.7980    0.6413   -1.5852 H   0  0  0  0  0  0  0  0  0  0  0  0
   -9.1518   -0.3937   -0.1700 H   0  0  0  0  0  0  0  0  0  0  0  0
   -6.9298    1.9974    0.9975 H   0  0  0  0  0  0  0  0  0  0  0  0
   -4.5210    1.7077    1.3822 H   0  0  0  0  0  0  0  0  0  0  0  0
   -2.6139   -2.1054    0.1456 H   0  0  0  0  0  0  0  0  0  0  0  0
   -2.2845   -1.0254   -1.2575 H   0  0  0  0  0  0  0  0  0  0  0  0
   -0.6102    0.6956    1.7200 H   0  0  0  0  0  0  0  0  0  0  0  0
    4.1770    1.0661    3.2795 H   0  0  0  0  0  0  0  0  0  0  0  0
    5.0672   -0.4661    3.2378 H   0  0  0  0  0  0  0  0  0  0  0  0
    5.3699    0.7786    1.9978 H   0  0  0  0  0  0  0  0  0  0  0  0
    5.1018   -1.6623    1.1766 H   0  0  0  0  0  0  0  0  0  0  0  0
    3.4844   -2.2079    0.8580 H   0  0  0  0  0  0  0  0  0  0  0  0
    4.4109   -1.6733   -1.2927 H   0  0  0  0  0  0  0  0  0  0  0  0
    3.3017   -0.3596   -0.9701 H   0  0  0  0  0  0  0  0  0  0  0  0
    4.0919    1.9193   -0.7777 H   0  0  0  0  0  0  0  0  0  0  0  0
    5.9421    3.5218   -1.0963 H   0  0  0  0  0  0  0  0  0  0  0  0
    8.2738    2.7074   -1.3332 H   0  0  0  0  0  0  0  0  0  0  0  0
    8.7513    0.2741   -1.2539 H   0  0  0  0  0  0  0  0  0  0  0  0
    6.9132   -1.3440   -0.9403 H   0  0  0  0  0  0  0  0  0  0  0  0
   -4.5277   -1.7701   -1.1532 H   0  0  0  0  0  0  0  0  0  0  0  0
   -7.9357   -2.2725   -1.2617 H   0  0  0  0  0  0  0  0  0  0  0  0
   -6.4450   -2.5529   -2.1649 H   0  0  0  0  0  0  0  0  0  0  0  0
   -7.5346   -1.2608   -2.6817 H   0  0  0  0  0  0  0  0  0  0  0  0
  1  2  1  0
  2  3  2  0
  3  4  1  0
  4  5  2  0
  5  6  1  0
  6  7  1  0
  7  8  1  0
  8  9  2  0
  9 10  1  0
 10 11  1  0
 11 12  2  0
 11 13  1  0
 13 14  1  0
 13 15  1  0
 15 16  1  0
 16 17  1  0
 17 18  2  0
 18 19  1  0
 19 20  2  0
 20 21  1  0
 21 22  2  0
 10 23  2  0
 23 24  1  0
  5 25  1  0
 25 26  2  0
 26 27  1  0
 26  2  1  0
 24  8  1  0
 22 17  1  0
  1 28  1  0
  1 29  1  0
  1 30  1  0
  3 31  1  0
  4 32  1  0
  7 33  1  0
  7 34  1  0
  9 35  1  0
 14 36  1  0
 14 37  1  0
 14 38  1  0
 15 39  1  0
 15 40  1  0
 16 41  1  0
 16 42  1  0
 18 43  1  0
 19 44  1  0
 20 45  1  0
 21 46  1  0
 22 47  1  0
 25 48  1  0
 27 49  1  0
 27 50  1  0
 27 51  1  0
M  END
$$$$
