
     RDKit          3D

 63 67  0  0  0  0  0  0  0  0999 V2000
   -1.5087   -2.1879    8.3061 Cl  0  0  0  0  0  0  0  0  0  0  0  0
   -1.7331   -1.9259    6.6226 C   0  0  0  0  0  0  0  0  0  0  0  0
   -2.9881   -2.1159    6.0523 C   0  0  0  0  0  0  0  0  0  0  0  0
   -3.1713   -1.8998    4.6836 C   0  0  0  0  0  0  0  0  0  0  0  0
   -2.0977   -1.4990    3.8648 C   0  0  0  0  0  0  0  0  0  0  0  0
   -2.3513   -1.2556    2.3823 C   0  0  0  0  0  0  0  0  0  0  0  0
   -2.8645    0.1291    2.0035 C   0  0  0  0  0  0  0  0  0  0  0  0
   -3.5414    0.2906    0.7782 C   0  0  0  0  0  0  0  0  0  0  0  0
   -3.9823    1.5496    0.3604 C   0  0  0  0  0  0  0  0  0  0  0  0
   -3.7558    2.6646    1.1626 C   0  0  0  0  0  0  0  0  0  0  0  0
   -4.2878    4.2138    0.6457 Cl  0  0  0  0  0  0  0  0  0  0  0  0
   -3.0945    2.5288    2.3794 C   0  0  0  0  0  0  0  0  0  0  0  0
   -2.6487    1.2703    2.7981 C   0  0  0  0  0  0  0  0  0  0  0  0
   -1.1361   -1.5742    1.5978 N   0  0  0  0  0  0  0  0  0  0  0  0
   -0.6944   -2.8601    1.3012 C   0  0  0  0  0  0  0  0  0  0  0  0
    0.4373   -2.7290    0.5480 C   0  0  0  0  0  0  0  0  0  0  0  0
    0.6513   -1.3706    0.3881 N   0  0  0  0  0  4  0  0  0  0  0  0
    1.7484   -0.7451   -0.3702 C   0  0  0  0  0  0  0  0  0  0  0  0
    1.3206   -0.2129   -1.7593 C   0  0  0  0  0  0  0  0  0  0  0  0
    2.3846    0.6220   -2.2358 O   0  0  0  0  0  0  0  0  0  0  0  0
    1.9768    1.5506   -3.2425 C   0  0  0  0  0  0  0  0  0  0  0  0
    2.8104    2.7949   -3.0807 C   0  0  0  0  0  0  0  0  0  0  0  0
    3.7825    3.1000   -4.0503 C   0  0  0  0  0  0  0  0  0  0  0  0
    4.5880    4.2342   -3.9193 C   0  0  0  0  0  0  0  0  0  0  0  0
    4.4323    5.0728   -2.8168 C   0  0  0  0  0  0  0  0  0  0  0  0
    5.4354    6.4631   -2.6530 Cl  0  0  0  0  0  0  0  0  0  0  0  0
    3.4717    4.7935   -1.8476 C   0  0  0  0  0  0  0  0  0  0  0  0
    2.6637    3.6599   -1.9790 C   0  0  0  0  0  0  0  0  0  0  0  0
    1.4889    3.3573   -0.7408 Cl  0  0  0  0  0  0  0  0  0  0  0  0
    1.0501   -1.3497   -2.7317 C   0  0  0  0  0  0  0  0  0  0  0  0
    2.1331   -1.9956   -3.3615 C   0  0  0  0  0  0  0  0  0  0  0  0
    1.9225   -3.0522   -4.2500 C   0  0  0  0  0  0  0  0  0  0  0  0
    0.6270   -3.4817   -4.5184 C   0  0  0  0  0  0  0  0  0  0  0  0
    0.3669   -4.7891   -5.6033 Cl  0  0  0  0  0  0  0  0  0  0  0  0
   -0.4599   -2.8650   -3.9063 C   0  0  0  0  0  0  0  0  0  0  0  0
   -0.2499   -1.8073   -3.0166 C   0  0  0  0  0  0  0  0  0  0  0  0
   -1.6481   -1.1124   -2.2756 Cl  0  0  0  0  0  0  0  0  0  0  0  0
   -0.2994   -0.6824    1.0432 C   0  0  0  0  0  0  0  0  0  0  0  0
   -0.8390   -1.3060    4.4647 C   0  0  0  0  0  0  0  0  0  0  0  0
   -0.6594   -1.5200    5.8351 C   0  0  0  0  0  0  0  0  0  0  0  0
   -3.8286   -2.4268    6.6687 H   0  0  0  0  0  0  0  0  0  0  0  0
   -4.1691   -2.0434    4.2679 H   0  0  0  0  0  0  0  0  0  0  0  0
   -3.1094   -1.9860    2.0609 H   0  0  0  0  0  0  0  0  0  0  0  0
   -3.7323   -0.5666    0.1321 H   0  0  0  0  0  0  0  0  0  0  0  0
   -4.5028    1.6556   -0.5892 H   0  0  0  0  0  0  0  0  0  0  0  0
   -2.9253    3.4005    3.0098 H   0  0  0  0  0  0  0  0  0  0  0  0
   -2.1400    1.2078    3.7591 H   0  0  0  0  0  0  0  0  0  0  0  0
   -1.2454   -3.7070    1.6748 H   0  0  0  0  0  0  0  0  0  0  0  0
    1.1191   -3.4304    0.0967 H   0  0  0  0  0  0  0  0  0  0  0  0
    2.1307    0.0830    0.2409 H   0  0  0  0  0  0  0  0  0  0  0  0
    2.5749   -1.4620   -0.4561 H   0  0  0  0  0  0  0  0  0  0  0  0
    0.4357    0.4154   -1.6169 H   0  0  0  0  0  0  0  0  0  0  0  0
    2.1435    1.0881   -4.2206 H   0  0  0  0  0  0  0  0  0  0  0  0
    0.9129    1.8072   -3.1793 H   0  0  0  0  0  0  0  0  0  0  0  0
    3.9229    2.4523   -4.9176 H   0  0  0  0  0  0  0  0  0  0  0  0
    5.3378    4.4558   -4.6775 H   0  0  0  0  0  0  0  0  0  0  0  0
    3.3595    5.4564   -0.9917 H   0  0  0  0  0  0  0  0  0  0  0  0
    3.1577   -1.6711   -3.1746 H   0  0  0  0  0  0  0  0  0  0  0  0
    2.7724   -3.5305   -4.7339 H   0  0  0  0  0  0  0  0  0  0  0  0
   -1.4681   -3.2089   -4.1274 H   0  0  0  0  0  0  0  0  0  0  0  0
   -0.3641    0.3998    1.0990 H   0  0  0  0  0  0  0  0  0  0  0  0
    0.0195   -0.9815    3.8823 H   0  0  0  0  0  0  0  0  0  0  0  0
    0.3185   -1.3656    6.2863 H   0  0  0  0  0  0  0  0  0  0  0  0
  1  2  1  0
  2  3  2  0
  3  4  1  0
  4  5  2  0
  5  6  1  0
  6  7  1  0
  7  8  2  0
  8  9  1  0
  9 10  2  0
 10 11  1  0
 10 12  1  0
 12 13  2  0
  6 14  1  0
 14 15  1  0
 15 16  2  0
 16 17  1  0
 17 18  1  0
 18 19  1  0
 19 20  1  0
 20 21  1  0
 21 22  1  0
 22 23  2  0
 23 24  1  0
 24 25  2  0
 25 26  1  0
 25 27  1  0
 27 28  2  0
 28 29  1  0
 19 30  1  0
 30 31  2  0
 31 32  1  0
 32 33  2  0
 33 34  1  0
 33 35  1  0
 35 36  2  0
 36 37  1  0
 17 38  2  0
  5 39  1  0
 39 40  2  0
 40  2  1  0
 13  7  1  0
 38 14  1  0
 28 22  1  0
 36 30  1  0
  3 41  1  0
  4 42  1  0
  6 43  1  0
  8 44  1  0
  9 45  1  0
 12 46  1  0
 13 47  1  0
 15 48  1  0
 16 49  1  0
 18 50  1  0
 18 51  1  0
 19 52  1  0
 21 53  1  0
 21 54  1  0
 23 55  1  0
 24 56  1  0
 27 57  1  0
 31 58  1  0
 32 59  1  0
 35 60  1  0
 38 61  1  0
 39 62  1  0
 40 63  1  0
M  CHG  1  17   1
M  END
$$$$
