
     RDKit          3D

 57 59  0  0  0  0  0  0  0  0999 V2000
   -7.7551   -2.9673    3.3050 C   0  0  0  0  0  0  0  0  0  0  0  0
   -6.8722   -2.1654    2.3934 C   0  0  0  0  0  0  0  0  0  0  0  0
   -6.6924   -2.5584    1.0597 C   0  0  0  0  0  0  0  0  0  0  0  0
   -5.9015   -1.7964    0.1990 C   0  0  0  0  0  0  0  0  0  0  0  0
   -5.2939   -0.6317    0.6744 C   0  0  0  0  0  0  0  0  0  0  0  0
   -4.2945    0.3295   -0.4335 S   0  0  0  0  0  6  0  0  0  0  0  0
   -3.7546    1.4574    0.2945 O   0  0  0  0  0  0  0  0  0  0  0  0
   -5.0707    0.5242   -1.6399 O   0  0  0  0  0  0  0  0  0  0  0  0
   -3.0058   -0.7271   -0.7944 N   0  0  0  0  0  0  0  0  0  0  0  0
   -2.1378   -1.1809    0.3192 C   0  0  0  0  0  0  0  0  0  0  0  0
   -1.0096   -0.1997    0.6061 C   0  0  0  0  0  0  0  0  0  0  0  0
   -0.2110    0.1404   -0.6580 C   0  0  0  0  0  0  0  0  0  0  0  0
    0.8635    1.1806   -0.3544 C   0  0  0  0  0  0  0  0  0  0  0  0
    1.0537    1.6504    0.7629 O   0  0  0  0  0  0  0  0  0  0  0  0
    1.6378    1.5234   -1.4451 N   0  0  0  0  0  0  0  0  0  0  0  0
    2.8542    2.3052   -1.2493 C   0  0  0  0  0  0  0  0  0  0  0  0
    3.1131    3.2029   -2.4511 C   0  0  0  0  0  0  0  0  0  0  0  0
    4.0347    1.3247   -1.0712 C   0  0  0  0  0  0  0  0  0  0  0  0
    3.9805    0.1872   -1.5372 O   0  0  0  0  0  0  0  0  0  0  0  0
    5.1157    1.8962   -0.4185 N   0  0  0  0  0  0  0  0  0  0  0  0
    6.3691    1.3083   -0.1524 C   0  0  0  0  0  0  0  0  0  0  0  0
    6.7400    0.0295   -0.5786 C   0  0  0  0  0  0  0  0  0  0  0  0
    8.0087   -0.4769   -0.2771 C   0  0  0  0  0  0  0  0  0  0  0  0
    8.9041    0.2957    0.4497 C   0  0  0  0  0  0  0  0  0  0  0  0
   10.1176   -0.1911    0.7373 F   0  0  0  0  0  0  0  0  0  0  0  0
    8.5564    1.5680    0.8812 C   0  0  0  0  0  0  0  0  0  0  0  0
    7.2895    2.0739    0.5797 C   0  0  0  0  0  0  0  0  0  0  0  0
   -1.1569    0.6129   -1.7675 C   0  0  0  0  0  0  0  0  0  0  0  0
   -2.2459   -0.4186   -2.0275 C   0  0  0  0  0  0  0  0  0  0  0  0
   -5.4799   -0.2152    1.9939 C   0  0  0  0  0  0  0  0  0  0  0  0
   -6.2716   -0.9833    2.8494 C   0  0  0  0  0  0  0  0  0  0  0  0
   -7.4468   -2.8534    4.3494 H   0  0  0  0  0  0  0  0  0  0  0  0
   -8.7935   -2.6370    3.2052 H   0  0  0  0  0  0  0  0  0  0  0  0
   -7.6963   -4.0337    3.0642 H   0  0  0  0  0  0  0  0  0  0  0  0
   -7.1747   -3.4586    0.6831 H   0  0  0  0  0  0  0  0  0  0  0  0
   -5.7677   -2.1052   -0.8351 H   0  0  0  0  0  0  0  0  0  0  0  0
   -2.7219   -1.3568    1.2269 H   0  0  0  0  0  0  0  0  0  0  0  0
   -1.7198   -2.1566    0.0410 H   0  0  0  0  0  0  0  0  0  0  0  0
   -1.4146    0.7169    1.0513 H   0  0  0  0  0  0  0  0  0  0  0  0
   -0.3419   -0.6328    1.3614 H   0  0  0  0  0  0  0  0  0  0  0  0
    0.3105   -0.7673   -0.9914 H   0  0  0  0  0  0  0  0  0  0  0  0
    1.7045    0.8211   -2.1746 H   0  0  0  0  0  0  0  0  0  0  0  0
    2.7554    2.9187   -0.3468 H   0  0  0  0  0  0  0  0  0  0  0  0
    3.2539    2.6141   -3.3653 H   0  0  0  0  0  0  0  0  0  0  0  0
    4.0144    3.8077   -2.3049 H   0  0  0  0  0  0  0  0  0  0  0  0
    2.2703    3.8815   -2.6185 H   0  0  0  0  0  0  0  0  0  0  0  0
    4.9750    2.8246   -0.0376 H   0  0  0  0  0  0  0  0  0  0  0  0
    6.0677   -0.6024   -1.1498 H   0  0  0  0  0  0  0  0  0  0  0  0
    8.2992   -1.4696   -0.6086 H   0  0  0  0  0  0  0  0  0  0  0  0
    9.2702    2.1569    1.4481 H   0  0  0  0  0  0  0  0  0  0  0  0
    7.0355    3.0716    0.9274 H   0  0  0  0  0  0  0  0  0  0  0  0
   -1.6022    1.5773   -1.4934 H   0  0  0  0  0  0  0  0  0  0  0  0
   -0.6041    0.7829   -2.6987 H   0  0  0  0  0  0  0  0  0  0  0  0
   -1.8012   -1.3515   -2.3959 H   0  0  0  0  0  0  0  0  0  0  0  0
   -2.9144   -0.0750   -2.8229 H   0  0  0  0  0  0  0  0  0  0  0  0
   -5.0222    0.7006    2.3604 H   0  0  0  0  0  0  0  0  0  0  0  0
   -6.4207   -0.6520    3.8755 H   0  0  0  0  0  0  0  0  0  0  0  0
  1  2  1  0
  2  3  2  0
  3  4  1  0
  4  5  2  0
  5  6  1  0
  6  7  2  0
  6  8  2  0
  6  9  1  0
  9 10  1  0
 10 11  1  0
 11 12  1  0
 12 13  1  0
 13 14  2  0
 13 15  1  0
 15 16  1  0
 16 17  1  0
 16 18  1  0
 18 19  2  0
 18 20  1  0
 20 21  1  0
 21 22  2  0
 22 23  1  0
 23 24  2  0
 24 25  1  0
 24 26  1  0
 26 27  2  0
 12 28  1  0
 28 29  1  0
  5 30  1  0
 30 31  2  0
 31  2  1  0
 29  9  1  0
 27 21  1  0
  1 32  1  0
  1 33  1  0
  1 34  1  0
  3 35  1  0
  4 36  1  0
 10 37  1  0
 10 38  1  0
 11 39  1  0
 11 40  1  0
 12 41  1  0
 15 42  1  0
 16 43  1  0
 17 44  1  0
 17 45  1  0
 17 46  1  0
 20 47  1  0
 22 48  1  0
 23 49  1  0
 26 50  1  0
 27 51  1  0
 28 52  1  0
 28 53  1  0
 29 54  1  0
 29 55  1  0
 30 56  1  0
 31 57  1  0
M  END
$$$$
