
     RDKit          3D

 47 50  0  0  0  0  0  0  0  0999 V2000
   -6.2658    1.3732    1.5719 C   0  0  0  0  0  0  0  0  0  0  0  0
   -5.9177   -0.1073    1.5968 C   0  0  0  0  0  0  0  0  0  0  0  0
   -5.0904   -0.4847    0.4429 N   0  0  0  0  0  0  0  0  0  0  0  0
   -5.8091   -0.8367   -0.7905 C   0  0  0  0  0  0  0  0  0  0  0  0
   -5.6503    0.2329   -1.8630 C   0  0  0  0  0  0  0  0  0  0  0  0
   -3.7017   -0.5201    0.5240 C   0  0  0  0  0  0  0  0  0  0  0  0
   -2.9951    0.0899    1.5751 C   0  0  0  0  0  0  0  0  0  0  0  0
   -1.5945    0.0600    1.6618 C   0  0  0  0  0  0  0  0  0  0  0  0
   -0.8419   -0.5846    0.6846 C   0  0  0  0  0  0  0  0  0  0  0  0
    0.6181   -0.6184    0.7962 C   0  0  0  0  0  0  0  0  0  0  0  0
    1.4837   -0.0296   -0.0408 C   0  0  0  0  0  0  0  0  0  0  0  0
    1.1119    0.9327   -1.4529 S   0  0  0  0  0  0  0  0  0  0  0  0
    2.7893    1.1690   -1.7199 C   0  0  0  0  0  0  0  0  0  0  0  0
    3.4954    1.8459   -2.5790 N   0  0  0  0  0  0  0  0  0  0  0  0
    4.8223    1.6415   -2.2233 N   0  0  0  0  0  0  0  0  0  0  0  0
    4.8657    0.8261   -1.1747 C   0  0  0  0  0  0  0  0  0  0  0  0
    6.0675    0.3453   -0.5056 C   0  0  0  0  0  0  0  0  0  0  0  0
    6.9246    1.2883    0.0842 C   0  0  0  0  0  0  0  0  0  0  0  0
    8.0882    0.8823    0.7413 C   0  0  0  0  0  0  0  0  0  0  0  0
    8.4150   -0.4699    0.8081 C   0  0  0  0  0  0  0  0  0  0  0  0
    7.5848   -1.4170    0.2083 C   0  0  0  0  0  0  0  0  0  0  0  0
    6.4193   -1.0137   -0.4520 C   0  0  0  0  0  0  0  0  0  0  0  0
    5.4718   -2.2410   -1.2236 Cl  0  0  0  0  0  0  0  0  0  0  0  0
    3.5739    0.5482   -0.8119 N   0  0  0  0  0  0  0  0  0  0  0  0
    2.9524   -0.1351    0.2032 C   0  0  0  0  0  0  0  0  0  0  0  0
    3.5552   -0.6742    1.1115 O   0  0  0  0  0  0  0  0  0  0  0  0
   -1.5094   -1.2095   -0.3650 C   0  0  0  0  0  0  0  0  0  0  0  0
   -2.9105   -1.1701   -0.4391 C   0  0  0  0  0  0  0  0  0  0  0  0
   -6.8405    1.6402    2.4643 H   0  0  0  0  0  0  0  0  0  0  0  0
   -5.3702    2.0010    1.5426 H   0  0  0  0  0  0  0  0  0  0  0  0
   -6.8751    1.6196    0.6968 H   0  0  0  0  0  0  0  0  0  0  0  0
   -6.8492   -0.6874    1.5900 H   0  0  0  0  0  0  0  0  0  0  0  0
   -5.4369   -0.3731    2.5453 H   0  0  0  0  0  0  0  0  0  0  0  0
   -6.8814   -0.9435   -0.5838 H   0  0  0  0  0  0  0  0  0  0  0  0
   -5.4959   -1.8172   -1.1659 H   0  0  0  0  0  0  0  0  0  0  0  0
   -6.2353   -0.0344   -2.7489 H   0  0  0  0  0  0  0  0  0  0  0  0
   -4.6083    0.3507   -2.1744 H   0  0  0  0  0  0  0  0  0  0  0  0
   -6.0017    1.2063   -1.5074 H   0  0  0  0  0  0  0  0  0  0  0  0
   -3.5185    0.6311    2.3573 H   0  0  0  0  0  0  0  0  0  0  0  0
   -1.1099    0.5563    2.4993 H   0  0  0  0  0  0  0  0  0  0  0  0
    0.9890   -1.1674    1.6614 H   0  0  0  0  0  0  0  0  0  0  0  0
    6.6889    2.3503    0.0319 H   0  0  0  0  0  0  0  0  0  0  0  0
    8.7408    1.6234    1.1972 H   0  0  0  0  0  0  0  0  0  0  0  0
    9.3216   -0.7867    1.3183 H   0  0  0  0  0  0  0  0  0  0  0  0
    7.8556   -2.4691    0.2520 H   0  0  0  0  0  0  0  0  0  0  0  0
   -0.9594   -1.7397   -1.1387 H   0  0  0  0  0  0  0  0  0  0  0  0
   -3.3662   -1.6834   -1.2800 H   0  0  0  0  0  0  0  0  0  0  0  0
  1  2  1  0
  2  3  1  0
  3  4  1  0
  4  5  1  0
  3  6  1  0
  6  7  2  0
  7  8  1  0
  8  9  2  0
  9 10  1  0
 10 11  2  3
 11 12  1  0
 12 13  1  0
 13 14  2  0
 14 15  1  0
 15 16  2  0
 16 17  1  0
 17 18  2  0
 18 19  1  0
 19 20  2  0
 20 21  1  0
 21 22  2  0
 22 23  1  0
 16 24  1  0
 24 25  1  0
 25 26  2  0
  9 27  1  0
 27 28  2  0
 28  6  1  0
 25 11  1  0
 24 13  1  0
 22 17  1  0
  1 29  1  0
  1 30  1  0
  1 31  1  0
  2 32  1  0
  2 33  1  0
  4 34  1  0
  4 35  1  0
  5 36  1  0
  5 37  1  0
  5 38  1  0
  7 39  1  0
  8 40  1  0
 10 41  1  0
 18 42  1  0
 19 43  1  0
 20 44  1  0
 21 45  1  0
 27 46  1  0
 28 47  1  0
M  END
$$$$
