
     RDKit          3D

 55 57  0  0  0  0  0  0  0  0999 V2000
   -3.6373   -3.2114    1.5973 C   0  0  0  0  0  0  0  0  0  0  0  0
   -2.3756   -2.4925    1.1438 C   0  0  0  0  0  0  0  0  0  0  0  0
   -2.5036   -0.9604    0.8988 C   0  0  0  0  0  0  0  0  0  0  0  0
   -2.7187   -0.2496    2.2492 C   0  0  0  0  0  0  0  0  0  0  0  0
   -3.6757   -0.6523   -0.0478 C   0  0  0  0  0  0  0  0  0  0  0  0
   -1.2407   -0.5252    0.2720 N   0  0  0  0  0  0  0  0  0  0  0  0
   -0.8784    0.7847   -0.0016 C   0  0  0  0  0  0  0  0  0  0  0  0
   -1.5604    1.7509    0.3332 O   0  0  0  0  0  0  0  0  0  0  0  0
    0.4278    0.9030   -0.8450 C   0  0  0  0  0  0  0  0  0  0  0  0
    0.8440    2.3269   -1.2253 C   0  0  0  0  0  0  0  0  0  0  0  0
    2.0968    2.8886   -0.9329 C   0  0  0  0  0  0  0  0  0  0  0  0
    2.4078    4.1978   -1.3174 C   0  0  0  0  0  0  0  0  0  0  0  0
    1.4833    4.9629   -2.0196 C   0  0  0  0  0  0  0  0  0  0  0  0
    0.2503    4.4125   -2.3544 C   0  0  0  0  0  0  0  0  0  0  0  0
   -0.0511    3.1084   -1.9678 C   0  0  0  0  0  0  0  0  0  0  0  0
   -1.2214    2.5847   -2.3617 F   0  0  0  0  0  0  0  0  0  0  0  0
    1.5179    0.0443   -0.3116 N   0  0  0  0  0  0  0  0  0  0  0  0
    2.2113   -0.7715   -1.2231 C   0  0  0  0  0  0  0  0  0  0  0  0
    3.4396   -0.7975   -1.2965 O   0  0  0  0  0  0  0  0  0  0  0  0
    1.3959   -1.6511   -2.0933 C   0  0  0  0  0  0  0  0  0  0  0  0
    1.8495   -2.3199   -3.2622 C   0  0  0  0  0  0  0  0  0  0  0  0
    0.7756   -3.0457   -3.7120 C   0  0  0  0  0  0  0  0  0  0  0  0
   -0.2325   -2.8124   -2.8293 N   0  0  0  0  0  0  0  0  0  0  0  0
    0.1097   -1.9724   -1.8322 N   0  0  0  0  0  0  0  0  0  0  0  0
    1.9920    0.1866    1.0479 C   0  0  0  0  0  0  0  0  0  0  0  0
    2.9383   -0.7147    1.5707 C   0  0  0  0  0  0  0  0  0  0  0  0
    3.3968   -0.6197    2.8906 C   0  0  0  0  0  0  0  0  0  0  0  0
    2.9128    0.3815    3.7258 C   0  0  0  0  0  0  0  0  0  0  0  0
    1.9698    1.2761    3.2399 C   0  0  0  0  0  0  0  0  0  0  0  0
    1.5100    1.1761    1.9201 C   0  0  0  0  0  0  0  0  0  0  0  0
   -4.4010   -3.1990    0.8152 H   0  0  0  0  0  0  0  0  0  0  0  0
   -4.0594   -2.7717    2.5033 H   0  0  0  0  0  0  0  0  0  0  0  0
   -3.4108   -4.2621    1.8145 H   0  0  0  0  0  0  0  0  0  0  0  0
   -2.0244   -2.9839    0.2295 H   0  0  0  0  0  0  0  0  0  0  0  0
   -1.5911   -2.6672    1.8901 H   0  0  0  0  0  0  0  0  0  0  0  0
   -3.6137   -0.6134    2.7635 H   0  0  0  0  0  0  0  0  0  0  0  0
   -2.8544    0.8305    2.1326 H   0  0  0  0  0  0  0  0  0  0  0  0
   -1.8596   -0.4012    2.9147 H   0  0  0  0  0  0  0  0  0  0  0  0
   -4.6403   -0.9184    0.3992 H   0  0  0  0  0  0  0  0  0  0  0  0
   -3.5720   -1.2033   -0.9903 H   0  0  0  0  0  0  0  0  0  0  0  0
   -3.7234    0.4124   -0.2980 H   0  0  0  0  0  0  0  0  0  0  0  0
   -0.7312   -1.2231   -0.2766 H   0  0  0  0  0  0  0  0  0  0  0  0
    0.1404    0.4949   -1.8216 H   0  0  0  0  0  0  0  0  0  0  0  0
    2.8630    2.3220   -0.4099 H   0  0  0  0  0  0  0  0  0  0  0  0
    3.3779    4.6175   -1.0674 H   0  0  0  0  0  0  0  0  0  0  0  0
    1.7252    5.9814   -2.3145 H   0  0  0  0  0  0  0  0  0  0  0  0
   -0.4813    4.9872   -2.9187 H   0  0  0  0  0  0  0  0  0  0  0  0
    2.8376   -2.2700   -3.6996 H   0  0  0  0  0  0  0  0  0  0  0  0
    0.6478   -3.7035   -4.5595 H   0  0  0  0  0  0  0  0  0  0  0  0
   -1.1744   -3.1926   -2.8390 H   0  0  0  0  0  0  0  0  0  0  0  0
    3.3447   -1.5275    0.9695 H   0  0  0  0  0  0  0  0  0  0  0  0
    4.1318   -1.3334    3.2609 H   0  0  0  0  0  0  0  0  0  0  0  0
    3.2695    0.4588    4.7494 H   0  0  0  0  0  0  0  0  0  0  0  0
    1.5858    2.0619    3.8845 H   0  0  0  0  0  0  0  0  0  0  0  0
    0.7795    1.9150    1.6124 H   0  0  0  0  0  0  0  0  0  0  0  0
  1  2  1  0
  2  3  1  0
  3  4  1  0
  3  5  1  0
  3  6  1  0
  6  7  1  0
  7  8  2  0
  7  9  1  0
  9 10  1  0
 10 11  2  0
 11 12  1  0
 12 13  2  0
 13 14  1  0
 14 15  2  0
 15 16  1  0
  9 17  1  0
 17 18  1  0
 18 19  2  0
 18 20  1  0
 20 21  1  0
 21 22  2  0
 22 23  1  0
 23 24  1  0
 17 25  1  0
 25 26  2  0
 26 27  1  0
 27 28  2  0
 28 29  1  0
 29 30  2  0
 15 10  1  0
 24 20  2  0
 30 25  1  0
  1 31  1  0
  1 32  1  0
  1 33  1  0
  2 34  1  0
  2 35  1  0
  4 36  1  0
  4 37  1  0
  4 38  1  0
  5 39  1  0
  5 40  1  0
  5 41  1  0
  6 42  1  0
  9 43  1  0
 11 44  1  0
 12 45  1  0
 13 46  1  0
 14 47  1  0
 21 48  1  0
 22 49  1  0
 23 50  1  0
 26 51  1  0
 27 52  1  0
 28 53  1  0
 29 54  1  0
 30 55  1  0
M  END
$$$$
