
     RDKit          3D

 52 54  0  0  0  0  0  0  0  0999 V2000
    0.6333   -2.9080    0.4370 O   0  0  0  0  0  0  0  0  0  0  0  0
    1.2301   -1.8578    0.2324 C   0  0  0  0  0  0  0  0  0  0  0  0
    2.5209   -1.6981   -0.2337 N   0  0  0  0  0  0  0  0  0  0  0  0
    3.4573   -2.7094   -0.5297 C   0  0  0  0  0  0  0  0  0  0  0  0
    4.6981   -2.3027   -1.0389 C   0  0  0  0  0  0  0  0  0  0  0  0
    5.6830   -3.2427   -1.3553 C   0  0  0  0  0  0  0  0  0  0  0  0
    5.4366   -4.5992   -1.1641 C   0  0  0  0  0  0  0  0  0  0  0  0
    4.2072   -5.0128   -0.6566 C   0  0  0  0  0  0  0  0  0  0  0  0
    3.2215   -4.0719   -0.3397 C   0  0  0  0  0  0  0  0  0  0  0  0
    0.5254   -0.5484    0.4574 C   0  0  0  0  0  0  0  0  0  0  0  0
    1.1139    0.4085    1.1964 C   0  0  0  0  0  0  0  0  0  0  0  0
    0.4618    1.7411    1.4448 C   0  0  0  0  0  0  0  0  0  0  0  0
    1.4368    2.8920    1.2544 C   0  0  0  0  0  0  0  0  0  0  0  0
    2.0296    3.1540    0.0070 C   0  0  0  0  0  0  0  0  0  0  0  0
    2.9341    4.2077   -0.1462 C   0  0  0  0  0  0  0  0  0  0  0  0
    3.2559    5.0066    0.9480 C   0  0  0  0  0  0  0  0  0  0  0  0
    4.4822    6.4303    0.7424 Br  0  0  0  0  0  0  0  0  0  0  0  0
    2.6812    4.7628    2.1928 C   0  0  0  0  0  0  0  0  0  0  0  0
    1.7759    3.7095    2.3448 C   0  0  0  0  0  0  0  0  0  0  0  0
   -0.8014    1.9073    0.5932 C   0  0  0  0  0  0  0  0  0  0  0  0
   -1.5521    0.5803    0.5427 C   0  0  0  0  0  0  0  0  0  0  0  0
   -2.7470    0.8013   -0.2129 O   0  0  0  0  0  0  0  0  0  0  0  0
   -3.6042   -0.3401   -0.1995 C   0  0  0  0  0  0  0  0  0  0  0  0
   -4.8597   -0.0053   -0.9962 C   0  0  0  0  0  0  0  0  0  0  0  0
   -5.8151   -1.1974   -1.0623 C   0  0  0  0  0  0  0  0  0  0  0  0
   -7.0802   -0.8756   -1.8473 C   0  0  0  0  0  0  0  0  0  0  0  0
   -7.8434    0.0976   -1.1488 O   0  0  0  0  0  0  0  0  0  0  0  0
   -0.7446   -0.4295   -0.0696 O   0  0  0  0  0  0  0  0  0  0  0  0
    2.8198   -0.7509   -0.4242 H   0  0  0  0  0  0  0  0  0  0  0  0
    4.9165   -1.2502   -1.1995 H   0  0  0  0  0  0  0  0  0  0  0  0
    6.6410   -2.9151   -1.7509 H   0  0  0  0  0  0  0  0  0  0  0  0
    6.1992   -5.3337   -1.4099 H   0  0  0  0  0  0  0  0  0  0  0  0
    4.0077   -6.0708   -0.5062 H   0  0  0  0  0  0  0  0  0  0  0  0
    2.2788   -4.4387    0.0539 H   0  0  0  0  0  0  0  0  0  0  0  0
    2.0849    0.2371    1.6560 H   0  0  0  0  0  0  0  0  0  0  0  0
    0.1474    1.7294    2.4980 H   0  0  0  0  0  0  0  0  0  0  0  0
    1.7894    2.5407   -0.8595 H   0  0  0  0  0  0  0  0  0  0  0  0
    3.3783    4.3965   -1.1201 H   0  0  0  0  0  0  0  0  0  0  0  0
    2.9295    5.3844    3.0493 H   0  0  0  0  0  0  0  0  0  0  0  0
    1.3380    3.5340    3.3257 H   0  0  0  0  0  0  0  0  0  0  0  0
   -1.4401    2.7022    0.9980 H   0  0  0  0  0  0  0  0  0  0  0  0
   -0.5575    2.2123   -0.4330 H   0  0  0  0  0  0  0  0  0  0  0  0
   -1.8298    0.2625    1.5573 H   0  0  0  0  0  0  0  0  0  0  0  0
   -3.8698   -0.5886    0.8347 H   0  0  0  0  0  0  0  0  0  0  0  0
   -3.0915   -1.1963   -0.6524 H   0  0  0  0  0  0  0  0  0  0  0  0
   -5.3524    0.8645   -0.5441 H   0  0  0  0  0  0  0  0  0  0  0  0
   -4.5741    0.3044   -2.0096 H   0  0  0  0  0  0  0  0  0  0  0  0
   -5.3072   -2.0472   -1.5338 H   0  0  0  0  0  0  0  0  0  0  0  0
   -6.0859   -1.4954   -0.0420 H   0  0  0  0  0  0  0  0  0  0  0  0
   -7.6916   -1.7761   -1.9582 H   0  0  0  0  0  0  0  0  0  0  0  0
   -6.8393   -0.4899   -2.8427 H   0  0  0  0  0  0  0  0  0  0  0  0
   -8.6283    0.2850   -1.6920 H   0  0  0  0  0  0  0  0  0  0  0  0
  1  2  2  0
  2  3  1  0
  3  4  1  0
  4  5  2  0
  5  6  1  0
  6  7  2  0
  7  8  1  0
  8  9  2  0
  2 10  1  0
 10 11  2  0
 11 12  1  0
 12 13  1  0
 13 14  2  0
 14 15  1  0
 15 16  2  0
 16 17  1  0
 16 18  1  0
 18 19  2  0
 12 20  1  0
 20 21  1  0
 21 22  1  0
 22 23  1  0
 23 24  1  0
 24 25  1  0
 25 26  1  0
 26 27  1  0
 21 28  1  0
  9  4  1  0
 28 10  1  0
 19 13  1  0
  3 29  1  0
  5 30  1  0
  6 31  1  0
  7 32  1  0
  8 33  1  0
  9 34  1  0
 11 35  1  0
 12 36  1  0
 14 37  1  0
 15 38  1  0
 18 39  1  0
 19 40  1  0
 20 41  1  0
 20 42  1  0
 21 43  1  0
 23 44  1  0
 23 45  1  0
 24 46  1  0
 24 47  1  0
 25 48  1  0
 25 49  1  0
 26 50  1  0
 26 51  1  0
 27 52  1  0
M  END
$$$$
