
     RDKit          3D

 40 42  0  0  0  0  0  0  0  0999 V2000
    6.5270   -2.4553    1.9158 C   0  0  0  0  0  0  0  0  0  0  0  0
    5.3250   -1.9039    1.2040 C   0  0  0  0  0  0  0  0  0  0  0  0
    4.8638   -0.6143    1.5024 C   0  0  0  0  0  0  0  0  0  0  0  0
    3.7377   -0.0989    0.8596 C   0  0  0  0  0  0  0  0  0  0  0  0
    3.0617   -0.8843   -0.0767 C   0  0  0  0  0  0  0  0  0  0  0  0
    1.6348   -0.2242   -0.9044 S   0  0  0  0  0  6  0  0  0  0  0  0
    1.8127    1.2078   -1.0070 O   0  0  0  0  0  0  0  0  0  0  0  0
    1.3624   -1.0568   -2.0572 O   0  0  0  0  0  0  0  0  0  0  0  0
    0.4248   -0.5780    0.2549 N   0  0  0  0  0  0  0  0  0  0  0  0
   -0.7791    0.2621    0.0925 C   0  0  0  0  0  0  0  0  0  0  0  0
   -1.9638   -0.1574   -0.4582 C   0  0  0  0  0  0  0  0  0  0  0  0
   -2.8416    0.9626   -0.3781 C   0  0  0  0  0  0  0  0  0  0  0  0
   -4.2356    1.0459   -0.8273 C   0  0  0  0  0  0  0  0  0  0  0  0
   -4.7515    0.1334   -1.7609 C   0  0  0  0  0  0  0  0  0  0  0  0
   -6.0874    0.2055   -2.1667 C   0  0  0  0  0  0  0  0  0  0  0  0
   -6.9221    1.1924   -1.6473 C   0  0  0  0  0  0  0  0  0  0  0  0
   -6.4228    2.1117   -0.7275 C   0  0  0  0  0  0  0  0  0  0  0  0
   -5.0876    2.0403   -0.3221 C   0  0  0  0  0  0  0  0  0  0  0  0
   -2.2261    2.0006    0.2160 N   0  0  0  0  0  0  0  0  0  0  0  0
   -0.9779    1.5602    0.4713 N   0  0  0  0  0  0  0  0  0  0  0  0
   -0.0544    2.4350    1.1509 C   0  0  0  0  0  0  0  0  0  0  0  0
    3.5112   -2.1696   -0.3870 C   0  0  0  0  0  0  0  0  0  0  0  0
    4.6369   -2.6790    0.2609 C   0  0  0  0  0  0  0  0  0  0  0  0
    6.2619   -2.7266    2.9423 H   0  0  0  0  0  0  0  0  0  0  0  0
    7.3318   -1.7133    1.9359 H   0  0  0  0  0  0  0  0  0  0  0  0
    6.9149   -3.3457    1.4116 H   0  0  0  0  0  0  0  0  0  0  0  0
    5.3862   -0.0033    2.2351 H   0  0  0  0  0  0  0  0  0  0  0  0
    3.3984    0.9077    1.0910 H   0  0  0  0  0  0  0  0  0  0  0  0
    0.1897   -1.5679    0.1395 H   0  0  0  0  0  0  0  0  0  0  0  0
   -2.1797   -1.1345   -0.8650 H   0  0  0  0  0  0  0  0  0  0  0  0
   -4.1227   -0.6386   -2.1958 H   0  0  0  0  0  0  0  0  0  0  0  0
   -6.4730   -0.5068   -2.8918 H   0  0  0  0  0  0  0  0  0  0  0  0
   -7.9600    1.2464   -1.9623 H   0  0  0  0  0  0  0  0  0  0  0  0
   -7.0687    2.8863   -0.3224 H   0  0  0  0  0  0  0  0  0  0  0  0
   -4.7128    2.7661    0.3981 H   0  0  0  0  0  0  0  0  0  0  0  0
    0.2934    3.1876    0.4395 H   0  0  0  0  0  0  0  0  0  0  0  0
    0.7879    1.8555    1.5373 H   0  0  0  0  0  0  0  0  0  0  0  0
   -0.5757    2.9134    1.9856 H   0  0  0  0  0  0  0  0  0  0  0  0
    3.0002   -2.7782   -1.1296 H   0  0  0  0  0  0  0  0  0  0  0  0
    4.9799   -3.6838    0.0178 H   0  0  0  0  0  0  0  0  0  0  0  0
  1  2  1  0
  2  3  2  0
  3  4  1  0
  4  5  2  0
  5  6  1  0
  6  7  2  0
  6  8  2  0
  6  9  1  0
  9 10  1  0
 10 11  2  0
 11 12  1  0
 12 13  1  0
 13 14  2  0
 14 15  1  0
 15 16  2  0
 16 17  1  0
 17 18  2  0
 12 19  2  0
 19 20  1  0
 20 21  1  0
  5 22  1  0
 22 23  2  0
 23  2  1  0
 20 10  1  0
 18 13  1  0
  1 24  1  0
  1 25  1  0
  1 26  1  0
  3 27  1  0
  4 28  1  0
  9 29  1  0
 11 30  1  0
 14 31  1  0
 15 32  1  0
 16 33  1  0
 17 34  1  0
 18 35  1  0
 21 36  1  0
 21 37  1  0
 21 38  1  0
 22 39  1  0
 23 40  1  0
M  END
$$$$
