
     RDKit          3D

 40 41  0  0  0  0  0  0  0  0999 V2000
   -5.6612    0.5766    0.1956 C   0  0  0  0  0  0  0  0  0  0  0  0
   -4.3128    0.3043    0.8631 C   0  0  0  0  0  0  0  0  0  0  0  0
   -3.4127   -0.5193   -0.0727 C   0  0  0  0  0  0  0  0  0  0  0  0
   -1.9354   -0.3512    0.2691 C   0  0  0  0  0  0  0  0  0  0  0  0
   -1.5157    1.0510    0.1800 N   0  0  0  0  0  0  0  0  0  0  0  0
   -0.2686    1.4696   -0.2806 C   0  0  0  0  0  0  0  0  0  0  0  0
   -0.0285    2.6223   -0.6335 O   0  0  0  0  0  0  0  0  0  0  0  0
    0.8406    0.4909   -0.3534 C   0  0  0  0  0  0  0  0  0  0  0  0
    1.2006   -0.2769    0.7582 C   0  0  0  0  0  0  0  0  0  0  0  0
    2.2718   -1.1699    0.6678 C   0  0  0  0  0  0  0  0  0  0  0  0
    2.9984   -1.2762   -0.5195 C   0  0  0  0  0  0  0  0  0  0  0  0
    4.1002   -2.1686   -0.6422 N   0  0  0  0  0  0  0  0  0  0  0  0
    5.4149   -2.0443    0.4025 S   0  0  0  0  0  6  0  0  0  0  0  0
    5.9864   -0.3814    0.1077 C   0  0  0  0  0  0  0  0  0  0  0  0
    6.4153   -2.9475   -0.1265 O   0  0  0  0  0  0  0  0  0  0  0  0
    4.9663   -2.1448    1.7732 O   0  0  0  0  0  0  0  0  0  0  0  0
    2.6436   -0.5002   -1.6264 C   0  0  0  0  0  0  0  0  0  0  0  0
    1.5722    0.3922   -1.5410 C   0  0  0  0  0  0  0  0  0  0  0  0
   -2.5496    2.0690    0.3544 C   0  0  0  0  0  0  0  0  0  0  0  0
   -3.6371    1.6098    1.3193 C   0  0  0  0  0  0  0  0  0  0  0  0
   -6.1394   -0.3601   -0.1100 H   0  0  0  0  0  0  0  0  0  0  0  0
   -6.3400    1.0882    0.8862 H   0  0  0  0  0  0  0  0  0  0  0  0
   -5.5456    1.2061   -0.6932 H   0  0  0  0  0  0  0  0  0  0  0  0
   -4.5127   -0.2930    1.7628 H   0  0  0  0  0  0  0  0  0  0  0  0
   -3.6923   -1.5778   -0.0140 H   0  0  0  0  0  0  0  0  0  0  0  0
   -3.5696   -0.2112   -1.1150 H   0  0  0  0  0  0  0  0  0  0  0  0
   -1.3359   -0.9678   -0.4076 H   0  0  0  0  0  0  0  0  0  0  0  0
   -1.7469   -0.6856    1.2956 H   0  0  0  0  0  0  0  0  0  0  0  0
    0.6623   -0.1773    1.6972 H   0  0  0  0  0  0  0  0  0  0  0  0
    2.5240   -1.7796    1.5324 H   0  0  0  0  0  0  0  0  0  0  0  0
    4.3844   -2.4401   -1.5833 H   0  0  0  0  0  0  0  0  0  0  0  0
    5.2332    0.3285    0.4526 H   0  0  0  0  0  0  0  0  0  0  0  0
    6.1882   -0.2594   -0.9581 H   0  0  0  0  0  0  0  0  0  0  0  0
    6.9090   -0.2411    0.6757 H   0  0  0  0  0  0  0  0  0  0  0  0
    3.1976   -0.5693   -2.5586 H   0  0  0  0  0  0  0  0  0  0  0  0
    1.3076    1.0124   -2.3951 H   0  0  0  0  0  0  0  0  0  0  0  0
   -2.9732    2.2860   -0.6336 H   0  0  0  0  0  0  0  0  0  0  0  0
   -2.0903    2.9931    0.7236 H   0  0  0  0  0  0  0  0  0  0  0  0
   -4.3742    2.4078    1.4646 H   0  0  0  0  0  0  0  0  0  0  0  0
   -3.1750    1.4347    2.3003 H   0  0  0  0  0  0  0  0  0  0  0  0
  1  2  1  0
  2  3  1  0
  3  4  1  0
  4  5  1  0
  5  6  1  0
  6  7  2  0
  6  8  1  0
  8  9  2  0
  9 10  1  0
 10 11  2  0
 11 12  1  0
 12 13  1  0
 13 14  1  0
 13 15  2  0
 13 16  2  0
 11 17  1  0
 17 18  2  0
  5 19  1  0
 19 20  1  0
 20  2  1  0
 18  8  1  0
  1 21  1  0
  1 22  1  0
  1 23  1  0
  2 24  1  0
  3 25  1  0
  3 26  1  0
  4 27  1  0
  4 28  1  0
  9 29  1  0
 10 30  1  0
 12 31  1  0
 14 32  1  0
 14 33  1  0
 14 34  1  0
 17 35  1  0
 18 36  1  0
 19 37  1  0
 19 38  1  0
 20 39  1  0
 20 40  1  0
M  END
$$$$
