
     RDKit          3D

 44 46  0  0  0  0  0  0  0  0999 V2000
    1.0151   -1.7222    3.2788 C   0  0  0  0  0  0  0  0  0  0  0  0
    1.7450   -0.9798    2.3081 O   0  0  0  0  0  0  0  0  0  0  0  0
    1.0264   -0.1786    1.4598 C   0  0  0  0  0  0  0  0  0  0  0  0
   -0.3706   -0.1377    1.3836 C   0  0  0  0  0  0  0  0  0  0  0  0
   -1.0147    0.7117    0.4701 C   0  0  0  0  0  0  0  0  0  0  0  0
   -2.4820    0.7822    0.3710 C   0  0  0  0  0  0  0  0  0  0  0  0
   -3.3309   -0.2437    0.1294 C   0  0  0  0  0  0  0  0  0  0  0  0
   -2.8426   -1.5736   -0.0669 C   0  0  0  0  0  0  0  0  0  0  0  0
   -2.4714   -2.6668   -0.2062 N   0  0  0  0  0  0  0  0  0  0  0  0
   -4.7967    0.0073    0.0343 C   0  0  0  0  0  0  0  0  0  0  0  0
   -5.7316   -1.0297    0.0157 C   0  0  0  0  0  0  0  0  0  0  0  0
   -7.0889   -0.7248   -0.0828 C   0  0  0  0  0  0  0  0  0  0  0  0
   -7.4888    0.6018   -0.1638 C   0  0  0  0  0  0  0  0  0  0  0  0
   -6.5098    1.5754   -0.1381 C   0  0  0  0  0  0  0  0  0  0  0  0
   -5.1883    1.3086   -0.0395 N   0  0  0  0  0  0  0  0  0  0  0  0
   -0.2490    1.5598   -0.3405 C   0  0  0  0  0  0  0  0  0  0  0  0
    1.1418    1.5306   -0.2682 C   0  0  0  0  0  0  0  0  0  0  0  0
    1.7715    0.6484    0.6074 C   0  0  0  0  0  0  0  0  0  0  0  0
    3.1412    0.6882    0.6429 O   0  0  0  0  0  0  0  0  0  0  0  0
    3.7244   -0.4977    0.0865 C   0  0  0  0  0  0  0  0  0  0  0  0
    4.4305   -0.1411   -1.2025 C   0  0  0  0  0  0  0  0  0  0  0  0
    5.4557    0.8166   -1.2067 C   0  0  0  0  0  0  0  0  0  0  0  0
    6.1057    1.1542   -2.3943 C   0  0  0  0  0  0  0  0  0  0  0  0
    5.7358    0.5326   -3.5845 C   0  0  0  0  0  0  0  0  0  0  0  0
    6.5348    0.9502   -5.0497 Cl  0  0  0  0  0  0  0  0  0  0  0  0
    4.7221   -0.4221   -3.5972 C   0  0  0  0  0  0  0  0  0  0  0  0
    4.0696   -0.7579   -2.4092 C   0  0  0  0  0  0  0  0  0  0  0  0
    1.7375   -2.2486    3.9103 H   0  0  0  0  0  0  0  0  0  0  0  0
    0.3797   -2.4767    2.8017 H   0  0  0  0  0  0  0  0  0  0  0  0
    0.4293   -1.0596    3.9261 H   0  0  0  0  0  0  0  0  0  0  0  0
   -0.9770   -0.7599    2.0300 H   0  0  0  0  0  0  0  0  0  0  0  0
   -2.8715    1.7939    0.4824 H   0  0  0  0  0  0  0  0  0  0  0  0
   -5.4358   -2.0726    0.0823 H   0  0  0  0  0  0  0  0  0  0  0  0
   -7.8266   -1.5204   -0.0954 H   0  0  0  0  0  0  0  0  0  0  0  0
   -8.5357    0.8709   -0.2433 H   0  0  0  0  0  0  0  0  0  0  0  0
   -6.7667    2.6293   -0.1993 H   0  0  0  0  0  0  0  0  0  0  0  0
   -0.7283    2.2452   -1.0377 H   0  0  0  0  0  0  0  0  0  0  0  0
    1.7364    2.1830   -0.8978 H   0  0  0  0  0  0  0  0  0  0  0  0
    2.9981   -1.3040   -0.0858 H   0  0  0  0  0  0  0  0  0  0  0  0
    4.4629   -0.8792    0.8045 H   0  0  0  0  0  0  0  0  0  0  0  0
    5.7422    1.3110   -0.2806 H   0  0  0  0  0  0  0  0  0  0  0  0
    6.8932    1.9018   -2.3832 H   0  0  0  0  0  0  0  0  0  0  0  0
    4.4335   -0.9056   -4.5252 H   0  0  0  0  0  0  0  0  0  0  0  0
    3.2745   -1.5004   -2.4328 H   0  0  0  0  0  0  0  0  0  0  0  0
  1  2  1  0
  2  3  1  0
  3  4  2  0
  4  5  1  0
  5  6  1  0
  6  7  2  3
  7  8  1  0
  8  9  3  0
  7 10  1  0
 10 11  2  0
 11 12  1  0
 12 13  2  0
 13 14  1  0
 14 15  2  0
  5 16  2  0
 16 17  1  0
 17 18  2  0
 18 19  1  0
 19 20  1  0
 20 21  1  0
 21 22  2  0
 22 23  1  0
 23 24  2  0
 24 25  1  0
 24 26  1  0
 26 27  2  0
 18  3  1  0
 27 21  1  0
 15 10  1  0
  1 28  1  0
  1 29  1  0
  1 30  1  0
  4 31  1  0
  6 32  1  0
 11 33  1  0
 12 34  1  0
 13 35  1  0
 14 36  1  0
 16 37  1  0
 17 38  1  0
 20 39  1  0
 20 40  1  0
 22 41  1  0
 23 42  1  0
 26 43  1  0
 27 44  1  0
M  END
$$$$
