
     RDKit          3D

 50 52  0  0  0  0  0  0  0  0999 V2000
    7.7513    0.1783   -1.0342 C   0  0  0  0  0  0  0  0  0  0  0  0
    6.2566    0.3300   -1.0278 C   0  0  0  0  0  0  0  0  0  0  0  0
    5.5772    0.6460   -2.2132 C   0  0  0  0  0  0  0  0  0  0  0  0
    4.1838    0.7624   -2.2398 C   0  0  0  0  0  0  0  0  0  0  0  0
    3.3645    1.1573   -3.6949 Cl  0  0  0  0  0  0  0  0  0  0  0  0
    3.5002    0.5412   -1.0450 C   0  0  0  0  0  0  0  0  0  0  0  0
    2.1524    0.6051   -0.8637 O   0  0  0  0  0  0  0  0  0  0  0  0
    1.8967    0.3170    0.4508 C   0  0  0  0  0  0  0  0  0  0  0  0
    0.5180    0.3155    0.9034 C   0  0  0  0  0  0  0  0  0  0  0  0
    0.1771    0.0557    2.0538 O   0  0  0  0  0  0  0  0  0  0  0  0
   -0.3891    0.6274   -0.0868 N   0  0  0  0  0  0  0  0  0  0  0  0
   -1.8250    0.6413    0.1205 C   0  0  0  0  0  0  0  0  0  0  0  0
   -2.5630   -0.6589   -0.3458 C   0  0  0  0  0  0  0  0  0  0  0  0
   -2.0087   -1.8853    0.4224 C   0  0  0  0  0  0  0  0  0  0  0  0
   -2.2652   -0.9223   -1.8445 C   0  0  0  0  0  0  0  0  0  0  0  0
   -4.0432   -0.5803   -0.1733 N   0  0  0  0  0  0  0  0  0  0  0  0
   -4.7338    0.5300   -0.8630 C   0  0  0  0  0  0  0  0  0  0  0  0
   -5.3320    1.5771    0.0930 C   0  0  0  0  0  0  0  0  0  0  0  0
   -6.2750    1.0297    1.0200 O   0  0  0  0  0  0  0  0  0  0  0  0
   -6.0160   -0.3428    1.3384 C   0  0  0  0  0  0  0  0  0  0  0  0
   -4.5300   -0.7188    1.2158 C   0  0  0  0  0  0  0  0  0  0  0  0
    3.0871    0.0650    1.1207 C   0  0  0  0  0  0  0  0  0  0  0  0
    3.2310   -0.2860    2.5571 C   0  0  0  0  0  0  0  0  0  0  0  0
    4.1273    0.2124    0.1509 C   0  0  0  0  0  0  0  0  0  0  0  0
    5.5327    0.0985    0.1580 C   0  0  0  0  0  0  0  0  0  0  0  0
    8.1744    0.4388   -0.0583 H   0  0  0  0  0  0  0  0  0  0  0  0
    8.0207   -0.8551   -1.2729 H   0  0  0  0  0  0  0  0  0  0  0  0
    8.2081    0.8443   -1.7738 H   0  0  0  0  0  0  0  0  0  0  0  0
    6.1396    0.8053   -3.1316 H   0  0  0  0  0  0  0  0  0  0  0  0
   -0.0140    0.8044   -1.0128 H   0  0  0  0  0  0  0  0  0  0  0  0
   -2.1885    1.5110   -0.4369 H   0  0  0  0  0  0  0  0  0  0  0  0
   -2.0217    0.8324    1.1809 H   0  0  0  0  0  0  0  0  0  0  0  0
   -2.5719   -2.7938    0.1768 H   0  0  0  0  0  0  0  0  0  0  0  0
   -2.0503   -1.7423    1.5077 H   0  0  0  0  0  0  0  0  0  0  0  0
   -0.9626   -2.0849    0.1637 H   0  0  0  0  0  0  0  0  0  0  0  0
   -2.4873   -0.0560   -2.4754 H   0  0  0  0  0  0  0  0  0  0  0  0
   -2.8502   -1.7707   -2.2198 H   0  0  0  0  0  0  0  0  0  0  0  0
   -1.2087   -1.1675   -2.0055 H   0  0  0  0  0  0  0  0  0  0  0  0
   -4.1014    1.0404   -1.5945 H   0  0  0  0  0  0  0  0  0  0  0  0
   -5.5561    0.0804   -1.4340 H   0  0  0  0  0  0  0  0  0  0  0  0
   -4.5410    2.0744    0.6662 H   0  0  0  0  0  0  0  0  0  0  0  0
   -5.8506    2.3525   -0.4800 H   0  0  0  0  0  0  0  0  0  0  0  0
   -6.6314   -0.9689    0.6814 H   0  0  0  0  0  0  0  0  0  0  0  0
   -6.3625   -0.5116    2.3632 H   0  0  0  0  0  0  0  0  0  0  0  0
   -3.9572   -0.0735    1.8914 H   0  0  0  0  0  0  0  0  0  0  0  0
   -4.4147   -1.7556    1.5485 H   0  0  0  0  0  0  0  0  0  0  0  0
    4.2799   -0.4271    2.8345 H   0  0  0  0  0  0  0  0  0  0  0  0
    2.8221    0.5092    3.1887 H   0  0  0  0  0  0  0  0  0  0  0  0
    2.6982   -1.2163    2.7792 H   0  0  0  0  0  0  0  0  0  0  0  0
    6.0522   -0.1651    1.0759 H   0  0  0  0  0  0  0  0  0  0  0  0
  1  2  1  0
  2  3  2  0
  3  4  1  0
  4  5  1  0
  4  6  2  0
  6  7  1  0
  7  8  1  0
  8  9  1  0
  9 10  2  0
  9 11  1  0
 11 12  1  0
 12 13  1  0
 13 14  1  0
 13 15  1  0
 13 16  1  0
 16 17  1  0
 17 18  1  0
 18 19  1  0
 19 20  1  0
 20 21  1  0
  8 22  2  0
 22 23  1  0
 22 24  1  0
 24 25  2  0
 25  2  1  0
 24  6  1  0
 21 16  1  0
  1 26  1  0
  1 27  1  0
  1 28  1  0
  3 29  1  0
 11 30  1  0
 12 31  1  0
 12 32  1  0
 14 33  1  0
 14 34  1  0
 14 35  1  0
 15 36  1  0
 15 37  1  0
 15 38  1  0
 17 39  1  0
 17 40  1  0
 18 41  1  0
 18 42  1  0
 20 43  1  0
 20 44  1  0
 21 45  1  0
 21 46  1  0
 23 47  1  0
 23 48  1  0
 23 49  1  0
 25 50  1  0
M  END
$$$$
