
     RDKit          3D

 62 64  0  0  0  0  0  0  0  0999 V2000
    5.6404    1.9345    1.5203 C   0  0  0  0  0  0  0  0  0  0  0  0
    6.5500    1.4428    0.4234 C   0  0  0  0  0  0  0  0  0  0  0  0
    7.4942    2.3458   -0.0936 C   0  0  0  0  0  0  0  0  0  0  0  0
    8.3518    1.9675   -1.1183 C   0  0  0  0  0  0  0  0  0  0  0  0
    8.2952    0.6720   -1.6182 C   0  0  0  0  0  0  0  0  0  0  0  0
    7.3807   -0.2689   -1.1067 C   0  0  0  0  0  0  0  0  0  0  0  0
    7.4932   -1.6695   -1.6498 C   0  0  0  0  0  0  0  0  0  0  0  0
    6.4610    0.1327   -0.1123 C   0  0  0  0  0  0  0  0  0  0  0  0
    5.4871   -0.7377    0.4397 N   0  0  0  0  0  0  0  0  0  0  0  0
    4.7170   -1.6525   -0.2610 C   0  0  0  0  0  0  0  0  0  0  0  0
    4.6568   -1.7730   -1.4812 O   0  0  0  0  0  0  0  0  0  0  0  0
    3.8522   -2.5238    0.6571 C   0  0  0  0  0  0  0  0  0  0  0  0
    2.5138   -2.0546    0.8094 O   0  0  0  0  0  0  0  0  0  0  0  0
    2.3791   -0.9384    1.5696 C   0  0  0  0  0  0  0  0  0  0  0  0
    3.3105   -0.3676    2.1253 O   0  0  0  0  0  0  0  0  0  0  0  0
    0.9356   -0.5291    1.7106 C   0  0  0  0  0  0  0  0  0  0  0  0
    0.1727   -0.6338    0.3912 C   0  0  0  0  0  0  0  0  0  0  0  0
   -1.2143   -0.0403    0.4671 C   0  0  0  0  0  0  0  0  0  0  0  0
   -2.1859   -0.5973    1.3131 C   0  0  0  0  0  0  0  0  0  0  0  0
   -3.4715   -0.0562    1.3681 C   0  0  0  0  0  0  0  0  0  0  0  0
   -3.7916    1.0403    0.5638 C   0  0  0  0  0  0  0  0  0  0  0  0
   -5.4374    1.7016    0.6261 S   0  0  0  0  0  6  0  0  0  0  0  0
   -5.5958    2.6539   -0.4536 O   0  0  0  0  0  0  0  0  0  0  0  0
   -5.6937    2.0726    2.0014 O   0  0  0  0  0  0  0  0  0  0  0  0
   -6.4035    0.3434    0.2461 N   0  0  0  0  0  0  0  0  0  0  0  0
   -6.2086   -0.2448   -1.1108 C   0  0  0  0  0  0  0  0  0  0  0  0
   -7.4581   -0.1213   -1.9714 C   0  0  0  0  0  0  0  0  0  0  0  0
   -8.6622   -0.8017   -1.3253 C   0  0  0  0  0  0  0  0  0  0  0  0
   -8.6360   -0.7062    0.1985 C   0  0  0  0  0  0  0  0  0  0  0  0
   -7.8224    0.4919    0.6696 C   0  0  0  0  0  0  0  0  0  0  0  0
   -2.8394    1.6068   -0.2841 C   0  0  0  0  0  0  0  0  0  0  0  0
   -1.5529    1.0651   -0.3291 C   0  0  0  0  0  0  0  0  0  0  0  0
    5.7783    1.3374    2.4269 H   0  0  0  0  0  0  0  0  0  0  0  0
    5.8501    2.9766    1.7847 H   0  0  0  0  0  0  0  0  0  0  0  0
    4.5956    1.8878    1.1961 H   0  0  0  0  0  0  0  0  0  0  0  0
    7.5616    3.3587    0.2991 H   0  0  0  0  0  0  0  0  0  0  0  0
    9.0731    2.6750   -1.5175 H   0  0  0  0  0  0  0  0  0  0  0  0
    8.9937    0.3827   -2.4011 H   0  0  0  0  0  0  0  0  0  0  0  0
    8.5329   -1.8970   -1.9120 H   0  0  0  0  0  0  0  0  0  0  0  0
    6.8887   -1.7813   -2.5541 H   0  0  0  0  0  0  0  0  0  0  0  0
    7.2076   -2.4189   -0.9062 H   0  0  0  0  0  0  0  0  0  0  0  0
    5.0394   -0.4245    1.3005 H   0  0  0  0  0  0  0  0  0  0  0  0
    4.3296   -2.6556    1.6354 H   0  0  0  0  0  0  0  0  0  0  0  0
    3.8023   -3.5213    0.2080 H   0  0  0  0  0  0  0  0  0  0  0  0
    0.4831   -1.1615    2.4819 H   0  0  0  0  0  0  0  0  0  0  0  0
    0.9163    0.5046    2.0741 H   0  0  0  0  0  0  0  0  0  0  0  0
    0.0756   -1.6838    0.0853 H   0  0  0  0  0  0  0  0  0  0  0  0
    0.7483   -0.1456   -0.4071 H   0  0  0  0  0  0  0  0  0  0  0  0
   -1.9506   -1.4599    1.9335 H   0  0  0  0  0  0  0  0  0  0  0  0
   -4.2177   -0.4900    2.0302 H   0  0  0  0  0  0  0  0  0  0  0  0
   -5.9420   -1.3003   -0.9792 H   0  0  0  0  0  0  0  0  0  0  0  0
   -5.3687    0.2234   -1.6334 H   0  0  0  0  0  0  0  0  0  0  0  0
   -7.2802   -0.5535   -2.9624 H   0  0  0  0  0  0  0  0  0  0  0  0
   -7.6853    0.9406   -2.1296 H   0  0  0  0  0  0  0  0  0  0  0  0
   -8.6979   -1.8587   -1.6156 H   0  0  0  0  0  0  0  0  0  0  0  0
   -9.5800   -0.3441   -1.7153 H   0  0  0  0  0  0  0  0  0  0  0  0
   -8.1977   -1.6252    0.6092 H   0  0  0  0  0  0  0  0  0  0  0  0
   -9.6606   -0.6479    0.5831 H   0  0  0  0  0  0  0  0  0  0  0  0
   -8.2463    1.4220    0.2729 H   0  0  0  0  0  0  0  0  0  0  0  0
   -7.8633    0.5329    1.7633 H   0  0  0  0  0  0  0  0  0  0  0  0
   -3.0872    2.4618   -0.9095 H   0  0  0  0  0  0  0  0  0  0  0  0
   -0.8167    1.5115   -0.9951 H   0  0  0  0  0  0  0  0  0  0  0  0
  1  2  1  0
  2  3  2  0
  3  4  1  0
  4  5  2  0
  5  6  1  0
  6  7  1  0
  6  8  2  0
  8  9  1  0
  9 10  1  0
 10 11  2  0
 10 12  1  0
 12 13  1  0
 13 14  1  0
 14 15  2  0
 14 16  1  0
 16 17  1  0
 17 18  1  0
 18 19  2  0
 19 20  1  0
 20 21  2  0
 21 22  1  0
 22 23  2  0
 22 24  2  0
 22 25  1  0
 25 26  1  0
 26 27  1  0
 27 28  1  0
 28 29  1  0
 29 30  1  0
 21 31  1  0
 31 32  2  0
  8  2  1  0
 32 18  1  0
 30 25  1  0
  1 33  1  0
  1 34  1  0
  1 35  1  0
  3 36  1  0
  4 37  1  0
  5 38  1  0
  7 39  1  0
  7 40  1  0
  7 41  1  0
  9 42  1  0
 12 43  1  0
 12 44  1  0
 16 45  1  0
 16 46  1  0
 17 47  1  0
 17 48  1  0
 19 49  1  0
 20 50  1  0
 26 51  1  0
 26 52  1  0
 27 53  1  0
 27 54  1  0
 28 55  1  0
 28 56  1  0
 29 57  1  0
 29 58  1  0
 30 59  1  0
 30 60  1  0
 31 61  1  0
 32 62  1  0
M  END
$$$$
