
     RDKit          3D

 44 45  0  0  0  0  0  0  0  0999 V2000
    6.2264    1.1412   -0.2446 C   0  0  0  0  0  0  0  0  0  0  0  0
    5.2981    0.1966   -0.9594 C   0  0  0  0  0  0  0  0  0  0  0  0
    5.6027   -0.3400   -2.0201 O   0  0  0  0  0  0  0  0  0  0  0  0
    4.0944   -0.0048   -0.3255 N   0  0  0  0  0  0  0  0  0  0  0  0
    3.0432   -0.7980   -0.9431 C   0  0  0  0  0  0  0  0  0  0  0  0
    2.2721   -0.0090   -2.0086 C   0  0  0  0  0  0  0  0  0  0  0  0
    1.6412    1.1494   -1.4507 O   0  0  0  0  0  0  0  0  0  0  0  0
    0.4781    0.8981   -0.7547 C   0  0  0  0  0  0  0  0  0  0  0  0
    0.0217    1.9351   -0.0737 N   0  0  0  0  0  0  0  0  0  0  0  0
   -1.0903    1.7184    0.6130 C   0  0  0  0  0  0  0  0  0  0  0  0
   -1.6206    2.7586    1.3832 N   0  0  0  0  0  0  0  0  0  0  0  0
   -1.1829    4.0891    0.9877 C   0  0  0  0  0  0  0  0  0  0  0  0
   -3.0263    2.6070    1.7238 C   0  0  0  0  0  0  0  0  0  0  0  0
   -1.7057    0.5371    0.6208 N   0  0  0  0  0  0  0  0  0  0  0  0
   -1.1803   -0.4501   -0.0994 C   0  0  0  0  0  0  0  0  0  0  0  0
   -1.7984   -1.6851   -0.0792 N   0  0  0  0  0  0  0  0  0  0  0  0
   -1.5301   -2.6452   -1.1546 C   0  0  0  0  0  0  0  0  0  0  0  0
   -2.8534   -3.1277   -1.7722 C   0  0  0  0  0  0  0  0  0  0  0  0
   -3.7494   -3.7374   -0.8303 O   0  0  0  0  0  0  0  0  0  0  0  0
   -3.6110   -3.2287    0.5058 C   0  0  0  0  0  0  0  0  0  0  0  0
   -3.1118   -1.7772    0.5643 C   0  0  0  0  0  0  0  0  0  0  0  0
   -0.0715   -0.3058   -0.8084 N   0  0  0  0  0  0  0  0  0  0  0  0
    6.3858    2.0250   -0.8691 H   0  0  0  0  0  0  0  0  0  0  0  0
    7.1807    0.6372   -0.0667 H   0  0  0  0  0  0  0  0  0  0  0  0
    5.8189    1.4608    0.7190 H   0  0  0  0  0  0  0  0  0  0  0  0
    3.8174    0.6400    0.4048 H   0  0  0  0  0  0  0  0  0  0  0  0
    3.4939   -1.6863   -1.3986 H   0  0  0  0  0  0  0  0  0  0  0  0
    2.3885   -1.1232   -0.1297 H   0  0  0  0  0  0  0  0  0  0  0  0
    1.5558   -0.6452   -2.5430 H   0  0  0  0  0  0  0  0  0  0  0  0
    2.9707    0.3598   -2.7684 H   0  0  0  0  0  0  0  0  0  0  0  0
   -1.4990    4.3275   -0.0345 H   0  0  0  0  0  0  0  0  0  0  0  0
   -1.6132    4.8449    1.6546 H   0  0  0  0  0  0  0  0  0  0  0  0
   -0.0946    4.1961    1.0633 H   0  0  0  0  0  0  0  0  0  0  0  0
   -3.3580    3.4406    2.3532 H   0  0  0  0  0  0  0  0  0  0  0  0
   -3.6568    2.5947    0.8269 H   0  0  0  0  0  0  0  0  0  0  0  0
   -3.2059    1.6940    2.3031 H   0  0  0  0  0  0  0  0  0  0  0  0
   -0.9977   -3.4993   -0.7195 H   0  0  0  0  0  0  0  0  0  0  0  0
   -0.9043   -2.2381   -1.9564 H   0  0  0  0  0  0  0  0  0  0  0  0
   -2.6553   -3.8632   -2.5586 H   0  0  0  0  0  0  0  0  0  0  0  0
   -3.3836   -2.2880   -2.2371 H   0  0  0  0  0  0  0  0  0  0  0  0
   -4.5883   -3.3121    0.9918 H   0  0  0  0  0  0  0  0  0  0  0  0
   -2.9210   -3.8916    1.0416 H   0  0  0  0  0  0  0  0  0  0  0  0
   -3.0524   -1.4669    1.6142 H   0  0  0  0  0  0  0  0  0  0  0  0
   -3.8275   -1.1284    0.0432 H   0  0  0  0  0  0  0  0  0  0  0  0
  1  2  1  0
  2  3  2  0
  2  4  1  0
  4  5  1  0
  5  6  1  0
  6  7  1  0
  7  8  1  0
  8  9  2  0
  9 10  1  0
 10 11  1  0
 11 12  1  0
 11 13  1  0
 10 14  2  0
 14 15  1  0
 15 16  1  0
 16 17  1  0
 17 18  1  0
 18 19  1  0
 19 20  1  0
 20 21  1  0
 15 22  2  0
 22  8  1  0
 21 16  1  0
  1 23  1  0
  1 24  1  0
  1 25  1  0
  4 26  1  0
  5 27  1  0
  5 28  1  0
  6 29  1  0
  6 30  1  0
 12 31  1  0
 12 32  1  0
 12 33  1  0
 13 34  1  0
 13 35  1  0
 13 36  1  0
 17 37  1  0
 17 38  1  0
 18 39  1  0
 18 40  1  0
 20 41  1  0
 20 42  1  0
 21 43  1  0
 21 44  1  0
M  END
$$$$
