
     RDKit          3D

 55 59  0  0  0  0  0  0  0  0999 V2000
   -3.7704    3.8452   -0.0069 C   0  0  0  0  0  0  0  0  0  0  0  0
   -3.8462    2.3627   -0.2203 C   0  0  0  0  0  0  0  0  0  0  0  0
   -4.0971    1.5078    0.8581 C   0  0  0  0  0  0  0  0  0  0  0  0
   -4.2100    0.1307    0.6593 C   0  0  0  0  0  0  0  0  0  0  0  0
   -4.0773   -0.4175   -0.6237 C   0  0  0  0  0  0  0  0  0  0  0  0
   -4.1656   -1.9089   -0.8317 C   0  0  0  0  0  0  0  0  0  0  0  0
   -2.5502   -2.6919   -1.0925 S   0  0  0  0  0  0  0  0  0  0  0  0
   -1.7969   -2.2157    0.4204 C   0  0  0  0  0  0  0  0  0  0  0  0
   -2.2730   -2.7744    1.5009 N   0  0  0  0  0  0  0  0  0  0  0  0
   -1.7339   -2.4326    2.7605 C   0  0  0  0  0  0  0  0  0  0  0  0
   -2.2541   -3.0398    3.9039 C   0  0  0  0  0  0  0  0  0  0  0  0
   -1.7481   -2.7203    5.1667 C   0  0  0  0  0  0  0  0  0  0  0  0
   -0.7160   -1.7898    5.2941 C   0  0  0  0  0  0  0  0  0  0  0  0
   -0.1870   -1.1752    4.1594 C   0  0  0  0  0  0  0  0  0  0  0  0
   -0.6952   -1.4968    2.8988 C   0  0  0  0  0  0  0  0  0  0  0  0
   -0.1912   -0.8996    1.6775 C   0  0  0  0  0  0  0  0  0  0  0  0
    0.7627   -0.0050    1.5294 N   0  0  0  0  0  0  0  0  0  0  0  0
    0.8432    0.2188    0.1746 C   0  0  0  0  0  0  0  0  0  0  0  0
    1.8111    1.2240   -0.3413 C   0  0  0  0  0  0  0  0  0  0  0  0
    2.5338    0.7205   -1.5742 C   0  0  0  0  0  0  0  0  0  0  0  0
    1.9433    0.5578   -2.6430 O   0  0  0  0  0  0  0  0  0  0  0  0
    3.8637    0.4373   -1.3932 N   0  0  0  0  0  0  0  0  0  0  0  0
    4.7220   -0.0143   -2.4653 C   0  0  0  0  0  0  0  0  0  0  0  0
    5.7453    1.0331   -2.6964 C   0  0  0  0  0  0  0  0  0  0  0  0
    5.8440    2.0878   -3.5803 C   0  0  0  0  0  0  0  0  0  0  0  0
    7.0585    2.7482   -3.2776 C   0  0  0  0  0  0  0  0  0  0  0  0
    7.6243    2.0542   -2.2349 C   0  0  0  0  0  0  0  0  0  0  0  0
    6.8331    1.0135   -1.8718 O   0  0  0  0  0  0  0  0  0  0  0  0
   -0.0716   -0.5696   -0.5078 C   0  0  0  0  0  0  0  0  0  0  0  0
   -0.3279   -0.7036   -1.8065 O   0  0  0  0  0  0  0  0  0  0  0  0
   -0.7485   -1.2783    0.4713 N   0  0  0  0  0  0  0  0  0  0  0  0
   -3.8332    0.4417   -1.7028 C   0  0  0  0  0  0  0  0  0  0  0  0
   -3.7258    1.8195   -1.5037 C   0  0  0  0  0  0  0  0  0  0  0  0
   -4.7789    4.2706    0.0093 H   0  0  0  0  0  0  0  0  0  0  0  0
   -3.2709    4.0751    0.9399 H   0  0  0  0  0  0  0  0  0  0  0  0
   -3.1982    4.3313   -0.8040 H   0  0  0  0  0  0  0  0  0  0  0  0
   -4.2070    1.9098    1.8626 H   0  0  0  0  0  0  0  0  0  0  0  0
   -4.3965   -0.5135    1.5172 H   0  0  0  0  0  0  0  0  0  0  0  0
   -4.6710   -2.3870    0.0152 H   0  0  0  0  0  0  0  0  0  0  0  0
   -4.7900   -2.1107   -1.7096 H   0  0  0  0  0  0  0  0  0  0  0  0
   -3.0561   -3.7670    3.8080 H   0  0  0  0  0  0  0  0  0  0  0  0
   -2.1591   -3.2002    6.0512 H   0  0  0  0  0  0  0  0  0  0  0  0
   -0.3229   -1.5443    6.2776 H   0  0  0  0  0  0  0  0  0  0  0  0
    0.6180   -0.4499    4.2557 H   0  0  0  0  0  0  0  0  0  0  0  0
    2.5334    1.4881    0.4393 H   0  0  0  0  0  0  0  0  0  0  0  0
    1.2852    2.1464   -0.6122 H   0  0  0  0  0  0  0  0  0  0  0  0
    4.3023    0.6004   -0.4956 H   0  0  0  0  0  0  0  0  0  0  0  0
    4.1488   -0.2180   -3.3757 H   0  0  0  0  0  0  0  0  0  0  0  0
    5.1927   -0.9467   -2.1354 H   0  0  0  0  0  0  0  0  0  0  0  0
    5.1194    2.3498   -4.3392 H   0  0  0  0  0  0  0  0  0  0  0  0
    7.4709    3.6250   -3.7543 H   0  0  0  0  0  0  0  0  0  0  0  0
    8.5353    2.1701   -1.6648 H   0  0  0  0  0  0  0  0  0  0  0  0
    0.3394   -0.1951   -2.3195 H   0  0  0  0  0  0  0  0  0  0  0  0
   -3.7160    0.0395   -2.7071 H   0  0  0  0  0  0  0  0  0  0  0  0
   -3.5441    2.4659   -2.3595 H   0  0  0  0  0  0  0  0  0  0  0  0
  1  2  1  0
  2  3  2  0
  3  4  1  0
  4  5  2  0
  5  6  1  0
  6  7  1  0
  7  8  1  0
  8  9  2  0
  9 10  1  0
 10 11  2  0
 11 12  1  0
 12 13  2  0
 13 14  1  0
 14 15  2  0
 15 16  1  0
 16 17  2  0
 17 18  1  0
 18 19  1  0
 19 20  1  0
 20 21  2  0
 20 22  1  0
 22 23  1  0
 23 24  1  0
 24 25  2  0
 25 26  1  0
 26 27  2  0
 27 28  1  0
 18 29  2  0
 29 30  1  0
 29 31  1  0
  5 32  1  0
 32 33  2  0
 33  2  1  0
 31  8  1  0
 15 10  1  0
 31 16  1  0
 28 24  1  0
  1 34  1  0
  1 35  1  0
  1 36  1  0
  3 37  1  0
  4 38  1  0
  6 39  1  0
  6 40  1  0
 11 41  1  0
 12 42  1  0
 13 43  1  0
 14 44  1  0
 19 45  1  0
 19 46  1  0
 22 47  1  0
 23 48  1  0
 23 49  1  0
 25 50  1  0
 26 51  1  0
 27 52  1  0
 30 53  1  0
 32 54  1  0
 33 55  1  0
M  END
$$$$
