
     RDKit          3D

 56 59  0  0  0  0  0  0  0  0999 V2000
   -1.7077   -1.6753   -0.8166 C   0  0  0  0  0  0  0  0  0  0  0  0
   -1.7652   -0.5317    0.2014 C   0  0  0  0  0  0  0  0  0  0  0  0
   -2.9192   -0.7806    1.2073 C   0  0  0  0  0  0  0  0  0  0  0  0
   -2.6782   -1.1683    2.3610 O   0  0  0  0  0  0  0  0  0  0  0  0
   -4.2436   -0.6106    0.8254 N   0  0  0  0  0  0  0  0  0  0  0  0
   -5.2824   -0.9080    1.8271 C   0  0  0  0  0  0  0  0  0  0  0  0
   -6.6415   -0.7979    1.1455 C   0  0  0  0  0  0  0  0  0  0  0  0
   -6.2703   -0.1727   -0.1593 C   0  0  0  0  0  0  0  0  0  0  0  0
   -7.1625    0.2633   -1.1317 C   0  0  0  0  0  0  0  0  0  0  0  0
   -6.6489    0.7923   -2.3105 C   0  0  0  0  0  0  0  0  0  0  0  0
   -5.2655    0.8680   -2.4977 C   0  0  0  0  0  0  0  0  0  0  0  0
   -4.3767    0.4198   -1.5085 C   0  0  0  0  0  0  0  0  0  0  0  0
   -4.8802   -0.1051   -0.3293 C   0  0  0  0  0  0  0  0  0  0  0  0
   -0.4790   -0.2716    0.9160 N   0  0  0  0  0  0  0  0  0  0  0  0
    0.4590    0.5326    0.1098 C   0  0  0  0  0  0  0  0  0  0  0  0
    1.7496    0.8901    0.8799 C   0  0  0  0  0  0  0  0  0  0  0  0
    2.4219   -0.3081    1.4685 N   0  0  0  0  0  0  0  0  0  0  0  0
    3.4422   -1.2027    0.4442 S   0  0  0  0  0  6  0  0  0  0  0  0
    3.9935   -2.3109    1.1935 O   0  0  0  0  0  0  0  0  0  0  0  0
    2.7531   -1.4166   -0.8105 O   0  0  0  0  0  0  0  0  0  0  0  0
    4.7787   -0.0659    0.1547 C   0  0  0  0  0  0  0  0  0  0  0  0
    5.5637    0.3416    1.2366 C   0  0  0  0  0  0  0  0  0  0  0  0
    6.6174    1.2323    1.0252 C   0  0  0  0  0  0  0  0  0  0  0  0
    6.8911    1.7206   -0.2638 C   0  0  0  0  0  0  0  0  0  0  0  0
    8.0424    2.6691   -0.5032 C   0  0  0  0  0  0  0  0  0  0  0  0
    8.4550    3.3132    0.6243 F   0  0  0  0  0  0  0  0  0  0  0  0
    9.1410    2.0360   -0.9981 F   0  0  0  0  0  0  0  0  0  0  0  0
    7.7382    3.6491   -1.3998 F   0  0  0  0  0  0  0  0  0  0  0  0
    6.0983    1.2876   -1.3417 C   0  0  0  0  0  0  0  0  0  0  0  0
    5.0429    0.3966   -1.1363 C   0  0  0  0  0  0  0  0  0  0  0  0
    1.4414   -1.1193    2.2564 C   0  0  0  0  0  0  0  0  0  0  0  0
    0.2022   -1.4833    1.4186 C   0  0  0  0  0  0  0  0  0  0  0  0
   -2.6438   -1.7703   -1.3738 H   0  0  0  0  0  0  0  0  0  0  0  0
   -0.9078   -1.5223   -1.5477 H   0  0  0  0  0  0  0  0  0  0  0  0
   -1.5511   -2.6433   -0.3275 H   0  0  0  0  0  0  0  0  0  0  0  0
   -2.0037    0.4114   -0.2907 H   0  0  0  0  0  0  0  0  0  0  0  0
   -5.1248   -1.9057    2.2532 H   0  0  0  0  0  0  0  0  0  0  0  0
   -5.1885   -0.1767    2.6401 H   0  0  0  0  0  0  0  0  0  0  0  0
   -7.0806   -1.7875    0.9812 H   0  0  0  0  0  0  0  0  0  0  0  0
   -7.3332   -0.1785    1.7241 H   0  0  0  0  0  0  0  0  0  0  0  0
   -8.2350    0.1923   -0.9796 H   0  0  0  0  0  0  0  0  0  0  0  0
   -7.3219    1.1434   -3.0886 H   0  0  0  0  0  0  0  0  0  0  0  0
   -4.8729    1.2813   -3.4247 H   0  0  0  0  0  0  0  0  0  0  0  0
   -3.3245    0.5107   -1.7279 H   0  0  0  0  0  0  0  0  0  0  0  0
   -0.0211    1.4771   -0.1742 H   0  0  0  0  0  0  0  0  0  0  0  0
    0.7095    0.0146   -0.8215 H   0  0  0  0  0  0  0  0  0  0  0  0
    1.5086    1.5724    1.7055 H   0  0  0  0  0  0  0  0  0  0  0  0
    2.4356    1.4381    0.2265 H   0  0  0  0  0  0  0  0  0  0  0  0
    5.3589   -0.0348    2.2375 H   0  0  0  0  0  0  0  0  0  0  0  0
    7.2288    1.5435    1.8719 H   0  0  0  0  0  0  0  0  0  0  0  0
    6.3068    1.6444   -2.3501 H   0  0  0  0  0  0  0  0  0  0  0  0
    4.4418    0.0672   -1.9813 H   0  0  0  0  0  0  0  0  0  0  0  0
    1.1439   -0.5326    3.1351 H   0  0  0  0  0  0  0  0  0  0  0  0
    1.9177   -2.0248    2.6462 H   0  0  0  0  0  0  0  0  0  0  0  0
   -0.4646   -2.0725    2.0552 H   0  0  0  0  0  0  0  0  0  0  0  0
    0.5112   -2.1310    0.5899 H   0  0  0  0  0  0  0  0  0  0  0  0
  1  2  1  0
  2  3  1  0
  3  4  2  0
  3  5  1  0
  5  6  1  0
  6  7  1  0
  7  8  1  0
  8  9  2  0
  9 10  1  0
 10 11  2  0
 11 12  1  0
 12 13  2  0
  2 14  1  0
 14 15  1  0
 15 16  1  0
 16 17  1  0
 17 18  1  0
 18 19  2  0
 18 20  2  0
 18 21  1  0
 21 22  2  0
 22 23  1  0
 23 24  2  0
 24 25  1  0
 25 26  1  0
 25 27  1  0
 25 28  1  0
 24 29  1  0
 29 30  2  0
 17 31  1  0
 31 32  1  0
 13  5  1  0
 32 14  1  0
 13  8  1  0
 30 21  1  0
  1 33  1  0
  1 34  1  0
  1 35  1  0
  2 36  1  0
  6 37  1  0
  6 38  1  0
  7 39  1  0
  7 40  1  0
  9 41  1  0
 10 42  1  0
 11 43  1  0
 12 44  1  0
 15 45  1  0
 15 46  1  0
 16 47  1  0
 16 48  1  0
 22 49  1  0
 23 50  1  0
 29 51  1  0
 30 52  1  0
 31 53  1  0
 31 54  1  0
 32 55  1  0
 32 56  1  0
M  END
$$$$
