
     RDKit          3D

 30 31  0  0  0  0  0  0  0  0999 V2000
   -1.7467   -2.3213   -0.5920 N   0  0  0  0  0  0  0  0  0  0  0  0
   -1.7715   -1.0229   -0.6362 C   0  0  0  0  0  0  0  0  0  0  0  0
   -0.7448   -0.2995   -1.2071 N   0  0  0  0  0  0  0  0  0  0  0  0
    0.4823   -0.9991   -1.1886 O   0  0  0  0  0  0  0  0  0  0  0  0
    1.4724   -0.2600   -0.5791 C   0  0  0  0  0  0  0  0  0  0  0  0
    1.2823    0.8674   -0.1364 O   0  0  0  0  0  0  0  0  0  0  0  0
    2.7434   -1.0761   -0.5231 C   0  0  0  0  0  0  0  0  0  0  0  0
    3.9223   -0.2240   -0.1634 C   0  0  0  0  0  0  0  0  0  0  0  0
    4.4203    0.0655    1.0922 C   0  0  0  0  0  0  0  0  0  0  0  0
    5.5659    0.9110    1.0380 C   0  0  0  0  0  0  0  0  0  0  0  0
    5.9071    1.2352   -0.2555 C   0  0  0  0  0  0  0  0  0  0  0  0
    4.8518    0.5228   -1.3955 S   0  0  0  0  0  0  0  0  0  0  0  0
   -2.9505   -0.3091   -0.0498 C   0  0  0  0  0  0  0  0  0  0  0  0
   -3.7796   -0.9837    0.8575 C   0  0  0  0  0  0  0  0  0  0  0  0
   -4.8825   -0.3378    1.4228 C   0  0  0  0  0  0  0  0  0  0  0  0
   -5.1615    0.9823    1.0768 C   0  0  0  0  0  0  0  0  0  0  0  0
   -6.5187    1.7800    1.7701 Cl  0  0  0  0  0  0  0  0  0  0  0  0
   -4.3506    1.6602    0.1672 C   0  0  0  0  0  0  0  0  0  0  0  0
   -3.2458    1.0156   -0.3995 C   0  0  0  0  0  0  0  0  0  0  0  0
   -0.8863   -2.6178   -1.0652 H   0  0  0  0  0  0  0  0  0  0  0  0
   -0.6308    0.6542   -0.8481 H   0  0  0  0  0  0  0  0  0  0  0  0
    2.9025   -1.5548   -1.4963 H   0  0  0  0  0  0  0  0  0  0  0  0
    2.6090   -1.8629    0.2278 H   0  0  0  0  0  0  0  0  0  0  0  0
    3.9813   -0.3038    2.0117 H   0  0  0  0  0  0  0  0  0  0  0  0
    6.1106    1.2658    1.9045 H   0  0  0  0  0  0  0  0  0  0  0  0
    6.7261    1.8584   -0.5879 H   0  0  0  0  0  0  0  0  0  0  0  0
   -3.5678   -2.0167    1.1274 H   0  0  0  0  0  0  0  0  0  0  0  0
   -5.5161   -0.8716    2.1260 H   0  0  0  0  0  0  0  0  0  0  0  0
   -4.5771    2.6867   -0.1103 H   0  0  0  0  0  0  0  0  0  0  0  0
   -2.6471    1.5561   -1.1267 H   0  0  0  0  0  0  0  0  0  0  0  0
  1  2  2  3
  2  3  1  0
  3  4  1  0
  4  5  1  0
  5  6  2  0
  5  7  1  0
  7  8  1  0
  8  9  2  0
  9 10  1  0
 10 11  2  0
 11 12  1  0
  2 13  1  0
 13 14  2  0
 14 15  1  0
 15 16  2  0
 16 17  1  0
 16 18  1  0
 18 19  2  0
 12  8  1  0
 19 13  1  0
  1 20  1  0
  3 21  1  0
  7 22  1  0
  7 23  1  0
  9 24  1  0
 10 25  1  0
 11 26  1  0
 14 27  1  0
 15 28  1  0
 18 29  1  0
 19 30  1  0
M  END
$$$$
