
     RDKit          3D

 46 49  0  0  0  0  0  0  0  0999 V2000
   -2.8090   -1.3947   -2.8052 C   0  0  0  0  0  0  0  0  0  0  0  0
   -2.3758   -1.0932   -1.4505 N   0  0  0  0  0  0  0  0  0  0  0  0
   -3.2950   -0.3242   -0.6285 C   0  0  0  0  0  0  0  0  0  0  0  0
   -1.0212   -0.6918   -1.3459 N   0  0  0  0  0  0  0  0  0  0  0  0
   -0.5809    0.5023   -1.9469 C   0  0  0  0  0  0  0  0  0  0  0  0
   -1.3050    1.4087   -2.5296 N   0  0  0  0  0  0  0  0  0  0  0  0
    0.9267    0.7718   -1.9355 C   0  0  0  0  0  0  0  0  0  0  0  0
    1.5124    0.0802   -3.0993 C   0  0  0  0  0  0  0  0  0  0  0  0
    1.9901   -0.4857   -3.9938 N   0  0  0  0  0  0  0  0  0  0  0  0
    1.5861    0.2810   -0.6298 C   0  0  0  0  0  0  0  0  0  0  0  0
    1.5075    1.3183    0.4964 C   0  0  0  0  0  0  0  0  0  0  0  0
    2.7055    1.7271    1.1361 C   0  0  0  0  0  0  0  0  0  0  0  0
    2.6964    2.6630    2.1761 C   0  0  0  0  0  0  0  0  0  0  0  0
    1.4805    3.1738    2.5663 C   0  0  0  0  0  0  0  0  0  0  0  0
    0.3097    2.7813    1.9657 C   0  0  0  0  0  0  0  0  0  0  0  0
    0.2865    1.8602    0.9374 C   0  0  0  0  0  0  0  0  0  0  0  0
   -0.7801    3.3933    2.5031 O   0  0  0  0  0  0  0  0  0  0  0  0
   -0.1560    4.2266    3.5027 C   0  0  0  0  0  0  0  0  0  0  0  0
    1.2782    4.0844    3.5549 O   0  0  0  0  0  0  0  0  0  0  0  0
    1.0460   -1.0631   -0.1854 C   0  0  0  0  0  0  0  0  0  0  0  0
   -0.1778   -1.5008   -0.5558 C   0  0  0  0  0  0  0  0  0  0  0  0
   -0.6844   -2.8718   -0.1326 C   0  0  0  0  0  0  0  0  0  0  0  0
    0.4261   -3.8282    0.2886 C   0  0  0  0  0  0  0  0  0  0  0  0
    1.3676   -3.1648    1.2723 C   0  0  0  0  0  0  0  0  0  0  0  0
    1.9355   -1.9034    0.6723 C   0  0  0  0  0  0  0  0  0  0  0  0
    3.0867   -1.5468    0.9147 O   0  0  0  0  0  0  0  0  0  0  0  0
   -3.7445   -1.9645   -2.7777 H   0  0  0  0  0  0  0  0  0  0  0  0
   -2.9836   -0.5085   -3.4209 H   0  0  0  0  0  0  0  0  0  0  0  0
   -2.0750   -2.0270   -3.3177 H   0  0  0  0  0  0  0  0  0  0  0  0
   -2.9148   -0.2266    0.3949 H   0  0  0  0  0  0  0  0  0  0  0  0
   -3.4971    0.6797   -1.0100 H   0  0  0  0  0  0  0  0  0  0  0  0
   -4.2549   -0.8472   -0.5538 H   0  0  0  0  0  0  0  0  0  0  0  0
   -2.2852    1.1321   -2.4943 H   0  0  0  0  0  0  0  0  0  0  0  0
    1.0942    1.8502   -2.0593 H   0  0  0  0  0  0  0  0  0  0  0  0
    2.6533    0.1493   -0.8642 H   0  0  0  0  0  0  0  0  0  0  0  0
    3.6613    1.2992    0.8327 H   0  0  0  0  0  0  0  0  0  0  0  0
    3.6153    2.9691    2.6633 H   0  0  0  0  0  0  0  0  0  0  0  0
   -0.6685    1.5819    0.5084 H   0  0  0  0  0  0  0  0  0  0  0  0
   -0.5701    3.9658    4.4835 H   0  0  0  0  0  0  0  0  0  0  0  0
   -0.3974    5.2737    3.2865 H   0  0  0  0  0  0  0  0  0  0  0  0
   -1.2236   -3.3528   -0.9575 H   0  0  0  0  0  0  0  0  0  0  0  0
   -1.3936   -2.7456    0.6952 H   0  0  0  0  0  0  0  0  0  0  0  0
    0.9868   -4.1461   -0.6003 H   0  0  0  0  0  0  0  0  0  0  0  0
   -0.0086   -4.7308    0.7325 H   0  0  0  0  0  0  0  0  0  0  0  0
    2.1924   -3.8471    1.5042 H   0  0  0  0  0  0  0  0  0  0  0  0
    0.8574   -2.9081    2.2067 H   0  0  0  0  0  0  0  0  0  0  0  0
  1  2  1  0
  2  3  1  0
  2  4  1  0
  4  5  1  0
  5  6  2  3
  5  7  1  0
  7  8  1  0
  8  9  3  0
  7 10  1  0
 10 11  1  0
 11 12  2  0
 12 13  1  0
 13 14  2  0
 14 15  1  0
 15 16  2  0
 15 17  1  0
 17 18  1  0
 18 19  1  0
 10 20  1  0
 20 21  2  0
 21 22  1  0
 22 23  1  0
 23 24  1  0
 24 25  1  0
 25 26  2  0
 21  4  1  0
 16 11  1  0
 25 20  1  0
 19 14  1  0
  1 27  1  0
  1 28  1  0
  1 29  1  0
  3 30  1  0
  3 31  1  0
  3 32  1  0
  6 33  1  0
  7 34  1  0
 10 35  1  0
 12 36  1  0
 13 37  1  0
 16 38  1  0
 18 39  1  0
 18 40  1  0
 22 41  1  0
 22 42  1  0
 23 43  1  0
 23 44  1  0
 24 45  1  0
 24 46  1  0
M  END
$$$$
