
     RDKit          3D

 76 78  0  0  0  0  0  0  0  0999 V2000
    2.6847    2.3612    4.4199 C   0  0  0  0  0  0  0  0  0  0  0  0
    3.1263    1.5632    3.2029 C   0  0  0  0  0  0  0  0  0  0  0  0
    4.5992    1.8118    2.8794 C   0  0  0  0  0  0  0  0  0  0  0  0
    5.1108    0.9979    1.6836 C   0  0  0  0  0  0  0  0  0  0  0  0
    4.5338    1.4114    0.3971 N   0  0  0  0  0  0  0  0  0  0  0  0
    3.5715    0.6291   -0.2429 C   0  0  0  0  0  0  0  0  0  0  0  0
    3.1334   -0.5512    0.3445 N   0  0  0  0  0  0  0  0  0  0  0  0
    3.0919    1.0131   -1.4543 C   0  0  0  0  0  0  0  0  0  0  0  0
    2.1056    0.3015   -2.1409 N   0  0  0  0  0  0  0  0  0  0  0  0
    2.4202   -0.1984   -3.4904 C   0  0  0  0  0  0  0  0  0  0  0  0
    2.5504   -1.7347   -3.5625 C   0  0  0  0  0  0  0  0  0  0  0  0
    3.8652   -2.2230   -2.9522 C   0  0  0  0  0  0  0  0  0  0  0  0
    2.4646   -2.1932   -5.0208 C   0  0  0  0  0  0  0  0  0  0  0  0
    0.7648    0.2455   -1.7382 C   0  0  0  0  0  0  0  0  0  0  0  0
   -0.0516   -0.4773   -2.3202 O   0  0  0  0  0  0  0  0  0  0  0  0
    0.3102    1.1721   -0.5964 C   0  0  0  0  0  0  0  0  0  0  0  0
   -0.8273    0.5643    0.0537 N   0  0  0  0  0  0  0  0  0  0  0  0
   -0.7202   -0.4280    0.9743 C   0  0  0  0  0  0  0  0  0  0  0  0
    0.3138   -0.9031    1.4162 O   0  0  0  0  0  0  0  0  0  0  0  0
   -1.9840   -0.8351    1.3281 N   0  0  0  0  0  0  0  0  0  0  0  0
   -3.0106   -0.2151    0.5057 C   0  0  0  0  0  0  0  0  0  0  0  0
   -3.6075   -1.2283   -0.4716 C   0  0  0  0  0  0  0  0  0  0  0  0
   -4.4895   -2.2743    0.2254 C   0  0  0  0  0  0  0  0  0  0  0  0
   -5.4598   -2.9130   -0.7707 C   0  0  0  0  0  0  0  0  0  0  0  0
   -5.2173   -1.7370    1.4718 C   0  0  0  0  0  0  0  0  0  0  0  0
   -5.4104   -0.2059    1.5217 C   0  0  0  0  0  0  0  0  0  0  0  0
   -6.4080    0.2665    0.4456 C   0  0  0  0  0  0  0  0  0  0  0  0
   -6.0222    0.1679    2.8891 C   0  0  0  0  0  0  0  0  0  0  0  0
   -4.0504    0.5250    1.3639 C   0  0  0  0  0  0  0  0  0  0  0  0
   -2.1331    0.7816   -0.2796 C   0  0  0  0  0  0  0  0  0  0  0  0
   -2.5443    1.6104   -1.0803 O   0  0  0  0  0  0  0  0  0  0  0  0
    3.6206    2.2597   -2.0819 C   0  0  0  0  0  0  0  0  0  0  0  0
    3.1653    2.7086   -3.1308 O   0  0  0  0  0  0  0  0  0  0  0  0
    4.6050    2.9021   -1.4033 N   0  0  0  0  0  0  0  0  0  0  0  0
    5.0670    2.5662   -0.1685 C   0  0  0  0  0  0  0  0  0  0  0  0
    5.9072    3.2848    0.3723 O   0  0  0  0  0  0  0  0  0  0  0  0
    1.6364    2.1497    4.6531 H   0  0  0  0  0  0  0  0  0  0  0  0
    2.7813    3.4365    4.2382 H   0  0  0  0  0  0  0  0  0  0  0  0
    3.2855    2.1037    5.2980 H   0  0  0  0  0  0  0  0  0  0  0  0
    2.9628    0.4985    3.4005 H   0  0  0  0  0  0  0  0  0  0  0  0
    2.4973    1.8419    2.3510 H   0  0  0  0  0  0  0  0  0  0  0  0
    5.2037    1.5452    3.7549 H   0  0  0  0  0  0  0  0  0  0  0  0
    4.7573    2.8822    2.7049 H   0  0  0  0  0  0  0  0  0  0  0  0
    4.9706   -0.0729    1.8601 H   0  0  0  0  0  0  0  0  0  0  0  0
    6.1971    1.1395    1.6170 H   0  0  0  0  0  0  0  0  0  0  0  0
    2.3710   -1.0131   -0.1504 H   0  0  0  0  0  0  0  0  0  0  0  0
    2.8611   -0.4414    1.3202 H   0  0  0  0  0  0  0  0  0  0  0  0
    1.6113    0.1333   -4.1555 H   0  0  0  0  0  0  0  0  0  0  0  0
    3.3431    0.2609   -3.8641 H   0  0  0  0  0  0  0  0  0  0  0  0
    1.7274   -2.2069   -3.0133 H   0  0  0  0  0  0  0  0  0  0  0  0
    4.7303   -1.7904   -3.4649 H   0  0  0  0  0  0  0  0  0  0  0  0
    3.9346   -1.9650   -1.8941 H   0  0  0  0  0  0  0  0  0  0  0  0
    3.9419   -3.3134   -3.0262 H   0  0  0  0  0  0  0  0  0  0  0  0
    2.5320   -3.2840   -5.0914 H   0  0  0  0  0  0  0  0  0  0  0  0
    1.5132   -1.8885   -5.4697 H   0  0  0  0  0  0  0  0  0  0  0  0
    3.2763   -1.7655   -5.6194 H   0  0  0  0  0  0  0  0  0  0  0  0
    0.0245    2.1342   -1.0338 H   0  0  0  0  0  0  0  0  0  0  0  0
    1.0787    1.3285    0.1596 H   0  0  0  0  0  0  0  0  0  0  0  0
   -2.1135   -1.6483    1.9147 H   0  0  0  0  0  0  0  0  0  0  0  0
   -2.8117   -1.7495   -1.0225 H   0  0  0  0  0  0  0  0  0  0  0  0
   -4.1776   -0.6983   -1.2441 H   0  0  0  0  0  0  0  0  0  0  0  0
   -3.8332   -3.0855    0.5696 H   0  0  0  0  0  0  0  0  0  0  0  0
   -4.9171   -3.3307   -1.6258 H   0  0  0  0  0  0  0  0  0  0  0  0
   -6.0172   -3.7301   -0.2996 H   0  0  0  0  0  0  0  0  0  0  0  0
   -6.1847   -2.1880   -1.1540 H   0  0  0  0  0  0  0  0  0  0  0  0
   -6.1811   -2.2478    1.5997 H   0  0  0  0  0  0  0  0  0  0  0  0
   -4.6215   -2.0305    2.3481 H   0  0  0  0  0  0  0  0  0  0  0  0
   -6.6461    1.3299    0.5693 H   0  0  0  0  0  0  0  0  0  0  0  0
   -6.0268    0.1466   -0.5700 H   0  0  0  0  0  0  0  0  0  0  0  0
   -7.3499   -0.2902    0.5134 H   0  0  0  0  0  0  0  0  0  0  0  0
   -6.1531    1.2522    2.9801 H   0  0  0  0  0  0  0  0  0  0  0  0
   -5.3830   -0.1606    3.7157 H   0  0  0  0  0  0  0  0  0  0  0  0
   -7.0033   -0.3007    3.0244 H   0  0  0  0  0  0  0  0  0  0  0  0
   -3.6165    0.7050    2.3586 H   0  0  0  0  0  0  0  0  0  0  0  0
   -4.2367    1.5287    0.9577 H   0  0  0  0  0  0  0  0  0  0  0  0
    4.9603    3.7584   -1.7997 H   0  0  0  0  0  0  0  0  0  0  0  0
  1  2  1  0
  2  3  1  0
  3  4  1  0
  4  5  1  0
  5  6  1  0
  6  7  1  0
  6  8  2  0
  8  9  1  0
  9 10  1  0
 10 11  1  0
 11 12  1  0
 11 13  1  0
  9 14  1  0
 14 15  2  0
 14 16  1  0
 16 17  1  0
 17 18  1  0
 18 19  2  0
 18 20  1  0
 20 21  1  0
 21 22  1  0
 22 23  1  0
 23 24  1  0
 23 25  1  0
 25 26  1  0
 26 27  1  0
 26 28  1  0
 26 29  1  0
 21 30  1  0
 30 31  2  0
  8 32  1  0
 32 33  2  0
 32 34  1  0
 34 35  1  0
 35 36  2  0
 35  5  1  0
 30 17  1  0
 29 21  1  0
  1 37  1  0
  1 38  1  0
  1 39  1  0
  2 40  1  0
  2 41  1  0
  3 42  1  0
  3 43  1  0
  4 44  1  0
  4 45  1  0
  7 46  1  0
  7 47  1  0
 10 48  1  0
 10 49  1  0
 11 50  1  0
 12 51  1  0
 12 52  1  0
 12 53  1  0
 13 54  1  0
 13 55  1  0
 13 56  1  0
 16 57  1  0
 16 58  1  0
 20 59  1  0
 22 60  1  0
 22 61  1  0
 23 62  1  0
 24 63  1  0
 24 64  1  0
 24 65  1  0
 25 66  1  0
 25 67  1  0
 27 68  1  0
 27 69  1  0
 27 70  1  0
 28 71  1  0
 28 72  1  0
 28 73  1  0
 29 74  1  0
 29 75  1  0
 34 76  1  0
M  END
$$$$
