
     RDKit          3D

 38 40  0  0  0  0  0  0  0  0999 V2000
    2.1939   -1.5597   -0.9966 O   0  0  0  0  0  0  0  0  0  0  0  0
    2.4758   -0.7174   -0.1478 C   0  0  0  0  0  0  0  0  0  0  0  0
    1.5669   -0.3022    0.8084 N   0  0  0  0  0  0  0  0  0  0  0  0
    0.2325   -0.7295    0.6288 N   0  0  0  0  0  0  0  0  0  0  0  0
   -0.7484    0.2382    0.7986 C   0  0  0  0  0  0  0  0  0  0  0  0
   -0.4851    1.3382    1.2851 O   0  0  0  0  0  0  0  0  0  0  0  0
   -2.1409   -0.2016    0.3479 C   0  0  0  0  0  0  0  0  0  0  0  0
   -2.7024   -1.1980    1.3547 C   0  0  0  0  0  0  0  0  0  0  0  0
   -3.9451   -1.7383    0.8864 O   0  0  0  0  0  0  0  0  0  0  0  0
   -4.7708   -0.7477    0.4186 C   0  0  0  0  0  0  0  0  0  0  0  0
   -6.1121   -1.0798    0.2400 C   0  0  0  0  0  0  0  0  0  0  0  0
   -7.0123   -0.1134   -0.2122 C   0  0  0  0  0  0  0  0  0  0  0  0
   -6.5693    1.1818   -0.4869 C   0  0  0  0  0  0  0  0  0  0  0  0
   -5.2228    1.5106   -0.3212 C   0  0  0  0  0  0  0  0  0  0  0  0
   -4.3217    0.5422    0.1162 C   0  0  0  0  0  0  0  0  0  0  0  0
   -3.0108    0.9272    0.2337 O   0  0  0  0  0  0  0  0  0  0  0  0
    3.8149   -0.0674   -0.1319 C   0  0  0  0  0  0  0  0  0  0  0  0
    4.3321    0.5447    1.0198 C   0  0  0  0  0  0  0  0  0  0  0  0
    5.5977    1.1380    0.9948 C   0  0  0  0  0  0  0  0  0  0  0  0
    6.3580    1.1192   -0.1751 C   0  0  0  0  0  0  0  0  0  0  0  0
    5.8467    0.4967   -1.3219 C   0  0  0  0  0  0  0  0  0  0  0  0
    6.6485    0.4716   -2.5519 N   0  0  0  0  0  4  0  0  0  0  0  0
    7.7964    0.9354   -2.4993 O   0  0  0  0  0  0  0  0  0  0  0  0
    6.1293   -0.0081   -3.5688 O   0  0  0  0  0  1  0  0  0  0  0  0
    4.5798   -0.1005   -1.3060 C   0  0  0  0  0  0  0  0  0  0  0  0
    1.6596    0.6102    1.2576 H   0  0  0  0  0  0  0  0  0  0  0  0
    0.1231   -1.4562   -0.0825 H   0  0  0  0  0  0  0  0  0  0  0  0
   -2.0499   -0.6541   -0.6493 H   0  0  0  0  0  0  0  0  0  0  0  0
   -2.0208   -2.0419    1.5046 H   0  0  0  0  0  0  0  0  0  0  0  0
   -2.8707   -0.7337    2.3356 H   0  0  0  0  0  0  0  0  0  0  0  0
   -6.4583   -2.0850    0.4633 H   0  0  0  0  0  0  0  0  0  0  0  0
   -8.0606   -0.3689   -0.3452 H   0  0  0  0  0  0  0  0  0  0  0  0
   -7.2724    1.9350   -0.8335 H   0  0  0  0  0  0  0  0  0  0  0  0
   -4.8757    2.5164   -0.5413 H   0  0  0  0  0  0  0  0  0  0  0  0
    3.7774    0.5509    1.9552 H   0  0  0  0  0  0  0  0  0  0  0  0
    5.9950    1.6097    1.8920 H   0  0  0  0  0  0  0  0  0  0  0  0
    7.3419    1.5855   -0.1757 H   0  0  0  0  0  0  0  0  0  0  0  0
    4.1806   -0.5891   -2.1943 H   0  0  0  0  0  0  0  0  0  0  0  0
  1  2  2  0
  2  3  1  0
  3  4  1  0
  4  5  1  0
  5  6  2  0
  5  7  1  0
  7  8  1  0
  8  9  1  0
  9 10  1  0
 10 11  2  0
 11 12  1  0
 12 13  2  0
 13 14  1  0
 14 15  2  0
 15 16  1  0
  2 17  1  0
 17 18  2  0
 18 19  1  0
 19 20  2  0
 20 21  1  0
 21 22  1  0
 22 23  2  0
 22 24  1  0
 21 25  2  0
 16  7  1  0
 25 17  1  0
 15 10  1  0
  3 26  1  0
  4 27  1  0
  7 28  1  0
  8 29  1  0
  8 30  1  0
 11 31  1  0
 12 32  1  0
 13 33  1  0
 14 34  1  0
 18 35  1  0
 19 36  1  0
 20 37  1  0
 25 38  1  0
M  CHG  2  22   1  24  -1
M  END
$$$$
