
     RDKit          3D

 53 58  0  0  0  0  0  0  0  0999 V2000
    6.9799    0.5852    2.8361 C   0  0  0  0  0  0  0  0  0  0  0  0
    6.9822    0.6703    1.3196 C   0  0  0  0  0  0  0  0  0  0  0  0
    6.0264   -0.2264    0.7574 O   0  0  0  0  0  0  0  0  0  0  0  0
    4.7386    0.1985    0.5897 C   0  0  0  0  0  0  0  0  0  0  0  0
    4.2146    1.4313    0.9742 C   0  0  0  0  0  0  0  0  0  0  0  0
    2.8664    1.7318    0.7405 C   0  0  0  0  0  0  0  0  0  0  0  0
    2.0162    0.8009    0.1250 C   0  0  0  0  0  0  0  0  0  0  0  0
    0.5460    1.1396   -0.1262 C   0  0  0  0  0  0  0  0  0  0  0  0
    0.3753    1.0034   -1.5871 N   0  0  0  0  0  0  0  0  0  0  0  0
   -0.9456    0.9540   -2.0471 C   0  0  0  0  0  0  0  0  0  0  0  0
   -1.2273    1.3723   -3.3474 C   0  0  0  0  0  0  0  0  0  0  0  0
   -2.5357    1.3776   -3.8187 C   0  0  0  0  0  0  0  0  0  0  0  0
   -3.5939    1.0023   -2.9861 C   0  0  0  0  0  0  0  0  0  0  0  0
   -4.9137    1.1086   -3.4570 C   0  0  0  0  0  0  0  0  0  0  0  0
   -5.9966    0.8031   -2.6371 C   0  0  0  0  0  0  0  0  0  0  0  0
   -5.7716    0.4025   -1.3295 C   0  0  0  0  0  0  0  0  0  0  0  0
   -4.4627    0.2810   -0.8547 C   0  0  0  0  0  0  0  0  0  0  0  0
   -3.3313    0.5356   -1.6721 C   0  0  0  0  0  0  0  0  0  0  0  0
   -1.9690    0.3981   -1.2513 C   0  0  0  0  0  0  0  0  0  0  0  0
   -1.5420   -0.2574    0.0291 C   0  0  0  0  0  0  0  0  0  0  0  0
   -0.4330    0.2537    0.6070 C   0  0  0  0  0  0  0  0  0  0  0  0
   -0.1761    0.0581    2.0526 C   0  0  0  0  0  0  0  0  0  0  0  0
    0.5764    0.7951    2.6818 O   0  0  0  0  0  0  0  0  0  0  0  0
   -0.8899   -0.9327    2.7046 O   0  0  0  0  0  0  0  0  0  0  0  0
   -1.7846   -1.7423    1.9956 C   0  0  0  0  0  0  0  0  0  0  0  0
   -2.2838   -2.8597    2.6667 C   0  0  0  0  0  0  0  0  0  0  0  0
   -3.1163   -3.7450    1.9898 C   0  0  0  0  0  0  0  0  0  0  0  0
   -3.4219   -3.5146    0.6504 C   0  0  0  0  0  0  0  0  0  0  0  0
   -2.9146   -2.3856   -0.0037 C   0  0  0  0  0  0  0  0  0  0  0  0
   -2.1189   -1.4530    0.6770 C   0  0  0  0  0  0  0  0  0  0  0  0
    2.5531   -0.4395   -0.2563 C   0  0  0  0  0  0  0  0  0  0  0  0
    3.8990   -0.7329   -0.0248 C   0  0  0  0  0  0  0  0  0  0  0  0
    7.1453   -0.4472    3.1618 H   0  0  0  0  0  0  0  0  0  0  0  0
    7.7658    1.2172    3.2595 H   0  0  0  0  0  0  0  0  0  0  0  0
    6.0188    0.8988    3.2541 H   0  0  0  0  0  0  0  0  0  0  0  0
    6.8604    1.6967    0.9565 H   0  0  0  0  0  0  0  0  0  0  0  0
    7.9633    0.3410    0.9583 H   0  0  0  0  0  0  0  0  0  0  0  0
    4.8180    2.1814    1.4729 H   0  0  0  0  0  0  0  0  0  0  0  0
    2.4800    2.6951    1.0677 H   0  0  0  0  0  0  0  0  0  0  0  0
    0.3557    2.1853    0.1509 H   0  0  0  0  0  0  0  0  0  0  0  0
    0.9558    1.6635   -2.0961 H   0  0  0  0  0  0  0  0  0  0  0  0
   -0.4289    1.7148   -4.0003 H   0  0  0  0  0  0  0  0  0  0  0  0
   -2.7234    1.7226   -4.8333 H   0  0  0  0  0  0  0  0  0  0  0  0
   -5.1105    1.4498   -4.4717 H   0  0  0  0  0  0  0  0  0  0  0  0
   -7.0112    0.8990   -3.0139 H   0  0  0  0  0  0  0  0  0  0  0  0
   -6.6093    0.1895   -0.6705 H   0  0  0  0  0  0  0  0  0  0  0  0
   -4.3398    0.0025    0.1891 H   0  0  0  0  0  0  0  0  0  0  0  0
   -2.0088   -3.0457    3.7010 H   0  0  0  0  0  0  0  0  0  0  0  0
   -3.5066   -4.6239    2.4964 H   0  0  0  0  0  0  0  0  0  0  0  0
   -4.0476   -4.2183    0.1061 H   0  0  0  0  0  0  0  0  0  0  0  0
   -3.1443   -2.2570   -1.0594 H   0  0  0  0  0  0  0  0  0  0  0  0
    1.9245   -1.1806   -0.7469 H   0  0  0  0  0  0  0  0  0  0  0  0
    4.2970   -1.6982   -0.3277 H   0  0  0  0  0  0  0  0  0  0  0  0
  1  2  1  0
  2  3  1  0
  3  4  1  0
  4  5  2  0
  5  6  1  0
  6  7  2  0
  7  8  1  0
  8  9  1  0
  9 10  1  0
 10 11  2  0
 11 12  1  0
 12 13  2  0
 13 14  1  0
 14 15  2  0
 15 16  1  0
 16 17  2  0
 17 18  1  0
 18 19  2  0
 19 20  1  0
 20 21  2  0
 21 22  1  0
 22 23  2  0
 22 24  1  0
 24 25  1  0
 25 26  2  0
 26 27  1  0
 27 28  2  0
 28 29  1  0
 29 30  2  0
  7 31  1  0
 31 32  2  0
 32  4  1  0
 21  8  1  0
 30 25  1  0
 19 10  1  0
 30 20  1  0
 18 13  1  0
  1 33  1  0
  1 34  1  0
  1 35  1  0
  2 36  1  0
  2 37  1  0
  5 38  1  0
  6 39  1  0
  8 40  1  0
  9 41  1  0
 11 42  1  0
 12 43  1  0
 14 44  1  0
 15 45  1  0
 16 46  1  0
 17 47  1  0
 26 48  1  0
 27 49  1  0
 28 50  1  0
 29 51  1  0
 31 52  1  0
 32 53  1  0
M  END
$$$$
