
     RDKit          3D

 36 37  0  0  0  0  0  0  0  0999 V2000
   -4.6141    0.9724    1.9692 C   0  0  0  0  0  0  0  0  0  0  0  0
   -3.9371    0.9010    0.6875 N   0  0  0  0  0  0  0  0  0  0  0  0
   -4.6944    1.0274   -0.4685 C   0  0  0  0  0  0  0  0  0  0  0  0
   -5.9127    1.1919   -0.4703 O   0  0  0  0  0  0  0  0  0  0  0  0
   -3.9574    0.9424   -1.7486 C   0  0  0  0  0  0  0  0  0  0  0  0
   -4.6480    1.0933   -2.9786 C   0  0  0  0  0  0  0  0  0  0  0  0
   -5.1534    1.2071   -4.0173 N   0  0  0  0  0  0  0  0  0  0  0  0
   -2.6410    0.7143   -1.7116 C   0  0  0  0  0  0  0  0  0  0  0  0
   -1.9498    0.5590   -0.5299 N   0  0  0  0  0  0  0  0  0  0  0  0
   -0.5031    0.2867   -0.5740 C   0  0  0  0  0  0  0  0  0  0  0  0
   -0.1686   -1.1842   -0.2618 C   0  0  0  0  0  0  0  0  0  0  0  0
    1.0686   -1.6270   -0.9130 N   0  0  0  0  0  0  0  0  0  0  0  0
    2.2734   -1.2005   -0.3231 C   0  0  0  0  0  0  0  0  0  0  0  0
    2.2407   -0.2199    0.6060 N   0  0  0  0  0  0  0  0  0  0  0  0
    3.4110    0.2168    1.1319 C   0  0  0  0  0  0  0  0  0  0  0  0
    4.6551   -0.2742    0.7720 C   0  0  0  0  0  0  0  0  0  0  0  0
    5.8966    0.2884    1.3893 C   0  0  0  0  0  0  0  0  0  0  0  0
    5.7244    0.6583    2.6886 F   0  0  0  0  0  0  0  0  0  0  0  0
    6.3394    1.3982    0.7375 F   0  0  0  0  0  0  0  0  0  0  0  0
    6.9374   -0.5904    1.3864 F   0  0  0  0  0  0  0  0  0  0  0  0
    4.6910   -1.2701   -0.2058 C   0  0  0  0  0  0  0  0  0  0  0  0
    3.4973   -1.7356   -0.7586 C   0  0  0  0  0  0  0  0  0  0  0  0
    3.5719   -2.9815   -1.9531 Cl  0  0  0  0  0  0  0  0  0  0  0  0
   -2.5727    0.6183    0.7150 C   0  0  0  0  0  0  0  0  0  0  0  0
   -1.9600    0.4172    1.7631 O   0  0  0  0  0  0  0  0  0  0  0  0
   -4.6660   -0.0378    2.3912 H   0  0  0  0  0  0  0  0  0  0  0  0
   -5.6271    1.3748    1.8807 H   0  0  0  0  0  0  0  0  0  0  0  0
   -4.0399    1.6057    2.6541 H   0  0  0  0  0  0  0  0  0  0  0  0
   -2.0599    0.6392   -2.6294 H   0  0  0  0  0  0  0  0  0  0  0  0
   -0.1136    0.5730   -1.5590 H   0  0  0  0  0  0  0  0  0  0  0  0
   -0.0204    0.9458    0.1571 H   0  0  0  0  0  0  0  0  0  0  0  0
   -0.1460   -1.3734    0.8186 H   0  0  0  0  0  0  0  0  0  0  0  0
   -0.9720   -1.8172   -0.6593 H   0  0  0  0  0  0  0  0  0  0  0  0
    1.1038   -2.6405   -1.0115 H   0  0  0  0  0  0  0  0  0  0  0  0
    3.3039    1.0032    1.8776 H   0  0  0  0  0  0  0  0  0  0  0  0
    5.6428   -1.6822   -0.5354 H   0  0  0  0  0  0  0  0  0  0  0  0
  1  2  1  0
  2  3  1  0
  3  4  2  0
  3  5  1  0
  5  6  1  0
  6  7  3  0
  5  8  2  0
  8  9  1  0
  9 10  1  0
 10 11  1  0
 11 12  1  0
 12 13  1  0
 13 14  2  0
 14 15  1  0
 15 16  2  0
 16 17  1  0
 17 18  1  0
 17 19  1  0
 17 20  1  0
 16 21  1  0
 21 22  2  0
 22 23  1  0
  9 24  1  0
 24 25  2  0
 24  2  1  0
 22 13  1  0
  1 26  1  0
  1 27  1  0
  1 28  1  0
  8 29  1  0
 10 30  1  0
 10 31  1  0
 11 32  1  0
 11 33  1  0
 12 34  1  0
 15 35  1  0
 21 36  1  0
M  END
$$$$
