
     RDKit          3D

 53 55  0  0  0  0  0  0  0  0999 V2000
   -2.0153    1.3862    0.9887 O   0  0  0  0  0  0  0  0  0  0  0  0
   -1.5566    0.2539    0.8933 C   0  0  0  0  0  0  0  0  0  0  0  0
   -2.3360   -0.8584    0.6747 N   0  0  0  0  0  0  0  0  0  0  0  0
   -3.8045   -0.7739    0.6651 C   0  0  0  0  0  0  0  0  0  0  0  0
   -4.3220   -0.1792   -0.6540 C   0  0  0  0  0  0  0  0  0  0  0  0
   -5.5925    0.6191   -0.4735 C   0  0  0  0  0  0  0  0  0  0  0  0
   -5.5280    1.9404   -0.0082 C   0  0  0  0  0  0  0  0  0  0  0  0
   -6.6942    2.6839    0.1750 C   0  0  0  0  0  0  0  0  0  0  0  0
   -7.9351    2.1136   -0.1014 C   0  0  0  0  0  0  0  0  0  0  0  0
   -8.0103    0.7993   -0.5591 C   0  0  0  0  0  0  0  0  0  0  0  0
   -6.8447    0.0539   -0.7441 C   0  0  0  0  0  0  0  0  0  0  0  0
   -4.3857   -2.1791    0.8731 C   0  0  0  0  0  0  0  0  0  0  0  0
   -5.5617   -2.5038    0.8735 O   0  0  0  0  0  0  0  0  0  0  0  0
   -3.4373   -3.1274    1.0856 O   0  0  0  0  0  0  0  0  0  0  0  0
   -0.0942    0.0202    1.0473 C   0  0  0  0  0  0  0  0  0  0  0  0
    0.6500    0.9423    1.7987 C   0  0  0  0  0  0  0  0  0  0  0  0
    2.0248    0.7670    1.9716 C   0  0  0  0  0  0  0  0  0  0  0  0
    2.6542   -0.3275    1.3748 C   0  0  0  0  0  0  0  0  0  0  0  0
    4.4014   -0.5784    1.5801 S   0  0  0  0  0  6  0  0  0  0  0  0
    4.9365    0.5147    2.3641 O   0  0  0  0  0  0  0  0  0  0  0  0
    4.5809   -1.9556    1.9869 O   0  0  0  0  0  0  0  0  0  0  0  0
    4.9963   -0.4030   -0.0193 N   0  0  0  0  0  0  0  0  0  0  0  0
    4.8533    0.9697   -0.5862 C   0  0  0  0  0  0  0  0  0  0  0  0
    5.1811    0.9389   -2.0768 C   0  0  0  0  0  0  0  0  0  0  0  0
    6.5837    0.3914   -2.3228 C   0  0  0  0  0  0  0  0  0  0  0  0
    6.7582   -0.9656   -1.6484 C   0  0  0  0  0  0  0  0  0  0  0  0
    6.3945   -0.9016   -0.1672 C   0  0  0  0  0  0  0  0  0  0  0  0
    1.9256   -1.2495    0.6158 C   0  0  0  0  0  0  0  0  0  0  0  0
    0.5501   -1.0720    0.4478 C   0  0  0  0  0  0  0  0  0  0  0  0
   -1.9571   -1.7821    0.8602 H   0  0  0  0  0  0  0  0  0  0  0  0
   -4.0905   -0.1716    1.5358 H   0  0  0  0  0  0  0  0  0  0  0  0
   -4.4850   -0.9687   -1.3998 H   0  0  0  0  0  0  0  0  0  0  0  0
   -3.5753    0.4875   -1.1055 H   0  0  0  0  0  0  0  0  0  0  0  0
   -4.5641    2.3960    0.2168 H   0  0  0  0  0  0  0  0  0  0  0  0
   -6.6327    3.7072    0.5355 H   0  0  0  0  0  0  0  0  0  0  0  0
   -8.8436    2.6920    0.0428 H   0  0  0  0  0  0  0  0  0  0  0  0
   -8.9781    0.3514   -0.7684 H   0  0  0  0  0  0  0  0  0  0  0  0
   -6.9241   -0.9739   -1.0917 H   0  0  0  0  0  0  0  0  0  0  0  0
   -3.9662   -3.9437    1.2232 H   0  0  0  0  0  0  0  0  0  0  0  0
    0.1552    1.7975    2.2569 H   0  0  0  0  0  0  0  0  0  0  0  0
    2.5889    1.4825    2.5663 H   0  0  0  0  0  0  0  0  0  0  0  0
    5.5208    1.6661   -0.0657 H   0  0  0  0  0  0  0  0  0  0  0  0
    3.8258    1.3265   -0.4704 H   0  0  0  0  0  0  0  0  0  0  0  0
    4.4497    0.3104   -2.6002 H   0  0  0  0  0  0  0  0  0  0  0  0
    5.0992    1.9480   -2.4957 H   0  0  0  0  0  0  0  0  0  0  0  0
    6.7654    0.2994   -3.3992 H   0  0  0  0  0  0  0  0  0  0  0  0
    7.3269    1.0954   -1.9290 H   0  0  0  0  0  0  0  0  0  0  0  0
    6.1190   -1.7029   -2.1503 H   0  0  0  0  0  0  0  0  0  0  0  0
    7.7937   -1.3051   -1.7621 H   0  0  0  0  0  0  0  0  0  0  0  0
    7.0882   -0.2445    0.3704 H   0  0  0  0  0  0  0  0  0  0  0  0
    6.4815   -1.9106    0.2491 H   0  0  0  0  0  0  0  0  0  0  0  0
    2.4274   -2.0975    0.1531 H   0  0  0  0  0  0  0  0  0  0  0  0
    0.0026   -1.7791   -0.1694 H   0  0  0  0  0  0  0  0  0  0  0  0
  1  2  2  0
  2  3  1  0
  3  4  1  0
  4  5  1  0
  5  6  1  0
  6  7  2  0
  7  8  1  0
  8  9  2  0
  9 10  1  0
 10 11  2  0
  4 12  1  0
 12 13  2  0
 12 14  1  0
  2 15  1  0
 15 16  2  0
 16 17  1  0
 17 18  2  0
 18 19  1  0
 19 20  2  0
 19 21  2  0
 19 22  1  0
 22 23  1  0
 23 24  1  0
 24 25  1  0
 25 26  1  0
 26 27  1  0
 18 28  1  0
 28 29  2  0
 11  6  1  0
 29 15  1  0
 27 22  1  0
  3 30  1  0
  4 31  1  0
  5 32  1  0
  5 33  1  0
  7 34  1  0
  8 35  1  0
  9 36  1  0
 10 37  1  0
 11 38  1  0
 14 39  1  0
 16 40  1  0
 17 41  1  0
 23 42  1  0
 23 43  1  0
 24 44  1  0
 24 45  1  0
 25 46  1  0
 25 47  1  0
 26 48  1  0
 26 49  1  0
 27 50  1  0
 27 51  1  0
 28 52  1  0
 29 53  1  0
M  END
$$$$
