
     RDKit          3D

 32 33  0  0  0  0  0  0  0  0999 V2000
   -3.6939    0.0217    2.4532 C   0  0  0  0  0  0  0  0  0  0  0  0
   -4.2363    0.6991    1.3256 O   0  0  0  0  0  0  0  0  0  0  0  0
   -3.5164    0.6304    0.1603 C   0  0  0  0  0  0  0  0  0  0  0  0
   -2.2666    0.0297   -0.0039 C   0  0  0  0  0  0  0  0  0  0  0  0
   -1.6374    0.0349   -1.2613 C   0  0  0  0  0  0  0  0  0  0  0  0
   -0.3327   -0.6024   -1.4702 C   0  0  0  0  0  0  0  0  0  0  0  0
    0.7335   -0.3495   -0.6949 C   0  0  0  0  0  0  0  0  0  0  0  0
    2.0433   -1.0183   -0.9716 C   0  0  0  0  0  0  0  0  0  0  0  0
    2.1138   -1.8642   -1.8611 O   0  0  0  0  0  0  0  0  0  0  0  0
    3.1820   -0.6295   -0.1551 C   0  0  0  0  0  0  0  0  0  0  0  0
    3.3687    0.3185    0.8428 C   0  0  0  0  0  0  0  0  0  0  0  0
    4.7214    0.2269    1.2656 C   0  0  0  0  0  0  0  0  0  0  0  0
    5.2740   -0.7691    0.4995 C   0  0  0  0  0  0  0  0  0  0  0  0
    6.5936   -1.3173    0.4626 N   0  0  0  0  0  4  0  0  0  0  0  0
    7.4096   -0.8222    1.2527 O   0  0  0  0  0  0  0  0  0  0  0  0
    6.8231   -2.2310   -0.3382 O   0  0  0  0  0  1  0  0  0  0  0  0
    4.3677   -1.2973   -0.3612 O   0  0  0  0  0  0  0  0  0  0  0  0
   -2.2816    0.6262   -2.3563 C   0  0  0  0  0  0  0  0  0  0  0  0
   -3.5267    1.2327   -2.1975 C   0  0  0  0  0  0  0  0  0  0  0  0
   -4.1269    1.2318   -0.9458 C   0  0  0  0  0  0  0  0  0  0  0  0
   -5.3491    1.8333   -0.8161 O   0  0  0  0  0  0  0  0  0  0  0  0
   -4.3969    0.1394    3.2834 H   0  0  0  0  0  0  0  0  0  0  0  0
   -2.7410    0.4667    2.7581 H   0  0  0  0  0  0  0  0  0  0  0  0
   -3.5862   -1.0502    2.2569 H   0  0  0  0  0  0  0  0  0  0  0  0
   -1.7696   -0.4591    0.8269 H   0  0  0  0  0  0  0  0  0  0  0  0
   -0.2625   -1.2797   -2.3204 H   0  0  0  0  0  0  0  0  0  0  0  0
    0.6762    0.3460    0.1311 H   0  0  0  0  0  0  0  0  0  0  0  0
    2.6265    1.0058    1.2259 H   0  0  0  0  0  0  0  0  0  0  0  0
    5.2258    0.8102    2.0245 H   0  0  0  0  0  0  0  0  0  0  0  0
   -1.8157    0.6265   -3.3397 H   0  0  0  0  0  0  0  0  0  0  0  0
   -4.0262    1.6991   -3.0414 H   0  0  0  0  0  0  0  0  0  0  0  0
   -5.5936    1.7108    0.1217 H   0  0  0  0  0  0  0  0  0  0  0  0
  1  2  1  0
  2  3  1  0
  3  4  2  0
  4  5  1  0
  5  6  1  0
  6  7  2  3
  7  8  1  0
  8  9  2  0
  8 10  1  0
 10 11  2  0
 11 12  1  0
 12 13  2  0
 13 14  1  0
 14 15  2  0
 14 16  1  0
 13 17  1  0
  5 18  2  0
 18 19  1  0
 19 20  2  0
 20 21  1  0
 20  3  1  0
 17 10  1  0
  1 22  1  0
  1 23  1  0
  1 24  1  0
  4 25  1  0
  6 26  1  0
  7 27  1  0
 11 28  1  0
 12 29  1  0
 18 30  1  0
 19 31  1  0
 21 32  1  0
M  CHG  2  14   1  16  -1
M  END
$$$$
