
     RDKit          3D

 50 53  0  0  0  0  0  0  0  0999 V2000
    7.5906    0.5144   -0.5071 C   0  0  0  0  0  0  0  0  0  0  0  0
    6.7657    1.6359   -0.2186 O   0  0  0  0  0  0  0  0  0  0  0  0
    5.4459    1.3861    0.0331 C   0  0  0  0  0  0  0  0  0  0  0  0
    4.8304    0.1360    0.0340 C   0  0  0  0  0  0  0  0  0  0  0  0
    3.4581    0.0144    0.3084 C   0  0  0  0  0  0  0  0  0  0  0  0
    2.6808    1.1449    0.5785 C   0  0  0  0  0  0  0  0  0  0  0  0
    1.2803    1.0790    0.8629 N   0  0  0  0  0  0  0  0  0  0  0  0
    0.6582    2.1909    1.3573 N   0  0  0  0  0  0  0  0  0  0  0  0
   -0.5868    1.8141    1.6322 C   0  0  0  0  0  0  0  0  0  0  0  0
   -0.8380    0.4944    1.2459 C   0  0  0  0  0  0  0  0  0  0  0  0
    0.3627    0.0421    0.7267 C   0  0  0  0  0  0  0  0  0  0  0  0
    0.5713   -1.3165    0.1432 C   0  0  0  0  0  0  0  0  0  0  0  0
   -0.7838   -2.0206   -0.1783 C   0  0  0  0  0  0  0  0  0  0  0  0
   -0.5340   -3.5382   -0.2973 C   0  0  0  0  0  0  0  0  0  0  0  0
   -1.3229   -1.5313   -1.5377 C   0  0  0  0  0  0  0  0  0  0  0  0
   -1.8203   -1.7833    0.9660 C   0  0  0  0  0  0  0  0  0  0  0  0
   -2.0960   -0.2987    1.3086 C   0  0  0  0  0  0  0  0  0  0  0  0
   -3.0437    0.3118    0.4007 N   0  0  0  0  0  0  0  0  0  0  0  0
   -4.3920    0.0573    0.4851 C   0  0  0  0  0  0  0  0  0  0  0  0
   -4.8793   -0.6574    1.3543 O   0  0  0  0  0  0  0  0  0  0  0  0
   -5.2076    0.6889   -0.5371 C   0  0  0  0  0  0  0  0  0  0  0  0
   -6.6073    0.5547   -0.6968 C   0  0  0  0  0  0  0  0  0  0  0  0
   -7.0835    1.2551   -1.7294 N   0  0  0  0  0  0  0  0  0  0  0  0
   -5.9941    1.8498   -2.2355 N   0  0  0  0  0  0  0  0  0  0  0  0
   -4.8449    1.5433   -1.5625 C   0  0  0  0  0  0  0  0  0  0  0  0
    3.3140    2.3991    0.5940 C   0  0  0  0  0  0  0  0  0  0  0  0
    4.6802    2.5147    0.3182 C   0  0  0  0  0  0  0  0  0  0  0  0
    7.6305   -0.1751    0.3426 H   0  0  0  0  0  0  0  0  0  0  0  0
    7.2579    0.0030   -1.4165 H   0  0  0  0  0  0  0  0  0  0  0  0
    8.6056    0.8827   -0.6848 H   0  0  0  0  0  0  0  0  0  0  0  0
    5.3900   -0.7724   -0.1650 H   0  0  0  0  0  0  0  0  0  0  0  0
    3.0579   -0.9898    0.3350 H   0  0  0  0  0  0  0  0  0  0  0  0
   -1.2657    2.5298    2.0792 H   0  0  0  0  0  0  0  0  0  0  0  0
    1.1199   -1.9182    0.8789 H   0  0  0  0  0  0  0  0  0  0  0  0
    1.1703   -1.2612   -0.7726 H   0  0  0  0  0  0  0  0  0  0  0  0
    0.2087   -3.7577   -1.0728 H   0  0  0  0  0  0  0  0  0  0  0  0
   -1.4560   -4.0712   -0.5555 H   0  0  0  0  0  0  0  0  0  0  0  0
   -0.1619   -3.9551    0.6453 H   0  0  0  0  0  0  0  0  0  0  0  0
   -2.3229   -1.9340   -1.7332 H   0  0  0  0  0  0  0  0  0  0  0  0
   -0.6709   -1.8570   -2.3568 H   0  0  0  0  0  0  0  0  0  0  0  0
   -1.3781   -0.4411   -1.5976 H   0  0  0  0  0  0  0  0  0  0  0  0
   -2.7586   -2.3034    0.7352 H   0  0  0  0  0  0  0  0  0  0  0  0
   -1.4254   -2.2601    1.8752 H   0  0  0  0  0  0  0  0  0  0  0  0
   -2.5190   -0.2466    2.3196 H   0  0  0  0  0  0  0  0  0  0  0  0
   -2.6887    0.8553   -0.3712 H   0  0  0  0  0  0  0  0  0  0  0  0
   -7.2914   -0.0313   -0.0944 H   0  0  0  0  0  0  0  0  0  0  0  0
   -6.1090    2.4542   -3.0432 H   0  0  0  0  0  0  0  0  0  0  0  0
   -3.9000    1.9634   -1.8737 H   0  0  0  0  0  0  0  0  0  0  0  0
    2.7552    3.3081    0.8115 H   0  0  0  0  0  0  0  0  0  0  0  0
    5.1478    3.4965    0.3291 H   0  0  0  0  0  0  0  0  0  0  0  0
  1  2  1  0
  2  3  1  0
  3  4  2  0
  4  5  1  0
  5  6  2  0
  6  7  1  0
  7  8  1  0
  8  9  2  0
  9 10  1  0
 10 11  2  0
 11 12  1  0
 12 13  1  0
 13 14  1  0
 13 15  1  0
 13 16  1  0
 16 17  1  0
 17 18  1  0
 18 19  1  0
 19 20  2  0
 19 21  1  0
 21 22  1  0
 22 23  2  0
 23 24  1  0
 24 25  1  0
  6 26  1  0
 26 27  2  0
 27  3  1  0
 11  7  1  0
 25 21  2  0
 17 10  1  0
  1 28  1  0
  1 29  1  0
  1 30  1  0
  4 31  1  0
  5 32  1  0
  9 33  1  0
 12 34  1  0
 12 35  1  0
 14 36  1  0
 14 37  1  0
 14 38  1  0
 15 39  1  0
 15 40  1  0
 15 41  1  0
 16 42  1  0
 16 43  1  0
 17 44  1  0
 18 45  1  0
 22 46  1  0
 24 47  1  0
 25 48  1  0
 26 49  1  0
 27 50  1  0
M  END
$$$$
