
     RDKit          3D

 52 55  0  0  0  0  0  0  0  0999 V2000
    0.1135   -0.4120    1.7235 O   0  0  0  0  0  0  0  0  0  0  0  0
   -0.3894   -0.7169    0.6418 C   0  0  0  0  0  0  0  0  0  0  0  0
   -1.3187   -1.7428    0.5390 N   0  0  0  0  0  0  0  0  0  0  0  0
   -1.7430   -2.4962    1.6984 C   0  0  0  0  0  0  0  0  0  0  0  0
   -2.4281   -3.8059    1.3259 C   0  0  0  0  0  0  0  0  0  0  0  0
   -3.1759   -4.1651    2.5985 C   0  0  0  0  0  0  0  0  0  0  0  0
   -3.7215   -2.8321    3.0965 C   0  0  0  0  0  0  0  0  0  0  0  0
   -2.7875   -1.7555    2.5396 C   0  0  0  0  0  0  0  0  0  0  0  0
   -0.1430    0.0828   -0.6741 C   0  0  0  0  0  0  0  0  0  0  0  0
   -0.0432   -0.7396   -1.9609 C   0  0  0  0  0  0  0  0  0  0  0  0
    0.5391   -2.0123   -2.0048 C   0  0  0  0  0  0  0  0  0  0  0  0
    0.5939   -2.6874   -3.2144 C   0  0  0  0  0  0  0  0  0  0  0  0
    0.1117   -2.1922   -4.3728 N   0  0  0  0  0  0  0  0  0  0  0  0
   -0.4215   -0.9551   -4.3251 C   0  0  0  0  0  0  0  0  0  0  0  0
   -0.5181   -0.2010   -3.1651 C   0  0  0  0  0  0  0  0  0  0  0  0
    0.9554    1.0636   -0.5412 N   0  0  0  0  0  0  0  0  0  0  0  0
    2.2658    0.5561   -0.4132 C   0  0  0  0  0  0  0  0  0  0  0  0
    2.4785   -0.6414   -0.2108 O   0  0  0  0  0  0  0  0  0  0  0  0
    3.3835    1.4718   -0.6132 C   0  0  0  0  0  0  0  0  0  0  0  0
    4.7222    1.3286   -0.2905 C   0  0  0  0  0  0  0  0  0  0  0  0
    5.3836    2.4938   -0.7447 C   0  0  0  0  0  0  0  0  0  0  0  0
    4.4180    3.2721   -1.3359 C   0  0  0  0  0  0  0  0  0  0  0  0
    3.2089    2.6600   -1.2748 O   0  0  0  0  0  0  0  0  0  0  0  0
    0.5882    2.3646   -0.0626 C   0  0  0  0  0  0  0  0  0  0  0  0
    1.1820    2.9110    1.0838 C   0  0  0  0  0  0  0  0  0  0  0  0
    0.7983    4.1694    1.5548 C   0  0  0  0  0  0  0  0  0  0  0  0
   -0.1845    4.8957    0.8875 C   0  0  0  0  0  0  0  0  0  0  0  0
   -0.7867    4.3633   -0.2495 C   0  0  0  0  0  0  0  0  0  0  0  0
   -0.4056    3.1034   -0.7195 C   0  0  0  0  0  0  0  0  0  0  0  0
   -1.8247   -1.8626   -0.3304 H   0  0  0  0  0  0  0  0  0  0  0  0
   -0.8630   -2.7062    2.3204 H   0  0  0  0  0  0  0  0  0  0  0  0
   -1.7127   -4.5794    1.0297 H   0  0  0  0  0  0  0  0  0  0  0  0
   -3.1335   -3.6644    0.4974 H   0  0  0  0  0  0  0  0  0  0  0  0
   -2.4815   -4.5836    3.3370 H   0  0  0  0  0  0  0  0  0  0  0  0
   -3.9681   -4.8991    2.4254 H   0  0  0  0  0  0  0  0  0  0  0  0
   -4.7370   -2.6723    2.7154 H   0  0  0  0  0  0  0  0  0  0  0  0
   -3.7731   -2.8031    4.1896 H   0  0  0  0  0  0  0  0  0  0  0  0
   -3.3623   -1.0415    1.9371 H   0  0  0  0  0  0  0  0  0  0  0  0
   -2.3101   -1.1848    3.3438 H   0  0  0  0  0  0  0  0  0  0  0  0
   -1.0876    0.6370   -0.7746 H   0  0  0  0  0  0  0  0  0  0  0  0
    0.9639   -2.4774   -1.1187 H   0  0  0  0  0  0  0  0  0  0  0  0
    1.0454   -3.6732   -3.2825 H   0  0  0  0  0  0  0  0  0  0  0  0
   -0.7801   -0.5696   -5.2753 H   0  0  0  0  0  0  0  0  0  0  0  0
   -0.9545    0.7909   -3.2108 H   0  0  0  0  0  0  0  0  0  0  0  0
    5.1539    0.4748    0.2143 H   0  0  0  0  0  0  0  0  0  0  0  0
    6.4343    2.7328   -0.6601 H   0  0  0  0  0  0  0  0  0  0  0  0
    4.4279    4.2356   -1.8261 H   0  0  0  0  0  0  0  0  0  0  0  0
    1.9231    2.3527    1.6505 H   0  0  0  0  0  0  0  0  0  0  0  0
    1.2631    4.5754    2.4498 H   0  0  0  0  0  0  0  0  0  0  0  0
   -0.4809    5.8748    1.2548 H   0  0  0  0  0  0  0  0  0  0  0  0
   -1.5492    4.9318   -0.7752 H   0  0  0  0  0  0  0  0  0  0  0  0
   -0.8692    2.7308   -1.6273 H   0  0  0  0  0  0  0  0  0  0  0  0
  1  2  2  0
  2  3  1  0
  3  4  1  0
  4  5  1  0
  5  6  1  0
  6  7  1  0
  7  8  1  0
  2  9  1  0
  9 10  1  0
 10 11  2  0
 11 12  1  0
 12 13  2  0
 13 14  1  0
 14 15  2  0
  9 16  1  0
 16 17  1  0
 17 18  2  0
 17 19  1  0
 19 20  2  0
 20 21  1  0
 21 22  2  0
 22 23  1  0
 16 24  1  0
 24 25  2  0
 25 26  1  0
 26 27  2  0
 27 28  1  0
 28 29  2  0
  8  4  1  0
 15 10  1  0
 23 19  1  0
 29 24  1  0
  3 30  1  0
  4 31  1  0
  5 32  1  0
  5 33  1  0
  6 34  1  0
  6 35  1  0
  7 36  1  0
  7 37  1  0
  8 38  1  0
  8 39  1  0
  9 40  1  0
 11 41  1  0
 12 42  1  0
 14 43  1  0
 15 44  1  0
 20 45  1  0
 21 46  1  0
 22 47  1  0
 25 48  1  0
 26 49  1  0
 27 50  1  0
 28 51  1  0
 29 52  1  0
M  END
$$$$
