
     RDKit          3D

 52 54  0  0  0  0  0  0  0  0999 V2000
    2.8889    3.4610   -2.3087 C   0  0  0  0  0  0  0  0  0  0  0  0
    2.8884    1.9722   -1.9641 C   0  0  0  0  0  0  0  0  0  0  0  0
    3.9374    1.6780   -0.8789 C   0  0  0  0  0  0  0  0  0  0  0  0
    4.1339    0.1805   -0.6204 C   0  0  0  0  0  0  0  0  0  0  0  0
    5.2477   -0.0637    0.3697 C   0  0  0  0  0  0  0  0  0  0  0  0
    6.5584   -0.2811   -0.0749 C   0  0  0  0  0  0  0  0  0  0  0  0
    7.5906   -0.4876    0.8416 C   0  0  0  0  0  0  0  0  0  0  0  0
    7.3231   -0.4749    2.2093 C   0  0  0  0  0  0  0  0  0  0  0  0
    6.0236   -0.2547    2.6621 C   0  0  0  0  0  0  0  0  0  0  0  0
    4.9901   -0.0480    1.7471 C   0  0  0  0  0  0  0  0  0  0  0  0
    1.5498    1.5854   -1.5331 N   0  0  0  0  0  0  0  0  0  0  0  0
    0.9881    0.3739   -1.8811 C   0  0  0  0  0  0  0  0  0  0  0  0
    1.5424   -0.4491   -2.6006 O   0  0  0  0  0  0  0  0  0  0  0  0
   -0.3455    0.0694   -1.2929 C   0  0  0  0  0  0  0  0  0  0  0  0
   -1.2528    1.0724   -0.9386 C   0  0  0  0  0  0  0  0  0  0  0  0
   -2.4958    0.7364   -0.3853 C   0  0  0  0  0  0  0  0  0  0  0  0
   -2.8516   -0.6000   -0.1911 C   0  0  0  0  0  0  0  0  0  0  0  0
   -4.0795   -1.0173    0.3639 N   0  0  0  0  0  0  0  0  0  0  0  0
   -5.1418   -0.2177    0.7461 C   0  0  0  0  0  0  0  0  0  0  0  0
   -5.2320    0.9971    0.6183 O   0  0  0  0  0  0  0  0  0  0  0  0
   -6.2963   -0.9487    1.3396 C   0  0  0  0  0  0  0  0  0  0  0  0
   -7.5905   -0.4843    1.0688 C   0  0  0  0  0  0  0  0  0  0  0  0
   -8.6990   -1.1399    1.6069 C   0  0  0  0  0  0  0  0  0  0  0  0
   -8.5181   -2.2547    2.4255 C   0  0  0  0  0  0  0  0  0  0  0  0
   -7.2283   -2.7030    2.7099 C   0  0  0  0  0  0  0  0  0  0  0  0
   -6.9870   -4.2014    3.8381 Br  0  0  0  0  0  0  0  0  0  0  0  0
   -6.1132   -2.0560    2.1770 C   0  0  0  0  0  0  0  0  0  0  0  0
   -1.9447   -1.6011   -0.5613 C   0  0  0  0  0  0  0  0  0  0  0  0
   -0.7026   -1.2704   -1.1127 C   0  0  0  0  0  0  0  0  0  0  0  0
    2.1505    3.6779   -3.0884 H   0  0  0  0  0  0  0  0  0  0  0  0
    2.6354    4.0722   -1.4352 H   0  0  0  0  0  0  0  0  0  0  0  0
    3.8705    3.7786   -2.6753 H   0  0  0  0  0  0  0  0  0  0  0  0
    3.1445    1.4125   -2.8717 H   0  0  0  0  0  0  0  0  0  0  0  0
    3.6537    2.1779    0.0570 H   0  0  0  0  0  0  0  0  0  0  0  0
    4.8973    2.1145   -1.1858 H   0  0  0  0  0  0  0  0  0  0  0  0
    3.2138   -0.2714   -0.2319 H   0  0  0  0  0  0  0  0  0  0  0  0
    4.3598   -0.3406   -1.5591 H   0  0  0  0  0  0  0  0  0  0  0  0
    6.7818   -0.2922   -1.1393 H   0  0  0  0  0  0  0  0  0  0  0  0
    8.6037   -0.6588    0.4875 H   0  0  0  0  0  0  0  0  0  0  0  0
    8.1273   -0.6366    2.9220 H   0  0  0  0  0  0  0  0  0  0  0  0
    5.8145   -0.2441    3.7284 H   0  0  0  0  0  0  0  0  0  0  0  0
    3.9810    0.1240    2.1140 H   0  0  0  0  0  0  0  0  0  0  0  0
    1.1307    2.1201   -0.7843 H   0  0  0  0  0  0  0  0  0  0  0  0
   -1.0295    2.1218   -1.1084 H   0  0  0  0  0  0  0  0  0  0  0  0
   -3.1683    1.5480   -0.1239 H   0  0  0  0  0  0  0  0  0  0  0  0
   -4.2108   -2.0187    0.4252 H   0  0  0  0  0  0  0  0  0  0  0  0
   -7.7353    0.3901    0.4362 H   0  0  0  0  0  0  0  0  0  0  0  0
   -9.7016   -0.7781    1.3911 H   0  0  0  0  0  0  0  0  0  0  0  0
   -9.3862   -2.7587    2.8436 H   0  0  0  0  0  0  0  0  0  0  0  0
   -5.1161   -2.3966    2.4405 H   0  0  0  0  0  0  0  0  0  0  0  0
   -2.1880   -2.6527   -0.4320 H   0  0  0  0  0  0  0  0  0  0  0  0
   -0.0126   -2.0620   -1.3998 H   0  0  0  0  0  0  0  0  0  0  0  0
  1  2  1  0
  2  3  1  0
  3  4  1  0
  4  5  1  0
  5  6  2  0
  6  7  1  0
  7  8  2  0
  8  9  1  0
  9 10  2  0
  2 11  1  0
 11 12  1  0
 12 13  2  0
 12 14  1  0
 14 15  2  0
 15 16  1  0
 16 17  2  0
 17 18  1  0
 18 19  1  0
 19 20  2  0
 19 21  1  0
 21 22  2  0
 22 23  1  0
 23 24  2  0
 24 25  1  0
 25 26  1  0
 25 27  2  0
 17 28  1  0
 28 29  2  0
 10  5  1  0
 29 14  1  0
 27 21  1  0
  1 30  1  0
  1 31  1  0
  1 32  1  0
  2 33  1  0
  3 34  1  0
  3 35  1  0
  4 36  1  0
  4 37  1  0
  6 38  1  0
  7 39  1  0
  8 40  1  0
  9 41  1  0
 10 42  1  0
 11 43  1  0
 15 44  1  0
 16 45  1  0
 18 46  1  0
 22 47  1  0
 23 48  1  0
 24 49  1  0
 27 50  1  0
 28 51  1  0
 29 52  1  0
M  END
$$$$
