
     RDKit          3D

 69 72  0  0  0  0  0  0  0  0999 V2000
   10.3465    1.2702    1.7873 C   0  0  0  0  0  0  0  0  0  0  0  0
    9.6955    0.4692    0.8117 O   0  0  0  0  0  0  0  0  0  0  0  0
    8.3258    0.3864    0.8688 C   0  0  0  0  0  0  0  0  0  0  0  0
    7.5228    1.1531    1.7204 C   0  0  0  0  0  0  0  0  0  0  0  0
    6.1328    1.0058    1.7093 C   0  0  0  0  0  0  0  0  0  0  0  0
    5.5261    0.0874    0.8490 C   0  0  0  0  0  0  0  0  0  0  0  0
    4.0266   -0.0738    0.8184 C   0  0  0  0  0  0  0  0  0  0  0  0
    3.3989    0.6720   -0.3616 C   0  0  0  0  0  0  0  0  0  0  0  0
    1.9728    0.4224   -0.4787 N   0  0  0  0  0  0  0  0  0  0  0  0
    1.5042   -0.7492   -1.0276 C   0  0  0  0  0  0  0  0  0  0  0  0
    2.2489   -1.6265   -1.4546 O   0  0  0  0  0  0  0  0  0  0  0  0
   -0.0104   -0.8994   -1.0929 C   0  0  0  0  0  0  0  0  0  0  0  0
   -0.6374   -0.9458    0.3022 C   0  0  0  0  0  0  0  0  0  0  0  0
   -2.1361   -0.6928    0.2276 C   0  0  0  0  0  0  0  0  0  0  0  0
   -2.4385    0.6408   -0.3476 N   0  0  0  0  0  0  0  0  0  0  0  0
   -3.2768    1.7446    0.6261 S   0  0  0  0  0  6  0  0  0  0  0  0
   -3.2347    3.0319   -0.0315 O   0  0  0  0  0  0  0  0  0  0  0  0
   -2.8168    1.5870    1.9859 O   0  0  0  0  0  0  0  0  0  0  0  0
   -4.8528    1.1638    0.4863 N   0  0  0  0  0  0  0  0  0  0  0  0
   -5.4307    1.1672   -0.8802 C   0  0  0  0  0  0  0  0  0  0  0  0
   -6.9493    1.1426   -0.7885 C   0  0  0  0  0  0  0  0  0  0  0  0
   -7.4271   -0.0469    0.0392 C   0  0  0  0  0  0  0  0  0  0  0  0
   -6.7540   -0.0641    1.4101 C   0  0  0  0  0  0  0  0  0  0  0  0
   -5.2384   -0.0282    1.2671 C   0  0  0  0  0  0  0  0  0  0  0  0
   -7.1189   -1.2768   -0.6479 O   0  0  0  0  0  0  0  0  0  0  0  0
   -8.3794   -1.7748   -1.0978 C   0  0  0  0  0  0  0  0  0  0  0  0
   -9.3454   -1.2590   -0.0689 C   0  0  0  0  0  0  0  0  0  0  0  0
   -8.8528    0.0511    0.2087 O   0  0  0  0  0  0  0  0  0  0  0  0
   -1.3709    1.2421   -1.1854 C   0  0  0  0  0  0  0  0  0  0  0  0
   -0.6492    0.1687   -1.9901 C   0  0  0  0  0  0  0  0  0  0  0  0
    6.3300   -0.6777   -0.0107 C   0  0  0  0  0  0  0  0  0  0  0  0
    7.7228   -0.5335   -0.0117 C   0  0  0  0  0  0  0  0  0  0  0  0
    8.5749   -1.2422   -0.8229 O   0  0  0  0  0  0  0  0  0  0  0  0
    7.9958   -2.1426   -1.7573 C   0  0  0  0  0  0  0  0  0  0  0  0
   10.1091    0.9329    2.8018 H   0  0  0  0  0  0  0  0  0  0  0  0
   10.1008    2.3295    1.6533 H   0  0  0  0  0  0  0  0  0  0  0  0
   11.4266    1.1587    1.6470 H   0  0  0  0  0  0  0  0  0  0  0  0
    7.9491    1.8793    2.4051 H   0  0  0  0  0  0  0  0  0  0  0  0
    5.5315    1.6139    2.3815 H   0  0  0  0  0  0  0  0  0  0  0  0
    3.7872   -1.1431    0.7779 H   0  0  0  0  0  0  0  0  0  0  0  0
    3.5886    0.2860    1.7580 H   0  0  0  0  0  0  0  0  0  0  0  0
    3.8743    0.3802   -1.3054 H   0  0  0  0  0  0  0  0  0  0  0  0
    3.5310    1.7537   -0.2458 H   0  0  0  0  0  0  0  0  0  0  0  0
    1.3463    1.0383    0.0200 H   0  0  0  0  0  0  0  0  0  0  0  0
   -0.1901   -1.8706   -1.5764 H   0  0  0  0  0  0  0  0  0  0  0  0
   -0.1799   -0.2127    0.9775 H   0  0  0  0  0  0  0  0  0  0  0  0
   -0.4484   -1.9281    0.7519 H   0  0  0  0  0  0  0  0  0  0  0  0
   -2.6199   -1.4487   -0.4021 H   0  0  0  0  0  0  0  0  0  0  0  0
   -2.5558   -0.8071    1.2309 H   0  0  0  0  0  0  0  0  0  0  0  0
   -5.1348    2.0705   -1.4229 H   0  0  0  0  0  0  0  0  0  0  0  0
   -5.0618    0.3022   -1.4434 H   0  0  0  0  0  0  0  0  0  0  0  0
   -7.3134    2.0759   -0.3405 H   0  0  0  0  0  0  0  0  0  0  0  0
   -7.3728    1.0968   -1.7993 H   0  0  0  0  0  0  0  0  0  0  0  0
   -7.0422   -0.9661    1.9625 H   0  0  0  0  0  0  0  0  0  0  0  0
   -7.1017    0.7904    2.0045 H   0  0  0  0  0  0  0  0  0  0  0  0
   -4.7989    0.0039    2.2675 H   0  0  0  0  0  0  0  0  0  0  0  0
   -4.8864   -0.9369    0.7701 H   0  0  0  0  0  0  0  0  0  0  0  0
   -8.3612   -2.8652   -1.1681 H   0  0  0  0  0  0  0  0  0  0  0  0
   -8.5789   -1.3495   -2.0874 H   0  0  0  0  0  0  0  0  0  0  0  0
  -10.3782   -1.2199   -0.4245 H   0  0  0  0  0  0  0  0  0  0  0  0
   -9.3023   -1.8441    0.8563 H   0  0  0  0  0  0  0  0  0  0  0  0
   -1.8230    1.9494   -1.8906 H   0  0  0  0  0  0  0  0  0  0  0  0
   -0.6649    1.7930   -0.5538 H   0  0  0  0  0  0  0  0  0  0  0  0
    0.0931    0.6333   -2.6493 H   0  0  0  0  0  0  0  0  0  0  0  0
   -1.3805   -0.3210   -2.6473 H   0  0  0  0  0  0  0  0  0  0  0  0
    5.8390   -1.3852   -0.6730 H   0  0  0  0  0  0  0  0  0  0  0  0
    8.8092   -2.5944   -2.3341 H   0  0  0  0  0  0  0  0  0  0  0  0
    7.4622   -2.9517   -1.2473 H   0  0  0  0  0  0  0  0  0  0  0  0
    7.3424   -1.6162   -2.4612 H   0  0  0  0  0  0  0  0  0  0  0  0
  1  2  1  0
  2  3  1  0
  3  4  2  0
  4  5  1  0
  5  6  2  0
  6  7  1  0
  7  8  1  0
  8  9  1  0
  9 10  1  0
 10 11  2  0
 10 12  1  0
 12 13  1  0
 13 14  1  0
 14 15  1  0
 15 16  1  0
 16 17  2  0
 16 18  2  0
 16 19  1  0
 19 20  1  0
 20 21  1  0
 21 22  1  0
 22 23  1  0
 23 24  1  0
 22 25  1  0
 25 26  1  0
 26 27  1  0
 27 28  1  0
 15 29  1  0
 29 30  1  0
  6 31  1  0
 31 32  2  0
 32 33  1  0
 33 34  1  0
 32  3  1  0
 30 12  1  0
 24 19  1  0
 28 22  1  0
  1 35  1  0
  1 36  1  0
  1 37  1  0
  4 38  1  0
  5 39  1  0
  7 40  1  0
  7 41  1  0
  8 42  1  0
  8 43  1  0
  9 44  1  0
 12 45  1  0
 13 46  1  0
 13 47  1  0
 14 48  1  0
 14 49  1  0
 20 50  1  0
 20 51  1  0
 21 52  1  0
 21 53  1  0
 23 54  1  0
 23 55  1  0
 24 56  1  0
 24 57  1  0
 26 58  1  0
 26 59  1  0
 27 60  1  0
 27 61  1  0
 29 62  1  0
 29 63  1  0
 30 64  1  0
 30 65  1  0
 31 66  1  0
 34 67  1  0
 34 68  1  0
 34 69  1  0
M  END
$$$$
