
     RDKit          3D

 34 36  0  0  0  0  0  0  0  0999 V2000
   -5.4111   -0.5254    0.2183 C   0  0  0  0  0  0  0  0  0  0  0  0
   -4.0779    0.0723   -0.0713 C   0  0  0  0  0  0  0  0  0  0  0  0
   -2.8401   -0.5295   -0.0258 C   0  0  0  0  0  0  0  0  0  0  0  0
   -1.7610    0.3626   -0.3684 C   0  0  0  0  0  0  0  0  0  0  0  0
   -0.2939   -0.0325   -0.4106 C   0  0  0  0  0  0  0  0  0  0  0  0
   -0.0535   -1.2738   -1.2440 C   0  0  0  0  0  0  0  0  0  0  0  0
    1.2539   -1.1976   -1.9621 C   0  0  0  0  0  0  0  0  0  0  0  0
    1.3049   -1.4471   -3.1721 O   0  0  0  0  0  0  0  0  0  0  0  0
    2.4234   -0.9081   -1.3482 N   0  0  0  0  0  0  0  0  0  0  0  0
    2.8303   -0.5982   -0.0354 C   0  0  0  0  0  0  0  0  0  0  0  0
    4.2356   -0.5007    0.0937 C   0  0  0  0  0  0  0  0  0  0  0  0
    4.8556   -0.2280    1.3130 C   0  0  0  0  0  0  0  0  0  0  0  0
    4.0798   -0.0440    2.4422 C   0  0  0  0  0  0  0  0  0  0  0  0
    2.6923   -0.1242    2.3370 C   0  0  0  0  0  0  0  0  0  0  0  0
    2.0421   -0.3880    1.1084 C   0  0  0  0  0  0  0  0  0  0  0  0
    0.2683   -0.3862    1.2827 S   0  0  0  0  0  0  0  0  0  0  0  0
   -2.2544    1.6289   -0.6583 C   0  0  0  0  0  0  0  0  0  0  0  0
   -1.4948    2.8549   -1.0515 C   0  0  0  0  0  0  0  0  0  0  0  0
   -3.9583    1.7102   -0.5246 S   0  0  0  0  0  0  0  0  0  0  0  0
   -5.3153   -1.5814    0.4922 H   0  0  0  0  0  0  0  0  0  0  0  0
   -5.8970   -0.0068    1.0514 H   0  0  0  0  0  0  0  0  0  0  0  0
   -6.0631   -0.4656   -0.6594 H   0  0  0  0  0  0  0  0  0  0  0  0
   -2.7035   -1.5701    0.2468 H   0  0  0  0  0  0  0  0  0  0  0  0
    0.2828    0.8186   -0.7913 H   0  0  0  0  0  0  0  0  0  0  0  0
   -0.8205   -1.3491   -2.0278 H   0  0  0  0  0  0  0  0  0  0  0  0
   -0.1009   -2.2159   -0.6844 H   0  0  0  0  0  0  0  0  0  0  0  0
    3.1701   -0.9722   -2.0332 H   0  0  0  0  0  0  0  0  0  0  0  0
    4.8822   -0.6502   -0.7702 H   0  0  0  0  0  0  0  0  0  0  0  0
    5.9390   -0.1666    1.3750 H   0  0  0  0  0  0  0  0  0  0  0  0
    4.5436    0.1648    3.4027 H   0  0  0  0  0  0  0  0  0  0  0  0
    2.1077    0.0338    3.2441 H   0  0  0  0  0  0  0  0  0  0  0  0
   -2.1419    3.7299   -1.1715 H   0  0  0  0  0  0  0  0  0  0  0  0
   -0.7470    3.0969   -0.2890 H   0  0  0  0  0  0  0  0  0  0  0  0
   -0.9775    2.6884   -2.0022 H   0  0  0  0  0  0  0  0  0  0  0  0
  1  2  1  0
  2  3  2  0
  3  4  1  0
  4  5  1  0
  5  6  1  0
  6  7  1  0
  7  8  2  0
  7  9  1  0
  9 10  1  0
 10 11  2  0
 11 12  1  0
 12 13  2  0
 13 14  1  0
 14 15  2  0
 15 16  1  0
  4 17  2  0
 17 18  1  0
 17 19  1  0
 19  2  1  0
 16  5  1  0
 15 10  1  0
  1 20  1  0
  1 21  1  0
  1 22  1  0
  3 23  1  0
  5 24  1  0
  6 25  1  0
  6 26  1  0
  9 27  1  0
 11 28  1  0
 12 29  1  0
 13 30  1  0
 14 31  1  0
 18 32  1  0
 18 33  1  0
 18 34  1  0
M  END
$$$$
