
     RDKit          3D

 57 61  0  0  0  0  0  0  0  0999 V2000
   -4.2303    3.3163    1.6730 C   0  0  0  0  0  0  0  0  0  0  0  0
   -5.4171    2.7454    0.9940 N   0  0  0  0  0  0  0  0  0  0  0  0
   -6.6181    3.5864    1.2058 C   0  0  0  0  0  0  0  0  0  0  0  0
   -5.1810    2.3159   -0.6486 S   0  0  0  0  0  6  0  0  0  0  0  0
   -6.4169    1.7590   -1.1577 O   0  0  0  0  0  0  0  0  0  0  0  0
   -4.5324    3.4390   -1.2923 O   0  0  0  0  0  0  0  0  0  0  0  0
   -4.0189    0.9814   -0.5314 C   0  0  0  0  0  0  0  0  0  0  0  0
   -4.3519   -0.1450    0.2192 C   0  0  0  0  0  0  0  0  0  0  0  0
   -3.4246   -1.1842    0.3592 C   0  0  0  0  0  0  0  0  0  0  0  0
   -2.1572   -1.1417   -0.2520 C   0  0  0  0  0  0  0  0  0  0  0  0
   -1.2511   -2.1952   -0.1294 N   0  0  0  0  0  0  0  0  0  0  0  0
   -1.3508   -3.2016    0.9346 C   0  0  0  0  0  0  0  0  0  0  0  0
   -0.3618   -4.2707    0.4858 C   0  0  0  0  0  0  0  0  0  0  0  0
   -0.6235   -4.3253   -1.0111 C   0  0  0  0  0  0  0  0  0  0  0  0
   -0.8433   -2.8590   -1.3914 C   0  0  0  0  0  0  0  0  0  0  0  0
   -1.8505    0.0263   -0.9993 C   0  0  0  0  0  0  0  0  0  0  0  0
   -0.5037    0.2778   -1.5852 C   0  0  0  0  0  0  0  0  0  0  0  0
   -0.4406    0.7011   -2.7339 O   0  0  0  0  0  0  0  0  0  0  0  0
    0.5281    0.0400   -0.7116 N   0  0  0  0  0  0  0  0  0  0  0  0
    1.8642    0.2682   -0.9049 C   0  0  0  0  0  0  0  0  0  0  0  0
    2.7288    0.0215    0.0476 N   0  0  0  0  0  0  0  0  0  0  0  0
    4.0118    0.3619   -0.3817 C   0  0  0  0  0  0  0  0  0  0  0  0
    4.0768    0.8408   -1.6941 C   0  0  0  0  0  0  0  0  0  0  0  0
    5.2871    1.2161   -2.2961 C   0  0  0  0  0  0  0  0  0  0  0  0
    6.4647    1.1111   -1.5481 C   0  0  0  0  0  0  0  0  0  0  0  0
    6.4520    0.6471   -0.2261 C   0  0  0  0  0  0  0  0  0  0  0  0
    7.6285    0.5487    0.5350 C   0  0  0  0  0  0  0  0  0  0  0  0
    7.5883    0.0876    1.8554 C   0  0  0  0  0  0  0  0  0  0  0  0
    6.3759   -0.2822    2.4358 C   0  0  0  0  0  0  0  0  0  0  0  0
    5.1953   -0.1950    1.6979 C   0  0  0  0  0  0  0  0  0  0  0  0
    5.2228    0.2680    0.3671 C   0  0  0  0  0  0  0  0  0  0  0  0
    2.4908    0.8816   -2.3563 S   0  0  0  0  0  0  0  0  0  0  0  0
   -2.7767    1.0735   -1.1511 C   0  0  0  0  0  0  0  0  0  0  0  0
   -4.4058    3.3336    2.7535 H   0  0  0  0  0  0  0  0  0  0  0  0
   -4.0335    4.3384    1.3367 H   0  0  0  0  0  0  0  0  0  0  0  0
   -3.3412    2.7027    1.5099 H   0  0  0  0  0  0  0  0  0  0  0  0
   -6.7255    3.8233    2.2694 H   0  0  0  0  0  0  0  0  0  0  0  0
   -6.5476    4.5255    0.6500 H   0  0  0  0  0  0  0  0  0  0  0  0
   -7.5210    3.0465    0.9080 H   0  0  0  0  0  0  0  0  0  0  0  0
   -5.3271   -0.2180    0.6978 H   0  0  0  0  0  0  0  0  0  0  0  0
   -3.7360   -2.0431    0.9471 H   0  0  0  0  0  0  0  0  0  0  0  0
   -2.3491   -3.6489    0.9849 H   0  0  0  0  0  0  0  0  0  0  0  0
   -1.0855   -2.7874    1.9125 H   0  0  0  0  0  0  0  0  0  0  0  0
    0.6676   -3.9495    0.6828 H   0  0  0  0  0  0  0  0  0  0  0  0
   -0.5267   -5.2321    0.9798 H   0  0  0  0  0  0  0  0  0  0  0  0
   -1.5365   -4.9013   -1.2112 H   0  0  0  0  0  0  0  0  0  0  0  0
    0.1950   -4.7879   -1.5699 H   0  0  0  0  0  0  0  0  0  0  0  0
    0.0936   -2.4287   -1.7594 H   0  0  0  0  0  0  0  0  0  0  0  0
   -1.6018   -2.7816   -2.1805 H   0  0  0  0  0  0  0  0  0  0  0  0
    0.3096   -0.3916    0.1783 H   0  0  0  0  0  0  0  0  0  0  0  0
    5.3124    1.5847   -3.3188 H   0  0  0  0  0  0  0  0  0  0  0  0
    7.4032    1.4051   -2.0153 H   0  0  0  0  0  0  0  0  0  0  0  0
    8.5882    0.8338    0.1079 H   0  0  0  0  0  0  0  0  0  0  0  0
    8.5080    0.0198    2.4320 H   0  0  0  0  0  0  0  0  0  0  0  0
    6.3483   -0.6355    3.4641 H   0  0  0  0  0  0  0  0  0  0  0  0
    4.2522   -0.4820    2.1581 H   0  0  0  0  0  0  0  0  0  0  0  0
   -2.5058    1.9592   -1.7258 H   0  0  0  0  0  0  0  0  0  0  0  0
  1  2  1  0
  2  3  1  0
  2  4  1  0
  4  5  2  0
  4  6  2  0
  4  7  1  0
  7  8  2  0
  8  9  1  0
  9 10  2  0
 10 11  1  0
 11 12  1  0
 12 13  1  0
 13 14  1  0
 14 15  1  0
 10 16  1  0
 16 17  1  0
 17 18  2  0
 17 19  1  0
 19 20  1  0
 20 21  2  0
 21 22  1  0
 22 23  2  0
 23 24  1  0
 24 25  2  0
 25 26  1  0
 26 27  2  0
 27 28  1  0
 28 29  2  0
 29 30  1  0
 30 31  2  0
 23 32  1  0
 16 33  2  0
 33  7  1  0
 15 11  1  0
 32 20  1  0
 31 22  1  0
 31 26  1  0
  1 34  1  0
  1 35  1  0
  1 36  1  0
  3 37  1  0
  3 38  1  0
  3 39  1  0
  8 40  1  0
  9 41  1  0
 12 42  1  0
 12 43  1  0
 13 44  1  0
 13 45  1  0
 14 46  1  0
 14 47  1  0
 15 48  1  0
 15 49  1  0
 19 50  1  0
 24 51  1  0
 25 52  1  0
 27 53  1  0
 28 54  1  0
 29 55  1  0
 30 56  1  0
 33 57  1  0
M  END
$$$$
