
     RDKit          3D

 29 31  0  0  0  0  0  0  0  0999 V2000
    6.3788   -0.4600   -0.3472 C   0  0  0  0  0  0  0  0  0  0  0  0
    5.2443   -1.2456   -0.0021 O   0  0  0  0  0  0  0  0  0  0  0  0
    4.0191   -0.6394   -0.0851 C   0  0  0  0  0  0  0  0  0  0  0  0
    3.7875    0.6769   -0.4774 C   0  0  0  0  0  0  0  0  0  0  0  0
    2.4827    1.1881   -0.5237 C   0  0  0  0  0  0  0  0  0  0  0  0
    1.3922    0.3696   -0.1722 C   0  0  0  0  0  0  0  0  0  0  0  0
    0.0606    0.7434   -0.1731 N   0  0  0  0  0  0  0  0  0  0  0  0
   -0.6750   -0.2652    0.2070 C   0  0  0  0  0  0  0  0  0  0  0  0
   -2.0292   -0.3482    0.3511 N   0  0  0  0  0  0  0  0  0  0  0  0
   -2.8825    0.7024    0.0964 C   0  0  0  0  0  0  0  0  0  0  0  0
   -2.5337    1.8160   -0.2830 O   0  0  0  0  0  0  0  0  0  0  0  0
   -4.2980    0.3932    0.3167 C   0  0  0  0  0  0  0  0  0  0  0  0
   -5.3655    1.2566    0.1393 C   0  0  0  0  0  0  0  0  0  0  0  0
   -6.6205    0.6529    0.4379 C   0  0  0  0  0  0  0  0  0  0  0  0
   -6.4774   -0.6565    0.8357 C   0  0  0  0  0  0  0  0  0  0  0  0
   -4.8404   -1.1475    0.8467 S   0  0  0  0  0  0  0  0  0  0  0  0
    0.1439   -1.7116    0.5888 S   0  0  0  0  0  0  0  0  0  0  0  0
    1.6435   -0.9470    0.2184 C   0  0  0  0  0  0  0  0  0  0  0  0
    2.9464   -1.4681    0.2681 C   0  0  0  0  0  0  0  0  0  0  0  0
    7.2678   -1.0868   -0.2283 H   0  0  0  0  0  0  0  0  0  0  0  0
    6.3341   -0.1406   -1.3936 H   0  0  0  0  0  0  0  0  0  0  0  0
    6.4840    0.3979    0.3252 H   0  0  0  0  0  0  0  0  0  0  0  0
    4.5974    1.3431   -0.7567 H   0  0  0  0  0  0  0  0  0  0  0  0
    2.2998    2.2141   -0.8292 H   0  0  0  0  0  0  0  0  0  0  0  0
   -2.4084   -1.2298    0.6605 H   0  0  0  0  0  0  0  0  0  0  0  0
   -5.2401    2.2819   -0.1929 H   0  0  0  0  0  0  0  0  0  0  0  0
   -7.5777    1.1551    0.3640 H   0  0  0  0  0  0  0  0  0  0  0  0
   -7.2572   -1.3499    1.1209 H   0  0  0  0  0  0  0  0  0  0  0  0
    3.1237   -2.4949    0.5743 H   0  0  0  0  0  0  0  0  0  0  0  0
  1  2  1  0
  2  3  1  0
  3  4  2  0
  4  5  1  0
  5  6  2  0
  6  7  1  0
  7  8  2  0
  8  9  1  0
  9 10  1  0
 10 11  2  0
 10 12  1  0
 12 13  2  0
 13 14  1  0
 14 15  2  0
 15 16  1  0
  8 17  1  0
 17 18  1  0
 18 19  2  0
 19  3  1  0
 18  6  1  0
 16 12  1  0
  1 20  1  0
  1 21  1  0
  1 22  1  0
  4 23  1  0
  5 24  1  0
  9 25  1  0
 13 26  1  0
 14 27  1  0
 15 28  1  0
 19 29  1  0
M  END
$$$$
