
     RDKit          3D

 34 36  0  0  0  0  0  0  0  0999 V2000
   -0.3156   -1.0847   -2.0590 O   0  0  0  0  0  0  0  0  0  0  0  0
    0.1342   -1.2078   -0.9266 C   0  0  0  0  0  0  0  0  0  0  0  0
    1.5315   -0.8943   -0.5201 C   0  0  0  0  0  0  0  0  0  0  0  0
    2.3873   -0.3215   -1.3759 C   0  0  0  0  0  0  0  0  0  0  0  0
    3.7730    0.0762   -1.1296 C   0  0  0  0  0  0  0  0  0  0  0  0
    4.7298   -0.7874   -0.6059 C   0  0  0  0  0  0  0  0  0  0  0  0
    6.0349   -0.3260   -0.4487 C   0  0  0  0  0  0  0  0  0  0  0  0
    6.3490    0.9719   -0.8307 C   0  0  0  0  0  0  0  0  0  0  0  0
    5.3410    1.7556   -1.3645 C   0  0  0  0  0  0  0  0  0  0  0  0
    4.0679    1.3336   -1.5305 N   0  0  0  0  0  0  0  0  0  0  0  0
    1.7912   -1.3349    1.1289 S   0  0  0  0  0  0  0  0  0  0  0  0
    0.1351   -1.9068    1.3516 C   0  0  0  0  0  0  0  0  0  0  0  0
   -0.4090   -2.5879    2.7741 S   0  0  0  0  0  0  0  0  0  0  0  0
   -0.5458   -1.7118    0.1681 N   0  0  0  0  0  0  0  0  0  0  0  0
   -1.9147   -2.0446    0.0158 N   0  0  0  0  0  0  0  0  0  0  0  0
   -2.7676   -0.9296    0.2793 C   0  0  0  0  0  0  0  0  0  0  0  0
   -2.2551    0.1757    0.8809 N   0  0  0  0  0  0  0  0  0  0  0  0
   -3.0938    1.2004    1.1654 C   0  0  0  0  0  0  0  0  0  0  0  0
   -4.4519    1.1910    0.8894 C   0  0  0  0  0  0  0  0  0  0  0  0
   -5.2968    2.3818    1.2203 C   0  0  0  0  0  0  0  0  0  0  0  0
   -5.2836    3.3133    0.2294 F   0  0  0  0  0  0  0  0  0  0  0  0
   -4.8907    3.0261    2.3480 F   0  0  0  0  0  0  0  0  0  0  0  0
   -6.6055    2.0662    1.4215 F   0  0  0  0  0  0  0  0  0  0  0  0
   -4.9741    0.0545    0.2661 C   0  0  0  0  0  0  0  0  0  0  0  0
   -4.1322   -1.0162   -0.0353 C   0  0  0  0  0  0  0  0  0  0  0  0
   -4.8029   -2.4057   -0.8091 Cl  0  0  0  0  0  0  0  0  0  0  0  0
    2.0412   -0.0500   -2.3723 H   0  0  0  0  0  0  0  0  0  0  0  0
    4.4822   -1.8064   -0.3296 H   0  0  0  0  0  0  0  0  0  0  0  0
    6.7999   -0.9774   -0.0355 H   0  0  0  0  0  0  0  0  0  0  0  0
    7.3548    1.3614   -0.7212 H   0  0  0  0  0  0  0  0  0  0  0  0
    5.5352    2.7751   -1.6856 H   0  0  0  0  0  0  0  0  0  0  0  0
   -2.0985   -2.3483   -0.9452 H   0  0  0  0  0  0  0  0  0  0  0  0
   -2.6170    2.0557    1.6422 H   0  0  0  0  0  0  0  0  0  0  0  0
   -6.0332    0.0028    0.0199 H   0  0  0  0  0  0  0  0  0  0  0  0
  1  2  2  0
  2  3  1  0
  3  4  2  3
  4  5  1  0
  5  6  2  0
  6  7  1  0
  7  8  2  0
  8  9  1  0
  9 10  2  0
  3 11  1  0
 11 12  1  0
 12 13  2  0
 12 14  1  0
 14 15  1  0
 15 16  1  0
 16 17  2  0
 17 18  1  0
 18 19  2  0
 19 20  1  0
 20 21  1  0
 20 22  1  0
 20 23  1  0
 19 24  1  0
 24 25  2  0
 25 26  1  0
 14  2  1  0
 25 16  1  0
 10  5  1  0
  4 27  1  0
  6 28  1  0
  7 29  1  0
  8 30  1  0
  9 31  1  0
 15 32  1  0
 18 33  1  0
 24 34  1  0
M  END
$$$$
