
     RDKit          3D

 46 48  0  0  0  0  0  0  0  0999 V2000
   -7.0542   -1.0000   -1.8388 C   0  0  0  0  0  0  0  0  0  0  0  0
   -5.6836   -0.4072   -1.9742 C   0  0  0  0  0  0  0  0  0  0  0  0
   -5.3587    0.3595   -3.0982 C   0  0  0  0  0  0  0  0  0  0  0  0
   -4.0721    0.8800   -3.2423 C   0  0  0  0  0  0  0  0  0  0  0  0
   -3.1068    0.6359   -2.2602 C   0  0  0  0  0  0  0  0  0  0  0  0
   -3.4164   -0.1167   -1.1204 C   0  0  0  0  0  0  0  0  0  0  0  0
   -2.3906   -0.2877   -0.1650 N   0  0  0  0  0  0  0  0  0  0  0  0
   -2.5028   -0.8029    1.1089 C   0  0  0  0  0  0  0  0  0  0  0  0
   -3.5439   -1.2326    1.6001 O   0  0  0  0  0  0  0  0  0  0  0  0
   -1.3057   -0.7920    1.9248 C   0  0  0  0  0  0  0  0  0  0  0  0
   -1.3653   -1.2513    3.2246 N   0  0  0  0  0  0  0  0  0  0  0  0
   -0.1401   -1.1219    3.7980 C   0  0  0  0  0  0  0  0  0  0  0  0
    0.7211   -0.6035    2.9647 N   0  0  0  0  0  0  0  0  0  0  0  0
    0.0225   -0.4067    1.7702 C   0  0  0  0  0  0  0  0  0  0  0  0
    0.7148    0.1190    0.5882 C   0  0  0  0  0  0  0  0  0  0  0  0
    0.1682    0.2800   -0.4978 O   0  0  0  0  0  0  0  0  0  0  0  0
    2.0378    0.3828    0.8322 N   0  0  0  0  0  0  0  0  0  0  0  0
    2.9970    0.7292   -0.1920 C   0  0  0  0  0  0  0  0  0  0  0  0
    2.7968    2.1738   -0.6570 C   0  0  0  0  0  0  0  0  0  0  0  0
    4.3950    0.4033    0.3135 C   0  0  0  0  0  0  0  0  0  0  0  0
    5.3075    1.3805    0.7305 C   0  0  0  0  0  0  0  0  0  0  0  0
    6.5698    1.0216    1.2104 C   0  0  0  0  0  0  0  0  0  0  0  0
    6.9347   -0.3182    1.2954 C   0  0  0  0  0  0  0  0  0  0  0  0
    6.0354   -1.3047    0.8993 C   0  0  0  0  0  0  0  0  0  0  0  0
    4.7824   -0.9463    0.4091 C   0  0  0  0  0  0  0  0  0  0  0  0
   -4.7039   -0.6446   -0.9945 C   0  0  0  0  0  0  0  0  0  0  0  0
   -7.8205   -0.2501   -2.0454 H   0  0  0  0  0  0  0  0  0  0  0  0
   -7.2283   -1.3729   -0.8245 H   0  0  0  0  0  0  0  0  0  0  0  0
   -7.1784   -1.8333   -2.5422 H   0  0  0  0  0  0  0  0  0  0  0  0
   -6.1047    0.5497   -3.8665 H   0  0  0  0  0  0  0  0  0  0  0  0
   -3.8237    1.4837   -4.1136 H   0  0  0  0  0  0  0  0  0  0  0  0
   -2.1140    1.0608   -2.3889 H   0  0  0  0  0  0  0  0  0  0  0  0
   -1.4796    0.0623   -0.4442 H   0  0  0  0  0  0  0  0  0  0  0  0
   -2.2050   -1.6187    3.6558 H   0  0  0  0  0  0  0  0  0  0  0  0
    0.0615   -1.4154    4.8196 H   0  0  0  0  0  0  0  0  0  0  0  0
    2.3632    0.1775    1.7747 H   0  0  0  0  0  0  0  0  0  0  0  0
    2.7983    0.0887   -1.0613 H   0  0  0  0  0  0  0  0  0  0  0  0
    2.8456    2.8784    0.1817 H   0  0  0  0  0  0  0  0  0  0  0  0
    3.5546    2.4628   -1.3969 H   0  0  0  0  0  0  0  0  0  0  0  0
    1.8113    2.3079   -1.1232 H   0  0  0  0  0  0  0  0  0  0  0  0
    5.0560    2.4357    0.6933 H   0  0  0  0  0  0  0  0  0  0  0  0
    7.2698    1.7961    1.5188 H   0  0  0  0  0  0  0  0  0  0  0  0
    7.9167   -0.5944    1.6735 H   0  0  0  0  0  0  0  0  0  0  0  0
    6.3136   -2.3519    0.9704 H   0  0  0  0  0  0  0  0  0  0  0  0
    4.0925   -1.7318    0.1056 H   0  0  0  0  0  0  0  0  0  0  0  0
   -4.9676   -1.2647   -0.1445 H   0  0  0  0  0  0  0  0  0  0  0  0
  1  2  1  0
  2  3  2  0
  3  4  1  0
  4  5  2  0
  5  6  1  0
  6  7  1  0
  7  8  1  0
  8  9  2  0
  8 10  1  0
 10 11  1  0
 11 12  1  0
 12 13  2  0
 13 14  1  0
 14 15  1  0
 15 16  2  0
 15 17  1  0
 17 18  1  0
 18 19  1  0
 18 20  1  0
 20 21  2  0
 21 22  1  0
 22 23  2  0
 23 24  1  0
 24 25  2  0
  6 26  2  0
 26  2  1  0
 14 10  2  0
 25 20  1  0
  1 27  1  0
  1 28  1  0
  1 29  1  0
  3 30  1  0
  4 31  1  0
  5 32  1  0
  7 33  1  0
 11 34  1  0
 12 35  1  0
 17 36  1  0
 18 37  1  0
 19 38  1  0
 19 39  1  0
 19 40  1  0
 21 41  1  0
 22 42  1  0
 23 43  1  0
 24 44  1  0
 25 45  1  0
 26 46  1  0
M  END
$$$$
