
     RDKit          3D

 36 38  0  0  0  0  0  0  0  0999 V2000
    5.9030   -0.2262   -0.1954 C   0  0  0  0  0  0  0  0  0  0  0  0
    4.4623   -0.2529    0.2252 C   0  0  0  0  0  0  0  0  0  0  0  0
    3.7486   -1.4596    0.2273 C   0  0  0  0  0  0  0  0  0  0  0  0
    2.4014   -1.4828    0.5897 C   0  0  0  0  0  0  0  0  0  0  0  0
    1.7625   -0.2900    0.9371 C   0  0  0  0  0  0  0  0  0  0  0  0
    0.0494   -0.3355    1.3899 S   0  0  0  0  0  6  0  0  0  0  0  0
   -0.4067    1.0159    1.6342 O   0  0  0  0  0  0  0  0  0  0  0  0
   -0.1109   -1.3707    2.3869 O   0  0  0  0  0  0  0  0  0  0  0  0
   -0.7065   -0.8686   -0.0461 N   0  0  0  0  0  0  0  0  0  0  0  0
   -0.6849    0.1342   -1.1586 C   0  0  0  0  0  0  0  0  0  0  0  0
   -1.8785    1.0819   -1.2845 C   0  0  0  0  0  0  0  0  0  0  0  0
   -1.8700    2.0003   -2.1058 O   0  0  0  0  0  0  0  0  0  0  0  0
   -2.9901    0.7963   -0.5338 N   0  0  0  0  0  0  0  0  0  0  0  0
   -4.2937    1.3470   -0.7823 C   0  0  0  0  0  0  0  0  0  0  0  0
   -5.1693    0.5807    0.1899 C   0  0  0  0  0  0  0  0  0  0  0  0
   -4.4365   -0.6360    0.4575 O   0  0  0  0  0  0  0  0  0  0  0  0
   -3.0586   -0.2386    0.4615 C   0  0  0  0  0  0  0  0  0  0  0  0
   -2.0995   -1.3926    0.1607 C   0  0  0  0  0  0  0  0  0  0  0  0
    2.4571    0.9211    0.9340 C   0  0  0  0  0  0  0  0  0  0  0  0
    3.8045    0.9365    0.5698 C   0  0  0  0  0  0  0  0  0  0  0  0
    6.4436    0.5785    0.3139 H   0  0  0  0  0  0  0  0  0  0  0  0
    5.9738   -0.0720   -1.2764 H   0  0  0  0  0  0  0  0  0  0  0  0
    6.4025   -1.1661    0.0621 H   0  0  0  0  0  0  0  0  0  0  0  0
    4.2418   -2.3894   -0.0492 H   0  0  0  0  0  0  0  0  0  0  0  0
    1.8575   -2.4248    0.5998 H   0  0  0  0  0  0  0  0  0  0  0  0
   -0.6340   -0.4364   -2.0947 H   0  0  0  0  0  0  0  0  0  0  0  0
    0.2238    0.7424   -1.1173 H   0  0  0  0  0  0  0  0  0  0  0  0
   -4.5641    1.1337   -1.8219 H   0  0  0  0  0  0  0  0  0  0  0  0
   -4.3082    2.4289   -0.6245 H   0  0  0  0  0  0  0  0  0  0  0  0
   -6.1565    0.3442   -0.2155 H   0  0  0  0  0  0  0  0  0  0  0  0
   -5.2899    1.1210    1.1356 H   0  0  0  0  0  0  0  0  0  0  0  0
   -2.8452    0.2117    1.4375 H   0  0  0  0  0  0  0  0  0  0  0  0
   -2.4093   -1.9189   -0.7516 H   0  0  0  0  0  0  0  0  0  0  0  0
   -2.1255   -2.1469    0.9539 H   0  0  0  0  0  0  0  0  0  0  0  0
    1.9639    1.8508    1.2086 H   0  0  0  0  0  0  0  0  0  0  0  0
    4.3420    1.8829    0.5601 H   0  0  0  0  0  0  0  0  0  0  0  0
  1  2  1  0
  2  3  2  0
  3  4  1  0
  4  5  2  0
  5  6  1  0
  6  7  2  0
  6  8  2  0
  6  9  1  0
  9 10  1  0
 10 11  1  0
 11 12  2  0
 11 13  1  0
 13 14  1  0
 14 15  1  0
 15 16  1  0
 16 17  1  0
 17 18  1  0
  5 19  1  0
 19 20  2  0
 20  2  1  0
 18  9  1  0
 17 13  1  0
  1 21  1  0
  1 22  1  0
  1 23  1  0
  3 24  1  0
  4 25  1  0
 10 26  1  0
 10 27  1  0
 14 28  1  0
 14 29  1  0
 15 30  1  0
 15 31  1  0
 17 32  1  0
 18 33  1  0
 18 34  1  0
 19 35  1  0
 20 36  1  0
M  END
$$$$
