
     RDKit          3D

 42 44  0  0  0  0  0  0  0  0999 V2000
   -3.6950    3.7808    3.0350 C   0  0  0  0  0  0  0  0  0  0  0  0
   -3.9031    2.2770    3.1249 C   0  0  0  0  0  0  0  0  0  0  0  0
   -2.9475    1.5834    4.1011 C   0  0  0  0  0  0  0  0  0  0  0  0
   -1.4599    1.6802    3.7411 C   0  0  0  0  0  0  0  0  0  0  0  0
   -1.0960    0.9901    2.4490 C   0  0  0  0  0  0  0  0  0  0  0  0
   -1.1249   -0.4063    2.3536 C   0  0  0  0  0  0  0  0  0  0  0  0
   -0.7920   -1.0476    1.1550 C   0  0  0  0  0  0  0  0  0  0  0  0
   -0.4240   -0.3052    0.0250 C   0  0  0  0  0  0  0  0  0  0  0  0
   -0.0655   -0.9394   -1.2410 C   0  0  0  0  0  0  0  0  0  0  0  0
   -0.4422   -2.2131   -1.6166 C   0  0  0  0  0  0  0  0  0  0  0  0
    0.1826   -2.5856   -3.1674 S   0  0  0  0  0  0  0  0  0  0  0  0
    0.9156   -1.0176   -3.2469 C   0  0  0  0  0  0  0  0  0  0  0  0
    1.6582   -0.6486   -4.4033 C   0  0  0  0  0  0  0  0  0  0  0  0
    0.9553   -0.0155   -5.4710 C   0  0  0  0  0  0  0  0  0  0  0  0
    0.4011    0.4907   -6.3569 N   0  0  0  0  0  0  0  0  0  0  0  0
    2.9765   -0.8879   -4.5402 C   0  0  0  0  0  0  0  0  0  0  0  0
    3.8298   -1.5094   -3.5846 C   0  0  0  0  0  0  0  0  0  0  0  0
    3.8702   -1.4578   -2.1943 C   0  0  0  0  0  0  0  0  0  0  0  0
    4.9454   -2.2668   -1.7537 C   0  0  0  0  0  0  0  0  0  0  0  0
    5.5317   -2.7581   -2.8896 C   0  0  0  0  0  0  0  0  0  0  0  0
    4.8838   -2.3024   -3.9879 O   0  0  0  0  0  0  0  0  0  0  0  0
    0.6937   -0.2630   -2.1875 N   0  0  0  0  0  0  0  0  0  0  0  0
   -0.3860    1.0920    0.1289 C   0  0  0  0  0  0  0  0  0  0  0  0
   -0.7197    1.7337    1.3257 C   0  0  0  0  0  0  0  0  0  0  0  0
   -2.7288    4.0277    2.5861 H   0  0  0  0  0  0  0  0  0  0  0  0
   -3.7455    4.2445    4.0252 H   0  0  0  0  0  0  0  0  0  0  0  0
   -4.4740    4.2308    2.4116 H   0  0  0  0  0  0  0  0  0  0  0  0
   -3.8198    1.8348    2.1264 H   0  0  0  0  0  0  0  0  0  0  0  0
   -4.9307    2.0901    3.4615 H   0  0  0  0  0  0  0  0  0  0  0  0
   -3.2404    0.5289    4.1798 H   0  0  0  0  0  0  0  0  0  0  0  0
   -3.0898    2.0156    5.0998 H   0  0  0  0  0  0  0  0  0  0  0  0
   -1.1434    2.7295    3.7143 H   0  0  0  0  0  0  0  0  0  0  0  0
   -0.8707    1.2213    4.5461 H   0  0  0  0  0  0  0  0  0  0  0  0
   -1.4039   -1.0077    3.2166 H   0  0  0  0  0  0  0  0  0  0  0  0
   -0.8132   -2.1337    1.1332 H   0  0  0  0  0  0  0  0  0  0  0  0
   -1.0466   -2.9327   -1.0850 H   0  0  0  0  0  0  0  0  0  0  0  0
    3.4630   -0.6298   -5.4798 H   0  0  0  0  0  0  0  0  0  0  0  0
    3.2050   -0.8875   -1.5589 H   0  0  0  0  0  0  0  0  0  0  0  0
    5.2558   -2.4533   -0.7356 H   0  0  0  0  0  0  0  0  0  0  0  0
    6.3768   -3.4056   -3.0791 H   0  0  0  0  0  0  0  0  0  0  0  0
   -0.0978    1.6969   -0.7293 H   0  0  0  0  0  0  0  0  0  0  0  0
   -0.6839    2.8201    1.3687 H   0  0  0  0  0  0  0  0  0  0  0  0
  1  2  1  0
  2  3  1  0
  3  4  1  0
  4  5  1  0
  5  6  2  0
  6  7  1  0
  7  8  2  0
  8  9  1  0
  9 10  2  0
 10 11  1  0
 11 12  1  0
 12 13  1  0
 13 14  1  0
 14 15  3  0
 13 16  2  3
 16 17  1  0
 17 18  2  0
 18 19  1  0
 19 20  2  0
 20 21  1  0
 12 22  2  0
  8 23  1  0
 23 24  2  0
 24  5  1  0
 22  9  1  0
 21 17  1  0
  1 25  1  0
  1 26  1  0
  1 27  1  0
  2 28  1  0
  2 29  1  0
  3 30  1  0
  3 31  1  0
  4 32  1  0
  4 33  1  0
  6 34  1  0
  7 35  1  0
 10 36  1  0
 16 37  1  0
 18 38  1  0
 19 39  1  0
 20 40  1  0
 23 41  1  0
 24 42  1  0
M  END
$$$$
