
     RDKit          3D

 49 52  0  0  0  0  0  0  0  0999 V2000
    6.2079   -2.7356   -0.5360 C   0  0  0  0  0  0  0  0  0  0  0  0
    5.1314   -2.1615   -1.4442 C   0  0  0  0  0  0  0  0  0  0  0  0
    4.2279   -1.2069   -0.7078 C   0  0  0  0  0  0  0  0  0  0  0  0
    3.0756   -1.6694   -0.0618 C   0  0  0  0  0  0  0  0  0  0  0  0
    2.2412   -0.7861    0.6368 C   0  0  0  0  0  0  0  0  0  0  0  0
    2.5377    0.5798    0.7119 C   0  0  0  0  0  0  0  0  0  0  0  0
    1.7093    1.5628    1.4306 C   0  0  0  0  0  0  0  0  0  0  0  0
    0.4627    1.1451    2.1803 C   0  0  0  0  0  0  0  0  0  0  0  0
   -0.6153    0.6372    1.3212 N   0  0  0  0  0  0  0  0  0  0  0  0
   -1.6629    0.0073    2.1410 C   0  0  0  0  0  0  0  0  0  0  0  0
   -2.9060   -0.3467    1.3743 C   0  0  0  0  0  0  0  0  0  0  0  0
   -3.1766    0.1271    0.1436 C   0  0  0  0  0  0  0  0  0  0  0  0
   -4.4029   -0.2538   -0.5873 C   0  0  0  0  0  0  0  0  0  0  0  0
   -4.3542   -0.5668   -1.9532 C   0  0  0  0  0  0  0  0  0  0  0  0
   -5.5150   -0.9115   -2.6518 C   0  0  0  0  0  0  0  0  0  0  0  0
   -6.7424   -0.9422   -1.9948 C   0  0  0  0  0  0  0  0  0  0  0  0
   -6.8103   -0.6276   -0.6402 C   0  0  0  0  0  0  0  0  0  0  0  0
   -5.6489   -0.2842    0.0578 C   0  0  0  0  0  0  0  0  0  0  0  0
   -2.2044    1.0685   -0.5263 C   0  0  0  0  0  0  0  0  0  0  0  0
   -1.1999    1.6814    0.4662 C   0  0  0  0  0  0  0  0  0  0  0  0
    2.1161    2.8422    1.4371 C   0  0  0  0  0  0  0  0  0  0  0  0
    3.3238    3.3187    0.7497 C   0  0  0  0  0  0  0  0  0  0  0  0
    3.6317    4.5048    0.7837 O   0  0  0  0  0  0  0  0  0  0  0  0
    4.0793    2.3747    0.0818 O   0  0  0  0  0  0  0  0  0  0  0  0
    3.6937    1.0204    0.0644 C   0  0  0  0  0  0  0  0  0  0  0  0
    4.5369    0.1536   -0.6355 C   0  0  0  0  0  0  0  0  0  0  0  0
    6.8478   -3.4246   -1.0962 H   0  0  0  0  0  0  0  0  0  0  0  0
    6.8420   -1.9443   -0.1219 H   0  0  0  0  0  0  0  0  0  0  0  0
    5.7682   -3.2866    0.3024 H   0  0  0  0  0  0  0  0  0  0  0  0
    5.5982   -1.6471   -2.2931 H   0  0  0  0  0  0  0  0  0  0  0  0
    4.5358   -2.9762   -1.8738 H   0  0  0  0  0  0  0  0  0  0  0  0
    2.8123   -2.7248   -0.0992 H   0  0  0  0  0  0  0  0  0  0  0  0
    1.3514   -1.1949    1.1090 H   0  0  0  0  0  0  0  0  0  0  0  0
    0.7613    0.3680    2.8980 H   0  0  0  0  0  0  0  0  0  0  0  0
    0.0879    1.9766    2.7937 H   0  0  0  0  0  0  0  0  0  0  0  0
   -1.9576    0.6583    2.9746 H   0  0  0  0  0  0  0  0  0  0  0  0
   -1.2589   -0.9166    2.5724 H   0  0  0  0  0  0  0  0  0  0  0  0
   -3.5891   -1.0299    1.8713 H   0  0  0  0  0  0  0  0  0  0  0  0
   -3.4079   -0.5624   -2.4883 H   0  0  0  0  0  0  0  0  0  0  0  0
   -5.4575   -1.1578   -3.7088 H   0  0  0  0  0  0  0  0  0  0  0  0
   -7.6447   -1.2096   -2.5383 H   0  0  0  0  0  0  0  0  0  0  0  0
   -7.7670   -0.6447   -0.1250 H   0  0  0  0  0  0  0  0  0  0  0  0
   -5.7308   -0.0255    1.1107 H   0  0  0  0  0  0  0  0  0  0  0  0
   -2.7451    1.8869   -1.0173 H   0  0  0  0  0  0  0  0  0  0  0  0
   -1.6512    0.5240   -1.3022 H   0  0  0  0  0  0  0  0  0  0  0  0
   -0.4269    2.1861   -0.1246 H   0  0  0  0  0  0  0  0  0  0  0  0
   -1.6938    2.4512    1.0747 H   0  0  0  0  0  0  0  0  0  0  0  0
    1.5616    3.6169    1.9546 H   0  0  0  0  0  0  0  0  0  0  0  0
    5.4278    0.5459   -1.1194 H   0  0  0  0  0  0  0  0  0  0  0  0
  1  2  1  0
  2  3  1  0
  3  4  2  0
  4  5  1  0
  5  6  2  0
  6  7  1  0
  7  8  1  0
  8  9  1  0
  9 10  1  0
 10 11  1  0
 11 12  2  0
 12 13  1  0
 13 14  2  0
 14 15  1  0
 15 16  2  0
 16 17  1  0
 17 18  2  0
 12 19  1  0
 19 20  1  0
  7 21  2  0
 21 22  1  0
 22 23  2  0
 22 24  1  0
 24 25  1  0
 25 26  2  0
 26  3  1  0
 25  6  1  0
 20  9  1  0
 18 13  1  0
  1 27  1  0
  1 28  1  0
  1 29  1  0
  2 30  1  0
  2 31  1  0
  4 32  1  0
  5 33  1  0
  8 34  1  0
  8 35  1  0
 10 36  1  0
 10 37  1  0
 11 38  1  0
 14 39  1  0
 15 40  1  0
 16 41  1  0
 17 42  1  0
 18 43  1  0
 19 44  1  0
 19 45  1  0
 20 46  1  0
 20 47  1  0
 21 48  1  0
 26 49  1  0
M  END
$$$$
