
     RDKit          3D

 34 35  0  0  0  0  0  0  0  0999 V2000
   -0.7754   -0.3927   -2.4929 C   0  0  0  0  0  0  0  0  0  0  0  0
   -0.5775    0.5422   -1.3874 N   0  0  0  0  0  0  0  0  0  0  0  0
    0.6397    1.1834   -1.1246 C   0  0  0  0  0  0  0  0  0  0  0  0
    0.7818    1.8760   -0.1110 O   0  0  0  0  0  0  0  0  0  0  0  0
    1.8000    1.0350   -2.0998 C   0  0  0  0  0  0  0  0  0  0  0  0
    2.5925   -0.5938   -1.9580 S   0  0  0  0  0  0  0  0  0  0  0  0
    2.9700   -0.5355   -0.2294 C   0  0  0  0  0  0  0  0  0  0  0  0
    2.2553   -1.3389    0.5774 N   0  0  0  0  0  0  0  0  0  0  0  0
    2.5399   -1.2563    1.8904 C   0  0  0  0  0  0  0  0  0  0  0  0
    3.4909   -0.4107    2.4100 C   0  0  0  0  0  0  0  0  0  0  0  0
    4.1612    0.3632    1.4925 C   0  0  0  0  0  0  0  0  0  0  0  0
    3.9265    0.3179    0.1684 N   0  0  0  0  0  0  0  0  0  0  0  0
   -1.5590    0.5515   -0.2874 C   0  0  0  0  0  0  0  0  0  0  0  0
   -3.0095    0.2215   -0.6738 C   0  0  0  0  0  0  0  0  0  0  0  0
   -3.7790    0.1941    0.6395 C   0  0  0  0  0  0  0  0  0  0  0  0
   -2.6773   -0.6025    1.7966 S   0  0  0  0  0  6  0  0  0  0  0  0
   -2.5802    0.2214    2.9830 O   0  0  0  0  0  0  0  0  0  0  0  0
   -3.0216   -2.0082    1.8617 O   0  0  0  0  0  0  0  0  0  0  0  0
   -1.1880   -0.4264    0.8334 C   0  0  0  0  0  0  0  0  0  0  0  0
   -0.7175   -1.4142   -2.1066 H   0  0  0  0  0  0  0  0  0  0  0  0
   -1.7565   -0.2190   -2.9424 H   0  0  0  0  0  0  0  0  0  0  0  0
   -0.0381   -0.2696   -3.2853 H   0  0  0  0  0  0  0  0  0  0  0  0
    2.5375    1.8163   -1.8839 H   0  0  0  0  0  0  0  0  0  0  0  0
    1.4609    1.2113   -3.1242 H   0  0  0  0  0  0  0  0  0  0  0  0
    1.9578   -1.9090    2.5349 H   0  0  0  0  0  0  0  0  0  0  0  0
    3.6964   -0.3560    3.4698 H   0  0  0  0  0  0  0  0  0  0  0  0
    4.9292    1.0652    1.8041 H   0  0  0  0  0  0  0  0  0  0  0  0
   -1.5631    1.5661    0.1361 H   0  0  0  0  0  0  0  0  0  0  0  0
   -3.0756   -0.7653   -1.1474 H   0  0  0  0  0  0  0  0  0  0  0  0
   -3.4280    0.9567   -1.3683 H   0  0  0  0  0  0  0  0  0  0  0  0
   -3.9760    1.2067    1.0035 H   0  0  0  0  0  0  0  0  0  0  0  0
   -4.7126   -0.3675    0.5692 H   0  0  0  0  0  0  0  0  0  0  0  0
   -0.3868   -0.0509    1.4736 H   0  0  0  0  0  0  0  0  0  0  0  0
   -0.9180   -1.4121    0.4428 H   0  0  0  0  0  0  0  0  0  0  0  0
  1  2  1  0
  2  3  1  0
  3  4  2  0
  3  5  1  0
  5  6  1  0
  6  7  1  0
  7  8  2  0
  8  9  1  0
  9 10  2  0
 10 11  1  0
 11 12  2  0
  2 13  1  0
 13 14  1  0
 14 15  1  0
 15 16  1  0
 16 17  2  0
 16 18  2  0
 16 19  1  0
 12  7  1  0
 19 13  1  0
  1 20  1  0
  1 21  1  0
  1 22  1  0
  5 23  1  0
  5 24  1  0
  9 25  1  0
 10 26  1  0
 11 27  1  0
 13 28  1  0
 14 29  1  0
 14 30  1  0
 15 31  1  0
 15 32  1  0
 19 33  1  0
 19 34  1  0
M  END
$$$$
