
     RDKit          3D

 49 52  0  0  0  0  0  0  0  0999 V2000
   -5.4336   -2.7988    1.4342 C   0  0  0  0  0  0  0  0  0  0  0  0
   -4.8327   -1.5899    0.7807 C   0  0  0  0  0  0  0  0  0  0  0  0
   -5.6115   -0.4580    0.5257 C   0  0  0  0  0  0  0  0  0  0  0  0
   -5.0596    0.6594   -0.1118 C   0  0  0  0  0  0  0  0  0  0  0  0
   -5.9218    1.8499   -0.4184 C   0  0  0  0  0  0  0  0  0  0  0  0
   -3.7154    0.6304   -0.5188 C   0  0  0  0  0  0  0  0  0  0  0  0
   -2.9156   -0.4908   -0.2702 C   0  0  0  0  0  0  0  0  0  0  0  0
   -1.5428   -0.5628   -0.6648 N   0  0  0  0  0  0  0  0  0  0  0  0
   -0.9242   -1.7824   -0.6774 N   0  0  0  0  0  0  0  0  0  0  0  0
    0.2943   -1.5575   -1.1614 C   0  0  0  0  0  0  0  0  0  0  0  0
    0.5191   -0.2055   -1.4384 C   0  0  0  0  0  0  0  0  0  0  0  0
   -0.6608    0.4248   -1.0856 C   0  0  0  0  0  0  0  0  0  0  0  0
   -0.8637    1.8988   -1.1332 C   0  0  0  0  0  0  0  0  0  0  0  0
    0.4870    2.6344   -1.1663 C   0  0  0  0  0  0  0  0  0  0  0  0
    1.5029    2.0090   -2.1396 C   0  0  0  0  0  0  0  0  0  0  0  0
    1.7233    0.4887   -1.9688 C   0  0  0  0  0  0  0  0  0  0  0  0
    2.8950    0.1281   -1.2026 N   0  0  0  0  0  0  0  0  0  0  0  0
    3.1663    0.4527    0.1047 C   0  0  0  0  0  0  0  0  0  0  0  0
    2.4826    1.1820    0.8095 O   0  0  0  0  0  0  0  0  0  0  0  0
    4.4018   -0.1837    0.5941 C   0  0  0  0  0  0  0  0  0  0  0  0
    4.9706   -0.0675    1.8877 C   0  0  0  0  0  0  0  0  0  0  0  0
    6.1085   -0.8395    1.8637 C   0  0  0  0  0  0  0  0  0  0  0  0
    7.1316   -1.1250    2.8927 C   0  0  0  0  0  0  0  0  0  0  0  0
    6.1676   -1.3630    0.6037 N   0  0  0  0  0  0  0  0  0  0  0  0
    5.1501   -0.9877   -0.1915 N   0  0  0  0  0  0  0  0  0  0  0  0
   -3.4940   -1.6047    0.3654 C   0  0  0  0  0  0  0  0  0  0  0  0
   -6.2583   -2.5163    2.0970 H   0  0  0  0  0  0  0  0  0  0  0  0
   -5.8127   -3.4868    0.6719 H   0  0  0  0  0  0  0  0  0  0  0  0
   -4.6902   -3.3201    2.0465 H   0  0  0  0  0  0  0  0  0  0  0  0
   -6.6593   -0.4477    0.8203 H   0  0  0  0  0  0  0  0  0  0  0  0
   -6.4674    1.6865   -1.3527 H   0  0  0  0  0  0  0  0  0  0  0  0
   -5.3190    2.7589   -0.5185 H   0  0  0  0  0  0  0  0  0  0  0  0
   -6.6406    2.0253    0.3881 H   0  0  0  0  0  0  0  0  0  0  0  0
   -3.3429    1.4847   -1.0679 H   0  0  0  0  0  0  0  0  0  0  0  0
    0.9716   -2.3930   -1.2805 H   0  0  0  0  0  0  0  0  0  0  0  0
   -1.4268    2.1555   -2.0385 H   0  0  0  0  0  0  0  0  0  0  0  0
   -1.4212    2.2549   -0.2604 H   0  0  0  0  0  0  0  0  0  0  0  0
    0.9070    2.6570   -0.1571 H   0  0  0  0  0  0  0  0  0  0  0  0
    0.3175    3.6823   -1.4430 H   0  0  0  0  0  0  0  0  0  0  0  0
    1.1175    2.1800   -3.1550 H   0  0  0  0  0  0  0  0  0  0  0  0
    2.4563    2.5478   -2.0819 H   0  0  0  0  0  0  0  0  0  0  0  0
    1.9250    0.0847   -2.9703 H   0  0  0  0  0  0  0  0  0  0  0  0
    3.5595   -0.5271   -1.6035 H   0  0  0  0  0  0  0  0  0  0  0  0
    4.5829    0.5087    2.7159 H   0  0  0  0  0  0  0  0  0  0  0  0
    8.0404   -0.5490    2.6967 H   0  0  0  0  0  0  0  0  0  0  0  0
    6.7681   -0.8599    3.8905 H   0  0  0  0  0  0  0  0  0  0  0  0
    7.3924   -2.1874    2.9025 H   0  0  0  0  0  0  0  0  0  0  0  0
    6.8730   -1.9833    0.2206 H   0  0  0  0  0  0  0  0  0  0  0  0
   -2.8976   -2.4972    0.5542 H   0  0  0  0  0  0  0  0  0  0  0  0
  1  2  1  0
  2  3  2  0
  3  4  1  0
  4  5  1  0
  4  6  2  0
  6  7  1  0
  7  8  1  0
  8  9  1  0
  9 10  2  0
 10 11  1  0
 11 12  2  0
 12 13  1  0
 13 14  1  0
 14 15  1  0
 15 16  1  0
 16 17  1  0
 17 18  1  0
 18 19  2  0
 18 20  1  0
 20 21  1  0
 21 22  2  0
 22 23  1  0
 22 24  1  0
 24 25  1  0
  7 26  2  0
 26  2  1  0
 12  8  1  0
 25 20  2  0
 16 11  1  0
  1 27  1  0
  1 28  1  0
  1 29  1  0
  3 30  1  0
  5 31  1  0
  5 32  1  0
  5 33  1  0
  6 34  1  0
 10 35  1  0
 13 36  1  0
 13 37  1  0
 14 38  1  0
 14 39  1  0
 15 40  1  0
 15 41  1  0
 16 42  1  0
 17 43  1  0
 21 44  1  0
 23 45  1  0
 23 46  1  0
 23 47  1  0
 24 48  1  0
 26 49  1  0
M  END
$$$$
