
     RDKit          3D

 38 40  0  0  0  0  0  0  0  0999 V2000
   -2.9075    2.7053   -1.0351 C   0  0  0  0  0  0  0  0  0  0  0  0
   -3.5180    1.4902   -0.4207 C   0  0  0  0  0  0  0  0  0  0  0  0
   -4.8611    1.2805   -0.1727 C   0  0  0  0  0  0  0  0  0  0  0  0
   -5.0131   -0.0332    0.2977 C   0  0  0  0  0  0  0  0  0  0  0  0
   -3.7593   -0.6107    0.3576 C   0  0  0  0  0  0  0  0  0  0  0  0
   -3.4276   -1.9620    0.8951 C   0  0  0  0  0  0  0  0  0  0  0  0
   -2.8242    0.3259   -0.0864 N   0  0  0  0  0  0  0  0  0  0  0  0
   -1.4201    0.1279   -0.1816 C   0  0  0  0  0  0  0  0  0  0  0  0
   -0.8842   -1.0556   -0.6762 C   0  0  0  0  0  0  0  0  0  0  0  0
    0.5033   -1.1954   -0.7516 C   0  0  0  0  0  0  0  0  0  0  0  0
    1.3404   -0.1625   -0.3239 C   0  0  0  0  0  0  0  0  0  0  0  0
    2.7373   -0.3128   -0.4252 N   0  0  0  0  0  0  0  0  0  0  0  0
    3.2565   -1.4336    0.3892 C   0  0  0  0  0  0  0  0  0  0  0  0
    4.7737   -1.5706    0.1749 C   0  0  0  0  0  0  0  0  0  0  0  0
    5.4670   -0.3505    0.4796 O   0  0  0  0  0  0  0  0  0  0  0  0
    4.9774    0.7157   -0.3518 C   0  0  0  0  0  0  0  0  0  0  0  0
    3.4717    0.9425   -0.1459 C   0  0  0  0  0  0  0  0  0  0  0  0
    0.8183    0.9920    0.1433 N   0  0  0  0  0  0  0  0  0  0  0  0
   -0.5311    1.1140    0.2127 C   0  0  0  0  0  0  0  0  0  0  0  0
   -2.1258    2.4482   -1.7561 H   0  0  0  0  0  0  0  0  0  0  0  0
   -2.4923    3.3621   -0.2652 H   0  0  0  0  0  0  0  0  0  0  0  0
   -3.6664    3.2791   -1.5790 H   0  0  0  0  0  0  0  0  0  0  0  0
   -5.6518    2.0009   -0.3424 H   0  0  0  0  0  0  0  0  0  0  0  0
   -5.9403   -0.5115    0.5882 H   0  0  0  0  0  0  0  0  0  0  0  0
   -3.3095   -2.6845    0.0824 H   0  0  0  0  0  0  0  0  0  0  0  0
   -4.2368   -2.3249    1.5389 H   0  0  0  0  0  0  0  0  0  0  0  0
   -2.5192   -1.9462    1.5046 H   0  0  0  0  0  0  0  0  0  0  0  0
   -1.5125   -1.8531   -1.0586 H   0  0  0  0  0  0  0  0  0  0  0  0
    0.9237   -2.0989   -1.1805 H   0  0  0  0  0  0  0  0  0  0  0  0
    2.7863   -2.3850    0.1181 H   0  0  0  0  0  0  0  0  0  0  0  0
    3.0573   -1.2383    1.4512 H   0  0  0  0  0  0  0  0  0  0  0  0
    4.9993   -1.8582   -0.8591 H   0  0  0  0  0  0  0  0  0  0  0  0
    5.1717   -2.3502    0.8321 H   0  0  0  0  0  0  0  0  0  0  0  0
    5.5299    1.6225   -0.0862 H   0  0  0  0  0  0  0  0  0  0  0  0
    5.2018    0.4811   -1.3993 H   0  0  0  0  0  0  0  0  0  0  0  0
    3.1438    1.7430   -0.8200 H   0  0  0  0  0  0  0  0  0  0  0  0
    3.3026    1.2560    0.8930 H   0  0  0  0  0  0  0  0  0  0  0  0
   -0.8612    2.0507    0.6498 H   0  0  0  0  0  0  0  0  0  0  0  0
  1  2  1  0
  2  3  2  0
  3  4  1  0
  4  5  2  0
  5  6  1  0
  5  7  1  0
  7  8  1  0
  8  9  2  0
  9 10  1  0
 10 11  2  0
 11 12  1  0
 12 13  1  0
 13 14  1  0
 14 15  1  0
 15 16  1  0
 16 17  1  0
 11 18  1  0
 18 19  2  0
  7  2  1  0
 19  8  1  0
 17 12  1  0
  1 20  1  0
  1 21  1  0
  1 22  1  0
  3 23  1  0
  4 24  1  0
  6 25  1  0
  6 26  1  0
  6 27  1  0
  9 28  1  0
 10 29  1  0
 13 30  1  0
 13 31  1  0
 14 32  1  0
 14 33  1  0
 16 34  1  0
 16 35  1  0
 17 36  1  0
 17 37  1  0
 19 38  1  0
M  END
$$$$
