
     RDKit          3D

 50 53  0  0  0  0  0  0  0  0999 V2000
   -7.6877   -1.3491    1.7362 C   0  0  0  0  0  0  0  0  0  0  0  0
   -6.3095   -0.8881    1.3587 C   0  0  0  0  0  0  0  0  0  0  0  0
   -5.3883   -0.5497    2.3539 C   0  0  0  0  0  0  0  0  0  0  0  0
   -4.0969   -0.1353    2.0155 C   0  0  0  0  0  0  0  0  0  0  0  0
   -3.7120   -0.0531    0.6727 C   0  0  0  0  0  0  0  0  0  0  0  0
   -2.2578    0.4100    0.3026 C   0  0  0  0  0  0  0  0  0  0  0  0
   -1.2295    0.6928    1.1944 C   0  0  0  0  0  0  0  0  0  0  0  0
   -0.0862    1.0407    0.4751 N   0  0  0  0  0  4  0  0  0  0  0  0
    1.2424    1.3577    1.0206 C   0  0  0  0  0  0  0  0  0  0  0  0
    2.3132    0.3516    0.5692 C   0  0  0  0  0  0  0  0  0  0  0  0
    2.0268   -0.5688   -0.1901 O   0  0  0  0  0  0  0  0  0  0  0  0
    3.5588    0.6188    1.1095 N   0  0  0  0  0  0  0  0  0  0  0  0
    4.7934   -0.0142    0.8157 C   0  0  0  0  0  0  0  0  0  0  0  0
    5.7334    0.0173    1.8662 C   0  0  0  0  0  0  0  0  0  0  0  0
    6.9879   -0.5814    1.7440 C   0  0  0  0  0  0  0  0  0  0  0  0
    7.3316   -1.2165    0.5607 C   0  0  0  0  0  0  0  0  0  0  0  0
    6.4296   -1.2263   -0.5009 C   0  0  0  0  0  0  0  0  0  0  0  0
    5.1666   -0.6013   -0.4075 C   0  0  0  0  0  0  0  0  0  0  0  0
    4.3424   -0.5941   -1.6663 C   0  0  0  0  0  0  0  0  0  0  0  0
   -0.3900    0.9509   -0.8182 C   0  0  0  0  0  0  0  0  0  0  0  0
   -1.6765    0.6318   -0.9320 N   0  0  0  0  0  0  0  0  0  0  0  0
   -2.0980    0.5685   -2.3233 C   0  0  0  0  0  0  0  0  0  0  0  0
   -0.9216    1.2312   -3.0910 C   0  0  0  0  0  0  0  0  0  0  0  0
    0.2778    1.1535   -2.1264 C   0  0  0  0  0  0  0  0  0  0  0  0
   -4.6262   -0.3970   -0.3231 C   0  0  0  0  0  0  0  0  0  0  0  0
   -5.9168   -0.8138    0.0192 C   0  0  0  0  0  0  0  0  0  0  0  0
   -8.1668   -0.6150    2.3917 H   0  0  0  0  0  0  0  0  0  0  0  0
   -8.3246   -1.4717    0.8541 H   0  0  0  0  0  0  0  0  0  0  0  0
   -7.6331   -2.3122    2.2515 H   0  0  0  0  0  0  0  0  0  0  0  0
   -5.6759   -0.6095    3.4026 H   0  0  0  0  0  0  0  0  0  0  0  0
   -3.4219    0.1190    2.8266 H   0  0  0  0  0  0  0  0  0  0  0  0
   -1.1627    0.6728    2.2687 H   0  0  0  0  0  0  0  0  0  0  0  0
    1.1880    1.3582    2.1144 H   0  0  0  0  0  0  0  0  0  0  0  0
    1.5190    2.3580    0.6712 H   0  0  0  0  0  0  0  0  0  0  0  0
    3.5672    1.1527    1.9693 H   0  0  0  0  0  0  0  0  0  0  0  0
    5.4973    0.4883    2.8178 H   0  0  0  0  0  0  0  0  0  0  0  0
    7.6924   -0.5581    2.5756 H   0  0  0  0  0  0  0  0  0  0  0  0
    8.3031   -1.6938    0.4573 H   0  0  0  0  0  0  0  0  0  0  0  0
    6.7294   -1.7131   -1.4268 H   0  0  0  0  0  0  0  0  0  0  0  0
    3.6842   -1.4675   -1.6956 H   0  0  0  0  0  0  0  0  0  0  0  0
    4.9835   -0.6360   -2.5553 H   0  0  0  0  0  0  0  0  0  0  0  0
    3.7690    0.3322   -1.7642 H   0  0  0  0  0  0  0  0  0  0  0  0
   -2.2144   -0.4804   -2.6102 H   0  0  0  0  0  0  0  0  0  0  0  0
   -3.0274    1.1214   -2.4765 H   0  0  0  0  0  0  0  0  0  0  0  0
   -0.7249    0.7508   -4.0528 H   0  0  0  0  0  0  0  0  0  0  0  0
   -1.1641    2.2824   -3.2819 H   0  0  0  0  0  0  0  0  0  0  0  0
    0.8945    0.2738   -2.3158 H   0  0  0  0  0  0  0  0  0  0  0  0
    0.8676    2.0692   -2.0879 H   0  0  0  0  0  0  0  0  0  0  0  0
   -4.3704   -0.3717   -1.3746 H   0  0  0  0  0  0  0  0  0  0  0  0
   -6.6158   -1.0863   -0.7695 H   0  0  0  0  0  0  0  0  0  0  0  0
  1  2  1  0
  2  3  2  0
  3  4  1  0
  4  5  2  0
  5  6  1  0
  6  7  2  0
  7  8  1  0
  8  9  1  0
  9 10  1  0
 10 11  2  0
 10 12  1  0
 12 13  1  0
 13 14  2  0
 14 15  1  0
 15 16  2  0
 16 17  1  0
 17 18  2  0
 18 19  1  0
  8 20  2  0
 20 21  1  0
 21 22  1  0
 22 23  1  0
 23 24  1  0
  5 25  1  0
 25 26  2  0
 26  2  1  0
 21  6  1  0
 18 13  1  0
 24 20  1  0
  1 27  1  0
  1 28  1  0
  1 29  1  0
  3 30  1  0
  4 31  1  0
  7 32  1  0
  9 33  1  0
  9 34  1  0
 12 35  1  0
 14 36  1  0
 15 37  1  0
 16 38  1  0
 17 39  1  0
 19 40  1  0
 19 41  1  0
 19 42  1  0
 22 43  1  0
 22 44  1  0
 23 45  1  0
 23 46  1  0
 24 47  1  0
 24 48  1  0
 25 49  1  0
 26 50  1  0
M  CHG  1   8   1
M  END
$$$$
