
     RDKit          3D

 42 44  0  0  0  0  0  0  0  0999 V2000
   -3.9238    4.0068    0.8721 C   0  0  0  0  0  0  0  0  0  0  0  0
   -4.0341    2.4929    0.9205 C   0  0  0  0  0  0  0  0  0  0  0  0
   -2.8750    1.9496    0.2935 O   0  0  0  0  0  0  0  0  0  0  0  0
   -2.7700    0.5789    0.2369 C   0  0  0  0  0  0  0  0  0  0  0  0
   -3.6655   -0.3174    0.8292 C   0  0  0  0  0  0  0  0  0  0  0  0
   -3.4713   -1.6941    0.6955 C   0  0  0  0  0  0  0  0  0  0  0  0
   -2.3919   -2.1815   -0.0373 C   0  0  0  0  0  0  0  0  0  0  0  0
   -1.4917   -1.2935   -0.6283 C   0  0  0  0  0  0  0  0  0  0  0  0
   -1.6575    0.0861   -0.4785 C   0  0  0  0  0  0  0  0  0  0  0  0
   -0.7987    1.0397   -1.0770 N   0  0  0  0  0  0  0  0  0  0  0  0
    0.3568    0.8855   -1.7595 C   0  0  0  0  0  0  0  0  0  0  0  0
    0.7513    1.9586   -2.9760 S   0  0  0  0  0  0  0  0  0  0  0  0
    1.2366   -0.1007   -1.4456 N   0  0  0  0  0  0  0  0  0  0  0  0
    1.6416   -0.3813   -0.0724 C   0  0  0  0  0  0  0  0  0  0  0  0
    2.8327    0.4883    0.3892 C   0  0  0  0  0  0  0  0  0  0  0  0
    3.8439   -0.5575    0.8955 C   0  0  0  0  0  0  0  0  0  0  0  0
    4.4601   -1.2708   -0.3193 C   0  0  0  0  0  0  0  0  0  0  0  0
    3.3128   -2.1626   -0.8127 C   0  0  0  0  0  0  0  0  0  0  0  0
    2.1640   -1.8184    0.1536 C   0  0  0  0  0  0  0  0  0  0  0  0
    2.9303   -1.6407    1.4675 C   0  0  0  0  0  0  0  0  0  0  0  0
   -3.7866    4.3542   -0.1578 H   0  0  0  0  0  0  0  0  0  0  0  0
   -3.0520    4.3426    1.4461 H   0  0  0  0  0  0  0  0  0  0  0  0
   -4.8200    4.4753    1.2899 H   0  0  0  0  0  0  0  0  0  0  0  0
   -4.0918    2.1756    1.9687 H   0  0  0  0  0  0  0  0  0  0  0  0
   -4.9355    2.1802    0.3808 H   0  0  0  0  0  0  0  0  0  0  0  0
   -4.5246    0.0186    1.4001 H   0  0  0  0  0  0  0  0  0  0  0  0
   -4.1722   -2.3879    1.1523 H   0  0  0  0  0  0  0  0  0  0  0  0
   -2.2554   -3.2531   -0.1599 H   0  0  0  0  0  0  0  0  0  0  0  0
   -0.6834   -1.6986   -1.2270 H   0  0  0  0  0  0  0  0  0  0  0  0
   -1.2266    1.9575   -1.1588 H   0  0  0  0  0  0  0  0  0  0  0  0
    2.0093   -0.1001   -2.1031 H   0  0  0  0  0  0  0  0  0  0  0  0
    0.8077   -0.1818    0.6080 H   0  0  0  0  0  0  0  0  0  0  0  0
    3.2518    1.1150   -0.4039 H   0  0  0  0  0  0  0  0  0  0  0  0
    2.5199    1.1450    1.2094 H   0  0  0  0  0  0  0  0  0  0  0  0
    4.5844   -0.1498    1.5864 H   0  0  0  0  0  0  0  0  0  0  0  0
    4.7984   -0.5696   -1.0892 H   0  0  0  0  0  0  0  0  0  0  0  0
    5.3145   -1.8875   -0.0183 H   0  0  0  0  0  0  0  0  0  0  0  0
    3.5940   -3.2181   -0.7120 H   0  0  0  0  0  0  0  0  0  0  0  0
    3.0708   -1.9851   -1.8643 H   0  0  0  0  0  0  0  0  0  0  0  0
    1.3754   -2.5731    0.1719 H   0  0  0  0  0  0  0  0  0  0  0  0
    3.4690   -2.5412    1.7796 H   0  0  0  0  0  0  0  0  0  0  0  0
    2.3024   -1.2862    2.2919 H   0  0  0  0  0  0  0  0  0  0  0  0
  1  2  1  0
  2  3  1  0
  3  4  1  0
  4  5  2  0
  5  6  1  0
  6  7  2  0
  7  8  1  0
  8  9  2  0
  9 10  1  0
 10 11  1  0
 11 12  2  0
 11 13  1  0
 13 14  1  0
 14 15  1  0
 15 16  1  0
 16 17  1  0
 17 18  1  0
 18 19  1  0
 19 20  1  0
  9  4  1  0
 19 14  1  0
 20 16  1  0
  1 21  1  0
  1 22  1  0
  1 23  1  0
  2 24  1  0
  2 25  1  0
  5 26  1  0
  6 27  1  0
  7 28  1  0
  8 29  1  0
 10 30  1  0
 13 31  1  0
 14 32  1  0
 15 33  1  0
 15 34  1  0
 16 35  1  0
 17 36  1  0
 17 37  1  0
 18 38  1  0
 18 39  1  0
 19 40  1  0
 20 41  1  0
 20 42  1  0
M  END
$$$$
