
     RDKit          3D

 43 45  0  0  0  0  0  0  0  0999 V2000
    4.7877    2.3891    1.0365 C   0  0  0  0  0  0  0  0  0  0  0  0
    5.5325    1.2638    0.5864 O   0  0  0  0  0  0  0  0  0  0  0  0
    4.8122    0.1892    0.1356 C   0  0  0  0  0  0  0  0  0  0  0  0
    5.5873   -0.8875   -0.2948 C   0  0  0  0  0  0  0  0  0  0  0  0
    5.0054   -2.0611   -0.7842 C   0  0  0  0  0  0  0  0  0  0  0  0
    3.6091   -2.1187   -0.8277 C   0  0  0  0  0  0  0  0  0  0  0  0
    2.7814   -3.1284   -1.2535 N   0  0  0  0  0  0  0  0  0  0  0  0
    1.4704   -2.7546   -1.1191 C   0  0  0  0  0  0  0  0  0  0  0  0
    1.4278   -1.4732   -0.5938 C   0  0  0  0  0  0  0  0  0  0  0  0
    0.2160   -0.6934   -0.2914 C   0  0  0  0  0  0  0  0  0  0  0  0
    0.3084    0.4449    0.1687 O   0  0  0  0  0  0  0  0  0  0  0  0
   -1.1392   -1.3700   -0.5834 C   0  0  0  0  0  0  0  0  0  0  0  0
   -2.3466   -0.5887   -0.2488 N   0  0  0  0  0  0  0  0  0  0  0  0
   -2.4827   -0.2779    1.1702 C   0  0  0  0  0  0  0  0  0  0  0  0
   -3.9203    0.1646    1.4777 C   0  0  0  0  0  0  0  0  0  0  0  0
   -4.5473    1.0194    0.3603 C   0  0  0  0  0  0  0  0  0  0  0  0
   -5.4899    2.0745    0.9322 C   0  0  0  0  0  0  0  0  0  0  0  0
   -3.4554    1.6515   -0.5053 C   0  0  0  0  0  0  0  0  0  0  0  0
   -2.5400    0.5796   -1.1160 C   0  0  0  0  0  0  0  0  0  0  0  0
    2.7947   -1.0667   -0.4079 C   0  0  0  0  0  0  0  0  0  0  0  0
    3.4159    0.1070    0.0821 C   0  0  0  0  0  0  0  0  0  0  0  0
    4.1639    2.1310    1.8987 H   0  0  0  0  0  0  0  0  0  0  0  0
    5.5009    3.1535    1.3597 H   0  0  0  0  0  0  0  0  0  0  0  0
    4.1880    2.8160    0.2258 H   0  0  0  0  0  0  0  0  0  0  0  0
    6.6718   -0.8127   -0.2487 H   0  0  0  0  0  0  0  0  0  0  0  0
    5.6233   -2.8893   -1.1150 H   0  0  0  0  0  0  0  0  0  0  0  0
    3.1032   -4.0170   -1.6134 H   0  0  0  0  0  0  0  0  0  0  0  0
    0.6857   -3.4400   -1.4117 H   0  0  0  0  0  0  0  0  0  0  0  0
   -1.1727   -1.6245   -1.6498 H   0  0  0  0  0  0  0  0  0  0  0  0
   -1.1756   -2.3130   -0.0246 H   0  0  0  0  0  0  0  0  0  0  0  0
   -2.2608   -1.1577    1.7864 H   0  0  0  0  0  0  0  0  0  0  0  0
   -1.7870    0.5101    1.4812 H   0  0  0  0  0  0  0  0  0  0  0  0
   -4.5525   -0.7196    1.6321 H   0  0  0  0  0  0  0  0  0  0  0  0
   -3.9158    0.7077    2.4309 H   0  0  0  0  0  0  0  0  0  0  0  0
   -5.1445    0.3561   -0.2808 H   0  0  0  0  0  0  0  0  0  0  0  0
   -4.9525    2.7853    1.5691 H   0  0  0  0  0  0  0  0  0  0  0  0
   -6.2765    1.6064    1.5332 H   0  0  0  0  0  0  0  0  0  0  0  0
   -5.9726    2.6399    0.1283 H   0  0  0  0  0  0  0  0  0  0  0  0
   -3.8997    2.2499   -1.3095 H   0  0  0  0  0  0  0  0  0  0  0  0
   -2.8549    2.3384    0.1058 H   0  0  0  0  0  0  0  0  0  0  0  0
   -2.9875    0.2274   -2.0536 H   0  0  0  0  0  0  0  0  0  0  0  0
   -1.5951    1.0637   -1.3871 H   0  0  0  0  0  0  0  0  0  0  0  0
    2.7833    0.9247    0.4084 H   0  0  0  0  0  0  0  0  0  0  0  0
  1  2  1  0
  2  3  1  0
  3  4  2  0
  4  5  1  0
  5  6  2  0
  6  7  1  0
  7  8  1  0
  8  9  2  0
  9 10  1  0
 10 11  2  0
 10 12  1  0
 12 13  1  0
 13 14  1  0
 14 15  1  0
 15 16  1  0
 16 17  1  0
 16 18  1  0
 18 19  1  0
  9 20  1  0
 20 21  2  0
 21  3  1  0
 20  6  1  0
 19 13  1  0
  1 22  1  0
  1 23  1  0
  1 24  1  0
  4 25  1  0
  5 26  1  0
  7 27  1  0
  8 28  1  0
 12 29  1  0
 12 30  1  0
 14 31  1  0
 14 32  1  0
 15 33  1  0
 15 34  1  0
 16 35  1  0
 17 36  1  0
 17 37  1  0
 17 38  1  0
 18 39  1  0
 18 40  1  0
 19 41  1  0
 19 42  1  0
 21 43  1  0
M  END
$$$$
