
     RDKit          3D

 31 33  0  0  0  0  0  0  0  0999 V2000
   -1.7153   -1.7055    2.9724 O   0  0  0  0  0  0  0  0  0  0  0  0
   -2.5744   -0.8953    2.6691 C   0  0  0  0  0  0  0  0  0  0  0  0
   -3.7483   -0.8531    3.3236 O   0  0  0  0  0  0  0  0  0  0  0  0
   -2.4622    0.1155    1.5851 C   0  0  0  0  0  0  0  0  0  0  0  0
   -3.5570    0.9461    1.2879 C   0  0  0  0  0  0  0  0  0  0  0  0
   -3.4722    1.8876    0.2636 C   0  0  0  0  0  0  0  0  0  0  0  0
   -2.2994    2.0004   -0.4748 C   0  0  0  0  0  0  0  0  0  0  0  0
   -1.2056    1.1789   -0.1877 C   0  0  0  0  0  0  0  0  0  0  0  0
   -1.2586    0.2473    0.8582 C   0  0  0  0  0  0  0  0  0  0  0  0
   -0.1591   -0.6497    1.1049 N   0  0  0  0  0  0  0  0  0  0  0  0
    1.4464   -0.1255    1.0697 S   0  0  0  0  0  6  0  0  0  0  0  0
    1.4570    1.3019    1.2999 O   0  0  0  0  0  0  0  0  0  0  0  0
    2.1742   -1.0525    1.9092 O   0  0  0  0  0  0  0  0  0  0  0  0
    1.9637   -0.4465   -0.5781 C   0  0  0  0  0  0  0  0  0  0  0  0
    1.2434   -1.3089   -1.4362 C   0  0  0  0  0  0  0  0  0  0  0  0
    1.6419   -1.5804   -2.7659 C   0  0  0  0  0  0  0  0  0  0  0  0
    2.7919   -1.0225   -3.3478 C   0  0  0  0  0  0  0  0  0  0  0  0
    3.5588   -0.1632   -2.5243 C   0  0  0  0  0  0  0  0  0  0  0  0
    4.6891    0.4588   -2.8909 N   0  0  0  0  0  0  0  0  0  0  0  0
    5.1972    1.3268   -1.5709 S   0  0  0  0  0  0  0  0  0  0  0  0
    4.0032    0.9574   -0.4830 N   0  0  0  0  0  0  0  0  0  0  0  0
    3.1419    0.1339   -1.1014 C   0  0  0  0  0  0  0  0  0  0  0  0
   -3.6727   -1.5512    4.0083 H   0  0  0  0  0  0  0  0  0  0  0  0
   -4.4857    0.8662    1.8489 H   0  0  0  0  0  0  0  0  0  0  0  0
   -4.3214    2.5295    0.0409 H   0  0  0  0  0  0  0  0  0  0  0  0
   -2.2306    2.7314   -1.2776 H   0  0  0  0  0  0  0  0  0  0  0  0
   -0.3141    1.3002   -0.7950 H   0  0  0  0  0  0  0  0  0  0  0  0
   -0.2941   -1.3263    1.8722 H   0  0  0  0  0  0  0  0  0  0  0  0
    0.3423   -1.8037   -1.0723 H   0  0  0  0  0  0  0  0  0  0  0  0
    1.0318   -2.2577   -3.3655 H   0  0  0  0  0  0  0  0  0  0  0  0
    3.0880   -1.2401   -4.3674 H   0  0  0  0  0  0  0  0  0  0  0  0
  1  2  2  0
  2  3  1  0
  2  4  1  0
  4  5  2  0
  5  6  1  0
  6  7  2  0
  7  8  1  0
  8  9  2  0
  9 10  1  0
 10 11  1  0
 11 12  2  0
 11 13  2  0
 11 14  1  0
 14 15  2  0
 15 16  1  0
 16 17  2  0
 17 18  1  0
 18 19  2  0
 19 20  1  0
 20 21  1  0
 21 22  2  0
  9  4  1  0
 22 14  1  0
 22 18  1  0
  3 23  1  0
  5 24  1  0
  6 25  1  0
  7 26  1  0
  8 27  1  0
 10 28  1  0
 15 29  1  0
 16 30  1  0
 17 31  1  0
M  END
$$$$
