
     RDKit          3D

 57 60  0  0  0  0  0  0  0  0999 V2000
    9.1388    0.8022    1.3360 C   0  0  0  0  0  0  0  0  0  0  0  0
    7.9931    1.3972    0.5408 C   0  0  0  0  0  0  0  0  0  0  0  0
    6.7644    0.9912    1.1564 O   0  0  0  0  0  0  0  0  0  0  0  0
    5.6442    1.4392    0.5223 C   0  0  0  0  0  0  0  0  0  0  0  0
    5.6465    2.1636   -0.4636 O   0  0  0  0  0  0  0  0  0  0  0  0
    4.3979    0.9756    1.2577 C   0  0  0  0  0  0  0  0  0  0  0  0
    3.1384    1.3659    0.4742 C   0  0  0  0  0  0  0  0  0  0  0  0
    1.8712    0.8394    1.1336 C   0  0  0  0  0  0  0  0  0  0  0  0
    1.9448   -0.6171    1.3990 N   0  0  0  0  0  0  0  0  0  0  0  0
    1.5044   -1.6889    0.1493 S   0  0  0  0  0  6  0  0  0  0  0  0
    1.5308   -3.0375    0.6732 O   0  0  0  0  0  0  0  0  0  0  0  0
    2.2656   -1.3310   -1.0286 O   0  0  0  0  0  0  0  0  0  0  0  0
   -0.1999   -1.2789   -0.1401 C   0  0  0  0  0  0  0  0  0  0  0  0
   -1.1257   -1.4596    0.9015 C   0  0  0  0  0  0  0  0  0  0  0  0
   -2.4729   -1.1381    0.7063 C   0  0  0  0  0  0  0  0  0  0  0  0
   -2.8678   -0.6466   -0.5287 C   0  0  0  0  0  0  0  0  0  0  0  0
   -1.9402   -0.4813   -1.5613 C   0  0  0  0  0  0  0  0  0  0  0  0
   -0.5991   -0.7931   -1.3884 C   0  0  0  0  0  0  0  0  0  0  0  0
   -2.5922    0.0259   -2.8063 C   0  0  0  0  0  0  0  0  0  0  0  0
   -4.0435    0.2214   -2.3520 C   0  0  0  0  0  0  0  0  0  0  0  0
   -4.1484   -0.2558   -0.9634 N   0  0  0  0  0  0  0  0  0  0  0  0
   -5.3175   -0.2897   -0.2076 C   0  0  0  0  0  0  0  0  0  0  0  0
   -5.3486   -0.6735    0.9675 O   0  0  0  0  0  0  0  0  0  0  0  0
   -6.6077    0.1956   -0.9433 C   0  0  0  0  0  0  0  0  0  0  0  0
   -7.3566   -0.8495   -1.8166 C   0  0  0  0  0  0  0  0  0  0  0  0
   -8.2935   -1.1007   -0.6225 C   0  0  0  0  0  0  0  0  0  0  0  0
   -7.9183    0.3009   -0.1119 C   0  0  0  0  0  0  0  0  0  0  0  0
    3.1410   -0.9986    2.1851 C   0  0  0  0  0  0  0  0  0  0  0  0
    4.4208   -0.5370    1.5030 C   0  0  0  0  0  0  0  0  0  0  0  0
    9.1041    1.1430    2.3760 H   0  0  0  0  0  0  0  0  0  0  0  0
    9.0671   -0.2903    1.3565 H   0  0  0  0  0  0  0  0  0  0  0  0
   10.1025    1.0850    0.9033 H   0  0  0  0  0  0  0  0  0  0  0  0
    8.0294    1.0305   -0.4912 H   0  0  0  0  0  0  0  0  0  0  0  0
    8.0658    2.4904    0.5482 H   0  0  0  0  0  0  0  0  0  0  0  0
    4.3842    1.5034    2.2206 H   0  0  0  0  0  0  0  0  0  0  0  0
    3.2087    0.9942   -0.5549 H   0  0  0  0  0  0  0  0  0  0  0  0
    3.0733    2.4584    0.3955 H   0  0  0  0  0  0  0  0  0  0  0  0
    1.7123    1.3476    2.0930 H   0  0  0  0  0  0  0  0  0  0  0  0
    0.9991    1.0839    0.5201 H   0  0  0  0  0  0  0  0  0  0  0  0
   -0.7998   -1.8518    1.8630 H   0  0  0  0  0  0  0  0  0  0  0  0
   -3.1771   -1.2825    1.5189 H   0  0  0  0  0  0  0  0  0  0  0  0
    0.1121   -0.6673   -2.1998 H   0  0  0  0  0  0  0  0  0  0  0  0
   -2.1500    0.9696   -3.1396 H   0  0  0  0  0  0  0  0  0  0  0  0
   -2.5290   -0.7148   -3.6097 H   0  0  0  0  0  0  0  0  0  0  0  0
   -4.3227    1.2808   -2.3807 H   0  0  0  0  0  0  0  0  0  0  0  0
   -4.7410   -0.3340   -2.9875 H   0  0  0  0  0  0  0  0  0  0  0  0
   -6.4252    1.1383   -1.4756 H   0  0  0  0  0  0  0  0  0  0  0  0
   -6.7764   -1.7179   -2.1405 H   0  0  0  0  0  0  0  0  0  0  0  0
   -7.8554   -0.4128   -2.6896 H   0  0  0  0  0  0  0  0  0  0  0  0
   -9.3476   -1.2505   -0.8688 H   0  0  0  0  0  0  0  0  0  0  0  0
   -7.9622   -1.9129    0.0345 H   0  0  0  0  0  0  0  0  0  0  0  0
   -8.5933    1.0920   -0.4600 H   0  0  0  0  0  0  0  0  0  0  0  0
   -7.8077    0.3919    0.9718 H   0  0  0  0  0  0  0  0  0  0  0  0
    3.0567   -0.5416    3.1791 H   0  0  0  0  0  0  0  0  0  0  0  0
    3.1681   -2.0794    2.3564 H   0  0  0  0  0  0  0  0  0  0  0  0
    5.2740   -0.8087    2.1358 H   0  0  0  0  0  0  0  0  0  0  0  0
    4.5601   -1.0681    0.5531 H   0  0  0  0  0  0  0  0  0  0  0  0
  1  2  1  0
  2  3  1  0
  3  4  1  0
  4  5  2  0
  4  6  1  0
  6  7  1  0
  7  8  1  0
  8  9  1  0
  9 10  1  0
 10 11  2  0
 10 12  2  0
 10 13  1  0
 13 14  2  0
 14 15  1  0
 15 16  2  0
 16 17  1  0
 17 18  2  0
 17 19  1  0
 19 20  1  0
 20 21  1  0
 21 22  1  0
 22 23  2  0
 22 24  1  0
 24 25  1  0
 25 26  1  0
 26 27  1  0
  9 28  1  0
 28 29  1  0
 29  6  1  0
 18 13  1  0
 27 24  1  0
 21 16  1  0
  1 30  1  0
  1 31  1  0
  1 32  1  0
  2 33  1  0
  2 34  1  0
  6 35  1  0
  7 36  1  0
  7 37  1  0
  8 38  1  0
  8 39  1  0
 14 40  1  0
 15 41  1  0
 18 42  1  0
 19 43  1  0
 19 44  1  0
 20 45  1  0
 20 46  1  0
 24 47  1  0
 25 48  1  0
 25 49  1  0
 26 50  1  0
 26 51  1  0
 27 52  1  0
 27 53  1  0
 28 54  1  0
 28 55  1  0
 29 56  1  0
 29 57  1  0
M  END
$$$$
