
     RDKit          3D

 36 37  0  0  0  0  0  0  0  0999 V2000
    5.6342   -2.7412   -0.4561 C   0  0  0  0  0  0  0  0  0  0  0  0
    4.6403   -2.1735   -1.2999 O   0  0  0  0  0  0  0  0  0  0  0  0
    3.7786   -1.2788   -0.7274 C   0  0  0  0  0  0  0  0  0  0  0  0
    3.7783   -0.8814    0.6120 C   0  0  0  0  0  0  0  0  0  0  0  0
    2.8366    0.0462    1.0711 C   0  0  0  0  0  0  0  0  0  0  0  0
    1.8883    0.5672    0.1865 C   0  0  0  0  0  0  0  0  0  0  0  0
    0.7207    1.7789    0.7563 S   0  0  0  0  0  6  0  0  0  0  0  0
    1.2464    2.3650    1.9728 O   0  0  0  0  0  0  0  0  0  0  0  0
    0.3346    2.6033   -0.3708 O   0  0  0  0  0  0  0  0  0  0  0  0
   -0.6252    0.8341    1.2218 N   0  0  0  0  0  0  0  0  0  0  0  0
   -1.0348   -0.3035    0.3622 N   0  0  0  0  0  0  0  0  0  0  0  0
   -2.2828   -0.3289   -0.0021 C   0  0  0  0  0  0  0  0  0  0  0  0
   -2.7455   -1.4996   -0.8366 C   0  0  0  0  0  0  0  0  0  0  0  0
   -3.3034    0.6861    0.3401 C   0  0  0  0  0  0  0  0  0  0  0  0
   -3.1517    2.0001   -0.0925 C   0  0  0  0  0  0  0  0  0  0  0  0
   -4.1428    2.9013    0.2447 C   0  0  0  0  0  0  0  0  0  0  0  0
   -5.2446    2.5717    0.9557 N   0  0  0  0  0  0  0  0  0  0  0  0
   -5.3615    1.2863    1.3536 C   0  0  0  0  0  0  0  0  0  0  0  0
   -4.4263    0.3081    1.0719 C   0  0  0  0  0  0  0  0  0  0  0  0
    1.8910    0.1891   -1.1573 C   0  0  0  0  0  0  0  0  0  0  0  0
    2.8332   -0.7383   -1.6057 C   0  0  0  0  0  0  0  0  0  0  0  0
    6.3025   -1.9701   -0.0589 H   0  0  0  0  0  0  0  0  0  0  0  0
    6.2372   -3.4240   -1.0624 H   0  0  0  0  0  0  0  0  0  0  0  0
    5.1798   -3.3256    0.3508 H   0  0  0  0  0  0  0  0  0  0  0  0
    4.4994   -1.2702    1.3236 H   0  0  0  0  0  0  0  0  0  0  0  0
    2.8548    0.3566    2.1134 H   0  0  0  0  0  0  0  0  0  0  0  0
   -0.5870    0.6511    2.2283 H   0  0  0  0  0  0  0  0  0  0  0  0
   -2.0401   -1.6607   -1.6574 H   0  0  0  0  0  0  0  0  0  0  0  0
   -2.7741   -2.3968   -0.2115 H   0  0  0  0  0  0  0  0  0  0  0  0
   -3.7376   -1.3255   -1.2616 H   0  0  0  0  0  0  0  0  0  0  0  0
   -2.2918    2.3166   -0.6722 H   0  0  0  0  0  0  0  0  0  0  0  0
   -4.0784    3.9431   -0.0572 H   0  0  0  0  0  0  0  0  0  0  0  0
   -6.2580    1.0598    1.9242 H   0  0  0  0  0  0  0  0  0  0  0  0
   -4.5693   -0.7074    1.4212 H   0  0  0  0  0  0  0  0  0  0  0  0
    1.1647    0.6025   -1.8530 H   0  0  0  0  0  0  0  0  0  0  0  0
    2.8345   -1.0417   -2.6502 H   0  0  0  0  0  0  0  0  0  0  0  0
  1  2  1  0
  2  3  1  0
  3  4  2  0
  4  5  1  0
  5  6  2  0
  6  7  1  0
  7  8  2  0
  7  9  2  0
  7 10  1  0
 10 11  1  0
 11 12  2  3
 12 13  1  0
 12 14  1  0
 14 15  2  0
 15 16  1  0
 16 17  2  0
 17 18  1  0
 18 19  2  0
  6 20  1  0
 20 21  2  0
 21  3  1  0
 19 14  1  0
  1 22  1  0
  1 23  1  0
  1 24  1  0
  4 25  1  0
  5 26  1  0
 10 27  1  0
 13 28  1  0
 13 29  1  0
 13 30  1  0
 15 31  1  0
 16 32  1  0
 18 33  1  0
 19 34  1  0
 20 35  1  0
 21 36  1  0
M  END
$$$$
