
     RDKit          3D

 66 68  0  0  0  0  0  0  0  0999 V2000
   -2.8485   -3.0233    4.0673 C   0  0  0  0  0  0  0  0  0  0  0  0
   -1.7516   -2.3554    3.2433 C   0  0  0  0  0  0  0  0  0  0  0  0
   -2.1481   -2.1572    1.8360 N   0  0  0  0  0  0  0  0  0  0  0  0
   -2.2238   -3.4382    1.1100 C   0  0  0  0  0  0  0  0  0  0  0  0
   -3.6318   -3.6393    0.5651 C   0  0  0  0  0  0  0  0  0  0  0  0
   -1.2178   -1.2073    1.1847 C   0  0  0  0  0  0  0  0  0  0  0  0
   -1.7398   -0.7076   -0.1737 C   0  0  0  0  0  0  0  0  0  0  0  0
   -0.8363    0.3051   -0.9294 C   0  0  0  0  0  0  0  0  0  0  0  0
    0.3328   -0.2584   -1.7429 C   0  0  0  0  0  0  0  0  0  0  0  0
    0.7784   -1.5780   -1.6564 C   0  0  0  0  0  0  0  0  0  0  0  0
    1.8535   -2.0299   -2.4376 C   0  0  0  0  0  0  0  0  0  0  0  0
    2.5320   -1.1956   -3.3403 C   0  0  0  0  0  0  0  0  0  0  0  0
    3.5968   -1.6904   -4.1115 N   0  0  0  0  0  0  0  0  0  0  0  0
    4.5921   -2.4670   -3.3660 C   0  0  0  0  0  0  0  0  0  0  0  0
    4.1501   -0.8409   -5.1644 C   0  0  0  0  0  0  0  0  0  0  0  0
    2.0548    0.1169   -3.4431 C   0  0  0  0  0  0  0  0  0  0  0  0
    0.9851    0.5787   -2.6616 C   0  0  0  0  0  0  0  0  0  0  0  0
   -0.4845    1.5294   -0.0780 C   0  0  0  0  0  0  0  0  0  0  0  0
   -1.3198    2.6579   -0.0771 C   0  0  0  0  0  0  0  0  0  0  0  0
   -2.4475    2.6530   -0.8610 O   0  0  0  0  0  0  0  0  0  0  0  0
   -3.6360    2.7313   -0.0717 C   0  0  0  0  0  0  0  0  0  0  0  0
   -0.9941    3.8134    0.6480 C   0  0  0  0  0  0  0  0  0  0  0  0
    0.1561    3.8552    1.4405 C   0  0  0  0  0  0  0  0  0  0  0  0
    0.5448    4.9406    2.1855 O   0  0  0  0  0  0  0  0  0  0  0  0
   -0.2712    6.1045    2.1312 C   0  0  0  0  0  0  0  0  0  0  0  0
    0.9861    2.7229    1.5020 C   0  0  0  0  0  0  0  0  0  0  0  0
    2.1964    2.6827    2.3212 C   0  0  0  0  0  0  0  0  0  0  0  0
    2.9516    1.5825    2.3694 C   0  0  0  0  0  0  0  0  0  0  0  0
    2.6107    0.3673    1.6191 C   0  0  0  0  0  0  0  0  0  0  0  0
    3.3011   -0.6417    1.7061 O   0  0  0  0  0  0  0  0  0  0  0  0
    1.4707    0.4321    0.8355 O   0  0  0  0  0  0  0  0  0  0  0  0
    0.6526    1.5868    0.7495 C   0  0  0  0  0  0  0  0  0  0  0  0
   -2.5369   -3.0921    5.1156 H   0  0  0  0  0  0  0  0  0  0  0  0
   -3.7743   -2.4386    4.0317 H   0  0  0  0  0  0  0  0  0  0  0  0
   -3.0689   -4.0383    3.7230 H   0  0  0  0  0  0  0  0  0  0  0  0
   -1.5597   -1.3827    3.7143 H   0  0  0  0  0  0  0  0  0  0  0  0
   -0.8200   -2.9320    3.3142 H   0  0  0  0  0  0  0  0  0  0  0  0
   -1.5054   -3.4902    0.2833 H   0  0  0  0  0  0  0  0  0  0  0  0
   -1.9758   -4.2940    1.7511 H   0  0  0  0  0  0  0  0  0  0  0  0
   -3.9079   -2.8501   -0.1408 H   0  0  0  0  0  0  0  0  0  0  0  0
   -3.6928   -4.5962    0.0376 H   0  0  0  0  0  0  0  0  0  0  0  0
   -4.3727   -3.6530    1.3716 H   0  0  0  0  0  0  0  0  0  0  0  0
   -1.1236   -0.3326    1.8377 H   0  0  0  0  0  0  0  0  0  0  0  0
   -0.2218   -1.6529    1.0992 H   0  0  0  0  0  0  0  0  0  0  0  0
   -2.7103   -0.2259    0.0086 H   0  0  0  0  0  0  0  0  0  0  0  0
   -1.9520   -1.5488   -0.8429 H   0  0  0  0  0  0  0  0  0  0  0  0
   -1.4941    0.6632   -1.7369 H   0  0  0  0  0  0  0  0  0  0  0  0
    0.3110   -2.2948   -0.9903 H   0  0  0  0  0  0  0  0  0  0  0  0
    2.1341   -3.0749   -2.3440 H   0  0  0  0  0  0  0  0  0  0  0  0
    5.4225   -2.7586   -4.0199 H   0  0  0  0  0  0  0  0  0  0  0  0
    5.0103   -1.8825   -2.5383 H   0  0  0  0  0  0  0  0  0  0  0  0
    4.1749   -3.4002   -2.9753 H   0  0  0  0  0  0  0  0  0  0  0  0
    3.3665   -0.4908   -5.8456 H   0  0  0  0  0  0  0  0  0  0  0  0
    4.8578   -1.4096   -5.7785 H   0  0  0  0  0  0  0  0  0  0  0  0
    4.6852    0.0193   -4.7454 H   0  0  0  0  0  0  0  0  0  0  0  0
    2.5143    0.8293   -4.1198 H   0  0  0  0  0  0  0  0  0  0  0  0
    0.6644    1.6120   -2.7804 H   0  0  0  0  0  0  0  0  0  0  0  0
   -3.6011    2.0496    0.7854 H   0  0  0  0  0  0  0  0  0  0  0  0
   -4.4762    2.4330   -0.7055 H   0  0  0  0  0  0  0  0  0  0  0  0
   -3.8136    3.7578    0.2630 H   0  0  0  0  0  0  0  0  0  0  0  0
   -1.6509    4.6721    0.5603 H   0  0  0  0  0  0  0  0  0  0  0  0
   -0.3118    6.5103    1.1151 H   0  0  0  0  0  0  0  0  0  0  0  0
    0.1863    6.8630    2.7738 H   0  0  0  0  0  0  0  0  0  0  0  0
   -1.2752    5.9007    2.5194 H   0  0  0  0  0  0  0  0  0  0  0  0
    2.4715    3.5657    2.8889 H   0  0  0  0  0  0  0  0  0  0  0  0
    3.8511    1.5327    2.9699 H   0  0  0  0  0  0  0  0  0  0  0  0
  1  2  1  0
  2  3  1  0
  3  4  1  0
  4  5  1  0
  3  6  1  0
  6  7  1  0
  7  8  1  0
  8  9  1  0
  9 10  2  0
 10 11  1  0
 11 12  2  0
 12 13  1  0
 13 14  1  0
 13 15  1  0
 12 16  1  0
 16 17  2  0
  8 18  1  0
 18 19  2  0
 19 20  1  0
 20 21  1  0
 19 22  1  0
 22 23  2  0
 23 24  1  0
 24 25  1  0
 23 26  1  0
 26 27  1  0
 27 28  2  0
 28 29  1  0
 29 30  2  0
 29 31  1  0
 31 32  1  0
 17  9  1  0
 32 18  1  0
 32 26  2  0
  1 33  1  0
  1 34  1  0
  1 35  1  0
  2 36  1  0
  2 37  1  0
  4 38  1  0
  4 39  1  0
  5 40  1  0
  5 41  1  0
  5 42  1  0
  6 43  1  0
  6 44  1  0
  7 45  1  0
  7 46  1  0
  8 47  1  0
 10 48  1  0
 11 49  1  0
 14 50  1  0
 14 51  1  0
 14 52  1  0
 15 53  1  0
 15 54  1  0
 15 55  1  0
 16 56  1  0
 17 57  1  0
 21 58  1  0
 21 59  1  0
 21 60  1  0
 22 61  1  0
 25 62  1  0
 25 63  1  0
 25 64  1  0
 27 65  1  0
 28 66  1  0
M  END
$$$$
