
     RDKit          3D

 38 40  0  0  0  0  0  0  0  0999 V2000
   -5.1970   -0.2293   -1.3041 C   0  0  0  0  0  0  0  0  0  0  0  0
   -4.8035   -1.0748   -0.2293 O   0  0  0  0  0  0  0  0  0  0  0  0
   -3.4786   -1.0459    0.1223 C   0  0  0  0  0  0  0  0  0  0  0  0
   -2.4841   -0.2641   -0.4658 C   0  0  0  0  0  0  0  0  0  0  0  0
   -1.1487   -0.3189   -0.0069 C   0  0  0  0  0  0  0  0  0  0  0  0
   -0.8239   -1.1919    1.0471 C   0  0  0  0  0  0  0  0  0  0  0  0
   -1.8209   -1.9845    1.6307 C   0  0  0  0  0  0  0  0  0  0  0  0
   -3.1278   -1.8976    1.1716 C   0  0  0  0  0  0  0  0  0  0  0  0
   -4.0763   -2.6829    1.7690 O   0  0  0  0  0  0  0  0  0  0  0  0
    0.6011   -1.3500    1.4966 C   0  0  0  0  0  0  0  0  0  0  0  0
    1.4651   -0.1410    1.1522 C   0  0  0  0  0  0  0  0  0  0  0  0
    1.2842    0.2750   -0.2378 N   0  0  0  0  0  0  0  0  0  0  0  0
    2.3185    0.6654   -1.1038 C   0  0  0  0  0  0  0  0  0  0  0  0
    2.0766    0.8813   -2.2942 O   0  0  0  0  0  0  0  0  0  0  0  0
    3.6719    0.8226   -0.5957 C   0  0  0  0  0  0  0  0  0  0  0  0
    4.8847    0.7184   -1.2557 C   0  0  0  0  0  0  0  0  0  0  0  0
    5.8955    1.0410   -0.3199 C   0  0  0  0  0  0  0  0  0  0  0  0
    5.2444    1.3529    0.8486 C   0  0  0  0  0  0  0  0  0  0  0  0
    3.9011    1.2397    0.6903 O   0  0  0  0  0  0  0  0  0  0  0  0
   -0.0931    0.5615   -0.6695 C   0  0  0  0  0  0  0  0  0  0  0  0
   -0.4060    2.0491   -0.4333 C   0  0  0  0  0  0  0  0  0  0  0  0
   -4.6865   -0.5073   -2.2320 H   0  0  0  0  0  0  0  0  0  0  0  0
   -5.0290    0.8246   -1.0589 H   0  0  0  0  0  0  0  0  0  0  0  0
   -6.2711   -0.3672   -1.4610 H   0  0  0  0  0  0  0  0  0  0  0  0
   -2.7171    0.3987   -1.2936 H   0  0  0  0  0  0  0  0  0  0  0  0
   -1.5846   -2.6763    2.4348 H   0  0  0  0  0  0  0  0  0  0  0  0
   -4.9056   -2.4761    1.2957 H   0  0  0  0  0  0  0  0  0  0  0  0
    1.0098   -2.2406    1.0023 H   0  0  0  0  0  0  0  0  0  0  0  0
    0.6438   -1.5200    2.5788 H   0  0  0  0  0  0  0  0  0  0  0  0
    1.2160    0.7156    1.7893 H   0  0  0  0  0  0  0  0  0  0  0  0
    2.4994   -0.4259    1.3528 H   0  0  0  0  0  0  0  0  0  0  0  0
    5.0070    0.4445   -2.2952 H   0  0  0  0  0  0  0  0  0  0  0  0
    6.9641    1.0602   -0.4819 H   0  0  0  0  0  0  0  0  0  0  0  0
    5.5749    1.6676    1.8289 H   0  0  0  0  0  0  0  0  0  0  0  0
   -0.1522    0.3668   -1.7481 H   0  0  0  0  0  0  0  0  0  0  0  0
   -0.4035    2.2900    0.6361 H   0  0  0  0  0  0  0  0  0  0  0  0
    0.3377    2.6920   -0.9166 H   0  0  0  0  0  0  0  0  0  0  0  0
   -1.3866    2.3272   -0.8330 H   0  0  0  0  0  0  0  0  0  0  0  0
  1  2  1  0
  2  3  1  0
  3  4  2  0
  4  5  1  0
  5  6  2  0
  6  7  1  0
  7  8  2  0
  8  9  1  0
  6 10  1  0
 10 11  1  0
 11 12  1  0
 12 13  1  0
 13 14  2  0
 13 15  1  0
 15 16  2  0
 16 17  1  0
 17 18  2  0
 18 19  1  0
 12 20  1  0
 20 21  1  0
  8  3  1  0
 19 15  1  0
 20  5  1  0
  1 22  1  0
  1 23  1  0
  1 24  1  0
  4 25  1  0
  7 26  1  0
  9 27  1  0
 10 28  1  0
 10 29  1  0
 11 30  1  0
 11 31  1  0
 16 32  1  0
 17 33  1  0
 18 34  1  0
 20 35  1  0
 21 36  1  0
 21 37  1  0
 21 38  1  0
M  END
$$$$
