
     RDKit          3D

 36 38  0  0  0  0  0  0  0  0999 V2000
   -4.6668    2.3220    0.5667 C   0  0  0  0  0  0  0  0  0  0  0  0
   -3.5495    1.4140    0.4217 N   0  0  0  0  0  0  0  0  0  0  0  0
   -2.2339    1.7647    0.5745 C   0  0  0  0  0  0  0  0  0  0  0  0
   -1.4648    0.6448    0.3447 C   0  0  0  0  0  0  0  0  0  0  0  0
   -0.0377    0.6665    0.4094 C   0  0  0  0  0  0  0  0  0  0  0  0
    0.7821   -0.0632   -0.3659 C   0  0  0  0  0  0  0  0  0  0  0  0
    2.2466   -0.0298   -0.2850 C   0  0  0  0  0  0  0  0  0  0  0  0
    2.9593    1.1535   -0.0980 C   0  0  0  0  0  0  0  0  0  0  0  0
    4.3491    1.1235   -0.0597 C   0  0  0  0  0  0  0  0  0  0  0  0
    5.0173   -0.0423   -0.2050 N   0  0  0  0  0  4  0  0  0  0  0  0
    6.4897   -0.0482   -0.1696 C   0  0  0  0  0  0  0  0  0  0  0  0
    4.3494   -1.1990   -0.4107 C   0  0  0  0  0  0  0  0  0  0  0  0
    2.9599   -1.2150   -0.4583 C   0  0  0  0  0  0  0  0  0  0  0  0
   -2.3539   -0.4436    0.0806 C   0  0  0  0  0  0  0  0  0  0  0  0
   -2.1892   -1.8235   -0.1730 C   0  0  0  0  0  0  0  0  0  0  0  0
   -3.3128   -2.6230   -0.4002 C   0  0  0  0  0  0  0  0  0  0  0  0
   -3.0978   -4.3026   -0.7173 Cl  0  0  0  0  0  0  0  0  0  0  0  0
   -4.5939   -2.0863   -0.3723 C   0  0  0  0  0  0  0  0  0  0  0  0
   -4.7886   -0.7283   -0.1065 C   0  0  0  0  0  0  0  0  0  0  0  0
   -3.6560    0.0715    0.1220 C   0  0  0  0  0  0  0  0  0  0  0  0
   -5.2180    2.3446   -0.3768 H   0  0  0  0  0  0  0  0  0  0  0  0
   -5.3020    1.9609    1.3796 H   0  0  0  0  0  0  0  0  0  0  0  0
   -4.2970    3.3231    0.8028 H   0  0  0  0  0  0  0  0  0  0  0  0
   -1.9561    2.7822    0.8180 H   0  0  0  0  0  0  0  0  0  0  0  0
    0.3842    1.3518    1.1417 H   0  0  0  0  0  0  0  0  0  0  0  0
    0.3652   -0.7347   -1.1140 H   0  0  0  0  0  0  0  0  0  0  0  0
    2.4443    2.1067    0.0050 H   0  0  0  0  0  0  0  0  0  0  0  0
    4.9347    2.0278    0.0803 H   0  0  0  0  0  0  0  0  0  0  0  0
    6.8422    0.0994   -1.1934 H   0  0  0  0  0  0  0  0  0  0  0  0
    6.8359    0.7583    0.4820 H   0  0  0  0  0  0  0  0  0  0  0  0
    6.8344   -1.0065    0.2274 H   0  0  0  0  0  0  0  0  0  0  0  0
    4.9345   -2.1055   -0.5389 H   0  0  0  0  0  0  0  0  0  0  0  0
    2.4407   -2.1579   -0.6232 H   0  0  0  0  0  0  0  0  0  0  0  0
   -1.2008   -2.2686   -0.1817 H   0  0  0  0  0  0  0  0  0  0  0  0
   -5.4580   -2.7224   -0.5502 H   0  0  0  0  0  0  0  0  0  0  0  0
   -5.7923   -0.3146   -0.0746 H   0  0  0  0  0  0  0  0  0  0  0  0
  1  2  1  0
  2  3  1  0
  3  4  2  0
  4  5  1  0
  5  6  2  3
  6  7  1  0
  7  8  2  0
  8  9  1  0
  9 10  2  0
 10 11  1  0
 10 12  1  0
 12 13  2  0
  4 14  1  0
 14 15  2  0
 15 16  1  0
 16 17  1  0
 16 18  2  0
 18 19  1  0
 19 20  2  0
 20  2  1  0
 13  7  1  0
 20 14  1  0
  1 21  1  0
  1 22  1  0
  1 23  1  0
  3 24  1  0
  5 25  1  0
  6 26  1  0
  8 27  1  0
  9 28  1  0
 11 29  1  0
 11 30  1  0
 11 31  1  0
 12 32  1  0
 13 33  1  0
 15 34  1  0
 18 35  1  0
 19 36  1  0
M  CHG  1  10   1
M  END
$$$$
