
     RDKit          3D

 43 45  0  0  0  0  0  0  0  0999 V2000
    6.7137    1.9608   -0.5900 C   0  0  0  0  0  0  0  0  0  0  0  0
    5.7363    0.8685   -0.2730 C   0  0  0  0  0  0  0  0  0  0  0  0
    6.1718   -0.4542   -0.1335 C   0  0  0  0  0  0  0  0  0  0  0  0
    5.2614   -1.4771    0.1484 C   0  0  0  0  0  0  0  0  0  0  0  0
    3.8946   -1.2004    0.2738 C   0  0  0  0  0  0  0  0  0  0  0  0
    2.9227   -2.2985    0.5969 C   0  0  0  0  0  0  0  0  0  0  0  0
    3.4607    0.1190    0.0964 C   0  0  0  0  0  0  0  0  0  0  0  0
    2.1257    0.4020    0.2340 O   0  0  0  0  0  0  0  0  0  0  0  0
    1.5449    0.7099   -1.0376 C   0  0  0  0  0  0  0  0  0  0  0  0
    0.0789    0.6417   -0.8508 C   0  0  0  0  0  0  0  0  0  0  0  0
   -0.8723    1.5200   -0.3959 C   0  0  0  0  0  0  0  0  0  0  0  0
   -2.0961    0.8023   -0.4698 C   0  0  0  0  0  0  0  0  0  0  0  0
   -3.4294    1.3262   -0.1421 C   0  0  0  0  0  0  0  0  0  0  0  0
   -3.6381    2.5401   -0.1870 O   0  0  0  0  0  0  0  0  0  0  0  0
   -4.4538    0.4342    0.1886 N   0  0  0  0  0  0  0  0  0  0  0  0
   -4.2398   -0.8295    0.8977 C   0  0  0  0  0  0  0  0  0  0  0  0
   -5.2672   -1.8565    0.4319 C   0  0  0  0  0  0  0  0  0  0  0  0
   -6.6209   -1.3551    0.5609 N   0  0  0  0  0  0  0  0  0  0  0  0
   -6.9433   -0.0438    0.3024 C   0  0  0  0  0  0  0  0  0  0  0  0
   -8.1231    0.2779    0.1763 O   0  0  0  0  0  0  0  0  0  0  0  0
   -5.8030    0.9890    0.3192 C   0  0  0  0  0  0  0  0  0  0  0  0
   -1.8860   -0.4241   -0.9807 N   0  0  0  0  0  0  0  0  0  0  0  0
   -0.5256   -0.5247   -1.1980 O   0  0  0  0  0  0  0  0  0  0  0  0
    4.3700    1.1489   -0.1603 C   0  0  0  0  0  0  0  0  0  0  0  0
    6.8212    2.0628   -1.6744 H   0  0  0  0  0  0  0  0  0  0  0  0
    6.3781    2.9177   -0.1763 H   0  0  0  0  0  0  0  0  0  0  0  0
    7.6954    1.7457   -0.1553 H   0  0  0  0  0  0  0  0  0  0  0  0
    7.2277   -0.6980   -0.2321 H   0  0  0  0  0  0  0  0  0  0  0  0
    5.6303   -2.4936    0.2707 H   0  0  0  0  0  0  0  0  0  0  0  0
    2.1357   -2.3484   -0.1633 H   0  0  0  0  0  0  0  0  0  0  0  0
    3.4165   -3.2756    0.6222 H   0  0  0  0  0  0  0  0  0  0  0  0
    2.4707   -2.1245    1.5784 H   0  0  0  0  0  0  0  0  0  0  0  0
    1.8611   -0.0067   -1.8068 H   0  0  0  0  0  0  0  0  0  0  0  0
    1.8322    1.7209   -1.3495 H   0  0  0  0  0  0  0  0  0  0  0  0
   -0.7241    2.5340   -0.0538 H   0  0  0  0  0  0  0  0  0  0  0  0
   -3.2296   -1.2210    0.7910 H   0  0  0  0  0  0  0  0  0  0  0  0
   -4.3744   -0.6148    1.9660 H   0  0  0  0  0  0  0  0  0  0  0  0
   -5.1943   -2.7776    1.0175 H   0  0  0  0  0  0  0  0  0  0  0  0
   -5.1136   -2.0999   -0.6252 H   0  0  0  0  0  0  0  0  0  0  0  0
   -7.4019   -1.9952    0.4761 H   0  0  0  0  0  0  0  0  0  0  0  0
   -5.9770    1.6993   -0.4967 H   0  0  0  0  0  0  0  0  0  0  0  0
   -5.8512    1.5266    1.2729 H   0  0  0  0  0  0  0  0  0  0  0  0
    4.0151    2.1715   -0.2581 H   0  0  0  0  0  0  0  0  0  0  0  0
  1  2  1  0
  2  3  2  0
  3  4  1  0
  4  5  2  0
  5  6  1  0
  5  7  1  0
  7  8  1  0
  8  9  1  0
  9 10  1  0
 10 11  2  0
 11 12  1  0
 12 13  1  0
 13 14  2  0
 13 15  1  0
 15 16  1  0
 16 17  1  0
 17 18  1  0
 18 19  1  0
 19 20  2  0
 19 21  1  0
 12 22  2  0
 22 23  1  0
  7 24  2  0
 24  2  1  0
 23 10  1  0
 21 15  1  0
  1 25  1  0
  1 26  1  0
  1 27  1  0
  3 28  1  0
  4 29  1  0
  6 30  1  0
  6 31  1  0
  6 32  1  0
  9 33  1  0
  9 34  1  0
 11 35  1  0
 16 36  1  0
 16 37  1  0
 17 38  1  0
 17 39  1  0
 18 40  1  0
 21 41  1  0
 21 42  1  0
 24 43  1  0
M  END
$$$$
