
     RDKit          3D

 49 52  0  0  0  0  0  0  0  0999 V2000
    3.2339    1.6330   -2.0451 O   0  0  0  0  0  0  0  0  0  0  0  0
    2.8624    0.5534   -1.5865 C   0  0  0  0  0  0  0  0  0  0  0  0
    1.5769   -0.0726   -2.1199 C   0  0  0  0  0  0  0  0  0  0  0  0
    0.8812   -1.4219   -1.1144 S   0  0  0  0  0  0  0  0  0  0  0  0
    0.2050   -0.5002    0.1819 C   0  0  0  0  0  0  0  0  0  0  0  0
    0.8803    0.3143    0.9538 N   0  0  0  0  0  0  0  0  0  0  0  0
   -0.0038    0.8637    1.8478 N   0  0  0  0  0  0  0  0  0  0  0  0
   -1.2009    0.3595    1.6166 C   0  0  0  0  0  0  0  0  0  0  0  0
   -2.4163    0.7238    2.3354 C   0  0  0  0  0  0  0  0  0  0  0  0
   -3.1494   -0.2209    3.0536 C   0  0  0  0  0  0  0  0  0  0  0  0
   -4.3012    0.1962    3.7008 C   0  0  0  0  0  0  0  0  0  0  0  0
   -4.7551    1.4668    3.6783 N   0  0  0  0  0  0  0  0  0  0  0  0
   -4.0094    2.3697    3.0077 C   0  0  0  0  0  0  0  0  0  0  0  0
   -2.8451    2.0518    2.3310 C   0  0  0  0  0  0  0  0  0  0  0  0
   -1.1129   -0.5049    0.5426 N   0  0  0  0  0  0  0  0  0  0  0  0
   -2.2140   -1.1860   -0.1149 C   0  0  0  0  0  0  0  0  0  0  0  0
   -2.9516   -0.2746   -1.1045 C   0  0  0  0  0  0  0  0  0  0  0  0
   -4.2363   -0.9071   -1.6262 C   0  0  0  0  0  0  0  0  0  0  0  0
   -3.7819   -1.6015   -2.8857 C   0  0  0  0  0  0  0  0  0  0  0  0
   -2.7375   -0.6414   -3.4094 C   0  0  0  0  0  0  0  0  0  0  0  0
   -2.1159   -0.0526   -2.2584 O   0  0  0  0  0  0  0  0  0  0  0  0
    3.5610   -0.2067   -0.6776 N   0  0  0  0  0  0  0  0  0  0  0  0
    4.7877    0.0798   -0.0379 C   0  0  0  0  0  0  0  0  0  0  0  0
    5.5540    1.2164   -0.3147 C   0  0  0  0  0  0  0  0  0  0  0  0
    6.7605    1.4460    0.3599 C   0  0  0  0  0  0  0  0  0  0  0  0
    7.2145    0.5440    1.3188 C   0  0  0  0  0  0  0  0  0  0  0  0
    6.4687   -0.6002    1.6027 C   0  0  0  0  0  0  0  0  0  0  0  0
    5.2646   -0.8295    0.9282 C   0  0  0  0  0  0  0  0  0  0  0  0
    4.3675   -2.2585    1.3382 Cl  0  0  0  0  0  0  0  0  0  0  0  0
    0.8257    0.7180   -2.2411 H   0  0  0  0  0  0  0  0  0  0  0  0
    1.8024   -0.4826   -3.1111 H   0  0  0  0  0  0  0  0  0  0  0  0
   -2.8290   -1.2550    3.1266 H   0  0  0  0  0  0  0  0  0  0  0  0
   -4.9062   -0.5017    4.2752 H   0  0  0  0  0  0  0  0  0  0  0  0
   -4.3831    3.3896    3.0319 H   0  0  0  0  0  0  0  0  0  0  0  0
   -2.2835    2.8238    1.8146 H   0  0  0  0  0  0  0  0  0  0  0  0
   -2.8918   -1.5475    0.6655 H   0  0  0  0  0  0  0  0  0  0  0  0
   -1.8135   -2.0740   -0.6159 H   0  0  0  0  0  0  0  0  0  0  0  0
   -3.1673    0.6971   -0.6470 H   0  0  0  0  0  0  0  0  0  0  0  0
   -4.7257   -1.5750   -0.9092 H   0  0  0  0  0  0  0  0  0  0  0  0
   -4.9519   -0.1149   -1.8866 H   0  0  0  0  0  0  0  0  0  0  0  0
   -4.5889   -1.7861   -3.5995 H   0  0  0  0  0  0  0  0  0  0  0  0
   -3.3184   -2.5629   -2.6349 H   0  0  0  0  0  0  0  0  0  0  0  0
   -1.9793   -1.1370   -4.0270 H   0  0  0  0  0  0  0  0  0  0  0  0
   -3.1934    0.1658   -3.9942 H   0  0  0  0  0  0  0  0  0  0  0  0
    3.0798   -1.0309   -0.3290 H   0  0  0  0  0  0  0  0  0  0  0  0
    5.2354    1.9558   -1.0471 H   0  0  0  0  0  0  0  0  0  0  0  0
    7.3369    2.3451    0.1377 H   0  0  0  0  0  0  0  0  0  0  0  0
    8.1468    0.7326    1.8460 H   0  0  0  0  0  0  0  0  0  0  0  0
    6.8178   -1.3002    2.3582 H   0  0  0  0  0  0  0  0  0  0  0  0
  1  2  2  0
  2  3  1  0
  3  4  1  0
  4  5  1  0
  5  6  2  0
  6  7  1  0
  7  8  2  0
  8  9  1  0
  9 10  2  0
 10 11  1  0
 11 12  2  0
 12 13  1  0
 13 14  2  0
  8 15  1  0
 15 16  1  0
 16 17  1  0
 17 18  1  0
 18 19  1  0
 19 20  1  0
 20 21  1  0
  2 22  1  0
 22 23  1  0
 23 24  2  0
 24 25  1  0
 25 26  2  0
 26 27  1  0
 27 28  2  0
 28 29  1  0
 15  5  1  0
 21 17  1  0
 28 23  1  0
 14  9  1  0
  3 30  1  0
  3 31  1  0
 10 32  1  0
 11 33  1  0
 13 34  1  0
 14 35  1  0
 16 36  1  0
 16 37  1  0
 17 38  1  0
 18 39  1  0
 18 40  1  0
 19 41  1  0
 19 42  1  0
 20 43  1  0
 20 44  1  0
 22 45  1  0
 24 46  1  0
 25 47  1  0
 26 48  1  0
 27 49  1  0
M  END
$$$$
