
     RDKit          3D

 49 52  0  0  0  0  0  0  0  0999 V2000
    5.9474   -3.5807   -3.2324 C   0  0  0  0  0  0  0  0  0  0  0  0
    5.0763   -2.8184   -2.2784 C   0  0  0  0  0  0  0  0  0  0  0  0
    4.0955   -3.4803   -1.5303 C   0  0  0  0  0  0  0  0  0  0  0  0
    3.2632   -2.7666   -0.6640 C   0  0  0  0  0  0  0  0  0  0  0  0
    3.3928   -1.3804   -0.5452 C   0  0  0  0  0  0  0  0  0  0  0  0
    2.5137   -0.6442    0.3642 C   0  0  0  0  0  0  0  0  0  0  0  0
    1.4926    0.1186   -0.0522 C   0  0  0  0  0  0  0  0  0  0  0  0
    1.0414    0.3652   -1.4781 C   0  0  0  0  0  0  0  0  0  0  0  0
   -0.2158    1.2512   -1.3734 C   0  0  0  0  0  0  0  0  0  0  0  0
   -0.3601    1.4776    0.0932 C   0  0  0  0  0  0  0  0  0  0  0  0
    0.5864    0.8508    0.7880 C   0  0  0  0  0  0  0  0  0  0  0  0
    0.6744    0.8002    2.1724 O   0  0  0  0  0  0  0  0  0  0  0  0
   -0.1964    1.5779    2.8700 C   0  0  0  0  0  0  0  0  0  0  0  0
   -0.2888    1.3645    4.1402 N   0  0  0  0  0  0  0  0  0  0  0  0
   -0.9118    2.6996    2.1486 C   0  0  0  0  0  0  0  0  0  0  0  0
   -1.9571    3.3425    2.9581 C   0  0  0  0  0  0  0  0  0  0  0  0
   -2.7787    3.9188    3.5432 N   0  0  0  0  0  0  0  0  0  0  0  0
   -1.4285    2.2812    0.7544 C   0  0  0  0  0  0  0  0  0  0  0  0
   -2.7666    1.5532    0.7350 C   0  0  0  0  0  0  0  0  0  0  0  0
   -3.8666    2.1484    0.0974 C   0  0  0  0  0  0  0  0  0  0  0  0
   -5.1092    1.5100    0.0657 C   0  0  0  0  0  0  0  0  0  0  0  0
   -5.2840    0.2664    0.6784 C   0  0  0  0  0  0  0  0  0  0  0  0
   -6.6105   -0.4309    0.6217 C   0  0  0  0  0  0  0  0  0  0  0  0
   -4.1894   -0.3406    1.3002 C   0  0  0  0  0  0  0  0  0  0  0  0
   -2.9456    0.2965    1.3334 C   0  0  0  0  0  0  0  0  0  0  0  0
    4.3633   -0.7142   -1.2993 C   0  0  0  0  0  0  0  0  0  0  0  0
    5.1957   -1.4283   -2.1651 C   0  0  0  0  0  0  0  0  0  0  0  0
    6.9263   -3.1009   -3.3362 H   0  0  0  0  0  0  0  0  0  0  0  0
    6.1224   -4.6000   -2.8724 H   0  0  0  0  0  0  0  0  0  0  0  0
    5.4710   -3.6297   -4.2164 H   0  0  0  0  0  0  0  0  0  0  0  0
    3.9733   -4.5577   -1.6160 H   0  0  0  0  0  0  0  0  0  0  0  0
    2.5096   -3.3001   -0.0895 H   0  0  0  0  0  0  0  0  0  0  0  0
    2.7303   -0.7685    1.4221 H   0  0  0  0  0  0  0  0  0  0  0  0
    1.8171    0.8857   -2.0512 H   0  0  0  0  0  0  0  0  0  0  0  0
    0.8018   -0.5748   -1.9879 H   0  0  0  0  0  0  0  0  0  0  0  0
   -1.0895    0.7373   -1.7873 H   0  0  0  0  0  0  0  0  0  0  0  0
   -0.0754    2.1946   -1.9111 H   0  0  0  0  0  0  0  0  0  0  0  0
    0.3261    0.5737    4.3691 H   0  0  0  0  0  0  0  0  0  0  0  0
   -0.1278    3.4586    1.9956 H   0  0  0  0  0  0  0  0  0  0  0  0
   -1.5417    3.2091    0.1744 H   0  0  0  0  0  0  0  0  0  0  0  0
   -3.7729    3.1223   -0.3790 H   0  0  0  0  0  0  0  0  0  0  0  0
   -5.9435    1.9963   -0.4352 H   0  0  0  0  0  0  0  0  0  0  0  0
   -6.7586   -1.0613    1.5048 H   0  0  0  0  0  0  0  0  0  0  0  0
   -7.4319    0.2930    0.5989 H   0  0  0  0  0  0  0  0  0  0  0  0
   -6.6659   -1.0573   -0.2738 H   0  0  0  0  0  0  0  0  0  0  0  0
   -4.2981   -1.3159    1.7700 H   0  0  0  0  0  0  0  0  0  0  0  0
   -2.1249   -0.2147    1.8303 H   0  0  0  0  0  0  0  0  0  0  0  0
    4.4785    0.3639   -1.2181 H   0  0  0  0  0  0  0  0  0  0  0  0
    5.9404   -0.8917   -2.7487 H   0  0  0  0  0  0  0  0  0  0  0  0
  1  2  1  0
  2  3  2  0
  3  4  1  0
  4  5  2  0
  5  6  1  0
  6  7  2  3
  7  8  1  0
  8  9  1  0
  9 10  1  0
 10 11  2  0
 11 12  1  0
 12 13  1  0
 13 14  2  3
 13 15  1  0
 15 16  1  0
 16 17  3  0
 15 18  1  0
 18 19  1  0
 19 20  2  0
 20 21  1  0
 21 22  2  0
 22 23  1  0
 22 24  1  0
 24 25  2  0
  5 26  1  0
 26 27  2  0
 27  2  1  0
 11  7  1  0
 25 19  1  0
 18 10  1  0
  1 28  1  0
  1 29  1  0
  1 30  1  0
  3 31  1  0
  4 32  1  0
  6 33  1  0
  8 34  1  0
  8 35  1  0
  9 36  1  0
  9 37  1  0
 14 38  1  0
 15 39  1  0
 18 40  1  0
 20 41  1  0
 21 42  1  0
 23 43  1  0
 23 44  1  0
 23 45  1  0
 24 46  1  0
 25 47  1  0
 26 48  1  0
 27 49  1  0
M  END
$$$$
