
     RDKit          3D

 38 40  0  0  0  0  0  0  0  0999 V2000
   -3.8731   -0.2694   -2.6159 C   0  0  0  0  0  0  0  0  0  0  0  0
   -4.2107   -0.5549   -1.2667 O   0  0  0  0  0  0  0  0  0  0  0  0
   -3.1955   -0.5567   -0.3466 C   0  0  0  0  0  0  0  0  0  0  0  0
   -1.8425   -0.3677   -0.6441 C   0  0  0  0  0  0  0  0  0  0  0  0
   -0.8729   -0.3869    0.3750 C   0  0  0  0  0  0  0  0  0  0  0  0
   -1.2717   -0.5973    1.7044 C   0  0  0  0  0  0  0  0  0  0  0  0
   -2.6193   -0.8055    2.0088 C   0  0  0  0  0  0  0  0  0  0  0  0
   -3.5684   -0.7796    0.9863 C   0  0  0  0  0  0  0  0  0  0  0  0
   -4.8915   -0.9758    1.2850 O   0  0  0  0  0  0  0  0  0  0  0  0
   -0.2073   -0.6184    2.7632 C   0  0  0  0  0  0  0  0  0  0  0  0
    0.8320    0.4578    2.4608 C   0  0  0  0  0  0  0  0  0  0  0  0
    1.3874    0.4247    1.1022 N   0  0  0  0  0  0  0  0  0  0  0  0
    2.5265    1.2287    0.8892 C   0  0  0  0  0  0  0  0  0  0  0  0
    2.9954    1.8624    1.8414 O   0  0  0  0  0  0  0  0  0  0  0  0
    3.1613    1.3430   -0.4203 C   0  0  0  0  0  0  0  0  0  0  0  0
    4.1949    2.1823   -0.8101 C   0  0  0  0  0  0  0  0  0  0  0  0
    4.4726    1.9069   -2.1690 C   0  0  0  0  0  0  0  0  0  0  0  0
    3.6019    0.9110   -2.5352 C   0  0  0  0  0  0  0  0  0  0  0  0
    2.8116    0.5631   -1.4891 O   0  0  0  0  0  0  0  0  0  0  0  0
    0.6086   -0.2441    0.0398 C   0  0  0  0  0  0  0  0  0  0  0  0
    1.1833   -1.6367   -0.2576 C   0  0  0  0  0  0  0  0  0  0  0  0
   -3.2163   -1.0417   -3.0295 H   0  0  0  0  0  0  0  0  0  0  0  0
   -3.4242    0.7248   -2.7107 H   0  0  0  0  0  0  0  0  0  0  0  0
   -4.7982   -0.2730   -3.2004 H   0  0  0  0  0  0  0  0  0  0  0  0
   -1.5120   -0.2126   -1.6662 H   0  0  0  0  0  0  0  0  0  0  0  0
   -2.9190   -0.9811    3.0374 H   0  0  0  0  0  0  0  0  0  0  0  0
   -4.9852   -1.1073    2.2405 H   0  0  0  0  0  0  0  0  0  0  0  0
   -0.6387   -0.4334    3.7535 H   0  0  0  0  0  0  0  0  0  0  0  0
    0.2573   -1.6110    2.7828 H   0  0  0  0  0  0  0  0  0  0  0  0
    1.6501    0.3793    3.1868 H   0  0  0  0  0  0  0  0  0  0  0  0
    0.3831    1.4521    2.5891 H   0  0  0  0  0  0  0  0  0  0  0  0
    4.6822    2.9052   -0.1688 H   0  0  0  0  0  0  0  0  0  0  0  0
    5.2170    2.3723   -2.7996 H   0  0  0  0  0  0  0  0  0  0  0  0
    3.4293    0.3678   -3.4541 H   0  0  0  0  0  0  0  0  0  0  0  0
    0.6602    0.3832   -0.8543 H   0  0  0  0  0  0  0  0  0  0  0  0
    0.6848   -2.0897   -1.1219 H   0  0  0  0  0  0  0  0  0  0  0  0
    2.2562   -1.6047   -0.4667 H   0  0  0  0  0  0  0  0  0  0  0  0
    1.0508   -2.3174    0.5910 H   0  0  0  0  0  0  0  0  0  0  0  0
  1  2  1  0
  2  3  1  0
  3  4  2  0
  4  5  1  0
  5  6  2  0
  6  7  1  0
  7  8  2  0
  8  9  1  0
  6 10  1  0
 10 11  1  0
 11 12  1  0
 12 13  1  0
 13 14  2  0
 13 15  1  0
 15 16  2  0
 16 17  1  0
 17 18  2  0
 18 19  1  0
 12 20  1  0
 20 21  1  0
  8  3  1  0
 19 15  1  0
 20  5  1  0
  1 22  1  0
  1 23  1  0
  1 24  1  0
  4 25  1  0
  7 26  1  0
  9 27  1  0
 10 28  1  0
 10 29  1  0
 11 30  1  0
 11 31  1  0
 16 32  1  0
 17 33  1  0
 18 34  1  0
 20 35  1  0
 21 36  1  0
 21 37  1  0
 21 38  1  0
M  END
$$$$
