
     RDKit          3D

 80 86  0  0  0  0  0  0  0  0999 V2000
   -5.7238   -1.2969    1.7393 C   0  0  0  0  0  0  0  0  0  0  0  0
   -4.4214   -0.5989    2.0043 C   0  0  0  0  0  0  0  0  0  0  0  0
   -4.2782    0.2649    3.1196 C   0  0  0  0  0  0  0  0  0  0  0  0
   -5.5869    0.6039    4.2062 Cl  0  0  0  0  0  0  0  0  0  0  0  0
   -3.0595    0.8959    3.4239 C   0  0  0  0  0  0  0  0  0  0  0  0
   -1.9411    0.6914    2.6293 C   0  0  0  0  0  0  0  0  0  0  0  0
   -2.0670   -0.1416    1.5271 C   0  0  0  0  0  0  0  0  0  0  0  0
   -3.2821   -0.7856    1.2047 C   0  0  0  0  0  0  0  0  0  0  0  0
   -3.0677   -1.5752    0.0426 N   0  0  0  0  0  0  0  0  0  0  0  0
   -4.0340   -2.2790   -0.7622 C   0  0  0  0  0  0  0  0  0  0  0  0
   -4.5051   -1.4889   -1.9686 C   0  0  0  0  0  0  0  0  0  0  0  0
   -4.9578   -0.1648   -1.8584 C   0  0  0  0  0  0  0  0  0  0  0  0
   -5.4105    0.5332   -2.9804 C   0  0  0  0  0  0  0  0  0  0  0  0
   -5.4193   -0.0823   -4.2290 C   0  0  0  0  0  0  0  0  0  0  0  0
   -4.9738   -1.3956   -4.3565 C   0  0  0  0  0  0  0  0  0  0  0  0
   -4.5235   -2.0958   -3.2348 C   0  0  0  0  0  0  0  0  0  0  0  0
   -1.7275   -1.5048   -0.3979 C   0  0  0  0  0  0  0  0  0  0  0  0
   -1.2345   -2.1271   -1.3320 O   0  0  0  0  0  0  0  0  0  0  0  0
   -1.0143   -0.5110    0.5293 C   0  0  1  0  0  0  0  0  0  0  0  0
   -0.5576    0.7070   -0.1928 C   0  0  0  0  0  0  0  0  0  0  0  0
    0.8306    0.6611   -0.3981 C   0  0  0  0  0  0  0  0  0  0  0  0
    1.2100    1.7688   -1.1082 C   0  0  0  0  0  0  0  0  0  0  0  0
    2.4159    2.1494   -1.5214 O   0  0  0  0  0  0  0  0  0  0  0  0
    0.0480    2.5438   -1.3184 N   0  0  0  0  0  0  0  0  0  0  0  0
   -0.0130    3.8416   -1.9244 C   0  0  0  0  0  0  0  0  0  0  0  0
    0.9173    4.2265   -2.8982 C   0  0  0  0  0  0  0  0  0  0  0  0
    0.8423    5.4928   -3.4870 C   0  0  0  0  0  0  0  0  0  0  0  0
   -0.1556    6.3863   -3.1038 C   0  0  0  0  0  0  0  0  0  0  0  0
   -1.0762    6.0191   -2.1258 C   0  0  0  0  0  0  0  0  0  0  0  0
   -1.0055    4.7548   -1.5337 C   0  0  0  0  0  0  0  0  0  0  0  0
   -1.0549    1.8152   -0.8217 C   0  0  0  0  0  0  0  0  0  0  0  0
   -2.3326    2.1404   -1.0161 O   0  0  0  0  0  0  0  0  0  0  0  0
    1.3701   -0.6011    0.1517 C   0  0  1  0  0  0  0  0  0  0  0  0
    2.6889   -0.5777    0.9143 C   0  0  0  0  0  0  0  0  0  0  0  0
    2.9323   -1.8793    1.5689 N   0  0  0  0  0  0  0  0  0  0  0  0
    4.2072   -2.2725    1.9413 C   0  0  0  0  0  0  0  0  0  0  0  0
    4.4324   -3.2141    2.6891 O   0  0  0  0  0  0  0  0  0  0  0  0
    5.1656   -1.4918    1.3768 O   0  0  0  0  0  0  0  0  0  0  0  0
    6.5723   -1.7222    1.6400 C   0  0  0  0  0  0  0  0  0  0  0  0
    7.2985   -0.6379    0.8279 C   0  0  0  0  0  0  0  0  0  0  0  0
    6.9008   -1.5225    3.1235 C   0  0  0  0  0  0  0  0  0  0  0  0
    7.0189   -3.0965    1.1287 C   0  0  0  0  0  0  0  0  0  0  0  0
    1.7923   -2.4856    2.2793 C   0  0  0  0  0  0  0  0  0  0  0  0
    0.4348   -2.3468    1.5443 C   0  0  0  0  0  0  0  0  0  0  0  0
    0.2746   -0.9721    1.1011 N   0  0  0  0  0  0  0  0  0  0  0  0
   -5.5912   -2.3796    1.8281 H   0  0  0  0  0  0  0  0  0  0  0  0
   -6.1037   -1.0363    0.7494 H   0  0  0  0  0  0  0  0  0  0  0  0
   -6.5219   -1.0345    2.4383 H   0  0  0  0  0  0  0  0  0  0  0  0
   -2.9830    1.5524    4.2882 H   0  0  0  0  0  0  0  0  0  0  0  0
   -0.9963    1.1749    2.8576 H   0  0  0  0  0  0  0  0  0  0  0  0
   -4.8868   -2.6253   -0.1810 H   0  0  0  0  0  0  0  0  0  0  0  0
   -3.5411   -3.1941   -1.1152 H   0  0  0  0  0  0  0  0  0  0  0  0
   -4.9513    0.3468   -0.8986 H   0  0  0  0  0  0  0  0  0  0  0  0
   -5.7539    1.5588   -2.8773 H   0  0  0  0  0  0  0  0  0  0  0  0
   -5.7687    0.4616   -5.1026 H   0  0  0  0  0  0  0  0  0  0  0  0
   -4.9722   -1.8774   -5.3316 H   0  0  0  0  0  0  0  0  0  0  0  0
   -4.1726   -3.1194   -3.3593 H   0  0  0  0  0  0  0  0  0  0  0  0
    3.0564    1.4620   -1.2732 H   0  0  0  0  0  0  0  0  0  0  0  0
    1.6936    3.5498   -3.2446 H   0  0  0  0  0  0  0  0  0  0  0  0
    1.5651    5.7777   -4.2475 H   0  0  0  0  0  0  0  0  0  0  0  0
   -0.2105    7.3710   -3.5622 H   0  0  0  0  0  0  0  0  0  0  0  0
   -1.8423    6.7231   -1.8106 H   0  0  0  0  0  0  0  0  0  0  0  0
   -1.7067    4.5251   -0.7341 H   0  0  0  0  0  0  0  0  0  0  0  0
   -2.3944    2.6609   -1.8381 H   0  0  0  0  0  0  0  0  0  0  0  0
    1.4286   -1.3380   -0.6630 H   0  0  0  0  0  0  0  0  0  0  0  0
    2.6923    0.1898    1.6982 H   0  0  0  0  0  0  0  0  0  0  0  0
    3.5069   -0.3418    0.2261 H   0  0  0  0  0  0  0  0  0  0  0  0
    8.3863   -0.7075    0.9353 H   0  0  0  0  0  0  0  0  0  0  0  0
    7.0503   -0.7171   -0.2382 H   0  0  0  0  0  0  0  0  0  0  0  0
    6.9812    0.3641    1.1432 H   0  0  0  0  0  0  0  0  0  0  0  0
    7.9818   -1.5207    3.2953 H   0  0  0  0  0  0  0  0  0  0  0  0
    6.4889   -0.5747    3.4863 H   0  0  0  0  0  0  0  0  0  0  0  0
    6.4702   -2.3101    3.7476 H   0  0  0  0  0  0  0  0  0  0  0  0
    6.6931   -3.2507    0.0943 H   0  0  0  0  0  0  0  0  0  0  0  0
    8.1082   -3.2004    1.1692 H   0  0  0  0  0  0  0  0  0  0  0  0
    6.5914   -3.9121    1.7188 H   0  0  0  0  0  0  0  0  0  0  0  0
    1.9976   -3.5455    2.4689 H   0  0  0  0  0  0  0  0  0  0  0  0
    1.7328   -1.9864    3.2552 H   0  0  0  0  0  0  0  0  0  0  0  0
   -0.3664   -2.6311    2.2351 H   0  0  0  0  0  0  0  0  0  0  0  0
    0.4087   -3.0437    0.6984 H   0  0  0  0  0  0  0  0  0  0  0  0
  1  2  1  0
  2  3  2  0
  3  4  1  0
  3  5  1  0
  5  6  2  0
  6  7  1  0
  7  8  2  0
  8  9  1  0
  9 10  1  0
 10 11  1  0
 11 12  2  0
 12 13  1  0
 13 14  2  0
 14 15  1  0
 15 16  2  0
  9 17  1  0
 17 18  2  0
 17 19  1  0
 19 20  1  0
 20 21  1  0
 21 22  2  0
 22 23  1  0
 22 24  1  0
 24 25  1  0
 25 26  2  0
 26 27  1  0
 27 28  2  0
 28 29  1  0
 29 30  2  0
 24 31  1  0
 31 32  1  0
 21 33  1  0
 33 34  1  0
 34 35  1  0
 35 36  1  0
 36 37  2  0
 36 38  1  0
 38 39  1  0
 39 40  1  0
 39 41  1  0
 39 42  1  0
 35 43  1  0
 43 44  1  0
 44 45  1  0
  8  2  1  0
 16 11  1  0
 19 45  1  1
 19  7  1  0
 31 20  2  0
 45 33  1  0
 30 25  1  0
  1 46  1  0
  1 47  1  0
  1 48  1  0
  5 49  1  0
  6 50  1  0
 10 51  1  0
 10 52  1  0
 12 53  1  0
 13 54  1  0
 14 55  1  0
 15 56  1  0
 16 57  1  0
 23 58  1  0
 26 59  1  0
 27 60  1  0
 28 61  1  0
 29 62  1  0
 30 63  1  0
 32 64  1  0
 33 65  1  6
 34 66  1  0
 34 67  1  0
 40 68  1  0
 40 69  1  0
 40 70  1  0
 41 71  1  0
 41 72  1  0
 41 73  1  0
 42 74  1  0
 42 75  1  0
 42 76  1  0
 43 77  1  0
 43 78  1  0
 44 79  1  0
 44 80  1  0
M  END
$$$$
