
     RDKit          3D

 49 52  0  0  0  0  0  0  0  0999 V2000
    1.6446    1.8668    1.9375 N   0  0  0  0  0  0  0  0  0  0  0  0
    0.8328    1.0910    1.6328 C   0  0  0  0  0  0  0  0  0  0  0  0
   -0.1475    0.0553    1.2750 C   0  0  0  0  0  0  0  0  0  0  0  0
    0.4352   -0.9733    0.3027 C   0  0  0  0  0  0  0  0  0  0  0  0
   -0.2074   -1.4730   -0.6220 O   0  0  0  0  0  0  0  0  0  0  0  0
    1.7130   -1.4249    0.5970 N   0  0  0  0  0  0  0  0  0  0  0  0
    2.3859   -2.3696   -0.2660 C   0  0  0  0  0  0  0  0  0  0  0  0
    3.4642   -3.0933    0.4953 C   0  0  0  0  0  0  0  0  0  0  0  0
    3.1274   -4.1418    1.3656 C   0  0  0  0  0  0  0  0  0  0  0  0
    4.1191   -4.8006    2.0956 C   0  0  0  0  0  0  0  0  0  0  0  0
    5.4533   -4.4144    1.9686 C   0  0  0  0  0  0  0  0  0  0  0  0
    5.7987   -3.3694    1.1125 C   0  0  0  0  0  0  0  0  0  0  0  0
    4.8085   -2.7088    0.3809 C   0  0  0  0  0  0  0  0  0  0  0  0
   -1.4431    0.6607    0.7933 C   0  0  0  0  0  0  0  0  0  0  0  0
   -2.5469    0.4255    1.5621 N   0  0  0  0  0  0  0  0  0  0  0  0
   -3.7077    0.9530    1.1379 C   0  0  0  0  0  0  0  0  0  0  0  0
   -4.8697    0.7388    1.8705 C   0  0  0  0  0  0  0  0  0  0  0  0
   -6.0954    1.2684    1.4620 C   0  0  0  0  0  0  0  0  0  0  0  0
   -6.1598    2.0261    0.3004 C   0  0  0  0  0  0  0  0  0  0  0  0
   -4.9977    2.2496   -0.4401 C   0  0  0  0  0  0  0  0  0  0  0  0
   -3.7722    1.7269   -0.0426 C   0  0  0  0  0  0  0  0  0  0  0  0
   -2.6770    1.9710   -0.7842 N   0  0  0  0  0  0  0  0  0  0  0  0
   -1.5032    1.4412   -0.3714 C   0  0  0  0  0  0  0  0  0  0  0  0
   -0.3323    1.6823   -1.1238 N   0  0  0  0  0  0  0  0  0  0  0  0
   -0.0625    3.1343   -1.2480 C   0  0  0  0  0  0  0  0  0  0  0  0
    0.3616    3.3325   -2.6991 C   0  0  0  0  0  0  0  0  0  0  0  0
   -0.5111    2.3281   -3.4244 C   0  0  0  0  0  0  0  0  0  0  0  0
   -0.4770    1.1255   -2.4897 C   0  0  0  0  0  0  0  0  0  0  0  0
   -0.3683   -0.5148    2.1863 H   0  0  0  0  0  0  0  0  0  0  0  0
    2.3060   -0.9023    1.2314 H   0  0  0  0  0  0  0  0  0  0  0  0
    2.8109   -1.8102   -1.1068 H   0  0  0  0  0  0  0  0  0  0  0  0
    1.6691   -3.0869   -0.6847 H   0  0  0  0  0  0  0  0  0  0  0  0
    2.0877   -4.4474    1.4764 H   0  0  0  0  0  0  0  0  0  0  0  0
    3.8497   -5.6140    2.7666 H   0  0  0  0  0  0  0  0  0  0  0  0
    6.2237   -4.9262    2.5416 H   0  0  0  0  0  0  0  0  0  0  0  0
    6.8391   -3.0658    1.0155 H   0  0  0  0  0  0  0  0  0  0  0  0
    5.0945   -1.8899   -0.2782 H   0  0  0  0  0  0  0  0  0  0  0  0
   -4.8184    0.1443    2.7795 H   0  0  0  0  0  0  0  0  0  0  0  0
   -6.9924    1.0881    2.0501 H   0  0  0  0  0  0  0  0  0  0  0  0
   -7.1072    2.4432   -0.0311 H   0  0  0  0  0  0  0  0  0  0  0  0
   -5.0467    2.8431   -1.3502 H   0  0  0  0  0  0  0  0  0  0  0  0
   -0.9389    3.7611   -1.0337 H   0  0  0  0  0  0  0  0  0  0  0  0
    0.7381    3.4322   -0.5636 H   0  0  0  0  0  0  0  0  0  0  0  0
    0.2093    4.3610   -3.0487 H   0  0  0  0  0  0  0  0  0  0  0  0
    1.4226    3.0764   -2.8282 H   0  0  0  0  0  0  0  0  0  0  0  0
   -0.1416    2.0925   -4.4263 H   0  0  0  0  0  0  0  0  0  0  0  0
   -1.5345    2.7081   -3.5132 H   0  0  0  0  0  0  0  0  0  0  0  0
    0.4139    0.5219   -2.7026 H   0  0  0  0  0  0  0  0  0  0  0  0
   -1.3503    0.4777   -2.6327 H   0  0  0  0  0  0  0  0  0  0  0  0
  1  2  3  0
  2  3  1  0
  3  4  1  0
  4  5  2  0
  4  6  1  0
  6  7  1  0
  7  8  1  0
  8  9  2  0
  9 10  1  0
 10 11  2  0
 11 12  1  0
 12 13  2  0
  3 14  1  0
 14 15  2  0
 15 16  1  0
 16 17  2  0
 17 18  1  0
 18 19  2  0
 19 20  1  0
 20 21  2  0
 21 22  1  0
 22 23  2  0
 23 24  1  0
 24 25  1  0
 25 26  1  0
 26 27  1  0
 27 28  1  0
 13  8  1  0
 23 14  1  0
 28 24  1  0
 21 16  1  0
  3 29  1  0
  6 30  1  0
  7 31  1  0
  7 32  1  0
  9 33  1  0
 10 34  1  0
 11 35  1  0
 12 36  1  0
 13 37  1  0
 17 38  1  0
 18 39  1  0
 19 40  1  0
 20 41  1  0
 25 42  1  0
 25 43  1  0
 26 44  1  0
 26 45  1  0
 27 46  1  0
 27 47  1  0
 28 48  1  0
 28 49  1  0
M  END
$$$$
