
     RDKit          3D

 45 47  0  0  0  0  0  0  0  0999 V2000
   -0.3420    3.3803    0.7395 C   0  0  0  0  0  0  0  0  0  0  0  0
    0.3445    2.1272    0.3057 C   0  0  0  0  0  0  0  0  0  0  0  0
   -0.2603    1.0592   -0.2353 C   0  0  0  0  0  0  0  0  0  0  0  0
   -1.5825    0.7674   -0.5328 N   0  0  0  0  0  0  0  0  0  0  0  0
   -2.2993   -0.1693    0.3609 C   0  0  0  0  0  0  0  0  0  0  0  0
   -3.1359    0.6339    1.3611 C   0  0  0  0  0  0  0  0  0  0  0  0
   -3.1035   -1.1398   -0.4874 C   0  0  0  0  0  0  0  0  0  0  0  0
   -4.3602   -0.7819   -1.0096 C   0  0  0  0  0  0  0  0  0  0  0  0
   -5.1098   -1.6839   -1.7702 C   0  0  0  0  0  0  0  0  0  0  0  0
   -4.6143   -2.9584   -2.0296 C   0  0  0  0  0  0  0  0  0  0  0  0
   -3.3609   -3.3232   -1.5460 C   0  0  0  0  0  0  0  0  0  0  0  0
   -2.6083   -2.4141   -0.8038 C   0  0  0  0  0  0  0  0  0  0  0  0
   -1.3736   -2.8438   -0.4053 O   0  0  0  0  0  0  0  0  0  0  0  0
    0.8452    0.0728   -0.5001 C   0  0  0  0  0  0  0  0  0  0  0  0
    0.6103   -1.0500   -0.9308 O   0  0  0  0  0  0  0  0  0  0  0  0
    2.0326    0.6756   -0.0743 N   0  0  0  0  0  0  0  0  0  0  0  0
    3.1988   -0.0228    0.3347 C   0  0  0  0  0  0  0  0  0  0  0  0
    4.0522    0.4963    1.3205 C   0  0  0  0  0  0  0  0  0  0  0  0
    5.2010   -0.1949    1.7187 C   0  0  0  0  0  0  0  0  0  0  0  0
    5.5142   -1.4195    1.1371 C   0  0  0  0  0  0  0  0  0  0  0  0
    4.6772   -1.9536    0.1621 C   0  0  0  0  0  0  0  0  0  0  0  0
    3.5279   -1.2612   -0.2338 C   0  0  0  0  0  0  0  0  0  0  0  0
    1.7380    1.9870    0.4113 N   0  0  0  0  0  0  0  0  0  0  0  0
    2.5796    3.0396   -0.1836 C   0  0  0  0  0  0  0  0  0  0  0  0
   -1.4314    3.2960    0.6722 H   0  0  0  0  0  0  0  0  0  0  0  0
   -0.0915    3.6085    1.7805 H   0  0  0  0  0  0  0  0  0  0  0  0
   -0.0375    4.2261    0.1153 H   0  0  0  0  0  0  0  0  0  0  0  0
   -1.5691    0.3175   -1.4538 H   0  0  0  0  0  0  0  0  0  0  0  0
   -1.5832   -0.7483    0.9593 H   0  0  0  0  0  0  0  0  0  0  0  0
   -3.7942    1.3562    0.8664 H   0  0  0  0  0  0  0  0  0  0  0  0
   -2.4846    1.2066    2.0310 H   0  0  0  0  0  0  0  0  0  0  0  0
   -3.7538   -0.0269    1.9786 H   0  0  0  0  0  0  0  0  0  0  0  0
   -4.7716    0.2089   -0.8311 H   0  0  0  0  0  0  0  0  0  0  0  0
   -6.0822   -1.3902   -2.1574 H   0  0  0  0  0  0  0  0  0  0  0  0
   -5.1973   -3.6640   -2.6149 H   0  0  0  0  0  0  0  0  0  0  0  0
   -2.9606   -4.3112   -1.7568 H   0  0  0  0  0  0  0  0  0  0  0  0
   -0.7078   -2.1517   -0.6183 H   0  0  0  0  0  0  0  0  0  0  0  0
    3.8181    1.4320    1.8205 H   0  0  0  0  0  0  0  0  0  0  0  0
    5.8434    0.2208    2.4907 H   0  0  0  0  0  0  0  0  0  0  0  0
    6.4046   -1.9601    1.4471 H   0  0  0  0  0  0  0  0  0  0  0  0
    4.9141   -2.9115   -0.2945 H   0  0  0  0  0  0  0  0  0  0  0  0
    2.9085   -1.7053   -1.0089 H   0  0  0  0  0  0  0  0  0  0  0  0
    3.6450    2.8026   -0.1147 H   0  0  0  0  0  0  0  0  0  0  0  0
    2.3335    3.1835   -1.2421 H   0  0  0  0  0  0  0  0  0  0  0  0
    2.4265    3.9873    0.3434 H   0  0  0  0  0  0  0  0  0  0  0  0
  1  2  1  0
  2  3  2  0
  3  4  1  0
  4  5  1  0
  5  6  1  0
  5  7  1  0
  7  8  2  0
  8  9  1  0
  9 10  2  0
 10 11  1  0
 11 12  2  0
 12 13  1  0
  3 14  1  0
 14 15  2  0
 14 16  1  0
 16 17  1  0
 17 18  2  0
 18 19  1  0
 19 20  2  0
 20 21  1  0
 21 22  2  0
 16 23  1  0
 23 24  1  0
 23  2  1  0
 12  7  1  0
 22 17  1  0
  1 25  1  0
  1 26  1  0
  1 27  1  0
  4 28  1  0
  5 29  1  0
  6 30  1  0
  6 31  1  0
  6 32  1  0
  8 33  1  0
  9 34  1  0
 10 35  1  0
 11 36  1  0
 13 37  1  0
 18 38  1  0
 19 39  1  0
 20 40  1  0
 21 41  1  0
 22 42  1  0
 24 43  1  0
 24 44  1  0
 24 45  1  0
M  END
$$$$
