
     RDKit          3D

 42 43  0  0  0  0  0  0  0  0999 V2000
    5.7069    2.9140   -2.6410 C   0  0  0  0  0  0  0  0  0  0  0  0
    5.0164    2.4311   -1.4050 C   0  0  0  0  0  0  0  0  0  0  0  0
    5.8067    2.5782    0.0985 S   0  0  0  0  0  0  0  0  0  0  0  0
    4.5057    1.8769    0.9317 C   0  0  0  0  0  0  0  0  0  0  0  0
    4.5797    1.7234    2.2646 N   0  0  0  0  0  0  0  0  0  0  0  0
    3.4916    1.1584    2.7805 C   0  0  0  0  0  0  0  0  0  0  0  0
    2.3985    0.7591    2.1217 N   0  0  0  0  0  0  0  0  0  0  0  0
    2.3613    0.9350    0.7825 C   0  0  0  0  0  0  0  0  0  0  0  0
    0.9203    0.3726   -0.0759 S   0  0  0  0  0  0  0  0  0  0  0  0
   -0.3347    0.6829    1.2065 C   0  0  0  0  0  0  0  0  0  0  0  0
   -1.7172    0.3818    0.6585 C   0  0  0  0  0  0  0  0  0  0  0  0
   -2.5663    1.2561    0.5048 O   0  0  0  0  0  0  0  0  0  0  0  0
   -1.9446   -0.9526    0.3837 N   0  0  0  0  0  0  0  0  0  0  0  0
   -3.2444   -1.4522   -0.0533 C   0  0  0  0  0  0  0  0  0  0  0  0
   -3.0437   -2.6981   -0.9160 C   0  0  0  0  0  0  0  0  0  0  0  0
   -4.1904   -1.6577    1.1587 C   0  0  0  0  0  0  0  0  0  0  0  0
   -3.7349   -2.7746    2.1027 C   0  0  0  0  0  0  0  0  0  0  0  0
   -5.6340   -1.9093    0.7141 C   0  0  0  0  0  0  0  0  0  0  0  0
    3.4503    1.5171    0.1034 C   0  0  0  0  0  0  0  0  0  0  0  0
    3.7584    1.8508   -1.2858 C   0  0  0  0  0  0  0  0  0  0  0  0
    2.8475    1.6100   -2.4519 C   0  0  0  0  0  0  0  0  0  0  0  0
    6.7031    3.3194   -2.4345 H   0  0  0  0  0  0  0  0  0  0  0  0
    5.8243    2.0906   -3.3533 H   0  0  0  0  0  0  0  0  0  0  0  0
    5.1176    3.7046   -3.1178 H   0  0  0  0  0  0  0  0  0  0  0  0
    3.4911    1.0046    3.8552 H   0  0  0  0  0  0  0  0  0  0  0  0
   -0.1626    0.0505    2.0838 H   0  0  0  0  0  0  0  0  0  0  0  0
   -0.3034    1.7327    1.5155 H   0  0  0  0  0  0  0  0  0  0  0  0
   -1.2172   -1.6199    0.6125 H   0  0  0  0  0  0  0  0  0  0  0  0
   -3.6831   -0.6748   -0.6924 H   0  0  0  0  0  0  0  0  0  0  0  0
   -2.4116   -2.4620   -1.7798 H   0  0  0  0  0  0  0  0  0  0  0  0
   -2.5417   -3.4995   -0.3644 H   0  0  0  0  0  0  0  0  0  0  0  0
   -3.9933   -3.0822   -1.2990 H   0  0  0  0  0  0  0  0  0  0  0  0
   -4.1957   -0.7268    1.7421 H   0  0  0  0  0  0  0  0  0  0  0  0
   -4.3750   -2.8068    2.9917 H   0  0  0  0  0  0  0  0  0  0  0  0
   -2.7075   -2.6134    2.4441 H   0  0  0  0  0  0  0  0  0  0  0  0
   -3.7879   -3.7584    1.6247 H   0  0  0  0  0  0  0  0  0  0  0  0
   -5.9785   -1.1175    0.0404 H   0  0  0  0  0  0  0  0  0  0  0  0
   -5.7409   -2.8691    0.1989 H   0  0  0  0  0  0  0  0  0  0  0  0
   -6.3052   -1.9221    1.5800 H   0  0  0  0  0  0  0  0  0  0  0  0
    2.6523    0.5399   -2.5711 H   0  0  0  0  0  0  0  0  0  0  0  0
    1.9010    2.1422   -2.3161 H   0  0  0  0  0  0  0  0  0  0  0  0
    3.2815    1.9652   -3.3917 H   0  0  0  0  0  0  0  0  0  0  0  0
  1  2  1  0
  2  3  1  0
  3  4  1  0
  4  5  2  0
  5  6  1  0
  6  7  2  0
  7  8  1  0
  8  9  1  0
  9 10  1  0
 10 11  1  0
 11 12  2  0
 11 13  1  0
 13 14  1  0
 14 15  1  0
 14 16  1  0
 16 17  1  0
 16 18  1  0
  8 19  2  0
 19 20  1  0
 20 21  1  0
 20  2  2  0
 19  4  1  0
  1 22  1  0
  1 23  1  0
  1 24  1  0
  6 25  1  0
 10 26  1  0
 10 27  1  0
 13 28  1  0
 14 29  1  0
 15 30  1  0
 15 31  1  0
 15 32  1  0
 16 33  1  0
 17 34  1  0
 17 35  1  0
 17 36  1  0
 18 37  1  0
 18 38  1  0
 18 39  1  0
 21 40  1  0
 21 41  1  0
 21 42  1  0
M  END
$$$$
