
     RDKit          3D

 63 67  0  0  0  0  0  0  0  0999 V2000
   -1.9811   -5.2313   -1.2899 C   0  0  0  0  0  0  0  0  0  0  0  0
   -2.3021   -3.8485   -1.2113 O   0  0  0  0  0  0  0  0  0  0  0  0
   -2.7062   -3.3762    0.0078 C   0  0  0  0  0  0  0  0  0  0  0  0
   -2.8774   -4.1357    1.1654 C   0  0  0  0  0  0  0  0  0  0  0  0
   -3.2975   -3.5245    2.3496 C   0  0  0  0  0  0  0  0  0  0  0  0
   -3.5481   -2.1524    2.3816 C   0  0  0  0  0  0  0  0  0  0  0  0
   -3.3830   -1.3770    1.2276 C   0  0  0  0  0  0  0  0  0  0  0  0
   -3.6270    0.0704    1.2536 C   0  0  0  0  0  0  0  0  0  0  0  0
   -5.2211    0.6214    1.5433 S   0  0  0  0  0  0  0  0  0  0  0  0
   -4.7746    2.2727    1.4016 C   0  0  0  0  0  0  0  0  0  0  0  0
   -5.6215    3.3906    1.5274 C   0  0  0  0  0  0  0  0  0  0  0  0
   -5.0854    4.6757    1.3855 C   0  0  0  0  0  0  0  0  0  0  0  0
   -3.7334    4.8532    1.1265 C   0  0  0  0  0  0  0  0  0  0  0  0
   -3.0943    6.0529    0.9700 O   0  0  0  0  0  0  0  0  0  0  0  0
   -3.8849    7.2271    1.1050 C   0  0  0  0  0  0  0  0  0  0  0  0
   -2.9028    3.7329    1.0037 C   0  0  0  0  0  0  0  0  0  0  0  0
   -3.4128    2.4141    1.1352 C   0  0  0  0  0  0  0  0  0  0  0  0
   -2.7542    1.1284    1.0480 C   0  0  0  0  0  0  0  0  0  0  0  0
   -1.3357    0.9153    0.7777 C   0  0  0  0  0  0  0  0  0  0  0  0
   -0.8105    1.2221   -0.4824 C   0  0  0  0  0  0  0  0  0  0  0  0
    0.5484    1.0225   -0.7513 C   0  0  0  0  0  0  0  0  0  0  0  0
    1.3918    0.5167    0.2385 C   0  0  0  0  0  0  0  0  0  0  0  0
    2.7318    0.2790    0.1104 O   0  0  0  0  0  0  0  0  0  0  0  0
    3.3024    0.4442   -1.1883 C   0  0  0  0  0  0  0  0  0  0  0  0
    4.7996    0.0748   -1.1463 C   0  0  0  0  0  0  0  0  0  0  0  0
    5.0922   -1.3298   -0.7959 N   0  0  0  0  0  0  0  0  0  0  0  0
    4.6583   -2.3049   -1.8178 C   0  0  0  0  0  0  0  0  0  0  0  0
    5.5398   -2.3228   -3.0785 C   0  0  0  0  0  0  0  0  0  0  0  0
    6.9167   -2.5497   -2.7531 O   0  0  0  0  0  0  0  0  0  0  0  0
    7.3909   -1.5648   -1.8266 C   0  0  0  0  0  0  0  0  0  0  0  0
    6.5364   -1.5367   -0.5477 C   0  0  0  0  0  0  0  0  0  0  0  0
    0.8663    0.2195    1.4986 C   0  0  0  0  0  0  0  0  0  0  0  0
   -0.4894    0.4163    1.7714 C   0  0  0  0  0  0  0  0  0  0  0  0
   -2.9612   -2.0018    0.0458 C   0  0  0  0  0  0  0  0  0  0  0  0
   -1.6556   -5.4411   -2.3135 H   0  0  0  0  0  0  0  0  0  0  0  0
   -2.8600   -5.8520   -1.0864 H   0  0  0  0  0  0  0  0  0  0  0  0
   -1.1532   -5.4843   -0.6191 H   0  0  0  0  0  0  0  0  0  0  0  0
   -2.6929   -5.2045    1.1813 H   0  0  0  0  0  0  0  0  0  0  0  0
   -3.4275   -4.1192    3.2503 H   0  0  0  0  0  0  0  0  0  0  0  0
   -3.8663   -1.6912    3.3138 H   0  0  0  0  0  0  0  0  0  0  0  0
   -6.6804    3.2593    1.7330 H   0  0  0  0  0  0  0  0  0  0  0  0
   -5.7633    5.5171    1.4869 H   0  0  0  0  0  0  0  0  0  0  0  0
   -4.6621    7.2698    0.3349 H   0  0  0  0  0  0  0  0  0  0  0  0
   -3.2278    8.0906    0.9628 H   0  0  0  0  0  0  0  0  0  0  0  0
   -4.3170    7.2993    2.1085 H   0  0  0  0  0  0  0  0  0  0  0  0
   -1.8430    3.8805    0.8067 H   0  0  0  0  0  0  0  0  0  0  0  0
   -1.4566    1.6135   -1.2651 H   0  0  0  0  0  0  0  0  0  0  0  0
    0.9126    1.2745   -1.7410 H   0  0  0  0  0  0  0  0  0  0  0  0
    2.7742   -0.1677   -1.9272 H   0  0  0  0  0  0  0  0  0  0  0  0
    3.2271    1.4986   -1.4825 H   0  0  0  0  0  0  0  0  0  0  0  0
    5.2536    0.3480   -2.1053 H   0  0  0  0  0  0  0  0  0  0  0  0
    5.2567    0.7146   -0.3800 H   0  0  0  0  0  0  0  0  0  0  0  0
    3.6092   -2.1603   -2.0929 H   0  0  0  0  0  0  0  0  0  0  0  0
    4.7060   -3.2995   -1.3546 H   0  0  0  0  0  0  0  0  0  0  0  0
    5.2213   -3.1377   -3.7367 H   0  0  0  0  0  0  0  0  0  0  0  0
    5.4532   -1.3901   -3.6471 H   0  0  0  0  0  0  0  0  0  0  0  0
    7.4118   -0.5871   -2.3212 H   0  0  0  0  0  0  0  0  0  0  0  0
    8.4235   -1.8249   -1.5722 H   0  0  0  0  0  0  0  0  0  0  0  0
    6.6449   -2.5031   -0.0383 H   0  0  0  0  0  0  0  0  0  0  0  0
    6.9223   -0.7829    0.1486 H   0  0  0  0  0  0  0  0  0  0  0  0
    1.5198   -0.1739    2.2736 H   0  0  0  0  0  0  0  0  0  0  0  0
   -0.8748    0.1764    2.7590 H   0  0  0  0  0  0  0  0  0  0  0  0
   -2.8262   -1.4165   -0.8610 H   0  0  0  0  0  0  0  0  0  0  0  0
  1  2  1  0
  2  3  1  0
  3  4  2  0
  4  5  1  0
  5  6  2  0
  6  7  1  0
  7  8  1  0
  8  9  1  0
  9 10  1  0
 10 11  2  0
 11 12  1  0
 12 13  2  0
 13 14  1  0
 14 15  1  0
 13 16  1  0
 16 17  2  0
 17 18  1  0
 18 19  1  0
 19 20  2  0
 20 21  1  0
 21 22  2  0
 22 23  1  0
 23 24  1  0
 24 25  1  0
 25 26  1  0
 26 27  1  0
 27 28  1  0
 28 29  1  0
 29 30  1  0
 30 31  1  0
 22 32  1  0
 32 33  2  0
  7 34  2  0
 34  3  1  0
 18  8  2  0
 33 19  1  0
 17 10  1  0
 31 26  1  0
  1 35  1  0
  1 36  1  0
  1 37  1  0
  4 38  1  0
  5 39  1  0
  6 40  1  0
 11 41  1  0
 12 42  1  0
 15 43  1  0
 15 44  1  0
 15 45  1  0
 16 46  1  0
 20 47  1  0
 21 48  1  0
 24 49  1  0
 24 50  1  0
 25 51  1  0
 25 52  1  0
 27 53  1  0
 27 54  1  0
 28 55  1  0
 28 56  1  0
 30 57  1  0
 30 58  1  0
 31 59  1  0
 31 60  1  0
 32 61  1  0
 33 62  1  0
 34 63  1  0
M  END
$$$$
