
     RDKit          3D

 60 63  0  0  0  0  0  0  0  0999 V2000
   -6.8313    0.1428   -2.0514 C   0  0  0  0  0  0  0  0  0  0  0  0
   -5.8778   -0.8971   -1.8894 O   0  0  0  0  0  0  0  0  0  0  0  0
   -4.6539   -0.5688   -1.3610 C   0  0  0  0  0  0  0  0  0  0  0  0
   -4.2298    0.7383   -1.1011 C   0  0  0  0  0  0  0  0  0  0  0  0
   -2.9620    0.9855   -0.5591 C   0  0  0  0  0  0  0  0  0  0  0  0
   -2.5052    2.2488   -0.3010 O   0  0  0  0  0  0  0  0  0  0  0  0
   -3.4834    3.1763    0.1682 C   0  0  0  0  0  0  0  0  0  0  0  0
   -2.0759   -0.0740   -0.3109 C   0  0  0  0  0  0  0  0  0  0  0  0
   -0.6711    0.1197    0.2608 C   0  0  0  0  0  0  0  0  0  0  0  0
    0.2166    1.1163   -0.4977 C   0  0  0  0  0  0  0  0  0  0  0  0
    1.6145    0.5364   -0.6673 C   0  0  0  0  0  0  0  0  0  0  0  0
    2.0152    0.2588   -1.7939 O   0  0  0  0  0  0  0  0  0  0  0  0
    2.3273    0.3872    0.5089 N   0  0  0  0  0  0  0  0  0  0  0  0
    3.6000   -0.2149    0.6615 C   0  0  0  0  0  0  0  0  0  0  0  0
    4.3992    0.3343    1.6798 C   0  0  0  0  0  0  0  0  0  0  0  0
    5.6926   -0.1331    1.9226 C   0  0  0  0  0  0  0  0  0  0  0  0
    6.2177   -1.1687    1.1539 C   0  0  0  0  0  0  0  0  0  0  0  0
    7.5981   -1.6923    1.4168 C   0  0  0  0  0  0  0  0  0  0  0  0
    5.4053   -1.7604    0.1804 C   0  0  0  0  0  0  0  0  0  0  0  0
    4.0862   -1.3169   -0.0621 C   0  0  0  0  0  0  0  0  0  0  0  0
    3.2885   -2.1089   -1.0601 C   0  0  0  0  0  0  0  0  0  0  0  0
    0.2826    2.4870    0.1576 C   0  0  0  0  0  0  0  0  0  0  0  0
    0.7086    3.6482   -0.7071 C   0  0  0  0  0  0  0  0  0  0  0  0
    0.0672    2.7086    1.4194 N   0  0  0  0  0  0  0  0  0  0  0  0
   -0.3387    1.6711    2.1892 C   0  0  0  0  0  0  0  0  0  0  0  0
   -0.3977    1.5825    3.4998 N   0  0  0  0  0  0  0  0  0  0  0  0
   -0.8162    0.3017    3.7258 C   0  0  0  0  0  0  0  0  0  0  0  0
   -1.0011   -0.4406    2.6321 N   0  0  0  0  0  0  0  0  0  0  0  0
   -0.7381    0.4649    1.6712 N   0  0  0  0  0  0  0  0  0  0  0  0
   -2.5164   -1.3892   -0.5695 C   0  0  0  0  0  0  0  0  0  0  0  0
   -3.7930   -1.6441   -1.0832 C   0  0  0  0  0  0  0  0  0  0  0  0
   -4.2806   -2.8966   -1.3597 O   0  0  0  0  0  0  0  0  0  0  0  0
   -3.5352   -4.0123   -0.8929 C   0  0  0  0  0  0  0  0  0  0  0  0
   -6.5014    0.8642   -2.8054 H   0  0  0  0  0  0  0  0  0  0  0  0
   -7.7613   -0.3089   -2.4099 H   0  0  0  0  0  0  0  0  0  0  0  0
   -7.0469    0.6363   -1.0978 H   0  0  0  0  0  0  0  0  0  0  0  0
   -4.8756    1.5743   -1.3378 H   0  0  0  0  0  0  0  0  0  0  0  0
   -2.9527    4.0088    0.6401 H   0  0  0  0  0  0  0  0  0  0  0  0
   -4.0610    3.5805   -0.6691 H   0  0  0  0  0  0  0  0  0  0  0  0
   -4.1419    2.7281    0.9208 H   0  0  0  0  0  0  0  0  0  0  0  0
   -0.1764   -0.8625    0.2394 H   0  0  0  0  0  0  0  0  0  0  0  0
   -0.1722    1.2578   -1.5156 H   0  0  0  0  0  0  0  0  0  0  0  0
    2.0798    1.0162    1.2684 H   0  0  0  0  0  0  0  0  0  0  0  0
    4.0366    1.1611    2.2874 H   0  0  0  0  0  0  0  0  0  0  0  0
    6.2874    0.3264    2.7088 H   0  0  0  0  0  0  0  0  0  0  0  0
    7.5601   -2.4895    2.1657 H   0  0  0  0  0  0  0  0  0  0  0  0
    8.2549   -0.8954    1.7812 H   0  0  0  0  0  0  0  0  0  0  0  0
    8.0469   -2.0886    0.4998 H   0  0  0  0  0  0  0  0  0  0  0  0
    5.7970   -2.6012   -0.3920 H   0  0  0  0  0  0  0  0  0  0  0  0
    3.5977   -3.1609   -1.0512 H   0  0  0  0  0  0  0  0  0  0  0  0
    3.4473   -1.7242   -2.0711 H   0  0  0  0  0  0  0  0  0  0  0  0
    2.2229   -2.1137   -0.8141 H   0  0  0  0  0  0  0  0  0  0  0  0
    1.7520    3.5145   -1.0050 H   0  0  0  0  0  0  0  0  0  0  0  0
    0.6101    4.5907   -0.1613 H   0  0  0  0  0  0  0  0  0  0  0  0
    0.0803    3.6882   -1.6008 H   0  0  0  0  0  0  0  0  0  0  0  0
   -0.9757   -0.1032    4.7170 H   0  0  0  0  0  0  0  0  0  0  0  0
   -1.8409   -2.2132   -0.3566 H   0  0  0  0  0  0  0  0  0  0  0  0
   -4.1192   -4.9145   -1.0981 H   0  0  0  0  0  0  0  0  0  0  0  0
   -3.3738   -3.9601    0.1891 H   0  0  0  0  0  0  0  0  0  0  0  0
   -2.5864   -4.1018   -1.4317 H   0  0  0  0  0  0  0  0  0  0  0  0
  1  2  1  0
  2  3  1  0
  3  4  2  0
  4  5  1  0
  5  6  1  0
  6  7  1  0
  5  8  2  0
  8  9  1  0
  9 10  1  0
 10 11  1  0
 11 12  2  0
 11 13  1  0
 13 14  1  0
 14 15  2  0
 15 16  1  0
 16 17  2  0
 17 18  1  0
 17 19  1  0
 19 20  2  0
 20 21  1  0
 10 22  1  0
 22 23  1  0
 22 24  2  0
 24 25  1  0
 25 26  2  0
 26 27  1  0
 27 28  2  0
 28 29  1  0
  8 30  1  0
 30 31  2  0
 31 32  1  0
 32 33  1  0
 31  3  1  0
 29  9  1  0
 20 14  1  0
 29 25  1  0
  1 34  1  0
  1 35  1  0
  1 36  1  0
  4 37  1  0
  7 38  1  0
  7 39  1  0
  7 40  1  0
  9 41  1  0
 10 42  1  0
 13 43  1  0
 15 44  1  0
 16 45  1  0
 18 46  1  0
 18 47  1  0
 18 48  1  0
 19 49  1  0
 21 50  1  0
 21 51  1  0
 21 52  1  0
 23 53  1  0
 23 54  1  0
 23 55  1  0
 27 56  1  0
 30 57  1  0
 33 58  1  0
 33 59  1  0
 33 60  1  0
M  END
$$$$
