
     RDKit          3D

 38 40  0  0  0  0  0  0  0  0999 V2000
   -5.9851    1.1208   -2.6333 C   0  0  0  0  0  0  0  0  0  0  0  0
   -5.2900    1.2193   -1.3076 C   0  0  0  0  0  0  0  0  0  0  0  0
   -5.2462    2.2356   -0.6281 O   0  0  0  0  0  0  0  0  0  0  0  0
   -4.7254   -0.0159   -1.0093 O   0  0  0  0  0  0  0  0  0  0  0  0
   -4.0413   -0.0629    0.2097 C   0  0  0  0  0  0  0  0  0  0  0  0
   -4.7366   -0.0183    1.4159 C   0  0  0  0  0  0  0  0  0  0  0  0
   -4.0288   -0.1314    2.6098 C   0  0  0  0  0  0  0  0  0  0  0  0
   -2.6400   -0.2983    2.5875 C   0  0  0  0  0  0  0  0  0  0  0  0
   -1.9405   -0.3470    1.3720 C   0  0  0  0  0  0  0  0  0  0  0  0
   -0.4861   -0.5620    1.3983 C   0  0  0  0  0  0  0  0  0  0  0  0
    0.3674    0.0226    0.5411 C   0  0  0  0  0  0  0  0  0  0  0  0
    1.8216   -0.1720    0.5244 C   0  0  0  0  0  0  0  0  0  0  0  0
    2.5656   -0.4407    1.6668 C   0  0  0  0  0  0  0  0  0  0  0  0
    3.9466   -0.5802    1.5511 C   0  0  0  0  0  0  0  0  0  0  0  0
    4.5564   -0.4396    0.3004 C   0  0  0  0  0  0  0  0  0  0  0  0
    5.9473   -0.5711    0.1231 C   0  0  0  0  0  0  0  0  0  0  0  0
    6.5169   -0.4199   -1.1425 C   0  0  0  0  0  0  0  0  0  0  0  0
    5.7047   -0.1369   -2.2355 C   0  0  0  0  0  0  0  0  0  0  0  0
    4.3321   -0.0092   -2.0455 C   0  0  0  0  0  0  0  0  0  0  0  0
    3.5509    0.2702   -3.1419 O   0  0  0  0  0  0  0  0  0  0  0  0
    3.7272   -0.1532   -0.7998 C   0  0  0  0  0  0  0  0  0  0  0  0
    2.3880   -0.0139   -0.6950 N   0  0  0  0  0  0  0  0  0  0  0  0
   -2.6589   -0.2481    0.1745 C   0  0  0  0  0  0  0  0  0  0  0  0
   -5.2626    0.8654   -3.4125 H   0  0  0  0  0  0  0  0  0  0  0  0
   -6.7781    0.3707   -2.5812 H   0  0  0  0  0  0  0  0  0  0  0  0
   -6.4352    2.0870   -2.8786 H   0  0  0  0  0  0  0  0  0  0  0  0
   -5.8147    0.1079    1.4308 H   0  0  0  0  0  0  0  0  0  0  0  0
   -4.5556   -0.0897    3.5596 H   0  0  0  0  0  0  0  0  0  0  0  0
   -2.1075   -0.3825    3.5325 H   0  0  0  0  0  0  0  0  0  0  0  0
   -0.1317   -1.2364    2.1733 H   0  0  0  0  0  0  0  0  0  0  0  0
    0.0063    0.6906   -0.2369 H   0  0  0  0  0  0  0  0  0  0  0  0
    2.0964   -0.5305    2.6402 H   0  0  0  0  0  0  0  0  0  0  0  0
    4.5383   -0.7921    2.4378 H   0  0  0  0  0  0  0  0  0  0  0  0
    6.5927   -0.7914    0.9706 H   0  0  0  0  0  0  0  0  0  0  0  0
    7.5911   -0.5222   -1.2748 H   0  0  0  0  0  0  0  0  0  0  0  0
    6.1301   -0.0157   -3.2272 H   0  0  0  0  0  0  0  0  0  0  0  0
    2.6412    0.3128   -2.7771 H   0  0  0  0  0  0  0  0  0  0  0  0
   -2.1564   -0.3218   -0.7855 H   0  0  0  0  0  0  0  0  0  0  0  0
  1  2  1  0
  2  3  2  0
  2  4  1  0
  4  5  1  0
  5  6  2  0
  6  7  1  0
  7  8  2  0
  8  9  1  0
  9 10  1  0
 10 11  2  0
 11 12  1  0
 12 13  2  0
 13 14  1  0
 14 15  2  0
 15 16  1  0
 16 17  2  0
 17 18  1  0
 18 19  2  0
 19 20  1  0
 19 21  1  0
 21 22  2  0
  9 23  2  0
 23  5  1  0
 22 12  1  0
 21 15  1  0
  1 24  1  0
  1 25  1  0
  1 26  1  0
  6 27  1  0
  7 28  1  0
  8 29  1  0
 10 30  1  0
 11 31  1  0
 13 32  1  0
 14 33  1  0
 16 34  1  0
 17 35  1  0
 18 36  1  0
 20 37  1  0
 23 38  1  0
M  END
$$$$
