
     RDKit          3D

 33 34  0  0  0  0  0  0  0  0999 V2000
   -5.3884   -0.1381    1.3442 C   0  0  0  0  0  0  0  0  0  0  0  0
   -4.7049    1.0961    1.1614 O   0  0  0  0  0  0  0  0  0  0  0  0
   -3.3599    1.0323    0.9282 C   0  0  0  0  0  0  0  0  0  0  0  0
   -2.7409    2.2702    0.7427 C   0  0  0  0  0  0  0  0  0  0  0  0
   -1.3658    2.3514    0.5088 C   0  0  0  0  0  0  0  0  0  0  0  0
   -0.5873    1.1876    0.4603 C   0  0  0  0  0  0  0  0  0  0  0  0
    0.8726    1.3543    0.2328 C   0  0  0  0  0  0  0  0  0  0  0  0
    1.2421    2.2546   -0.5236 O   0  0  0  0  0  0  0  0  0  0  0  0
    1.8561    0.5018    1.0049 C   0  0  0  0  0  0  0  0  0  0  0  0
    2.7566   -0.2001    0.0503 C   0  0  0  0  0  0  0  0  0  0  0  0
    2.5309   -1.3960   -0.4548 N   0  0  0  0  0  0  0  0  0  0  0  0
    3.5268   -1.7993   -1.3184 N   0  0  0  0  0  0  0  0  0  0  0  0
    4.4844   -0.9028   -1.4243 C   0  0  0  0  0  0  0  0  0  0  0  0
    5.6873   -1.0391   -2.2818 C   0  0  0  0  0  0  0  0  0  0  0  0
    4.2430    0.4996   -0.4630 S   0  0  0  0  0  0  0  0  0  0  0  0
   -1.2166   -0.0523    0.6018 C   0  0  0  0  0  0  0  0  0  0  0  0
   -0.5154   -1.2258    0.5353 O   0  0  0  0  0  0  0  0  0  0  0  0
   -0.6051   -1.7911   -0.7770 C   0  0  0  0  0  0  0  0  0  0  0  0
   -2.5921   -0.1299    0.8617 C   0  0  0  0  0  0  0  0  0  0  0  0
   -5.0191   -0.6646    2.2305 H   0  0  0  0  0  0  0  0  0  0  0  0
   -6.4471    0.0865    1.5068 H   0  0  0  0  0  0  0  0  0  0  0  0
   -5.3145   -0.7673    0.4512 H   0  0  0  0  0  0  0  0  0  0  0  0
   -3.3344    3.1812    0.7828 H   0  0  0  0  0  0  0  0  0  0  0  0
   -0.9052    3.3283    0.3704 H   0  0  0  0  0  0  0  0  0  0  0  0
    2.4182    1.1702    1.6684 H   0  0  0  0  0  0  0  0  0  0  0  0
    1.3593   -0.2149    1.6623 H   0  0  0  0  0  0  0  0  0  0  0  0
    6.6041   -0.9504   -1.6894 H   0  0  0  0  0  0  0  0  0  0  0  0
    5.6975   -2.0166   -2.7750 H   0  0  0  0  0  0  0  0  0  0  0  0
    5.6970   -0.2692   -3.0599 H   0  0  0  0  0  0  0  0  0  0  0  0
   -0.0010   -2.7030   -0.7902 H   0  0  0  0  0  0  0  0  0  0  0  0
   -0.2087   -1.1036   -1.5322 H   0  0  0  0  0  0  0  0  0  0  0  0
   -1.6375   -2.0682   -1.0175 H   0  0  0  0  0  0  0  0  0  0  0  0
   -3.0320   -1.1115    1.0023 H   0  0  0  0  0  0  0  0  0  0  0  0
  1  2  1  0
  2  3  1  0
  3  4  2  0
  4  5  1  0
  5  6  2  0
  6  7  1  0
  7  8  2  0
  7  9  1  0
  9 10  1  0
 10 11  2  0
 11 12  1  0
 12 13  2  0
 13 14  1  0
 13 15  1  0
  6 16  1  0
 16 17  1  0
 17 18  1  0
 16 19  2  0
 19  3  1  0
 15 10  1  0
  1 20  1  0
  1 21  1  0
  1 22  1  0
  4 23  1  0
  5 24  1  0
  9 25  1  0
  9 26  1  0
 14 27  1  0
 14 28  1  0
 14 29  1  0
 18 30  1  0
 18 31  1  0
 18 32  1  0
 19 33  1  0
M  END
$$$$
