
     RDKit          3D

 55 58  0  0  0  0  0  0  0  0999 V2000
    4.7873   -3.3464   -1.9259 C   0  0  0  0  0  0  0  0  0  0  0  0
    3.8728   -2.3006   -1.6278 O   0  0  0  0  0  0  0  0  0  0  0  0
    2.5640   -2.4774   -1.9978 C   0  0  0  0  0  0  0  0  0  0  0  0
    2.0608   -3.6354   -2.5935 C   0  0  0  0  0  0  0  0  0  0  0  0
    0.7163   -3.7111   -2.9554 C   0  0  0  0  0  0  0  0  0  0  0  0
   -0.1303   -2.6236   -2.7444 C   0  0  0  0  0  0  0  0  0  0  0  0
    0.3445   -1.4333   -2.1639 C   0  0  0  0  0  0  0  0  0  0  0  0
   -0.6415   -0.2925   -1.9763 C   0  0  0  0  0  0  0  0  0  0  0  0
   -0.1265    1.1134   -2.3011 C   0  0  0  0  0  0  0  0  0  0  0  0
   -0.0828    1.7768   -0.9486 C   0  0  0  0  0  0  0  0  0  0  0  0
    0.5297    3.1134   -0.7562 C   0  0  0  0  0  0  0  0  0  0  0  0
    0.5545    3.6695    0.5298 C   0  0  0  0  0  0  0  0  0  0  0  0
    1.1242    4.9263    0.7433 C   0  0  0  0  0  0  0  0  0  0  0  0
    1.6718    5.6334   -0.3256 C   0  0  0  0  0  0  0  0  0  0  0  0
    1.6490    5.0866   -1.6080 C   0  0  0  0  0  0  0  0  0  0  0  0
    1.0792    3.8290   -1.8259 C   0  0  0  0  0  0  0  0  0  0  0  0
   -0.6489    1.1186    0.0175 N   0  0  0  0  0  0  0  0  0  0  0  0
   -1.1069   -0.1908   -0.5667 N   0  0  0  0  0  0  0  0  0  0  0  0
   -2.7545   -0.6123   -0.3417 S   0  0  0  0  0  6  0  0  0  0  0  0
   -3.5714    0.4492   -0.8997 O   0  0  0  0  0  0  0  0  0  0  0  0
   -2.9406   -1.9813   -0.7845 O   0  0  0  0  0  0  0  0  0  0  0  0
   -2.9094   -0.5876    1.4255 C   0  0  0  0  0  0  0  0  0  0  0  0
   -2.5176   -1.7094    2.1610 C   0  0  0  0  0  0  0  0  0  0  0  0
   -2.6656   -1.7082    3.5490 C   0  0  0  0  0  0  0  0  0  0  0  0
   -3.2009   -0.5908    4.2053 C   0  0  0  0  0  0  0  0  0  0  0  0
   -3.3914   -0.6070    5.6936 C   0  0  0  0  0  0  0  0  0  0  0  0
   -3.6120    0.5178    3.4512 C   0  0  0  0  0  0  0  0  0  0  0  0
   -3.4667    0.5234    2.0625 C   0  0  0  0  0  0  0  0  0  0  0  0
    1.6906   -1.3958   -1.7541 C   0  0  0  0  0  0  0  0  0  0  0  0
    2.1688   -0.2526   -1.1568 O   0  0  0  0  0  0  0  0  0  0  0  0
    2.3458   -0.4566    0.2481 C   0  0  0  0  0  0  0  0  0  0  0  0
    5.7804   -3.0256   -1.5967 H   0  0  0  0  0  0  0  0  0  0  0  0
    4.8392   -3.5328   -3.0038 H   0  0  0  0  0  0  0  0  0  0  0  0
    4.5340   -4.2592   -1.3766 H   0  0  0  0  0  0  0  0  0  0  0  0
    2.6860   -4.5001   -2.7876 H   0  0  0  0  0  0  0  0  0  0  0  0
    0.3251   -4.6202   -3.4070 H   0  0  0  0  0  0  0  0  0  0  0  0
   -1.1775   -2.7165   -3.0328 H   0  0  0  0  0  0  0  0  0  0  0  0
   -1.4883   -0.4691   -2.6530 H   0  0  0  0  0  0  0  0  0  0  0  0
    0.8357    1.1283   -2.8175 H   0  0  0  0  0  0  0  0  0  0  0  0
   -0.8600    1.6537   -2.9122 H   0  0  0  0  0  0  0  0  0  0  0  0
    0.1320    3.1294    1.3748 H   0  0  0  0  0  0  0  0  0  0  0  0
    1.1406    5.3515    1.7439 H   0  0  0  0  0  0  0  0  0  0  0  0
    2.1164    6.6115   -0.1589 H   0  0  0  0  0  0  0  0  0  0  0  0
    2.0770    5.6403   -2.4403 H   0  0  0  0  0  0  0  0  0  0  0  0
    1.0773    3.4329   -2.8366 H   0  0  0  0  0  0  0  0  0  0  0  0
   -2.0996   -2.5806    1.6613 H   0  0  0  0  0  0  0  0  0  0  0  0
   -2.3618   -2.5859    4.1164 H   0  0  0  0  0  0  0  0  0  0  0  0
   -4.3737   -1.0213    5.9401 H   0  0  0  0  0  0  0  0  0  0  0  0
   -2.6190   -1.2131    6.1792 H   0  0  0  0  0  0  0  0  0  0  0  0
   -3.3184    0.4039    6.1084 H   0  0  0  0  0  0  0  0  0  0  0  0
   -4.0490    1.3845    3.9422 H   0  0  0  0  0  0  0  0  0  0  0  0
   -3.7833    1.3912    1.4885 H   0  0  0  0  0  0  0  0  0  0  0  0
    1.5082   -1.0032    0.6964 H   0  0  0  0  0  0  0  0  0  0  0  0
    3.2889   -0.9726    0.4531 H   0  0  0  0  0  0  0  0  0  0  0  0
    2.3975    0.5283    0.7225 H   0  0  0  0  0  0  0  0  0  0  0  0
  1  2  1  0
  2  3  1  0
  3  4  2  0
  4  5  1  0
  5  6  2  0
  6  7  1  0
  7  8  1  0
  8  9  1  0
  9 10  1  0
 10 11  1  0
 11 12  2  0
 12 13  1  0
 13 14  2  0
 14 15  1  0
 15 16  2  0
 10 17  2  0
 17 18  1  0
 18 19  1  0
 19 20  2  0
 19 21  2  0
 19 22  1  0
 22 23  2  0
 23 24  1  0
 24 25  2  0
 25 26  1  0
 25 27  1  0
 27 28  2  0
  7 29  2  0
 29 30  1  0
 30 31  1  0
 29  3  1  0
 18  8  1  0
 28 22  1  0
 16 11  1  0
  1 32  1  0
  1 33  1  0
  1 34  1  0
  4 35  1  0
  5 36  1  0
  6 37  1  0
  8 38  1  0
  9 39  1  0
  9 40  1  0
 12 41  1  0
 13 42  1  0
 14 43  1  0
 15 44  1  0
 16 45  1  0
 23 46  1  0
 24 47  1  0
 26 48  1  0
 26 49  1  0
 26 50  1  0
 27 51  1  0
 28 52  1  0
 31 53  1  0
 31 54  1  0
 31 55  1  0
M  END
$$$$
