
     RDKit          3D

 67 72  0  0  0  0  0  0  0  0999 V2000
    7.1352   -0.5077    0.7840 C   0  0  0  0  0  0  0  0  0  0  0  0
    6.2184    0.7191    0.6587 C   0  0  0  0  0  0  0  0  0  0  0  0
    6.1561    1.4227    2.0189 C   0  0  0  0  0  0  0  0  0  0  0  0
    6.7751    1.6345   -0.4372 C   0  0  0  0  0  0  0  0  0  0  0  0
    4.9271    0.1737    0.2861 O   0  0  0  0  0  0  0  0  0  0  0  0
    3.8553    0.9822    0.0857 C   0  0  0  0  0  0  0  0  0  0  0  0
    3.8752    2.2013    0.1981 O   0  0  0  0  0  0  0  0  0  0  0  0
    2.7226    0.2686   -0.2677 N   0  0  0  0  0  0  0  0  0  0  0  0
    2.6607   -1.2007   -0.1401 C   0  0  0  0  0  0  0  0  0  0  0  0
    1.5224   -1.8611   -0.9620 C   0  0  0  0  0  0  0  0  0  0  0  0
    0.2871   -1.1292   -0.7413 N   0  0  0  0  0  0  0  0  0  0  0  0
    0.4380    0.2929   -1.1914 C   0  0  2  0  0  0  0  0  0  0  0  0
    1.4356    0.9864   -0.2727 C   0  0  0  0  0  0  0  0  0  0  0  0
   -0.9748    0.7249   -1.1760 C   0  0  0  0  0  0  0  0  0  0  0  0
   -1.8194   -0.4058   -1.2447 C   0  0  0  0  0  0  0  0  0  0  0  0
   -3.1191    0.0296   -1.2597 C   0  0  0  0  0  0  0  0  0  0  0  0
   -4.2767   -0.6182   -1.3097 O   0  0  0  0  0  0  0  0  0  0  0  0
   -3.0683    1.4152   -1.1872 N   0  0  0  0  0  0  0  0  0  0  0  0
   -4.2344    2.2898   -1.1816 C   0  0  0  0  0  0  0  0  0  0  0  0
   -4.7235    2.5616    0.2207 C   0  0  0  0  0  0  0  0  0  0  0  0
   -5.6906    1.7355    0.8118 C   0  0  0  0  0  0  0  0  0  0  0  0
   -6.1364    1.9824    2.1112 C   0  0  0  0  0  0  0  0  0  0  0  0
   -5.6180    3.0545    2.8349 C   0  0  0  0  0  0  0  0  0  0  0  0
   -4.6505    3.8778    2.2621 C   0  0  0  0  0  0  0  0  0  0  0  0
   -4.2031    3.6316    0.9631 C   0  0  0  0  0  0  0  0  0  0  0  0
   -1.7501    1.8515   -1.1682 C   0  0  0  0  0  0  0  0  0  0  0  0
   -1.4507    3.1439   -1.1521 O   0  0  0  0  0  0  0  0  0  0  0  0
   -0.9969   -1.6450   -1.2662 C   0  0  1  0  0  0  0  0  0  0  0  0
   -0.9176   -2.3065   -2.6706 C   0  0  0  0  0  0  0  0  0  0  0  0
   -0.4174   -1.8699   -3.6964 O   0  0  0  0  0  0  0  0  0  0  0  0
   -1.5244   -3.5611   -2.5526 N   0  0  0  0  0  0  0  0  0  0  0  0
   -1.9566   -3.7947   -1.2532 C   0  0  0  0  0  0  0  0  0  0  0  0
   -2.5844   -4.9270   -0.7792 C   0  0  0  0  0  0  0  0  0  0  0  0
   -2.9309   -4.9492    0.5741 C   0  0  0  0  0  0  0  0  0  0  0  0
   -2.6422   -3.8552    1.4107 C   0  0  0  0  0  0  0  0  0  0  0  0
   -2.0029   -2.7184    0.9087 C   0  0  0  0  0  0  0  0  0  0  0  0
   -1.6677   -2.6972   -0.4359 C   0  0  0  0  0  0  0  0  0  0  0  0
    7.1765   -1.0614   -0.1614 H   0  0  0  0  0  0  0  0  0  0  0  0
    8.1556   -0.2266    1.0650 H   0  0  0  0  0  0  0  0  0  0  0  0
    6.7494   -1.2073    1.5348 H   0  0  0  0  0  0  0  0  0  0  0  0
    5.6755    0.7817    2.7665 H   0  0  0  0  0  0  0  0  0  0  0  0
    7.1572    1.6857    2.3774 H   0  0  0  0  0  0  0  0  0  0  0  0
    5.5720    2.3467    1.9760 H   0  0  0  0  0  0  0  0  0  0  0  0
    6.7291    1.1422   -1.4152 H   0  0  0  0  0  0  0  0  0  0  0  0
    7.8156    1.9107   -0.2348 H   0  0  0  0  0  0  0  0  0  0  0  0
    6.2025    2.5625   -0.5260 H   0  0  0  0  0  0  0  0  0  0  0  0
    3.6173   -1.6427   -0.4381 H   0  0  0  0  0  0  0  0  0  0  0  0
    2.5178   -1.4141    0.9268 H   0  0  0  0  0  0  0  0  0  0  0  0
    1.7990   -1.8625   -2.0231 H   0  0  0  0  0  0  0  0  0  0  0  0
    1.4223   -2.9045   -0.6430 H   0  0  0  0  0  0  0  0  0  0  0  0
    0.8026    0.3237   -2.2283 H   0  0  0  0  0  0  0  0  0  0  0  0
    1.5869    2.0234   -0.5932 H   0  0  0  0  0  0  0  0  0  0  0  0
    1.0755    1.0200    0.7638 H   0  0  0  0  0  0  0  0  0  0  0  0
   -4.0825   -1.5700   -1.2378 H   0  0  0  0  0  0  0  0  0  0  0  0
   -5.0185    1.8212   -1.7878 H   0  0  0  0  0  0  0  0  0  0  0  0
   -3.9695    3.2234   -1.6916 H   0  0  0  0  0  0  0  0  0  0  0  0
   -6.0953    0.8886    0.2609 H   0  0  0  0  0  0  0  0  0  0  0  0
   -6.8852    1.3347    2.5592 H   0  0  0  0  0  0  0  0  0  0  0  0
   -5.9638    3.2453    3.8472 H   0  0  0  0  0  0  0  0  0  0  0  0
   -4.2396    4.7097    2.8277 H   0  0  0  0  0  0  0  0  0  0  0  0
   -3.4384    4.2747    0.5316 H   0  0  0  0  0  0  0  0  0  0  0  0
   -0.4813    3.2267   -1.1602 H   0  0  0  0  0  0  0  0  0  0  0  0
   -1.6018   -4.2028   -3.3275 H   0  0  0  0  0  0  0  0  0  0  0  0
   -2.8033   -5.7723   -1.4216 H   0  0  0  0  0  0  0  0  0  0  0  0
   -3.4276   -5.8233    0.9903 H   0  0  0  0  0  0  0  0  0  0  0  0
   -2.9197   -3.8947    2.4624 H   0  0  0  0  0  0  0  0  0  0  0  0
   -1.7805   -1.8713    1.5521 H   0  0  0  0  0  0  0  0  0  0  0  0
  1  2  1  0
  2  3  1  0
  2  4  1  0
  2  5  1  0
  5  6  1  0
  6  7  2  0
  6  8  1  0
  8  9  1  0
  9 10  1  0
 10 11  1  0
 11 12  1  0
 12 13  1  0
 12 14  1  0
 14 15  1  0
 15 16  2  0
 16 17  1  0
 16 18  1  0
 18 19  1  0
 19 20  1  0
 20 21  2  0
 21 22  1  0
 22 23  2  0
 23 24  1  0
 24 25  2  0
 18 26  1  0
 26 27  1  0
 15 28  1  0
 28 29  1  0
 29 30  2  0
 29 31  1  0
 31 32  1  0
 32 33  2  0
 33 34  1  0
 34 35  2  0
 35 36  1  0
 36 37  2  0
 13  8  1  0
 26 14  2  0
 37 28  1  0
 28 11  1  1
 37 32  1  0
 25 20  1  0
  1 38  1  0
  1 39  1  0
  1 40  1  0
  3 41  1  0
  3 42  1  0
  3 43  1  0
  4 44  1  0
  4 45  1  0
  4 46  1  0
  9 47  1  0
  9 48  1  0
 10 49  1  0
 10 50  1  0
 12 51  1  6
 13 52  1  0
 13 53  1  0
 17 54  1  0
 19 55  1  0
 19 56  1  0
 21 57  1  0
 22 58  1  0
 23 59  1  0
 24 60  1  0
 25 61  1  0
 27 62  1  0
 31 63  1  0
 33 64  1  0
 34 65  1  0
 35 66  1  0
 36 67  1  0
M  END
$$$$
