
     RDKit          3D

 34 35  0  0  0  0  0  0  0  0999 V2000
   -2.9912   -0.5254    1.3237 C   0  0  0  0  0  0  0  0  0  0  0  0
   -2.6953    0.4320    0.3023 O   0  0  0  0  0  0  0  0  0  0  0  0
   -3.0217   -0.0754   -0.9290 C   0  0  0  0  0  0  0  0  0  0  0  0
   -4.3018    0.1995   -1.4182 C   0  0  0  0  0  0  0  0  0  0  0  0
   -4.6933   -0.2969   -2.6624 C   0  0  0  0  0  0  0  0  0  0  0  0
   -3.8022   -1.0594   -3.4169 C   0  0  0  0  0  0  0  0  0  0  0  0
   -4.2945   -1.6779   -4.9445 Cl  0  0  0  0  0  0  0  0  0  0  0  0
   -2.5159   -1.3183   -2.9474 C   0  0  0  0  0  0  0  0  0  0  0  0
   -2.1107   -0.8067   -1.7062 C   0  0  0  0  0  0  0  0  0  0  0  0
   -0.7269   -1.1003   -1.2718 C   0  0  0  0  0  0  0  0  0  0  0  0
   -0.1666   -2.1527   -1.5410 O   0  0  0  0  0  0  0  0  0  0  0  0
   -0.2366   -0.0185   -0.6065 O   0  0  0  0  0  0  0  0  0  0  0  0
    1.0829   -0.2562   -0.1815 N   0  0  0  0  0  0  0  0  0  0  0  0
    1.5127    0.7231    0.5589 C   0  0  0  0  0  0  0  0  0  0  0  0
    0.7387    1.8180    0.8776 N   0  0  0  0  0  0  0  0  0  0  0  0
    2.9088    0.6357    1.0981 C   0  0  0  0  0  0  0  0  0  0  0  0
    3.5649    1.7797    1.5725 C   0  0  0  0  0  0  0  0  0  0  0  0
    4.8655    1.6840    2.0774 C   0  0  0  0  0  0  0  0  0  0  0  0
    5.5109    0.4484    2.1050 C   0  0  0  0  0  0  0  0  0  0  0  0
    7.1102    0.3349    2.7285 Cl  0  0  0  0  0  0  0  0  0  0  0  0
    4.8710   -0.6932    1.6268 C   0  0  0  0  0  0  0  0  0  0  0  0
    3.5714   -0.5995    1.1207 C   0  0  0  0  0  0  0  0  0  0  0  0
   -2.4246   -1.4517    1.1794 H   0  0  0  0  0  0  0  0  0  0  0  0
   -2.6936   -0.0919    2.2830 H   0  0  0  0  0  0  0  0  0  0  0  0
   -4.0652   -0.7374    1.3642 H   0  0  0  0  0  0  0  0  0  0  0  0
   -4.9957    0.7943   -0.8292 H   0  0  0  0  0  0  0  0  0  0  0  0
   -5.6926   -0.0880   -3.0366 H   0  0  0  0  0  0  0  0  0  0  0  0
   -1.8238   -1.9085   -3.5454 H   0  0  0  0  0  0  0  0  0  0  0  0
    0.8418    2.1621    1.8252 H   0  0  0  0  0  0  0  0  0  0  0  0
   -0.2386    1.6677    0.6382 H   0  0  0  0  0  0  0  0  0  0  0  0
    3.0868    2.7544    1.5317 H   0  0  0  0  0  0  0  0  0  0  0  0
    5.3709    2.5760    2.4384 H   0  0  0  0  0  0  0  0  0  0  0  0
    5.3742   -1.6563    1.6402 H   0  0  0  0  0  0  0  0  0  0  0  0
    3.0801   -1.4953    0.7446 H   0  0  0  0  0  0  0  0  0  0  0  0
  1  2  1  0
  2  3  1  0
  3  4  2  0
  4  5  1  0
  5  6  2  0
  6  7  1  0
  6  8  1  0
  8  9  2  0
  9 10  1  0
 10 11  2  0
 10 12  1  0
 12 13  1  0
 13 14  2  3
 14 15  1  0
 14 16  1  0
 16 17  2  0
 17 18  1  0
 18 19  2  0
 19 20  1  0
 19 21  1  0
 21 22  2  0
  9  3  1  0
 22 16  1  0
  1 23  1  0
  1 24  1  0
  1 25  1  0
  4 26  1  0
  5 27  1  0
  8 28  1  0
 15 29  1  0
 15 30  1  0
 17 31  1  0
 18 32  1  0
 21 33  1  0
 22 34  1  0
M  END
$$$$
