
     RDKit          3D

 35 36  0  0  0  0  0  0  0  0999 V2000
   -4.6323    1.6408   -2.4242 N   0  0  0  0  0  0  0  0  0  0  0  0
   -3.9603    0.9722   -1.4381 C   0  0  0  0  0  0  0  0  0  0  0  0
   -4.3696   -0.3981   -1.0690 C   0  0  0  0  0  0  0  0  0  0  0  0
   -3.6787   -0.9629   -0.0801 C   0  0  0  0  0  0  0  0  0  0  0  0
   -2.6548   -0.2859    0.5419 N   0  0  0  0  0  0  0  0  0  0  0  0
   -1.8799   -0.9518    1.5837 C   0  0  0  0  0  0  0  0  0  0  0  0
   -0.8181   -1.8559    0.9619 C   0  0  0  0  0  0  0  0  0  0  0  0
   -0.9638   -3.0765    0.8962 O   0  0  0  0  0  0  0  0  0  0  0  0
    0.2774   -1.1944    0.4542 N   0  0  0  0  0  0  0  0  0  0  0  0
    1.4625   -1.9143    0.0319 C   0  0  0  0  0  0  0  0  0  0  0  0
    2.4542   -1.0343   -0.7320 C   0  0  0  0  0  0  0  0  0  0  0  0
    3.0922    0.0409    0.1186 C   0  0  0  0  0  0  0  0  0  0  0  0
    4.4373    0.3633   -0.0499 C   0  0  0  0  0  0  0  0  0  0  0  0
    4.9823    1.3989    0.7059 C   0  0  0  0  0  0  0  0  0  0  0  0
    4.1708    2.0982    1.5905 C   0  0  0  0  0  0  0  0  0  0  0  0
    2.8408    1.7284    1.6879 C   0  0  0  0  0  0  0  0  0  0  0  0
    2.2903    0.7173    0.9798 N   0  0  0  0  0  0  0  0  0  0  0  0
   -2.2627    0.9912    0.1331 C   0  0  0  0  0  0  0  0  0  0  0  0
   -1.3106    1.5635    0.6625 O   0  0  0  0  0  0  0  0  0  0  0  0
   -2.9802    1.6012   -0.8690 N   0  0  0  0  0  0  0  0  0  0  0  0
   -5.6304    1.4806   -2.4835 H   0  0  0  0  0  0  0  0  0  0  0  0
   -4.3902    2.6275   -2.4331 H   0  0  0  0  0  0  0  0  0  0  0  0
   -5.1672   -0.8953   -1.6011 H   0  0  0  0  0  0  0  0  0  0  0  0
   -3.8853   -1.9768    0.2543 H   0  0  0  0  0  0  0  0  0  0  0  0
   -2.5448   -1.5566    2.2134 H   0  0  0  0  0  0  0  0  0  0  0  0
   -1.3911   -0.2247    2.2418 H   0  0  0  0  0  0  0  0  0  0  0  0
    0.4323   -0.2251    0.7484 H   0  0  0  0  0  0  0  0  0  0  0  0
    1.9261   -2.3425    0.9287 H   0  0  0  0  0  0  0  0  0  0  0  0
    1.1454   -2.7489   -0.6042 H   0  0  0  0  0  0  0  0  0  0  0  0
    1.9580   -0.5495   -1.5814 H   0  0  0  0  0  0  0  0  0  0  0  0
    3.2382   -1.6856   -1.1365 H   0  0  0  0  0  0  0  0  0  0  0  0
    5.0574   -0.1764   -0.7587 H   0  0  0  0  0  0  0  0  0  0  0  0
    6.0323    1.6610    0.6014 H   0  0  0  0  0  0  0  0  0  0  0  0
    4.5628    2.9158    2.1843 H   0  0  0  0  0  0  0  0  0  0  0  0
    2.1597    2.2545    2.3520 H   0  0  0  0  0  0  0  0  0  0  0  0
  1  2  1  0
  2  3  1  0
  3  4  2  0
  4  5  1  0
  5  6  1  0
  6  7  1  0
  7  8  2  0
  7  9  1  0
  9 10  1  0
 10 11  1  0
 11 12  1  0
 12 13  2  0
 13 14  1  0
 14 15  2  0
 15 16  1  0
 16 17  2  0
  5 18  1  0
 18 19  2  0
 18 20  1  0
 20  2  2  0
 17 12  1  0
  1 21  1  0
  1 22  1  0
  3 23  1  0
  4 24  1  0
  6 25  1  0
  6 26  1  0
  9 27  1  0
 10 28  1  0
 10 29  1  0
 11 30  1  0
 11 31  1  0
 13 32  1  0
 14 33  1  0
 15 34  1  0
 16 35  1  0
M  END
$$$$
