
     RDKit          3D

 44 46  0  0  0  0  0  0  0  0999 V2000
    6.8561    1.4407   -0.5698 C   0  0  0  0  0  0  0  0  0  0  0  0
    5.9173    1.7043   -1.6039 O   0  0  0  0  0  0  0  0  0  0  0  0
    5.1735    0.5525   -1.9991 C   0  0  0  0  0  0  0  0  0  0  0  0
    4.0211    0.2761   -1.0391 C   0  0  0  0  0  0  0  0  0  0  0  0
    3.1800   -0.9082   -1.5179 C   0  0  0  0  0  0  0  0  0  0  0  0
    2.0867   -1.2140   -0.5821 N   0  0  0  0  0  0  0  0  0  0  0  0
    2.2556   -2.1077    0.4753 C   0  0  0  0  0  0  0  0  0  0  0  0
    3.6418   -2.9753    0.8560 S   0  0  0  0  0  0  0  0  0  0  0  0
    1.1785   -2.3058    1.2961 N   0  0  0  0  0  0  0  0  0  0  0  0
   -0.0465   -1.6642    1.1424 C   0  0  0  0  0  0  0  0  0  0  0  0
   -1.0890   -1.9264    2.0212 C   0  0  0  0  0  0  0  0  0  0  0  0
   -2.3155   -1.2684    1.8553 C   0  0  0  0  0  0  0  0  0  0  0  0
   -2.5357   -0.3388    0.8229 C   0  0  0  0  0  0  0  0  0  0  0  0
   -3.7519    0.3003    0.6692 N   0  0  0  0  0  0  0  0  0  0  0  0
   -4.1261    0.9867   -0.5800 C   0  0  0  0  0  0  0  0  0  0  0  0
   -5.6578    1.0758   -0.6933 C   0  0  0  0  0  0  0  0  0  0  0  0
   -6.2878    1.7767    0.3882 O   0  0  0  0  0  0  0  0  0  0  0  0
   -5.5408    1.7219    1.6105 C   0  0  0  0  0  0  0  0  0  0  0  0
   -4.7105    0.4379    1.7794 C   0  0  0  0  0  0  0  0  0  0  0  0
   -1.4583   -0.1039   -0.0458 C   0  0  0  0  0  0  0  0  0  0  0  0
   -0.2278   -0.7597    0.1132 C   0  0  0  0  0  0  0  0  0  0  0  0
    0.8972   -0.4992   -0.8026 C   0  0  0  0  0  0  0  0  0  0  0  0
    0.7487    0.3234   -1.7048 O   0  0  0  0  0  0  0  0  0  0  0  0
    7.4151    2.3600   -0.3745 H   0  0  0  0  0  0  0  0  0  0  0  0
    7.5631    0.6652   -0.8798 H   0  0  0  0  0  0  0  0  0  0  0  0
    6.3514    1.1446    0.3534 H   0  0  0  0  0  0  0  0  0  0  0  0
    4.7713    0.7653   -2.9957 H   0  0  0  0  0  0  0  0  0  0  0  0
    5.8366   -0.3154   -2.0955 H   0  0  0  0  0  0  0  0  0  0  0  0
    4.4059    0.0843   -0.0318 H   0  0  0  0  0  0  0  0  0  0  0  0
    3.4002    1.1758   -0.9457 H   0  0  0  0  0  0  0  0  0  0  0  0
    3.8119   -1.7907   -1.6591 H   0  0  0  0  0  0  0  0  0  0  0  0
    2.7579   -0.6824   -2.5050 H   0  0  0  0  0  0  0  0  0  0  0  0
    1.3074   -2.9618    2.0586 H   0  0  0  0  0  0  0  0  0  0  0  0
   -0.9750   -2.6380    2.8338 H   0  0  0  0  0  0  0  0  0  0  0  0
   -3.1156   -1.5200    2.5472 H   0  0  0  0  0  0  0  0  0  0  0  0
   -3.6922    1.9935   -0.5787 H   0  0  0  0  0  0  0  0  0  0  0  0
   -3.7565    0.4417   -1.4561 H   0  0  0  0  0  0  0  0  0  0  0  0
   -6.0923    0.0698   -0.7295 H   0  0  0  0  0  0  0  0  0  0  0  0
   -5.9374    1.5846   -1.6214 H   0  0  0  0  0  0  0  0  0  0  0  0
   -6.2539    1.8188    2.4354 H   0  0  0  0  0  0  0  0  0  0  0  0
   -4.8879    2.6023    1.6398 H   0  0  0  0  0  0  0  0  0  0  0  0
   -5.3718   -0.4362    1.7842 H   0  0  0  0  0  0  0  0  0  0  0  0
   -4.1968    0.4978    2.7457 H   0  0  0  0  0  0  0  0  0  0  0  0
   -1.5501    0.6159   -0.8553 H   0  0  0  0  0  0  0  0  0  0  0  0
  1  2  1  0
  2  3  1  0
  3  4  1  0
  4  5  1  0
  5  6  1  0
  6  7  1  0
  7  8  2  0
  7  9  1  0
  9 10  1  0
 10 11  2  0
 11 12  1  0
 12 13  2  0
 13 14  1  0
 14 15  1  0
 15 16  1  0
 16 17  1  0
 17 18  1  0
 18 19  1  0
 13 20  1  0
 20 21  2  0
 21 22  1  0
 22 23  2  0
 22  6  1  0
 21 10  1  0
 19 14  1  0
  1 24  1  0
  1 25  1  0
  1 26  1  0
  3 27  1  0
  3 28  1  0
  4 29  1  0
  4 30  1  0
  5 31  1  0
  5 32  1  0
  9 33  1  0
 11 34  1  0
 12 35  1  0
 15 36  1  0
 15 37  1  0
 16 38  1  0
 16 39  1  0
 18 40  1  0
 18 41  1  0
 19 42  1  0
 19 43  1  0
 20 44  1  0
M  END
$$$$
