
     RDKit          3D

 50 52  0  0  0  0  0  0  0  0999 V2000
   -8.7954    0.0530    1.1969 C   0  0  0  0  0  0  0  0  0  0  0  0
   -8.0387    0.0407   -0.0053 O   0  0  0  0  0  0  0  0  0  0  0  0
   -6.6706    0.0716    0.1004 C   0  0  0  0  0  0  0  0  0  0  0  0
   -5.9729    0.1087    1.3120 C   0  0  0  0  0  0  0  0  0  0  0  0
   -4.5769    0.1425    1.3197 C   0  0  0  0  0  0  0  0  0  0  0  0
   -3.8679    0.1513    0.1159 C   0  0  0  0  0  0  0  0  0  0  0  0
   -2.3833    0.1953    0.1750 C   0  0  0  0  0  0  0  0  0  0  0  0
   -1.7872   -0.3352    1.1078 O   0  0  0  0  0  0  0  0  0  0  0  0
   -1.7529    0.8990   -0.8428 N   0  0  0  0  0  0  0  0  0  0  0  0
   -0.3946    1.0626   -1.0872 C   0  0  0  0  0  0  0  0  0  0  0  0
   -0.0233    2.0065   -2.4132 S   0  0  0  0  0  0  0  0  0  0  0  0
    0.4263    0.4183   -0.1935 N   0  0  0  0  0  0  0  0  0  0  0  0
    1.8257    0.2797   -0.0729 C   0  0  0  0  0  0  0  0  0  0  0  0
    2.2812   -0.4220    1.0470 C   0  0  0  0  0  0  0  0  0  0  0  0
    3.6515   -0.6250    1.2729 C   0  0  0  0  0  0  0  0  0  0  0  0
    4.6277   -0.1411    0.3950 C   0  0  0  0  0  0  0  0  0  0  0  0
    5.9692   -0.3371    0.6148 N   0  0  0  0  0  0  0  0  0  0  0  0
    7.0302    0.2648   -0.1892 C   0  0  0  0  0  0  0  0  0  0  0  0
    8.2971    0.0095    0.6237 C   0  0  0  0  0  0  0  0  0  0  0  0
    7.9934   -1.2999    1.3299 C   0  0  0  0  0  0  0  0  0  0  0  0
    6.5158   -1.1628    1.6886 C   0  0  0  0  0  0  0  0  0  0  0  0
    4.1500    0.5538   -0.7240 C   0  0  0  0  0  0  0  0  0  0  0  0
    2.7782    0.7617   -0.9596 C   0  0  0  0  0  0  0  0  0  0  0  0
   -4.5560    0.0921   -1.1032 C   0  0  0  0  0  0  0  0  0  0  0  0
   -5.9557    0.0557   -1.1167 C   0  0  0  0  0  0  0  0  0  0  0  0
   -6.7173    0.0040   -2.2582 O   0  0  0  0  0  0  0  0  0  0  0  0
   -6.0470   -0.0882   -3.5070 C   0  0  0  0  0  0  0  0  0  0  0  0
   -8.6198    0.9725    1.7648 H   0  0  0  0  0  0  0  0  0  0  0  0
   -9.8551    0.0279    0.9253 H   0  0  0  0  0  0  0  0  0  0  0  0
   -8.5871   -0.8342    1.8038 H   0  0  0  0  0  0  0  0  0  0  0  0
   -6.4850    0.1100    2.2687 H   0  0  0  0  0  0  0  0  0  0  0  0
   -4.0460    0.1668    2.2700 H   0  0  0  0  0  0  0  0  0  0  0  0
   -2.3277    1.4070   -1.5011 H   0  0  0  0  0  0  0  0  0  0  0  0
   -0.0953   -0.0376    0.5577 H   0  0  0  0  0  0  0  0  0  0  0  0
    1.5777   -0.8238    1.7731 H   0  0  0  0  0  0  0  0  0  0  0  0
    3.9352   -1.1696    2.1686 H   0  0  0  0  0  0  0  0  0  0  0  0
    7.0923   -0.2329   -1.1638 H   0  0  0  0  0  0  0  0  0  0  0  0
    6.8894    1.3407   -0.3386 H   0  0  0  0  0  0  0  0  0  0  0  0
    8.4373    0.8081    1.3624 H   0  0  0  0  0  0  0  0  0  0  0  0
    9.1928   -0.0402   -0.0014 H   0  0  0  0  0  0  0  0  0  0  0  0
    8.6234   -1.4679    2.2077 H   0  0  0  0  0  0  0  0  0  0  0  0
    8.1363   -2.1389    0.6382 H   0  0  0  0  0  0  0  0  0  0  0  0
    6.4002   -0.6529    2.6518 H   0  0  0  0  0  0  0  0  0  0  0  0
    6.0479   -2.1516    1.7418 H   0  0  0  0  0  0  0  0  0  0  0  0
    4.8430    0.9498   -1.4614 H   0  0  0  0  0  0  0  0  0  0  0  0
    2.5186    1.3004   -1.8600 H   0  0  0  0  0  0  0  0  0  0  0  0
   -3.9954    0.0462   -2.0295 H   0  0  0  0  0  0  0  0  0  0  0  0
   -5.4406   -0.9982   -3.5640 H   0  0  0  0  0  0  0  0  0  0  0  0
   -5.4411    0.8041   -3.6955 H   0  0  0  0  0  0  0  0  0  0  0  0
   -6.8074   -0.1456   -4.2918 H   0  0  0  0  0  0  0  0  0  0  0  0
  1  2  1  0
  2  3  1  0
  3  4  2  0
  4  5  1  0
  5  6  2  0
  6  7  1  0
  7  8  2  0
  7  9  1  0
  9 10  1  0
 10 11  2  0
 10 12  1  0
 12 13  1  0
 13 14  2  0
 14 15  1  0
 15 16  2  0
 16 17  1  0
 17 18  1  0
 18 19  1  0
 19 20  1  0
 20 21  1  0
 16 22  1  0
 22 23  2  0
  6 24  1  0
 24 25  2  0
 25 26  1  0
 26 27  1  0
 25  3  1  0
 23 13  1  0
 21 17  1  0
  1 28  1  0
  1 29  1  0
  1 30  1  0
  4 31  1  0
  5 32  1  0
  9 33  1  0
 12 34  1  0
 14 35  1  0
 15 36  1  0
 18 37  1  0
 18 38  1  0
 19 39  1  0
 19 40  1  0
 20 41  1  0
 20 42  1  0
 21 43  1  0
 21 44  1  0
 22 45  1  0
 23 46  1  0
 24 47  1  0
 27 48  1  0
 27 49  1  0
 27 50  1  0
M  END
$$$$
