
     RDKit          3D

 30 31  0  0  0  0  0  0  0  0999 V2000
    3.0890   -0.6041    2.7176 C   0  0  0  0  0  0  0  0  0  0  0  0
    2.0695   -0.4884    1.6061 C   0  0  0  0  0  0  0  0  0  0  0  0
    0.8412   -0.2412    1.9536 N   0  0  0  0  0  0  0  0  0  0  0  0
   -0.1037   -0.0382    0.9921 N   0  0  0  0  0  0  0  0  0  0  0  0
   -1.4138    0.2298    1.3443 C   0  0  0  0  0  0  0  0  0  0  0  0
   -1.8237    0.2926    2.5015 O   0  0  0  0  0  0  0  0  0  0  0  0
   -2.3766    0.4471    0.2164 C   0  0  0  0  0  0  0  0  0  0  0  0
   -3.7315    0.6015    0.5583 C   0  0  0  0  0  0  0  0  0  0  0  0
   -4.6909    0.8055   -0.4312 C   0  0  0  0  0  0  0  0  0  0  0  0
   -6.3453    0.9906    0.0026 Cl  0  0  0  0  0  0  0  0  0  0  0  0
   -4.3215    0.8604   -1.7727 C   0  0  0  0  0  0  0  0  0  0  0  0
   -2.9811    0.7120   -2.1299 C   0  0  0  0  0  0  0  0  0  0  0  0
   -2.0138    0.5077   -1.1401 C   0  0  0  0  0  0  0  0  0  0  0  0
   -0.7056    0.3731   -1.5248 O   0  0  0  0  0  0  0  0  0  0  0  0
    2.5783   -0.6179    0.2523 C   0  0  0  0  0  0  0  0  0  0  0  0
    3.6278    0.0673   -0.3333 C   0  0  0  0  0  0  0  0  0  0  0  0
    3.8616   -0.3474   -1.6795 C   0  0  0  0  0  0  0  0  0  0  0  0
    2.9951   -1.3449   -2.0465 C   0  0  0  0  0  0  0  0  0  0  0  0
    2.9923   -2.1566   -3.7761 Br  0  0  0  0  0  0  0  0  0  0  0  0
    1.9280   -1.7946   -0.8118 S   0  0  0  0  0  0  0  0  0  0  0  0
    3.7938   -1.4132    2.5053 H   0  0  0  0  0  0  0  0  0  0  0  0
    3.6383    0.3380    2.8042 H   0  0  0  0  0  0  0  0  0  0  0  0
    2.5921   -0.8107    3.6701 H   0  0  0  0  0  0  0  0  0  0  0  0
    0.1534   -0.0609    0.0065 H   0  0  0  0  0  0  0  0  0  0  0  0
   -4.0372    0.5604    1.6026 H   0  0  0  0  0  0  0  0  0  0  0  0
   -5.0728    1.0194   -2.5425 H   0  0  0  0  0  0  0  0  0  0  0  0
   -2.7129    0.7598   -3.1818 H   0  0  0  0  0  0  0  0  0  0  0  0
   -0.6484    0.4444   -2.4950 H   0  0  0  0  0  0  0  0  0  0  0  0
    4.1936    0.8416    0.1724 H   0  0  0  0  0  0  0  0  0  0  0  0
    4.6249    0.0668   -2.3270 H   0  0  0  0  0  0  0  0  0  0  0  0
  1  2  1  0
  2  3  2  3
  3  4  1  0
  4  5  1  0
  5  6  2  0
  5  7  1  0
  7  8  2  0
  8  9  1  0
  9 10  1  0
  9 11  2  0
 11 12  1  0
 12 13  2  0
 13 14  1  0
  2 15  1  0
 15 16  2  0
 16 17  1  0
 17 18  2  0
 18 19  1  0
 18 20  1  0
 13  7  1  0
 20 15  1  0
  1 21  1  0
  1 22  1  0
  1 23  1  0
  4 24  1  0
  8 25  1  0
 11 26  1  0
 12 27  1  0
 14 28  1  0
 16 29  1  0
 17 30  1  0
M  END
$$$$
