
     RDKit          3D

 65 69  0  0  0  0  0  0  0  0999 V2000
   -4.1466    4.8582   -0.1346 C   0  0  0  0  0  0  0  0  0  0  0  0
   -3.4008    3.8474    0.7216 C   0  0  0  0  0  0  0  0  0  0  0  0
   -2.5970    3.0453   -0.1407 O   0  0  0  0  0  0  0  0  0  0  0  0
   -1.9330    1.9974    0.4284 C   0  0  0  0  0  0  0  0  0  0  0  0
   -1.4344    1.0593   -0.4745 C   0  0  0  0  0  0  0  0  0  0  0  0
   -0.7284   -0.0603   -0.0262 C   0  0  0  0  0  0  0  0  0  0  0  0
   -0.4686   -0.2460    1.3375 C   0  0  0  0  0  0  0  0  0  0  0  0
    0.3102   -1.4361    1.8588 C   0  0  0  0  0  0  0  0  0  0  0  0
    1.8339   -1.4439    1.6124 C   0  0  0  0  0  0  0  0  0  0  0  0
    2.2780   -1.0222    0.2298 C   0  0  0  0  0  0  0  0  0  0  0  0
    1.8813   -1.5958   -0.7850 O   0  0  0  0  0  0  0  0  0  0  0  0
    3.2325    0.1071    0.0791 C   0  0  0  0  0  0  0  0  0  0  0  0
    4.2563    0.3433    1.0190 C   0  0  0  0  0  0  0  0  0  0  0  0
    5.1675    1.3870    0.8229 C   0  0  0  0  0  0  0  0  0  0  0  0
    5.0459    2.1498   -0.3221 C   0  0  0  0  0  0  0  0  0  0  0  0
    4.0472    1.9215   -1.2527 C   0  0  0  0  0  0  0  0  0  0  0  0
    3.1222    0.9072   -1.0678 C   0  0  0  0  0  0  0  0  0  0  0  0
    4.1621    2.9090   -2.3507 C   0  0  0  0  0  0  0  0  0  0  0  0
    5.5612    3.4698   -2.0389 C   0  0  0  0  0  0  0  0  0  0  0  0
    5.6533    4.9695   -2.2653 C   0  0  0  0  0  0  0  0  0  0  0  0
    5.8839    3.1840   -0.6527 O   0  0  0  0  0  0  0  0  0  0  0  0
    2.0985   -2.9050    1.7823 C   0  0  0  0  0  0  0  0  0  0  0  0
    3.1655   -3.4061    2.0852 O   0  0  0  0  0  0  0  0  0  0  0  0
    0.8079   -3.6818    1.5260 C   0  0  0  0  0  0  0  0  0  0  0  0
    0.7299   -4.8944    1.4820 O   0  0  0  0  0  0  0  0  0  0  0  0
   -0.2002   -2.7334    1.4428 N   0  0  0  0  0  0  0  0  0  0  0  0
   -1.5929   -3.1213    1.6200 C   0  0  0  0  0  0  0  0  0  0  0  0
   -2.2270   -3.5875    0.3130 C   0  0  0  0  0  0  0  0  0  0  0  0
   -3.7168   -3.8526    0.5072 C   0  0  0  0  0  0  0  0  0  0  0  0
   -4.4021   -4.0591   -0.7546 N   0  0  0  0  0  0  0  0  0  0  0  0
   -4.6530   -5.2573   -1.3603 C   0  0  0  0  0  0  0  0  0  0  0  0
   -5.3178   -4.9315   -2.5207 C   0  0  0  0  0  0  0  0  0  0  0  0
   -5.4795   -3.5745   -2.6277 N   0  0  0  0  0  0  0  0  0  0  0  0
   -4.9342   -3.0738   -1.5387 C   0  0  0  0  0  0  0  0  0  0  0  0
   -0.9833    0.7010    2.2409 C   0  0  0  0  0  0  0  0  0  0  0  0
   -1.7155    1.8086    1.7917 C   0  0  0  0  0  0  0  0  0  0  0  0
   -3.4405    5.5942   -0.5538 H   0  0  0  0  0  0  0  0  0  0  0  0
   -4.8873    5.3967    0.4649 H   0  0  0  0  0  0  0  0  0  0  0  0
   -4.6541    4.3707   -0.9784 H   0  0  0  0  0  0  0  0  0  0  0  0
   -4.1306    3.2153    1.2469 H   0  0  0  0  0  0  0  0  0  0  0  0
   -2.7704    4.3841    1.4422 H   0  0  0  0  0  0  0  0  0  0  0  0
   -1.6019    1.1977   -1.5405 H   0  0  0  0  0  0  0  0  0  0  0  0
   -0.3846   -0.7809   -0.7671 H   0  0  0  0  0  0  0  0  0  0  0  0
    0.1845   -1.4515    2.9540 H   0  0  0  0  0  0  0  0  0  0  0  0
    2.3257   -0.8700    2.4011 H   0  0  0  0  0  0  0  0  0  0  0  0
    4.3892   -0.2988    1.8860 H   0  0  0  0  0  0  0  0  0  0  0  0
    5.9693    1.5752    1.5291 H   0  0  0  0  0  0  0  0  0  0  0  0
    2.3441    0.7247   -1.8061 H   0  0  0  0  0  0  0  0  0  0  0  0
    3.3795    3.6716   -2.2625 H   0  0  0  0  0  0  0  0  0  0  0  0
    4.1272    2.4566   -3.3450 H   0  0  0  0  0  0  0  0  0  0  0  0
    6.3163    2.9616   -2.6545 H   0  0  0  0  0  0  0  0  0  0  0  0
    6.6417    5.3379   -1.9738 H   0  0  0  0  0  0  0  0  0  0  0  0
    5.4820    5.2215   -3.3168 H   0  0  0  0  0  0  0  0  0  0  0  0
    4.9234    5.5128   -1.6512 H   0  0  0  0  0  0  0  0  0  0  0  0
   -2.1503   -2.2682    2.0215 H   0  0  0  0  0  0  0  0  0  0  0  0
   -1.6419   -3.9185    2.3693 H   0  0  0  0  0  0  0  0  0  0  0  0
   -1.7292   -4.4948   -0.0489 H   0  0  0  0  0  0  0  0  0  0  0  0
   -2.0761   -2.8303   -0.4637 H   0  0  0  0  0  0  0  0  0  0  0  0
   -4.2115   -3.0088    1.0037 H   0  0  0  0  0  0  0  0  0  0  0  0
   -3.8786   -4.7439    1.1293 H   0  0  0  0  0  0  0  0  0  0  0  0
   -4.3391   -6.2059   -0.9444 H   0  0  0  0  0  0  0  0  0  0  0  0
   -5.6816   -5.6009   -3.2907 H   0  0  0  0  0  0  0  0  0  0  0  0
   -4.8794   -2.0215   -1.2873 H   0  0  0  0  0  0  0  0  0  0  0  0
   -0.8328    0.5847    3.3140 H   0  0  0  0  0  0  0  0  0  0  0  0
   -2.0996    2.5058    2.5354 H   0  0  0  0  0  0  0  0  0  0  0  0
  1  2  1  0
  2  3  1  0
  3  4  1  0
  4  5  2  0
  5  6  1  0
  6  7  2  0
  7  8  1  0
  8  9  1  0
  9 10  1  0
 10 11  2  0
 10 12  1  0
 12 13  2  0
 13 14  1  0
 14 15  2  0
 15 16  1  0
 16 17  2  0
 16 18  1  0
 18 19  1  0
 19 20  1  0
 19 21  1  0
  9 22  1  0
 22 23  2  0
 22 24  1  0
 24 25  2  0
 24 26  1  0
 26 27  1  0
 27 28  1  0
 28 29  1  0
 29 30  1  0
 30 31  1  0
 31 32  2  0
 32 33  1  0
 33 34  2  0
  7 35  1  0
 35 36  2  0
 36  4  1  0
 26  8  1  0
 34 30  1  0
 17 12  1  0
 21 15  1  0
  1 37  1  0
  1 38  1  0
  1 39  1  0
  2 40  1  0
  2 41  1  0
  5 42  1  0
  6 43  1  0
  8 44  1  0
  9 45  1  0
 13 46  1  0
 14 47  1  0
 17 48  1  0
 18 49  1  0
 18 50  1  0
 19 51  1  0
 20 52  1  0
 20 53  1  0
 20 54  1  0
 27 55  1  0
 27 56  1  0
 28 57  1  0
 28 58  1  0
 29 59  1  0
 29 60  1  0
 31 61  1  0
 32 62  1  0
 34 63  1  0
 35 64  1  0
 36 65  1  0
M  END
$$$$
