
     RDKit          3D

 49 52  0  0  0  0  0  0  0  0999 V2000
   -1.2858    4.9566    1.0480 C   0  0  0  0  0  0  0  0  0  0  0  0
   -1.1168    3.5931    0.3972 C   0  0  0  0  0  0  0  0  0  0  0  0
   -0.7747    2.5212    1.4300 C   0  0  0  0  0  0  0  0  0  0  0  0
   -0.5668    1.1852    0.7731 C   0  0  0  0  0  0  0  0  0  0  0  0
    0.6843    0.8537    0.4127 N   0  0  0  0  0  0  0  0  0  0  0  0
    0.9392   -0.3319   -0.1935 C   0  0  0  0  0  0  0  0  0  0  0  0
    2.2815   -0.5452   -0.5377 N   0  0  0  0  0  0  0  0  0  0  0  0
    2.7634   -1.8630   -0.9859 C   0  0  0  0  0  0  0  0  0  0  0  0
    4.2423   -1.8351   -1.4418 C   0  0  0  0  0  0  0  0  0  0  0  0
    5.1478   -1.2457   -0.4399 N   0  0  0  0  0  0  0  0  0  0  0  0
    6.5230   -1.2298   -0.9332 C   0  0  0  0  0  0  0  0  0  0  0  0
    4.6816    0.1239   -0.1549 C   0  0  0  0  0  0  0  0  0  0  0  0
    3.2295    0.1598    0.3660 C   0  0  0  0  0  0  0  0  0  0  0  0
   -0.1372   -1.1746   -0.4508 C   0  0  0  0  0  0  0  0  0  0  0  0
   -0.2559   -2.7962   -1.1483 S   0  0  0  0  0  0  0  0  0  0  0  0
   -2.0133   -2.8490   -0.9701 C   0  0  0  0  0  0  0  0  0  0  0  0
   -2.8860   -4.1369   -1.5845 S   0  0  0  0  0  0  0  0  0  0  0  0
   -2.4476   -1.6758   -0.3558 N   0  0  0  0  0  0  0  0  0  0  0  0
   -3.7896   -1.3654    0.0162 C   0  0  0  0  0  0  0  0  0  0  0  0
   -4.5974   -2.3171    0.6560 C   0  0  0  0  0  0  0  0  0  0  0  0
   -5.9164   -2.0202    1.0146 C   0  0  0  0  0  0  0  0  0  0  0  0
   -6.4498   -0.7651    0.7393 C   0  0  0  0  0  0  0  0  0  0  0  0
   -5.6643    0.1944    0.1084 C   0  0  0  0  0  0  0  0  0  0  0  0
   -4.3458   -0.1037   -0.2492 C   0  0  0  0  0  0  0  0  0  0  0  0
   -1.4050   -0.7396   -0.0701 C   0  0  0  0  0  0  0  0  0  0  0  0
   -1.6379    0.4246    0.5528 N   0  0  0  0  0  0  0  0  0  0  0  0
   -1.5428    5.7070    0.2942 H   0  0  0  0  0  0  0  0  0  0  0  0
   -0.3600    5.2734    1.5396 H   0  0  0  0  0  0  0  0  0  0  0  0
   -2.0835    4.9384    1.7973 H   0  0  0  0  0  0  0  0  0  0  0  0
   -0.3289    3.6524   -0.3636 H   0  0  0  0  0  0  0  0  0  0  0  0
   -2.0425    3.3266   -0.1270 H   0  0  0  0  0  0  0  0  0  0  0  0
   -1.5814    2.4365    2.1677 H   0  0  0  0  0  0  0  0  0  0  0  0
    0.1331    2.7976    1.9795 H   0  0  0  0  0  0  0  0  0  0  0  0
    2.2078   -2.1876   -1.8687 H   0  0  0  0  0  0  0  0  0  0  0  0
    2.6481   -2.5987   -0.1807 H   0  0  0  0  0  0  0  0  0  0  0  0
    4.3082   -1.2782   -2.3868 H   0  0  0  0  0  0  0  0  0  0  0  0
    4.5497   -2.8662   -1.6532 H   0  0  0  0  0  0  0  0  0  0  0  0
    6.6284   -0.6534   -1.8591 H   0  0  0  0  0  0  0  0  0  0  0  0
    7.1949   -0.8009   -0.1814 H   0  0  0  0  0  0  0  0  0  0  0  0
    6.8729   -2.2506   -1.1217 H   0  0  0  0  0  0  0  0  0  0  0  0
    5.3262    0.5798    0.6064 H   0  0  0  0  0  0  0  0  0  0  0  0
    4.7520    0.7481   -1.0560 H   0  0  0  0  0  0  0  0  0  0  0  0
    2.9750    1.2215    0.4718 H   0  0  0  0  0  0  0  0  0  0  0  0
    3.1897   -0.3003    1.3624 H   0  0  0  0  0  0  0  0  0  0  0  0
   -4.2072   -3.2954    0.9234 H   0  0  0  0  0  0  0  0  0  0  0  0
   -6.5230   -2.7713    1.5146 H   0  0  0  0  0  0  0  0  0  0  0  0
   -7.4746   -0.5348    1.0173 H   0  0  0  0  0  0  0  0  0  0  0  0
   -6.0754    1.1761   -0.1113 H   0  0  0  0  0  0  0  0  0  0  0  0
   -3.7691    0.6617   -0.7630 H   0  0  0  0  0  0  0  0  0  0  0  0
  1  2  1  0
  2  3  1  0
  3  4  1  0
  4  5  2  0
  5  6  1  0
  6  7  1  0
  7  8  1  0
  8  9  1  0
  9 10  1  0
 10 11  1  0
 10 12  1  0
 12 13  1  0
  6 14  2  0
 14 15  1  0
 15 16  1  0
 16 17  2  0
 16 18  1  0
 18 19  1  0
 19 20  2  0
 20 21  1  0
 21 22  2  0
 22 23  1  0
 23 24  2  0
 18 25  1  0
 25 26  2  0
 26  4  1  0
 13  7  1  0
 25 14  1  0
 24 19  1  0
  1 27  1  0
  1 28  1  0
  1 29  1  0
  2 30  1  0
  2 31  1  0
  3 32  1  0
  3 33  1  0
  8 34  1  0
  8 35  1  0
  9 36  1  0
  9 37  1  0
 11 38  1  0
 11 39  1  0
 11 40  1  0
 12 41  1  0
 12 42  1  0
 13 43  1  0
 13 44  1  0
 20 45  1  0
 21 46  1  0
 22 47  1  0
 23 48  1  0
 24 49  1  0
M  END
$$$$
