
     RDKit          3D

 35 36  0  0  0  0  0  0  0  0999 V2000
   -5.9524    0.0570   -0.1462 C   0  0  0  0  0  0  0  0  0  0  0  0
   -4.4587   -0.0604   -0.0849 C   0  0  0  0  0  0  0  0  0  0  0  0
   -3.8549   -1.1135    0.6062 C   0  0  0  0  0  0  0  0  0  0  0  0
   -2.4618   -1.2010    0.6871 C   0  0  0  0  0  0  0  0  0  0  0  0
   -1.6425   -0.2380    0.0735 C   0  0  0  0  0  0  0  0  0  0  0  0
   -0.2221   -0.3687    0.1857 N   0  0  0  0  0  0  0  0  0  0  0  0
    0.2777   -1.2008    1.1303 N   0  0  0  0  0  0  0  0  0  0  0  0
    1.5948   -0.9787    1.1569 C   0  0  0  0  0  0  0  0  0  0  0  0
    2.3924   -1.7067    2.1751 C   0  0  0  0  0  0  0  0  0  0  0  0
    1.9850   -0.0758    0.1370 C   0  0  0  0  0  0  0  0  0  0  0  0
    3.2054    0.4484   -0.2627 N   0  0  0  0  0  0  0  0  0  0  0  0
    4.4407    0.2809    0.3238 C   0  0  0  0  0  0  0  0  0  0  0  0
    4.6801   -0.3897    1.3246 O   0  0  0  0  0  0  0  0  0  0  0  0
    5.5906    0.9722   -0.3963 C   0  0  0  0  0  0  0  0  0  0  0  0
    5.0449    2.2061   -1.5583 Cl  0  0  0  0  0  0  0  0  0  0  0  0
    0.8078    0.2299   -0.5349 C   0  0  0  0  0  0  0  0  0  0  0  0
    0.6246    0.9881   -1.8027 C   0  0  0  0  0  0  0  0  0  0  0  0
   -2.2511    0.8364   -0.5835 C   0  0  0  0  0  0  0  0  0  0  0  0
   -3.6472    0.9215   -0.6622 C   0  0  0  0  0  0  0  0  0  0  0  0
   -6.2691    0.4629   -1.1126 H   0  0  0  0  0  0  0  0  0  0  0  0
   -6.3092    0.7163    0.6508 H   0  0  0  0  0  0  0  0  0  0  0  0
   -6.4297   -0.9219   -0.0328 H   0  0  0  0  0  0  0  0  0  0  0  0
   -4.4610   -1.8764    1.0901 H   0  0  0  0  0  0  0  0  0  0  0  0
   -2.0268   -2.0395    1.2293 H   0  0  0  0  0  0  0  0  0  0  0  0
    3.1644   -2.3189    1.7000 H   0  0  0  0  0  0  0  0  0  0  0  0
    1.7637   -2.3863    2.7622 H   0  0  0  0  0  0  0  0  0  0  0  0
    2.8512   -1.0075    2.8800 H   0  0  0  0  0  0  0  0  0  0  0  0
    3.1790    1.0874   -1.0501 H   0  0  0  0  0  0  0  0  0  0  0  0
    6.1718    0.2234   -0.9410 H   0  0  0  0  0  0  0  0  0  0  0  0
    6.2244    1.4717    0.3412 H   0  0  0  0  0  0  0  0  0  0  0  0
    1.5192    0.9231   -2.4311 H   0  0  0  0  0  0  0  0  0  0  0  0
    0.4440    2.0474   -1.5979 H   0  0  0  0  0  0  0  0  0  0  0  0
   -0.1924    0.5825   -2.4067 H   0  0  0  0  0  0  0  0  0  0  0  0
   -1.6836    1.6565   -1.0049 H   0  0  0  0  0  0  0  0  0  0  0  0
   -4.0988    1.7721   -1.1689 H   0  0  0  0  0  0  0  0  0  0  0  0
  1  2  1  0
  2  3  2  0
  3  4  1  0
  4  5  2  0
  5  6  1  0
  6  7  1  0
  7  8  2  0
  8  9  1  0
  8 10  1  0
 10 11  1  0
 11 12  1  0
 12 13  2  0
 12 14  1  0
 14 15  1  0
 10 16  2  0
 16 17  1  0
  5 18  1  0
 18 19  2  0
 19  2  1  0
 16  6  1  0
  1 20  1  0
  1 21  1  0
  1 22  1  0
  3 23  1  0
  4 24  1  0
  9 25  1  0
  9 26  1  0
  9 27  1  0
 11 28  1  0
 14 29  1  0
 14 30  1  0
 17 31  1  0
 17 32  1  0
 17 33  1  0
 18 34  1  0
 19 35  1  0
M  END
$$$$
