
     RDKit          3D

 42 44  0  0  0  0  0  0  0  0999 V2000
    4.3675   -0.1760    4.1278 N   0  0  0  0  0  0  0  0  0  0  0  0
    4.3873   -0.8728    3.1996 C   0  0  0  0  0  0  0  0  0  0  0  0
    4.3974   -1.7257    2.0563 C   0  0  0  0  0  0  0  0  0  0  0  0
    5.5335   -2.5765    1.9154 C   0  0  0  0  0  0  0  0  0  0  0  0
    6.4517   -3.2752    1.7894 N   0  0  0  0  0  0  0  0  0  0  0  0
    3.3837   -1.7418    1.1530 C   0  0  0  0  0  0  0  0  0  0  0  0
    2.1862   -0.9025    1.2806 C   0  0  0  0  0  0  0  0  0  0  0  0
    1.2312   -0.8085    0.3354 C   0  0  0  0  0  0  0  0  0  0  0  0
    0.0638    0.0386    0.5345 C   0  0  0  0  0  0  0  0  0  0  0  0
   -0.8704    0.2974   -0.4060 C   0  0  0  0  0  0  0  0  0  0  0  0
   -2.0012    1.1082   -0.1817 N   0  0  0  0  0  0  0  0  0  0  0  0
   -3.1842    1.0673   -1.0651 C   0  0  0  0  0  0  0  0  0  0  0  0
   -4.4612    1.3767   -0.2900 C   0  0  0  0  0  0  0  0  0  0  0  0
   -4.4251    2.7679    0.3342 C   0  0  0  0  0  0  0  0  0  0  0  0
   -3.0028    3.2277    0.6361 C   0  0  0  0  0  0  0  0  0  0  0  0
   -2.0799    2.0545    0.9506 C   0  0  0  0  0  0  0  0  0  0  0  0
   -0.6956   -0.2893   -1.8022 C   0  0  0  0  0  0  0  0  0  0  0  0
    0.7408   -0.7112   -2.1163 C   0  0  0  0  0  0  0  0  0  0  0  0
    1.3146   -1.5553   -0.9775 C   0  0  0  0  0  0  0  0  0  0  0  0
    2.7552   -1.9750   -1.2899 C   0  0  0  0  0  0  0  0  0  0  0  0
    3.3922   -2.6463   -0.0739 C   0  0  0  0  0  0  0  0  0  0  0  0
    2.0663   -0.3179    2.1922 H   0  0  0  0  0  0  0  0  0  0  0  0
   -0.0493    0.4638    1.5277 H   0  0  0  0  0  0  0  0  0  0  0  0
   -3.3007    0.0712   -1.5066 H   0  0  0  0  0  0  0  0  0  0  0  0
   -3.0510    1.7815   -1.8865 H   0  0  0  0  0  0  0  0  0  0  0  0
   -5.3355    1.2879   -0.9447 H   0  0  0  0  0  0  0  0  0  0  0  0
   -4.5881    0.6304    0.5052 H   0  0  0  0  0  0  0  0  0  0  0  0
   -5.0226    2.7615    1.2536 H   0  0  0  0  0  0  0  0  0  0  0  0
   -4.8994    3.4944   -0.3364 H   0  0  0  0  0  0  0  0  0  0  0  0
   -3.0132    3.9385    1.4701 H   0  0  0  0  0  0  0  0  0  0  0  0
   -2.6095    3.7709   -0.2331 H   0  0  0  0  0  0  0  0  0  0  0  0
   -2.4283    1.5232    1.8444 H   0  0  0  0  0  0  0  0  0  0  0  0
   -1.0882    2.4671    1.1710 H   0  0  0  0  0  0  0  0  0  0  0  0
   -1.3573   -1.1586   -1.9045 H   0  0  0  0  0  0  0  0  0  0  0  0
   -0.9963    0.4441   -2.5602 H   0  0  0  0  0  0  0  0  0  0  0  0
    1.3568    0.1847   -2.2742 H   0  0  0  0  0  0  0  0  0  0  0  0
    0.7569   -1.2759   -3.0562 H   0  0  0  0  0  0  0  0  0  0  0  0
    0.7044   -2.4652   -0.8806 H   0  0  0  0  0  0  0  0  0  0  0  0
    3.3561   -1.1038   -1.5840 H   0  0  0  0  0  0  0  0  0  0  0  0
    2.7643   -2.6682   -2.1397 H   0  0  0  0  0  0  0  0  0  0  0  0
    4.4075   -2.9453   -0.3553 H   0  0  0  0  0  0  0  0  0  0  0  0
    2.8425   -3.5663    0.1649 H   0  0  0  0  0  0  0  0  0  0  0  0
  1  2  3  0
  2  3  1  0
  3  4  1  0
  4  5  3  0
  3  6  2  3
  6  7  1  0
  7  8  2  0
  8  9  1  0
  9 10  2  0
 10 11  1  0
 11 12  1  0
 12 13  1  0
 13 14  1  0
 14 15  1  0
 15 16  1  0
 10 17  1  0
 17 18  1  0
 18 19  1  0
 19 20  1  0
 20 21  1  0
 21  6  1  0
 19  8  1  0
 16 11  1  0
  7 22  1  0
  9 23  1  0
 12 24  1  0
 12 25  1  0
 13 26  1  0
 13 27  1  0
 14 28  1  0
 14 29  1  0
 15 30  1  0
 15 31  1  0
 16 32  1  0
 16 33  1  0
 17 34  1  0
 17 35  1  0
 18 36  1  0
 18 37  1  0
 19 38  1  0
 20 39  1  0
 20 40  1  0
 21 41  1  0
 21 42  1  0
M  END
$$$$
