
     RDKit          3D

 61 63  0  0  0  0  0  0  0  0999 V2000
    7.5011    0.5475    2.5598 C   0  0  0  0  0  0  0  0  0  0  0  0
    6.6983    0.0423    1.4607 N   0  0  0  0  0  0  0  0  0  0  0  0
    5.9092    0.9371    0.7575 C   0  0  0  0  0  0  0  0  0  0  0  0
    5.8187    2.1357    1.0145 O   0  0  0  0  0  0  0  0  0  0  0  0
    5.1268    0.3922   -0.3624 C   0  0  0  0  0  0  0  0  0  0  0  0
    4.3347    1.2575   -1.1325 C   0  0  0  0  0  0  0  0  0  0  0  0
    3.5739    0.7399   -2.1794 C   0  0  0  0  0  0  0  0  0  0  0  0
    2.5733    1.8379   -3.1508 S   0  0  0  0  0  6  0  0  0  0  0  0
    3.3494    3.0310   -3.3993 O   0  0  0  0  0  0  0  0  0  0  0  0
    1.9729    1.0756   -4.2225 O   0  0  0  0  0  0  0  0  0  0  0  0
    1.3570    2.2676   -2.0805 N   0  0  0  0  0  0  0  0  0  0  0  0
    0.5110    1.2293   -1.4802 C   0  0  0  0  0  0  0  0  0  0  0  0
   -0.9072    1.7609   -1.3325 C   0  0  0  0  0  0  0  0  0  0  0  0
   -1.7958    0.7376   -0.6622 C   0  0  0  0  0  0  0  0  0  0  0  0
   -1.3737   -0.3125   -0.1919 O   0  0  0  0  0  0  0  0  0  0  0  0
   -3.1213    1.1181   -0.6232 N   0  0  0  0  0  0  0  0  0  0  0  0
   -4.1393    0.3275    0.0784 C   0  0  0  0  0  0  0  0  0  0  0  0
   -5.5052    0.5714   -0.5829 C   0  0  0  0  0  0  0  0  0  0  0  0
   -6.4354   -0.6508   -0.6162 C   0  0  0  0  0  0  0  0  0  0  0  0
   -7.3609   -0.7943    0.5892 C   0  0  0  0  0  0  0  0  0  0  0  0
   -6.8418   -1.6760    1.7260 C   0  0  0  0  0  0  0  0  0  0  0  0
   -5.4435   -1.3782    2.2640 C   0  0  0  0  0  0  0  0  0  0  0  0
   -5.1633    0.1058    2.4858 C   0  0  0  0  0  0  0  0  0  0  0  0
   -4.0779    0.6804    1.5762 C   0  0  0  0  0  0  0  0  0  0  0  0
    3.6133   -0.6217   -2.4728 C   0  0  0  0  0  0  0  0  0  0  0  0
    4.4133   -1.4725   -1.7012 C   0  0  0  0  0  0  0  0  0  0  0  0
    5.1815   -0.9752   -0.6340 C   0  0  0  0  0  0  0  0  0  0  0  0
    6.0042   -1.8151    0.1624 N   0  0  0  0  0  0  0  0  0  0  0  0
    6.0628   -3.2442   -0.1208 C   0  0  0  0  0  0  0  0  0  0  0  0
    6.7783   -1.3228    1.2094 C   0  0  0  0  0  0  0  0  0  0  0  0
    7.5014   -2.0562    1.8882 O   0  0  0  0  0  0  0  0  0  0  0  0
    7.3722    1.6219    2.7163 H   0  0  0  0  0  0  0  0  0  0  0  0
    7.2234    0.0180    3.4781 H   0  0  0  0  0  0  0  0  0  0  0  0
    8.5574    0.3442    2.3494 H   0  0  0  0  0  0  0  0  0  0  0  0
    4.3176    2.3243   -0.9150 H   0  0  0  0  0  0  0  0  0  0  0  0
    1.5498    3.1183   -1.5529 H   0  0  0  0  0  0  0  0  0  0  0  0
    0.4989    0.3256   -2.0998 H   0  0  0  0  0  0  0  0  0  0  0  0
    0.9277    0.9620   -0.5025 H   0  0  0  0  0  0  0  0  0  0  0  0
   -0.9114    2.6743   -0.7259 H   0  0  0  0  0  0  0  0  0  0  0  0
   -1.3231    2.0053   -2.3173 H   0  0  0  0  0  0  0  0  0  0  0  0
   -3.3560    2.0698   -0.8782 H   0  0  0  0  0  0  0  0  0  0  0  0
   -3.8539   -0.7218   -0.0582 H   0  0  0  0  0  0  0  0  0  0  0  0
   -5.3295    0.8395   -1.6349 H   0  0  0  0  0  0  0  0  0  0  0  0
   -6.0064    1.4420   -0.1423 H   0  0  0  0  0  0  0  0  0  0  0  0
   -7.0863   -0.5175   -1.4919 H   0  0  0  0  0  0  0  0  0  0  0  0
   -5.8763   -1.5754   -0.8005 H   0  0  0  0  0  0  0  0  0  0  0  0
   -8.2963   -1.2540    0.2410 H   0  0  0  0  0  0  0  0  0  0  0  0
   -7.6532    0.1921    0.9673 H   0  0  0  0  0  0  0  0  0  0  0  0
   -6.8659   -2.7249    1.4029 H   0  0  0  0  0  0  0  0  0  0  0  0
   -7.5571   -1.6042    2.5557 H   0  0  0  0  0  0  0  0  0  0  0  0
   -4.6917   -1.8412    1.6171 H   0  0  0  0  0  0  0  0  0  0  0  0
   -5.3462   -1.8992    3.2259 H   0  0  0  0  0  0  0  0  0  0  0  0
   -4.8255    0.2436    3.5223 H   0  0  0  0  0  0  0  0  0  0  0  0
   -6.0731    0.7100    2.4050 H   0  0  0  0  0  0  0  0  0  0  0  0
   -4.0854    1.7733    1.6934 H   0  0  0  0  0  0  0  0  0  0  0  0
   -3.1025    0.3567    1.9660 H   0  0  0  0  0  0  0  0  0  0  0  0
    3.0307   -1.0321   -3.2963 H   0  0  0  0  0  0  0  0  0  0  0  0
    4.4157   -2.5271   -1.9640 H   0  0  0  0  0  0  0  0  0  0  0  0
    5.0624   -3.6763   -0.0174 H   0  0  0  0  0  0  0  0  0  0  0  0
    6.7263   -3.7767    0.5658 H   0  0  0  0  0  0  0  0  0  0  0  0
    6.4421   -3.3978   -1.1361 H   0  0  0  0  0  0  0  0  0  0  0  0
  1  2  1  0
  2  3  1  0
  3  4  2  0
  3  5  1  0
  5  6  2  0
  6  7  1  0
  7  8  1  0
  8  9  2  0
  8 10  2  0
  8 11  1  0
 11 12  1  0
 12 13  1  0
 13 14  1  0
 14 15  2  0
 14 16  1  0
 16 17  1  0
 17 18  1  0
 18 19  1  0
 19 20  1  0
 20 21  1  0
 21 22  1  0
 22 23  1  0
 23 24  1  0
  7 25  2  0
 25 26  1  0
 26 27  2  0
 27 28  1  0
 28 29  1  0
 28 30  1  0
 30 31  2  0
 30  2  1  0
 27  5  1  0
 24 17  1  0
  1 32  1  0
  1 33  1  0
  1 34  1  0
  6 35  1  0
 11 36  1  0
 12 37  1  0
 12 38  1  0
 13 39  1  0
 13 40  1  0
 16 41  1  0
 17 42  1  0
 18 43  1  0
 18 44  1  0
 19 45  1  0
 19 46  1  0
 20 47  1  0
 20 48  1  0
 21 49  1  0
 21 50  1  0
 22 51  1  0
 22 52  1  0
 23 53  1  0
 23 54  1  0
 24 55  1  0
 24 56  1  0
 25 57  1  0
 26 58  1  0
 29 59  1  0
 29 60  1  0
 29 61  1  0
M  END
$$$$
