
     RDKit          3D

 37 38  0  0  0  0  0  0  0  0999 V2000
    3.6839    1.7833   -2.1005 C   0  0  0  0  0  0  0  0  0  0  0  0
    2.7986    0.6915   -1.8773 O   0  0  0  0  0  0  0  0  0  0  0  0
    2.7629    0.1766   -0.6066 C   0  0  0  0  0  0  0  0  0  0  0  0
    3.7943    0.3346    0.3275 C   0  0  0  0  0  0  0  0  0  0  0  0
    3.6781   -0.2018    1.6136 C   0  0  0  0  0  0  0  0  0  0  0  0
    2.5259   -0.8934    1.9789 C   0  0  0  0  0  0  0  0  0  0  0  0
    1.4857   -1.0553    1.0549 C   0  0  0  0  0  0  0  0  0  0  0  0
    0.2891   -1.7908    1.5086 C   0  0  0  0  0  0  0  0  0  0  0  0
    0.3636   -2.8355    2.1403 O   0  0  0  0  0  0  0  0  0  0  0  0
   -0.8156   -1.0576    1.1883 O   0  0  0  0  0  0  0  0  0  0  0  0
   -1.9752   -1.6798    1.6838 N   0  0  0  0  0  0  0  0  0  0  0  0
   -3.0506   -0.9712    1.4812 C   0  0  0  0  0  0  0  0  0  0  0  0
   -4.2290   -1.4538    1.9960 N   0  0  0  0  0  0  0  0  0  0  0  0
   -3.1053    0.3164    0.7363 C   0  0  0  0  0  0  0  0  0  0  0  0
   -2.5738    0.4190   -0.5460 C   0  0  0  0  0  0  0  0  0  0  0  0
   -2.6797    1.6385   -1.1874 C   0  0  0  0  0  0  0  0  0  0  0  0
   -3.2851    2.7210   -0.6481 N   0  0  0  0  0  0  0  0  0  0  0  0
   -3.8007    2.5813    0.5937 C   0  0  0  0  0  0  0  0  0  0  0  0
   -3.7436    1.4074    1.3218 C   0  0  0  0  0  0  0  0  0  0  0  0
    1.6195   -0.5638   -0.2516 C   0  0  0  0  0  0  0  0  0  0  0  0
    0.5975   -0.7840   -1.1424 O   0  0  0  0  0  0  0  0  0  0  0  0
    1.0136   -1.5757   -2.2581 C   0  0  0  0  0  0  0  0  0  0  0  0
    4.7206    1.4355   -2.1629 H   0  0  0  0  0  0  0  0  0  0  0  0
    3.5730    2.5572   -1.3333 H   0  0  0  0  0  0  0  0  0  0  0  0
    3.4234    2.2324   -3.0632 H   0  0  0  0  0  0  0  0  0  0  0  0
    4.7088    0.8643    0.0780 H   0  0  0  0  0  0  0  0  0  0  0  0
    4.4866   -0.0780    2.3304 H   0  0  0  0  0  0  0  0  0  0  0  0
    2.4349   -1.3051    2.9827 H   0  0  0  0  0  0  0  0  0  0  0  0
   -4.1316   -2.4207    2.2932 H   0  0  0  0  0  0  0  0  0  0  0  0
   -5.0517   -1.3051    1.4238 H   0  0  0  0  0  0  0  0  0  0  0  0
   -2.0897   -0.4217   -1.0277 H   0  0  0  0  0  0  0  0  0  0  0  0
   -2.2709    1.7827   -2.1839 H   0  0  0  0  0  0  0  0  0  0  0  0
   -4.2750    3.4702    1.0012 H   0  0  0  0  0  0  0  0  0  0  0  0
   -4.1672    1.3482    2.3181 H   0  0  0  0  0  0  0  0  0  0  0  0
    1.2227   -0.9259   -3.1138 H   0  0  0  0  0  0  0  0  0  0  0  0
    0.1806   -2.2310   -2.5282 H   0  0  0  0  0  0  0  0  0  0  0  0
    1.8815   -2.2097   -2.0396 H   0  0  0  0  0  0  0  0  0  0  0  0
  1  2  1  0
  2  3  1  0
  3  4  2  0
  4  5  1  0
  5  6  2  0
  6  7  1  0
  7  8  1  0
  8  9  2  0
  8 10  1  0
 10 11  1  0
 11 12  2  3
 12 13  1  0
 12 14  1  0
 14 15  2  0
 15 16  1  0
 16 17  2  0
 17 18  1  0
 18 19  2  0
  7 20  2  0
 20 21  1  0
 21 22  1  0
 20  3  1  0
 19 14  1  0
  1 23  1  0
  1 24  1  0
  1 25  1  0
  4 26  1  0
  5 27  1  0
  6 28  1  0
 13 29  1  0
 13 30  1  0
 15 31  1  0
 16 32  1  0
 18 33  1  0
 19 34  1  0
 22 35  1  0
 22 36  1  0
 22 37  1  0
M  END
$$$$
