
     RDKit          3D

 41 42  0  0  0  0  0  0  0  0999 V2000
    3.6099   -3.0495   -1.8968 C   0  0  0  0  0  0  0  0  0  0  0  0
    2.7390   -1.9049   -1.4278 C   0  0  0  0  0  0  0  0  0  0  0  0
    1.6218   -1.7143   -2.0698 N   0  0  0  0  0  0  0  0  0  0  0  0
    0.7256   -0.7887   -1.6004 N   0  0  0  0  0  0  0  0  0  0  0  0
    0.0681   -0.9828   -0.3846 C   0  0  0  0  0  0  0  0  0  0  0  0
    0.4074   -1.7944    0.4779 O   0  0  0  0  0  0  0  0  0  0  0  0
   -1.0802   -0.0141   -0.1300 C   0  0  0  0  0  0  0  0  0  0  0  0
   -1.8899    0.5551   -1.6638 S   0  0  0  0  0  0  0  0  0  0  0  0
   -2.9691    1.8553   -0.9816 C   0  0  0  0  0  0  0  0  0  0  0  0
   -4.0279    1.3430   -0.0366 C   0  0  0  0  0  0  0  0  0  0  0  0
   -3.8333    1.5122    1.3486 C   0  0  0  0  0  0  0  0  0  0  0  0
   -4.7724    1.0491    2.2719 C   0  0  0  0  0  0  0  0  0  0  0  0
   -5.9270    0.4125    1.8293 C   0  0  0  0  0  0  0  0  0  0  0  0
   -6.1440    0.2413    0.4631 C   0  0  0  0  0  0  0  0  0  0  0  0
   -5.2041    0.7030   -0.4660 C   0  0  0  0  0  0  0  0  0  0  0  0
   -5.6133    0.4392   -2.3033 Br  0  0  0  0  0  0  0  0  0  0  0  0
    3.2687   -1.0876   -0.3043 C   0  0  0  0  0  0  0  0  0  0  0  0
    3.7138   -1.7163    0.8648 C   0  0  0  0  0  0  0  0  0  0  0  0
    4.2230   -0.9550    1.9191 C   0  0  0  0  0  0  0  0  0  0  0  0
    4.2895    0.4351    1.8087 C   0  0  0  0  0  0  0  0  0  0  0  0
    3.8423    1.0572    0.6340 C   0  0  0  0  0  0  0  0  0  0  0  0
    3.8919    2.5185    0.5246 N   0  0  0  0  0  4  0  0  0  0  0  0
    4.5354    3.1391    1.3827 O   0  0  0  0  0  0  0  0  0  0  0  0
    3.2781    3.0465   -0.4146 O   0  0  0  0  0  1  0  0  0  0  0  0
    3.3379    0.3027   -0.4315 C   0  0  0  0  0  0  0  0  0  0  0  0
    3.2051   -3.9889   -1.5091 H   0  0  0  0  0  0  0  0  0  0  0  0
    4.6439   -2.9343   -1.5604 H   0  0  0  0  0  0  0  0  0  0  0  0
    3.6075   -3.0869   -2.9904 H   0  0  0  0  0  0  0  0  0  0  0  0
    0.1021   -0.4349   -2.3285 H   0  0  0  0  0  0  0  0  0  0  0  0
   -1.8204   -0.5363    0.4831 H   0  0  0  0  0  0  0  0  0  0  0  0
   -0.6778    0.8421    0.4198 H   0  0  0  0  0  0  0  0  0  0  0  0
   -3.4386    2.3926   -1.8125 H   0  0  0  0  0  0  0  0  0  0  0  0
   -2.3353    2.5996   -0.4844 H   0  0  0  0  0  0  0  0  0  0  0  0
   -2.9400    2.0101    1.7224 H   0  0  0  0  0  0  0  0  0  0  0  0
   -4.6028    1.1875    3.3373 H   0  0  0  0  0  0  0  0  0  0  0  0
   -6.6607    0.0519    2.5460 H   0  0  0  0  0  0  0  0  0  0  0  0
   -7.0533   -0.2538    0.1301 H   0  0  0  0  0  0  0  0  0  0  0  0
    3.6383   -2.7966    0.9722 H   0  0  0  0  0  0  0  0  0  0  0  0
    4.5566   -1.4467    2.8306 H   0  0  0  0  0  0  0  0  0  0  0  0
    4.6820    1.0151    2.6420 H   0  0  0  0  0  0  0  0  0  0  0  0
    3.0021    0.7771   -1.3510 H   0  0  0  0  0  0  0  0  0  0  0  0
  1  2  1  0
  2  3  2  3
  3  4  1  0
  4  5  1  0
  5  6  2  0
  5  7  1  0
  7  8  1  0
  8  9  1  0
  9 10  1  0
 10 11  2  0
 11 12  1  0
 12 13  2  0
 13 14  1  0
 14 15  2  0
 15 16  1  0
  2 17  1  0
 17 18  2  0
 18 19  1  0
 19 20  2  0
 20 21  1  0
 21 22  1  0
 22 23  2  0
 22 24  1  0
 21 25  2  0
 15 10  1  0
 25 17  1  0
  1 26  1  0
  1 27  1  0
  1 28  1  0
  4 29  1  0
  7 30  1  0
  7 31  1  0
  9 32  1  0
  9 33  1  0
 11 34  1  0
 12 35  1  0
 13 36  1  0
 14 37  1  0
 18 38  1  0
 19 39  1  0
 20 40  1  0
 25 41  1  0
M  CHG  2  22   1  24  -1
M  END
$$$$
