
     RDKit          3D

 34 35  0  0  0  0  0  0  0  0999 V2000
   -0.2647   -1.1545    1.5784 C   0  0  0  0  0  0  0  0  0  0  0  0
   -0.9792   -0.4544    0.5139 N   0  0  0  0  0  0  0  0  0  0  0  0
   -0.4139    0.5493   -0.2758 C   0  0  0  0  0  0  0  0  0  0  0  0
   -1.0274    1.0349   -1.2309 O   0  0  0  0  0  0  0  0  0  0  0  0
    0.9784    1.0647    0.0520 C   0  0  0  0  0  0  0  0  0  0  0  0
    2.2235   -0.0702   -0.6285 S   0  0  0  0  0  0  0  0  0  0  0  0
    3.6934    0.8340   -0.2238 C   0  0  0  0  0  0  0  0  0  0  0  0
    3.6297    1.7877    0.7221 N   0  0  0  0  0  0  0  0  0  0  0  0
    4.7792    2.4334    0.9968 C   0  0  0  0  0  0  0  0  0  0  0  0
    5.9727    2.1589    0.3741 C   0  0  0  0  0  0  0  0  0  0  0  0
    5.9299    1.1615   -0.5691 C   0  0  0  0  0  0  0  0  0  0  0  0
    4.8103    0.4847   -0.8827 N   0  0  0  0  0  0  0  0  0  0  0  0
   -2.2947   -1.0125    0.1605 C   0  0  0  0  0  0  0  0  0  0  0  0
   -3.4515   -0.0002    0.2053 C   0  0  0  0  0  0  0  0  0  0  0  0
   -4.6886   -0.7616   -0.2558 C   0  0  0  0  0  0  0  0  0  0  0  0
   -4.1080   -1.9461   -1.4629 S   0  0  0  0  0  6  0  0  0  0  0  0
   -4.4388   -3.2733   -0.9826 O   0  0  0  0  0  0  0  0  0  0  0  0
   -4.4780   -1.4950   -2.7872 O   0  0  0  0  0  0  0  0  0  0  0  0
   -2.3619   -1.6824   -1.2128 C   0  0  0  0  0  0  0  0  0  0  0  0
   -0.9207   -1.2296    2.4512 H   0  0  0  0  0  0  0  0  0  0  0  0
    0.6505   -0.6543    1.8899 H   0  0  0  0  0  0  0  0  0  0  0  0
   -0.0152   -2.1589    1.2231 H   0  0  0  0  0  0  0  0  0  0  0  0
    1.0856    1.2160    1.1293 H   0  0  0  0  0  0  0  0  0  0  0  0
    1.0862    2.0475   -0.4218 H   0  0  0  0  0  0  0  0  0  0  0  0
    4.7087    3.2044    1.7589 H   0  0  0  0  0  0  0  0  0  0  0  0
    6.8837    2.6906    0.6102 H   0  0  0  0  0  0  0  0  0  0  0  0
    6.8192    0.8661   -1.1184 H   0  0  0  0  0  0  0  0  0  0  0  0
   -2.5251   -1.7805    0.9138 H   0  0  0  0  0  0  0  0  0  0  0  0
   -3.5909    0.4156    1.2086 H   0  0  0  0  0  0  0  0  0  0  0  0
   -3.2810    0.8429   -0.4713 H   0  0  0  0  0  0  0  0  0  0  0  0
   -5.4358   -0.1067   -0.7089 H   0  0  0  0  0  0  0  0  0  0  0  0
   -5.1355   -1.3203    0.5717 H   0  0  0  0  0  0  0  0  0  0  0  0
   -1.8375   -2.6407   -1.2356 H   0  0  0  0  0  0  0  0  0  0  0  0
   -2.0026   -1.0508   -2.0278 H   0  0  0  0  0  0  0  0  0  0  0  0
  1  2  1  0
  2  3  1  0
  3  4  2  0
  3  5  1  0
  5  6  1  0
  6  7  1  0
  7  8  2  0
  8  9  1  0
  9 10  2  0
 10 11  1  0
 11 12  2  0
  2 13  1  0
 13 14  1  0
 14 15  1  0
 15 16  1  0
 16 17  2  0
 16 18  2  0
 16 19  1  0
 12  7  1  0
 19 13  1  0
  1 20  1  0
  1 21  1  0
  1 22  1  0
  5 23  1  0
  5 24  1  0
  9 25  1  0
 10 26  1  0
 11 27  1  0
 13 28  1  0
 14 29  1  0
 14 30  1  0
 15 31  1  0
 15 32  1  0
 19 33  1  0
 19 34  1  0
M  END
$$$$
