
     RDKit          3D

 50 53  0  0  0  0  0  0  0  0999 V2000
    0.8344    3.7472    1.1270 C   0  0  0  0  0  0  0  0  0  0  0  0
    0.8906    3.2861   -0.3218 C   0  0  0  0  0  0  0  0  0  0  0  0
    0.5439    1.8228   -0.4600 C   0  0  0  0  0  0  0  0  0  0  0  0
    1.5703    0.8648   -0.4582 C   0  0  0  0  0  0  0  0  0  0  0  0
    1.2853   -0.5011   -0.5726 C   0  0  0  0  0  0  0  0  0  0  0  0
    2.3469   -1.5210   -0.5840 C   0  0  0  0  0  0  0  0  0  0  0  0
    3.7942   -1.2617   -0.4605 C   0  0  0  0  0  0  0  0  0  0  0  0
    4.5770   -1.0675   -1.6056 C   0  0  0  0  0  0  0  0  0  0  0  0
    5.9458   -0.8214   -1.4861 C   0  0  0  0  0  0  0  0  0  0  0  0
    6.5382   -0.7688   -0.2248 C   0  0  0  0  0  0  0  0  0  0  0  0
    5.7644   -0.9613    0.9191 C   0  0  0  0  0  0  0  0  0  0  0  0
    4.3953   -1.2076    0.8034 C   0  0  0  0  0  0  0  0  0  0  0  0
    1.9898   -2.8079   -0.7149 C   0  0  0  0  0  0  0  0  0  0  0  0
    0.5961   -3.2460   -0.8482 C   0  0  0  0  0  0  0  0  0  0  0  0
    0.3178   -4.4330   -0.9709 O   0  0  0  0  0  0  0  0  0  0  0  0
   -0.3745   -2.2605   -0.8266 O   0  0  0  0  0  0  0  0  0  0  0  0
   -0.0518   -0.8924   -0.6843 C   0  0  0  0  0  0  0  0  0  0  0  0
   -1.1147    0.0272   -0.6669 C   0  0  0  0  0  0  0  0  0  0  0  0
   -2.5453   -0.4408   -0.8557 C   0  0  0  0  0  0  0  0  0  0  0  0
   -3.5212    0.2993   -0.0200 N   0  0  0  0  0  0  0  0  0  0  0  0
   -4.9136    0.0069   -0.4437 C   0  0  0  0  0  0  0  0  0  0  0  0
   -5.6086   -1.0659    0.4086 C   0  0  0  0  0  0  0  0  0  0  0  0
   -5.6973   -0.7074    1.7935 O   0  0  0  0  0  0  0  0  0  0  0  0
   -4.6368    0.1571    2.2226 C   0  0  0  0  0  0  0  0  0  0  0  0
   -3.3452   -0.0497    1.4178 C   0  0  0  0  0  0  0  0  0  0  0  0
   -0.7854    1.3890   -0.5581 C   0  0  0  0  0  0  0  0  0  0  0  0
   -1.7687    2.3444   -0.5317 O   0  0  0  0  0  0  0  0  0  0  0  0
   -0.1684    3.6207    1.5485 H   0  0  0  0  0  0  0  0  0  0  0  0
    1.5342    3.1805    1.7505 H   0  0  0  0  0  0  0  0  0  0  0  0
    1.0996    4.8069    1.1969 H   0  0  0  0  0  0  0  0  0  0  0  0
    0.2158    3.8932   -0.9367 H   0  0  0  0  0  0  0  0  0  0  0  0
    1.8959    3.4662   -0.7226 H   0  0  0  0  0  0  0  0  0  0  0  0
    2.6013    1.2030   -0.3687 H   0  0  0  0  0  0  0  0  0  0  0  0
    4.1260   -1.1028   -2.5947 H   0  0  0  0  0  0  0  0  0  0  0  0
    6.5502   -0.6702   -2.3770 H   0  0  0  0  0  0  0  0  0  0  0  0
    7.6045   -0.5771   -0.1333 H   0  0  0  0  0  0  0  0  0  0  0  0
    6.2275   -0.9193    1.9018 H   0  0  0  0  0  0  0  0  0  0  0  0
    3.8018   -1.3535    1.7031 H   0  0  0  0  0  0  0  0  0  0  0  0
    2.7176   -3.6128   -0.7310 H   0  0  0  0  0  0  0  0  0  0  0  0
   -2.6506   -1.5176   -0.6790 H   0  0  0  0  0  0  0  0  0  0  0  0
   -2.7725   -0.2715   -1.9168 H   0  0  0  0  0  0  0  0  0  0  0  0
   -4.9663   -0.2610   -1.5053 H   0  0  0  0  0  0  0  0  0  0  0  0
   -5.4752    0.9439   -0.3390 H   0  0  0  0  0  0  0  0  0  0  0  0
   -6.6294   -1.2286    0.0481 H   0  0  0  0  0  0  0  0  0  0  0  0
   -5.0815   -2.0242    0.3351 H   0  0  0  0  0  0  0  0  0  0  0  0
   -4.4569   -0.0476    3.2829 H   0  0  0  0  0  0  0  0  0  0  0  0
   -4.9845    1.1940    2.1459 H   0  0  0  0  0  0  0  0  0  0  0  0
   -3.0466   -1.1009    1.5257 H   0  0  0  0  0  0  0  0  0  0  0  0
   -2.5506    0.5713    1.8451 H   0  0  0  0  0  0  0  0  0  0  0  0
   -2.6187    1.8767   -0.3766 H   0  0  0  0  0  0  0  0  0  0  0  0
  1  2  1  0
  2  3  1  0
  3  4  2  0
  4  5  1  0
  5  6  1  0
  6  7  1  0
  7  8  2  0
  8  9  1  0
  9 10  2  0
 10 11  1  0
 11 12  2  0
  6 13  2  0
 13 14  1  0
 14 15  2  0
 14 16  1  0
 16 17  1  0
 17 18  1  0
 18 19  1  0
 19 20  1  0
 20 21  1  0
 21 22  1  0
 22 23  1  0
 23 24  1  0
 24 25  1  0
 18 26  2  0
 26 27  1  0
 26  3  1  0
 17  5  2  0
 25 20  1  0
 12  7  1  0
  1 28  1  0
  1 29  1  0
  1 30  1  0
  2 31  1  0
  2 32  1  0
  4 33  1  0
  8 34  1  0
  9 35  1  0
 10 36  1  0
 11 37  1  0
 12 38  1  0
 13 39  1  0
 19 40  1  0
 19 41  1  0
 21 42  1  0
 21 43  1  0
 22 44  1  0
 22 45  1  0
 24 46  1  0
 24 47  1  0
 25 48  1  0
 25 49  1  0
 27 50  1  0
M  END
$$$$
