
     RDKit          3D

 57 60  0  0  0  0  0  0  0  0999 V2000
   -7.8127    0.3275   -1.0833 C   0  0  0  0  0  0  0  0  0  0  0  0
   -6.3377    0.0639   -1.0120 C   0  0  0  0  0  0  0  0  0  0  0  0
   -5.5709    0.5974    0.0302 C   0  0  0  0  0  0  0  0  0  0  0  0
   -4.1901    0.3850    0.0778 C   0  0  0  0  0  0  0  0  0  0  0  0
   -3.5599   -0.3608   -0.9245 C   0  0  0  0  0  0  0  0  0  0  0  0
   -2.1519   -0.5874   -0.8778 N   0  0  0  0  0  0  0  0  0  0  0  0
   -1.5201   -1.8136   -1.0870 C   0  0  0  0  0  0  0  0  0  0  0  0
   -2.2213   -3.1033   -1.3432 C   0  0  0  0  0  0  0  0  0  0  0  0
   -0.1588   -1.6210   -0.9626 C   0  0  0  0  0  0  0  0  0  0  0  0
    0.0646   -0.2679   -0.6197 C   0  0  0  0  0  0  0  0  0  0  0  0
    1.3571    0.3280   -0.3492 C   0  0  0  0  0  0  0  0  0  0  0  0
    1.7350    0.9876   -1.3591 O   0  0  0  0  0  1  0  0  0  0  0  0
    2.0030    0.0708    0.8251 C   0  0  0  0  0  0  0  0  0  0  0  0
    3.4313    0.6066    1.1143 C   0  0  0  0  0  0  0  0  0  0  0  0
    4.0465    0.5738    2.6912 S   0  0  0  0  0  0  0  0  0  0  0  0
    4.0743    1.1104   -0.0087 N   0  0  0  0  0  0  0  0  0  0  0  0
    5.3637    1.6149   -0.2796 C   0  0  0  0  0  0  0  0  0  0  0  0
    6.4698    1.5282    0.5681 C   0  0  0  0  0  0  0  0  0  0  0  0
    7.7072    2.0596    0.1839 C   0  0  0  0  0  0  0  0  0  0  0  0
    7.8461    2.6724   -1.0549 C   0  0  0  0  0  0  0  0  0  0  0  0
    9.0429    3.1708   -1.3982 F   0  0  0  0  0  0  0  0  0  0  0  0
    6.7618    2.7553   -1.9196 C   0  0  0  0  0  0  0  0  0  0  0  0
    6.9258    3.5041   -3.4613 Cl  0  0  0  0  0  0  0  0  0  0  0  0
    5.5282    2.2250   -1.5358 C   0  0  0  0  0  0  0  0  0  0  0  0
    1.3010   -0.7846    1.8562 N   0  0  0  0  0  4  0  0  0  0  0  0
    0.1932   -0.3190    2.4721 C   0  0  0  0  0  0  0  0  0  0  0  0
   -0.4690   -1.0953    3.4166 C   0  0  0  0  0  0  0  0  0  0  0  0
    0.0231   -2.3579    3.7241 C   0  0  0  0  0  0  0  0  0  0  0  0
    1.1656   -2.8198    3.0818 C   0  0  0  0  0  0  0  0  0  0  0  0
    1.7933   -2.0085    2.1425 C   0  0  0  0  0  0  0  0  0  0  0  0
   -1.1728    0.3650   -0.5830 C   0  0  0  0  0  0  0  0  0  0  0  0
   -1.4601    1.8228   -0.4078 C   0  0  0  0  0  0  0  0  0  0  0  0
   -4.3195   -0.8827   -1.9769 C   0  0  0  0  0  0  0  0  0  0  0  0
   -5.6993   -0.6651   -2.0216 C   0  0  0  0  0  0  0  0  0  0  0  0
   -8.2398    0.4319   -0.0804 H   0  0  0  0  0  0  0  0  0  0  0  0
   -8.3341   -0.5017   -1.5731 H   0  0  0  0  0  0  0  0  0  0  0  0
   -8.0018    1.2467   -1.6460 H   0  0  0  0  0  0  0  0  0  0  0  0
   -6.0462    1.1812    0.8155 H   0  0  0  0  0  0  0  0  0  0  0  0
   -3.6334    0.7814    0.9206 H   0  0  0  0  0  0  0  0  0  0  0  0
   -2.4689   -3.2080   -2.4035 H   0  0  0  0  0  0  0  0  0  0  0  0
   -3.1325   -3.1976   -0.7450 H   0  0  0  0  0  0  0  0  0  0  0  0
   -1.5755   -3.9468   -1.0741 H   0  0  0  0  0  0  0  0  0  0  0  0
    0.5981   -2.3816   -1.1010 H   0  0  0  0  0  0  0  0  0  0  0  0
    3.4240    1.1821   -0.8165 H   0  0  0  0  0  0  0  0  0  0  0  0
    6.4283    1.0352    1.5299 H   0  0  0  0  0  0  0  0  0  0  0  0
    8.5650    1.9912    0.8461 H   0  0  0  0  0  0  0  0  0  0  0  0
    4.6842    2.2972   -2.2215 H   0  0  0  0  0  0  0  0  0  0  0  0
   -0.1417    0.6767    2.2003 H   0  0  0  0  0  0  0  0  0  0  0  0
   -1.3627   -0.7156    3.9039 H   0  0  0  0  0  0  0  0  0  0  0  0
   -0.4841   -2.9805    4.4585 H   0  0  0  0  0  0  0  0  0  0  0  0
    1.5632   -3.8065    3.3037 H   0  0  0  0  0  0  0  0  0  0  0  0
    2.6759   -2.3286    1.5978 H   0  0  0  0  0  0  0  0  0  0  0  0
   -2.2610    2.1593   -1.0734 H   0  0  0  0  0  0  0  0  0  0  0  0
   -1.7398    2.0366    0.6280 H   0  0  0  0  0  0  0  0  0  0  0  0
   -0.5871    2.4395   -0.6397 H   0  0  0  0  0  0  0  0  0  0  0  0
   -3.8493   -1.4155   -2.7990 H   0  0  0  0  0  0  0  0  0  0  0  0
   -6.2707   -1.0589   -2.8595 H   0  0  0  0  0  0  0  0  0  0  0  0
  1  2  1  0
  2  3  2  0
  3  4  1  0
  4  5  2  0
  5  6  1  0
  6  7  1  0
  7  8  1  0
  7  9  2  0
  9 10  1  0
 10 11  1  0
 11 12  1  0
 11 13  2  3
 13 14  1  0
 14 15  2  0
 14 16  1  0
 16 17  1  0
 17 18  2  0
 18 19  1  0
 19 20  2  0
 20 21  1  0
 20 22  1  0
 22 23  1  0
 22 24  2  0
 13 25  1  0
 25 26  2  0
 26 27  1  0
 27 28  2  0
 28 29  1  0
 29 30  2  0
 10 31  2  0
 31 32  1  0
  5 33  1  0
 33 34  2  0
 34  2  1  0
 31  6  1  0
 24 17  1  0
 30 25  1  0
  1 35  1  0
  1 36  1  0
  1 37  1  0
  3 38  1  0
  4 39  1  0
  8 40  1  0
  8 41  1  0
  8 42  1  0
  9 43  1  0
 16 44  1  0
 18 45  1  0
 19 46  1  0
 24 47  1  0
 26 48  1  0
 27 49  1  0
 28 50  1  0
 29 51  1  0
 30 52  1  0
 32 53  1  0
 32 54  1  0
 32 55  1  0
 33 56  1  0
 34 57  1  0
M  CHG  2  12  -1  25   1
M  END
$$$$
