
     RDKit          3D

 50 52  0  0  0  0  0  0  0  0999 V2000
   -2.8365   -1.1736   -3.1260 C   0  0  0  0  0  0  0  0  0  0  0  0
   -3.6378   -1.3722   -1.9697 O   0  0  0  0  0  0  0  0  0  0  0  0
   -3.2807   -0.7063   -0.8263 C   0  0  0  0  0  0  0  0  0  0  0  0
   -2.2128    0.1830   -0.7228 C   0  0  0  0  0  0  0  0  0  0  0  0
   -1.9331    0.7891    0.5085 C   0  0  0  0  0  0  0  0  0  0  0  0
   -0.8057    1.7379    0.6331 C   0  0  0  0  0  0  0  0  0  0  0  0
   -1.0546    2.8696    1.0400 O   0  0  0  0  0  0  0  0  0  0  0  0
    0.4698    1.3130    0.2851 N   0  0  0  0  0  0  0  0  0  0  0  0
    0.8699   -0.0889    0.0812 C   0  0  0  0  0  0  0  0  0  0  0  0
    2.3072   -0.3843    0.5593 C   0  0  0  0  0  0  0  0  0  0  0  0
    3.2928    0.5507   -0.0243 N   0  0  0  0  0  0  0  0  0  0  0  0
    4.5063    0.0478   -0.4980 C   0  0  0  0  0  0  0  0  0  0  0  0
    4.9632    0.3941   -1.7860 C   0  0  0  0  0  0  0  0  0  0  0  0
    6.1631   -0.1037   -2.3050 C   0  0  0  0  0  0  0  0  0  0  0  0
    6.6551    0.3425   -3.8931 Cl  0  0  0  0  0  0  0  0  0  0  0  0
    6.9584   -0.9582   -1.5548 C   0  0  0  0  0  0  0  0  0  0  0  0
    6.5525   -1.3070   -0.2708 C   0  0  0  0  0  0  0  0  0  0  0  0
    5.3494   -0.8091    0.2553 C   0  0  0  0  0  0  0  0  0  0  0  0
    5.0219   -1.2365    1.9050 Cl  0  0  0  0  0  0  0  0  0  0  0  0
    2.7743    1.8466   -0.5009 C   0  0  0  0  0  0  0  0  0  0  0  0
    1.5596    2.2926    0.3290 C   0  0  0  0  0  0  0  0  0  0  0  0
   -2.7316    0.5546    1.6340 C   0  0  0  0  0  0  0  0  0  0  0  0
   -3.8041   -0.3308    1.5474 C   0  0  0  0  0  0  0  0  0  0  0  0
   -4.6389   -0.6547    2.5850 O   0  0  0  0  0  0  0  0  0  0  0  0
   -4.3870   -0.0455    3.8443 C   0  0  0  0  0  0  0  0  0  0  0  0
   -4.0742   -0.9495    0.3115 C   0  0  0  0  0  0  0  0  0  0  0  0
   -5.0996   -1.8672    0.2279 O   0  0  0  0  0  0  0  0  0  0  0  0
   -6.3141   -1.2055   -0.1226 C   0  0  0  0  0  0  0  0  0  0  0  0
   -3.2466   -1.7947   -3.9282 H   0  0  0  0  0  0  0  0  0  0  0  0
   -1.8039   -1.4940   -2.9516 H   0  0  0  0  0  0  0  0  0  0  0  0
   -2.8767   -0.1312   -3.4584 H   0  0  0  0  0  0  0  0  0  0  0  0
   -1.5907    0.4302   -1.5757 H   0  0  0  0  0  0  0  0  0  0  0  0
    0.1751   -0.7602    0.5948 H   0  0  0  0  0  0  0  0  0  0  0  0
    0.7980   -0.2810   -0.9959 H   0  0  0  0  0  0  0  0  0  0  0  0
    2.3346   -0.2817    1.6504 H   0  0  0  0  0  0  0  0  0  0  0  0
    2.5382   -1.4253    0.3035 H   0  0  0  0  0  0  0  0  0  0  0  0
    4.3708    1.0441   -2.4230 H   0  0  0  0  0  0  0  0  0  0  0  0
    7.8919   -1.3445   -1.9544 H   0  0  0  0  0  0  0  0  0  0  0  0
    7.1852   -1.9573    0.3291 H   0  0  0  0  0  0  0  0  0  0  0  0
    2.4657    1.7633   -1.5502 H   0  0  0  0  0  0  0  0  0  0  0  0
    3.5549    2.6128   -0.4273 H   0  0  0  0  0  0  0  0  0  0  0  0
    1.1926    3.2601   -0.0313 H   0  0  0  0  0  0  0  0  0  0  0  0
    1.8415    2.4141    1.3821 H   0  0  0  0  0  0  0  0  0  0  0  0
   -2.4861    1.0738    2.5550 H   0  0  0  0  0  0  0  0  0  0  0  0
   -3.4004   -0.3252    4.2282 H   0  0  0  0  0  0  0  0  0  0  0  0
   -5.1359   -0.4163    4.5507 H   0  0  0  0  0  0  0  0  0  0  0  0
   -4.4958    1.0424    3.7850 H   0  0  0  0  0  0  0  0  0  0  0  0
   -7.1005   -1.9634   -0.1884 H   0  0  0  0  0  0  0  0  0  0  0  0
   -6.6095   -0.4788    0.6419 H   0  0  0  0  0  0  0  0  0  0  0  0
   -6.2351   -0.7159   -1.0995 H   0  0  0  0  0  0  0  0  0  0  0  0
  1  2  1  0
  2  3  1  0
  3  4  2  0
  4  5  1  0
  5  6  1  0
  6  7  2  0
  6  8  1  0
  8  9  1  0
  9 10  1  0
 10 11  1  0
 11 12  1  0
 12 13  2  0
 13 14  1  0
 14 15  1  0
 14 16  2  0
 16 17  1  0
 17 18  2  0
 18 19  1  0
 11 20  1  0
 20 21  1  0
  5 22  2  0
 22 23  1  0
 23 24  1  0
 24 25  1  0
 23 26  2  0
 26 27  1  0
 27 28  1  0
 26  3  1  0
 21  8  1  0
 18 12  1  0
  1 29  1  0
  1 30  1  0
  1 31  1  0
  4 32  1  0
  9 33  1  0
  9 34  1  0
 10 35  1  0
 10 36  1  0
 13 37  1  0
 16 38  1  0
 17 39  1  0
 20 40  1  0
 20 41  1  0
 21 42  1  0
 21 43  1  0
 22 44  1  0
 25 45  1  0
 25 46  1  0
 25 47  1  0
 28 48  1  0
 28 49  1  0
 28 50  1  0
M  END
$$$$
