
     RDKit          3D

 39 41  0  0  0  0  0  0  0  0999 V2000
   -2.5984    0.1329    1.9277 C   0  0  0  0  0  0  0  0  0  0  0  0
   -2.6838    0.3860    0.4645 C   0  0  0  0  0  0  0  0  0  0  0  0
   -3.8712    0.8136   -0.0834 N   0  0  0  0  0  0  0  0  0  0  0  0
   -3.7338    1.0573   -1.4259 C   0  0  0  0  0  0  0  0  0  0  0  0
   -4.6742    1.5102   -2.3594 C   0  0  0  0  0  0  0  0  0  0  0  0
   -4.2478    1.6805   -3.6792 C   0  0  0  0  0  0  0  0  0  0  0  0
   -2.9330    1.4093   -4.0464 C   0  0  0  0  0  0  0  0  0  0  0  0
   -2.0083    0.9567   -3.0983 C   0  0  0  0  0  0  0  0  0  0  0  0
   -2.4110    0.7758   -1.7569 C   0  0  0  0  0  0  0  0  0  0  0  0
   -1.7463    0.3234   -0.5631 C   0  0  0  0  0  0  0  0  0  0  0  0
   -0.3387   -0.0937   -0.4903 C   0  0  0  0  0  0  0  0  0  0  0  0
    0.5036    0.4010   -1.2458 O   0  0  0  0  0  0  0  0  0  0  0  0
    0.0745   -1.2133    0.4823 C   0  0  0  0  0  0  0  0  0  0  0  0
   -0.4340   -2.5525   -0.0378 C   0  0  0  0  0  0  0  0  0  0  0  0
    1.5070   -1.3177    0.5663 O   0  0  0  0  0  0  0  0  0  0  0  0
    2.0948   -0.3115    1.2802 C   0  0  0  0  0  0  0  0  0  0  0  0
    1.4731    0.5276    1.9205 O   0  0  0  0  0  0  0  0  0  0  0  0
    3.5318   -0.4182    1.1779 C   0  0  0  0  0  0  0  0  0  0  0  0
    4.3591   -1.2606    0.4475 C   0  0  0  0  0  0  0  0  0  0  0  0
    5.6974   -0.8948    0.7419 C   0  0  0  0  0  0  0  0  0  0  0  0
    5.6001    0.1447    1.6347 C   0  0  0  0  0  0  0  0  0  0  0  0
    6.5991    0.9260    2.2940 N   0  0  0  0  0  4  0  0  0  0  0  0
    7.7755    0.6486    2.0219 O   0  0  0  0  0  0  0  0  0  0  0  0
    6.2252    1.8038    3.0811 O   0  0  0  0  0  1  0  0  0  0  0  0
    4.3056    0.4480    1.9133 O   0  0  0  0  0  0  0  0  0  0  0  0
   -3.4600    0.5525    2.4582 H   0  0  0  0  0  0  0  0  0  0  0  0
   -2.5749   -0.9424    2.1289 H   0  0  0  0  0  0  0  0  0  0  0  0
   -1.7006    0.5958    2.3486 H   0  0  0  0  0  0  0  0  0  0  0  0
   -4.7290    0.9608    0.4310 H   0  0  0  0  0  0  0  0  0  0  0  0
   -5.6988    1.7271   -2.0755 H   0  0  0  0  0  0  0  0  0  0  0  0
   -4.9523    2.0340   -4.4285 H   0  0  0  0  0  0  0  0  0  0  0  0
   -2.6169    1.5526   -5.0767 H   0  0  0  0  0  0  0  0  0  0  0  0
   -0.9825    0.7551   -3.3965 H   0  0  0  0  0  0  0  0  0  0  0  0
   -0.3235   -1.0439    1.4841 H   0  0  0  0  0  0  0  0  0  0  0  0
   -0.0932   -3.3690    0.6080 H   0  0  0  0  0  0  0  0  0  0  0  0
   -0.0423   -2.7563   -1.0410 H   0  0  0  0  0  0  0  0  0  0  0  0
   -1.5268   -2.5805   -0.0873 H   0  0  0  0  0  0  0  0  0  0  0  0
    4.0252   -2.0405   -0.2251 H   0  0  0  0  0  0  0  0  0  0  0  0
    6.6094   -1.3284    0.3539 H   0  0  0  0  0  0  0  0  0  0  0  0
  1  2  1  0
  2  3  1  0
  3  4  1  0
  4  5  2  0
  5  6  1  0
  6  7  2  0
  7  8  1  0
  8  9  2  0
  9 10  1  0
 10 11  1  0
 11 12  2  0
 11 13  1  0
 13 14  1  0
 13 15  1  0
 15 16  1  0
 16 17  2  0
 16 18  1  0
 18 19  2  0
 19 20  1  0
 20 21  2  0
 21 22  1  0
 22 23  2  0
 22 24  1  0
 21 25  1  0
 10  2  2  0
 25 18  1  0
  9  4  1  0
  1 26  1  0
  1 27  1  0
  1 28  1  0
  3 29  1  0
  5 30  1  0
  6 31  1  0
  7 32  1  0
  8 33  1  0
 13 34  1  0
 14 35  1  0
 14 36  1  0
 14 37  1  0
 19 38  1  0
 20 39  1  0
M  CHG  2  22   1  24  -1
M  END
$$$$
