
     RDKit          3D

 52 55  0  0  0  0  0  0  0  0999 V2000
   -3.6001   -1.9001    0.7002 C   0  0  0  0  0  0  0  0  0  0  0  0
   -3.3465   -0.5128    0.9083 O   0  0  0  0  0  0  0  0  0  0  0  0
   -4.4239    0.1837    1.4222 C   0  0  0  0  0  0  0  0  0  0  0  0
   -5.5418   -0.5233    1.7318 N   0  0  0  0  0  0  0  0  0  0  0  0
   -6.5889    0.1608    2.2395 C   0  0  0  0  0  0  0  0  0  0  0  0
   -6.5777    1.5251    2.4580 C   0  0  0  0  0  0  0  0  0  0  0  0
   -5.4218    2.2312    2.1378 C   0  0  0  0  0  0  0  0  0  0  0  0
   -4.3086    1.5628    1.6070 C   0  0  0  0  0  0  0  0  0  0  0  0
   -3.1005    2.3791    1.2884 C   0  0  0  0  0  0  0  0  0  0  0  0
   -3.1040    3.5877    1.5068 O   0  0  0  0  0  0  0  0  0  0  0  0
   -2.0083    1.7360    0.7594 N   0  0  0  0  0  0  0  0  0  0  0  0
   -0.7555    2.4147    0.4932 C   0  0  0  0  0  0  0  0  0  0  0  0
    0.0617    2.6130    1.7908 C   0  0  0  0  0  0  0  0  0  0  0  0
    0.6960    1.2969    2.2799 C   0  0  0  0  0  0  0  0  0  0  0  0
    1.6675    0.6947    1.2446 C   0  0  0  0  0  0  0  0  0  0  0  0
    1.0968    0.7808   -0.1303 C   0  0  0  0  0  0  0  0  0  0  0  0
    0.0030    1.5618   -0.4656 C   0  0  0  0  0  0  0  0  0  0  0  0
   -0.2114    1.3153   -1.8234 C   0  0  0  0  0  0  0  0  0  0  0  0
    0.6577    0.4396   -2.3202 N   0  0  0  0  0  0  0  0  0  0  0  0
    1.5101    0.1390   -1.2927 N   0  0  0  0  0  0  0  0  0  0  0  0
    2.6183   -0.7305   -1.5484 C   0  0  0  0  0  0  0  0  0  0  0  0
    3.6600   -0.9239   -0.6343 C   0  0  0  0  0  0  0  0  0  0  0  0
    4.7173   -1.8044   -0.9202 C   0  0  0  0  0  0  0  0  0  0  0  0
    5.8418   -1.9791    0.0596 C   0  0  0  0  0  0  0  0  0  0  0  0
    4.7495   -2.4666   -2.1522 C   0  0  0  0  0  0  0  0  0  0  0  0
    3.7379   -2.2640   -3.0949 C   0  0  0  0  0  0  0  0  0  0  0  0
    3.7555   -2.9888   -4.4087 C   0  0  0  0  0  0  0  0  0  0  0  0
    2.6734   -1.4061   -2.7819 C   0  0  0  0  0  0  0  0  0  0  0  0
   -3.7845   -2.4142    1.6495 H   0  0  0  0  0  0  0  0  0  0  0  0
   -2.7012   -2.3357    0.2541 H   0  0  0  0  0  0  0  0  0  0  0  0
   -4.4265   -2.0549   -0.0017 H   0  0  0  0  0  0  0  0  0  0  0  0
   -7.4666   -0.4374    2.4726 H   0  0  0  0  0  0  0  0  0  0  0  0
   -7.4456    2.0303    2.8688 H   0  0  0  0  0  0  0  0  0  0  0  0
   -5.3903    3.3062    2.3034 H   0  0  0  0  0  0  0  0  0  0  0  0
   -2.0361    0.7248    0.6634 H   0  0  0  0  0  0  0  0  0  0  0  0
   -0.9753    3.3934    0.0507 H   0  0  0  0  0  0  0  0  0  0  0  0
   -0.5651    3.0346    2.5855 H   0  0  0  0  0  0  0  0  0  0  0  0
    0.8665    3.3354    1.6019 H   0  0  0  0  0  0  0  0  0  0  0  0
    1.2341    1.4723    3.2192 H   0  0  0  0  0  0  0  0  0  0  0  0
   -0.0981    0.5726    2.5022 H   0  0  0  0  0  0  0  0  0  0  0  0
    1.8699   -0.3433    1.5283 H   0  0  0  0  0  0  0  0  0  0  0  0
    2.6043    1.2632    1.2798 H   0  0  0  0  0  0  0  0  0  0  0  0
   -0.9784    1.7197   -2.4711 H   0  0  0  0  0  0  0  0  0  0  0  0
    3.7088   -0.3848    0.3020 H   0  0  0  0  0  0  0  0  0  0  0  0
    6.2866   -2.9762   -0.0262 H   0  0  0  0  0  0  0  0  0  0  0  0
    6.6173   -1.2294   -0.1236 H   0  0  0  0  0  0  0  0  0  0  0  0
    5.4821   -1.8722    1.0892 H   0  0  0  0  0  0  0  0  0  0  0  0
    5.5755   -3.1371   -2.3822 H   0  0  0  0  0  0  0  0  0  0  0  0
    4.7684   -3.3187   -4.6644 H   0  0  0  0  0  0  0  0  0  0  0  0
    3.4123   -2.3330   -5.2156 H   0  0  0  0  0  0  0  0  0  0  0  0
    3.1043   -3.8668   -4.3605 H   0  0  0  0  0  0  0  0  0  0  0  0
    1.8805   -1.2713   -3.5171 H   0  0  0  0  0  0  0  0  0  0  0  0
  1  2  1  0
  2  3  1  0
  3  4  2  0
  4  5  1  0
  5  6  2  0
  6  7  1  0
  7  8  2  0
  8  9  1  0
  9 10  2  0
  9 11  1  0
 11 12  1  0
 12 13  1  0
 13 14  1  0
 14 15  1  0
 15 16  1  0
 16 17  2  0
 17 18  1  0
 18 19  2  0
 19 20  1  0
 20 21  1  0
 21 22  2  0
 22 23  1  0
 23 24  1  0
 23 25  2  0
 25 26  1  0
 26 27  1  0
 26 28  2  0
  8  3  1  0
 17 12  1  0
 28 21  1  0
 20 16  1  0
  1 29  1  0
  1 30  1  0
  1 31  1  0
  5 32  1  0
  6 33  1  0
  7 34  1  0
 11 35  1  0
 12 36  1  0
 13 37  1  0
 13 38  1  0
 14 39  1  0
 14 40  1  0
 15 41  1  0
 15 42  1  0
 18 43  1  0
 22 44  1  0
 24 45  1  0
 24 46  1  0
 24 47  1  0
 25 48  1  0
 27 49  1  0
 27 50  1  0
 27 51  1  0
 28 52  1  0
M  END
$$$$
