
     RDKit          3D

 53 56  0  0  0  0  0  0  0  0999 V2000
    6.3741   -2.2808    1.9761 C   0  0  0  0  0  0  0  0  0  0  0  0
    5.2135   -2.3605    1.1589 O   0  0  0  0  0  0  0  0  0  0  0  0
    5.3952   -1.6809   -0.0862 C   0  0  0  0  0  0  0  0  0  0  0  0
    4.1005   -1.7048   -0.8984 C   0  0  0  0  0  0  0  0  0  0  0  0
    3.1772   -0.6337   -0.5235 N   0  0  0  0  0  0  0  0  0  0  0  0
    3.2158    0.6395   -1.0579 C   0  0  0  0  0  0  0  0  0  0  0  0
    4.2138    1.0987   -2.0622 C   0  0  0  0  0  0  0  0  0  0  0  0
    2.1800    1.3489   -0.4943 C   0  0  0  0  0  0  0  0  0  0  0  0
    1.4574    0.4916    0.3830 C   0  0  0  0  0  0  0  0  0  0  0  0
    0.2637    0.9163    1.1313 C   0  0  0  0  0  0  0  0  0  0  0  0
    0.1060    2.1109    1.4078 O   0  0  0  0  0  0  0  0  0  0  0  0
   -0.7836   -0.0792    1.5888 C   0  0  0  0  0  0  0  0  0  0  0  0
   -1.6479   -0.8992    0.2157 S   0  0  0  0  0  0  0  0  0  0  0  0
   -2.3961    0.5192   -0.5222 C   0  0  0  0  0  0  0  0  0  0  0  0
   -1.6269    1.3089   -1.2932 N   0  0  0  0  0  0  0  0  0  0  0  0
   -2.1730    2.4113   -1.8353 C   0  0  0  0  0  0  0  0  0  0  0  0
   -1.2786    3.2631   -2.6831 C   0  0  0  0  0  0  0  0  0  0  0  0
   -3.4499    2.7997   -1.7188 N   0  0  0  0  0  0  0  0  0  0  0  0
   -4.1862    1.9776   -0.9533 C   0  0  0  0  0  0  0  0  0  0  0  0
   -5.8499    2.3174   -0.6689 S   0  0  0  0  0  0  0  0  0  0  0  0
   -5.9849    0.9500    0.2800 C   0  0  0  0  0  0  0  0  0  0  0  0
   -4.8267    0.2303    0.3967 C   0  0  0  0  0  0  0  0  0  0  0  0
   -3.7449    0.8167   -0.3181 C   0  0  0  0  0  0  0  0  0  0  0  0
   -5.0352   -0.9667    1.2524 C   0  0  0  0  0  0  0  0  0  0  0  0
   -6.5913   -1.0396    1.3577 C   0  0  0  0  0  0  0  0  0  0  0  0
   -7.1352    0.3805    1.0183 C   0  0  0  0  0  0  0  0  0  0  0  0
    2.1264   -0.7329    0.3786 C   0  0  0  0  0  0  0  0  0  0  0  0
    1.8646   -1.9700    1.1732 C   0  0  0  0  0  0  0  0  0  0  0  0
    6.5930   -1.2389    2.2289 H   0  0  0  0  0  0  0  0  0  0  0  0
    6.1819   -2.8310    2.9012 H   0  0  0  0  0  0  0  0  0  0  0  0
    7.2315   -2.7349    1.4700 H   0  0  0  0  0  0  0  0  0  0  0  0
    5.7332   -0.6546    0.0976 H   0  0  0  0  0  0  0  0  0  0  0  0
    6.1738   -2.2109   -0.6473 H   0  0  0  0  0  0  0  0  0  0  0  0
    3.5744   -2.6600   -0.8073 H   0  0  0  0  0  0  0  0  0  0  0  0
    4.3254   -1.5681   -1.9620 H   0  0  0  0  0  0  0  0  0  0  0  0
    4.1006    2.1698   -2.2609 H   0  0  0  0  0  0  0  0  0  0  0  0
    4.0798    0.5685   -3.0105 H   0  0  0  0  0  0  0  0  0  0  0  0
    5.2354    0.9348   -1.7067 H   0  0  0  0  0  0  0  0  0  0  0  0
    1.9342    2.3829   -0.7061 H   0  0  0  0  0  0  0  0  0  0  0  0
   -0.3352   -0.8241    2.2478 H   0  0  0  0  0  0  0  0  0  0  0  0
   -1.5265    0.4526    2.1952 H   0  0  0  0  0  0  0  0  0  0  0  0
   -1.4041    2.9940   -3.7361 H   0  0  0  0  0  0  0  0  0  0  0  0
   -0.2292    3.1212   -2.4060 H   0  0  0  0  0  0  0  0  0  0  0  0
   -1.5257    4.3216   -2.5559 H   0  0  0  0  0  0  0  0  0  0  0  0
   -4.6346   -1.8832    0.8110 H   0  0  0  0  0  0  0  0  0  0  0  0
   -4.5916   -0.8123    2.2417 H   0  0  0  0  0  0  0  0  0  0  0  0
   -6.9651   -1.7525    0.6105 H   0  0  0  0  0  0  0  0  0  0  0  0
   -6.9251   -1.3894    2.3396 H   0  0  0  0  0  0  0  0  0  0  0  0
   -8.0488    0.3227    0.4208 H   0  0  0  0  0  0  0  0  0  0  0  0
   -7.3288    0.9471    1.9348 H   0  0  0  0  0  0  0  0  0  0  0  0
    2.6988   -2.6725    1.1759 H   0  0  0  0  0  0  0  0  0  0  0  0
    0.9936   -2.4999    0.7782 H   0  0  0  0  0  0  0  0  0  0  0  0
    1.6811   -1.7152    2.2216 H   0  0  0  0  0  0  0  0  0  0  0  0
  1  2  1  0
  2  3  1  0
  3  4  1  0
  4  5  1  0
  5  6  1  0
  6  7  1  0
  6  8  2  0
  8  9  1  0
  9 10  1  0
 10 11  2  0
 10 12  1  0
 12 13  1  0
 13 14  1  0
 14 15  2  0
 15 16  1  0
 16 17  1  0
 16 18  2  0
 18 19  1  0
 19 20  1  0
 20 21  1  0
 21 22  2  0
 22 23  1  0
 22 24  1  0
 24 25  1  0
 25 26  1  0
  9 27  2  0
 27 28  1  0
 27  5  1  0
 23 14  1  0
 23 19  2  0
 26 21  1  0
  1 29  1  0
  1 30  1  0
  1 31  1  0
  3 32  1  0
  3 33  1  0
  4 34  1  0
  4 35  1  0
  7 36  1  0
  7 37  1  0
  7 38  1  0
  8 39  1  0
 12 40  1  0
 12 41  1  0
 17 42  1  0
 17 43  1  0
 17 44  1  0
 24 45  1  0
 24 46  1  0
 25 47  1  0
 25 48  1  0
 26 49  1  0
 26 50  1  0
 28 51  1  0
 28 52  1  0
 28 53  1  0
M  END
$$$$
