
     RDKit          3D

 67 72  0  0  0  0  0  0  0  0999 V2000
    3.0937    3.4200   -2.6266 O   0  0  0  0  0  0  0  0  0  0  0  0
    2.3958    2.7280   -1.8739 C   0  0  0  0  0  0  0  0  0  0  0  0
    0.9246    3.1117   -1.7178 C   0  0  0  0  0  0  0  0  0  0  0  0
    0.6469    3.8614   -0.4126 C   0  0  0  0  0  0  0  0  0  0  0  0
   -0.8535    3.9400   -0.1777 C   0  0  0  0  0  0  0  0  0  0  0  0
   -1.4868    2.5541   -0.0400 C   0  0  0  0  0  0  0  0  0  0  0  0
   -0.8023    1.5415   -0.8515 N   0  0  0  0  0  0  0  0  0  0  0  0
   -1.4424    0.2940   -0.9646 C   0  0  0  0  0  0  0  0  0  0  0  0
   -0.9638   -0.6038   -1.8800 N   0  0  0  0  0  0  0  0  0  0  0  0
   -1.5436   -1.8159   -2.0061 C   0  0  0  0  0  0  0  0  0  0  0  0
   -2.5903   -2.3103   -1.3268 N   0  0  0  0  0  0  0  0  0  0  0  0
   -3.0373   -1.4198   -0.4281 C   0  0  0  0  0  0  0  0  0  0  0  0
   -2.5433   -0.1475   -0.1789 C   0  0  0  0  0  0  0  0  0  0  0  0
   -3.2852    0.4551    0.8249 N   0  0  0  0  0  0  0  0  0  0  0  0
   -4.2146   -0.4173    1.1632 C   0  0  0  0  0  0  0  0  0  0  0  0
   -4.0880   -1.5743    0.4339 N   0  0  0  0  0  0  0  0  0  0  0  0
   -4.9457   -2.7350    0.5368 C   0  0  0  0  0  0  0  0  0  0  0  0
   -6.3964   -2.4317    0.1716 C   0  0  0  0  0  0  0  0  0  0  0  0
   -7.1706   -1.6950    1.2692 C   0  0  0  0  0  0  0  0  0  0  0  0
   -6.6860   -0.2724    1.5647 C   0  0  0  0  0  0  0  0  0  0  0  0
   -5.2872   -0.2060    2.1769 C   0  0  0  0  0  0  0  0  0  0  0  0
   -0.0616    1.9813   -2.0410 C   0  0  0  0  0  0  0  0  0  0  0  0
    2.9526    1.6741   -1.1773 N   0  0  0  0  0  0  0  0  0  0  0  0
    4.3739    1.3779   -1.3974 C   0  0  0  0  0  0  0  0  0  0  0  0
    4.7536   -0.0939   -1.1469 C   0  0  0  0  0  0  0  0  0  0  0  0
    4.3228   -0.5565    0.1858 N   0  0  0  0  0  0  0  0  0  0  0  0
    5.1092   -1.4477    0.9047 C   0  0  0  0  0  0  0  0  0  0  0  0
    5.9479   -2.3735    0.2591 C   0  0  0  0  0  0  0  0  0  0  0  0
    6.7488   -3.2769    0.9702 C   0  0  0  0  0  0  0  0  0  0  0  0
    6.7271   -3.2819    2.3587 C   0  0  0  0  0  0  0  0  0  0  0  0
    5.9010   -2.3876    3.0290 C   0  0  0  0  0  0  0  0  0  0  0  0
    5.1013   -1.4897    2.3083 C   0  0  0  0  0  0  0  0  0  0  0  0
    3.2180    0.1764    0.8202 C   0  0  0  0  0  0  0  0  0  0  0  0
    2.2674    0.7876   -0.2277 C   0  0  0  0  0  0  0  0  0  0  0  0
    0.7649    3.8466   -2.5248 H   0  0  0  0  0  0  0  0  0  0  0  0
    1.0622    4.8743   -0.4809 H   0  0  0  0  0  0  0  0  0  0  0  0
    1.1407    3.3988    0.4466 H   0  0  0  0  0  0  0  0  0  0  0  0
   -1.3210    4.4655   -1.0211 H   0  0  0  0  0  0  0  0  0  0  0  0
   -1.0704    4.5389    0.7131 H   0  0  0  0  0  0  0  0  0  0  0  0
   -2.5450    2.6431   -0.3179 H   0  0  0  0  0  0  0  0  0  0  0  0
   -1.4188    2.2600    1.0138 H   0  0  0  0  0  0  0  0  0  0  0  0
   -1.1064   -2.4724   -2.7520 H   0  0  0  0  0  0  0  0  0  0  0  0
   -4.5570   -3.5064   -0.1338 H   0  0  0  0  0  0  0  0  0  0  0  0
   -4.8605   -3.1192    1.5590 H   0  0  0  0  0  0  0  0  0  0  0  0
   -6.9073   -3.3855   -0.0127 H   0  0  0  0  0  0  0  0  0  0  0  0
   -6.4463   -1.8609   -0.7644 H   0  0  0  0  0  0  0  0  0  0  0  0
   -8.2214   -1.6354    0.9574 H   0  0  0  0  0  0  0  0  0  0  0  0
   -7.1555   -2.2869    2.1930 H   0  0  0  0  0  0  0  0  0  0  0  0
   -6.7378    0.3338    0.6506 H   0  0  0  0  0  0  0  0  0  0  0  0
   -7.3905    0.1754    2.2785 H   0  0  0  0  0  0  0  0  0  0  0  0
   -5.1851   -0.9295    2.9942 H   0  0  0  0  0  0  0  0  0  0  0  0
   -5.1479    0.7880    2.6194 H   0  0  0  0  0  0  0  0  0  0  0  0
   -0.7923    2.3442   -2.7766 H   0  0  0  0  0  0  0  0  0  0  0  0
    0.4822    1.1625   -2.5272 H   0  0  0  0  0  0  0  0  0  0  0  0
    4.6665    1.6562   -2.4169 H   0  0  0  0  0  0  0  0  0  0  0  0
    4.9327    2.0250   -0.7091 H   0  0  0  0  0  0  0  0  0  0  0  0
    5.8436   -0.1682   -1.2668 H   0  0  0  0  0  0  0  0  0  0  0  0
    4.2861   -0.7344   -1.9072 H   0  0  0  0  0  0  0  0  0  0  0  0
    5.9739   -2.4285   -0.8259 H   0  0  0  0  0  0  0  0  0  0  0  0
    7.3777   -3.9798    0.4316 H   0  0  0  0  0  0  0  0  0  0  0  0
    7.3443   -3.9820    2.9152 H   0  0  0  0  0  0  0  0  0  0  0  0
    5.8741   -2.3802    4.1149 H   0  0  0  0  0  0  0  0  0  0  0  0
    4.4836   -0.8032    2.8796 H   0  0  0  0  0  0  0  0  0  0  0  0
    2.6273   -0.4923    1.4568 H   0  0  0  0  0  0  0  0  0  0  0  0
    3.6279    0.9764    1.4469 H   0  0  0  0  0  0  0  0  0  0  0  0
    1.4799    1.3230    0.2968 H   0  0  0  0  0  0  0  0  0  0  0  0
    1.8094   -0.0132   -0.8198 H   0  0  0  0  0  0  0  0  0  0  0  0
  1  2  2  0
  2  3  1  0
  3  4  1  0
  4  5  1  0
  5  6  1  0
  6  7  1  0
  7  8  1  0
  8  9  2  0
  9 10  1  0
 10 11  2  0
 11 12  1  0
 12 13  2  0
 13 14  1  0
 14 15  2  0
 15 16  1  0
 16 17  1  0
 17 18  1  0
 18 19  1  0
 19 20  1  0
 20 21  1  0
  7 22  1  0
  2 23  1  0
 23 24  1  0
 24 25  1  0
 25 26  1  0
 26 27  1  0
 27 28  2  0
 28 29  1  0
 29 30  2  0
 30 31  1  0
 31 32  2  0
 26 33  1  0
 33 34  1  0
 22  3  1  0
 34 23  1  0
 13  8  1  0
 21 15  1  0
 32 27  1  0
 16 12  1  0
  3 35  1  0
  4 36  1  0
  4 37  1  0
  5 38  1  0
  5 39  1  0
  6 40  1  0
  6 41  1  0
 10 42  1  0
 17 43  1  0
 17 44  1  0
 18 45  1  0
 18 46  1  0
 19 47  1  0
 19 48  1  0
 20 49  1  0
 20 50  1  0
 21 51  1  0
 21 52  1  0
 22 53  1  0
 22 54  1  0
 24 55  1  0
 24 56  1  0
 25 57  1  0
 25 58  1  0
 28 59  1  0
 29 60  1  0
 30 61  1  0
 31 62  1  0
 32 63  1  0
 33 64  1  0
 33 65  1  0
 34 66  1  0
 34 67  1  0
M  END
$$$$
