
     RDKit          3D

 62 65  0  0  0  0  0  0  0  0999 V2000
    9.2131   -3.5752   -1.9766 C   0  0  0  0  0  0  0  0  0  0  0  0
    9.0815   -2.6801   -0.7592 C   0  0  0  0  0  0  0  0  0  0  0  0
    7.7441   -2.1688   -0.7260 O   0  0  0  0  0  0  0  0  0  0  0  0
    7.4827   -1.3455    0.3252 C   0  0  0  0  0  0  0  0  0  0  0  0
    8.3073   -1.0488    1.1807 O   0  0  0  0  0  0  0  0  0  0  0  0
    6.1792   -0.8914    0.3181 N   0  0  0  0  0  0  0  0  0  0  0  0
    5.6977   -0.0583    1.4175 C   0  0  0  0  0  0  0  0  0  0  0  0
    4.2143   -0.2968    1.7206 C   0  0  0  0  0  0  0  0  0  0  0  0
    3.3552   -0.1639    0.5367 N   0  0  0  0  0  0  0  0  0  0  0  0
    2.0097    0.1367    0.7320 C   0  0  0  0  0  0  0  0  0  0  0  0
    1.5345    0.2368    1.8643 O   0  0  0  0  0  0  0  0  0  0  0  0
    1.1464    0.3271   -0.5271 C   0  0  0  0  0  0  0  0  0  0  0  0
   -0.1728    0.8039   -0.2948 O   0  0  0  0  0  0  0  0  0  0  0  0
   -1.1675   -0.1275   -0.1534 C   0  0  0  0  0  0  0  0  0  0  0  0
   -0.9632   -1.4310    0.3105 C   0  0  0  0  0  0  0  0  0  0  0  0
   -2.0318   -2.3237    0.4122 C   0  0  0  0  0  0  0  0  0  0  0  0
   -3.3152   -1.9177    0.0568 C   0  0  0  0  0  0  0  0  0  0  0  0
   -3.5380   -0.6071   -0.3789 C   0  0  0  0  0  0  0  0  0  0  0  0
   -2.4682    0.3023   -0.4683 C   0  0  0  0  0  0  0  0  0  0  0  0
   -2.7380    1.6974   -0.9678 C   0  0  0  0  0  0  0  0  0  0  0  0
   -4.1452    2.1330   -0.5815 C   0  0  0  0  0  0  0  0  0  0  0  0
   -5.1447    1.1542   -0.9893 N   0  0  0  0  0  0  0  0  0  0  0  0
   -6.5078    1.6211   -1.2226 C   0  0  0  0  0  0  0  0  0  0  0  0
   -7.2095    2.0453    0.0415 C   0  0  0  0  0  0  0  0  0  0  0  0
   -7.7687    1.0950    0.9083 C   0  0  0  0  0  0  0  0  0  0  0  0
   -8.4052    1.4961    2.0857 C   0  0  0  0  0  0  0  0  0  0  0  0
   -8.4859    2.8491    2.4131 C   0  0  0  0  0  0  0  0  0  0  0  0
   -7.9274    3.8014    1.5630 C   0  0  0  0  0  0  0  0  0  0  0  0
   -7.2958    3.3945    0.3908 C   0  0  0  0  0  0  0  0  0  0  0  0
   -6.7580    4.3272   -0.4081 F   0  0  0  0  0  0  0  0  0  0  0  0
   -4.9227   -0.2019   -0.7638 C   0  0  0  0  0  0  0  0  0  0  0  0
   -5.7960   -1.0581   -0.8747 O   0  0  0  0  0  0  0  0  0  0  0  0
    4.0027   -0.3250   -0.7713 C   0  0  0  0  0  0  0  0  0  0  0  0
    5.2201   -1.2582   -0.7220 C   0  0  0  0  0  0  0  0  0  0  0  0
    8.4865   -4.3935   -1.9343 H   0  0  0  0  0  0  0  0  0  0  0  0
    9.0048   -3.0117   -2.8925 H   0  0  0  0  0  0  0  0  0  0  0  0
   10.2190   -3.9985   -2.0433 H   0  0  0  0  0  0  0  0  0  0  0  0
    9.2790   -3.2603    0.1493 H   0  0  0  0  0  0  0  0  0  0  0  0
    9.7933   -1.8505   -0.8319 H   0  0  0  0  0  0  0  0  0  0  0  0
    6.2970   -0.2298    2.3174 H   0  0  0  0  0  0  0  0  0  0  0  0
    5.8522    0.9826    1.1100 H   0  0  0  0  0  0  0  0  0  0  0  0
    3.8798    0.3931    2.5030 H   0  0  0  0  0  0  0  0  0  0  0  0
    4.0701   -1.3177    2.0943 H   0  0  0  0  0  0  0  0  0  0  0  0
    1.6355    1.0950   -1.1377 H   0  0  0  0  0  0  0  0  0  0  0  0
    1.1346   -0.5960   -1.1185 H   0  0  0  0  0  0  0  0  0  0  0  0
    0.0164   -1.7770    0.6251 H   0  0  0  0  0  0  0  0  0  0  0  0
   -1.8637   -3.3349    0.7743 H   0  0  0  0  0  0  0  0  0  0  0  0
   -4.1431   -2.6199    0.1290 H   0  0  0  0  0  0  0  0  0  0  0  0
   -2.0267    2.4176   -0.5491 H   0  0  0  0  0  0  0  0  0  0  0  0
   -2.6248    1.7020   -2.0586 H   0  0  0  0  0  0  0  0  0  0  0  0
   -4.3674    3.0942   -1.0573 H   0  0  0  0  0  0  0  0  0  0  0  0
   -4.2247    2.2567    0.5054 H   0  0  0  0  0  0  0  0  0  0  0  0
   -6.4635    2.4468   -1.9429 H   0  0  0  0  0  0  0  0  0  0  0  0
   -7.0942    0.8317   -1.7090 H   0  0  0  0  0  0  0  0  0  0  0  0
   -7.7070    0.0349    0.6675 H   0  0  0  0  0  0  0  0  0  0  0  0
   -8.8362    0.7490    2.7475 H   0  0  0  0  0  0  0  0  0  0  0  0
   -8.9800    3.1590    3.3302 H   0  0  0  0  0  0  0  0  0  0  0  0
   -7.9794    4.8574    1.8052 H   0  0  0  0  0  0  0  0  0  0  0  0
    4.3149    0.6777   -1.0870 H   0  0  0  0  0  0  0  0  0  0  0  0
    3.2891   -0.6973   -1.5097 H   0  0  0  0  0  0  0  0  0  0  0  0
    4.8938   -2.2816   -0.5003 H   0  0  0  0  0  0  0  0  0  0  0  0
    5.7179   -1.2710   -1.6977 H   0  0  0  0  0  0  0  0  0  0  0  0
  1  2  1  0
  2  3  1  0
  3  4  1  0
  4  5  2  0
  4  6  1  0
  6  7  1  0
  7  8  1  0
  8  9  1  0
  9 10  1  0
 10 11  2  0
 10 12  1  0
 12 13  1  0
 13 14  1  0
 14 15  2  0
 15 16  1  0
 16 17  2  0
 17 18  1  0
 18 19  2  0
 19 20  1  0
 20 21  1  0
 21 22  1  0
 22 23  1  0
 23 24  1  0
 24 25  2  0
 25 26  1  0
 26 27  2  0
 27 28  1  0
 28 29  2  0
 29 30  1  0
 22 31  1  0
 31 32  2  0
  9 33  1  0
 33 34  1  0
 34  6  1  0
 19 14  1  0
 29 24  1  0
 31 18  1  0
  1 35  1  0
  1 36  1  0
  1 37  1  0
  2 38  1  0
  2 39  1  0
  7 40  1  0
  7 41  1  0
  8 42  1  0
  8 43  1  0
 12 44  1  0
 12 45  1  0
 15 46  1  0
 16 47  1  0
 17 48  1  0
 20 49  1  0
 20 50  1  0
 21 51  1  0
 21 52  1  0
 23 53  1  0
 23 54  1  0
 25 55  1  0
 26 56  1  0
 27 57  1  0
 28 58  1  0
 33 59  1  0
 33 60  1  0
 34 61  1  0
 34 62  1  0
M  END
$$$$
