
     RDKit          3D

 48 50  0  0  0  0  0  0  0  0999 V2000
   -2.1411    2.8509    1.6524 C   0  0  0  0  0  0  0  0  0  0  0  0
   -2.3167    2.1322    0.3311 C   0  0  0  0  0  0  0  0  0  0  0  0
   -1.2349    1.2062    0.1853 O   0  0  0  0  0  0  0  0  0  0  0  0
   -1.3238    0.3797   -0.8878 C   0  0  0  0  0  0  0  0  0  0  0  0
   -2.2040    0.4093   -1.7354 O   0  0  0  0  0  0  0  0  0  0  0  0
   -0.1758   -0.5910   -0.8948 C   0  0  0  0  0  0  0  0  0  0  0  0
    0.4831   -0.7873   -2.2498 C   0  0  0  0  0  0  0  0  0  0  0  0
    0.5884    0.3687   -3.2171 C   0  0  0  0  0  0  0  0  0  0  0  0
    2.1656    1.1738   -3.1758 S   0  0  0  0  0  6  0  0  0  0  0  0
    3.1872    0.2811   -3.6816 O   0  0  0  0  0  0  0  0  0  0  0  0
    1.9950    2.4899   -3.7644 O   0  0  0  0  0  0  0  0  0  0  0  0
    2.5010    1.4389   -1.4516 C   0  0  0  0  0  0  0  0  0  0  0  0
    1.9260    2.5360   -0.8016 C   0  0  0  0  0  0  0  0  0  0  0  0
    2.1943    2.7434    0.5502 C   0  0  0  0  0  0  0  0  0  0  0  0
    3.0345    1.8678    1.2374 C   0  0  0  0  0  0  0  0  0  0  0  0
    3.6195    0.7843    0.5789 C   0  0  0  0  0  0  0  0  0  0  0  0
    3.3598    0.5688   -0.7734 C   0  0  0  0  0  0  0  0  0  0  0  0
    1.0144   -1.9138   -2.6106 N   0  0  0  0  0  0  0  0  0  0  0  0
    1.0347   -3.0046   -1.7881 C   0  0  0  0  0  0  0  0  0  0  0  0
    1.6569   -4.0268   -2.0430 O   0  0  0  0  0  0  0  0  0  0  0  0
    0.3157   -2.9390   -0.6335 N   0  0  0  0  0  0  0  0  0  0  0  0
   -0.7189   -1.9538   -0.4818 C   0  0  0  0  0  0  0  0  0  0  0  0
   -1.2804   -2.0159    0.9264 C   0  0  0  0  0  0  0  0  0  0  0  0
   -0.5497   -1.5808    2.0405 C   0  0  0  0  0  0  0  0  0  0  0  0
   -1.1058   -1.6337    3.3210 C   0  0  0  0  0  0  0  0  0  0  0  0
   -2.3890   -2.1369    3.5088 C   0  0  0  0  0  0  0  0  0  0  0  0
   -3.1151   -2.5945    2.4160 C   0  0  0  0  0  0  0  0  0  0  0  0
   -2.5615   -2.5369    1.1367 C   0  0  0  0  0  0  0  0  0  0  0  0
   -2.9357    3.5848    1.8092 H   0  0  0  0  0  0  0  0  0  0  0  0
   -1.1748    3.3603    1.6959 H   0  0  0  0  0  0  0  0  0  0  0  0
   -2.1578    2.1361    2.4814 H   0  0  0  0  0  0  0  0  0  0  0  0
   -2.2905    2.8531   -0.4951 H   0  0  0  0  0  0  0  0  0  0  0  0
   -3.2717    1.5953    0.3252 H   0  0  0  0  0  0  0  0  0  0  0  0
    0.6058   -0.2445   -0.2116 H   0  0  0  0  0  0  0  0  0  0  0  0
    0.4417    0.0049   -4.2392 H   0  0  0  0  0  0  0  0  0  0  0  0
   -0.1657    1.1317   -3.0221 H   0  0  0  0  0  0  0  0  0  0  0  0
    1.2877    3.2373   -1.3371 H   0  0  0  0  0  0  0  0  0  0  0  0
    1.7558    3.5955    1.0653 H   0  0  0  0  0  0  0  0  0  0  0  0
    3.2489    2.0400    2.2913 H   0  0  0  0  0  0  0  0  0  0  0  0
    4.2901    0.1172    1.1140 H   0  0  0  0  0  0  0  0  0  0  0  0
    3.8302   -0.2708   -1.2861 H   0  0  0  0  0  0  0  0  0  0  0  0
    0.2380   -3.8322   -0.1643 H   0  0  0  0  0  0  0  0  0  0  0  0
   -1.5132   -2.2453   -1.1875 H   0  0  0  0  0  0  0  0  0  0  0  0
    0.4598   -1.1976    1.9257 H   0  0  0  0  0  0  0  0  0  0  0  0
   -0.5283   -1.2965    4.1769 H   0  0  0  0  0  0  0  0  0  0  0  0
   -2.8186   -2.1818    4.5061 H   0  0  0  0  0  0  0  0  0  0  0  0
   -4.1123   -2.9977    2.5616 H   0  0  0  0  0  0  0  0  0  0  0  0
   -3.1488   -2.9059    0.2962 H   0  0  0  0  0  0  0  0  0  0  0  0
  1  2  1  0
  2  3  1  0
  3  4  1  0
  4  5  2  0
  4  6  1  0
  6  7  1  0
  7  8  1  0
  8  9  1  0
  9 10  2  0
  9 11  2  0
  9 12  1  0
 12 13  2  0
 13 14  1  0
 14 15  2  0
 15 16  1  0
 16 17  2  0
  7 18  2  0
 18 19  1  0
 19 20  2  0
 19 21  1  0
 21 22  1  0
 22 23  1  0
 23 24  2  0
 24 25  1  0
 25 26  2  0
 26 27  1  0
 27 28  2  0
 22  6  1  0
 28 23  1  0
 17 12  1  0
  1 29  1  0
  1 30  1  0
  1 31  1  0
  2 32  1  0
  2 33  1  0
  6 34  1  0
  8 35  1  0
  8 36  1  0
 13 37  1  0
 14 38  1  0
 15 39  1  0
 16 40  1  0
 17 41  1  0
 21 42  1  0
 22 43  1  0
 24 44  1  0
 25 45  1  0
 26 46  1  0
 27 47  1  0
 28 48  1  0
M  END
$$$$
