
     RDKit          3D

 66 72  0  0  0  0  0  0  0  0999 V2000
    1.8588   -0.1175    1.5255 O   0  0  0  0  0  0  0  0  0  0  0  0
    1.8050   -0.3124    0.3181 C   0  0  0  0  0  0  0  0  0  0  0  0
    2.7383   -1.0209   -0.4558 N   0  0  0  0  0  0  0  0  0  0  0  0
    3.9495   -1.5910    0.0899 C   0  0  0  0  0  0  0  0  0  0  0  0
    5.1253   -0.6427    0.0251 C   0  0  0  0  0  0  0  0  0  0  0  0
    5.2037    0.4521    0.8998 C   0  0  0  0  0  0  0  0  0  0  0  0
    6.2804    1.3381    0.8369 C   0  0  0  0  0  0  0  0  0  0  0  0
    7.2919    1.1410   -0.1007 C   0  0  0  0  0  0  0  0  0  0  0  0
    7.2280    0.0569   -0.9735 C   0  0  0  0  0  0  0  0  0  0  0  0
    6.1524   -0.8315   -0.9107 C   0  0  0  0  0  0  0  0  0  0  0  0
    2.4079   -0.9684   -1.8196 C   0  0  0  0  0  0  0  0  0  0  0  0
    3.0794   -1.5198   -2.8957 C   0  0  0  0  0  0  0  0  0  0  0  0
    2.5480   -1.3240   -4.1742 C   0  0  0  0  0  0  0  0  0  0  0  0
    1.3672   -0.5868   -4.3572 C   0  0  0  0  0  0  0  0  0  0  0  0
    0.6967   -0.0365   -3.2642 C   0  0  0  0  0  0  0  0  0  0  0  0
    1.2234   -0.2424   -1.9964 C   0  0  0  0  0  0  0  0  0  0  0  0
    0.7202    0.2095   -0.6604 C   0  0  0  0  0  0  0  0  0  0  0  0
    0.5088    1.6868   -0.5371 N   0  0  0  0  0  0  0  0  0  0  0  0
   -0.8209    1.9436    0.1391 C   0  0  2  0  0  0  0  0  0  0  0  0
   -0.6103    2.4157    1.5933 C   0  0  0  0  0  0  0  0  0  0  0  0
   -1.8497    2.9590    2.2681 C   0  0  0  0  0  0  0  0  0  0  0  0
   -2.4444    2.2630    3.3293 C   0  0  0  0  0  0  0  0  0  0  0  0
   -3.5815    2.7697    3.9612 C   0  0  0  0  0  0  0  0  0  0  0  0
   -4.1333    3.9775    3.5409 C   0  0  0  0  0  0  0  0  0  0  0  0
   -3.5497    4.6792    2.4879 C   0  0  0  0  0  0  0  0  0  0  0  0
   -2.4121    4.1745    1.8555 C   0  0  0  0  0  0  0  0  0  0  0  0
   -1.4895    0.6275    0.0118 C   0  0  0  0  0  0  0  0  0  0  0  0
   -0.6149   -0.3637   -0.4265 C   0  0  0  0  0  0  0  0  0  0  0  0
   -1.2956   -1.5536   -0.4988 C   0  0  0  0  0  0  0  0  0  0  0  0
   -0.8836   -2.7526   -0.9057 O   0  0  0  0  0  0  0  0  0  0  0  0
   -2.6337   -1.2891   -0.1428 N   0  0  0  0  0  0  0  0  0  0  0  0
   -3.7189   -2.2238   -0.1766 C   0  0  0  0  0  0  0  0  0  0  0  0
   -3.4980   -3.5832    0.0793 C   0  0  0  0  0  0  0  0  0  0  0  0
   -4.5625   -4.4888    0.0511 C   0  0  0  0  0  0  0  0  0  0  0  0
   -5.8513   -4.0474   -0.2399 C   0  0  0  0  0  0  0  0  0  0  0  0
   -6.0787   -2.7003   -0.5105 C   0  0  0  0  0  0  0  0  0  0  0  0
   -5.0181   -1.7909   -0.4841 C   0  0  0  0  0  0  0  0  0  0  0  0
   -2.7233    0.0723    0.2112 C   0  0  0  0  0  0  0  0  0  0  0  0
   -3.8151    0.6594    0.6958 O   0  0  0  0  0  0  0  0  0  0  0  0
    3.7739   -1.8547    1.1407 H   0  0  0  0  0  0  0  0  0  0  0  0
    4.1714   -2.5330   -0.4251 H   0  0  0  0  0  0  0  0  0  0  0  0
    4.4234    0.6195    1.6408 H   0  0  0  0  0  0  0  0  0  0  0  0
    6.3269    2.1822    1.5203 H   0  0  0  0  0  0  0  0  0  0  0  0
    8.1305    1.8310   -0.1515 H   0  0  0  0  0  0  0  0  0  0  0  0
    8.0176   -0.0957   -1.7050 H   0  0  0  0  0  0  0  0  0  0  0  0
    6.1265   -1.6725   -1.5988 H   0  0  0  0  0  0  0  0  0  0  0  0
    3.9920   -2.0904   -2.7757 H   0  0  0  0  0  0  0  0  0  0  0  0
    3.0553   -1.7420   -5.0412 H   0  0  0  0  0  0  0  0  0  0  0  0
    0.9730   -0.4407   -5.3606 H   0  0  0  0  0  0  0  0  0  0  0  0
   -0.2156    0.5381   -3.3994 H   0  0  0  0  0  0  0  0  0  0  0  0
    1.2586    2.0636    0.0403 H   0  0  0  0  0  0  0  0  0  0  0  0
   -1.3492    2.7017   -0.4496 H   0  0  0  0  0  0  0  0  0  0  0  0
   -0.1877    1.6049    2.2015 H   0  0  0  0  0  0  0  0  0  0  0  0
    0.1379    3.2205    1.6137 H   0  0  0  0  0  0  0  0  0  0  0  0
   -2.0286    1.3160    3.6641 H   0  0  0  0  0  0  0  0  0  0  0  0
   -4.0372    2.2206    4.7803 H   0  0  0  0  0  0  0  0  0  0  0  0
   -5.0186    4.3709    4.0324 H   0  0  0  0  0  0  0  0  0  0  0  0
   -3.9806    5.6201    2.1573 H   0  0  0  0  0  0  0  0  0  0  0  0
   -1.9675    4.7376    1.0385 H   0  0  0  0  0  0  0  0  0  0  0  0
    0.0127   -2.6545   -1.2750 H   0  0  0  0  0  0  0  0  0  0  0  0
   -2.5108   -3.9597    0.3330 H   0  0  0  0  0  0  0  0  0  0  0  0
   -4.3813   -5.5407    0.2547 H   0  0  0  0  0  0  0  0  0  0  0  0
   -6.6759   -4.7554   -0.2663 H   0  0  0  0  0  0  0  0  0  0  0  0
   -7.0799   -2.3584   -0.7606 H   0  0  0  0  0  0  0  0  0  0  0  0
   -5.2226   -0.7590   -0.7628 H   0  0  0  0  0  0  0  0  0  0  0  0
   -4.3441   -0.0083    1.1648 H   0  0  0  0  0  0  0  0  0  0  0  0
  1  2  2  0
  2  3  1  0
  3  4  1  0
  4  5  1  0
  5  6  2  0
  6  7  1  0
  7  8  2  0
  8  9  1  0
  9 10  2  0
  3 11  1  0
 11 12  2  0
 12 13  1  0
 13 14  2  0
 14 15  1  0
 15 16  2  0
 16 17  1  0
 17 18  1  0
 18 19  1  0
 19 20  1  0
 20 21  1  0
 21 22  2  0
 22 23  1  0
 23 24  2  0
 24 25  1  0
 25 26  2  0
 19 27  1  0
 27 28  1  0
 28 29  2  0
 29 30  1  0
 29 31  1  0
 31 32  1  0
 32 33  2  0
 33 34  1  0
 34 35  2  0
 35 36  1  0
 36 37  2  0
 31 38  1  0
 38 39  1  0
 17  2  1  0
 26 21  1  0
 38 27  2  0
 10  5  1  0
 16 11  1  0
 28 17  1  0
 37 32  1  0
  4 40  1  0
  4 41  1  0
  6 42  1  0
  7 43  1  0
  8 44  1  0
  9 45  1  0
 10 46  1  0
 12 47  1  0
 13 48  1  0
 14 49  1  0
 15 50  1  0
 18 51  1  0
 19 52  1  6
 20 53  1  0
 20 54  1  0
 22 55  1  0
 23 56  1  0
 24 57  1  0
 25 58  1  0
 26 59  1  0
 30 60  1  0
 33 61  1  0
 34 62  1  0
 35 63  1  0
 36 64  1  0
 37 65  1  0
 39 66  1  0
M  END
$$$$
