
     RDKit          3D

 53 57  0  0  0  0  0  0  0  0999 V2000
    8.2731    1.1670   -0.2129 C   0  0  0  0  0  0  0  0  0  0  0  0
    7.2852    1.4238    0.7768 O   0  0  0  0  0  0  0  0  0  0  0  0
    6.0016    1.0657    0.4750 C   0  0  0  0  0  0  0  0  0  0  0  0
    5.5548    0.5505   -0.7376 C   0  0  0  0  0  0  0  0  0  0  0  0
    4.2017    0.2222   -0.9148 C   0  0  0  0  0  0  0  0  0  0  0  0
    3.2681    0.4063    0.1191 C   0  0  0  0  0  0  0  0  0  0  0  0
    1.8855    0.0586   -0.0745 N   0  0  0  0  0  0  0  0  0  0  0  0
    1.3957   -0.6579   -1.1557 C   0  0  0  0  0  0  0  0  0  0  0  0
    0.0366   -0.8366   -1.0180 C   0  0  0  0  0  0  0  0  0  0  0  0
   -0.7376   -1.5843   -1.9866 C   0  0  0  0  0  0  0  0  0  0  0  0
   -1.2609   -2.8376   -1.6474 C   0  0  0  0  0  0  0  0  0  0  0  0
   -2.0230   -3.5506   -2.5740 C   0  0  0  0  0  0  0  0  0  0  0  0
   -2.2637   -3.0149   -3.8389 C   0  0  0  0  0  0  0  0  0  0  0  0
   -1.7449   -1.7652   -4.1806 C   0  0  0  0  0  0  0  0  0  0  0  0
   -0.9810   -1.0500   -3.2570 C   0  0  0  0  0  0  0  0  0  0  0  0
   -0.3617   -0.1914    0.1847 C   0  0  0  0  0  0  0  0  0  0  0  0
   -1.5837    0.0106    0.8686 C   0  0  0  0  0  0  0  0  0  0  0  0
   -2.8072   -0.4973    0.3747 N   0  0  0  0  0  0  0  0  0  0  0  0
   -4.0795   -0.0778    0.8089 N   0  0  0  0  0  0  0  0  0  0  0  0
   -4.3675   -0.4227    2.2109 C   0  0  0  0  0  0  0  0  0  0  0  0
   -4.6776    0.8029    3.0858 C   0  0  0  0  0  0  0  0  0  0  0  0
   -5.7315    1.6209    2.5584 O   0  0  0  0  0  0  0  0  0  0  0  0
   -5.6969    1.7368    1.1288 C   0  0  0  0  0  0  0  0  0  0  0  0
   -4.3587    1.3297    0.4949 C   0  0  0  0  0  0  0  0  0  0  0  0
   -1.5453    0.7080    2.0329 N   0  0  0  0  0  0  0  0  0  0  0  0
   -0.3735    1.1850    2.4700 C   0  0  0  0  0  0  0  0  0  0  0  0
    0.8252    1.0596    1.8962 N   0  0  0  0  0  0  0  0  0  0  0  0
    0.7932    0.3510    0.7501 C   0  0  0  0  0  0  0  0  0  0  0  0
    3.7305    0.9245    1.3343 C   0  0  0  0  0  0  0  0  0  0  0  0
    5.0821    1.2517    1.5049 C   0  0  0  0  0  0  0  0  0  0  0  0
    9.2427    1.4651    0.1975 H   0  0  0  0  0  0  0  0  0  0  0  0
    8.0933    1.7656   -1.1116 H   0  0  0  0  0  0  0  0  0  0  0  0
    8.3267    0.0998   -0.4505 H   0  0  0  0  0  0  0  0  0  0  0  0
    6.2279    0.4005   -1.5758 H   0  0  0  0  0  0  0  0  0  0  0  0
    3.9179   -0.1548   -1.8922 H   0  0  0  0  0  0  0  0  0  0  0  0
    2.0480   -1.0297   -1.9320 H   0  0  0  0  0  0  0  0  0  0  0  0
   -1.0805   -3.2654   -0.6632 H   0  0  0  0  0  0  0  0  0  0  0  0
   -2.4288   -4.5238   -2.3098 H   0  0  0  0  0  0  0  0  0  0  0  0
   -2.8585   -3.5714   -4.5592 H   0  0  0  0  0  0  0  0  0  0  0  0
   -1.9382   -1.3473   -5.1661 H   0  0  0  0  0  0  0  0  0  0  0  0
   -0.5862   -0.0741   -3.5321 H   0  0  0  0  0  0  0  0  0  0  0  0
   -2.7508   -0.8033   -0.5947 H   0  0  0  0  0  0  0  0  0  0  0  0
   -3.5747   -1.0224    2.6747 H   0  0  0  0  0  0  0  0  0  0  0  0
   -5.2612   -1.0594    2.1938 H   0  0  0  0  0  0  0  0  0  0  0  0
   -4.9904    0.4753    4.0827 H   0  0  0  0  0  0  0  0  0  0  0  0
   -3.7940    1.4350    3.2226 H   0  0  0  0  0  0  0  0  0  0  0  0
   -5.9292    2.7769    0.8789 H   0  0  0  0  0  0  0  0  0  0  0  0
   -6.5115    1.1217    0.7294 H   0  0  0  0  0  0  0  0  0  0  0  0
   -4.4144    1.4620   -0.5921 H   0  0  0  0  0  0  0  0  0  0  0  0
   -3.5728    1.9955    0.8707 H   0  0  0  0  0  0  0  0  0  0  0  0
   -0.4037    1.7393    3.4025 H   0  0  0  0  0  0  0  0  0  0  0  0
    3.0820    1.0749    2.1903 H   0  0  0  0  0  0  0  0  0  0  0  0
    5.4173    1.6518    2.4592 H   0  0  0  0  0  0  0  0  0  0  0  0
  1  2  1  0
  2  3  1  0
  3  4  2  0
  4  5  1  0
  5  6  2  0
  6  7  1  0
  7  8  1  0
  8  9  2  0
  9 10  1  0
 10 11  2  0
 11 12  1  0
 12 13  2  0
 13 14  1  0
 14 15  2  0
  9 16  1  0
 16 17  2  0
 17 18  1  0
 18 19  1  0
 19 20  1  0
 20 21  1  0
 21 22  1  0
 22 23  1  0
 23 24  1  0
 17 25  1  0
 25 26  2  0
 26 27  1  0
 27 28  2  0
  6 29  1  0
 29 30  2  0
 30  3  1  0
 28  7  1  0
 15 10  1  0
 28 16  1  0
 24 19  1  0
  1 31  1  0
  1 32  1  0
  1 33  1  0
  4 34  1  0
  5 35  1  0
  8 36  1  0
 11 37  1  0
 12 38  1  0
 13 39  1  0
 14 40  1  0
 15 41  1  0
 18 42  1  0
 20 43  1  0
 20 44  1  0
 21 45  1  0
 21 46  1  0
 23 47  1  0
 23 48  1  0
 24 49  1  0
 24 50  1  0
 26 51  1  0
 29 52  1  0
 30 53  1  0
M  END
$$$$
