
     RDKit          3D

 51 54  0  0  0  0  0  0  0  0999 V2000
   -6.3266   -0.8185   -2.0724 C   0  0  0  0  0  0  0  0  0  0  0  0
   -6.1006   -1.4564   -0.7007 C   0  0  0  0  0  0  0  0  0  0  0  0
   -6.0439   -2.9842   -0.7980 C   0  0  0  0  0  0  0  0  0  0  0  0
   -4.9114   -0.8978   -0.0524 N   0  0  0  0  0  0  0  0  0  0  0  0
   -3.6256   -1.0838   -0.4961 C   0  0  0  0  0  0  0  0  0  0  0  0
   -2.7622   -0.3615    0.3094 C   0  0  0  0  0  0  0  0  0  0  0  0
   -1.3239   -0.3334    0.1025 C   0  0  0  0  0  0  0  0  0  0  0  0
   -0.5876    0.4266    0.8488 N   0  0  0  0  0  0  0  0  0  0  0  0
    0.7705    0.4941    0.6555 N   0  0  0  0  0  0  0  0  0  0  0  0
    1.4839    0.1209   -0.4881 C   0  0  0  0  0  0  0  0  0  0  0  0
    1.0105   -0.4158   -1.4876 O   0  0  0  0  0  0  0  0  0  0  0  0
    2.9676    0.4836   -0.3526 C   0  0  0  0  0  0  0  0  0  0  0  0
    3.7254   -0.0408   -1.4404 O   0  0  0  0  0  0  0  0  0  0  0  0
    5.0675   -0.1855   -1.1612 C   0  0  0  0  0  0  0  0  0  0  0  0
    5.5859   -1.4468   -1.5091 C   0  0  0  0  0  0  0  0  0  0  0  0
    6.9318   -1.7209   -1.3164 C   0  0  0  0  0  0  0  0  0  0  0  0
    7.7685   -0.7280   -0.8096 C   0  0  0  0  0  0  0  0  0  0  0  0
    7.2609    0.5434   -0.4835 C   0  0  0  0  0  0  0  0  0  0  0  0
    8.1152    1.5492   -0.0045 C   0  0  0  0  0  0  0  0  0  0  0  0
    7.6131    2.8124    0.2806 C   0  0  0  0  0  0  0  0  0  0  0  0
    6.2612    3.0256    0.0938 C   0  0  0  0  0  0  0  0  0  0  0  0
    5.4048    2.0718   -0.3446 N   0  0  0  0  0  0  0  0  0  0  0  0
    5.8862    0.8415   -0.6496 C   0  0  0  0  0  0  0  0  0  0  0  0
   -3.5708    0.2906    1.2957 C   0  0  0  0  0  0  0  0  0  0  0  0
   -3.2895    1.1596    2.3775 C   0  0  0  0  0  0  0  0  0  0  0  0
   -4.3269    1.6362    3.1843 C   0  0  0  0  0  0  0  0  0  0  0  0
   -5.6415    1.2586    2.9314 C   0  0  0  0  0  0  0  0  0  0  0  0
   -5.9543    0.4050    1.8655 C   0  0  0  0  0  0  0  0  0  0  0  0
   -4.9063   -0.0705    1.0566 C   0  0  0  0  0  0  0  0  0  0  0  0
   -5.5421   -1.1070   -2.7855 H   0  0  0  0  0  0  0  0  0  0  0  0
   -6.3229    0.2771   -2.0114 H   0  0  0  0  0  0  0  0  0  0  0  0
   -7.2894   -1.1313   -2.4907 H   0  0  0  0  0  0  0  0  0  0  0  0
   -6.9633   -1.2065   -0.0714 H   0  0  0  0  0  0  0  0  0  0  0  0
   -5.9141   -3.4304    0.1899 H   0  0  0  0  0  0  0  0  0  0  0  0
   -5.2197   -3.3232   -1.4323 H   0  0  0  0  0  0  0  0  0  0  0  0
   -6.9733   -3.3751   -1.2267 H   0  0  0  0  0  0  0  0  0  0  0  0
   -3.4202   -1.7005   -1.3628 H   0  0  0  0  0  0  0  0  0  0  0  0
   -0.9474   -0.9976   -0.6904 H   0  0  0  0  0  0  0  0  0  0  0  0
    1.2267    1.1216    1.3142 H   0  0  0  0  0  0  0  0  0  0  0  0
    3.0168    1.5778   -0.3513 H   0  0  0  0  0  0  0  0  0  0  0  0
    3.3238    0.0799    0.6074 H   0  0  0  0  0  0  0  0  0  0  0  0
    4.9209   -2.2149   -1.9191 H   0  0  0  0  0  0  0  0  0  0  0  0
    7.3318   -2.6950   -1.5747 H   0  0  0  0  0  0  0  0  0  0  0  0
    8.8279   -0.9511   -0.6817 H   0  0  0  0  0  0  0  0  0  0  0  0
    9.1792    1.3593    0.1279 H   0  0  0  0  0  0  0  0  0  0  0  0
    8.2606    3.6139    0.6271 H   0  0  0  0  0  0  0  0  0  0  0  0
    5.8118    4.0002    0.2820 H   0  0  0  0  0  0  0  0  0  0  0  0
   -2.2651    1.4635    2.5850 H   0  0  0  0  0  0  0  0  0  0  0  0
   -4.0966    2.3042    4.0132 H   0  0  0  0  0  0  0  0  0  0  0  0
   -6.4395    1.6334    3.5686 H   0  0  0  0  0  0  0  0  0  0  0  0
   -6.9880    0.1264    1.6827 H   0  0  0  0  0  0  0  0  0  0  0  0
  1  2  1  0
  2  3  1  0
  2  4  1  0
  4  5  1  0
  5  6  2  0
  6  7  1  0
  7  8  2  3
  8  9  1  0
  9 10  1  0
 10 11  2  0
 10 12  1  0
 12 13  1  0
 13 14  1  0
 14 15  2  0
 15 16  1  0
 16 17  2  0
 17 18  1  0
 18 19  2  0
 19 20  1  0
 20 21  2  0
 21 22  1  0
 22 23  2  0
  6 24  1  0
 24 25  2  0
 25 26  1  0
 26 27  2  0
 27 28  1  0
 28 29  2  0
 29  4  1  0
 23 14  1  0
 29 24  1  0
 23 18  1  0
  1 30  1  0
  1 31  1  0
  1 32  1  0
  2 33  1  0
  3 34  1  0
  3 35  1  0
  3 36  1  0
  5 37  1  0
  7 38  1  0
  9 39  1  0
 12 40  1  0
 12 41  1  0
 15 42  1  0
 16 43  1  0
 17 44  1  0
 19 45  1  0
 20 46  1  0
 21 47  1  0
 25 48  1  0
 26 49  1  0
 27 50  1  0
 28 51  1  0
M  END
$$$$
