
     RDKit          3D

 63 68  0  0  0  0  0  0  0  0999 V2000
   -1.8749    3.6962    4.5458 C   0  0  0  0  0  0  0  0  0  0  0  0
   -1.8812    2.2823    4.4031 O   0  0  0  0  0  0  0  0  0  0  0  0
   -1.8589    1.7900    3.1272 C   0  0  0  0  0  0  0  0  0  0  0  0
   -1.8155    0.3974    3.0381 C   0  0  0  0  0  0  0  0  0  0  0  0
   -1.7943   -0.2396    1.7944 C   0  0  0  0  0  0  0  0  0  0  0  0
   -1.8267    0.5102    0.6083 C   0  0  0  0  0  0  0  0  0  0  0  0
   -1.8174   -0.1602   -0.7690 C   0  0  0  0  0  0  0  0  0  0  0  0
   -2.9700   -1.1387   -0.9171 C   0  0  0  0  0  0  0  0  0  0  0  0
   -4.2920   -0.6842   -0.9937 C   0  0  0  0  0  0  0  0  0  0  0  0
   -5.3451   -1.5941   -1.0889 C   0  0  0  0  0  0  0  0  0  0  0  0
   -5.1042   -2.9762   -1.1050 C   0  0  0  0  0  0  0  0  0  0  0  0
   -6.1681   -3.8894   -1.1940 C   0  0  0  0  0  0  0  0  0  0  0  0
   -5.9333   -5.2645   -1.2093 C   0  0  0  0  0  0  0  0  0  0  0  0
   -4.6316   -5.7455   -1.1360 C   0  0  0  0  0  0  0  0  0  0  0  0
   -3.5637   -4.8508   -1.0475 C   0  0  0  0  0  0  0  0  0  0  0  0
   -3.7747   -3.4549   -1.0296 C   0  0  0  0  0  0  0  0  0  0  0  0
   -2.7190   -2.5167   -0.9434 C   0  0  0  0  0  0  0  0  0  0  0  0
   -1.4317   -3.0110   -0.8729 O   0  0  0  0  0  0  0  0  0  0  0  0
   -0.3511   -2.1605   -1.0934 C   0  0  0  0  0  0  0  0  0  0  0  0
    0.8485   -2.8122   -1.3095 N   0  0  0  0  0  0  0  0  0  0  0  0
    1.8754   -2.0632   -1.5419 C   0  0  0  0  0  0  0  0  0  0  0  0
    1.8837   -0.6882   -1.6129 N   0  0  0  0  0  0  0  0  0  0  0  0
    3.1617   -0.0057   -1.8280 C   0  0  0  0  0  0  0  0  0  0  0  0
    3.7489    0.4794   -0.4857 C   0  0  0  0  0  0  0  0  0  0  0  0
    5.0945    1.0692   -0.6109 N   0  0  0  0  0  0  0  0  0  0  0  0
    5.6960    1.3387    0.7177 C   0  0  0  0  0  0  0  0  0  0  0  0
    5.5699    2.8044    1.1616 C   0  0  0  0  0  0  0  0  0  0  0  0
    6.1959    3.7240    0.2557 O   0  0  0  0  0  0  0  0  0  0  0  0
    6.2652    3.2323   -1.0887 C   0  0  0  0  0  0  0  0  0  0  0  0
    5.0925    2.3011   -1.4343 C   0  0  0  0  0  0  0  0  0  0  0  0
    0.6994    0.0029   -1.4007 C   0  0  0  0  0  0  0  0  0  0  0  0
    0.5511    1.2894   -1.4859 N   0  0  0  0  0  0  0  0  0  0  0  0
   -0.5036   -0.8204   -1.0664 C   0  0  0  0  0  0  0  0  0  0  0  0
   -1.8611    1.9100    0.7079 C   0  0  0  0  0  0  0  0  0  0  0  0
   -1.8774    2.5450    1.9556 C   0  0  0  0  0  0  0  0  0  0  0  0
   -1.8985    3.9243    5.6156 H   0  0  0  0  0  0  0  0  0  0  0  0
   -2.7626    4.1462    4.0910 H   0  0  0  0  0  0  0  0  0  0  0  0
   -0.9570    4.1267    4.1347 H   0  0  0  0  0  0  0  0  0  0  0  0
   -1.7979   -0.1995    3.9469 H   0  0  0  0  0  0  0  0  0  0  0  0
   -1.7603   -1.3268    1.7634 H   0  0  0  0  0  0  0  0  0  0  0  0
   -1.9861    0.6039   -1.5419 H   0  0  0  0  0  0  0  0  0  0  0  0
   -4.5087    0.3816   -0.9654 H   0  0  0  0  0  0  0  0  0  0  0  0
   -6.3625   -1.2127   -1.1425 H   0  0  0  0  0  0  0  0  0  0  0  0
   -7.1942   -3.5337   -1.2522 H   0  0  0  0  0  0  0  0  0  0  0  0
   -6.7672   -5.9581   -1.2787 H   0  0  0  0  0  0  0  0  0  0  0  0
   -4.4426   -6.8155   -1.1477 H   0  0  0  0  0  0  0  0  0  0  0  0
   -2.5527   -5.2509   -0.9922 H   0  0  0  0  0  0  0  0  0  0  0  0
    2.8588   -2.5342   -1.7080 H   0  0  0  0  0  0  0  0  0  0  0  0
    3.8775   -0.6826   -2.3127 H   0  0  0  0  0  0  0  0  0  0  0  0
    3.0305    0.8250   -2.5303 H   0  0  0  0  0  0  0  0  0  0  0  0
    3.0623    1.1864   -0.0026 H   0  0  0  0  0  0  0  0  0  0  0  0
    3.8094   -0.3947    0.1764 H   0  0  0  0  0  0  0  0  0  0  0  0
    6.7625    1.0952    0.6369 H   0  0  0  0  0  0  0  0  0  0  0  0
    5.2902    0.6747    1.4891 H   0  0  0  0  0  0  0  0  0  0  0  0
    4.5159    3.0893    1.2605 H   0  0  0  0  0  0  0  0  0  0  0  0
    6.0374    2.9433    2.1418 H   0  0  0  0  0  0  0  0  0  0  0  0
    7.2255    2.7208   -1.2203 H   0  0  0  0  0  0  0  0  0  0  0  0
    6.2660    4.1010   -1.7553 H   0  0  0  0  0  0  0  0  0  0  0  0
    4.1598    2.8595   -1.2811 H   0  0  0  0  0  0  0  0  0  0  0  0
    5.1523    2.0237   -2.4916 H   0  0  0  0  0  0  0  0  0  0  0  0
    1.4186    1.7617   -1.7284 H   0  0  0  0  0  0  0  0  0  0  0  0
   -1.8614    2.5199   -0.1936 H   0  0  0  0  0  0  0  0  0  0  0  0
   -1.9019    3.6289    1.9728 H   0  0  0  0  0  0  0  0  0  0  0  0
  1  2  1  0
  2  3  1  0
  3  4  2  0
  4  5  1  0
  5  6  2  0
  6  7  1  0
  7  8  1  0
  8  9  2  0
  9 10  1  0
 10 11  2  0
 11 12  1  0
 12 13  2  0
 13 14  1  0
 14 15  2  0
 15 16  1  0
 16 17  2  0
 17 18  1  0
 18 19  1  0
 19 20  1  0
 20 21  2  0
 21 22  1  0
 22 23  1  0
 23 24  1  0
 24 25  1  0
 25 26  1  0
 26 27  1  0
 27 28  1  0
 28 29  1  0
 29 30  1  0
 22 31  1  0
 31 32  2  3
 31 33  1  0
  6 34  1  0
 34 35  2  0
 35  3  1  0
 33  7  1  0
 17  8  1  0
 33 19  2  0
 16 11  1  0
 30 25  1  0
  1 36  1  0
  1 37  1  0
  1 38  1  0
  4 39  1  0
  5 40  1  0
  7 41  1  0
  9 42  1  0
 10 43  1  0
 12 44  1  0
 13 45  1  0
 14 46  1  0
 15 47  1  0
 21 48  1  0
 23 49  1  0
 23 50  1  0
 24 51  1  0
 24 52  1  0
 26 53  1  0
 26 54  1  0
 27 55  1  0
 27 56  1  0
 29 57  1  0
 29 58  1  0
 30 59  1  0
 30 60  1  0
 32 61  1  0
 34 62  1  0
 35 63  1  0
M  END
$$$$
