
     RDKit          3D

 55 58  0  0  0  0  0  0  0  0999 V2000
   -0.6653   -3.3076    2.4921 C   0  0  0  0  0  0  0  0  0  0  0  0
   -1.3099   -2.9923    1.2195 N   0  0  0  0  0  0  0  0  0  0  0  0
   -1.3929   -4.0979    0.2631 C   0  0  0  0  0  0  0  0  0  0  0  0
   -1.2457   -1.6926    0.7090 C   0  0  0  0  0  0  0  0  0  0  0  0
   -1.8745   -1.3457   -0.4985 C   0  0  0  0  0  0  0  0  0  0  0  0
   -1.8339   -0.0435   -1.0176 C   0  0  0  0  0  0  0  0  0  0  0  0
   -1.1585    0.9738   -0.3446 C   0  0  0  0  0  0  0  0  0  0  0  0
   -1.1311    2.2734   -0.8778 N   0  0  0  0  0  0  0  0  0  0  0  0
    0.0390    3.0359   -0.8749 C   0  0  0  0  0  0  0  0  0  0  0  0
    1.2551    2.7981   -1.2142 N   0  0  0  0  0  0  0  0  0  0  0  0
    1.4836    1.6036   -1.8467 C   0  0  0  0  0  0  0  0  0  0  0  0
    0.9576    1.2868   -2.9093 O   0  0  0  0  0  0  0  0  0  0  0  0
    2.5176    0.7393   -1.1569 C   0  0  0  0  0  0  0  0  0  0  0  0
    2.4608   -0.6976   -1.6672 C   0  0  0  0  0  0  0  0  0  0  0  0
    3.3609   -1.6111   -0.8728 C   0  0  0  0  0  0  0  0  0  0  0  0
    4.7484   -1.5892   -1.0658 C   0  0  0  0  0  0  0  0  0  0  0  0
    5.5790   -2.4257   -0.3184 C   0  0  0  0  0  0  0  0  0  0  0  0
    5.0310   -3.2900    0.6277 C   0  0  0  0  0  0  0  0  0  0  0  0
    3.6521   -3.3195    0.8270 C   0  0  0  0  0  0  0  0  0  0  0  0
    2.8204   -2.4834    0.0809 C   0  0  0  0  0  0  0  0  0  0  0  0
   -0.2907    4.6878   -0.2482 S   0  0  0  0  0  0  0  0  0  0  0  0
   -1.9031    4.1612    0.3700 C   0  0  0  0  0  0  0  0  0  0  0  0
   -3.0569    5.1330    0.4318 C   0  0  0  0  0  0  0  0  0  0  0  0
   -4.4739    4.0196    0.4339 S   0  0  0  0  0  6  0  0  0  0  0  0
   -5.3770    4.4286   -0.6200 O   0  0  0  0  0  0  0  0  0  0  0  0
   -4.9099    3.8330    1.8009 O   0  0  0  0  0  0  0  0  0  0  0  0
   -3.6105    2.5311   -0.0977 C   0  0  0  0  0  0  0  0  0  0  0  0
   -2.3236    3.1037   -0.6546 C   0  0  0  0  0  0  0  0  0  0  0  0
   -0.5309    0.6530    0.8608 C   0  0  0  0  0  0  0  0  0  0  0  0
   -0.5856   -0.6499    1.3776 C   0  0  0  0  0  0  0  0  0  0  0  0
   -1.0064   -2.6366    3.2882 H   0  0  0  0  0  0  0  0  0  0  0  0
    0.4251   -3.2518    2.4071 H   0  0  0  0  0  0  0  0  0  0  0  0
   -0.9246   -4.3206    2.8199 H   0  0  0  0  0  0  0  0  0  0  0  0
   -2.3597   -4.1061   -0.2505 H   0  0  0  0  0  0  0  0  0  0  0  0
   -0.5853   -4.0418   -0.4755 H   0  0  0  0  0  0  0  0  0  0  0  0
   -1.3084   -5.0674    0.7671 H   0  0  0  0  0  0  0  0  0  0  0  0
   -2.4287   -2.0863   -1.0683 H   0  0  0  0  0  0  0  0  0  0  0  0
   -2.3184    0.1584   -1.9706 H   0  0  0  0  0  0  0  0  0  0  0  0
    2.3325    0.7651   -0.0768 H   0  0  0  0  0  0  0  0  0  0  0  0
    3.5049    1.1794   -1.3379 H   0  0  0  0  0  0  0  0  0  0  0  0
    1.4301   -1.0733   -1.6313 H   0  0  0  0  0  0  0  0  0  0  0  0
    2.7525   -0.7396   -2.7247 H   0  0  0  0  0  0  0  0  0  0  0  0
    5.1903   -0.9217   -1.8023 H   0  0  0  0  0  0  0  0  0  0  0  0
    6.6541   -2.4036   -0.4760 H   0  0  0  0  0  0  0  0  0  0  0  0
    5.6789   -3.9419    1.2075 H   0  0  0  0  0  0  0  0  0  0  0  0
    3.2238   -3.9953    1.5620 H   0  0  0  0  0  0  0  0  0  0  0  0
    1.7458   -2.5189    0.2443 H   0  0  0  0  0  0  0  0  0  0  0  0
   -1.7434    3.7036    1.3559 H   0  0  0  0  0  0  0  0  0  0  0  0
   -3.1286    5.7686   -0.4555 H   0  0  0  0  0  0  0  0  0  0  0  0
   -3.0636    5.7378    1.3407 H   0  0  0  0  0  0  0  0  0  0  0  0
   -3.4667    1.9025    0.7854 H   0  0  0  0  0  0  0  0  0  0  0  0
   -4.2099    2.0080   -0.8457 H   0  0  0  0  0  0  0  0  0  0  0  0
   -2.5609    3.5823   -1.6187 H   0  0  0  0  0  0  0  0  0  0  0  0
    0.0091    1.4091    1.4264 H   0  0  0  0  0  0  0  0  0  0  0  0
   -0.0740   -0.8257    2.3197 H   0  0  0  0  0  0  0  0  0  0  0  0
  1  2  1  0
  2  3  1  0
  2  4  1  0
  4  5  2  0
  5  6  1  0
  6  7  2  0
  7  8  1  0
  8  9  1  0
  9 10  2  3
 10 11  1  0
 11 12  2  0
 11 13  1  0
 13 14  1  0
 14 15  1  0
 15 16  2  0
 16 17  1  0
 17 18  2  0
 18 19  1  0
 19 20  2  0
  9 21  1  0
 21 22  1  0
 22 23  1  0
 23 24  1  0
 24 25  2  0
 24 26  2  0
 24 27  1  0
 27 28  1  0
  7 29  1  0
 29 30  2  0
 30  4  1  0
 28  8  1  0
 20 15  1  0
 28 22  1  0
  1 31  1  0
  1 32  1  0
  1 33  1  0
  3 34  1  0
  3 35  1  0
  3 36  1  0
  5 37  1  0
  6 38  1  0
 13 39  1  0
 13 40  1  0
 14 41  1  0
 14 42  1  0
 16 43  1  0
 17 44  1  0
 18 45  1  0
 19 46  1  0
 20 47  1  0
 22 48  1  0
 23 49  1  0
 23 50  1  0
 27 51  1  0
 27 52  1  0
 28 53  1  0
 29 54  1  0
 30 55  1  0
M  END
$$$$
