
     RDKit          3D

 55 58  0  0  0  0  0  0  0  0999 V2000
    1.0982    0.4762    3.4807 C   0  0  0  0  0  0  0  0  0  0  0  0
    0.0075    0.3760    2.5581 O   0  0  0  0  0  0  0  0  0  0  0  0
   -0.9720    1.2975    2.7586 C   0  0  0  0  0  0  0  0  0  0  0  0
   -0.9434    2.1789    3.6052 O   0  0  0  0  0  0  0  0  0  0  0  0
   -2.1198    1.0933    1.8278 C   0  0  0  0  0  0  0  0  0  0  0  0
   -3.3315    1.6847    2.2340 C   0  0  0  0  0  0  0  0  0  0  0  0
   -4.4640    1.6120    1.4288 C   0  0  0  0  0  0  0  0  0  0  0  0
   -5.5928    2.2215    1.9046 O   0  0  0  0  0  0  0  0  0  0  0  0
   -6.0434    3.2585    1.0309 C   0  0  0  0  0  0  0  0  0  0  0  0
   -4.4098    0.8968    0.2337 C   0  0  0  0  0  0  0  0  0  0  0  0
   -5.4969    0.7461   -0.5873 O   0  0  0  0  0  0  0  0  0  0  0  0
   -6.4012   -0.2174   -0.0427 C   0  0  0  0  0  0  0  0  0  0  0  0
   -3.2041    0.3323   -0.1965 C   0  0  0  0  0  0  0  0  0  0  0  0
   -2.0467    0.4102    0.5897 C   0  0  0  0  0  0  0  0  0  0  0  0
   -0.8190   -0.1554    0.1632 N   0  0  0  0  0  0  0  0  0  0  0  0
   -0.5489   -0.8531   -0.9993 C   0  0  0  0  0  0  0  0  0  0  0  0
   -1.3424   -1.1760   -1.8717 O   0  0  0  0  0  0  0  0  0  0  0  0
    0.8846   -1.2135   -1.1643 C   0  0  0  0  0  0  0  0  0  0  0  0
    1.8232   -0.1860   -1.0301 C   0  0  0  0  0  0  0  0  0  0  0  0
    3.1617   -0.4877   -1.2041 C   0  0  0  0  0  0  0  0  0  0  0  0
    4.2202    0.5265   -1.0638 C   0  0  0  0  0  0  0  0  0  0  0  0
    4.2462    1.4197    0.0266 C   0  0  0  0  0  0  0  0  0  0  0  0
    5.2523    2.3846    0.1482 C   0  0  0  0  0  0  0  0  0  0  0  0
    6.2495    2.4763   -0.8210 C   0  0  0  0  0  0  0  0  0  0  0  0
    6.2493    1.5979   -1.9054 C   0  0  0  0  0  0  0  0  0  0  0  0
    5.2464    0.6290   -2.0215 C   0  0  0  0  0  0  0  0  0  0  0  0
    3.5751   -1.7374   -1.5163 N   0  0  0  0  0  0  0  0  0  0  0  0
    2.6727   -2.7243   -1.6553 C   0  0  0  0  0  0  0  0  0  0  0  0
    3.1365   -3.9933   -1.9762 C   0  0  0  0  0  0  0  0  0  0  0  0
    2.2729   -5.0812   -2.1324 C   0  0  0  0  0  0  0  0  0  0  0  0
    0.9082   -4.9026   -1.9634 C   0  0  0  0  0  0  0  0  0  0  0  0
    0.4178   -3.6368   -1.6389 C   0  0  0  0  0  0  0  0  0  0  0  0
    1.2887   -2.5276   -1.4873 C   0  0  0  0  0  0  0  0  0  0  0  0
    1.6674    1.3888    3.2877 H   0  0  0  0  0  0  0  0  0  0  0  0
    0.7403    0.4519    4.5132 H   0  0  0  0  0  0  0  0  0  0  0  0
    1.7545   -0.3831    3.3237 H   0  0  0  0  0  0  0  0  0  0  0  0
   -3.3942    2.2170    3.1824 H   0  0  0  0  0  0  0  0  0  0  0  0
   -6.6713    3.9340    1.6178 H   0  0  0  0  0  0  0  0  0  0  0  0
   -6.6583    2.8515    0.2239 H   0  0  0  0  0  0  0  0  0  0  0  0
   -5.2139    3.8439    0.6219 H   0  0  0  0  0  0  0  0  0  0  0  0
   -5.8801   -1.1156    0.3109 H   0  0  0  0  0  0  0  0  0  0  0  0
   -7.0003    0.2211    0.7639 H   0  0  0  0  0  0  0  0  0  0  0  0
   -7.0847   -0.5183   -0.8425 H   0  0  0  0  0  0  0  0  0  0  0  0
   -3.2094   -0.1654   -1.1598 H   0  0  0  0  0  0  0  0  0  0  0  0
   -0.0579   -0.0731    0.8299 H   0  0  0  0  0  0  0  0  0  0  0  0
    1.5122    0.8343   -0.8341 H   0  0  0  0  0  0  0  0  0  0  0  0
    3.4909    1.3570    0.8078 H   0  0  0  0  0  0  0  0  0  0  0  0
    5.2602    3.0601    1.0022 H   0  0  0  0  0  0  0  0  0  0  0  0
    7.0316    3.2264   -0.7266 H   0  0  0  0  0  0  0  0  0  0  0  0
    7.0312    1.6613   -2.6600 H   0  0  0  0  0  0  0  0  0  0  0  0
    5.2623   -0.0540   -2.8732 H   0  0  0  0  0  0  0  0  0  0  0  0
    4.2063   -4.1417   -2.1094 H   0  0  0  0  0  0  0  0  0  0  0  0
    2.6712   -6.0614   -2.3884 H   0  0  0  0  0  0  0  0  0  0  0  0
    0.2249   -5.7397   -2.0865 H   0  0  0  0  0  0  0  0  0  0  0  0
   -0.6579   -3.5206   -1.5179 H   0  0  0  0  0  0  0  0  0  0  0  0
  1  2  1  0
  2  3  1  0
  3  4  2  0
  3  5  1  0
  5  6  2  0
  6  7  1  0
  7  8  1  0
  8  9  1  0
  7 10  2  0
 10 11  1  0
 11 12  1  0
 10 13  1  0
 13 14  2  0
 14 15  1  0
 15 16  1  0
 16 17  2  0
 16 18  1  0
 18 19  2  0
 19 20  1  0
 20 21  1  0
 21 22  2  0
 22 23  1  0
 23 24  2  0
 24 25  1  0
 25 26  2  0
 20 27  2  0
 27 28  1  0
 28 29  2  0
 29 30  1  0
 30 31  2  0
 31 32  1  0
 32 33  2  0
 14  5  1  0
 33 18  1  0
 26 21  1  0
 33 28  1  0
  1 34  1  0
  1 35  1  0
  1 36  1  0
  6 37  1  0
  9 38  1  0
  9 39  1  0
  9 40  1  0
 12 41  1  0
 12 42  1  0
 12 43  1  0
 13 44  1  0
 15 45  1  0
 19 46  1  0
 22 47  1  0
 23 48  1  0
 24 49  1  0
 25 50  1  0
 26 51  1  0
 29 52  1  0
 30 53  1  0
 31 54  1  0
 32 55  1  0
M  END
$$$$
