
     RDKit          3D

 51 53  0  0  0  0  0  0  0  0999 V2000
   -4.3339   -3.8069    2.0609 C   0  0  0  0  0  0  0  0  0  0  0  0
   -3.1419   -3.8429    1.2909 O   0  0  0  0  0  0  0  0  0  0  0  0
   -2.7018   -2.6642    0.7421 C   0  0  0  0  0  0  0  0  0  0  0  0
   -3.2696   -1.4123    0.9996 C   0  0  0  0  0  0  0  0  0  0  0  0
   -2.7449   -0.2510    0.4116 C   0  0  0  0  0  0  0  0  0  0  0  0
   -1.6543   -0.3414   -0.4685 C   0  0  0  0  0  0  0  0  0  0  0  0
   -1.0913   -1.6051   -0.7305 C   0  0  0  0  0  0  0  0  0  0  0  0
   -1.5950   -2.7598   -0.1226 C   0  0  0  0  0  0  0  0  0  0  0  0
   -1.0885   -4.0208   -0.3211 O   0  0  0  0  0  0  0  0  0  0  0  0
    0.1460   -4.1302   -1.0155 C   0  0  0  0  0  0  0  0  0  0  0  0
   -1.0573    0.9040   -1.1213 C   0  0  0  0  0  0  0  0  0  0  0  0
    0.3909    1.1932   -0.7171 C   0  0  0  0  0  0  0  0  0  0  0  0
    1.2782    1.7131   -1.6793 C   0  0  0  0  0  0  0  0  0  0  0  0
    2.6040    2.0044   -1.3511 C   0  0  0  0  0  0  0  0  0  0  0  0
    3.5349    2.4918   -2.2324 O   0  0  0  0  0  0  0  0  0  0  0  0
    3.0465    3.0705   -3.4345 C   0  0  0  0  0  0  0  0  0  0  0  0
    3.0520    1.7530   -0.0441 C   0  0  0  0  0  0  0  0  0  0  0  0
    4.3533    2.0703    0.2801 O   0  0  0  0  0  0  0  0  0  0  0  0
    5.1707    0.9038    0.2063 C   0  0  0  0  0  0  0  0  0  0  0  0
    2.1824    1.2600    0.9424 C   0  0  0  0  0  0  0  0  0  0  0  0
    2.7129    1.0880    2.1948 O   0  0  0  0  0  0  0  0  0  0  0  0
    1.8841    0.4968    3.1834 C   0  0  0  0  0  0  0  0  0  0  0  0
    0.8563    0.9879    0.5957 C   0  0  0  0  0  0  0  0  0  0  0  0
   -1.8936    2.1122   -0.9909 N   0  0  0  0  0  0  0  0  0  0  0  0
   -2.4621    2.2527    0.3477 C   0  0  0  0  0  0  0  0  0  0  0  0
   -3.3935    1.0843    0.6746 C   0  0  0  0  0  0  0  0  0  0  0  0
   -4.5699   -4.8331    2.3589 H   0  0  0  0  0  0  0  0  0  0  0  0
   -4.1943   -3.2192    2.9743 H   0  0  0  0  0  0  0  0  0  0  0  0
   -5.1768   -3.4305    1.4716 H   0  0  0  0  0  0  0  0  0  0  0  0
   -4.1246   -1.3095    1.6599 H   0  0  0  0  0  0  0  0  0  0  0  0
   -0.2512   -1.6585   -1.4169 H   0  0  0  0  0  0  0  0  0  0  0  0
    0.9290   -3.5313   -0.5394 H   0  0  0  0  0  0  0  0  0  0  0  0
    0.4598   -5.1761   -0.9735 H   0  0  0  0  0  0  0  0  0  0  0  0
    0.0271   -3.8610   -2.0685 H   0  0  0  0  0  0  0  0  0  0  0  0
   -1.0500    0.6780   -2.1977 H   0  0  0  0  0  0  0  0  0  0  0  0
    0.9094    1.8721   -2.6888 H   0  0  0  0  0  0  0  0  0  0  0  0
    3.8884    3.5560   -3.9378 H   0  0  0  0  0  0  0  0  0  0  0  0
    2.2908    3.8380   -3.2324 H   0  0  0  0  0  0  0  0  0  0  0  0
    2.6575    2.3013   -4.1077 H   0  0  0  0  0  0  0  0  0  0  0  0
    4.9909    0.2491    1.0645 H   0  0  0  0  0  0  0  0  0  0  0  0
    5.0182    0.3525   -0.7289 H   0  0  0  0  0  0  0  0  0  0  0  0
    6.2166    1.2245    0.2420 H   0  0  0  0  0  0  0  0  0  0  0  0
    1.5549   -0.5008    2.8781 H   0  0  0  0  0  0  0  0  0  0  0  0
    2.4783    0.3853    4.0958 H   0  0  0  0  0  0  0  0  0  0  0  0
    1.0319    1.1415    3.4188 H   0  0  0  0  0  0  0  0  0  0  0  0
    0.1588    0.6112    1.3378 H   0  0  0  0  0  0  0  0  0  0  0  0
   -1.3269    2.9294   -1.2106 H   0  0  0  0  0  0  0  0  0  0  0  0
   -3.0361    3.1853    0.3944 H   0  0  0  0  0  0  0  0  0  0  0  0
   -1.6704    2.3379    1.1006 H   0  0  0  0  0  0  0  0  0  0  0  0
   -4.3012    1.1513    0.0609 H   0  0  0  0  0  0  0  0  0  0  0  0
   -3.6949    1.1547    1.7260 H   0  0  0  0  0  0  0  0  0  0  0  0
  1  2  1  0
  2  3  1  0
  3  4  2  0
  4  5  1  0
  5  6  2  0
  6  7  1  0
  7  8  2  0
  8  9  1  0
  9 10  1  0
  6 11  1  0
 11 12  1  0
 12 13  2  0
 13 14  1  0
 14 15  1  0
 15 16  1  0
 14 17  2  0
 17 18  1  0
 18 19  1  0
 17 20  1  0
 20 21  1  0
 21 22  1  0
 20 23  2  0
 11 24  1  0
 24 25  1  0
 25 26  1  0
  8  3  1  0
 23 12  1  0
 26  5  1  0
  1 27  1  0
  1 28  1  0
  1 29  1  0
  4 30  1  0
  7 31  1  0
 10 32  1  0
 10 33  1  0
 10 34  1  0
 11 35  1  0
 13 36  1  0
 16 37  1  0
 16 38  1  0
 16 39  1  0
 19 40  1  0
 19 41  1  0
 19 42  1  0
 22 43  1  0
 22 44  1  0
 22 45  1  0
 23 46  1  0
 24 47  1  0
 25 48  1  0
 25 49  1  0
 26 50  1  0
 26 51  1  0
M  END
$$$$
