
     RDKit          3D

 45 48  0  0  0  0  0  0  0  0999 V2000
    1.0522   -2.1901   -1.2504 O   0  0  0  0  0  0  0  0  0  0  0  0
   -0.0953   -2.0603   -0.8336 C   0  0  0  0  0  0  0  0  0  0  0  0
   -0.7692   -0.8744   -0.8851 N   0  0  0  0  0  0  0  0  0  0  0  0
   -0.4587    0.0460   -0.0426 C   0  0  0  0  0  0  0  0  0  0  0  0
    0.4718   -0.0566    0.9450 N   0  0  0  0  0  0  0  0  0  0  0  0
    1.7127    0.0627    0.6082 C   0  0  0  0  0  0  0  0  0  0  0  0
    2.2934    0.2022   -0.6405 N   0  0  0  0  0  0  0  0  0  0  0  0
    3.6573    0.1136   -0.4194 C   0  0  0  0  0  0  0  0  0  0  0  0
    4.7117    0.1265   -1.3024 C   0  0  0  0  0  0  0  0  0  0  0  0
    6.0043    0.0740   -0.7682 C   0  0  0  0  0  0  0  0  0  0  0  0
    6.2089    0.0197    0.6248 C   0  0  0  0  0  0  0  0  0  0  0  0
    5.1238    0.0171    1.5045 C   0  0  0  0  0  0  0  0  0  0  0  0
    3.8648    0.0686    0.9479 C   0  0  0  0  0  0  0  0  0  0  0  0
    2.6647    0.0504    1.6417 O   0  0  0  0  0  0  0  0  0  0  0  0
   -1.1117    1.2500    0.0006 N   0  0  0  0  0  0  0  0  0  0  0  0
   -2.1391    1.6911   -0.8147 C   0  0  0  0  0  0  0  0  0  0  0  0
   -2.5339    1.1488   -1.8392 O   0  0  0  0  0  0  0  0  0  0  0  0
   -2.7497    2.9879   -0.4076 C   0  0  0  0  0  0  0  0  0  0  0  0
   -2.8957    3.3479    0.9393 C   0  0  0  0  0  0  0  0  0  0  0  0
   -3.4736    4.5750    1.2735 C   0  0  0  0  0  0  0  0  0  0  0  0
   -3.9135    5.4384    0.2698 C   0  0  0  0  0  0  0  0  0  0  0  0
   -3.7869    5.0756   -1.0706 C   0  0  0  0  0  0  0  0  0  0  0  0
   -3.2111    3.8504   -1.4100 C   0  0  0  0  0  0  0  0  0  0  0  0
   -0.8374   -3.2326   -0.2838 C   0  0  0  0  0  0  0  0  0  0  0  0
   -2.2081   -3.1580   -0.0018 C   0  0  0  0  0  0  0  0  0  0  0  0
   -2.8776   -4.2693    0.5151 C   0  0  0  0  0  0  0  0  0  0  0  0
   -2.1835   -5.4561    0.7508 C   0  0  0  0  0  0  0  0  0  0  0  0
   -0.8201   -5.5375    0.4683 C   0  0  0  0  0  0  0  0  0  0  0  0
   -0.1470   -4.4292   -0.0494 C   0  0  0  0  0  0  0  0  0  0  0  0
    1.9275   -0.4323   -1.3520 H   0  0  0  0  0  0  0  0  0  0  0  0
    4.5525    0.1796   -2.3736 H   0  0  0  0  0  0  0  0  0  0  0  0
    6.8631    0.0785   -1.4362 H   0  0  0  0  0  0  0  0  0  0  0  0
    7.2227   -0.0212    1.0172 H   0  0  0  0  0  0  0  0  0  0  0  0
    5.2640   -0.0286    2.5778 H   0  0  0  0  0  0  0  0  0  0  0  0
   -0.7864    1.8442    0.7456 H   0  0  0  0  0  0  0  0  0  0  0  0
   -2.5963    2.6779    1.7404 H   0  0  0  0  0  0  0  0  0  0  0  0
   -3.5924    4.8550    2.3177 H   0  0  0  0  0  0  0  0  0  0  0  0
   -4.3667    6.3914    0.5327 H   0  0  0  0  0  0  0  0  0  0  0  0
   -4.1409    5.7435   -1.8522 H   0  0  0  0  0  0  0  0  0  0  0  0
   -3.1214    3.5689   -2.4578 H   0  0  0  0  0  0  0  0  0  0  0  0
   -2.7653   -2.2433   -0.1923 H   0  0  0  0  0  0  0  0  0  0  0  0
   -3.9419   -4.2095    0.7291 H   0  0  0  0  0  0  0  0  0  0  0  0
   -2.7073   -6.3205    1.1518 H   0  0  0  0  0  0  0  0  0  0  0  0
   -0.2809   -6.4640    0.6495 H   0  0  0  0  0  0  0  0  0  0  0  0
    0.9164   -4.5014   -0.2679 H   0  0  0  0  0  0  0  0  0  0  0  0
  1  2  2  0
  2  3  1  0
  3  4  2  3
  4  5  1  0
  5  6  2  3
  6  7  1  0
  7  8  1  0
  8  9  2  0
  9 10  1  0
 10 11  2  0
 11 12  1  0
 12 13  2  0
 13 14  1  0
  4 15  1  0
 15 16  1  0
 16 17  2  0
 16 18  1  0
 18 19  2  0
 19 20  1  0
 20 21  2  0
 21 22  1  0
 22 23  2  0
  2 24  1  0
 24 25  2  0
 25 26  1  0
 26 27  2  0
 27 28  1  0
 28 29  2  0
 14  6  1  0
 23 18  1  0
 29 24  1  0
 13  8  1  0
  7 30  1  0
  9 31  1  0
 10 32  1  0
 11 33  1  0
 12 34  1  0
 15 35  1  0
 19 36  1  0
 20 37  1  0
 21 38  1  0
 22 39  1  0
 23 40  1  0
 25 41  1  0
 26 42  1  0
 27 43  1  0
 28 44  1  0
 29 45  1  0
M  END
$$$$
