
     RDKit          3D

 63 67  0  0  0  0  0  0  0  0999 V2000
   -1.3302    5.9539    2.5917 C   0  0  0  0  0  0  0  0  0  0  0  0
   -2.4605    5.5921    1.8085 O   0  0  0  0  0  0  0  0  0  0  0  0
   -2.6283    4.2609    1.5444 C   0  0  0  0  0  0  0  0  0  0  0  0
   -1.8049    3.2258    1.9858 C   0  0  0  0  0  0  0  0  0  0  0  0
   -2.0937    1.9003    1.6387 C   0  0  0  0  0  0  0  0  0  0  0  0
   -3.2073    1.5923    0.8468 C   0  0  0  0  0  0  0  0  0  0  0  0
   -3.4892    0.2012    0.4706 C   0  0  0  0  0  0  0  0  0  0  0  0
   -4.9430   -0.5126    1.0242 S   0  0  0  0  0  0  0  0  0  0  0  0
   -4.5973   -2.0190    0.2774 C   0  0  0  0  0  0  0  0  0  0  0  0
   -5.4000   -3.1772    0.2990 C   0  0  0  0  0  0  0  0  0  0  0  0
   -4.9753   -4.3277   -0.3723 C   0  0  0  0  0  0  0  0  0  0  0  0
   -5.8389   -5.3858   -0.2805 O   0  0  0  0  0  0  0  0  0  0  0  0
   -5.4775   -6.5761   -0.9694 C   0  0  0  0  0  0  0  0  0  0  0  0
   -3.7663   -4.3203   -1.0541 C   0  0  0  0  0  0  0  0  0  0  0  0
   -2.9697   -3.1674   -1.0713 C   0  0  0  0  0  0  0  0  0  0  0  0
   -3.3756   -1.9883   -0.3948 C   0  0  0  0  0  0  0  0  0  0  0  0
   -2.7347   -0.6965   -0.2706 C   0  0  0  0  0  0  0  0  0  0  0  0
   -1.4436   -0.3299   -0.8447 C   0  0  0  0  0  0  0  0  0  0  0  0
   -1.3631    0.6048   -1.8795 C   0  0  0  0  0  0  0  0  0  0  0  0
   -0.1193    0.9432   -2.4182 C   0  0  0  0  0  0  0  0  0  0  0  0
    1.0539    0.3539   -1.9384 C   0  0  0  0  0  0  0  0  0  0  0  0
    2.1942    0.7842   -2.5565 O   0  0  0  0  0  0  0  0  0  0  0  0
    3.4469    0.2103   -2.1695 C   0  0  0  0  0  0  0  0  0  0  0  0
    4.0387    0.9559   -0.9609 C   0  0  0  0  0  0  0  0  0  0  0  0
    5.3805    0.4859   -0.5683 N   0  0  0  0  0  0  0  0  0  0  0  0
    5.3385   -0.8587    0.0485 C   0  0  0  0  0  0  0  0  0  0  0  0
    6.7266   -1.2943    0.5477 C   0  0  0  0  0  0  0  0  0  0  0  0
    7.2560   -0.3569    1.4931 O   0  0  0  0  0  0  0  0  0  0  0  0
    7.3550    0.9399    0.8904 C   0  0  0  0  0  0  0  0  0  0  0  0
    5.9822    1.4287    0.4037 C   0  0  0  0  0  0  0  0  0  0  0  0
    0.9722   -0.5814   -0.9068 C   0  0  0  0  0  0  0  0  0  0  0  0
   -0.2717   -0.9234   -0.3631 C   0  0  0  0  0  0  0  0  0  0  0  0
   -4.0301    2.6360    0.4075 C   0  0  0  0  0  0  0  0  0  0  0  0
   -3.7407    3.9582    0.7565 C   0  0  0  0  0  0  0  0  0  0  0  0
   -1.3877    5.5157    3.5935 H   0  0  0  0  0  0  0  0  0  0  0  0
   -0.3970    5.6759    2.0907 H   0  0  0  0  0  0  0  0  0  0  0  0
   -1.3358    7.0423    2.7039 H   0  0  0  0  0  0  0  0  0  0  0  0
   -0.9306    3.4111    2.6003 H   0  0  0  0  0  0  0  0  0  0  0  0
   -1.4397    1.1072    1.9941 H   0  0  0  0  0  0  0  0  0  0  0  0
   -6.3473   -3.1780    0.8316 H   0  0  0  0  0  0  0  0  0  0  0  0
   -6.2715   -7.3112   -0.8059 H   0  0  0  0  0  0  0  0  0  0  0  0
   -4.5481   -6.9960   -0.5708 H   0  0  0  0  0  0  0  0  0  0  0  0
   -5.4028   -6.4012   -2.0477 H   0  0  0  0  0  0  0  0  0  0  0  0
   -3.4042   -5.1919   -1.5894 H   0  0  0  0  0  0  0  0  0  0  0  0
   -2.0292   -3.1802   -1.6178 H   0  0  0  0  0  0  0  0  0  0  0  0
   -2.2606    1.0767   -2.2720 H   0  0  0  0  0  0  0  0  0  0  0  0
   -0.0651    1.6752   -3.2208 H   0  0  0  0  0  0  0  0  0  0  0  0
    4.1200    0.3433   -3.0252 H   0  0  0  0  0  0  0  0  0  0  0  0
    3.3634   -0.8715   -2.0238 H   0  0  0  0  0  0  0  0  0  0  0  0
    4.0952    2.0163   -1.2429 H   0  0  0  0  0  0  0  0  0  0  0  0
    3.3470    0.9203   -0.1100 H   0  0  0  0  0  0  0  0  0  0  0  0
    4.6415   -0.8579    0.8967 H   0  0  0  0  0  0  0  0  0  0  0  0
    4.9905   -1.6019   -0.6759 H   0  0  0  0  0  0  0  0  0  0  0  0
    7.4311   -1.4073   -0.2850 H   0  0  0  0  0  0  0  0  0  0  0  0
    6.6501   -2.2632    1.0513 H   0  0  0  0  0  0  0  0  0  0  0  0
    8.0801    0.9039    0.0682 H   0  0  0  0  0  0  0  0  0  0  0  0
    7.7454    1.6270    1.6479 H   0  0  0  0  0  0  0  0  0  0  0  0
    5.3185    1.5426    1.2711 H   0  0  0  0  0  0  0  0  0  0  0  0
    6.1064    2.4141   -0.0604 H   0  0  0  0  0  0  0  0  0  0  0  0
    1.8513   -1.0626   -0.4935 H   0  0  0  0  0  0  0  0  0  0  0  0
   -0.3183   -1.6514    0.4441 H   0  0  0  0  0  0  0  0  0  0  0  0
   -4.8984    2.4311   -0.2143 H   0  0  0  0  0  0  0  0  0  0  0  0
   -4.3879    4.7596    0.4083 H   0  0  0  0  0  0  0  0  0  0  0  0
  1  2  1  0
  2  3  1  0
  3  4  2  0
  4  5  1  0
  5  6  2  0
  6  7  1  0
  7  8  1  0
  8  9  1  0
  9 10  2  0
 10 11  1  0
 11 12  1  0
 12 13  1  0
 11 14  2  0
 14 15  1  0
 15 16  2  0
 16 17  1  0
 17 18  1  0
 18 19  2  0
 19 20  1  0
 20 21  2  0
 21 22  1  0
 22 23  1  0
 23 24  1  0
 24 25  1  0
 25 26  1  0
 26 27  1  0
 27 28  1  0
 28 29  1  0
 29 30  1  0
 21 31  1  0
 31 32  2  0
  6 33  1  0
 33 34  2  0
 34  3  1  0
 17  7  2  0
 32 18  1  0
 16  9  1  0
 30 25  1  0
  1 35  1  0
  1 36  1  0
  1 37  1  0
  4 38  1  0
  5 39  1  0
 10 40  1  0
 13 41  1  0
 13 42  1  0
 13 43  1  0
 14 44  1  0
 15 45  1  0
 19 46  1  0
 20 47  1  0
 23 48  1  0
 23 49  1  0
 24 50  1  0
 24 51  1  0
 26 52  1  0
 26 53  1  0
 27 54  1  0
 27 55  1  0
 29 56  1  0
 29 57  1  0
 30 58  1  0
 30 59  1  0
 31 60  1  0
 32 61  1  0
 33 62  1  0
 34 63  1  0
M  END
$$$$
