
     RDKit          3D

 80 86  0  0  0  0  0  0  0  0999 V2000
   -5.9868   -0.1752   -0.1535 C   0  0  0  0  0  0  0  0  0  0  0  0
   -4.6972    0.2534    0.4822 C   0  0  0  0  0  0  0  0  0  0  0  0
   -4.7093    0.8857    1.7527 C   0  0  0  0  0  0  0  0  0  0  0  0
   -6.1746    1.1573    2.6396 Cl  0  0  0  0  0  0  0  0  0  0  0  0
   -3.5321    1.3295    2.3784 C   0  0  0  0  0  0  0  0  0  0  0  0
   -2.3018    1.1544    1.7656 C   0  0  0  0  0  0  0  0  0  0  0  0
   -2.2722    0.5198    0.5309 C   0  0  0  0  0  0  0  0  0  0  0  0
   -3.4406    0.0440   -0.1056 C   0  0  0  0  0  0  0  0  0  0  0  0
   -3.0527   -0.5970   -1.3145 N   0  0  0  0  0  0  0  0  0  0  0  0
   -3.8763   -1.3401   -2.2437 C   0  0  0  0  0  0  0  0  0  0  0  0
   -4.2580   -2.7292   -1.7783 C   0  0  0  0  0  0  0  0  0  0  0  0
   -5.5735   -3.1916   -1.9438 C   0  0  0  0  0  0  0  0  0  0  0  0
   -5.9319   -4.4825   -1.5493 C   0  0  0  0  0  0  0  0  0  0  0  0
   -4.9769   -5.3376   -1.0038 C   0  0  0  0  0  0  0  0  0  0  0  0
   -3.6614   -4.9050   -0.8612 C   0  0  0  0  0  0  0  0  0  0  0  0
   -3.3029   -3.6133   -1.2525 C   0  0  0  0  0  0  0  0  0  0  0  0
   -1.6525   -0.5512   -1.5034 C   0  0  0  0  0  0  0  0  0  0  0  0
   -1.0322   -1.0498   -2.4340 O   0  0  0  0  0  0  0  0  0  0  0  0
   -1.0698    0.2164   -0.3088 C   0  0  1  0  0  0  0  0  0  0  0  0
   -0.4109    1.4969   -0.6934 C   0  0  0  0  0  0  0  0  0  0  0  0
    0.9833    1.3545   -0.5986 C   0  0  0  0  0  0  0  0  0  0  0  0
    1.5802    2.5236   -0.9694 C   0  0  0  0  0  0  0  0  0  0  0  0
    2.8790    2.7605   -1.1437 O   0  0  0  0  0  0  0  0  0  0  0  0
    0.5472    3.4534   -1.2143 N   0  0  0  0  0  0  0  0  0  0  0  0
    0.7241    4.8469   -1.4855 C   0  0  0  0  0  0  0  0  0  0  0  0
   -0.1707    5.5330   -2.3161 C   0  0  0  0  0  0  0  0  0  0  0  0
    0.0122    6.8939   -2.5759 C   0  0  0  0  0  0  0  0  0  0  0  0
    1.0806    7.5804   -2.0026 C   0  0  0  0  0  0  0  0  0  0  0  0
    1.9674    6.9096   -1.1633 C   0  0  0  0  0  0  0  0  0  0  0  0
    1.7911    5.5485   -0.9018 C   0  0  0  0  0  0  0  0  0  0  0  0
   -0.6871    2.7769   -1.1054 C   0  0  0  0  0  0  0  0  0  0  0  0
   -1.8557    3.3829   -1.3013 O   0  0  0  0  0  0  0  0  0  0  0  0
    1.3344   -0.0301   -0.2304 C   0  0  1  0  0  0  0  0  0  0  0  0
    2.4769   -0.2714    0.7499 C   0  0  0  0  0  0  0  0  0  0  0  0
    2.4925   -1.6840    1.1917 N   0  0  0  0  0  0  0  0  0  0  0  0
    3.6301   -2.2572    1.7362 C   0  0  0  0  0  0  0  0  0  0  0  0
    3.6231   -3.3209    2.3431 O   0  0  0  0  0  0  0  0  0  0  0  0
    4.7387   -1.5053    1.5168 O   0  0  0  0  0  0  0  0  0  0  0  0
    6.0374   -1.9204    2.0119 C   0  0  0  0  0  0  0  0  0  0  0  0
    6.4802   -3.2493    1.3891 C   0  0  0  0  0  0  0  0  0  0  0  0
    7.0023   -0.8180    1.5456 C   0  0  0  0  0  0  0  0  0  0  0  0
    6.0582   -1.9691    3.5447 C   0  0  0  0  0  0  0  0  0  0  0  0
    1.1951   -2.2827    1.5459 C   0  0  0  0  0  0  0  0  0  0  0  0
    0.0339   -1.8967    0.5971 C   0  0  0  0  0  0  0  0  0  0  0  0
    0.0425   -0.4575    0.4002 N   0  0  0  0  0  0  0  0  0  0  0  0
   -6.0249    0.1215   -1.2042 H   0  0  0  0  0  0  0  0  0  0  0  0
   -6.8662    0.3056    0.2861 H   0  0  0  0  0  0  0  0  0  0  0  0
   -6.1181   -1.2539   -0.0434 H   0  0  0  0  0  0  0  0  0  0  0  0
   -3.5765    1.8145    3.3515 H   0  0  0  0  0  0  0  0  0  0  0  0
   -1.3870    1.4975    2.2419 H   0  0  0  0  0  0  0  0  0  0  0  0
   -4.7499   -0.7410   -2.5070 H   0  0  0  0  0  0  0  0  0  0  0  0
   -3.3278   -1.4639   -3.1874 H   0  0  0  0  0  0  0  0  0  0  0  0
   -6.3348   -2.5486   -2.3814 H   0  0  0  0  0  0  0  0  0  0  0  0
   -6.9561   -4.8244   -1.6742 H   0  0  0  0  0  0  0  0  0  0  0  0
   -5.2560   -6.3441   -0.7005 H   0  0  0  0  0  0  0  0  0  0  0  0
   -2.9089   -5.5757   -0.4539 H   0  0  0  0  0  0  0  0  0  0  0  0
   -2.2631   -3.3107   -1.1584 H   0  0  0  0  0  0  0  0  0  0  0  0
    2.9757    3.5142   -1.7554 H   0  0  0  0  0  0  0  0  0  0  0  0
   -1.0009    5.0244   -2.7992 H   0  0  0  0  0  0  0  0  0  0  0  0
   -0.6816    7.4179   -3.2292 H   0  0  0  0  0  0  0  0  0  0  0  0
    1.2170    8.6398   -2.2041 H   0  0  0  0  0  0  0  0  0  0  0  0
    2.7878    7.4507   -0.6985 H   0  0  0  0  0  0  0  0  0  0  0  0
    2.4653    5.0696   -0.1949 H   0  0  0  0  0  0  0  0  0  0  0  0
   -2.5660    2.7731   -1.0312 H   0  0  0  0  0  0  0  0  0  0  0  0
    1.5112   -0.6059   -1.1507 H   0  0  0  0  0  0  0  0  0  0  0  0
    3.4317   -0.0089    0.2818 H   0  0  0  0  0  0  0  0  0  0  0  0
    2.3767    0.3479    1.6505 H   0  0  0  0  0  0  0  0  0  0  0  0
    5.8620   -4.0882    1.7243 H   0  0  0  0  0  0  0  0  0  0  0  0
    7.5175   -3.4834    1.6487 H   0  0  0  0  0  0  0  0  0  0  0  0
    6.3960   -3.2141    0.2971 H   0  0  0  0  0  0  0  0  0  0  0  0
    8.0247   -0.9961    1.8934 H   0  0  0  0  0  0  0  0  0  0  0  0
    7.0174   -0.7540    0.4526 H   0  0  0  0  0  0  0  0  0  0  0  0
    6.6769    0.1634    1.9073 H   0  0  0  0  0  0  0  0  0  0  0  0
    7.0717   -2.1350    3.9260 H   0  0  0  0  0  0  0  0  0  0  0  0
    5.4251   -2.7677    3.9410 H   0  0  0  0  0  0  0  0  0  0  0  0
    5.6791   -1.0320    3.9677 H   0  0  0  0  0  0  0  0  0  0  0  0
    0.9641   -1.9496    2.5660 H   0  0  0  0  0  0  0  0  0  0  0  0
    1.2900   -3.3742    1.5741 H   0  0  0  0  0  0  0  0  0  0  0  0
   -0.9085   -2.2246    1.0488 H   0  0  0  0  0  0  0  0  0  0  0  0
    0.1530   -2.4308   -0.3532 H   0  0  0  0  0  0  0  0  0  0  0  0
  1  2  1  0
  2  3  2  0
  3  4  1  0
  3  5  1  0
  5  6  2  0
  6  7  1  0
  7  8  2  0
  8  9  1  0
  9 10  1  0
 10 11  1  0
 11 12  2  0
 12 13  1  0
 13 14  2  0
 14 15  1  0
 15 16  2  0
  9 17  1  0
 17 18  2  0
 17 19  1  0
 19 20  1  0
 20 21  1  0
 21 22  2  0
 22 23  1  0
 22 24  1  0
 24 25  1  0
 25 26  2  0
 26 27  1  0
 27 28  2  0
 28 29  1  0
 29 30  2  0
 24 31  1  0
 31 32  1  0
 21 33  1  0
 33 34  1  0
 34 35  1  0
 35 36  1  0
 36 37  2  0
 36 38  1  0
 38 39  1  0
 39 40  1  0
 39 41  1  0
 39 42  1  0
 35 43  1  0
 43 44  1  0
 44 45  1  0
  8  2  1  0
 16 11  1  0
 19 45  1  1
 19  7  1  0
 31 20  2  0
 45 33  1  0
 30 25  1  0
  1 46  1  0
  1 47  1  0
  1 48  1  0
  5 49  1  0
  6 50  1  0
 10 51  1  0
 10 52  1  0
 12 53  1  0
 13 54  1  0
 14 55  1  0
 15 56  1  0
 16 57  1  0
 23 58  1  0
 26 59  1  0
 27 60  1  0
 28 61  1  0
 29 62  1  0
 30 63  1  0
 32 64  1  0
 33 65  1  6
 34 66  1  0
 34 67  1  0
 40 68  1  0
 40 69  1  0
 40 70  1  0
 41 71  1  0
 41 72  1  0
 41 73  1  0
 42 74  1  0
 42 75  1  0
 42 76  1  0
 43 77  1  0
 43 78  1  0
 44 79  1  0
 44 80  1  0
M  END
$$$$
