
     RDKit          3D

 46 48  0  0  0  0  0  0  0  0999 V2000
    5.7837   -1.8578   -0.0320 C   0  0  0  0  0  0  0  0  0  0  0  0
    5.0275   -0.8595    0.8242 C   0  0  0  0  0  0  0  0  0  0  0  0
    3.8285   -0.4452    0.1550 O   0  0  0  0  0  0  0  0  0  0  0  0
    2.7247   -1.2336    0.3447 C   0  0  0  0  0  0  0  0  0  0  0  0
    2.7344   -2.2509    1.0321 O   0  0  0  0  0  0  0  0  0  0  0  0
    1.5102   -0.7013   -0.4343 C   0  0  0  0  0  0  0  0  0  0  0  0
    1.6863   -1.3251   -1.8414 C   0  0  0  0  0  0  0  0  0  0  0  0
    0.6703   -0.9461   -2.6667 F   0  0  0  0  0  0  0  0  0  0  0  0
    1.6841   -2.6789   -1.8266 F   0  0  0  0  0  0  0  0  0  0  0  0
    2.8329   -0.9341   -2.4496 F   0  0  0  0  0  0  0  0  0  0  0  0
    1.5563    0.7746   -0.4687 N   0  0  0  0  0  0  0  0  0  0  0  0
    0.4125    1.3303   -0.6265 C   0  0  0  0  0  0  0  0  0  0  0  0
    0.2408    2.7818   -0.8383 C   0  0  0  0  0  0  0  0  0  0  0  0
   -0.9964    3.3752   -1.1062 C   0  0  0  0  0  0  0  0  0  0  0  0
   -1.0706    4.7548   -1.2948 C   0  0  0  0  0  0  0  0  0  0  0  0
    0.0967    5.4965   -1.2094 C   0  0  0  0  0  0  0  0  0  0  0  0
    1.3076    4.9576   -0.9536 N   0  0  0  0  0  0  0  0  0  0  0  0
    1.3536    3.6129   -0.7755 C   0  0  0  0  0  0  0  0  0  0  0  0
   -0.7726    0.6983   -0.5979 O   0  0  0  0  0  0  0  0  0  0  0  0
   -0.7729   -0.5028    0.0208 C   0  0  0  0  0  0  0  0  0  0  0  0
   -2.0252   -0.9010    0.4345 N   0  0  0  0  0  0  0  0  0  0  0  0
   -3.2466   -0.1886    0.0571 C   0  0  0  0  0  0  0  0  0  0  0  0
   -4.4446   -1.1319    0.0134 C   0  0  0  0  0  0  0  0  0  0  0  0
   -4.6848   -1.8173    1.3557 C   0  0  0  0  0  0  0  0  0  0  0  0
   -3.3967   -2.0143    2.1507 C   0  0  0  0  0  0  0  0  0  0  0  0
   -2.1739   -2.1160    1.2445 C   0  0  0  0  0  0  0  0  0  0  0  0
    0.2902   -1.1882    0.2246 N   0  0  0  0  0  0  0  0  0  0  0  0
    6.7296   -2.1365    0.4409 H   0  0  0  0  0  0  0  0  0  0  0  0
    5.1928   -2.7649   -0.1932 H   0  0  0  0  0  0  0  0  0  0  0  0
    5.9933   -1.4353   -1.0203 H   0  0  0  0  0  0  0  0  0  0  0  0
    5.6386    0.0374    0.9696 H   0  0  0  0  0  0  0  0  0  0  0  0
    4.8104   -1.2649    1.8189 H   0  0  0  0  0  0  0  0  0  0  0  0
   -1.9040    2.7832   -1.1758 H   0  0  0  0  0  0  0  0  0  0  0  0
   -2.0172    5.2408   -1.5056 H   0  0  0  0  0  0  0  0  0  0  0  0
    0.0891    6.5740   -1.3493 H   0  0  0  0  0  0  0  0  0  0  0  0
    2.3474    3.2196   -0.5735 H   0  0  0  0  0  0  0  0  0  0  0  0
   -3.4265    0.6245    0.7701 H   0  0  0  0  0  0  0  0  0  0  0  0
   -3.1408    0.2620   -0.9366 H   0  0  0  0  0  0  0  0  0  0  0  0
   -5.3461   -0.5889   -0.2919 H   0  0  0  0  0  0  0  0  0  0  0  0
   -4.2677   -1.8992   -0.7517 H   0  0  0  0  0  0  0  0  0  0  0  0
   -5.3874   -1.2286    1.9577 H   0  0  0  0  0  0  0  0  0  0  0  0
   -5.1685   -2.7853    1.1785 H   0  0  0  0  0  0  0  0  0  0  0  0
   -3.2661   -1.1640    2.8329 H   0  0  0  0  0  0  0  0  0  0  0  0
   -3.4818   -2.9083    2.7786 H   0  0  0  0  0  0  0  0  0  0  0  0
   -1.2950   -2.2681    1.8820 H   0  0  0  0  0  0  0  0  0  0  0  0
   -2.2560   -2.9870    0.5836 H   0  0  0  0  0  0  0  0  0  0  0  0
  1  2  1  0
  2  3  1  0
  3  4  1  0
  4  5  2  0
  4  6  1  0
  6  7  1  0
  7  8  1  0
  7  9  1  0
  7 10  1  0
  6 11  1  0
 11 12  2  0
 12 13  1  0
 13 14  2  0
 14 15  1  0
 15 16  2  0
 16 17  1  0
 17 18  2  0
 12 19  1  0
 19 20  1  0
 20 21  1  0
 21 22  1  0
 22 23  1  0
 23 24  1  0
 24 25  1  0
 25 26  1  0
 20 27  2  0
 27  6  1  0
 18 13  1  0
 26 21  1  0
  1 28  1  0
  1 29  1  0
  1 30  1  0
  2 31  1  0
  2 32  1  0
 14 33  1  0
 15 34  1  0
 16 35  1  0
 18 36  1  0
 22 37  1  0
 22 38  1  0
 23 39  1  0
 23 40  1  0
 24 41  1  0
 24 42  1  0
 25 43  1  0
 25 44  1  0
 26 45  1  0
 26 46  1  0
M  END
$$$$
