
     RDKit          3D

 51 55  0  0  0  0  0  0  0  0999 V2000
    0.2497    1.8273    1.7526 C   0  0  0  0  0  0  0  0  0  0  0  0
   -0.1787    1.2860    0.4179 C   0  0  0  0  0  0  0  0  0  0  0  0
    0.1300    0.0370   -0.0154 C   0  0  0  0  0  0  0  0  0  0  0  0
    1.0428   -0.8627    0.7385 C   0  0  0  0  0  0  0  0  0  0  0  0
    0.6063   -1.8776    1.2599 O   0  0  0  0  0  0  0  0  0  0  0  0
    2.3460   -0.4109    0.7094 N   0  0  0  0  0  0  0  0  0  0  0  0
    3.4719   -1.0105    1.3108 C   0  0  0  0  0  0  0  0  0  0  0  0
    4.7056   -0.3677    1.1410 C   0  0  0  0  0  0  0  0  0  0  0  0
    5.8694   -0.8967    1.7054 C   0  0  0  0  0  0  0  0  0  0  0  0
    5.8103   -2.0737    2.4459 C   0  0  0  0  0  0  0  0  0  0  0  0
    4.5886   -2.7188    2.6210 C   0  0  0  0  0  0  0  0  0  0  0  0
    3.4234   -2.1898    2.0560 C   0  0  0  0  0  0  0  0  0  0  0  0
   -0.3835   -0.5606   -1.3104 C   0  0  0  0  0  0  0  0  0  0  0  0
   -1.4474   -1.6360   -1.1132 C   0  0  0  0  0  0  0  0  0  0  0  0
   -2.7544   -1.3232   -0.6951 C   0  0  0  0  0  0  0  0  0  0  0  0
   -3.7089   -2.3247   -0.4942 C   0  0  0  0  0  0  0  0  0  0  0  0
   -3.3761   -3.6620   -0.7015 C   0  0  0  0  0  0  0  0  0  0  0  0
   -2.0795   -3.9893   -1.1129 C   0  0  0  0  0  0  0  0  0  0  0  0
   -1.7213   -5.3959   -1.3334 N   0  0  0  0  0  4  0  0  0  0  0  0
   -0.6231   -5.6358   -1.8565 O   0  0  0  0  0  0  0  0  0  0  0  0
   -2.5425   -6.2611   -0.9958 O   0  0  0  0  0  1  0  0  0  0  0  0
   -1.1183   -2.9881   -1.3207 C   0  0  0  0  0  0  0  0  0  0  0  0
   -0.8917    0.4791   -2.2038 N   0  0  0  0  0  0  0  0  0  0  0  0
   -1.3152    1.6713   -1.7255 C   0  0  0  0  0  0  0  0  0  0  0  0
   -2.0563    2.5381   -2.3603 N   0  0  0  0  0  0  0  0  0  0  0  0
   -2.1832    3.5920   -1.4999 C   0  0  0  0  0  0  0  0  0  0  0  0
   -2.8749    4.7979   -1.6995 C   0  0  0  0  0  0  0  0  0  0  0  0
   -2.8771    5.7581   -0.6851 C   0  0  0  0  0  0  0  0  0  0  0  0
   -2.2018    5.5223    0.5091 C   0  0  0  0  0  0  0  0  0  0  0  0
   -1.5069    4.3256    0.7279 C   0  0  0  0  0  0  0  0  0  0  0  0
   -1.5094    3.3632   -0.2965 C   0  0  0  0  0  0  0  0  0  0  0  0
   -0.9606    2.0922   -0.4421 N   0  0  0  0  0  0  0  0  0  0  0  0
    0.8737    2.7176    1.6248 H   0  0  0  0  0  0  0  0  0  0  0  0
   -0.6251    2.0754    2.3618 H   0  0  0  0  0  0  0  0  0  0  0  0
    0.8305    1.1153    2.3452 H   0  0  0  0  0  0  0  0  0  0  0  0
    2.5251    0.4465    0.2011 H   0  0  0  0  0  0  0  0  0  0  0  0
    4.7820    0.5522    0.5674 H   0  0  0  0  0  0  0  0  0  0  0  0
    6.8210   -0.3899    1.5669 H   0  0  0  0  0  0  0  0  0  0  0  0
    6.7133   -2.4893    2.8855 H   0  0  0  0  0  0  0  0  0  0  0  0
    4.5367   -3.6392    3.1976 H   0  0  0  0  0  0  0  0  0  0  0  0
    2.4943   -2.7263    2.2204 H   0  0  0  0  0  0  0  0  0  0  0  0
    0.4700   -1.0071   -1.8379 H   0  0  0  0  0  0  0  0  0  0  0  0
   -3.0455   -0.2887   -0.5187 H   0  0  0  0  0  0  0  0  0  0  0  0
   -4.7130   -2.0576   -0.1707 H   0  0  0  0  0  0  0  0  0  0  0  0
   -4.1296   -4.4292   -0.5370 H   0  0  0  0  0  0  0  0  0  0  0  0
   -0.1068   -3.2570   -1.6222 H   0  0  0  0  0  0  0  0  0  0  0  0
   -1.3443    0.1474   -3.0504 H   0  0  0  0  0  0  0  0  0  0  0  0
   -3.3962    4.9719   -2.6350 H   0  0  0  0  0  0  0  0  0  0  0  0
   -3.4103    6.6941   -0.8328 H   0  0  0  0  0  0  0  0  0  0  0  0
   -2.2147    6.2817    1.2888 H   0  0  0  0  0  0  0  0  0  0  0  0
   -0.9942    4.1773    1.6700 H   0  0  0  0  0  0  0  0  0  0  0  0
  1  2  1  0
  2  3  2  0
  3  4  1  0
  4  5  2  0
  4  6  1  0
  6  7  1  0
  7  8  2  0
  8  9  1  0
  9 10  2  0
 10 11  1  0
 11 12  2  0
  3 13  1  0
 13 14  1  0
 14 15  2  0
 15 16  1  0
 16 17  2  0
 17 18  1  0
 18 19  1  0
 19 20  2  0
 19 21  1  0
 18 22  2  0
 13 23  1  0
 23 24  1  0
 24 25  2  0
 25 26  1  0
 26 27  2  0
 27 28  1  0
 28 29  2  0
 29 30  1  0
 30 31  2  0
 31 32  1  0
 32  2  1  0
 12  7  1  0
 22 14  1  0
 32 24  1  0
 31 26  1  0
  1 33  1  0
  1 34  1  0
  1 35  1  0
  6 36  1  0
  8 37  1  0
  9 38  1  0
 10 39  1  0
 11 40  1  0
 12 41  1  0
 13 42  1  0
 15 43  1  0
 16 44  1  0
 17 45  1  0
 22 46  1  0
 23 47  1  0
 27 48  1  0
 28 49  1  0
 29 50  1  0
 30 51  1  0
M  CHG  2  19   1  21  -1
M  END
$$$$
