
     RDKit          3D

 51 53  0  0  0  0  0  0  0  0999 V2000
    0.1399    5.6704   -1.0959 C   0  0  0  0  0  0  0  0  0  0  0  0
   -0.7075    4.4840   -1.5319 C   0  0  0  0  0  0  0  0  0  0  0  0
   -1.7649    4.1504   -0.4813 C   0  0  0  0  0  0  0  0  0  0  0  0
   -2.7972    2.7309   -0.9862 S   0  0  0  0  0  0  0  0  0  0  0  0
   -1.7062    1.3530   -0.6507 C   0  0  0  0  0  0  0  0  0  0  0  0
   -2.0825    0.0990   -1.0819 C   0  0  0  0  0  0  0  0  0  0  0  0
   -1.2342   -0.9540   -0.8039 C   0  0  0  0  0  0  0  0  0  0  0  0
   -1.5331   -2.2473   -1.2217 N   0  0  0  0  0  0  0  0  0  0  0  0
   -2.9259   -2.7261   -1.1496 C   0  0  0  0  0  0  0  0  0  0  0  0
   -3.0228   -4.1338   -0.5134 C   0  0  0  0  0  0  0  0  0  0  0  0
   -2.1599   -5.1738   -1.1086 N   0  0  0  0  0  0  0  0  0  0  0  0
   -2.8614   -5.9479   -2.1284 C   0  0  0  0  0  0  0  0  0  0  0  0
   -0.9131   -4.5949   -1.6602 C   0  0  0  0  0  0  0  0  0  0  0  0
   -0.4910   -3.2648   -0.9977 C   0  0  0  0  0  0  0  0  0  0  0  0
   -0.0746   -0.7339   -0.1622 N   0  0  0  0  0  0  0  0  0  0  0  0
    0.2177    0.5191    0.2318 C   0  0  0  0  0  0  0  0  0  0  0  0
    1.4939    0.7391    0.9434 C   0  0  0  0  0  0  0  0  0  0  0  0
    2.3628   -0.3250    1.2439 C   0  0  0  0  0  0  0  0  0  0  0  0
    3.5721   -0.1127    1.9170 C   0  0  0  0  0  0  0  0  0  0  0  0
    3.9526    1.1691    2.3114 C   0  0  0  0  0  0  0  0  0  0  0  0
    5.1545    1.2377    2.9587 O   0  0  0  0  0  0  0  0  0  0  0  0
    5.5841    2.5261    3.3804 C   0  0  0  0  0  0  0  0  0  0  0  0
    3.1102    2.2401    2.0262 C   0  0  0  0  0  0  0  0  0  0  0  0
    1.8991    2.0245    1.3520 C   0  0  0  0  0  0  0  0  0  0  0  0
   -0.5694    1.5830    0.0175 N   0  0  0  0  0  0  0  0  0  0  0  0
    0.8817    5.9074   -1.8653 H   0  0  0  0  0  0  0  0  0  0  0  0
    0.6736    5.4501   -0.1655 H   0  0  0  0  0  0  0  0  0  0  0  0
   -0.4799    6.5584   -0.9362 H   0  0  0  0  0  0  0  0  0  0  0  0
   -0.0439    3.6302   -1.7089 H   0  0  0  0  0  0  0  0  0  0  0  0
   -1.1881    4.7264   -2.4876 H   0  0  0  0  0  0  0  0  0  0  0  0
   -2.4395    5.0062   -0.3657 H   0  0  0  0  0  0  0  0  0  0  0  0
   -1.3172    3.9704    0.5019 H   0  0  0  0  0  0  0  0  0  0  0  0
   -2.9986   -0.0440   -1.6388 H   0  0  0  0  0  0  0  0  0  0  0  0
   -3.3367   -2.7525   -2.1658 H   0  0  0  0  0  0  0  0  0  0  0  0
   -3.5582   -2.0563   -0.5545 H   0  0  0  0  0  0  0  0  0  0  0  0
   -2.7289   -4.0443    0.5412 H   0  0  0  0  0  0  0  0  0  0  0  0
   -4.0714   -4.4563   -0.4927 H   0  0  0  0  0  0  0  0  0  0  0  0
   -3.7283   -6.4591   -1.6948 H   0  0  0  0  0  0  0  0  0  0  0  0
   -2.2091   -6.7291   -2.5349 H   0  0  0  0  0  0  0  0  0  0  0  0
   -3.2110   -5.3219   -2.9573 H   0  0  0  0  0  0  0  0  0  0  0  0
   -1.0236   -4.4058   -2.7371 H   0  0  0  0  0  0  0  0  0  0  0  0
   -0.1081   -5.3291   -1.5429 H   0  0  0  0  0  0  0  0  0  0  0  0
    0.4558   -2.9444   -1.4507 H   0  0  0  0  0  0  0  0  0  0  0  0
   -0.3216   -3.4199    0.0762 H   0  0  0  0  0  0  0  0  0  0  0  0
    2.1017   -1.3417    0.9534 H   0  0  0  0  0  0  0  0  0  0  0  0
    4.2201   -0.9584    2.1340 H   0  0  0  0  0  0  0  0  0  0  0  0
    4.8879    2.9559    4.1082 H   0  0  0  0  0  0  0  0  0  0  0  0
    6.5530    2.4099    3.8754 H   0  0  0  0  0  0  0  0  0  0  0  0
    5.7257    3.1948    2.5248 H   0  0  0  0  0  0  0  0  0  0  0  0
    3.3583    3.2566    2.3109 H   0  0  0  0  0  0  0  0  0  0  0  0
    1.2635    2.8843    1.1443 H   0  0  0  0  0  0  0  0  0  0  0  0
  1  2  1  0
  2  3  1  0
  3  4  1  0
  4  5  1  0
  5  6  2  0
  6  7  1  0
  7  8  1  0
  8  9  1  0
  9 10  1  0
 10 11  1  0
 11 12  1  0
 11 13  1  0
 13 14  1  0
  7 15  2  0
 15 16  1  0
 16 17  1  0
 17 18  2  0
 18 19  1  0
 19 20  2  0
 20 21  1  0
 21 22  1  0
 20 23  1  0
 23 24  2  0
 16 25  2  0
 25  5  1  0
 14  8  1  0
 24 17  1  0
  1 26  1  0
  1 27  1  0
  1 28  1  0
  2 29  1  0
  2 30  1  0
  3 31  1  0
  3 32  1  0
  6 33  1  0
  9 34  1  0
  9 35  1  0
 10 36  1  0
 10 37  1  0
 12 38  1  0
 12 39  1  0
 12 40  1  0
 13 41  1  0
 13 42  1  0
 14 43  1  0
 14 44  1  0
 18 45  1  0
 19 46  1  0
 22 47  1  0
 22 48  1  0
 22 49  1  0
 23 50  1  0
 24 51  1  0
M  END
$$$$
