
     RDKit          3D

 55 58  0  0  0  0  0  0  0  0999 V2000
    2.6119   -4.0633   -4.9351 C   0  0  0  0  0  0  0  0  0  0  0  0
    1.5123   -3.3307   -4.4124 O   0  0  0  0  0  0  0  0  0  0  0  0
    1.7349   -2.5645   -3.2978 C   0  0  0  0  0  0  0  0  0  0  0  0
    2.9674   -2.4396   -2.6545 C   0  0  0  0  0  0  0  0  0  0  0  0
    3.1014   -1.6013   -1.5471 C   0  0  0  0  0  0  0  0  0  0  0  0
    2.0094   -0.8724   -1.0773 C   0  0  0  0  0  0  0  0  0  0  0  0
    0.7519   -0.9826   -1.6911 C   0  0  0  0  0  0  0  0  0  0  0  0
   -0.4378   -0.1628   -1.2219 C   0  0  0  0  0  0  0  0  0  0  0  0
   -0.2690    1.3117   -1.6227 C   0  0  0  0  0  0  0  0  0  0  0  0
    0.1636    1.9473   -0.3188 C   0  0  0  0  0  0  0  0  0  0  0  0
    0.7518    3.3055   -0.2691 C   0  0  0  0  0  0  0  0  0  0  0  0
    1.2515    3.7841    0.9490 C   0  0  0  0  0  0  0  0  0  0  0  0
    1.8131    5.0599    1.0265 C   0  0  0  0  0  0  0  0  0  0  0  0
    1.8761    5.8636   -0.1102 C   0  0  0  0  0  0  0  0  0  0  0  0
    1.3765    5.3945   -1.3244 C   0  0  0  0  0  0  0  0  0  0  0  0
    0.8136    4.1181   -1.4066 C   0  0  0  0  0  0  0  0  0  0  0  0
   -0.0404    1.2227    0.7412 N   0  0  0  0  0  0  0  0  0  0  0  0
   -0.6440   -0.0451    0.2382 N   0  0  0  0  0  0  0  0  0  0  0  0
   -0.6818   -1.4483    1.1885 S   0  0  0  0  0  6  0  0  0  0  0  0
   -1.5067   -2.4330    0.5128 O   0  0  0  0  0  0  0  0  0  0  0  0
    0.6578   -1.7811    1.6316 O   0  0  0  0  0  0  0  0  0  0  0  0
   -1.5914   -0.8872    2.6127 C   0  0  0  0  0  0  0  0  0  0  0  0
   -2.9754   -1.0697    2.6682 C   0  0  0  0  0  0  0  0  0  0  0  0
   -3.6783   -0.6578    3.8020 C   0  0  0  0  0  0  0  0  0  0  0  0
   -3.0056   -0.0633    4.8789 C   0  0  0  0  0  0  0  0  0  0  0  0
   -3.7601    0.3467    6.1096 C   0  0  0  0  0  0  0  0  0  0  0  0
   -1.6133    0.0892    4.8196 C   0  0  0  0  0  0  0  0  0  0  0  0
   -0.9044   -0.3210    3.6894 C   0  0  0  0  0  0  0  0  0  0  0  0
    0.6300   -1.8487   -2.7950 C   0  0  0  0  0  0  0  0  0  0  0  0
   -0.5972   -1.9224   -3.4154 O   0  0  0  0  0  0  0  0  0  0  0  0
   -1.2152   -3.1876   -3.1606 C   0  0  0  0  0  0  0  0  0  0  0  0
    3.4118   -3.3930   -5.2663 H   0  0  0  0  0  0  0  0  0  0  0  0
    2.2586   -4.6162   -5.8109 H   0  0  0  0  0  0  0  0  0  0  0  0
    2.9813   -4.7941   -4.2082 H   0  0  0  0  0  0  0  0  0  0  0  0
    3.8476   -2.9776   -2.9893 H   0  0  0  0  0  0  0  0  0  0  0  0
    4.0621   -1.5143   -1.0448 H   0  0  0  0  0  0  0  0  0  0  0  0
    2.1498   -0.2308   -0.2089 H   0  0  0  0  0  0  0  0  0  0  0  0
   -1.3705   -0.5403   -1.6546 H   0  0  0  0  0  0  0  0  0  0  0  0
    0.4533    1.4673   -2.4284 H   0  0  0  0  0  0  0  0  0  0  0  0
   -1.2340    1.7484   -1.9046 H   0  0  0  0  0  0  0  0  0  0  0  0
    1.2089    3.1688    1.8455 H   0  0  0  0  0  0  0  0  0  0  0  0
    2.2002    5.4253    1.9745 H   0  0  0  0  0  0  0  0  0  0  0  0
    2.3131    6.8575   -0.0491 H   0  0  0  0  0  0  0  0  0  0  0  0
    1.4239    6.0255   -2.2090 H   0  0  0  0  0  0  0  0  0  0  0  0
    0.4263    3.7868   -2.3654 H   0  0  0  0  0  0  0  0  0  0  0  0
   -3.5092   -1.5313    1.8411 H   0  0  0  0  0  0  0  0  0  0  0  0
   -4.7554   -0.8058    3.8422 H   0  0  0  0  0  0  0  0  0  0  0  0
   -3.2760    1.1986    6.5986 H   0  0  0  0  0  0  0  0  0  0  0  0
   -4.7804    0.6542    5.8576 H   0  0  0  0  0  0  0  0  0  0  0  0
   -3.8058   -0.4881    6.8156 H   0  0  0  0  0  0  0  0  0  0  0  0
   -1.0723    0.5281    5.6552 H   0  0  0  0  0  0  0  0  0  0  0  0
    0.1751   -0.1944    3.6501 H   0  0  0  0  0  0  0  0  0  0  0  0
   -0.9102   -3.9212   -3.9124 H   0  0  0  0  0  0  0  0  0  0  0  0
   -2.2974   -3.0504   -3.2472 H   0  0  0  0  0  0  0  0  0  0  0  0
   -1.0036   -3.5641   -2.1531 H   0  0  0  0  0  0  0  0  0  0  0  0
  1  2  1  0
  2  3  1  0
  3  4  2  0
  4  5  1  0
  5  6  2  0
  6  7  1  0
  7  8  1  0
  8  9  1  0
  9 10  1  0
 10 11  1  0
 11 12  2  0
 12 13  1  0
 13 14  2  0
 14 15  1  0
 15 16  2  0
 10 17  2  0
 17 18  1  0
 18 19  1  0
 19 20  2  0
 19 21  2  0
 19 22  1  0
 22 23  2  0
 23 24  1  0
 24 25  2  0
 25 26  1  0
 25 27  1  0
 27 28  2  0
  7 29  2  0
 29 30  1  0
 30 31  1  0
 29  3  1  0
 18  8  1  0
 28 22  1  0
 16 11  1  0
  1 32  1  0
  1 33  1  0
  1 34  1  0
  4 35  1  0
  5 36  1  0
  6 37  1  0
  8 38  1  0
  9 39  1  0
  9 40  1  0
 12 41  1  0
 13 42  1  0
 14 43  1  0
 15 44  1  0
 16 45  1  0
 23 46  1  0
 24 47  1  0
 26 48  1  0
 26 49  1  0
 26 50  1  0
 27 51  1  0
 28 52  1  0
 31 53  1  0
 31 54  1  0
 31 55  1  0
M  END
$$$$
