
     RDKit          3D

 53 57  0  0  0  0  0  0  0  0999 V2000
    3.2344    1.8097    2.6935 C   0  0  0  0  0  0  0  0  0  0  0  0
    2.6888    0.6410    3.4664 C   0  0  0  0  0  0  0  0  0  0  0  0
    3.4705    0.0971    4.5002 C   0  0  0  0  0  0  0  0  0  0  0  0
    3.0117   -0.9791    5.2628 C   0  0  0  0  0  0  0  0  0  0  0  0
    1.7582   -1.5283    5.0130 C   0  0  0  0  0  0  0  0  0  0  0  0
    0.9604   -1.0017    3.9990 C   0  0  0  0  0  0  0  0  0  0  0  0
    1.4212    0.0761    3.2249 C   0  0  0  0  0  0  0  0  0  0  0  0
    0.3334    0.7100    1.9527 S   0  0  0  0  0  6  0  0  0  0  0  0
    0.3108    2.1502    2.0709 O   0  0  0  0  0  0  0  0  0  0  0  0
   -0.8997   -0.0506    2.0122 O   0  0  0  0  0  0  0  0  0  0  0  0
    1.1420    0.1898    0.5567 N   0  0  0  0  0  0  0  0  0  0  0  0
    0.8219    0.9955   -0.5791 C   0  0  0  0  0  0  0  0  0  0  0  0
    1.4818    2.1608   -0.6800 N   0  0  0  0  0  0  0  0  0  0  0  0
    1.1292    2.9351   -1.7204 C   0  0  0  0  0  0  0  0  0  0  0  0
    1.7471    4.1675   -1.8871 C   0  0  0  0  0  0  0  0  0  0  0  0
    1.4175    5.0082   -2.9512 C   0  0  0  0  0  0  0  0  0  0  0  0
    0.4517    4.6102   -3.8660 C   0  0  0  0  0  0  0  0  0  0  0  0
   -0.1781    3.3743   -3.7101 C   0  0  0  0  0  0  0  0  0  0  0  0
    0.1391    2.5273   -2.6560 C   0  0  0  0  0  0  0  0  0  0  0  0
   -0.4950    1.3409   -2.5506 N   0  0  0  0  0  0  0  0  0  0  0  0
   -0.1532    0.5646   -1.5016 C   0  0  0  0  0  0  0  0  0  0  0  0
   -0.7352   -0.7164   -1.3304 N   0  0  0  0  0  0  0  0  0  0  0  0
   -0.3731   -1.6180   -2.4513 C   0  0  0  0  0  0  0  0  0  0  0  0
   -1.5027   -2.5629   -2.9055 C   0  0  0  0  0  0  0  0  0  0  0  0
   -2.4158   -2.9526   -1.7746 C   0  0  0  0  0  0  0  0  0  0  0  0
   -2.9539   -4.2339   -1.6431 C   0  0  0  0  0  0  0  0  0  0  0  0
   -3.8098   -4.5176   -0.5784 C   0  0  0  0  0  0  0  0  0  0  0  0
   -4.1377   -3.5235    0.3462 C   0  0  0  0  0  0  0  0  0  0  0  0
   -3.6159   -2.2370    0.2086 C   0  0  0  0  0  0  0  0  0  0  0  0
   -2.7558   -1.9464   -0.8528 C   0  0  0  0  0  0  0  0  0  0  0  0
   -2.1776   -0.5686   -1.0769 C   0  0  0  0  0  0  0  0  0  0  0  0
    4.2874    1.9895    2.9396 H   0  0  0  0  0  0  0  0  0  0  0  0
    3.1970    1.6246    1.6176 H   0  0  0  0  0  0  0  0  0  0  0  0
    2.6843    2.7231    2.9382 H   0  0  0  0  0  0  0  0  0  0  0  0
    4.4520    0.5131    4.7222 H   0  0  0  0  0  0  0  0  0  0  0  0
    3.6349   -1.3854    6.0560 H   0  0  0  0  0  0  0  0  0  0  0  0
    1.3993   -2.3625    5.6104 H   0  0  0  0  0  0  0  0  0  0  0  0
   -0.0218   -1.4367    3.8245 H   0  0  0  0  0  0  0  0  0  0  0  0
    0.7550   -0.7398    0.3546 H   0  0  0  0  0  0  0  0  0  0  0  0
    2.4996    4.4806   -1.1671 H   0  0  0  0  0  0  0  0  0  0  0  0
    1.9136    5.9697   -3.0584 H   0  0  0  0  0  0  0  0  0  0  0  0
    0.1847    5.2568   -4.6981 H   0  0  0  0  0  0  0  0  0  0  0  0
   -0.9350    3.0644   -4.4265 H   0  0  0  0  0  0  0  0  0  0  0  0
   -0.0001   -1.0815   -3.3338 H   0  0  0  0  0  0  0  0  0  0  0  0
    0.4643   -2.2315   -2.0952 H   0  0  0  0  0  0  0  0  0  0  0  0
   -1.0631   -3.4476   -3.3800 H   0  0  0  0  0  0  0  0  0  0  0  0
   -2.1124   -2.0614   -3.6677 H   0  0  0  0  0  0  0  0  0  0  0  0
   -2.7096   -5.0143   -2.3588 H   0  0  0  0  0  0  0  0  0  0  0  0
   -4.2240   -5.5159   -0.4666 H   0  0  0  0  0  0  0  0  0  0  0  0
   -4.8021   -3.7516    1.1757 H   0  0  0  0  0  0  0  0  0  0  0  0
   -3.8729   -1.4705    0.9359 H   0  0  0  0  0  0  0  0  0  0  0  0
   -2.6990   -0.0999   -1.9233 H   0  0  0  0  0  0  0  0  0  0  0  0
   -2.3484    0.0551   -0.1915 H   0  0  0  0  0  0  0  0  0  0  0  0
  1  2  1  0
  2  3  2  0
  3  4  1  0
  4  5  2  0
  5  6  1  0
  6  7  2  0
  7  8  1  0
  8  9  2  0
  8 10  2  0
  8 11  1  0
 11 12  1  0
 12 13  2  0
 13 14  1  0
 14 15  2  0
 15 16  1  0
 16 17  2  0
 17 18  1  0
 18 19  2  0
 19 20  1  0
 20 21  2  0
 21 22  1  0
 22 23  1  0
 23 24  1  0
 24 25  1  0
 25 26  2  0
 26 27  1  0
 27 28  2  0
 28 29  1  0
 29 30  2  0
 30 31  1  0
  7  2  1  0
 21 12  1  0
 31 22  1  0
 19 14  1  0
 30 25  1  0
  1 32  1  0
  1 33  1  0
  1 34  1  0
  3 35  1  0
  4 36  1  0
  5 37  1  0
  6 38  1  0
 11 39  1  0
 15 40  1  0
 16 41  1  0
 17 42  1  0
 18 43  1  0
 23 44  1  0
 23 45  1  0
 24 46  1  0
 24 47  1  0
 26 48  1  0
 27 49  1  0
 28 50  1  0
 29 51  1  0
 31 52  1  0
 31 53  1  0
M  END
$$$$
