
     RDKit          3D

 60 61  0  0  0  0  0  0  0  0999 V2000
   -7.1254    0.7030   -1.6712 C   0  0  0  0  0  0  0  0  0  0  0  0
   -6.2474    1.4052   -0.7997 O   0  0  0  0  0  0  0  0  0  0  0  0
   -4.9032    1.2068   -0.9718 C   0  0  0  0  0  0  0  0  0  0  0  0
   -4.3131    0.3908   -1.9387 C   0  0  0  0  0  0  0  0  0  0  0  0
   -2.9194    0.2702   -2.0074 C   0  0  0  0  0  0  0  0  0  0  0  0
   -2.2587   -0.5240   -2.9133 O   0  0  0  0  0  0  0  0  0  0  0  0
   -3.0307   -1.4505   -3.6659 C   0  0  0  0  0  0  0  0  0  0  0  0
   -2.1145    0.9973   -1.1063 C   0  0  0  0  0  0  0  0  0  0  0  0
   -0.6611    0.8866   -1.1744 C   0  0  0  0  0  0  0  0  0  0  0  0
    0.0509    1.6224   -2.0418 N   0  0  0  0  0  0  0  0  0  0  0  0
    1.3718    1.2938   -1.8218 O   0  0  0  0  0  0  0  0  0  0  0  0
    1.4613    0.3568   -0.8353 C   0  0  0  0  0  0  0  0  0  0  0  0
    2.7553   -0.1890   -0.5240 C   0  0  0  0  0  0  0  0  0  0  0  0
    2.9581   -1.2536    0.0436 O   0  0  0  0  0  0  0  0  0  0  0  0
    3.7283    0.6545   -0.9678 O   0  0  0  0  0  0  0  0  0  0  0  0
    5.1320    0.3397   -0.7869 C   0  0  0  0  0  0  0  0  0  0  0  0
    5.8801    1.5384   -1.3882 C   0  0  0  0  0  0  0  0  0  0  0  0
    5.5209   -0.9216   -1.5638 C   0  0  0  0  0  0  0  0  0  0  0  0
    5.4953    0.2326    0.6978 C   0  0  0  0  0  0  0  0  0  0  0  0
    0.1913    0.0874   -0.3639 C   0  0  0  0  0  0  0  0  0  0  0  0
   -0.1845   -0.8024    0.7058 C   0  0  0  0  0  0  0  0  0  0  0  0
   -1.2564   -1.3914    0.7400 O   0  0  0  0  0  0  0  0  0  0  0  0
    0.7679   -0.8649    1.6736 O   0  0  0  0  0  0  0  0  0  0  0  0
    0.6083   -1.7221    2.8313 C   0  0  0  0  0  0  0  0  0  0  0  0
    0.5054   -3.1973    2.4243 C   0  0  0  0  0  0  0  0  0  0  0  0
   -0.5810   -1.2771    3.6902 C   0  0  0  0  0  0  0  0  0  0  0  0
    1.9004   -1.5288    3.6414 C   0  0  0  0  0  0  0  0  0  0  0  0
   -2.7068    1.8120   -0.1213 C   0  0  0  0  0  0  0  0  0  0  0  0
   -1.8521    2.4518    0.7436 O   0  0  0  0  0  0  0  0  0  0  0  0
   -2.4185    3.3888    1.6499 C   0  0  0  0  0  0  0  0  0  0  0  0
   -4.0994    1.9076   -0.0668 C   0  0  0  0  0  0  0  0  0  0  0  0
   -8.1510    0.9587   -1.3891 H   0  0  0  0  0  0  0  0  0  0  0  0
   -6.9784    1.0131   -2.7106 H   0  0  0  0  0  0  0  0  0  0  0  0
   -7.0105   -0.3803   -1.5602 H   0  0  0  0  0  0  0  0  0  0  0  0
   -4.9360   -0.1477   -2.6403 H   0  0  0  0  0  0  0  0  0  0  0  0
   -3.6780   -0.9314   -4.3803 H   0  0  0  0  0  0  0  0  0  0  0  0
   -2.3383   -2.0745   -4.2386 H   0  0  0  0  0  0  0  0  0  0  0  0
   -3.6104   -2.1110   -3.0123 H   0  0  0  0  0  0  0  0  0  0  0  0
    6.9662    1.4135   -1.3235 H   0  0  0  0  0  0  0  0  0  0  0  0
    5.6066    2.4665   -0.8706 H   0  0  0  0  0  0  0  0  0  0  0  0
    5.6085    1.6804   -2.4407 H   0  0  0  0  0  0  0  0  0  0  0  0
    5.0627   -1.8195   -1.1391 H   0  0  0  0  0  0  0  0  0  0  0  0
    6.6057   -1.0731   -1.5597 H   0  0  0  0  0  0  0  0  0  0  0  0
    5.1817   -0.8582   -2.6036 H   0  0  0  0  0  0  0  0  0  0  0  0
    5.1189    1.0983    1.2538 H   0  0  0  0  0  0  0  0  0  0  0  0
    5.0569   -0.6541    1.1645 H   0  0  0  0  0  0  0  0  0  0  0  0
    6.5799    0.1724    0.8380 H   0  0  0  0  0  0  0  0  0  0  0  0
    0.5499   -3.8571    3.2980 H   0  0  0  0  0  0  0  0  0  0  0  0
    1.3180   -3.4693    1.7419 H   0  0  0  0  0  0  0  0  0  0  0  0
   -0.4302   -3.4133    1.8997 H   0  0  0  0  0  0  0  0  0  0  0  0
   -1.5374   -1.4468    3.1853 H   0  0  0  0  0  0  0  0  0  0  0  0
   -0.5255   -0.2037    3.9044 H   0  0  0  0  0  0  0  0  0  0  0  0
   -0.6108   -1.8204    4.6411 H   0  0  0  0  0  0  0  0  0  0  0  0
    2.7789   -1.8016    3.0449 H   0  0  0  0  0  0  0  0  0  0  0  0
    1.9028   -2.1336    4.5553 H   0  0  0  0  0  0  0  0  0  0  0  0
    2.0328   -0.4764    3.9216 H   0  0  0  0  0  0  0  0  0  0  0  0
   -2.9580    4.1799    1.1190 H   0  0  0  0  0  0  0  0  0  0  0  0
   -3.0634    2.8874    2.3787 H   0  0  0  0  0  0  0  0  0  0  0  0
   -1.5976    3.8585    2.2004 H   0  0  0  0  0  0  0  0  0  0  0  0
   -4.5987    2.5205    0.6767 H   0  0  0  0  0  0  0  0  0  0  0  0
  1  2  1  0
  2  3  1  0
  3  4  2  0
  4  5  1  0
  5  6  1  0
  6  7  1  0
  5  8  2  0
  8  9  1  0
  9 10  2  0
 10 11  1  0
 11 12  1  0
 12 13  1  0
 13 14  2  0
 13 15  1  0
 15 16  1  0
 16 17  1  0
 16 18  1  0
 16 19  1  0
 12 20  2  0
 20 21  1  0
 21 22  2  0
 21 23  1  0
 23 24  1  0
 24 25  1  0
 24 26  1  0
 24 27  1  0
  8 28  1  0
 28 29  1  0
 29 30  1  0
 28 31  2  0
 31  3  1  0
 20  9  1  0
  1 32  1  0
  1 33  1  0
  1 34  1  0
  4 35  1  0
  7 36  1  0
  7 37  1  0
  7 38  1  0
 17 39  1  0
 17 40  1  0
 17 41  1  0
 18 42  1  0
 18 43  1  0
 18 44  1  0
 19 45  1  0
 19 46  1  0
 19 47  1  0
 25 48  1  0
 25 49  1  0
 25 50  1  0
 26 51  1  0
 26 52  1  0
 26 53  1  0
 27 54  1  0
 27 55  1  0
 27 56  1  0
 30 57  1  0
 30 58  1  0
 30 59  1  0
 31 60  1  0
M  END
$$$$
