
     RDKit          3D

 50 52  0  0  0  0  0  0  0  0999 V2000
    5.4840    2.9236    0.6669 O   0  0  0  0  0  0  0  0  0  0  0  0
    5.2271    1.7562    0.4441 C   0  0  0  0  0  0  0  0  0  0  0  0
    5.8748    0.7628    1.0750 O   0  0  0  0  0  0  0  0  0  0  0  0
    4.2112    1.2598   -0.5147 C   0  0  0  0  0  0  0  0  0  0  0  0
    3.4598    2.2026   -1.2284 C   0  0  0  0  0  0  0  0  0  0  0  0
    2.4995    1.7782   -2.1447 C   0  0  0  0  0  0  0  0  0  0  0  0
    1.6752    2.7207   -2.8206 N   0  0  0  0  0  0  0  0  0  0  0  0
    0.5086    3.5717   -1.9360 S   0  0  0  0  0  6  0  0  0  0  0  0
   -0.3860    4.1660   -2.9051 O   0  0  0  0  0  0  0  0  0  0  0  0
    1.1616    4.3630   -0.9178 O   0  0  0  0  0  0  0  0  0  0  0  0
   -0.3821    2.2675   -1.1170 C   0  0  0  0  0  0  0  0  0  0  0  0
   -1.4152    1.6099   -1.7835 C   0  0  0  0  0  0  0  0  0  0  0  0
   -2.0739    0.5392   -1.1617 C   0  0  0  0  0  0  0  0  0  0  0  0
   -1.7369    0.0998    0.1335 C   0  0  0  0  0  0  0  0  0  0  0  0
   -2.3977   -0.9825    0.7131 N   0  0  0  0  0  0  0  0  0  0  0  0
   -3.1080   -0.7497    1.9860 C   0  0  0  0  0  0  0  0  0  0  0  0
   -4.4770   -1.4269    1.9878 C   0  0  0  0  0  0  0  0  0  0  0  0
   -4.3737   -2.9272    1.7159 C   0  0  0  0  0  0  0  0  0  0  0  0
   -3.2494   -3.2745    0.7390 C   0  0  0  0  0  0  0  0  0  0  0  0
   -2.8755   -2.0819   -0.1363 C   0  0  0  0  0  0  0  0  0  0  0  0
   -0.7002    0.8163    0.7691 C   0  0  0  0  0  0  0  0  0  0  0  0
   -0.1813    0.3772    2.0458 N   0  0  0  0  0  4  0  0  0  0  0  0
    0.7528   -0.4369    2.0220 O   0  0  0  0  0  0  0  0  0  0  0  0
   -0.6620    0.9022    3.0600 O   0  0  0  0  0  1  0  0  0  0  0  0
   -0.0287    1.8959    0.1769 C   0  0  0  0  0  0  0  0  0  0  0  0
    2.2782    0.4171   -2.3511 C   0  0  0  0  0  0  0  0  0  0  0  0
    3.0177   -0.5297   -1.6314 C   0  0  0  0  0  0  0  0  0  0  0  0
    2.7225   -1.9626   -1.8661 C   0  0  0  0  0  0  0  0  0  0  0  0
    1.8546   -2.3898   -2.6048 O   0  0  0  0  0  0  0  0  0  0  0  0
    3.5293   -2.7811   -1.1733 O   0  0  0  0  0  0  0  0  0  0  0  0
    3.9866   -0.1087   -0.7133 C   0  0  0  0  0  0  0  0  0  0  0  0
    6.4949    1.2263    1.6771 H   0  0  0  0  0  0  0  0  0  0  0  0
    3.6290    3.2668   -1.0669 H   0  0  0  0  0  0  0  0  0  0  0  0
    1.3431    2.4871   -3.7562 H   0  0  0  0  0  0  0  0  0  0  0  0
   -1.7149    1.9120   -2.7855 H   0  0  0  0  0  0  0  0  0  0  0  0
   -2.8795    0.0591   -1.7132 H   0  0  0  0  0  0  0  0  0  0  0  0
   -2.5057   -1.1536    2.8082 H   0  0  0  0  0  0  0  0  0  0  0  0
   -3.2560    0.3216    2.1699 H   0  0  0  0  0  0  0  0  0  0  0  0
   -4.9827   -1.2583    2.9453 H   0  0  0  0  0  0  0  0  0  0  0  0
   -5.1073   -0.9654    1.2163 H   0  0  0  0  0  0  0  0  0  0  0  0
   -4.2085   -3.4679    2.6557 H   0  0  0  0  0  0  0  0  0  0  0  0
   -5.3336   -3.2823    1.3224 H   0  0  0  0  0  0  0  0  0  0  0  0
   -3.5476   -4.1263    0.1175 H   0  0  0  0  0  0  0  0  0  0  0  0
   -2.3677   -3.5946    1.3099 H   0  0  0  0  0  0  0  0  0  0  0  0
   -3.7466   -1.7725   -0.7267 H   0  0  0  0  0  0  0  0  0  0  0  0
   -2.0857   -2.3894   -0.8322 H   0  0  0  0  0  0  0  0  0  0  0  0
    0.7773    2.4035    0.7041 H   0  0  0  0  0  0  0  0  0  0  0  0
    1.5183    0.0821   -3.0542 H   0  0  0  0  0  0  0  0  0  0  0  0
    3.2184   -3.6835   -1.3958 H   0  0  0  0  0  0  0  0  0  0  0  0
    4.5589   -0.8429   -0.1498 H   0  0  0  0  0  0  0  0  0  0  0  0
  1  2  2  0
  2  3  1  0
  2  4  1  0
  4  5  2  0
  5  6  1  0
  6  7  1  0
  7  8  1  0
  8  9  2  0
  8 10  2  0
  8 11  1  0
 11 12  2  0
 12 13  1  0
 13 14  2  0
 14 15  1  0
 15 16  1  0
 16 17  1  0
 17 18  1  0
 18 19  1  0
 19 20  1  0
 14 21  1  0
 21 22  1  0
 22 23  2  0
 22 24  1  0
 21 25  2  0
  6 26  2  0
 26 27  1  0
 27 28  1  0
 28 29  2  0
 28 30  1  0
 27 31  2  0
 31  4  1  0
 25 11  1  0
 20 15  1  0
  3 32  1  0
  5 33  1  0
  7 34  1  0
 12 35  1  0
 13 36  1  0
 16 37  1  0
 16 38  1  0
 17 39  1  0
 17 40  1  0
 18 41  1  0
 18 42  1  0
 19 43  1  0
 19 44  1  0
 20 45  1  0
 20 46  1  0
 25 47  1  0
 26 48  1  0
 30 49  1  0
 31 50  1  0
M  CHG  2  22   1  24  -1
M  END
$$$$
