
     RDKit          3D

 50 53  0  0  0  0  0  0  0  0999 V2000
    5.7370    0.8920    3.4513 C   0  0  0  0  0  0  0  0  0  0  0  0
    5.9804   -0.0113    2.2497 C   0  0  0  0  0  0  0  0  0  0  0  0
    5.4005    0.5619    1.0252 N   0  0  0  0  0  0  0  0  0  0  0  0
    6.2103    0.3995   -0.1974 C   0  0  0  0  0  0  0  0  0  0  0  0
    6.1270   -1.0176   -0.7501 C   0  0  0  0  0  0  0  0  0  0  0  0
    4.0133    0.6131    0.8496 C   0  0  0  0  0  0  0  0  0  0  0  0
    3.1162   -0.1873    1.5719 C   0  0  0  0  0  0  0  0  0  0  0  0
    1.7302   -0.1134    1.3714 C   0  0  0  0  0  0  0  0  0  0  0  0
    1.1980    0.7733    0.4360 C   0  0  0  0  0  0  0  0  0  0  0  0
   -0.2465    0.8797    0.2169 C   0  0  0  0  0  0  0  0  0  0  0  0
   -1.0300   -0.0661   -0.3198 C   0  0  0  0  0  0  0  0  0  0  0  0
   -0.5469   -1.6425   -0.9012 S   0  0  0  0  0  0  0  0  0  0  0  0
   -2.1711   -1.9619   -1.3492 C   0  0  0  0  0  0  0  0  0  0  0  0
   -2.7858   -2.9602   -1.9144 N   0  0  0  0  0  0  0  0  0  0  0  0
   -4.1168   -2.5767   -2.0140 N   0  0  0  0  0  0  0  0  0  0  0  0
   -4.2559   -1.3647   -1.4871 C   0  0  0  0  0  0  0  0  0  0  0  0
   -5.4892   -0.5935   -1.4055 C   0  0  0  0  0  0  0  0  0  0  0  0
   -6.0230   -0.0734   -2.5956 C   0  0  0  0  0  0  0  0  0  0  0  0
   -7.1926    0.6861   -2.5806 C   0  0  0  0  0  0  0  0  0  0  0  0
   -7.8439    0.9293   -1.3760 C   0  0  0  0  0  0  0  0  0  0  0  0
   -7.3352    0.4021   -0.1886 C   0  0  0  0  0  0  0  0  0  0  0  0
   -6.1660   -0.3775   -0.1879 C   0  0  0  0  0  0  0  0  0  0  0  0
   -5.6693   -0.9359    1.1179 C   0  0  0  0  0  0  0  0  0  0  0  0
   -3.0195   -0.9473   -1.0712 N   0  0  0  0  0  0  0  0  0  0  0  0
   -2.4914    0.1819   -0.4976 C   0  0  0  0  0  0  0  0  0  0  0  0
   -3.1523    1.1624   -0.2142 O   0  0  0  0  0  0  0  0  0  0  0  0
    2.0656    1.5979   -0.2767 C   0  0  0  0  0  0  0  0  0  0  0  0
    3.4486    1.5139   -0.0692 C   0  0  0  0  0  0  0  0  0  0  0  0
    6.2420    0.4880    4.3345 H   0  0  0  0  0  0  0  0  0  0  0  0
    6.1267    1.8988    3.2669 H   0  0  0  0  0  0  0  0  0  0  0  0
    4.6730    0.9839    3.6878 H   0  0  0  0  0  0  0  0  0  0  0  0
    7.0679   -0.1021    2.1338 H   0  0  0  0  0  0  0  0  0  0  0  0
    5.6187   -1.0287    2.4346 H   0  0  0  0  0  0  0  0  0  0  0  0
    5.9255    1.1151   -0.9758 H   0  0  0  0  0  0  0  0  0  0  0  0
    7.2578    0.6314    0.0320 H   0  0  0  0  0  0  0  0  0  0  0  0
    5.1044   -1.2725   -1.0462 H   0  0  0  0  0  0  0  0  0  0  0  0
    6.4563   -1.7539   -0.0099 H   0  0  0  0  0  0  0  0  0  0  0  0
    6.7673   -1.1156   -1.6325 H   0  0  0  0  0  0  0  0  0  0  0  0
    3.4730   -0.9069    2.3016 H   0  0  0  0  0  0  0  0  0  0  0  0
    1.0814   -0.7587    1.9586 H   0  0  0  0  0  0  0  0  0  0  0  0
   -0.6759    1.8366    0.5128 H   0  0  0  0  0  0  0  0  0  0  0  0
   -5.5266   -0.2603   -3.5462 H   0  0  0  0  0  0  0  0  0  0  0  0
   -7.5935    1.0864   -3.5081 H   0  0  0  0  0  0  0  0  0  0  0  0
   -8.7533    1.5247   -1.3598 H   0  0  0  0  0  0  0  0  0  0  0  0
   -7.8645    0.5987    0.7417 H   0  0  0  0  0  0  0  0  0  0  0  0
   -6.4550   -0.9178    1.8810 H   0  0  0  0  0  0  0  0  0  0  0  0
   -4.8253   -0.3464    1.4875 H   0  0  0  0  0  0  0  0  0  0  0  0
   -5.3631   -1.9810    1.0057 H   0  0  0  0  0  0  0  0  0  0  0  0
    1.6846    2.3177   -0.9971 H   0  0  0  0  0  0  0  0  0  0  0  0
    4.0869    2.1989   -0.6213 H   0  0  0  0  0  0  0  0  0  0  0  0
  1  2  1  0
  2  3  1  0
  3  4  1  0
  4  5  1  0
  3  6  1  0
  6  7  2  0
  7  8  1  0
  8  9  2  0
  9 10  1  0
 10 11  2  3
 11 12  1  0
 12 13  1  0
 13 14  2  0
 14 15  1  0
 15 16  2  0
 16 17  1  0
 17 18  2  0
 18 19  1  0
 19 20  2  0
 20 21  1  0
 21 22  2  0
 22 23  1  0
 16 24  1  0
 24 25  1  0
 25 26  2  0
  9 27  1  0
 27 28  2  0
 28  6  1  0
 25 11  1  0
 24 13  1  0
 22 17  1  0
  1 29  1  0
  1 30  1  0
  1 31  1  0
  2 32  1  0
  2 33  1  0
  4 34  1  0
  4 35  1  0
  5 36  1  0
  5 37  1  0
  5 38  1  0
  7 39  1  0
  8 40  1  0
 10 41  1  0
 18 42  1  0
 19 43  1  0
 20 44  1  0
 21 45  1  0
 23 46  1  0
 23 47  1  0
 23 48  1  0
 27 49  1  0
 28 50  1  0
M  END
$$$$
