
     RDKit          3D

 46 49  0  0  0  0  0  0  0  0999 V2000
    6.6497   -0.9528   -0.2474 N   0  0  0  0  0  0  0  0  0  0  0  0
    5.9631   -0.2236    1.1084 S   0  0  0  0  0  6  0  0  0  0  0  0
    6.4423    1.1367    1.1679 O   0  0  0  0  0  0  0  0  0  0  0  0
    6.1487   -1.1625    2.1907 O   0  0  0  0  0  0  0  0  0  0  0  0
    4.2494   -0.2030    0.6628 C   0  0  0  0  0  0  0  0  0  0  0  0
    3.4319   -1.2784    0.9983 C   0  0  0  0  0  0  0  0  0  0  0  0
    2.0815   -1.2497    0.6345 C   0  0  0  0  0  0  0  0  0  0  0  0
    1.5140   -0.1598   -0.0537 C   0  0  0  0  0  0  0  0  0  0  0  0
    0.1646   -0.1652   -0.4014 N   0  0  0  0  0  0  0  0  0  0  0  0
   -0.6240   -1.2462   -0.1268 N   0  0  0  0  0  0  0  0  0  0  0  0
   -1.7762   -1.0350   -0.6881 C   0  0  0  0  0  0  0  0  0  0  0  0
   -2.9109   -1.9829   -0.5910 C   0  0  0  0  0  0  0  0  0  0  0  0
   -2.7808   -3.1147    0.2237 C   0  0  0  0  0  0  0  0  0  0  0  0
   -3.8328   -4.0254    0.3367 C   0  0  0  0  0  0  0  0  0  0  0  0
   -5.0183   -3.8107   -0.3637 C   0  0  0  0  0  0  0  0  0  0  0  0
   -5.1534   -2.6869   -1.1780 C   0  0  0  0  0  0  0  0  0  0  0  0
   -4.1026   -1.7727   -1.2939 C   0  0  0  0  0  0  0  0  0  0  0  0
   -1.8726    0.2382   -1.4827 C   0  0  0  0  0  0  0  0  0  0  0  0
   -0.5561    0.9098   -1.0870 C   0  0  0  0  0  0  0  0  0  0  0  0
   -0.8088    2.1277   -0.2081 C   0  0  0  0  0  0  0  0  0  0  0  0
   -0.8424    3.4057   -0.7925 C   0  0  0  0  0  0  0  0  0  0  0  0
   -1.0951    4.5392   -0.0154 C   0  0  0  0  0  0  0  0  0  0  0  0
   -1.3222    4.4041    1.3521 C   0  0  0  0  0  0  0  0  0  0  0  0
   -1.6646    5.9380    2.4021 Br  0  0  0  0  0  0  0  0  0  0  0  0
   -1.3012    3.1471    1.9496 C   0  0  0  0  0  0  0  0  0  0  0  0
   -1.0496    2.0145    1.1719 C   0  0  0  0  0  0  0  0  0  0  0  0
    2.3682    0.9131   -0.3603 C   0  0  0  0  0  0  0  0  0  0  0  0
    3.7232    0.9005   -0.0061 C   0  0  0  0  0  0  0  0  0  0  0  0
    5.9913   -1.0587   -1.0185 H   0  0  0  0  0  0  0  0  0  0  0  0
    7.0531   -1.8482    0.0334 H   0  0  0  0  0  0  0  0  0  0  0  0
    3.8223   -2.1359    1.5409 H   0  0  0  0  0  0  0  0  0  0  0  0
    1.4533   -2.0974    0.9034 H   0  0  0  0  0  0  0  0  0  0  0  0
   -1.8606   -3.2935    0.7764 H   0  0  0  0  0  0  0  0  0  0  0  0
   -3.7254   -4.9013    0.9719 H   0  0  0  0  0  0  0  0  0  0  0  0
   -5.8373   -4.5204   -0.2749 H   0  0  0  0  0  0  0  0  0  0  0  0
   -6.0795   -2.5232   -1.7241 H   0  0  0  0  0  0  0  0  0  0  0  0
   -4.2384   -0.9103   -1.9391 H   0  0  0  0  0  0  0  0  0  0  0  0
   -2.7651    0.8166   -1.2293 H   0  0  0  0  0  0  0  0  0  0  0  0
   -1.8794   -0.0137   -2.5486 H   0  0  0  0  0  0  0  0  0  0  0  0
   -0.0166    1.2110   -1.9941 H   0  0  0  0  0  0  0  0  0  0  0  0
   -0.6692    3.5303   -1.8596 H   0  0  0  0  0  0  0  0  0  0  0  0
   -1.1120    5.5196   -0.4844 H   0  0  0  0  0  0  0  0  0  0  0  0
   -1.4750    3.0346    3.0166 H   0  0  0  0  0  0  0  0  0  0  0  0
   -1.0313    1.0378    1.6546 H   0  0  0  0  0  0  0  0  0  0  0  0
    1.9937    1.7924   -0.8761 H   0  0  0  0  0  0  0  0  0  0  0  0
    4.3510    1.7550   -0.2511 H   0  0  0  0  0  0  0  0  0  0  0  0
  1  2  1  0
  2  3  2  0
  2  4  2  0
  2  5  1  0
  5  6  2  0
  6  7  1  0
  7  8  2  0
  8  9  1  0
  9 10  1  0
 10 11  2  0
 11 12  1  0
 12 13  2  0
 13 14  1  0
 14 15  2  0
 15 16  1  0
 16 17  2  0
 11 18  1  0
 18 19  1  0
 19 20  1  0
 20 21  2  0
 21 22  1  0
 22 23  2  0
 23 24  1  0
 23 25  1  0
 25 26  2  0
  8 27  1  0
 27 28  2  0
 28  5  1  0
 19  9  1  0
 26 20  1  0
 17 12  1  0
  1 29  1  0
  1 30  1  0
  6 31  1  0
  7 32  1  0
 13 33  1  0
 14 34  1  0
 15 35  1  0
 16 36  1  0
 17 37  1  0
 18 38  1  0
 18 39  1  0
 19 40  1  0
 21 41  1  0
 22 42  1  0
 25 43  1  0
 26 44  1  0
 27 45  1  0
 28 46  1  0
M  END
$$$$
