
     RDKit          3D

 58 61  0  0  0  0  0  0  0  0999 V2000
   -0.1448    0.2371   -1.7985 O   0  0  0  0  0  0  0  0  0  0  0  0
   -0.1843   -0.0556   -0.6104 C   0  0  0  0  0  0  0  0  0  0  0  0
   -1.2466   -0.6900   -0.0046 N   0  0  0  0  0  0  0  0  0  0  0  0
   -2.4983   -0.9412   -0.7119 C   0  0  0  0  0  0  0  0  0  0  0  0
   -3.6817   -0.0772   -0.1775 C   0  0  0  0  0  0  0  0  0  0  0  0
   -3.4008    1.4146   -0.2975 C   0  0  0  0  0  0  0  0  0  0  0  0
   -2.9497    2.1451   -1.3831 C   0  0  0  0  0  0  0  0  0  0  0  0
   -2.7894    3.5300   -1.0901 C   0  0  0  0  0  0  0  0  0  0  0  0
   -3.1090    3.8204    0.2156 C   0  0  0  0  0  0  0  0  0  0  0  0
   -3.5733    2.4274    1.0862 S   0  0  0  0  0  0  0  0  0  0  0  0
   -4.9732   -0.5094   -0.7508 N   0  0  0  0  0  0  0  0  0  0  0  0
   -6.1474   -0.0483    0.0107 C   0  0  0  0  0  0  0  0  0  0  0  0
   -7.4486   -0.3507   -0.7487 C   0  0  0  0  0  0  0  0  0  0  0  0
   -7.5409    0.3367   -2.0041 O   0  0  0  0  0  0  0  0  0  0  0  0
   -6.2625    0.6828   -2.5554 C   0  0  0  0  0  0  0  0  0  0  0  0
   -5.1581   -0.3283   -2.2009 C   0  0  0  0  0  0  0  0  0  0  0  0
    0.9782    0.2512    0.2634 C   0  0  0  0  0  0  0  0  0  0  0  0
    0.8117    0.6032    1.6060 C   0  0  0  0  0  0  0  0  0  0  0  0
    1.9294    0.8968    2.3927 C   0  0  0  0  0  0  0  0  0  0  0  0
    3.2200    0.8502    1.8499 C   0  0  0  0  0  0  0  0  0  0  0  0
    4.5198    1.2116    2.9260 Cl  0  0  0  0  0  0  0  0  0  0  0  0
    3.3820    0.5131    0.5039 C   0  0  0  0  0  0  0  0  0  0  0  0
    4.9840    0.4560   -0.2494 S   0  0  0  0  0  6  0  0  0  0  0  0
    5.6174    1.7367   -0.0280 O   0  0  0  0  0  0  0  0  0  0  0  0
    4.8360   -0.0711   -1.5905 O   0  0  0  0  0  0  0  0  0  0  0  0
    5.8063   -0.7363    0.6506 N   0  0  0  0  0  0  0  0  0  0  0  0
    5.2806   -2.1303    0.5025 C   0  0  0  0  0  0  0  0  0  0  0  0
    6.0270   -3.0601    1.4667 C   0  0  0  0  0  0  0  0  0  0  0  0
    7.4393   -3.0439    1.2136 O   0  0  0  0  0  0  0  0  0  0  0  0
    7.9614   -1.7160    1.3774 C   0  0  0  0  0  0  0  0  0  0  0  0
    7.2874   -0.7293    0.4172 C   0  0  0  0  0  0  0  0  0  0  0  0
    2.2620    0.2230   -0.2925 C   0  0  0  0  0  0  0  0  0  0  0  0
   -1.1785   -0.9960    0.9554 H   0  0  0  0  0  0  0  0  0  0  0  0
   -2.3456   -0.7935   -1.7859 H   0  0  0  0  0  0  0  0  0  0  0  0
   -2.7235   -2.0034   -0.5569 H   0  0  0  0  0  0  0  0  0  0  0  0
   -3.7279   -0.3192    0.8954 H   0  0  0  0  0  0  0  0  0  0  0  0
   -2.7238    1.7075   -2.3483 H   0  0  0  0  0  0  0  0  0  0  0  0
   -2.4495    4.2717   -1.8023 H   0  0  0  0  0  0  0  0  0  0  0  0
   -3.0784    4.7844    0.7048 H   0  0  0  0  0  0  0  0  0  0  0  0
   -6.1711   -0.5493    0.9848 H   0  0  0  0  0  0  0  0  0  0  0  0
   -6.1060    1.0326    0.1833 H   0  0  0  0  0  0  0  0  0  0  0  0
   -8.3129   -0.0498   -0.1485 H   0  0  0  0  0  0  0  0  0  0  0  0
   -7.5465   -1.4255   -0.9435 H   0  0  0  0  0  0  0  0  0  0  0  0
   -6.0018    1.6884   -2.2059 H   0  0  0  0  0  0  0  0  0  0  0  0
   -6.3828    0.7389   -3.6430 H   0  0  0  0  0  0  0  0  0  0  0  0
   -4.2354   -0.0599   -2.7218 H   0  0  0  0  0  0  0  0  0  0  0  0
   -5.4556   -1.3063   -2.6006 H   0  0  0  0  0  0  0  0  0  0  0  0
   -0.1790    0.6888    2.0452 H   0  0  0  0  0  0  0  0  0  0  0  0
    1.7849    1.1757    3.4351 H   0  0  0  0  0  0  0  0  0  0  0  0
    5.4356   -2.4702   -0.5280 H   0  0  0  0  0  0  0  0  0  0  0  0
    4.2125   -2.1614    0.7355 H   0  0  0  0  0  0  0  0  0  0  0  0
    5.8470   -2.7753    2.5106 H   0  0  0  0  0  0  0  0  0  0  0  0
    5.6786   -4.0895    1.3353 H   0  0  0  0  0  0  0  0  0  0  0  0
    9.0366   -1.7561    1.1761 H   0  0  0  0  0  0  0  0  0  0  0  0
    7.8265   -1.4068    2.4210 H   0  0  0  0  0  0  0  0  0  0  0  0
    7.4893   -1.0218   -0.6201 H   0  0  0  0  0  0  0  0  0  0  0  0
    7.6943    0.2707    0.5969 H   0  0  0  0  0  0  0  0  0  0  0  0
    2.3791   -0.0228   -1.3479 H   0  0  0  0  0  0  0  0  0  0  0  0
  1  2  2  0
  2  3  1  0
  3  4  1  0
  4  5  1  0
  5  6  1  0
  6  7  2  0
  7  8  1  0
  8  9  2  0
  9 10  1  0
  5 11  1  0
 11 12  1  0
 12 13  1  0
 13 14  1  0
 14 15  1  0
 15 16  1  0
  2 17  1  0
 17 18  2  0
 18 19  1  0
 19 20  2  0
 20 21  1  0
 20 22  1  0
 22 23  1  0
 23 24  2  0
 23 25  2  0
 23 26  1  0
 26 27  1  0
 27 28  1  0
 28 29  1  0
 29 30  1  0
 30 31  1  0
 22 32  2  0
 10  6  1  0
 16 11  1  0
 32 17  1  0
 31 26  1  0
  3 33  1  0
  4 34  1  0
  4 35  1  0
  5 36  1  0
  7 37  1  0
  8 38  1  0
  9 39  1  0
 12 40  1  0
 12 41  1  0
 13 42  1  0
 13 43  1  0
 15 44  1  0
 15 45  1  0
 16 46  1  0
 16 47  1  0
 18 48  1  0
 19 49  1  0
 27 50  1  0
 27 51  1  0
 28 52  1  0
 28 53  1  0
 30 54  1  0
 30 55  1  0
 31 56  1  0
 31 57  1  0
 32 58  1  0
M  END
$$$$
