
     RDKit          3D

 60 63  0  0  0  0  0  0  0  0999 V2000
   -8.2388    1.6393    1.0161 O   0  0  0  0  0  0  0  0  0  0  0  0
   -8.2775    0.7106    0.2207 C   0  0  0  0  0  0  0  0  0  0  0  0
   -9.4453    0.0786    0.0006 O   0  0  0  0  0  0  0  0  0  0  0  0
   -7.0942    0.1993   -0.5798 C   0  0  0  0  0  0  0  0  0  0  0  0
   -7.3392   -1.1452   -1.2896 C   0  0  0  0  0  0  0  0  0  0  0  0
   -7.0922   -2.3472   -0.4267 C   0  0  0  0  0  0  0  0  0  0  0  0
   -6.4694   -2.2909    0.7561 C   0  0  0  0  0  0  0  0  0  0  0  0
   -5.9199   -1.0243    1.3384 C   0  0  0  0  0  0  0  0  0  0  0  0
   -5.8600    0.1584    0.3517 C   0  0  0  0  0  0  0  0  0  0  0  0
   -4.5470    0.1840   -0.4399 C   0  0  0  0  0  0  0  0  0  0  0  0
   -4.5231    0.0428   -1.6585 O   0  0  0  0  0  0  0  0  0  0  0  0
   -3.4442    0.4110    0.3721 N   0  0  0  0  0  0  0  0  0  0  0  0
   -2.0883    0.4633   -0.0103 C   0  0  0  0  0  0  0  0  0  0  0  0
   -1.1500    0.7370    0.9875 C   0  0  0  0  0  0  0  0  0  0  0  0
    0.2203    0.8030    0.6903 C   0  0  0  0  0  0  0  0  0  0  0  0
    0.7017    0.5846   -0.6061 C   0  0  0  0  0  0  0  0  0  0  0  0
    2.0568    0.6563   -0.9502 N   0  0  0  0  0  0  0  0  0  0  0  0
    3.0063    1.2538    0.0099 C   0  0  0  0  0  0  0  0  0  0  0  0
    4.3846    1.4904   -0.6536 C   0  0  0  0  0  0  0  0  0  0  0  0
    4.9860    0.3074   -1.3160 N   0  0  0  0  0  0  0  0  0  0  0  0
    5.4378   -0.7122   -0.3556 C   0  0  0  0  0  0  0  0  0  0  0  0
    6.6354   -0.2700    0.4600 C   0  0  0  0  0  0  0  0  0  0  0  0
    6.5717   -0.2203    1.8587 C   0  0  0  0  0  0  0  0  0  0  0  0
    7.6832    0.1785    2.6044 C   0  0  0  0  0  0  0  0  0  0  0  0
    8.8685    0.5271    1.9617 C   0  0  0  0  0  0  0  0  0  0  0  0
    8.9454    0.4793    0.5725 C   0  0  0  0  0  0  0  0  0  0  0  0
    7.8354    0.0824   -0.1747 C   0  0  0  0  0  0  0  0  0  0  0  0
    3.9838   -0.2485   -2.2523 C   0  0  0  0  0  0  0  0  0  0  0  0
    2.5905   -0.5393   -1.6448 C   0  0  0  0  0  0  0  0  0  0  0  0
   -0.2608    0.3263   -1.5946 C   0  0  0  0  0  0  0  0  0  0  0  0
   -1.6321    0.2595   -1.3067 C   0  0  0  0  0  0  0  0  0  0  0  0
  -10.0767    0.5301    0.5994 H   0  0  0  0  0  0  0  0  0  0  0  0
   -6.9481    0.9565   -1.3627 H   0  0  0  0  0  0  0  0  0  0  0  0
   -8.3568   -1.1998   -1.6922 H   0  0  0  0  0  0  0  0  0  0  0  0
   -6.6785   -1.2269   -2.1613 H   0  0  0  0  0  0  0  0  0  0  0  0
   -7.4437   -3.3053   -0.8040 H   0  0  0  0  0  0  0  0  0  0  0  0
   -6.3388   -3.2035    1.3340 H   0  0  0  0  0  0  0  0  0  0  0  0
   -4.9289   -1.2419    1.7519 H   0  0  0  0  0  0  0  0  0  0  0  0
   -6.5569   -0.7512    2.1899 H   0  0  0  0  0  0  0  0  0  0  0  0
   -5.8347    1.0826    0.9482 H   0  0  0  0  0  0  0  0  0  0  0  0
   -3.6259    0.5870    1.3522 H   0  0  0  0  0  0  0  0  0  0  0  0
   -1.4616    0.9066    2.0145 H   0  0  0  0  0  0  0  0  0  0  0  0
    0.8990    1.0161    1.5096 H   0  0  0  0  0  0  0  0  0  0  0  0
    2.6321    2.2266    0.3554 H   0  0  0  0  0  0  0  0  0  0  0  0
    3.1223    0.6044    0.8862 H   0  0  0  0  0  0  0  0  0  0  0  0
    5.0742    1.9191    0.0818 H   0  0  0  0  0  0  0  0  0  0  0  0
    4.2646    2.2673   -1.4201 H   0  0  0  0  0  0  0  0  0  0  0  0
    4.6291   -1.0350    0.3112 H   0  0  0  0  0  0  0  0  0  0  0  0
    5.7534   -1.6138   -0.8986 H   0  0  0  0  0  0  0  0  0  0  0  0
    5.6560   -0.4902    2.3763 H   0  0  0  0  0  0  0  0  0  0  0  0
    7.6283    0.2168    3.6884 H   0  0  0  0  0  0  0  0  0  0  0  0
    9.7319    0.8373    2.5438 H   0  0  0  0  0  0  0  0  0  0  0  0
    9.8683    0.7521    0.0701 H   0  0  0  0  0  0  0  0  0  0  0  0
    7.8997    0.0538   -1.2601 H   0  0  0  0  0  0  0  0  0  0  0  0
    3.8595    0.4729   -3.0704 H   0  0  0  0  0  0  0  0  0  0  0  0
    4.3758   -1.1585   -2.7229 H   0  0  0  0  0  0  0  0  0  0  0  0
    1.9410   -0.8662   -2.4640 H   0  0  0  0  0  0  0  0  0  0  0  0
    2.6577   -1.3735   -0.9349 H   0  0  0  0  0  0  0  0  0  0  0  0
    0.0420    0.2061   -2.6318 H   0  0  0  0  0  0  0  0  0  0  0  0
   -2.3096    0.0554   -2.1288 H   0  0  0  0  0  0  0  0  0  0  0  0
  1  2  2  0
  2  3  1  0
  2  4  1  0
  4  5  1  0
  5  6  1  0
  6  7  2  0
  7  8  1  0
  8  9  1  0
  9 10  1  0
 10 11  2  0
 10 12  1  0
 12 13  1  0
 13 14  2  0
 14 15  1  0
 15 16  2  0
 16 17  1  0
 17 18  1  0
 18 19  1  0
 19 20  1  0
 20 21  1  0
 21 22  1  0
 22 23  2  0
 23 24  1  0
 24 25  2  0
 25 26  1  0
 26 27  2  0
 20 28  1  0
 28 29  1  0
 16 30  1  0
 30 31  2  0
  9  4  1  0
 31 13  1  0
 29 17  1  0
 27 22  1  0
  3 32  1  0
  4 33  1  0
  5 34  1  0
  5 35  1  0
  6 36  1  0
  7 37  1  0
  8 38  1  0
  8 39  1  0
  9 40  1  0
 12 41  1  0
 14 42  1  0
 15 43  1  0
 18 44  1  0
 18 45  1  0
 19 46  1  0
 19 47  1  0
 21 48  1  0
 21 49  1  0
 23 50  1  0
 24 51  1  0
 25 52  1  0
 26 53  1  0
 27 54  1  0
 28 55  1  0
 28 56  1  0
 29 57  1  0
 29 58  1  0
 30 59  1  0
 31 60  1  0
M  END
$$$$
