
     RDKit          3D

 49 51  0  0  0  0  0  0  0  0999 V2000
   -6.3395   -0.3328    2.7841 C   0  0  0  0  0  0  0  0  0  0  0  0
   -4.9313   -0.1791    2.6907 O   0  0  0  0  0  0  0  0  0  0  0  0
   -4.4024    0.0938    1.4541 C   0  0  0  0  0  0  0  0  0  0  0  0
   -5.1555    0.2559    0.2866 C   0  0  0  0  0  0  0  0  0  0  0  0
   -4.5256    0.5300   -0.9326 C   0  0  0  0  0  0  0  0  0  0  0  0
   -3.1358    0.6470   -1.0018 C   0  0  0  0  0  0  0  0  0  0  0  0
   -2.5022    0.9906   -2.2810 C   0  0  0  0  0  0  0  0  0  0  0  0
   -1.4668    0.3607   -2.8555 C   0  0  0  0  0  0  0  0  0  0  0  0
   -0.7079    0.9395   -4.2973 S   0  0  0  0  0  0  0  0  0  0  0  0
    0.6100   -0.2072   -4.1611 C   0  0  0  0  0  0  0  0  0  0  0  0
    1.5373   -0.2491   -4.9549 O   0  0  0  0  0  0  0  0  0  0  0  0
    0.4262   -1.0109   -3.0711 N   0  0  0  0  0  0  0  0  0  0  0  0
    1.3752   -2.0560   -2.7221 C   0  0  0  0  0  0  0  0  0  0  0  0
    2.7395   -1.5265   -2.2750 C   0  0  0  0  0  0  0  0  0  0  0  0
    2.6821   -0.7093   -0.9940 C   0  0  0  0  0  0  0  0  0  0  0  0
    1.6229   -0.4118   -0.4555 O   0  0  0  0  0  0  0  0  0  0  0  0
    3.9503   -0.3475   -0.5677 N   0  0  0  0  0  0  0  0  0  0  0  0
    4.2899    0.4126    0.5716 C   0  0  0  0  0  0  0  0  0  0  0  0
    5.6518    0.6591    0.7920 C   0  0  0  0  0  0  0  0  0  0  0  0
    6.0736    1.4024    1.8977 C   0  0  0  0  0  0  0  0  0  0  0  0
    5.1370    1.9074    2.7946 C   0  0  0  0  0  0  0  0  0  0  0  0
    3.7814    1.6679    2.5849 C   0  0  0  0  0  0  0  0  0  0  0  0
    3.3593    0.9236    1.4782 C   0  0  0  0  0  0  0  0  0  0  0  0
   -0.7616   -0.8682   -2.3876 C   0  0  0  0  0  0  0  0  0  0  0  0
   -1.2086   -1.6582   -1.5694 O   0  0  0  0  0  0  0  0  0  0  0  0
   -2.3824    0.5112    0.1711 C   0  0  0  0  0  0  0  0  0  0  0  0
   -3.0016    0.2069    1.3895 C   0  0  0  0  0  0  0  0  0  0  0  0
   -2.3087    0.0442    2.5658 O   0  0  0  0  0  0  0  0  0  0  0  0
   -0.9693   -0.4222    2.4327 C   0  0  0  0  0  0  0  0  0  0  0  0
   -6.5832   -0.5569    3.8271 H   0  0  0  0  0  0  0  0  0  0  0  0
   -6.6874   -1.1730    2.1741 H   0  0  0  0  0  0  0  0  0  0  0  0
   -6.8567    0.5938    2.5144 H   0  0  0  0  0  0  0  0  0  0  0  0
   -6.2369    0.1737    0.2891 H   0  0  0  0  0  0  0  0  0  0  0  0
   -5.1349    0.6484   -1.8258 H   0  0  0  0  0  0  0  0  0  0  0  0
   -2.9254    1.8732   -2.7576 H   0  0  0  0  0  0  0  0  0  0  0  0
    1.5176   -2.6766   -3.6150 H   0  0  0  0  0  0  0  0  0  0  0  0
    0.9553   -2.6977   -1.9395 H   0  0  0  0  0  0  0  0  0  0  0  0
    3.1899   -0.9023   -3.0545 H   0  0  0  0  0  0  0  0  0  0  0  0
    3.4052   -2.3810   -2.1032 H   0  0  0  0  0  0  0  0  0  0  0  0
    4.7297   -0.6512   -1.1385 H   0  0  0  0  0  0  0  0  0  0  0  0
    6.4057    0.2784    0.1081 H   0  0  0  0  0  0  0  0  0  0  0  0
    7.1325    1.5875    2.0574 H   0  0  0  0  0  0  0  0  0  0  0  0
    5.4606    2.4867    3.6556 H   0  0  0  0  0  0  0  0  0  0  0  0
    3.0451    2.0604    3.2822 H   0  0  0  0  0  0  0  0  0  0  0  0
    2.2934    0.7636    1.3566 H   0  0  0  0  0  0  0  0  0  0  0  0
   -1.3054    0.6438    0.1248 H   0  0  0  0  0  0  0  0  0  0  0  0
   -0.3046    0.3934    2.1314 H   0  0  0  0  0  0  0  0  0  0  0  0
   -0.8980   -1.2670    1.7387 H   0  0  0  0  0  0  0  0  0  0  0  0
   -0.6396   -0.7713    3.4160 H   0  0  0  0  0  0  0  0  0  0  0  0
  1  2  1  0
  2  3  1  0
  3  4  2  0
  4  5  1  0
  5  6  2  0
  6  7  1  0
  7  8  2  3
  8  9  1  0
  9 10  1  0
 10 11  2  0
 10 12  1  0
 12 13  1  0
 13 14  1  0
 14 15  1  0
 15 16  2  0
 15 17  1  0
 17 18  1  0
 18 19  2  0
 19 20  1  0
 20 21  2  0
 21 22  1  0
 22 23  2  0
 12 24  1  0
 24 25  2  0
  6 26  1  0
 26 27  2  0
 27 28  1  0
 28 29  1  0
 27  3  1  0
 24  8  1  0
 23 18  1  0
  1 30  1  0
  1 31  1  0
  1 32  1  0
  4 33  1  0
  5 34  1  0
  7 35  1  0
 13 36  1  0
 13 37  1  0
 14 38  1  0
 14 39  1  0
 17 40  1  0
 19 41  1  0
 20 42  1  0
 21 43  1  0
 22 44  1  0
 23 45  1  0
 26 46  1  0
 29 47  1  0
 29 48  1  0
 29 49  1  0
M  END
$$$$
