
     RDKit          3D

 65 69  0  0  0  0  0  0  0  0999 V2000
   -6.9633    2.9317    2.2358 C   0  0  0  0  0  0  0  0  0  0  0  0
   -5.7693    3.8106    2.5737 C   0  0  0  0  0  0  0  0  0  0  0  0
   -4.7507    3.0592    3.2285 O   0  0  0  0  0  0  0  0  0  0  0  0
   -3.8195    2.4053    2.4719 C   0  0  0  0  0  0  0  0  0  0  0  0
   -2.8340    1.7463    3.2096 C   0  0  0  0  0  0  0  0  0  0  0  0
   -1.8161    1.0288    2.5725 C   0  0  0  0  0  0  0  0  0  0  0  0
   -1.7696    0.9524    1.1736 C   0  0  0  0  0  0  0  0  0  0  0  0
   -0.6861    0.1881    0.4285 C   0  0  0  0  0  0  0  0  0  0  0  0
    0.6864    0.8736    0.5616 C   0  0  0  0  0  0  0  0  0  0  0  0
    1.2997    1.0505   -0.8024 C   0  0  0  0  0  0  0  0  0  0  0  0
    0.7297    1.6799   -1.6947 O   0  0  0  0  0  0  0  0  0  0  0  0
    2.6287    0.4872   -1.0969 C   0  0  0  0  0  0  0  0  0  0  0  0
    2.7599   -0.8909   -1.3441 C   0  0  0  0  0  0  0  0  0  0  0  0
    4.0117   -1.4202   -1.6659 C   0  0  0  0  0  0  0  0  0  0  0  0
    5.0875   -0.5549   -1.7320 C   0  0  0  0  0  0  0  0  0  0  0  0
    4.9535    0.8050   -1.5045 C   0  0  0  0  0  0  0  0  0  0  0  0
    3.7230    1.3559   -1.1921 C   0  0  0  0  0  0  0  0  0  0  0  0
    6.2559    1.4724   -1.7253 C   0  0  0  0  0  0  0  0  0  0  0  0
    7.1731    0.2414   -1.8252 C   0  0  0  0  0  0  0  0  0  0  0  0
    8.0121    0.0303   -0.5667 C   0  0  0  0  0  0  0  0  0  0  0  0
    6.3619   -0.9431   -2.0451 O   0  0  0  0  0  0  0  0  0  0  0  0
    1.4030   -0.0362    1.5046 C   0  0  0  0  0  0  0  0  0  0  0  0
    2.4728    0.1778    2.0431 O   0  0  0  0  0  0  0  0  0  0  0  0
    0.6068   -1.3218    1.6775 C   0  0  0  0  0  0  0  0  0  0  0  0
    0.9385   -2.2559    2.3765 O   0  0  0  0  0  0  0  0  0  0  0  0
   -0.5255   -1.1835    0.9045 N   0  0  0  0  0  0  0  0  0  0  0  0
   -1.6550   -2.1018    0.9952 C   0  0  0  0  0  0  0  0  0  0  0  0
   -1.3488   -3.5074    0.4703 C   0  0  0  0  0  0  0  0  0  0  0  0
   -0.9584   -3.5519   -1.0100 C   0  0  0  0  0  0  0  0  0  0  0  0
   -1.9567   -2.9953   -1.9001 N   0  0  0  0  0  0  0  0  0  0  0  0
   -1.7971   -1.9140   -2.7203 C   0  0  0  0  0  0  0  0  0  0  0  0
   -3.0226   -1.7339   -3.3158 C   0  0  0  0  0  0  0  0  0  0  0  0
   -3.9067   -2.6978   -2.9027 N   0  0  0  0  0  0  0  0  0  0  0  0
   -3.2283   -3.4633   -2.0768 C   0  0  0  0  0  0  0  0  0  0  0  0
   -2.7627    1.6193    0.4385 C   0  0  0  0  0  0  0  0  0  0  0  0
   -3.7798    2.3362    1.0812 C   0  0  0  0  0  0  0  0  0  0  0  0
   -6.6708    2.0868    1.6038 H   0  0  0  0  0  0  0  0  0  0  0  0
   -7.4023    2.5077    3.1468 H   0  0  0  0  0  0  0  0  0  0  0  0
   -7.7357    3.5094    1.7157 H   0  0  0  0  0  0  0  0  0  0  0  0
   -6.0939    4.5795    3.2876 H   0  0  0  0  0  0  0  0  0  0  0  0
   -5.3907    4.3533    1.7020 H   0  0  0  0  0  0  0  0  0  0  0  0
   -2.8640    1.7900    4.2968 H   0  0  0  0  0  0  0  0  0  0  0  0
   -1.0773    0.5295    3.1949 H   0  0  0  0  0  0  0  0  0  0  0  0
   -0.9861    0.0977   -0.6218 H   0  0  0  0  0  0  0  0  0  0  0  0
    0.6193    1.8683    1.0210 H   0  0  0  0  0  0  0  0  0  0  0  0
    1.8970   -1.5502   -1.3175 H   0  0  0  0  0  0  0  0  0  0  0  0
    4.1424   -2.4781   -1.8643 H   0  0  0  0  0  0  0  0  0  0  0  0
    3.6089    2.4246   -1.0413 H   0  0  0  0  0  0  0  0  0  0  0  0
    6.2350    2.0175   -2.6743 H   0  0  0  0  0  0  0  0  0  0  0  0
    6.5390    2.1517   -0.9165 H   0  0  0  0  0  0  0  0  0  0  0  0
    7.8492    0.3472   -2.6824 H   0  0  0  0  0  0  0  0  0  0  0  0
    7.3827   -0.0706    0.3249 H   0  0  0  0  0  0  0  0  0  0  0  0
    8.7021    0.8690   -0.4156 H   0  0  0  0  0  0  0  0  0  0  0  0
    8.5945   -0.8939   -0.6551 H   0  0  0  0  0  0  0  0  0  0  0  0
   -1.9424   -2.1674    2.0510 H   0  0  0  0  0  0  0  0  0  0  0  0
   -2.5040   -1.6786    0.4488 H   0  0  0  0  0  0  0  0  0  0  0  0
   -0.5392   -3.9594    1.0549 H   0  0  0  0  0  0  0  0  0  0  0  0
   -2.2342   -4.1353    0.6353 H   0  0  0  0  0  0  0  0  0  0  0  0
   -0.0214   -3.0057   -1.1747 H   0  0  0  0  0  0  0  0  0  0  0  0
   -0.7882   -4.5891   -1.3293 H   0  0  0  0  0  0  0  0  0  0  0  0
   -0.8680   -1.3741   -2.8148 H   0  0  0  0  0  0  0  0  0  0  0  0
   -3.3128   -0.9676   -4.0268 H   0  0  0  0  0  0  0  0  0  0  0  0
   -3.6085   -4.3496   -1.5805 H   0  0  0  0  0  0  0  0  0  0  0  0
   -2.7584    1.5871   -0.6523 H   0  0  0  0  0  0  0  0  0  0  0  0
   -4.5260    2.8203    0.4575 H   0  0  0  0  0  0  0  0  0  0  0  0
  1  2  1  0
  2  3  1  0
  3  4  1  0
  4  5  2  0
  5  6  1  0
  6  7  2  0
  7  8  1  0
  8  9  1  0
  9 10  1  0
 10 11  2  0
 10 12  1  0
 12 13  2  0
 13 14  1  0
 14 15  2  0
 15 16  1  0
 16 17  2  0
 16 18  1  0
 18 19  1  0
 19 20  1  0
 19 21  1  0
  9 22  1  0
 22 23  2  0
 22 24  1  0
 24 25  2  0
 24 26  1  0
 26 27  1  0
 27 28  1  0
 28 29  1  0
 29 30  1  0
 30 31  1  0
 31 32  2  0
 32 33  1  0
 33 34  2  0
  7 35  1  0
 35 36  2  0
 36  4  1  0
 26  8  1  0
 34 30  1  0
 17 12  1  0
 21 15  1  0
  1 37  1  0
  1 38  1  0
  1 39  1  0
  2 40  1  0
  2 41  1  0
  5 42  1  0
  6 43  1  0
  8 44  1  0
  9 45  1  0
 13 46  1  0
 14 47  1  0
 17 48  1  0
 18 49  1  0
 18 50  1  0
 19 51  1  0
 20 52  1  0
 20 53  1  0
 20 54  1  0
 27 55  1  0
 27 56  1  0
 28 57  1  0
 28 58  1  0
 29 59  1  0
 29 60  1  0
 31 61  1  0
 32 62  1  0
 34 63  1  0
 35 64  1  0
 36 65  1  0
M  END
$$$$
