
     RDKit          3D

 46 48  0  0  0  0  0  0  0  0999 V2000
   -1.1069    4.1580   -0.6889 C   0  0  0  0  0  0  0  0  0  0  0  0
   -0.9429    3.3499    0.5946 C   0  0  0  0  0  0  0  0  0  0  0  0
   -0.6932    1.8404    0.4218 C   0  0  0  0  0  0  0  0  0  0  0  0
   -1.9234    1.0222   -0.6773 S   0  0  0  0  0  0  0  0  0  0  0  0
   -3.2821    0.9343    0.3758 C   0  0  0  0  0  0  0  0  0  0  0  0
   -3.2860    1.0490    1.6797 N   0  0  0  0  0  0  0  0  0  0  0  0
   -4.6053    0.8987    2.0378 C   0  0  0  0  0  0  0  0  0  0  0  0
   -5.1993    0.9349    3.3073 C   0  0  0  0  0  0  0  0  0  0  0  0
   -6.5848    0.7519    3.4057 C   0  0  0  0  0  0  0  0  0  0  0  0
   -7.3624    0.5369    2.2645 C   0  0  0  0  0  0  0  0  0  0  0  0
   -6.7884    0.4965    0.9883 C   0  0  0  0  0  0  0  0  0  0  0  0
   -5.4065    0.6822    0.9187 C   0  0  0  0  0  0  0  0  0  0  0  0
   -4.5261    0.7060   -0.1325 N   0  0  0  0  0  0  0  0  0  0  0  0
    0.7239    1.5277   -0.0981 C   0  0  0  0  0  0  0  0  0  0  0  0
    1.5278    2.4116   -0.3815 O   0  0  0  0  0  0  0  0  0  0  0  0
    0.9802    0.1621   -0.1473 N   0  0  0  0  0  0  0  0  0  0  0  0
    2.1719   -0.4842   -0.5270 C   0  0  0  0  0  0  0  0  0  0  0  0
    2.1617   -1.8826   -0.5488 C   0  0  0  0  0  0  0  0  0  0  0  0
    3.3046   -2.6068   -0.9138 C   0  0  0  0  0  0  0  0  0  0  0  0
    4.4796   -1.9437   -1.2611 C   0  0  0  0  0  0  0  0  0  0  0  0
    5.6726   -2.5920   -1.6399 N   0  0  0  0  0  0  0  0  0  0  0  0
    5.8982   -3.9532   -1.7341 C   0  0  0  0  0  0  0  0  0  0  0  0
    7.3090   -4.2718   -2.1644 C   0  0  0  0  0  0  0  0  0  0  0  0
    5.1027   -4.8526   -1.4873 O   0  0  0  0  0  0  0  0  0  0  0  0
    4.4903   -0.5452   -1.2369 C   0  0  0  0  0  0  0  0  0  0  0  0
    3.3470    0.1790   -0.8731 C   0  0  0  0  0  0  0  0  0  0  0  0
   -0.2663    4.0131   -1.3730 H   0  0  0  0  0  0  0  0  0  0  0  0
   -2.0305    3.8996   -1.2151 H   0  0  0  0  0  0  0  0  0  0  0  0
   -1.1606    5.2251   -0.4486 H   0  0  0  0  0  0  0  0  0  0  0  0
   -0.1130    3.7830    1.1677 H   0  0  0  0  0  0  0  0  0  0  0  0
   -1.8394    3.5007    1.2091 H   0  0  0  0  0  0  0  0  0  0  0  0
   -0.7402    1.3761    1.4156 H   0  0  0  0  0  0  0  0  0  0  0  0
   -4.5916    1.1023    4.1896 H   0  0  0  0  0  0  0  0  0  0  0  0
   -7.0589    0.7785    4.3843 H   0  0  0  0  0  0  0  0  0  0  0  0
   -8.4369    0.3983    2.3702 H   0  0  0  0  0  0  0  0  0  0  0  0
   -7.3939    0.3296    0.1041 H   0  0  0  0  0  0  0  0  0  0  0  0
   -4.7460    0.5854   -1.1094 H   0  0  0  0  0  0  0  0  0  0  0  0
    0.1937   -0.4407    0.0697 H   0  0  0  0  0  0  0  0  0  0  0  0
    1.2658   -2.4386   -0.2839 H   0  0  0  0  0  0  0  0  0  0  0  0
    3.2385   -3.6903   -0.9142 H   0  0  0  0  0  0  0  0  0  0  0  0
    6.4514   -1.9845   -1.8613 H   0  0  0  0  0  0  0  0  0  0  0  0
    7.3207   -5.2362   -2.6801 H   0  0  0  0  0  0  0  0  0  0  0  0
    7.6924   -3.5154   -2.8552 H   0  0  0  0  0  0  0  0  0  0  0  0
    7.9524   -4.3219   -1.2822 H   0  0  0  0  0  0  0  0  0  0  0  0
    5.3860    0.0118   -1.4998 H   0  0  0  0  0  0  0  0  0  0  0  0
    3.4140    1.2622   -0.8698 H   0  0  0  0  0  0  0  0  0  0  0  0
  1  2  1  0
  2  3  1  0
  3  4  1  0
  4  5  1  0
  5  6  2  0
  6  7  1  0
  7  8  2  0
  8  9  1  0
  9 10  2  0
 10 11  1  0
 11 12  2  0
 12 13  1  0
  3 14  1  0
 14 15  2  0
 14 16  1  0
 16 17  1  0
 17 18  2  0
 18 19  1  0
 19 20  2  0
 20 21  1  0
 21 22  1  0
 22 23  1  0
 22 24  2  0
 20 25  1  0
 25 26  2  0
 13  5  1  0
 26 17  1  0
 12  7  1  0
  1 27  1  0
  1 28  1  0
  1 29  1  0
  2 30  1  0
  2 31  1  0
  3 32  1  0
  8 33  1  0
  9 34  1  0
 10 35  1  0
 11 36  1  0
 13 37  1  0
 16 38  1  0
 18 39  1  0
 19 40  1  0
 21 41  1  0
 23 42  1  0
 23 43  1  0
 23 44  1  0
 25 45  1  0
 26 46  1  0
M  END
$$$$
