
     RDKit          3D

 53 56  0  0  0  0  0  0  0  0999 V2000
    4.8636    1.9991    1.7383 C   0  0  0  0  0  0  0  0  0  0  0  0
    4.4603    0.5959    1.5527 N   0  0  0  0  0  0  0  0  0  0  0  0
    5.4975   -0.3637    1.4015 C   0  0  0  0  0  0  0  0  0  0  0  0
    5.1717   -1.7233    1.2269 C   0  0  0  0  0  0  0  0  0  0  0  0
    6.1557   -2.7061    1.0726 C   0  0  0  0  0  0  0  0  0  0  0  0
    7.4994   -2.3537    1.1018 C   0  0  0  0  0  0  0  0  0  0  0  0
    7.8545   -1.0232    1.2939 C   0  0  0  0  0  0  0  0  0  0  0  0
    6.8649   -0.0432    1.4488 C   0  0  0  0  0  0  0  0  0  0  0  0
    3.1916    0.4996    0.9209 C   0  0  0  0  0  0  0  0  0  0  0  0
    3.1071    0.2558   -0.4590 C   0  0  0  0  0  0  0  0  0  0  0  0
    1.8678    0.2015   -1.1121 C   0  0  0  0  0  0  0  0  0  0  0  0
    0.6690    0.3834   -0.4075 C   0  0  0  0  0  0  0  0  0  0  0  0
   -0.5916    0.3762   -1.1668 C   0  0  0  0  0  0  0  0  0  0  0  0
   -1.7399   -0.2701   -0.8726 C   0  0  0  0  0  0  0  0  0  0  0  0
   -1.8695   -1.1115    0.2720 C   0  0  0  0  0  0  0  0  0  0  0  0
   -2.0326   -1.7427    1.2308 N   0  0  0  0  0  0  0  0  0  0  0  0
   -2.8064   -0.1492   -1.8145 C   0  0  0  0  0  0  0  0  0  0  0  0
   -2.7287   -0.1301   -3.1319 N   0  0  0  0  0  0  0  0  0  0  0  0
   -3.9900   -0.0440   -3.6446 N   0  0  0  0  0  0  0  0  0  0  0  0
   -4.8422    0.0154   -2.6446 C   0  0  0  0  0  0  0  0  0  0  0  0
   -4.1378    0.0092   -1.4599 N   0  0  0  0  0  0  0  0  0  0  0  0
   -4.6785    0.1877   -0.1234 C   0  0  0  0  0  0  0  0  0  0  0  0
   -5.9692    0.9979   -0.0334 C   0  0  0  0  0  0  0  0  0  0  0  0
   -7.2170    0.2041   -0.4188 C   0  0  0  0  0  0  0  0  0  0  0  0
   -7.0937   -0.6221   -1.6990 C   0  0  0  0  0  0  0  0  0  0  0  0
   -6.3236    0.0891   -2.8045 C   0  0  0  0  0  0  0  0  0  0  0  0
    0.7282    0.6339    0.9649 C   0  0  0  0  0  0  0  0  0  0  0  0
    1.9782    0.6715    1.6052 C   0  0  0  0  0  0  0  0  0  0  0  0
    1.9809    0.8949    3.0334 N   0  0  0  0  0  4  0  0  0  0  0  0
    2.1796   -0.0818    3.7664 O   0  0  0  0  0  0  0  0  0  0  0  0
    1.7304    2.0486    3.4127 O   0  0  0  0  0  1  0  0  0  0  0  0
    5.5055    2.1050    2.6206 H   0  0  0  0  0  0  0  0  0  0  0  0
    5.3940    2.3773    0.8554 H   0  0  0  0  0  0  0  0  0  0  0  0
    4.0082    2.6630    1.9077 H   0  0  0  0  0  0  0  0  0  0  0  0
    4.1308   -2.0403    1.2255 H   0  0  0  0  0  0  0  0  0  0  0  0
    5.8659   -3.7452    0.9352 H   0  0  0  0  0  0  0  0  0  0  0  0
    8.2672   -3.1138    0.9835 H   0  0  0  0  0  0  0  0  0  0  0  0
    8.9037   -0.7417    1.3283 H   0  0  0  0  0  0  0  0  0  0  0  0
    7.2031    0.9777    1.6016 H   0  0  0  0  0  0  0  0  0  0  0  0
    4.0170    0.1212   -1.0430 H   0  0  0  0  0  0  0  0  0  0  0  0
    1.8543    0.0192   -2.1864 H   0  0  0  0  0  0  0  0  0  0  0  0
   -0.5390    0.9560   -2.0920 H   0  0  0  0  0  0  0  0  0  0  0  0
   -3.9231    0.7265    0.4581 H   0  0  0  0  0  0  0  0  0  0  0  0
   -4.8076   -0.8092    0.3112 H   0  0  0  0  0  0  0  0  0  0  0  0
   -6.0995    1.3467    0.9993 H   0  0  0  0  0  0  0  0  0  0  0  0
   -5.8938    1.9012   -0.6527 H   0  0  0  0  0  0  0  0  0  0  0  0
   -8.0519    0.9084   -0.5223 H   0  0  0  0  0  0  0  0  0  0  0  0
   -7.4888   -0.4696    0.4042 H   0  0  0  0  0  0  0  0  0  0  0  0
   -8.1072   -0.8470   -2.0531 H   0  0  0  0  0  0  0  0  0  0  0  0
   -6.6303   -1.5905   -1.4716 H   0  0  0  0  0  0  0  0  0  0  0  0
   -6.5767   -0.3898   -3.7587 H   0  0  0  0  0  0  0  0  0  0  0  0
   -6.6371    1.1364   -2.8916 H   0  0  0  0  0  0  0  0  0  0  0  0
   -0.1741    0.8098    1.5465 H   0  0  0  0  0  0  0  0  0  0  0  0
  1  2  1  0
  2  3  1  0
  3  4  2  0
  4  5  1  0
  5  6  2  0
  6  7  1  0
  7  8  2  0
  2  9  1  0
  9 10  2  0
 10 11  1  0
 11 12  2  0
 12 13  1  0
 13 14  2  3
 14 15  1  0
 15 16  3  0
 14 17  1  0
 17 18  2  0
 18 19  1  0
 19 20  2  0
 20 21  1  0
 21 22  1  0
 22 23  1  0
 23 24  1  0
 24 25  1  0
 25 26  1  0
 12 27  1  0
 27 28  2  0
 28 29  1  0
 29 30  2  0
 29 31  1  0
  8  3  1  0
 28  9  1  0
 21 17  1  0
 26 20  1  0
  1 32  1  0
  1 33  1  0
  1 34  1  0
  4 35  1  0
  5 36  1  0
  6 37  1  0
  7 38  1  0
  8 39  1  0
 10 40  1  0
 11 41  1  0
 13 42  1  0
 22 43  1  0
 22 44  1  0
 23 45  1  0
 23 46  1  0
 24 47  1  0
 24 48  1  0
 25 49  1  0
 25 50  1  0
 26 51  1  0
 26 52  1  0
 27 53  1  0
M  CHG  2  29   1  31  -1
M  END
$$$$
