
     RDKit          3D

 50 52  0  0  0  0  0  0  0  0999 V2000
    6.8242   -1.2837   -1.3595 C   0  0  0  0  0  0  0  0  0  0  0  0
    5.3876   -1.0164   -1.0107 C   0  0  0  0  0  0  0  0  0  0  0  0
    4.4068   -1.9808   -1.2850 C   0  0  0  0  0  0  0  0  0  0  0  0
    3.0587   -1.7440   -0.9984 C   0  0  0  0  0  0  0  0  0  0  0  0
    1.8679   -2.9354   -1.3257 Cl  0  0  0  0  0  0  0  0  0  0  0  0
    2.7314   -0.5085   -0.4417 C   0  0  0  0  0  0  0  0  0  0  0  0
    1.4847   -0.0873   -0.0962 O   0  0  0  0  0  0  0  0  0  0  0  0
    1.6002    1.1788    0.4135 C   0  0  0  0  0  0  0  0  0  0  0  0
    0.3949    1.8527    0.8599 C   0  0  0  0  0  0  0  0  0  0  0  0
    0.3752    2.9911    1.3189 O   0  0  0  0  0  0  0  0  0  0  0  0
   -0.7451    1.0932    0.7071 N   0  0  0  0  0  0  0  0  0  0  0  0
   -2.0712    1.6400    0.8985 C   0  0  0  0  0  0  0  0  0  0  0  0
   -3.1803    0.5630    1.1399 C   0  0  0  0  0  0  0  0  0  0  0  0
   -4.5243    1.3219    1.2917 C   0  0  0  0  0  0  0  0  0  0  0  0
   -2.9128   -0.1060    2.5114 C   0  0  0  0  0  0  0  0  0  0  0  0
   -3.3914   -0.4345    0.0490 N   0  0  0  0  0  0  0  0  0  0  0  0
   -3.2993    0.1074   -1.3231 C   0  0  0  0  0  0  0  0  0  0  0  0
   -3.7209   -0.9314   -2.3741 C   0  0  0  0  0  0  0  0  0  0  0  0
   -2.9131   -2.1091   -2.2793 O   0  0  0  0  0  0  0  0  0  0  0  0
   -3.0555   -2.6893   -0.9783 C   0  0  0  0  0  0  0  0  0  0  0  0
   -2.6434   -1.7039    0.1323 C   0  0  0  0  0  0  0  0  0  0  0  0
    2.9301    1.5786    0.3911 C   0  0  0  0  0  0  0  0  0  0  0  0
    3.4638    2.8847    0.8552 C   0  0  0  0  0  0  0  0  0  0  0  0
    3.6642    0.4831   -0.1627 C   0  0  0  0  0  0  0  0  0  0  0  0
    5.0185    0.2263   -0.4594 C   0  0  0  0  0  0  0  0  0  0  0  0
    7.0251   -0.9627   -2.3861 H   0  0  0  0  0  0  0  0  0  0  0  0
    7.4969   -0.7472   -0.6820 H   0  0  0  0  0  0  0  0  0  0  0  0
    7.0559   -2.3502   -1.2691 H   0  0  0  0  0  0  0  0  0  0  0  0
    4.6945   -2.9328   -1.7278 H   0  0  0  0  0  0  0  0  0  0  0  0
   -0.6380    0.2602    0.1417 H   0  0  0  0  0  0  0  0  0  0  0  0
   -2.2963    2.2493    0.0150 H   0  0  0  0  0  0  0  0  0  0  0  0
   -2.0361    2.3368    1.7459 H   0  0  0  0  0  0  0  0  0  0  0  0
   -4.7703    1.9115    0.4022 H   0  0  0  0  0  0  0  0  0  0  0  0
   -5.3544    0.6289    1.4749 H   0  0  0  0  0  0  0  0  0  0  0  0
   -4.4903    2.0197    2.1371 H   0  0  0  0  0  0  0  0  0  0  0  0
   -1.9526   -0.6329    2.5327 H   0  0  0  0  0  0  0  0  0  0  0  0
   -2.8831    0.6410    3.3139 H   0  0  0  0  0  0  0  0  0  0  0  0
   -3.7033   -0.8207    2.7691 H   0  0  0  0  0  0  0  0  0  0  0  0
   -2.2677    0.4078   -1.5402 H   0  0  0  0  0  0  0  0  0  0  0  0
   -3.9411    0.9856   -1.4427 H   0  0  0  0  0  0  0  0  0  0  0  0
   -4.7782   -1.2024   -2.2665 H   0  0  0  0  0  0  0  0  0  0  0  0
   -3.5848   -0.5173   -3.3784 H   0  0  0  0  0  0  0  0  0  0  0  0
   -4.0915   -3.0234   -0.8435 H   0  0  0  0  0  0  0  0  0  0  0  0
   -2.4150   -3.5764   -0.9398 H   0  0  0  0  0  0  0  0  0  0  0  0
   -1.5677   -1.5232    0.0495 H   0  0  0  0  0  0  0  0  0  0  0  0
   -2.8305   -2.2108    1.0839 H   0  0  0  0  0  0  0  0  0  0  0  0
    3.2394    3.0352    1.9161 H   0  0  0  0  0  0  0  0  0  0  0  0
    4.5493    2.9435    0.7315 H   0  0  0  0  0  0  0  0  0  0  0  0
    3.0171    3.7055    0.2848 H   0  0  0  0  0  0  0  0  0  0  0  0
    5.7719    0.9845   -0.2606 H   0  0  0  0  0  0  0  0  0  0  0  0
  1  2  1  0
  2  3  2  0
  3  4  1  0
  4  5  1  0
  4  6  2  0
  6  7  1  0
  7  8  1  0
  8  9  1  0
  9 10  2  0
  9 11  1  0
 11 12  1  0
 12 13  1  0
 13 14  1  0
 13 15  1  0
 13 16  1  0
 16 17  1  0
 17 18  1  0
 18 19  1  0
 19 20  1  0
 20 21  1  0
  8 22  2  0
 22 23  1  0
 22 24  1  0
 24 25  2  0
 25  2  1  0
 24  6  1  0
 21 16  1  0
  1 26  1  0
  1 27  1  0
  1 28  1  0
  3 29  1  0
 11 30  1  0
 12 31  1  0
 12 32  1  0
 14 33  1  0
 14 34  1  0
 14 35  1  0
 15 36  1  0
 15 37  1  0
 15 38  1  0
 17 39  1  0
 17 40  1  0
 18 41  1  0
 18 42  1  0
 20 43  1  0
 20 44  1  0
 21 45  1  0
 21 46  1  0
 23 47  1  0
 23 48  1  0
 23 49  1  0
 25 50  1  0
M  END
$$$$
