
     RDKit          3D

 55 57  0  0  0  0  0  0  0  0999 V2000
    8.7892   -0.8780    0.5030 C   0  0  0  0  0  0  0  0  0  0  0  0
    7.3237   -0.5923    0.7775 C   0  0  0  0  0  0  0  0  0  0  0  0
    6.6275   -0.6375   -0.4658 O   0  0  0  0  0  0  0  0  0  0  0  0
    5.2855   -0.3654   -0.4630 C   0  0  0  0  0  0  0  0  0  0  0  0
    4.5285   -0.1178    0.6857 C   0  0  0  0  0  0  0  0  0  0  0  0
    3.1545    0.1469    0.5946 C   0  0  0  0  0  0  0  0  0  0  0  0
    2.5177    0.1677   -0.6498 C   0  0  0  0  0  0  0  0  0  0  0  0
    1.0568    0.4392   -0.8098 C   0  0  0  0  0  0  0  0  0  0  0  0
    0.6314    0.7420   -1.9240 O   0  0  0  0  0  0  0  0  0  0  0  0
    0.1394    0.3216    0.3808 C   0  0  0  0  0  0  0  0  0  0  0  0
   -0.0155    1.5968    1.1406 C   0  0  0  0  0  0  0  0  0  0  0  0
    0.8785    2.3474    1.4843 O   0  0  0  0  0  0  0  0  0  0  0  0
   -1.4806    1.7957    1.5004 C   0  0  0  0  0  0  0  0  0  0  0  0
   -1.9111    2.7186    2.1570 O   0  0  0  0  0  0  0  0  0  0  0  0
   -2.1672    0.7474    0.9216 N   0  0  0  0  0  0  0  0  0  0  0  0
   -3.6243    0.7944    0.7949 C   0  0  0  0  0  0  0  0  0  0  0  0
   -4.1128    1.7787   -0.2900 C   0  0  0  0  0  0  0  0  0  0  0  0
   -5.5740    1.7595   -0.4948 N   0  0  0  0  0  0  0  0  0  0  0  0
   -5.9185    2.5263   -1.6964 C   0  0  0  0  0  0  0  0  0  0  0  0
   -6.2905    2.3120    0.6584 C   0  0  0  0  0  0  0  0  0  0  0  0
   -1.3206    0.0479   -0.0396 C   0  0  0  0  0  0  0  0  0  0  0  0
   -1.5844   -1.4434   -0.1182 C   0  0  0  0  0  0  0  0  0  0  0  0
   -1.8198   -2.2159    1.0310 C   0  0  0  0  0  0  0  0  0  0  0  0
   -2.0231   -3.5932    0.9314 C   0  0  0  0  0  0  0  0  0  0  0  0
   -1.9856   -4.2163   -0.3138 C   0  0  0  0  0  0  0  0  0  0  0  0
   -1.7446   -3.4642   -1.4612 C   0  0  0  0  0  0  0  0  0  0  0  0
   -1.5424   -2.0867   -1.3651 C   0  0  0  0  0  0  0  0  0  0  0  0
    3.2723   -0.0721   -1.8041 C   0  0  0  0  0  0  0  0  0  0  0  0
    4.6411   -0.3400   -1.7096 C   0  0  0  0  0  0  0  0  0  0  0  0
    5.5081   -0.6385   -3.1769 Cl  0  0  0  0  0  0  0  0  0  0  0  0
    9.3709   -0.8561    1.4288 H   0  0  0  0  0  0  0  0  0  0  0  0
    9.2023   -0.1393   -0.1920 H   0  0  0  0  0  0  0  0  0  0  0  0
    8.9092   -1.8597    0.0329 H   0  0  0  0  0  0  0  0  0  0  0  0
    6.9322   -1.3559    1.4591 H   0  0  0  0  0  0  0  0  0  0  0  0
    7.2317    0.4015    1.2305 H   0  0  0  0  0  0  0  0  0  0  0  0
    4.9768   -0.1162    1.6749 H   0  0  0  0  0  0  0  0  0  0  0  0
    2.6200    0.3571    1.5172 H   0  0  0  0  0  0  0  0  0  0  0  0
    0.4922   -0.4514    1.0727 H   0  0  0  0  0  0  0  0  0  0  0  0
   -3.9928   -0.2165    0.5933 H   0  0  0  0  0  0  0  0  0  0  0  0
   -4.0127    1.0993    1.7729 H   0  0  0  0  0  0  0  0  0  0  0  0
   -3.6270    1.4936   -1.2318 H   0  0  0  0  0  0  0  0  0  0  0  0
   -3.7651    2.7946   -0.0603 H   0  0  0  0  0  0  0  0  0  0  0  0
   -6.9977    2.4875   -1.8822 H   0  0  0  0  0  0  0  0  0  0  0  0
   -5.6185    3.5776   -1.6165 H   0  0  0  0  0  0  0  0  0  0  0  0
   -5.4358    2.0949   -2.5806 H   0  0  0  0  0  0  0  0  0  0  0  0
   -7.3704    2.3215    0.4704 H   0  0  0  0  0  0  0  0  0  0  0  0
   -5.9746    3.3354    0.8906 H   0  0  0  0  0  0  0  0  0  0  0  0
   -6.1464    1.6919    1.5485 H   0  0  0  0  0  0  0  0  0  0  0  0
   -1.5481    0.5030   -1.0118 H   0  0  0  0  0  0  0  0  0  0  0  0
   -1.8567   -1.7509    2.0141 H   0  0  0  0  0  0  0  0  0  0  0  0
   -2.2141   -4.1810    1.8259 H   0  0  0  0  0  0  0  0  0  0  0  0
   -2.1464   -5.2887   -0.3909 H   0  0  0  0  0  0  0  0  0  0  0  0
   -1.7147   -3.9508   -2.4332 H   0  0  0  0  0  0  0  0  0  0  0  0
   -1.3502   -1.5191   -2.2750 H   0  0  0  0  0  0  0  0  0  0  0  0
    2.7964   -0.0531   -2.7830 H   0  0  0  0  0  0  0  0  0  0  0  0
  1  2  1  0
  2  3  1  0
  3  4  1  0
  4  5  2  0
  5  6  1  0
  6  7  2  0
  7  8  1  0
  8  9  2  0
  8 10  1  0
 10 11  1  0
 11 12  2  0
 11 13  1  0
 13 14  2  0
 13 15  1  0
 15 16  1  0
 16 17  1  0
 17 18  1  0
 18 19  1  0
 18 20  1  0
 15 21  1  0
 21 22  1  0
 22 23  2  0
 23 24  1  0
 24 25  2  0
 25 26  1  0
 26 27  2  0
  7 28  1  0
 28 29  2  0
 29 30  1  0
 29  4  1  0
 21 10  1  0
 27 22  1  0
  1 31  1  0
  1 32  1  0
  1 33  1  0
  2 34  1  0
  2 35  1  0
  5 36  1  0
  6 37  1  0
 10 38  1  0
 16 39  1  0
 16 40  1  0
 17 41  1  0
 17 42  1  0
 19 43  1  0
 19 44  1  0
 19 45  1  0
 20 46  1  0
 20 47  1  0
 20 48  1  0
 21 49  1  0
 23 50  1  0
 24 51  1  0
 25 52  1  0
 26 53  1  0
 27 54  1  0
 28 55  1  0
M  END
$$$$
