
     RDKit          3D

 36 37  0  0  0  0  0  0  0  0999 V2000
    4.8596   -1.9940   -1.4777 C   0  0  0  0  0  0  0  0  0  0  0  0
    3.7414   -1.1000   -1.2365 N   0  0  0  0  0  0  0  0  0  0  0  0
    3.4792   -0.4399   -0.0484 C   0  0  0  0  0  0  0  0  0  0  0  0
    4.4455   -0.6054    1.3169 S   0  0  0  0  0  0  0  0  0  0  0  0
    2.3316    0.3595   -0.1083 N   0  0  0  0  0  0  0  0  0  0  0  0
    2.0388    1.4182    0.8671 C   0  0  0  0  0  0  0  0  0  0  0  0
    0.8408    1.0321    1.7296 C   0  0  0  0  0  0  0  0  0  0  0  0
   -0.3432    0.6715    0.8646 C   0  0  0  0  0  0  0  0  0  0  0  0
   -1.6414    0.7416    1.3924 C   0  0  0  0  0  0  0  0  0  0  0  0
   -2.7506    0.3980    0.6120 C   0  0  0  0  0  0  0  0  0  0  0  0
   -4.0520    0.4480    1.0481 O   0  0  0  0  0  0  0  0  0  0  0  0
   -4.2815    0.8239    2.3980 C   0  0  0  0  0  0  0  0  0  0  0  0
   -2.5596   -0.0305   -0.7157 C   0  0  0  0  0  0  0  0  0  0  0  0
   -3.6982   -0.3427   -1.4175 O   0  0  0  0  0  0  0  0  0  0  0  0
   -3.5472   -0.8315   -2.7417 C   0  0  0  0  0  0  0  0  0  0  0  0
   -1.2624   -0.1139   -1.2356 C   0  0  0  0  0  0  0  0  0  0  0  0
   -0.1456    0.2241   -0.4524 C   0  0  0  0  0  0  0  0  0  0  0  0
    1.2401    0.1138   -1.0604 C   0  0  0  0  0  0  0  0  0  0  0  0
    4.7209   -2.4549   -2.4588 H   0  0  0  0  0  0  0  0  0  0  0  0
    5.7888   -1.4180   -1.4720 H   0  0  0  0  0  0  0  0  0  0  0  0
    4.8939   -2.7730   -0.7119 H   0  0  0  0  0  0  0  0  0  0  0  0
    3.4068   -0.6200   -2.0590 H   0  0  0  0  0  0  0  0  0  0  0  0
    1.8212    2.3291    0.2935 H   0  0  0  0  0  0  0  0  0  0  0  0
    2.9009    1.6513    1.4965 H   0  0  0  0  0  0  0  0  0  0  0  0
    1.0862    0.1679    2.3582 H   0  0  0  0  0  0  0  0  0  0  0  0
    0.5879    1.8728    2.3856 H   0  0  0  0  0  0  0  0  0  0  0  0
   -1.7592    1.0719    2.4194 H   0  0  0  0  0  0  0  0  0  0  0  0
   -3.9509    1.8512    2.5831 H   0  0  0  0  0  0  0  0  0  0  0  0
   -5.3604    0.7859    2.5769 H   0  0  0  0  0  0  0  0  0  0  0  0
   -3.8054    0.1226    3.0911 H   0  0  0  0  0  0  0  0  0  0  0  0
   -3.0929   -0.0763   -3.3914 H   0  0  0  0  0  0  0  0  0  0  0  0
   -2.9740   -1.7644   -2.7567 H   0  0  0  0  0  0  0  0  0  0  0  0
   -4.5453   -1.0491   -3.1339 H   0  0  0  0  0  0  0  0  0  0  0  0
   -1.0912   -0.4456   -2.2547 H   0  0  0  0  0  0  0  0  0  0  0  0
    1.3400    0.8608   -1.8565 H   0  0  0  0  0  0  0  0  0  0  0  0
    1.3376   -0.8854   -1.4977 H   0  0  0  0  0  0  0  0  0  0  0  0
  1  2  1  0
  2  3  1  0
  3  4  2  0
  3  5  1  0
  5  6  1  0
  6  7  1  0
  7  8  1  0
  8  9  2  0
  9 10  1  0
 10 11  1  0
 11 12  1  0
 10 13  2  0
 13 14  1  0
 14 15  1  0
 13 16  1  0
 16 17  2  0
 17 18  1  0
 18  5  1  0
 17  8  1  0
  1 19  1  0
  1 20  1  0
  1 21  1  0
  2 22  1  0
  6 23  1  0
  6 24  1  0
  7 25  1  0
  7 26  1  0
  9 27  1  0
 12 28  1  0
 12 29  1  0
 12 30  1  0
 15 31  1  0
 15 32  1  0
 15 33  1  0
 16 34  1  0
 18 35  1  0
 18 36  1  0
M  END
$$$$
