
     RDKit          3D

 68 70  0  0  0  0  0  0  0  0999 V2000
    4.5726    3.9033    0.6998 C   0  0  0  0  0  0  0  0  0  0  0  0
    4.0111    2.4931    0.7513 C   0  0  0  0  0  0  0  0  0  0  0  0
    5.0262    1.5392    0.2328 N   0  0  0  0  0  0  0  0  0  0  0  0
    5.5583    0.5892    1.2400 C   0  0  0  0  0  0  0  0  0  0  0  0
    6.4975    1.2981    2.2006 C   0  0  0  0  0  0  0  0  0  0  0  0
    4.7796    0.9267   -1.3404 S   0  0  0  0  0  6  0  0  0  0  0  0
    4.2402    1.9813   -2.1710 O   0  0  0  0  0  0  0  0  0  0  0  0
    5.9786    0.2136   -1.7321 O   0  0  0  0  0  0  0  0  0  0  0  0
    3.5003   -0.2942   -1.1067 C   0  0  0  0  0  0  0  0  0  0  0  0
    3.8475   -1.6445   -0.9985 C   0  0  0  0  0  0  0  0  0  0  0  0
    2.8484   -2.6053   -0.8337 C   0  0  0  0  0  0  0  0  0  0  0  0
    1.4992   -2.2280   -0.7751 C   0  0  0  0  0  0  0  0  0  0  0  0
    0.4527   -3.1585   -0.5498 N   0  0  0  0  0  0  0  0  0  0  0  0
    0.3843   -3.5547    0.8798 C   0  0  0  0  0  0  0  0  0  0  0  0
   -0.5418   -4.7689    1.0325 C   0  0  0  0  0  0  0  0  0  0  0  0
   -0.0642   -5.9346    0.3418 O   0  0  0  0  0  0  0  0  0  0  0  0
    0.7753   -5.6333   -0.7859 C   0  0  0  0  0  0  0  0  0  0  0  0
    0.4186   -4.3127   -1.4856 C   0  0  0  0  0  0  0  0  0  0  0  0
    1.1664   -0.8547   -0.8963 C   0  0  0  0  0  0  0  0  0  0  0  0
   -0.2079   -0.5512   -0.8291 N   0  0  0  0  0  0  0  0  0  0  0  0
   -0.8029    0.6874   -0.7020 C   0  0  0  0  0  0  0  0  0  0  0  0
   -0.2186    1.7594   -0.6021 O   0  0  0  0  0  0  0  0  0  0  0  0
   -2.3197    0.5801   -0.7176 C   0  0  0  0  0  0  0  0  0  0  0  0
   -3.0036    1.8698   -0.2579 C   0  0  0  0  0  0  0  0  0  0  0  0
   -4.5287    1.8536   -0.4611 C   0  0  0  0  0  0  0  0  0  0  0  0
   -5.2102    0.6703    0.2560 C   0  0  0  0  0  0  0  0  0  0  0  0
   -6.6911    0.9076    0.5642 C   0  0  0  0  0  0  0  0  0  0  0  0
   -7.3266    1.8971   -0.4024 C   0  0  0  0  0  0  0  0  0  0  0  0
   -6.6397    3.2625   -0.3401 C   0  0  0  0  0  0  0  0  0  0  0  0
   -5.1465    3.1826   -0.0099 C   0  0  0  0  0  0  0  0  0  0  0  0
    2.1614    0.1029   -1.0879 C   0  0  0  0  0  0  0  0  0  0  0  0
    4.7960    4.2004   -0.3291 H   0  0  0  0  0  0  0  0  0  0  0  0
    5.4982    3.9882    1.2791 H   0  0  0  0  0  0  0  0  0  0  0  0
    3.8482    4.6138    1.1081 H   0  0  0  0  0  0  0  0  0  0  0  0
    3.7292    2.2415    1.7792 H   0  0  0  0  0  0  0  0  0  0  0  0
    3.0878    2.4555    0.1702 H   0  0  0  0  0  0  0  0  0  0  0  0
    4.7326    0.1244    1.7900 H   0  0  0  0  0  0  0  0  0  0  0  0
    6.1205   -0.2162    0.7554 H   0  0  0  0  0  0  0  0  0  0  0  0
    6.9240    0.5834    2.9123 H   0  0  0  0  0  0  0  0  0  0  0  0
    7.3202    1.7792    1.6620 H   0  0  0  0  0  0  0  0  0  0  0  0
    5.9796    2.0718    2.7774 H   0  0  0  0  0  0  0  0  0  0  0  0
    4.8892   -1.9561   -1.0456 H   0  0  0  0  0  0  0  0  0  0  0  0
    3.1388   -3.6470   -0.7343 H   0  0  0  0  0  0  0  0  0  0  0  0
    1.3786   -3.8203    1.2606 H   0  0  0  0  0  0  0  0  0  0  0  0
    0.0014   -2.7193    1.4748 H   0  0  0  0  0  0  0  0  0  0  0  0
   -1.5429   -4.5422    0.6482 H   0  0  0  0  0  0  0  0  0  0  0  0
   -0.6458   -5.0379    2.0880 H   0  0  0  0  0  0  0  0  0  0  0  0
    1.8113   -5.6161   -0.4313 H   0  0  0  0  0  0  0  0  0  0  0  0
    0.6890   -6.4682   -1.4901 H   0  0  0  0  0  0  0  0  0  0  0  0
   -0.6106   -4.3821   -1.8570 H   0  0  0  0  0  0  0  0  0  0  0  0
    1.0605   -4.1571   -2.3606 H   0  0  0  0  0  0  0  0  0  0  0  0
   -0.7864   -1.3873   -0.7821 H   0  0  0  0  0  0  0  0  0  0  0  0
   -2.6171   -0.2519   -0.0686 H   0  0  0  0  0  0  0  0  0  0  0  0
   -2.6218    0.3389   -1.7437 H   0  0  0  0  0  0  0  0  0  0  0  0
   -2.7655    2.0463    0.7993 H   0  0  0  0  0  0  0  0  0  0  0  0
   -2.5879    2.7218   -0.8113 H   0  0  0  0  0  0  0  0  0  0  0  0
   -4.7168    1.7500   -1.5396 H   0  0  0  0  0  0  0  0  0  0  0  0
   -4.6962    0.4353    1.1969 H   0  0  0  0  0  0  0  0  0  0  0  0
   -5.1167   -0.2222   -0.3778 H   0  0  0  0  0  0  0  0  0  0  0  0
   -6.7882    1.2940    1.5864 H   0  0  0  0  0  0  0  0  0  0  0  0
   -7.2285   -0.0473    0.5410 H   0  0  0  0  0  0  0  0  0  0  0  0
   -7.2586    1.5005   -1.4237 H   0  0  0  0  0  0  0  0  0  0  0  0
   -8.3940    2.0123   -0.1817 H   0  0  0  0  0  0  0  0  0  0  0  0
   -7.1319    3.8906    0.4122 H   0  0  0  0  0  0  0  0  0  0  0  0
   -6.7825    3.7725   -1.3020 H   0  0  0  0  0  0  0  0  0  0  0  0
   -4.6294    4.0322   -0.4725 H   0  0  0  0  0  0  0  0  0  0  0  0
   -5.0122    3.2934    1.0745 H   0  0  0  0  0  0  0  0  0  0  0  0
    1.9114    1.1481   -1.2403 H   0  0  0  0  0  0  0  0  0  0  0  0
  1  2  1  0
  2  3  1  0
  3  4  1  0
  4  5  1  0
  3  6  1  0
  6  7  2  0
  6  8  2  0
  6  9  1  0
  9 10  2  0
 10 11  1  0
 11 12  2  0
 12 13  1  0
 13 14  1  0
 14 15  1  0
 15 16  1  0
 16 17  1  0
 17 18  1  0
 12 19  1  0
 19 20  1  0
 20 21  1  0
 21 22  2  0
 21 23  1  0
 23 24  1  0
 24 25  1  0
 25 26  1  0
 26 27  1  0
 27 28  1  0
 28 29  1  0
 29 30  1  0
 19 31  2  0
 31  9  1  0
 18 13  1  0
 30 25  1  0
  1 32  1  0
  1 33  1  0
  1 34  1  0
  2 35  1  0
  2 36  1  0
  4 37  1  0
  4 38  1  0
  5 39  1  0
  5 40  1  0
  5 41  1  0
 10 42  1  0
 11 43  1  0
 14 44  1  0
 14 45  1  0
 15 46  1  0
 15 47  1  0
 17 48  1  0
 17 49  1  0
 18 50  1  0
 18 51  1  0
 20 52  1  0
 23 53  1  0
 23 54  1  0
 24 55  1  0
 24 56  1  0
 25 57  1  0
 26 58  1  0
 26 59  1  0
 27 60  1  0
 27 61  1  0
 28 62  1  0
 28 63  1  0
 29 64  1  0
 29 65  1  0
 30 66  1  0
 30 67  1  0
 31 68  1  0
M  END
$$$$
