
     RDKit          3D

 62 66  0  0  0  0  0  0  0  0999 V2000
   -3.3094   -6.2021    0.7896 C   0  0  0  0  0  0  0  0  0  0  0  0
   -3.4008   -4.8511    1.2231 O   0  0  0  0  0  0  0  0  0  0  0  0
   -3.3922   -3.8878    0.2515 C   0  0  0  0  0  0  0  0  0  0  0  0
   -3.3005   -4.1103   -1.1226 C   0  0  0  0  0  0  0  0  0  0  0  0
   -3.2978   -3.0304   -2.0089 C   0  0  0  0  0  0  0  0  0  0  0  0
   -3.3873   -1.7247   -1.5257 C   0  0  0  0  0  0  0  0  0  0  0  0
   -3.4817   -1.4846   -0.1501 C   0  0  0  0  0  0  0  0  0  0  0  0
   -3.5555   -0.1090    0.3585 C   0  0  0  0  0  0  0  0  0  0  0  0
   -4.9758    0.3791    1.1791 S   0  0  0  0  0  0  0  0  0  0  0  0
   -4.3955    1.9751    1.4265 C   0  0  0  0  0  0  0  0  0  0  0  0
   -5.0662    3.0254    2.0824 C   0  0  0  0  0  0  0  0  0  0  0  0
   -4.4395    4.2713    2.1994 C   0  0  0  0  0  0  0  0  0  0  0  0
   -3.1692    4.4753    1.6788 C   0  0  0  0  0  0  0  0  0  0  0  0
   -2.4551    5.6412    1.7313 O   0  0  0  0  0  0  0  0  0  0  0  0
   -3.0688    6.7445    2.3856 C   0  0  0  0  0  0  0  0  0  0  0  0
   -2.5137    3.4222    1.0295 C   0  0  0  0  0  0  0  0  0  0  0  0
   -3.1210    2.1464    0.8864 C   0  0  0  0  0  0  0  0  0  0  0  0
   -2.6418    0.9305    0.2636 C   0  0  0  0  0  0  0  0  0  0  0  0
   -1.3511    0.7642   -0.3989 C   0  0  0  0  0  0  0  0  0  0  0  0
   -0.3777   -0.0837    0.1398 C   0  0  0  0  0  0  0  0  0  0  0  0
    0.8587   -0.2406   -0.4980 C   0  0  0  0  0  0  0  0  0  0  0  0
    1.1331    0.4510   -1.6777 C   0  0  0  0  0  0  0  0  0  0  0  0
    2.2926    0.3990   -2.3992 O   0  0  0  0  0  0  0  0  0  0  0  0
    3.3242   -0.4993   -1.9790 C   0  0  0  0  0  0  0  0  0  0  0  0
    4.2459    0.1695   -0.9458 C   0  0  0  0  0  0  0  0  0  0  0  0
    5.2978   -0.7222   -0.4421 N   0  0  0  0  0  0  0  0  0  0  0  0
    6.0697   -0.0949    0.6340 C   0  0  0  0  0  0  0  0  0  0  0  0
    7.2830   -1.0021    0.7547 C   0  0  0  0  0  0  0  0  0  0  0  0
    7.4595   -1.6112   -0.6314 C   0  0  0  0  0  0  0  0  0  0  0  0
    6.2943   -1.0794   -1.4547 C   0  0  0  0  0  0  0  0  0  0  0  0
    0.1614    1.3040   -2.2091 C   0  0  0  0  0  0  0  0  0  0  0  0
   -1.0743    1.4629   -1.5769 C   0  0  0  0  0  0  0  0  0  0  0  0
   -3.4823   -2.5765    0.7297 C   0  0  0  0  0  0  0  0  0  0  0  0
   -3.3309   -6.8404    1.6782 H   0  0  0  0  0  0  0  0  0  0  0  0
   -4.1651   -6.4749    0.1632 H   0  0  0  0  0  0  0  0  0  0  0  0
   -2.3633   -6.3867    0.2700 H   0  0  0  0  0  0  0  0  0  0  0  0
   -3.2278   -5.1098   -1.5376 H   0  0  0  0  0  0  0  0  0  0  0  0
   -3.2231   -3.2061   -3.0790 H   0  0  0  0  0  0  0  0  0  0  0  0
   -3.3819   -0.8953   -2.2294 H   0  0  0  0  0  0  0  0  0  0  0  0
   -6.0595    2.8717    2.4953 H   0  0  0  0  0  0  0  0  0  0  0  0
   -4.9815    5.0607    2.7100 H   0  0  0  0  0  0  0  0  0  0  0  0
   -3.9895    7.0444    1.8742 H   0  0  0  0  0  0  0  0  0  0  0  0
   -2.3736    7.5884    2.3408 H   0  0  0  0  0  0  0  0  0  0  0  0
   -3.2562    6.5229    3.4415 H   0  0  0  0  0  0  0  0  0  0  0  0
   -1.5154    3.5887    0.6303 H   0  0  0  0  0  0  0  0  0  0  0  0
   -0.5725   -0.6297    1.0605 H   0  0  0  0  0  0  0  0  0  0  0  0
    1.5812   -0.9062   -0.0374 H   0  0  0  0  0  0  0  0  0  0  0  0
    2.9214   -1.4580   -1.6324 H   0  0  0  0  0  0  0  0  0  0  0  0
    3.9024   -0.7289   -2.8815 H   0  0  0  0  0  0  0  0  0  0  0  0
    3.6336    0.5059   -0.1002 H   0  0  0  0  0  0  0  0  0  0  0  0
    4.6701    1.0848   -1.3805 H   0  0  0  0  0  0  0  0  0  0  0  0
    6.3891    0.9202    0.3652 H   0  0  0  0  0  0  0  0  0  0  0  0
    5.5078   -0.0481    1.5722 H   0  0  0  0  0  0  0  0  0  0  0  0
    7.1008   -1.7969    1.4877 H   0  0  0  0  0  0  0  0  0  0  0  0
    8.1722   -0.4491    1.0734 H   0  0  0  0  0  0  0  0  0  0  0  0
    7.4253   -2.7047   -0.5642 H   0  0  0  0  0  0  0  0  0  0  0  0
    8.4204   -1.3316   -1.0756 H   0  0  0  0  0  0  0  0  0  0  0  0
    6.6186   -0.2028   -2.0302 H   0  0  0  0  0  0  0  0  0  0  0  0
    5.9262   -1.8382   -2.1522 H   0  0  0  0  0  0  0  0  0  0  0  0
    0.3686    1.8502   -3.1262 H   0  0  0  0  0  0  0  0  0  0  0  0
   -1.8147    2.1299   -2.0120 H   0  0  0  0  0  0  0  0  0  0  0  0
   -3.5457   -2.4118    1.8032 H   0  0  0  0  0  0  0  0  0  0  0  0
  1  2  1  0
  2  3  1  0
  3  4  2  0
  4  5  1  0
  5  6  2  0
  6  7  1  0
  7  8  1  0
  8  9  1  0
  9 10  1  0
 10 11  2  0
 11 12  1  0
 12 13  2  0
 13 14  1  0
 14 15  1  0
 13 16  1  0
 16 17  2  0
 17 18  1  0
 18 19  1  0
 19 20  2  0
 20 21  1  0
 21 22  2  0
 22 23  1  0
 23 24  1  0
 24 25  1  0
 25 26  1  0
 26 27  1  0
 27 28  1  0
 28 29  1  0
 29 30  1  0
 22 31  1  0
 31 32  2  0
  7 33  2  0
 33  3  1  0
 18  8  2  0
 32 19  1  0
 17 10  1  0
 30 26  1  0
  1 34  1  0
  1 35  1  0
  1 36  1  0
  4 37  1  0
  5 38  1  0
  6 39  1  0
 11 40  1  0
 12 41  1  0
 15 42  1  0
 15 43  1  0
 15 44  1  0
 16 45  1  0
 20 46  1  0
 21 47  1  0
 24 48  1  0
 24 49  1  0
 25 50  1  0
 25 51  1  0
 27 52  1  0
 27 53  1  0
 28 54  1  0
 28 55  1  0
 29 56  1  0
 29 57  1  0
 30 58  1  0
 30 59  1  0
 31 60  1  0
 32 61  1  0
 33 62  1  0
M  END
$$$$
