
     RDKit          3D

 49 52  0  0  0  0  0  0  0  0999 V2000
   -3.9922    4.1860   -0.5036 C   0  0  0  0  0  0  0  0  0  0  0  0
   -2.6237    3.6499   -0.1270 C   0  0  0  0  0  0  0  0  0  0  0  0
   -2.6342    2.2149   -0.1378 O   0  0  0  0  0  0  0  0  0  0  0  0
   -2.3797    1.6257   -1.3396 C   0  0  0  0  0  0  0  0  0  0  0  0
   -2.1596    2.2209   -2.3871 O   0  0  0  0  0  0  0  0  0  0  0  0
   -2.3702    0.1185   -1.2040 C   0  0  0  0  0  0  0  0  0  0  0  0
   -1.0952   -0.4943   -0.6498 C   0  0  0  0  0  0  0  0  0  0  0  0
    0.1007    0.2388   -0.8004 C   0  0  0  0  0  0  0  0  0  0  0  0
    1.2701   -0.1964   -0.2027 C   0  0  0  0  0  0  0  0  0  0  0  0
    2.5561    0.5266   -0.3044 C   0  0  0  0  0  0  0  0  0  0  0  0
    3.5027    0.4597    0.7349 C   0  0  0  0  0  0  0  0  0  0  0  0
    4.7270    1.1401    0.6677 C   0  0  0  0  0  0  0  0  0  0  0  0
    5.0397    1.9061   -0.4512 C   0  0  0  0  0  0  0  0  0  0  0  0
    6.1901    2.6182   -0.6469 O   0  0  0  0  0  0  0  0  0  0  0  0
    7.1593    2.5677    0.3925 C   0  0  0  0  0  0  0  0  0  0  0  0
    4.1209    1.9784   -1.4974 C   0  0  0  0  0  0  0  0  0  0  0  0
    2.8987    1.2978   -1.4279 C   0  0  0  0  0  0  0  0  0  0  0  0
    1.2773   -1.3112    0.5511 N   0  0  0  0  0  0  0  0  0  0  0  0
    0.1684   -2.0548    0.6559 C   0  0  0  0  0  0  0  0  0  0  0  0
    0.3070   -3.1690    1.4549 C   0  0  0  0  0  0  0  0  0  0  0  0
   -0.7342   -4.0619    1.6643 C   0  0  0  0  0  0  0  0  0  0  0  0
   -1.9491   -3.8868    1.0146 C   0  0  0  0  0  0  0  0  0  0  0  0
   -2.9530   -4.8508    1.2137 C   0  0  0  0  0  0  0  0  0  0  0  0
   -4.1679   -4.7713    0.5462 C   0  0  0  0  0  0  0  0  0  0  0  0
   -4.3775   -3.7350   -0.3438 C   0  0  0  0  0  0  0  0  0  0  0  0
   -3.3824   -2.7681   -0.5382 C   0  0  0  0  0  0  0  0  0  0  0  0
   -2.1422   -2.7694    0.1575 C   0  0  0  0  0  0  0  0  0  0  0  0
   -1.0714   -1.7672    0.0288 C   0  0  0  0  0  0  0  0  0  0  0  0
   -4.7582    3.7876    0.1697 H   0  0  0  0  0  0  0  0  0  0  0  0
   -4.0091    5.2782   -0.4492 H   0  0  0  0  0  0  0  0  0  0  0  0
   -4.2695    3.8812   -1.5176 H   0  0  0  0  0  0  0  0  0  0  0  0
   -1.8416    4.0469   -0.7842 H   0  0  0  0  0  0  0  0  0  0  0  0
   -2.3756    3.9601    0.8936 H   0  0  0  0  0  0  0  0  0  0  0  0
   -2.5729   -0.3008   -2.1961 H   0  0  0  0  0  0  0  0  0  0  0  0
   -3.2191   -0.1089   -0.5498 H   0  0  0  0  0  0  0  0  0  0  0  0
    0.1135    1.1712   -1.3575 H   0  0  0  0  0  0  0  0  0  0  0  0
    3.2850   -0.1339    1.6222 H   0  0  0  0  0  0  0  0  0  0  0  0
    5.4065    1.0441    1.5076 H   0  0  0  0  0  0  0  0  0  0  0  0
    8.0097    3.1845    0.0866 H   0  0  0  0  0  0  0  0  0  0  0  0
    7.5252    1.5466    0.5421 H   0  0  0  0  0  0  0  0  0  0  0  0
    6.7627    2.9864    1.3233 H   0  0  0  0  0  0  0  0  0  0  0  0
    4.3585    2.5654   -2.3817 H   0  0  0  0  0  0  0  0  0  0  0  0
    2.2280    1.3693   -2.2812 H   0  0  0  0  0  0  0  0  0  0  0  0
    1.2630   -3.3523    1.9422 H   0  0  0  0  0  0  0  0  0  0  0  0
   -0.5632   -4.9152    2.3172 H   0  0  0  0  0  0  0  0  0  0  0  0
   -2.7875   -5.6896    1.8876 H   0  0  0  0  0  0  0  0  0  0  0  0
   -4.9317   -5.5274    0.7030 H   0  0  0  0  0  0  0  0  0  0  0  0
   -5.3078   -3.6765   -0.9033 H   0  0  0  0  0  0  0  0  0  0  0  0
   -3.6013   -2.0297   -1.2985 H   0  0  0  0  0  0  0  0  0  0  0  0
  1  2  1  0
  2  3  1  0
  3  4  1  0
  4  5  2  0
  4  6  1  0
  6  7  1  0
  7  8  2  0
  8  9  1  0
  9 10  1  0
 10 11  2  0
 11 12  1  0
 12 13  2  0
 13 14  1  0
 14 15  1  0
 13 16  1  0
 16 17  2  0
  9 18  2  0
 18 19  1  0
 19 20  2  0
 20 21  1  0
 21 22  2  0
 22 23  1  0
 23 24  2  0
 24 25  1  0
 25 26  2  0
 26 27  1  0
 27 28  2  0
 28  7  1  0
 17 10  1  0
 28 19  1  0
 27 22  1  0
  1 29  1  0
  1 30  1  0
  1 31  1  0
  2 32  1  0
  2 33  1  0
  6 34  1  0
  6 35  1  0
  8 36  1  0
 11 37  1  0
 12 38  1  0
 15 39  1  0
 15 40  1  0
 15 41  1  0
 16 42  1  0
 17 43  1  0
 20 44  1  0
 21 45  1  0
 23 46  1  0
 24 47  1  0
 25 48  1  0
 26 49  1  0
M  END
$$$$
