
     RDKit          3D

 47 49  0  0  0  0  0  0  0  0999 V2000
    5.7598   -1.1983    2.8203 C   0  0  0  0  0  0  0  0  0  0  0  0
    5.5707   -0.2420    1.6526 C   0  0  0  0  0  0  0  0  0  0  0  0
    5.0080   -0.9630    0.4273 C   0  0  0  0  0  0  0  0  0  0  0  0
    4.8593   -0.0525   -0.7991 C   0  0  0  0  0  0  0  0  0  0  0  0
    3.8582    1.0022   -0.6199 N   0  0  0  0  0  0  0  0  0  0  0  0
    2.5165    0.6513   -0.6801 C   0  0  0  0  0  0  0  0  0  0  0  0
    2.0974   -0.4788   -0.8906 O   0  0  0  0  0  0  0  0  0  0  0  0
    1.6504    1.8477   -0.4645 C   0  0  0  0  0  0  0  0  0  0  0  0
    0.3095    1.9242   -0.4273 C   0  0  0  0  0  0  0  0  0  0  0  0
   -0.6375    0.8284   -0.5715 C   0  0  0  0  0  0  0  0  0  0  0  0
   -1.9939    0.8576   -0.6061 C   0  0  0  0  0  0  0  0  0  0  0  0
   -2.7067    2.1342   -0.5202 C   0  0  0  0  0  0  0  0  0  0  0  0
   -4.0389    2.2241   -0.4379 C   0  0  0  0  0  0  0  0  0  0  0  0
   -4.8464    1.0083   -0.4187 C   0  0  0  0  0  0  0  0  0  0  0  0
   -6.2373    1.1174   -0.2597 C   0  0  0  0  0  0  0  0  0  0  0  0
   -7.0331   -0.0227   -0.2345 C   0  0  0  0  0  0  0  0  0  0  0  0
   -6.4404   -1.2716   -0.3641 C   0  0  0  0  0  0  0  0  0  0  0  0
   -5.0531   -1.3819   -0.5258 C   0  0  0  0  0  0  0  0  0  0  0  0
   -4.2170   -0.2497   -0.5679 C   0  0  0  0  0  0  0  0  0  0  0  0
   -2.7952   -0.3123   -0.7321 N   0  0  0  0  0  0  0  0  0  0  0  0
   -2.2250   -1.6266   -1.0935 C   0  0  0  0  0  0  0  0  0  0  0  0
   -1.8380   -2.4252    0.1449 C   0  0  0  0  0  0  0  0  0  0  0  0
    2.6469    3.2446   -0.2553 S   0  0  0  0  0  0  0  0  0  0  0  0
    4.1419    2.3374   -0.4265 C   0  0  0  0  0  0  0  0  0  0  0  0
    5.6316    3.0856   -0.3547 S   0  0  0  0  0  0  0  0  0  0  0  0
    4.8079   -1.6524    3.1134 H   0  0  0  0  0  0  0  0  0  0  0  0
    6.1622   -0.6636    3.6863 H   0  0  0  0  0  0  0  0  0  0  0  0
    6.4586   -2.0003    2.5617 H   0  0  0  0  0  0  0  0  0  0  0  0
    6.5357    0.2148    1.4059 H   0  0  0  0  0  0  0  0  0  0  0  0
    4.8942    0.5616    1.9633 H   0  0  0  0  0  0  0  0  0  0  0  0
    5.6785   -1.7891    0.1597 H   0  0  0  0  0  0  0  0  0  0  0  0
    4.0417   -1.4130    0.6837 H   0  0  0  0  0  0  0  0  0  0  0  0
    4.5407   -0.6690   -1.6490 H   0  0  0  0  0  0  0  0  0  0  0  0
    5.8311    0.3709   -1.0679 H   0  0  0  0  0  0  0  0  0  0  0  0
   -0.1185    2.9077   -0.2549 H   0  0  0  0  0  0  0  0  0  0  0  0
   -0.1627   -0.1446   -0.6274 H   0  0  0  0  0  0  0  0  0  0  0  0
   -2.1526    3.0638   -0.5333 H   0  0  0  0  0  0  0  0  0  0  0  0
   -4.5319    3.1872   -0.3798 H   0  0  0  0  0  0  0  0  0  0  0  0
   -6.7059    2.0922   -0.1518 H   0  0  0  0  0  0  0  0  0  0  0  0
   -8.1087    0.0636   -0.1089 H   0  0  0  0  0  0  0  0  0  0  0  0
   -7.0534   -2.1690   -0.3357 H   0  0  0  0  0  0  0  0  0  0  0  0
   -4.6559   -2.3882   -0.6006 H   0  0  0  0  0  0  0  0  0  0  0  0
   -1.3419   -1.4994   -1.7317 H   0  0  0  0  0  0  0  0  0  0  0  0
   -2.9024   -2.2072   -1.7305 H   0  0  0  0  0  0  0  0  0  0  0  0
   -2.7008   -2.6194    0.7889 H   0  0  0  0  0  0  0  0  0  0  0  0
   -1.0929   -1.8956    0.7468 H   0  0  0  0  0  0  0  0  0  0  0  0
   -1.4109   -3.3894   -0.1481 H   0  0  0  0  0  0  0  0  0  0  0  0
  1  2  1  0
  2  3  1  0
  3  4  1  0
  4  5  1  0
  5  6  1  0
  6  7  2  0
  6  8  1  0
  8  9  2  3
  9 10  1  0
 10 11  2  3
 11 12  1  0
 12 13  2  0
 13 14  1  0
 14 15  2  0
 15 16  1  0
 16 17  2  0
 17 18  1  0
 18 19  2  0
 19 20  1  0
 20 21  1  0
 21 22  1  0
  8 23  1  0
 23 24  1  0
 24 25  2  0
 24  5  1  0
 20 11  1  0
 19 14  1  0
  1 26  1  0
  1 27  1  0
  1 28  1  0
  2 29  1  0
  2 30  1  0
  3 31  1  0
  3 32  1  0
  4 33  1  0
  4 34  1  0
  9 35  1  0
 10 36  1  0
 12 37  1  0
 13 38  1  0
 15 39  1  0
 16 40  1  0
 17 41  1  0
 18 42  1  0
 21 43  1  0
 21 44  1  0
 22 45  1  0
 22 46  1  0
 22 47  1  0
M  END
$$$$
