
     RDKit          3D

 46 48  0  0  0  0  0  0  0  0999 V2000
    5.0317    2.8168    3.3062 C   0  0  0  0  0  0  0  0  0  0  0  0
    4.8281    2.1589    1.9760 C   0  0  0  0  0  0  0  0  0  0  0  0
    5.6888    1.5358    1.3724 O   0  0  0  0  0  0  0  0  0  0  0  0
    3.5471    2.3500    1.5532 O   0  0  0  0  0  0  0  0  0  0  0  0
    3.2234    1.7822    0.2751 C   0  0  0  0  0  0  0  0  0  0  0  0
    2.8038    0.3212    0.4078 C   0  0  0  0  0  0  0  0  0  0  0  0
    1.5808    0.1648    1.3110 C   0  0  0  0  0  0  0  0  0  0  0  0
    1.1732   -1.2363    1.4159 N   0  0  0  0  0  0  0  0  0  0  0  0
    0.5146   -1.9409    0.3983 C   0  0  0  0  0  0  0  0  0  0  0  0
   -0.1153   -1.2591   -0.6851 C   0  0  0  0  0  0  0  0  0  0  0  0
   -0.8575   -1.8854   -1.7205 C   0  0  0  0  0  0  0  0  0  0  0  0
   -1.5935   -1.0162   -3.0687 S   0  0  0  0  0  0  0  0  0  0  0  0
   -2.6657    0.1186   -2.2080 C   0  0  0  0  0  0  0  0  0  0  0  0
   -3.7353   -0.3459   -1.4373 C   0  0  0  0  0  0  0  0  0  0  0  0
   -4.5613    0.5564   -0.7623 C   0  0  0  0  0  0  0  0  0  0  0  0
   -4.3341    1.9346   -0.8565 C   0  0  0  0  0  0  0  0  0  0  0  0
   -5.2301    2.8917   -0.1270 C   0  0  0  0  0  0  0  0  0  0  0  0
   -3.2702    2.3969   -1.6387 C   0  0  0  0  0  0  0  0  0  0  0  0
   -2.4434    1.4942   -2.3133 C   0  0  0  0  0  0  0  0  0  0  0  0
   -0.9660   -3.2904   -1.6248 C   0  0  0  0  0  0  0  0  0  0  0  0
   -1.5755   -4.1745   -2.4273 N   0  0  0  0  0  0  0  0  0  0  0  0
   -1.3699   -5.4159   -1.8613 O   0  0  0  0  0  0  0  0  0  0  0  0
   -0.6305   -5.3287   -0.6989 N   0  0  0  0  0  0  0  0  0  0  0  0
   -0.3717   -4.0262   -0.5154 C   0  0  0  0  0  0  0  0  0  0  0  0
    0.3359   -3.3460    0.4931 C   0  0  0  0  0  0  0  0  0  0  0  0
    0.8649   -4.1220    1.5794 N   0  0  0  0  0  4  0  0  0  0  0  0
    2.0676   -3.9689    1.8424 O   0  0  0  0  0  0  0  0  0  0  0  0
    0.0838   -4.8524    2.2022 O   0  0  0  0  0  1  0  0  0  0  0  0
    4.8353    3.8887    3.2238 H   0  0  0  0  0  0  0  0  0  0  0  0
    4.3733    2.3603    4.0494 H   0  0  0  0  0  0  0  0  0  0  0  0
    6.0687    2.6772    3.6245 H   0  0  0  0  0  0  0  0  0  0  0  0
    2.3981    2.3730   -0.1376 H   0  0  0  0  0  0  0  0  0  0  0  0
    4.0627    1.8870   -0.4228 H   0  0  0  0  0  0  0  0  0  0  0  0
    2.5995   -0.0792   -0.5914 H   0  0  0  0  0  0  0  0  0  0  0  0
    3.6293   -0.2684    0.8247 H   0  0  0  0  0  0  0  0  0  0  0  0
    0.7501    0.8001    0.9856 H   0  0  0  0  0  0  0  0  0  0  0  0
    1.8335    0.5022    2.3232 H   0  0  0  0  0  0  0  0  0  0  0  0
    1.8773   -1.7987    1.9076 H   0  0  0  0  0  0  0  0  0  0  0  0
   -0.0317   -0.1748   -0.7468 H   0  0  0  0  0  0  0  0  0  0  0  0
   -3.9417   -1.4108   -1.3596 H   0  0  0  0  0  0  0  0  0  0  0  0
   -5.3889    0.1771   -0.1662 H   0  0  0  0  0  0  0  0  0  0  0  0
   -4.9490    3.9322   -0.3205 H   0  0  0  0  0  0  0  0  0  0  0  0
   -6.2674    2.7595   -0.4511 H   0  0  0  0  0  0  0  0  0  0  0  0
   -5.1647    2.7204    0.9522 H   0  0  0  0  0  0  0  0  0  0  0  0
   -3.0799    3.4637   -1.7344 H   0  0  0  0  0  0  0  0  0  0  0  0
   -1.6280    1.8768   -2.9225 H   0  0  0  0  0  0  0  0  0  0  0  0
  1  2  1  0
  2  3  2  0
  2  4  1  0
  4  5  1  0
  5  6  1  0
  6  7  1  0
  7  8  1  0
  8  9  1  0
  9 10  1  0
 10 11  2  0
 11 12  1  0
 12 13  1  0
 13 14  2  0
 14 15  1  0
 15 16  2  0
 16 17  1  0
 16 18  1  0
 18 19  2  0
 11 20  1  0
 20 21  2  0
 21 22  1  0
 22 23  1  0
 23 24  2  0
 24 25  1  0
 25 26  1  0
 26 27  2  0
 26 28  1  0
 25  9  2  0
 19 13  1  0
 24 20  1  0
  1 29  1  0
  1 30  1  0
  1 31  1  0
  5 32  1  0
  5 33  1  0
  6 34  1  0
  6 35  1  0
  7 36  1  0
  7 37  1  0
  8 38  1  0
 10 39  1  0
 14 40  1  0
 15 41  1  0
 17 42  1  0
 17 43  1  0
 17 44  1  0
 18 45  1  0
 19 46  1  0
M  CHG  2  26   1  28  -1
M  END
$$$$
