
     RDKit          3D

 31 33  0  0  0  0  0  0  0  0999 V2000
   -4.3113    0.1904    0.5311 O   0  0  0  0  0  0  0  0  0  0  0  0
   -3.0949    0.0637    0.5827 C   0  0  0  0  0  0  0  0  0  0  0  0
   -2.4902   -0.0371    1.7870 O   0  0  0  0  0  0  0  0  0  0  0  0
   -2.1715   -0.0633   -0.6242 C   0  0  0  0  0  0  0  0  0  0  0  0
   -2.3649   -1.3636   -1.3635 C   0  0  0  0  0  0  0  0  0  0  0  0
   -1.8564   -1.5502   -2.7721 C   0  0  0  0  0  0  0  0  0  0  0  0
   -1.0286   -1.9828   -1.5904 C   0  0  0  0  0  0  0  0  0  0  0  0
    0.0194   -1.0913   -1.0041 C   0  0  0  0  0  0  0  0  0  0  0  0
   -0.7228   -0.0545   -0.2532 N   0  0  0  0  0  0  0  0  0  0  0  0
   -0.0425    1.4805   -0.1438 S   0  0  0  0  0  6  0  0  0  0  0  0
    0.3475    1.8786   -1.4801 O   0  0  0  0  0  0  0  0  0  0  0  0
   -0.9105    2.3176    0.6553 O   0  0  0  0  0  0  0  0  0  0  0  0
    1.4256    1.1733    0.8047 C   0  0  0  0  0  0  0  0  0  0  0  0
    2.6867    1.3653    0.2336 C   0  0  0  0  0  0  0  0  0  0  0  0
    3.8289    1.1155    0.9969 C   0  0  0  0  0  0  0  0  0  0  0  0
    3.6998    0.6813    2.3179 C   0  0  0  0  0  0  0  0  0  0  0  0
    5.2500    0.3427    3.3460 Br  0  0  0  0  0  0  0  0  0  0  0  0
    2.4393    0.4955    2.8881 C   0  0  0  0  0  0  0  0  0  0  0  0
    1.2944    0.7442    2.1299 C   0  0  0  0  0  0  0  0  0  0  0  0
   -3.2180    0.1077    2.4258 H   0  0  0  0  0  0  0  0  0  0  0  0
   -2.3898    0.7745   -1.2979 H   0  0  0  0  0  0  0  0  0  0  0  0
   -3.1855   -1.9758   -1.0168 H   0  0  0  0  0  0  0  0  0  0  0  0
   -1.5453   -0.6755   -3.3334 H   0  0  0  0  0  0  0  0  0  0  0  0
   -2.3178   -2.3218   -3.3784 H   0  0  0  0  0  0  0  0  0  0  0  0
   -0.8858   -3.0350   -1.3930 H   0  0  0  0  0  0  0  0  0  0  0  0
    0.6411   -0.6695   -1.7989 H   0  0  0  0  0  0  0  0  0  0  0  0
    0.6556   -1.6505   -0.3112 H   0  0  0  0  0  0  0  0  0  0  0  0
    2.7890    1.7099   -0.7932 H   0  0  0  0  0  0  0  0  0  0  0  0
    4.8118    1.2652    0.5567 H   0  0  0  0  0  0  0  0  0  0  0  0
    2.3392    0.1617    3.9178 H   0  0  0  0  0  0  0  0  0  0  0  0
    0.3078    0.6034    2.5681 H   0  0  0  0  0  0  0  0  0  0  0  0
  1  2  2  0
  2  3  1  0
  2  4  1  0
  4  5  1  0
  5  6  1  0
  6  7  1  0
  7  8  1  0
  8  9  1  0
  9 10  1  0
 10 11  2  0
 10 12  2  0
 10 13  1  0
 13 14  2  0
 14 15  1  0
 15 16  2  0
 16 17  1  0
 16 18  1  0
 18 19  2  0
  9  4  1  0
 19 13  1  0
  7  5  1  0
  3 20  1  0
  4 21  1  0
  5 22  1  0
  6 23  1  0
  6 24  1  0
  7 25  1  0
  8 26  1  0
  8 27  1  0
 14 28  1  0
 15 29  1  0
 18 30  1  0
 19 31  1  0
M  END
$$$$
