
     RDKit          3D

 55 57  0  0  0  0  0  0  0  0999 V2000
   -7.4307   -0.9557   -3.6791 C   0  0  0  0  0  0  0  0  0  0  0  0
   -7.5550   -0.3952   -2.3807 O   0  0  0  0  0  0  0  0  0  0  0  0
   -6.4687   -0.4732   -1.5451 C   0  0  0  0  0  0  0  0  0  0  0  0
   -5.2232   -0.9911   -1.9161 C   0  0  0  0  0  0  0  0  0  0  0  0
   -4.1720   -1.0304   -0.9966 C   0  0  0  0  0  0  0  0  0  0  0  0
   -4.3558   -0.5518    0.3016 C   0  0  0  0  0  0  0  0  0  0  0  0
   -3.2581   -0.5951    1.2705 C   0  0  0  0  0  0  0  0  0  0  0  0
   -2.2672    0.3022    1.3552 C   0  0  0  0  0  0  0  0  0  0  0  0
   -2.0204    1.6981    0.3891 S   0  0  0  0  0  0  0  0  0  0  0  0
   -0.5677    2.1644    1.2664 C   0  0  0  0  0  0  0  0  0  0  0  0
    0.2915    3.5396    0.8731 S   0  0  0  0  0  0  0  0  0  0  0  0
   -0.2987    1.2400    2.2554 N   0  0  0  0  0  0  0  0  0  0  0  0
    0.8255    1.3035    3.1929 C   0  0  0  0  0  0  0  0  0  0  0  0
    1.9604    0.3343    2.8448 C   0  0  0  0  0  0  0  0  0  0  0  0
    2.7141    0.7192    1.5718 C   0  0  0  0  0  0  0  0  0  0  0  0
    3.9029   -0.1927    1.3054 C   0  0  0  0  0  0  0  0  0  0  0  0
    4.1416   -1.1695    2.0051 O   0  0  0  0  0  0  0  0  0  0  0  0
    4.6261    0.2303    0.2015 N   0  0  0  0  0  0  0  0  0  0  0  0
    5.7801   -0.3655   -0.3506 C   0  0  0  0  0  0  0  0  0  0  0  0
    6.3740   -1.5287    0.1449 C   0  0  0  0  0  0  0  0  0  0  0  0
    7.5196   -2.0576   -0.4599 C   0  0  0  0  0  0  0  0  0  0  0  0
    8.0837   -1.4291   -1.5689 C   0  0  0  0  0  0  0  0  0  0  0  0
    7.4986   -0.2657   -2.0761 C   0  0  0  0  0  0  0  0  0  0  0  0
    8.0517    0.4459   -3.2528 C   0  0  0  0  0  0  0  0  0  0  0  0
    7.6214    1.4854   -3.7195 O   0  0  0  0  0  0  0  0  0  0  0  0
    9.1112   -0.1790   -3.7936 O   0  0  0  0  0  0  0  0  0  0  0  0
    6.3513    0.2623   -1.4648 C   0  0  0  0  0  0  0  0  0  0  0  0
   -1.1965    0.1908    2.3787 C   0  0  0  0  0  0  0  0  0  0  0  0
   -1.1447   -0.7090    3.2057 O   0  0  0  0  0  0  0  0  0  0  0  0
   -5.5983   -0.0301    0.6797 C   0  0  0  0  0  0  0  0  0  0  0  0
   -6.6566    0.0171   -0.2363 C   0  0  0  0  0  0  0  0  0  0  0  0
   -7.9066    0.5116    0.0479 O   0  0  0  0  0  0  0  0  0  0  0  0
   -8.1135    1.0866    1.3293 C   0  0  0  0  0  0  0  0  0  0  0  0
   -7.1997   -2.0248   -3.6295 H   0  0  0  0  0  0  0  0  0  0  0  0
   -8.3959   -0.8484   -4.1840 H   0  0  0  0  0  0  0  0  0  0  0  0
   -6.6840   -0.4157   -4.2711 H   0  0  0  0  0  0  0  0  0  0  0  0
   -5.0361   -1.3709   -2.9149 H   0  0  0  0  0  0  0  0  0  0  0  0
   -3.2119   -1.4389   -1.3052 H   0  0  0  0  0  0  0  0  0  0  0  0
   -3.2959   -1.4339    1.9640 H   0  0  0  0  0  0  0  0  0  0  0  0
    0.4417    1.0410    4.1868 H   0  0  0  0  0  0  0  0  0  0  0  0
    1.2114    2.3246    3.2679 H   0  0  0  0  0  0  0  0  0  0  0  0
    2.6656    0.3191    3.6854 H   0  0  0  0  0  0  0  0  0  0  0  0
    1.5727   -0.6867    2.7474 H   0  0  0  0  0  0  0  0  0  0  0  0
    3.0856    1.7478    1.6576 H   0  0  0  0  0  0  0  0  0  0  0  0
    2.0470    0.6559    0.7041 H   0  0  0  0  0  0  0  0  0  0  0  0
    4.2994    1.0708   -0.2606 H   0  0  0  0  0  0  0  0  0  0  0  0
    5.9694   -2.0553    1.0046 H   0  0  0  0  0  0  0  0  0  0  0  0
    7.9704   -2.9631   -0.0593 H   0  0  0  0  0  0  0  0  0  0  0  0
    8.9745   -1.8528   -2.0256 H   0  0  0  0  0  0  0  0  0  0  0  0
    9.3629    0.3918   -4.5501 H   0  0  0  0  0  0  0  0  0  0  0  0
    5.9110    1.1705   -1.8715 H   0  0  0  0  0  0  0  0  0  0  0  0
   -5.7188    0.3344    1.6944 H   0  0  0  0  0  0  0  0  0  0  0  0
   -7.4427    1.9363    1.4955 H   0  0  0  0  0  0  0  0  0  0  0  0
   -8.0066    0.3364    2.1194 H   0  0  0  0  0  0  0  0  0  0  0  0
   -9.1404    1.4622    1.3655 H   0  0  0  0  0  0  0  0  0  0  0  0
  1  2  1  0
  2  3  1  0
  3  4  2  0
  4  5  1  0
  5  6  2  0
  6  7  1  0
  7  8  2  3
  8  9  1  0
  9 10  1  0
 10 11  2  0
 10 12  1  0
 12 13  1  0
 13 14  1  0
 14 15  1  0
 15 16  1  0
 16 17  2  0
 16 18  1  0
 18 19  1  0
 19 20  2  0
 20 21  1  0
 21 22  2  0
 22 23  1  0
 23 24  1  0
 24 25  2  0
 24 26  1  0
 23 27  2  0
 12 28  1  0
 28 29  2  0
  6 30  1  0
 30 31  2  0
 31 32  1  0
 32 33  1  0
 31  3  1  0
 28  8  1  0
 27 19  1  0
  1 34  1  0
  1 35  1  0
  1 36  1  0
  4 37  1  0
  5 38  1  0
  7 39  1  0
 13 40  1  0
 13 41  1  0
 14 42  1  0
 14 43  1  0
 15 44  1  0
 15 45  1  0
 18 46  1  0
 20 47  1  0
 21 48  1  0
 22 49  1  0
 26 50  1  0
 27 51  1  0
 30 52  1  0
 33 53  1  0
 33 54  1  0
 33 55  1  0
M  END
$$$$
