
     RDKit          3D

 39 40  0  0  0  0  0  0  0  0999 V2000
   -1.8970   -1.8850   -0.2502 C   0  0  0  0  0  0  0  0  0  0  0  0
   -2.6910   -1.1456    0.8280 C   0  0  0  0  0  0  0  0  0  0  0  0
   -2.6449    0.3089    0.6940 N   0  0  0  0  0  0  0  0  0  0  0  0
   -3.7312    0.9474   -0.0617 C   0  0  0  0  0  0  0  0  0  0  0  0
   -3.6178    0.7878   -1.5714 C   0  0  0  0  0  0  0  0  0  0  0  0
   -1.5462    0.9596    1.2260 C   0  0  0  0  0  0  0  0  0  0  0  0
   -0.6454    0.3379    1.8057 O   0  0  0  0  0  0  0  0  0  0  0  0
   -1.4073    2.4656    1.0970 C   0  0  0  0  0  0  0  0  0  0  0  0
   -0.6842    2.9988   -0.4713 S   0  0  0  0  0  0  0  0  0  0  0  0
    0.3402    1.6725   -0.9482 C   0  0  0  0  0  0  0  0  0  0  0  0
    0.1902    0.9828   -2.0559 N   0  0  0  0  0  0  0  0  0  0  0  0
    1.1720    0.0209   -2.0754 N   0  0  0  0  0  0  0  0  0  0  0  0
    1.9226    0.1540   -0.9927 C   0  0  0  0  0  0  0  0  0  0  0  0
    3.0705   -0.6840   -0.6499 C   0  0  0  0  0  0  0  0  0  0  0  0
    4.2832   -0.1283   -0.2237 C   0  0  0  0  0  0  0  0  0  0  0  0
    5.3176   -0.9801    0.1384 C   0  0  0  0  0  0  0  0  0  0  0  0
    5.2351   -2.3242    0.0637 N   0  0  0  0  0  0  0  0  0  0  0  0
    4.0791   -2.8406   -0.4113 C   0  0  0  0  0  0  0  0  0  0  0  0
    2.9747   -2.0737   -0.7598 C   0  0  0  0  0  0  0  0  0  0  0  0
    1.4105    1.1861   -0.2279 N   0  0  0  0  0  0  0  0  0  0  0  0
    1.8568    1.5933    1.0936 N   0  0  0  0  0  0  0  0  0  0  0  0
   -0.8520   -1.5514   -0.2953 H   0  0  0  0  0  0  0  0  0  0  0  0
   -2.3353   -1.7513   -1.2571 H   0  0  0  0  0  0  0  0  0  0  0  0
   -1.8911   -2.9552   -0.0327 H   0  0  0  0  0  0  0  0  0  0  0  0
   -3.7413   -1.4710    0.8552 H   0  0  0  0  0  0  0  0  0  0  0  0
   -2.2627   -1.4142    1.8091 H   0  0  0  0  0  0  0  0  0  0  0  0
   -3.7909    2.0147    0.1810 H   0  0  0  0  0  0  0  0  0  0  0  0
   -4.6847    0.5120    0.2793 H   0  0  0  0  0  0  0  0  0  0  0  0
   -2.6344    1.0831   -1.9387 H   0  0  0  0  0  0  0  0  0  0  0  0
   -4.3737    1.4076   -2.0742 H   0  0  0  0  0  0  0  0  0  0  0  0
   -3.7896   -0.2493   -1.8768 H   0  0  0  0  0  0  0  0  0  0  0  0
   -2.3606    2.9737    1.2787 H   0  0  0  0  0  0  0  0  0  0  0  0
   -0.7508    2.8047    1.9070 H   0  0  0  0  0  0  0  0  0  0  0  0
    4.4320    0.9445   -0.1646 H   0  0  0  0  0  0  0  0  0  0  0  0
    6.2589   -0.5888    0.5229 H   0  0  0  0  0  0  0  0  0  0  0  0
    4.0577   -3.9246   -0.4918 H   0  0  0  0  0  0  0  0  0  0  0  0
    2.0623   -2.5485   -1.1172 H   0  0  0  0  0  0  0  0  0  0  0  0
    1.0936    1.4089    1.7488 H   0  0  0  0  0  0  0  0  0  0  0  0
    2.5750    0.9510    1.4397 H   0  0  0  0  0  0  0  0  0  0  0  0
  1  2  1  0
  2  3  1  0
  3  4  1  0
  4  5  1  0
  3  6  1  0
  6  7  2  0
  6  8  1  0
  8  9  1  0
  9 10  1  0
 10 11  2  0
 11 12  1  0
 12 13  2  0
 13 14  1  0
 14 15  2  0
 15 16  1  0
 16 17  2  0
 17 18  1  0
 18 19  2  0
 13 20  1  0
 20 21  1  0
 20 10  1  0
 19 14  1  0
  1 22  1  0
  1 23  1  0
  1 24  1  0
  2 25  1  0
  2 26  1  0
  4 27  1  0
  4 28  1  0
  5 29  1  0
  5 30  1  0
  5 31  1  0
  8 32  1  0
  8 33  1  0
 15 34  1  0
 16 35  1  0
 18 36  1  0
 19 37  1  0
 21 38  1  0
 21 39  1  0
M  END
$$$$
