
     RDKit          3D

 51 55  0  0  0  0  0  0  0  0999 V2000
   -1.5991    1.0007    0.8346 C   0  0  0  0  0  0  0  0  0  0  0  0
   -0.2690    1.3743    1.0644 C   0  0  0  0  0  0  0  0  0  0  0  0
    0.7476    0.6744    0.3957 C   0  0  0  0  0  0  0  0  0  0  0  0
    0.4519   -0.3713   -0.4845 C   0  0  0  0  0  0  0  0  0  0  0  0
   -0.8972   -0.7233   -0.7025 C   0  0  0  0  0  0  0  0  0  0  0  0
   -1.9316   -0.0411   -0.0373 C   0  0  0  0  0  0  0  0  0  0  0  0
   -3.3766   -0.4406   -0.2944 C   0  0  0  0  0  0  0  0  0  0  0  0
   -4.1421   -0.8181    0.9940 C   0  0  0  0  0  0  0  0  0  0  0  0
   -5.1758    0.2272    1.4035 C   0  0  0  0  0  0  0  0  0  0  0  0
   -6.1933    0.4993    0.2954 C   0  0  0  0  0  0  0  0  0  0  0  0
   -5.6094    0.4070   -1.1148 C   0  0  0  0  0  0  0  0  0  0  0  0
   -4.1025    0.6325   -1.1286 C   0  0  0  0  0  0  0  0  0  0  0  0
    1.6869   -0.8548   -0.9929 C   0  0  0  0  0  0  0  0  0  0  0  0
    2.7022   -0.1404   -0.3846 C   0  0  0  0  0  0  0  0  0  0  0  0
    2.1238    0.8216    0.4049 N   0  0  0  0  0  0  0  0  0  0  0  0
    2.8609    1.8721    1.0837 C   0  0  0  0  0  0  0  0  0  0  0  0
    3.9146    1.3494    2.0505 C   0  0  0  0  0  0  0  0  0  0  0  0
    5.1439    0.7802    1.3448 C   0  0  0  0  0  0  0  0  0  0  0  0
    4.9132   -0.4651    0.6281 N   0  0  0  0  0  0  0  0  0  0  0  0
    4.1679   -0.3234   -0.6206 C   0  0  0  0  0  0  0  0  0  0  0  0
    4.4016   -1.6246   -1.4377 C   0  0  0  0  0  0  0  0  0  0  0  0
    3.3684   -1.8125   -2.5612 C   0  0  0  0  0  0  0  0  0  0  0  0
    1.9450   -1.9328   -1.9905 C   0  0  0  0  0  0  0  0  0  0  0  0
   -2.3811    1.5498    1.3535 H   0  0  0  0  0  0  0  0  0  0  0  0
   -0.0496    2.1882    1.7468 H   0  0  0  0  0  0  0  0  0  0  0  0
   -1.1253   -1.5322   -1.3911 H   0  0  0  0  0  0  0  0  0  0  0  0
   -3.3561   -1.3572   -0.9020 H   0  0  0  0  0  0  0  0  0  0  0  0
   -3.4583   -1.0161    1.8280 H   0  0  0  0  0  0  0  0  0  0  0  0
   -4.6752   -1.7619    0.8147 H   0  0  0  0  0  0  0  0  0  0  0  0
   -5.7011   -0.0994    2.3084 H   0  0  0  0  0  0  0  0  0  0  0  0
   -4.6683    1.1630    1.6648 H   0  0  0  0  0  0  0  0  0  0  0  0
   -7.0281   -0.2075    0.3769 H   0  0  0  0  0  0  0  0  0  0  0  0
   -6.6238    1.4958    0.4530 H   0  0  0  0  0  0  0  0  0  0  0  0
   -5.8271   -0.5844   -1.5321 H   0  0  0  0  0  0  0  0  0  0  0  0
   -6.1075    1.1331   -1.7674 H   0  0  0  0  0  0  0  0  0  0  0  0
   -3.8904    1.6417   -0.7529 H   0  0  0  0  0  0  0  0  0  0  0  0
   -3.7323    0.6070   -2.1611 H   0  0  0  0  0  0  0  0  0  0  0  0
    3.3060    2.5056    0.3074 H   0  0  0  0  0  0  0  0  0  0  0  0
    2.1506    2.4927    1.6370 H   0  0  0  0  0  0  0  0  0  0  0  0
    4.2464    2.1841    2.6804 H   0  0  0  0  0  0  0  0  0  0  0  0
    3.4818    0.5993    2.7245 H   0  0  0  0  0  0  0  0  0  0  0  0
    5.5917    1.5304    0.6816 H   0  0  0  0  0  0  0  0  0  0  0  0
    5.9008    0.5740    2.1111 H   0  0  0  0  0  0  0  0  0  0  0  0
    4.4295   -1.1378    1.2232 H   0  0  0  0  0  0  0  0  0  0  0  0
    4.5493    0.5180   -1.2135 H   0  0  0  0  0  0  0  0  0  0  0  0
    4.3504   -2.5060   -0.7823 H   0  0  0  0  0  0  0  0  0  0  0  0
    5.4128   -1.6115   -1.8634 H   0  0  0  0  0  0  0  0  0  0  0  0
    3.6059   -2.7112   -3.1414 H   0  0  0  0  0  0  0  0  0  0  0  0
    3.4237   -0.9592   -3.2491 H   0  0  0  0  0  0  0  0  0  0  0  0
    1.8257   -2.9067   -1.5007 H   0  0  0  0  0  0  0  0  0  0  0  0
    1.2184   -1.8827   -2.8090 H   0  0  0  0  0  0  0  0  0  0  0  0
  1  2  2  0
  2  3  1  0
  3  4  2  0
  4  5  1  0
  5  6  2  0
  6  7  1  0
  7  8  1  0
  8  9  1  0
  9 10  1  0
 10 11  1  0
 11 12  1  0
  4 13  1  0
 13 14  2  0
 14 15  1  0
 15 16  1  0
 16 17  1  0
 17 18  1  0
 18 19  1  0
 19 20  1  0
 20 21  1  0
 21 22  1  0
 22 23  1  0
  6  1  1  0
 12  7  1  0
 23 13  1  0
 15  3  1  0
 20 14  1  0
  1 24  1  0
  2 25  1  0
  5 26  1  0
  7 27  1  0
  8 28  1  0
  8 29  1  0
  9 30  1  0
  9 31  1  0
 10 32  1  0
 10 33  1  0
 11 34  1  0
 11 35  1  0
 12 36  1  0
 12 37  1  0
 16 38  1  0
 16 39  1  0
 17 40  1  0
 17 41  1  0
 18 42  1  0
 18 43  1  0
 19 44  1  0
 20 45  1  0
 21 46  1  0
 21 47  1  0
 22 48  1  0
 22 49  1  0
 23 50  1  0
 23 51  1  0
M  END
$$$$
