
     RDKit          3D

 44 47  0  0  0  0  0  0  0  0999 V2000
   -6.2714   -1.0963   -2.5424 C   0  0  0  0  0  0  0  0  0  0  0  0
   -5.8371   -1.6319   -1.2990 O   0  0  0  0  0  0  0  0  0  0  0  0
   -4.6710   -1.1360   -0.7852 C   0  0  0  0  0  0  0  0  0  0  0  0
   -4.2861   -1.6949    0.4344 C   0  0  0  0  0  0  0  0  0  0  0  0
   -3.1142   -1.2812    1.0733 C   0  0  0  0  0  0  0  0  0  0  0  0
   -2.3008   -0.2959    0.4986 C   0  0  0  0  0  0  0  0  0  0  0  0
   -1.0329    0.1523    1.2090 C   0  0  0  0  0  0  0  0  0  0  0  0
    0.1927    0.0157    0.3332 C   0  0  0  0  0  0  0  0  0  0  0  0
    1.2062    0.8999    0.3455 C   0  0  0  0  0  0  0  0  0  0  0  0
    2.3617    0.6927   -0.5479 C   0  0  0  0  0  0  0  0  0  0  0  0
    2.3107    1.2759   -1.8147 C   0  0  0  0  0  0  0  0  0  0  0  0
    3.3809    1.0866   -2.6634 C   0  0  0  0  0  0  0  0  0  0  0  0
    4.4751    0.3684   -2.3410 N   0  0  0  0  0  0  0  0  0  0  0  0
    4.5286   -0.2009   -1.1270 C   0  0  0  0  0  0  0  0  0  0  0  0
    5.6555   -0.9443   -0.8011 C   0  0  0  0  0  0  0  0  0  0  0  0
    5.7932   -1.5730    0.4390 C   0  0  0  0  0  0  0  0  0  0  0  0
    4.7791   -1.4560    1.3776 C   0  0  0  0  0  0  0  0  0  0  0  0
    4.9316   -2.2255    2.9073 Cl  0  0  0  0  0  0  0  0  0  0  0  0
    3.6370   -0.7165    1.0819 C   0  0  0  0  0  0  0  0  0  0  0  0
    3.4921   -0.0765   -0.1739 C   0  0  0  0  0  0  0  0  0  0  0  0
    1.2614    2.1052    1.2445 C   0  0  0  0  0  0  0  0  0  0  0  0
    0.1230    2.0897    2.2499 C   0  0  0  0  0  0  0  0  0  0  0  0
    0.2502    2.5717    3.3758 O   0  0  0  0  0  0  0  0  0  0  0  0
   -1.2063    1.5705    1.7623 C   0  0  0  0  0  0  0  0  0  0  0  0
   -2.6954    0.2640   -0.7269 C   0  0  0  0  0  0  0  0  0  0  0  0
   -3.8701   -0.1533   -1.3642 C   0  0  0  0  0  0  0  0  0  0  0  0
   -6.4764   -0.0238   -2.4602 H   0  0  0  0  0  0  0  0  0  0  0  0
   -5.5450   -1.3009   -3.3358 H   0  0  0  0  0  0  0  0  0  0  0  0
   -7.2078   -1.5942   -2.8121 H   0  0  0  0  0  0  0  0  0  0  0  0
   -4.9063   -2.4615    0.8931 H   0  0  0  0  0  0  0  0  0  0  0  0
   -2.8472   -1.7383    2.0238 H   0  0  0  0  0  0  0  0  0  0  0  0
   -0.8591   -0.5238    2.0588 H   0  0  0  0  0  0  0  0  0  0  0  0
    0.2358   -0.8598   -0.3153 H   0  0  0  0  0  0  0  0  0  0  0  0
    1.4581    1.8630   -2.1385 H   0  0  0  0  0  0  0  0  0  0  0  0
    3.3902    1.5200   -3.6597 H   0  0  0  0  0  0  0  0  0  0  0  0
    6.4519   -1.0380   -1.5367 H   0  0  0  0  0  0  0  0  0  0  0  0
    6.6899   -2.1466    0.6566 H   0  0  0  0  0  0  0  0  0  0  0  0
    2.8547   -0.6394    1.8329 H   0  0  0  0  0  0  0  0  0  0  0  0
    2.2031    2.1184    1.8048 H   0  0  0  0  0  0  0  0  0  0  0  0
    1.1832    3.0266    0.6576 H   0  0  0  0  0  0  0  0  0  0  0  0
   -1.9217    1.5704    2.5932 H   0  0  0  0  0  0  0  0  0  0  0  0
   -1.5797    2.2755    1.0097 H   0  0  0  0  0  0  0  0  0  0  0  0
   -2.0883    1.0320   -1.2017 H   0  0  0  0  0  0  0  0  0  0  0  0
   -4.1286    0.3099   -2.3104 H   0  0  0  0  0  0  0  0  0  0  0  0
  1  2  1  0
  2  3  1  0
  3  4  2  0
  4  5  1  0
  5  6  2  0
  6  7  1  0
  7  8  1  0
  8  9  2  0
  9 10  1  0
 10 11  2  0
 11 12  1  0
 12 13  2  0
 13 14  1  0
 14 15  2  0
 15 16  1  0
 16 17  2  0
 17 18  1  0
 17 19  1  0
 19 20  2  0
  9 21  1  0
 21 22  1  0
 22 23  2  0
 22 24  1  0
  6 25  1  0
 25 26  2  0
 26  3  1  0
 24  7  1  0
 20 10  1  0
 20 14  1  0
  1 27  1  0
  1 28  1  0
  1 29  1  0
  4 30  1  0
  5 31  1  0
  7 32  1  0
  8 33  1  0
 11 34  1  0
 12 35  1  0
 15 36  1  0
 16 37  1  0
 19 38  1  0
 21 39  1  0
 21 40  1  0
 24 41  1  0
 24 42  1  0
 25 43  1  0
 26 44  1  0
M  END
$$$$
