
     RDKit          3D

 33 36  0  0  0  0  0  0  0  0999 V2000
    5.2088    0.1687    0.1969 C   0  0  0  0  0  0  0  0  0  0  0  0
    4.8092   -1.1499    0.3698 C   0  0  0  0  0  0  0  0  0  0  0  0
    3.4507   -1.4681    0.3318 C   0  0  0  0  0  0  0  0  0  0  0  0
    2.4826   -0.4930    0.1241 C   0  0  0  0  0  0  0  0  0  0  0  0
    1.1833   -0.8482    0.0993 N   0  0  0  0  0  0  0  0  0  0  0  0
    0.2705    0.1286   -0.1007 C   0  0  0  0  0  0  0  0  0  0  0  0
    0.7037    1.4592   -0.2966 C   0  0  0  0  0  0  0  0  0  0  0  0
    2.0011    1.8341   -0.2616 N   0  0  0  0  0  0  0  0  0  0  0  0
    2.8912    0.8515   -0.0538 C   0  0  0  0  0  0  0  0  0  0  0  0
    4.2462    1.1571   -0.0133 C   0  0  0  0  0  0  0  0  0  0  0  0
   -0.1690    2.5044   -0.5079 O   0  0  0  0  0  0  0  0  0  0  0  0
   -1.4328    2.0485   -1.0043 C   0  0  0  0  0  0  0  0  0  0  0  0
   -2.0089    0.9274   -0.1268 C   0  0  0  0  0  0  0  0  0  0  0  0
   -3.3597    0.4521   -0.6680 C   0  0  0  0  0  0  0  0  0  0  0  0
   -3.9225   -0.7367    0.1168 C   0  0  0  0  0  0  0  0  0  0  0  0
   -2.8895   -1.4176    1.0127 C   0  0  0  0  0  0  0  0  0  0  0  0
   -1.5100   -1.5065    0.3605 C   0  0  0  0  0  0  0  0  0  0  0  0
   -1.0822   -0.2018   -0.1268 N   0  0  0  0  0  0  0  0  0  0  0  0
    6.2630    0.4323    0.2240 H   0  0  0  0  0  0  0  0  0  0  0  0
    5.5473   -1.9309    0.5339 H   0  0  0  0  0  0  0  0  0  0  0  0
    3.1362   -2.5000    0.4674 H   0  0  0  0  0  0  0  0  0  0  0  0
    4.5560    2.1905   -0.1499 H   0  0  0  0  0  0  0  0  0  0  0  0
   -2.1104    2.9094   -1.0040 H   0  0  0  0  0  0  0  0  0  0  0  0
   -1.3094    1.7309   -2.0485 H   0  0  0  0  0  0  0  0  0  0  0  0
   -2.1204    1.2994    0.9009 H   0  0  0  0  0  0  0  0  0  0  0  0
   -3.2461    0.1479   -1.7174 H   0  0  0  0  0  0  0  0  0  0  0  0
   -4.0860    1.2736   -0.6639 H   0  0  0  0  0  0  0  0  0  0  0  0
   -4.7653   -0.4063    0.7357 H   0  0  0  0  0  0  0  0  0  0  0  0
   -4.3334   -1.4659   -0.5922 H   0  0  0  0  0  0  0  0  0  0  0  0
   -2.8046   -0.8489    1.9481 H   0  0  0  0  0  0  0  0  0  0  0  0
   -3.2399   -2.4182    1.2904 H   0  0  0  0  0  0  0  0  0  0  0  0
   -0.8176   -1.9166    1.1057 H   0  0  0  0  0  0  0  0  0  0  0  0
   -1.5420   -2.2071   -0.4822 H   0  0  0  0  0  0  0  0  0  0  0  0
  1  2  2  0
  2  3  1  0
  3  4  2  0
  4  5  1  0
  5  6  2  0
  6  7  1  0
  7  8  2  0
  8  9  1  0
  9 10  2  0
  7 11  1  0
 11 12  1  0
 12 13  1  0
 13 14  1  0
 14 15  1  0
 15 16  1  0
 16 17  1  0
 17 18  1  0
 10  1  1  0
 18 13  1  0
  9  4  1  0
 18  6  1  0
  1 19  1  0
  2 20  1  0
  3 21  1  0
 10 22  1  0
 12 23  1  0
 12 24  1  0
 13 25  1  0
 14 26  1  0
 14 27  1  0
 15 28  1  0
 15 29  1  0
 16 30  1  0
 16 31  1  0
 17 32  1  0
 17 33  1  0
M  END
$$$$
