
     RDKit          3D

 80 83  0  0  0  0  0  0  0  0999 V2000
   -8.4443   -3.7901   -3.0872 C   0  0  0  0  0  0  0  0  0  0  0  0
   -8.2441   -2.2817   -3.1037 C   0  0  0  0  0  0  0  0  0  0  0  0
   -7.3381   -1.7783   -1.9763 C   0  0  0  0  0  0  0  0  0  0  0  0
   -5.8731   -2.1777   -2.1660 C   0  0  0  0  0  0  0  0  0  0  0  0
   -4.9879   -1.6255   -1.0440 C   0  0  0  0  0  0  0  0  0  0  0  0
   -3.5150   -1.9506   -1.3088 C   0  0  0  0  0  0  0  0  0  0  0  0
   -2.5786   -1.5349   -0.1748 C   0  0  0  0  0  0  0  0  0  0  0  0
   -2.2390   -0.0510   -0.1881 C   0  0  0  0  0  0  0  0  0  0  0  0
   -3.0776    0.8050   -0.4484 O   0  0  0  0  0  0  0  0  0  0  0  0
   -0.9238    0.1836    0.1545 N   0  0  0  0  0  0  0  0  0  0  0  0
   -0.2397    1.4165    0.2487 C   0  0  0  0  0  0  0  0  0  0  0  0
   -0.8614    2.6599    0.1016 C   0  0  0  0  0  0  0  0  0  0  0  0
   -0.1220    3.8381    0.2619 C   0  0  0  0  0  0  0  0  0  0  0  0
   -0.7271    5.1942    0.1109 C   0  0  0  0  0  0  0  0  0  0  0  0
   -0.0042    6.1616   -0.1091 O   0  0  0  0  0  0  0  0  0  0  0  0
   -2.0954    5.2947    0.2501 N   0  0  0  0  0  0  0  0  0  0  0  0
   -2.7778    6.5672    0.1449 C   0  0  0  0  0  0  0  0  0  0  0  0
   -2.7345    7.3720    1.4436 C   0  0  0  0  0  0  0  0  0  0  0  0
   -3.5273    6.7181    2.5650 C   0  0  0  0  0  0  0  0  0  0  0  0
    1.2480    3.7583    0.5420 C   0  0  0  0  0  0  0  0  0  0  0  0
    1.8777    2.5169    0.6718 C   0  0  0  0  0  0  0  0  0  0  0  0
    1.1512    1.3291    0.5291 C   0  0  0  0  0  0  0  0  0  0  0  0
    1.7572    0.0536    0.5935 N   0  0  0  0  0  0  0  0  0  0  0  0
    2.7211   -0.1605    1.6821 C   0  0  0  0  0  0  0  0  0  0  0  0
    3.3333   -1.5474    1.5425 C   0  0  0  0  0  0  0  0  0  0  0  0
    4.1256   -1.6648    0.2248 C   0  0  0  0  0  0  0  0  0  0  0  0
    3.6235   -0.6970   -0.8544 C   0  0  0  0  0  0  0  0  0  0  0  0
    2.1196   -0.4809   -0.7383 C   0  0  0  0  0  0  0  0  0  0  0  0
    5.6299   -1.5290    0.4115 C   0  0  0  0  0  0  0  0  0  0  0  0
    5.9554   -2.9631    0.6554 C   0  0  0  0  0  0  0  0  0  0  0  0
    7.2398   -3.3853    1.2582 C   0  0  0  0  0  0  0  0  0  0  0  0
    8.2945   -2.4821    1.4354 C   0  0  0  0  0  0  0  0  0  0  0  0
    9.4911   -2.9104    2.0166 C   0  0  0  0  0  0  0  0  0  0  0  0
    9.6385   -4.2375    2.4178 C   0  0  0  0  0  0  0  0  0  0  0  0
    8.5943   -5.1437    2.2341 C   0  0  0  0  0  0  0  0  0  0  0  0
    7.3973   -4.7190    1.6549 C   0  0  0  0  0  0  0  0  0  0  0  0
    5.0309   -3.7895    0.2839 N   0  0  0  0  0  0  0  0  0  0  0  0
    3.9722   -3.0175   -0.2524 O   0  0  0  0  0  0  0  0  0  0  0  0
   -9.1402   -4.0839   -3.8810 H   0  0  0  0  0  0  0  0  0  0  0  0
   -8.8667   -4.1185   -2.1305 H   0  0  0  0  0  0  0  0  0  0  0  0
   -7.5045   -4.3265   -3.2523 H   0  0  0  0  0  0  0  0  0  0  0  0
   -9.2247   -1.8006   -3.0025 H   0  0  0  0  0  0  0  0  0  0  0  0
   -7.8397   -1.9757   -4.0783 H   0  0  0  0  0  0  0  0  0  0  0  0
   -7.7071   -2.1446   -1.0095 H   0  0  0  0  0  0  0  0  0  0  0  0
   -7.4061   -0.6835   -1.9446 H   0  0  0  0  0  0  0  0  0  0  0  0
   -5.5169   -1.8017   -3.1330 H   0  0  0  0  0  0  0  0  0  0  0  0
   -5.7777   -3.2690   -2.1889 H   0  0  0  0  0  0  0  0  0  0  0  0
   -5.2976   -2.0638   -0.0872 H   0  0  0  0  0  0  0  0  0  0  0  0
   -5.1309   -0.5427   -0.9675 H   0  0  0  0  0  0  0  0  0  0  0  0
   -3.1960   -1.4811   -2.2479 H   0  0  0  0  0  0  0  0  0  0  0  0
   -3.4196   -3.0356   -1.4456 H   0  0  0  0  0  0  0  0  0  0  0  0
   -1.6521   -2.1128   -0.2805 H   0  0  0  0  0  0  0  0  0  0  0  0
   -3.0050   -1.7823    0.8043 H   0  0  0  0  0  0  0  0  0  0  0  0
   -0.3190   -0.6061    0.3612 H   0  0  0  0  0  0  0  0  0  0  0  0
   -1.9136    2.7136   -0.1506 H   0  0  0  0  0  0  0  0  0  0  0  0
   -2.6313    4.5005    0.5758 H   0  0  0  0  0  0  0  0  0  0  0  0
   -2.3112    7.1488   -0.6600 H   0  0  0  0  0  0  0  0  0  0  0  0
   -3.8126    6.3608   -0.1485 H   0  0  0  0  0  0  0  0  0  0  0  0
   -3.1519    8.3671    1.2541 H   0  0  0  0  0  0  0  0  0  0  0  0
   -1.6988    7.5138    1.7708 H   0  0  0  0  0  0  0  0  0  0  0  0
   -3.5115    7.3528    3.4577 H   0  0  0  0  0  0  0  0  0  0  0  0
   -3.1063    5.7468    2.8385 H   0  0  0  0  0  0  0  0  0  0  0  0
   -4.5718    6.5702    2.2726 H   0  0  0  0  0  0  0  0  0  0  0  0
    1.8358    4.6682    0.6489 H   0  0  0  0  0  0  0  0  0  0  0  0
    2.9470    2.5036    0.8544 H   0  0  0  0  0  0  0  0  0  0  0  0
    3.5250    0.5858    1.6862 H   0  0  0  0  0  0  0  0  0  0  0  0
    2.1990   -0.0918    2.6441 H   0  0  0  0  0  0  0  0  0  0  0  0
    2.5350   -2.3022    1.5708 H   0  0  0  0  0  0  0  0  0  0  0  0
    3.9745   -1.7593    2.4072 H   0  0  0  0  0  0  0  0  0  0  0  0
    3.8536   -1.0864   -1.8531 H   0  0  0  0  0  0  0  0  0  0  0  0
    4.1266    0.2735   -0.7570 H   0  0  0  0  0  0  0  0  0  0  0  0
    1.5968   -1.4356   -0.8784 H   0  0  0  0  0  0  0  0  0  0  0  0
    1.7865    0.1775   -1.5512 H   0  0  0  0  0  0  0  0  0  0  0  0
    5.9031   -0.8680    1.2364 H   0  0  0  0  0  0  0  0  0  0  0  0
    6.1397   -1.2179   -0.5069 H   0  0  0  0  0  0  0  0  0  0  0  0
    8.2160   -1.4484    1.1178 H   0  0  0  0  0  0  0  0  0  0  0  0
   10.3121   -2.2099    2.1516 H   0  0  0  0  0  0  0  0  0  0  0  0
   10.5701   -4.5692    2.8692 H   0  0  0  0  0  0  0  0  0  0  0  0
    8.7114   -6.1809    2.5407 H   0  0  0  0  0  0  0  0  0  0  0  0
    6.5900   -5.4361    1.5146 H   0  0  0  0  0  0  0  0  0  0  0  0
  1  2  1  0
  2  3  1  0
  3  4  1  0
  4  5  1  0
  5  6  1  0
  6  7  1  0
  7  8  1  0
  8  9  2  0
  8 10  1  0
 10 11  1  0
 11 12  2  0
 12 13  1  0
 13 14  1  0
 14 15  2  0
 14 16  1  0
 16 17  1  0
 17 18  1  0
 18 19  1  0
 13 20  2  0
 20 21  1  0
 21 22  2  0
 22 23  1  0
 23 24  1  0
 24 25  1  0
 25 26  1  0
 26 27  1  0
 27 28  1  0
 26 29  1  0
 29 30  1  0
 30 31  1  0
 31 32  2  0
 32 33  1  0
 33 34  2  0
 34 35  1  0
 35 36  2  0
 30 37  2  0
 37 38  1  0
 22 11  1  0
 28 23  1  0
 36 31  1  0
 38 26  1  0
  1 39  1  0
  1 40  1  0
  1 41  1  0
  2 42  1  0
  2 43  1  0
  3 44  1  0
  3 45  1  0
  4 46  1  0
  4 47  1  0
  5 48  1  0
  5 49  1  0
  6 50  1  0
  6 51  1  0
  7 52  1  0
  7 53  1  0
 10 54  1  0
 12 55  1  0
 16 56  1  0
 17 57  1  0
 17 58  1  0
 18 59  1  0
 18 60  1  0
 19 61  1  0
 19 62  1  0
 19 63  1  0
 20 64  1  0
 21 65  1  0
 24 66  1  0
 24 67  1  0
 25 68  1  0
 25 69  1  0
 27 70  1  0
 27 71  1  0
 28 72  1  0
 28 73  1  0
 29 74  1  0
 29 75  1  0
 32 76  1  0
 33 77  1  0
 34 78  1  0
 35 79  1  0
 36 80  1  0
M  END
$$$$
