
     RDKit          3D

 52 53  0  0  0  0  0  0  0  0999 V2000
    5.4387    1.2417   -0.5323 C   0  0  0  0  0  0  0  0  0  0  0  0
    4.8911   -0.1116   -0.0405 C   0  0  0  0  0  0  0  0  0  0  0  0
    5.6392   -0.4861    1.2586 C   0  0  0  0  0  0  0  0  0  0  0  0
    5.2334   -1.1893   -1.0919 C   0  0  0  0  0  0  0  0  0  0  0  0
    3.3410   -0.0762    0.2205 C   0  0  0  0  0  0  0  0  0  0  0  0
    2.4969    0.0248   -1.0754 C   0  0  0  0  0  0  0  0  0  0  0  0
    1.0691    0.5311   -0.8546 C   0  0  0  0  0  0  0  0  0  0  0  0
    0.5528    0.1873    0.5386 C   0  0  0  0  0  0  0  0  0  0  0  0
   -0.7988    0.6652    0.7042 O   0  0  0  0  0  0  0  0  0  0  0  0
   -1.7870   -0.1317    0.2184 C   0  0  0  0  0  0  0  0  0  0  0  0
   -1.6303   -1.2083   -0.3416 O   0  0  0  0  0  0  0  0  0  0  0  0
   -3.1450    0.5282    0.4561 C   0  0  0  0  0  0  0  0  0  0  0  0
   -4.3997   -0.3385    0.0976 N   0  0  0  0  0  4  0  0  0  0  0  0
   -4.4712   -1.5517    1.0170 C   0  0  0  0  0  0  0  0  0  0  0  0
   -4.3481   -0.7881   -1.3810 C   0  0  0  0  0  0  0  0  0  0  0  0
   -5.7468   -0.5248   -1.9038 C   0  0  0  0  0  0  0  0  0  0  0  0
   -6.1382    0.7512   -1.1916 C   0  0  0  0  0  0  0  0  0  0  0  0
   -5.6818    0.5055    0.2333 C   0  0  0  0  0  0  0  0  0  0  0  0
    1.4168    0.8587    1.6115 C   0  0  0  0  0  0  0  0  0  0  0  0
    2.8894    1.0108    1.2135 C   0  0  0  0  0  0  0  0  0  0  0  0
    5.2921    2.0321    0.2110 H   0  0  0  0  0  0  0  0  0  0  0  0
    6.5164    1.1793   -0.7251 H   0  0  0  0  0  0  0  0  0  0  0  0
    4.9631    1.5625   -1.4636 H   0  0  0  0  0  0  0  0  0  0  0  0
    5.5486    0.2908    2.0238 H   0  0  0  0  0  0  0  0  0  0  0  0
    5.2565   -1.4227    1.6791 H   0  0  0  0  0  0  0  0  0  0  0  0
    6.7108   -0.6227    1.0713 H   0  0  0  0  0  0  0  0  0  0  0  0
    4.8322   -0.9378   -2.0792 H   0  0  0  0  0  0  0  0  0  0  0  0
    6.3180   -1.3001   -1.2074 H   0  0  0  0  0  0  0  0  0  0  0  0
    4.8306   -2.1658   -0.8003 H   0  0  0  0  0  0  0  0  0  0  0  0
    3.0853   -1.0436    0.6797 H   0  0  0  0  0  0  0  0  0  0  0  0
    2.9724    0.6756   -1.8162 H   0  0  0  0  0  0  0  0  0  0  0  0
    2.4449   -0.9716   -1.5325 H   0  0  0  0  0  0  0  0  0  0  0  0
    1.0383    1.6206   -0.9910 H   0  0  0  0  0  0  0  0  0  0  0  0
    0.4089    0.1283   -1.6314 H   0  0  0  0  0  0  0  0  0  0  0  0
    0.5810   -0.8994    0.6952 H   0  0  0  0  0  0  0  0  0  0  0  0
   -3.2456    0.7811    1.5169 H   0  0  0  0  0  0  0  0  0  0  0  0
   -3.2090    1.4320   -0.1595 H   0  0  0  0  0  0  0  0  0  0  0  0
   -3.5740   -2.1599    0.8872 H   0  0  0  0  0  0  0  0  0  0  0  0
   -5.3576   -2.1352    0.7498 H   0  0  0  0  0  0  0  0  0  0  0  0
   -4.5461   -1.1931    2.0477 H   0  0  0  0  0  0  0  0  0  0  0  0
   -4.0521   -1.8395   -1.4414 H   0  0  0  0  0  0  0  0  0  0  0  0
   -3.6204   -0.1575   -1.9033 H   0  0  0  0  0  0  0  0  0  0  0  0
   -6.4211   -1.3437   -1.6267 H   0  0  0  0  0  0  0  0  0  0  0  0
   -5.7669   -0.4196   -2.9921 H   0  0  0  0  0  0  0  0  0  0  0  0
   -7.2117    0.9519   -1.2514 H   0  0  0  0  0  0  0  0  0  0  0  0
   -5.6062    1.6090   -1.6199 H   0  0  0  0  0  0  0  0  0  0  0  0
   -6.4227   -0.0841    0.7846 H   0  0  0  0  0  0  0  0  0  0  0  0
   -5.4634    1.4251    0.7844 H   0  0  0  0  0  0  0  0  0  0  0  0
    1.0142    1.8440    1.8794 H   0  0  0  0  0  0  0  0  0  0  0  0
    1.3461    0.2613    2.5298 H   0  0  0  0  0  0  0  0  0  0  0  0
    3.4917    1.0042    2.1267 H   0  0  0  0  0  0  0  0  0  0  0  0
    3.0245    2.0000    0.7582 H   0  0  0  0  0  0  0  0  0  0  0  0
  1  2  1  0
  2  3  1  0
  2  4  1  0
  2  5  1  0
  5  6  1  0
  6  7  1  0
  7  8  1  0
  8  9  1  0
  9 10  1  0
 10 11  2  0
 10 12  1  0
 12 13  1  0
 13 14  1  0
 13 15  1  0
 15 16  1  0
 16 17  1  0
 17 18  1  0
  8 19  1  0
 19 20  1  0
 20  5  1  0
 18 13  1  0
  1 21  1  0
  1 22  1  0
  1 23  1  0
  3 24  1  0
  3 25  1  0
  3 26  1  0
  4 27  1  0
  4 28  1  0
  4 29  1  0
  5 30  1  0
  6 31  1  0
  6 32  1  0
  7 33  1  0
  7 34  1  0
  8 35  1  0
 12 36  1  0
 12 37  1  0
 14 38  1  0
 14 39  1  0
 14 40  1  0
 15 41  1  0
 15 42  1  0
 16 43  1  0
 16 44  1  0
 17 45  1  0
 17 46  1  0
 18 47  1  0
 18 48  1  0
 19 49  1  0
 19 50  1  0
 20 51  1  0
 20 52  1  0
M  CHG  1  13   1
M  END
$$$$
