
     RDKit          3D

 64 68  0  0  0  0  0  0  0  0999 V2000
    2.8922    3.1416   -1.3652 O   0  0  0  0  0  0  0  0  0  0  0  0
    2.3493    2.0811   -1.0306 C   0  0  0  0  0  0  0  0  0  0  0  0
    0.8776    2.1380   -0.6121 C   0  0  0  0  0  0  0  0  0  0  0  0
    0.6603    2.0363    0.8985 C   0  0  0  0  0  0  0  0  0  0  0  0
   -0.8151    2.1974    1.2611 C   0  0  0  0  0  0  0  0  0  0  0  0
   -1.7141    1.2152    0.4873 C   0  0  0  0  0  0  0  0  0  0  0  0
   -3.1833    1.4304    0.9006 C   0  0  0  0  0  0  0  0  0  0  0  0
   -4.0304    0.3466    0.4156 N   0  0  0  0  0  0  0  0  0  0  0  0
   -5.3679    0.1528    0.7508 C   0  0  0  0  0  0  0  0  0  0  0  0
   -5.8560    0.7191    1.8991 N   0  0  0  0  0  0  0  0  0  0  0  0
   -7.1406    0.6190    2.3645 C   0  0  0  0  0  0  0  0  0  0  0  0
   -7.5051    1.3766    3.8156 S   0  0  0  0  0  0  0  0  0  0  0  0
   -8.0500   -0.0830    1.6281 N   0  0  0  0  0  0  0  0  0  0  0  0
   -7.6313   -0.6415    0.5384 C   0  0  0  0  0  0  0  0  0  0  0  0
   -8.6086   -1.4121   -0.2808 C   0  0  0  0  0  0  0  0  0  0  0  0
   -8.2282   -2.0213   -1.4110 C   0  0  0  0  0  0  0  0  0  0  0  0
   -6.8676   -1.9758   -1.8850 C   0  0  0  0  0  0  0  0  0  0  0  0
   -5.9190   -1.3003   -1.2205 C   0  0  0  0  0  0  0  0  0  0  0  0
   -6.2273   -0.5820    0.0061 C   0  0  0  0  0  0  0  0  0  0  0  0
   -1.5030    1.3875   -1.0277 C   0  0  0  0  0  0  0  0  0  0  0  0
   -0.0352    1.2153   -1.4237 C   0  0  0  0  0  0  0  0  0  0  0  0
    3.0520    0.8881   -1.0567 N   0  0  0  0  0  0  0  0  0  0  0  0
    2.7579   -0.3113   -0.2616 C   0  0  0  0  0  0  0  0  0  0  0  0
    3.6684   -0.3736    0.9868 C   0  0  0  0  0  0  0  0  0  0  0  0
    5.1000   -0.2664    0.6219 N   0  0  0  0  0  0  0  0  0  0  0  0
    5.8656   -1.4086    0.3787 C   0  0  0  0  0  0  0  0  0  0  0  0
    5.3116   -2.6876    0.2073 C   0  0  0  0  0  0  0  0  0  0  0  0
    6.1131   -3.8111   -0.0299 C   0  0  0  0  0  0  0  0  0  0  0  0
    7.4899   -3.6732   -0.0868 C   0  0  0  0  0  0  0  0  0  0  0  0
    8.2531   -4.7460   -0.3222 F   0  0  0  0  0  0  0  0  0  0  0  0
    8.0795   -2.4357    0.1021 C   0  0  0  0  0  0  0  0  0  0  0  0
    7.2712   -1.3197    0.3400 C   0  0  0  0  0  0  0  0  0  0  0  0
    5.3881    0.9285   -0.2224 C   0  0  0  0  0  0  0  0  0  0  0  0
    4.4675    0.9444   -1.4612 C   0  0  0  0  0  0  0  0  0  0  0  0
    0.5648    3.1586   -0.8863 H   0  0  0  0  0  0  0  0  0  0  0  0
    1.0110    1.0845    1.3019 H   0  0  0  0  0  0  0  0  0  0  0  0
    1.2475    2.8101    1.4084 H   0  0  0  0  0  0  0  0  0  0  0  0
   -0.9339    2.0443    2.3406 H   0  0  0  0  0  0  0  0  0  0  0  0
   -1.1275    3.2290    1.0531 H   0  0  0  0  0  0  0  0  0  0  0  0
   -1.4202    0.1923    0.7617 H   0  0  0  0  0  0  0  0  0  0  0  0
   -3.5542    2.3887    0.5185 H   0  0  0  0  0  0  0  0  0  0  0  0
   -3.2299    1.4652    1.9944 H   0  0  0  0  0  0  0  0  0  0  0  0
   -3.8379    0.0962   -0.5474 H   0  0  0  0  0  0  0  0  0  0  0  0
   -5.2266    1.2335    2.4951 H   0  0  0  0  0  0  0  0  0  0  0  0
   -9.6292   -1.4505    0.0825 H   0  0  0  0  0  0  0  0  0  0  0  0
   -8.9490   -2.5804   -1.9997 H   0  0  0  0  0  0  0  0  0  0  0  0
   -6.6303   -2.5167   -2.7969 H   0  0  0  0  0  0  0  0  0  0  0  0
   -4.9046   -1.3084   -1.6006 H   0  0  0  0  0  0  0  0  0  0  0  0
   -1.8474    2.3819   -1.3393 H   0  0  0  0  0  0  0  0  0  0  0  0
   -2.0985    0.6595   -1.5891 H   0  0  0  0  0  0  0  0  0  0  0  0
    0.2377    0.1636   -1.3052 H   0  0  0  0  0  0  0  0  0  0  0  0
    0.0783    1.4337   -2.4929 H   0  0  0  0  0  0  0  0  0  0  0  0
    2.9396   -1.1751   -0.9119 H   0  0  0  0  0  0  0  0  0  0  0  0
    1.7167   -0.3592    0.0456 H   0  0  0  0  0  0  0  0  0  0  0  0
    3.4327    0.4791    1.6367 H   0  0  0  0  0  0  0  0  0  0  0  0
    3.4584   -1.2685    1.5829 H   0  0  0  0  0  0  0  0  0  0  0  0
    4.2375   -2.8487    0.2301 H   0  0  0  0  0  0  0  0  0  0  0  0
    5.6657   -4.7892   -0.1725 H   0  0  0  0  0  0  0  0  0  0  0  0
    9.1594   -2.3418    0.0741 H   0  0  0  0  0  0  0  0  0  0  0  0
    7.7612   -0.3679    0.5309 H   0  0  0  0  0  0  0  0  0  0  0  0
    6.4320    0.9884   -0.5448 H   0  0  0  0  0  0  0  0  0  0  0  0
    5.1978    1.8226    0.3849 H   0  0  0  0  0  0  0  0  0  0  0  0
    4.6725    1.8311   -2.0688 H   0  0  0  0  0  0  0  0  0  0  0  0
    4.6617    0.0674   -2.0908 H   0  0  0  0  0  0  0  0  0  0  0  0
  1  2  2  0
  2  3  1  0
  3  4  1  0
  4  5  1  0
  5  6  1  0
  6  7  1  0
  7  8  1  0
  8  9  1  0
  9 10  1  0
 10 11  1  0
 11 12  2  0
 11 13  1  0
 13 14  2  0
 14 15  1  0
 15 16  2  0
 16 17  1  0
 17 18  2  0
 18 19  1  0
  6 20  1  0
 20 21  1  0
  2 22  1  0
 22 23  1  0
 23 24  1  0
 24 25  1  0
 25 26  1  0
 26 27  2  0
 27 28  1  0
 28 29  2  0
 29 30  1  0
 29 31  1  0
 31 32  2  0
 25 33  1  0
 33 34  1  0
 21  3  1  0
 34 22  1  0
 19  9  2  0
 32 26  1  0
 19 14  1  0
  3 35  1  0
  4 36  1  0
  4 37  1  0
  5 38  1  0
  5 39  1  0
  6 40  1  0
  7 41  1  0
  7 42  1  0
  8 43  1  0
 10 44  1  0
 15 45  1  0
 16 46  1  0
 17 47  1  0
 18 48  1  0
 20 49  1  0
 20 50  1  0
 21 51  1  0
 21 52  1  0
 23 53  1  0
 23 54  1  0
 24 55  1  0
 24 56  1  0
 27 57  1  0
 28 58  1  0
 31 59  1  0
 32 60  1  0
 33 61  1  0
 33 62  1  0
 34 63  1  0
 34 64  1  0
M  END
$$$$
