
     RDKit          3D

 46 49  0  0  0  0  0  0  0  0999 V2000
    3.7218   -3.5616   -1.4785 C   0  0  0  0  0  0  0  0  0  0  0  0
    3.3882   -2.2650   -1.5159 C   0  0  0  0  0  0  0  0  0  0  0  0
    2.3544   -1.6329   -0.6130 C   0  0  0  0  0  0  0  0  0  0  0  0
    1.2478   -0.8915   -1.4076 C   0  0  0  0  0  0  0  0  0  0  0  0
    1.1507    0.5446   -1.0358 N   0  0  0  0  0  0  0  0  0  0  0  0
    2.4687    1.1695   -1.2809 C   0  0  0  0  0  0  0  0  0  0  0  0
    3.5452    0.5895   -0.3517 C   0  0  0  0  0  0  0  0  0  0  0  0
    2.9730   -0.6300    0.3914 C   0  0  0  0  0  0  0  0  0  0  0  0
    1.8076   -0.1276    1.2697 C   0  0  0  0  0  0  0  0  0  0  0  0
    0.8157    0.6945    0.4022 C   0  0  0  0  0  0  0  0  0  0  0  0
   -0.6453    0.4192    0.6991 C   0  0  0  0  0  0  0  0  0  0  0  0
   -1.0511    0.0387    1.9614 N   0  0  0  0  0  0  0  0  0  0  0  0
   -2.4109   -0.1254    2.0258 C   0  0  0  0  0  0  0  0  0  0  0  0
   -3.2210   -0.5203    3.0977 C   0  0  0  0  0  0  0  0  0  0  0  0
   -4.5993   -0.5877    2.8775 C   0  0  0  0  0  0  0  0  0  0  0  0
   -5.1409   -0.2683    1.6357 C   0  0  0  0  0  0  0  0  0  0  0  0
   -4.3132    0.1267    0.5781 C   0  0  0  0  0  0  0  0  0  0  0  0
   -2.9170    0.1966    0.7719 C   0  0  0  0  0  0  0  0  0  0  0  0
   -1.8064    0.5597   -0.0641 C   0  0  0  0  0  0  0  0  0  0  0  0
   -1.9280    1.0230   -1.4878 C   0  0  0  0  0  0  0  0  0  0  0  0
   -1.7331    2.5285   -1.6352 C   0  0  0  0  0  0  0  0  0  0  0  0
   -2.0091    2.9248   -2.9774 O   0  0  0  0  0  0  0  0  0  0  0  0
    3.2631   -4.2517   -0.7771 H   0  0  0  0  0  0  0  0  0  0  0  0
    4.4679   -3.9626   -2.1582 H   0  0  0  0  0  0  0  0  0  0  0  0
    3.8782   -1.6242   -2.2467 H   0  0  0  0  0  0  0  0  0  0  0  0
    1.8673   -2.4310   -0.0344 H   0  0  0  0  0  0  0  0  0  0  0  0
    1.4106   -0.9676   -2.4907 H   0  0  0  0  0  0  0  0  0  0  0  0
    0.2843   -1.3872   -1.2344 H   0  0  0  0  0  0  0  0  0  0  0  0
    2.7582    1.0286   -2.3300 H   0  0  0  0  0  0  0  0  0  0  0  0
    2.4002    2.2556   -1.1417 H   0  0  0  0  0  0  0  0  0  0  0  0
    3.8589    1.3494    0.3747 H   0  0  0  0  0  0  0  0  0  0  0  0
    4.4355    0.3173   -0.9290 H   0  0  0  0  0  0  0  0  0  0  0  0
    3.7410   -1.1064    1.0108 H   0  0  0  0  0  0  0  0  0  0  0  0
    2.1989    0.5072    2.0747 H   0  0  0  0  0  0  0  0  0  0  0  0
    1.3345   -0.9941    1.7466 H   0  0  0  0  0  0  0  0  0  0  0  0
    0.9461    1.7557    0.6639 H   0  0  0  0  0  0  0  0  0  0  0  0
   -0.4378   -0.1044    2.7501 H   0  0  0  0  0  0  0  0  0  0  0  0
   -2.8009   -0.7658    4.0673 H   0  0  0  0  0  0  0  0  0  0  0  0
   -5.2569   -0.8922    3.6882 H   0  0  0  0  0  0  0  0  0  0  0  0
   -6.2156   -0.3246    1.4826 H   0  0  0  0  0  0  0  0  0  0  0  0
   -4.7492    0.3746   -0.3851 H   0  0  0  0  0  0  0  0  0  0  0  0
   -1.2300    0.4871   -2.1388 H   0  0  0  0  0  0  0  0  0  0  0  0
   -2.9156    0.7571   -1.8854 H   0  0  0  0  0  0  0  0  0  0  0  0
   -0.7070    2.8218   -1.3918 H   0  0  0  0  0  0  0  0  0  0  0  0
   -2.4133    3.0765   -0.9741 H   0  0  0  0  0  0  0  0  0  0  0  0
   -1.8157    3.8758   -3.0305 H   0  0  0  0  0  0  0  0  0  0  0  0
  1  2  2  0
  2  3  1  0
  3  4  1  0
  4  5  1  0
  5  6  1  0
  6  7  1  0
  7  8  1  0
  8  9  1  0
  9 10  1  0
 10 11  1  0
 11 12  1  0
 12 13  1  0
 13 14  2  0
 14 15  1  0
 15 16  2  0
 16 17  1  0
 17 18  2  0
 18 19  1  0
 19 20  1  0
 20 21  1  0
 21 22  1  0
  8  3  1  0
 19 11  2  0
 10  5  1  0
 18 13  1  0
  1 23  1  0
  1 24  1  0
  2 25  1  0
  3 26  1  0
  4 27  1  0
  4 28  1  0
  6 29  1  0
  6 30  1  0
  7 31  1  0
  7 32  1  0
  8 33  1  0
  9 34  1  0
  9 35  1  0
 10 36  1  0
 12 37  1  0
 14 38  1  0
 15 39  1  0
 16 40  1  0
 17 41  1  0
 20 42  1  0
 20 43  1  0
 21 44  1  0
 21 45  1  0
 22 46  1  0
M  END
$$$$
