
     RDKit          3D

 59 62  0  0  0  0  0  0  0  0999 V2000
   -6.0404    1.9559   -2.3612 C   0  0  0  0  0  0  0  0  0  0  0  0
   -5.6313    0.6213   -1.7620 C   0  0  0  0  0  0  0  0  0  0  0  0
   -5.7203    0.6119   -0.3142 N   0  0  0  0  0  0  0  0  0  0  0  0
   -4.7092    0.8483    0.6004 C   0  0  0  0  0  0  0  0  0  0  0  0
   -3.3428    1.2048    0.2345 C   0  0  0  0  0  0  0  0  0  0  0  0
   -3.1119    1.9461   -0.7198 O   0  0  0  0  0  0  0  0  0  0  0  0
   -2.3003    0.6614    0.9909 N   0  0  0  0  0  0  0  0  0  0  0  0
   -2.4273   -0.5672    1.7763 C   0  0  0  0  0  0  0  0  0  0  0  0
   -1.1083   -1.3391    1.8746 C   0  0  0  0  0  0  0  0  0  0  0  0
   -0.3750   -1.3617    0.5317 C   0  0  0  0  0  0  0  0  0  0  0  0
   -0.1574    0.0548   -0.0462 C   0  0  0  0  0  0  0  0  0  0  0  0
    1.3227    0.4086   -0.0838 C   0  0  0  0  0  0  0  0  0  0  0  0
    1.8346    1.2533    0.6430 O   0  0  0  0  0  0  0  0  0  0  0  0
    2.0445   -0.3299   -0.9986 N   0  0  0  0  0  0  0  0  0  0  0  0
    3.4752   -0.1505   -1.1666 C   0  0  0  0  0  0  0  0  0  0  0  0
    4.2774   -0.8567   -0.0712 C   0  0  0  0  0  0  0  0  0  0  0  0
    5.7626   -0.7171   -0.2905 C   0  0  0  0  0  0  0  0  0  0  0  0
    6.4861   -1.7206   -0.9453 C   0  0  0  0  0  0  0  0  0  0  0  0
    7.8582   -1.5758   -1.1644 C   0  0  0  0  0  0  0  0  0  0  0  0
    8.5267   -0.4202   -0.7456 C   0  0  0  0  0  0  0  0  0  0  0  0
   10.0055   -0.2793   -0.9508 C   0  0  0  0  0  0  0  0  0  0  0  0
    7.8057    0.5780   -0.0814 C   0  0  0  0  0  0  0  0  0  0  0  0
    6.4341    0.4341    0.1387 C   0  0  0  0  0  0  0  0  0  0  0  0
   -0.9345    1.1166    0.7379 C   0  0  0  0  0  0  0  0  0  0  0  0
   -5.2627    0.7626    1.8729 C   0  0  0  0  0  0  0  0  0  0  0  0
   -6.6275    0.4074    1.7029 C   0  0  0  0  0  0  0  0  0  0  0  0
   -8.0252    0.0729    2.6680 S   0  0  0  0  0  0  0  0  0  0  0  0
   -8.9453   -0.1844    1.2379 C   0  0  0  0  0  0  0  0  0  0  0  0
   -8.2311   -0.0228    0.0698 C   0  0  0  0  0  0  0  0  0  0  0  0
   -6.8829    0.3210    0.3688 C   0  0  0  0  0  0  0  0  0  0  0  0
   -5.9512    1.9250   -3.4515 H   0  0  0  0  0  0  0  0  0  0  0  0
   -7.0784    2.2000   -2.1121 H   0  0  0  0  0  0  0  0  0  0  0  0
   -5.4104    2.7705   -1.9896 H   0  0  0  0  0  0  0  0  0  0  0  0
   -6.2762   -0.1796   -2.1412 H   0  0  0  0  0  0  0  0  0  0  0  0
   -4.6081    0.3611   -2.0492 H   0  0  0  0  0  0  0  0  0  0  0  0
   -2.7622   -0.2980    2.7830 H   0  0  0  0  0  0  0  0  0  0  0  0
   -3.1871   -1.2098    1.3179 H   0  0  0  0  0  0  0  0  0  0  0  0
   -1.3023   -2.3607    2.2202 H   0  0  0  0  0  0  0  0  0  0  0  0
   -0.4616   -0.8726    2.6285 H   0  0  0  0  0  0  0  0  0  0  0  0
   -0.9757   -1.9408   -0.1817 H   0  0  0  0  0  0  0  0  0  0  0  0
    0.5697   -1.9043    0.6506 H   0  0  0  0  0  0  0  0  0  0  0  0
   -0.5167    0.0600   -1.0848 H   0  0  0  0  0  0  0  0  0  0  0  0
    1.5718   -1.0146   -1.5744 H   0  0  0  0  0  0  0  0  0  0  0  0
    3.7329   -0.5493   -2.1542 H   0  0  0  0  0  0  0  0  0  0  0  0
    3.6931    0.9241   -1.1739 H   0  0  0  0  0  0  0  0  0  0  0  0
    4.0060   -1.9199   -0.0362 H   0  0  0  0  0  0  0  0  0  0  0  0
    4.0175   -0.4572    0.9173 H   0  0  0  0  0  0  0  0  0  0  0  0
    5.9889   -2.6255   -1.2867 H   0  0  0  0  0  0  0  0  0  0  0  0
    8.4027   -2.3724   -1.6660 H   0  0  0  0  0  0  0  0  0  0  0  0
   10.2811    0.7711   -1.0926 H   0  0  0  0  0  0  0  0  0  0  0  0
   10.5429   -0.6727   -0.0824 H   0  0  0  0  0  0  0  0  0  0  0  0
   10.3303   -0.8233   -1.8440 H   0  0  0  0  0  0  0  0  0  0  0  0
    8.3073    1.4772    0.2690 H   0  0  0  0  0  0  0  0  0  0  0  0
    5.8915    1.2266    0.6511 H   0  0  0  0  0  0  0  0  0  0  0  0
   -0.4776    1.3229    1.7141 H   0  0  0  0  0  0  0  0  0  0  0  0
   -0.9306    2.0678    0.1935 H   0  0  0  0  0  0  0  0  0  0  0  0
   -4.7565    0.9444    2.8110 H   0  0  0  0  0  0  0  0  0  0  0  0
   -9.9909   -0.4440    1.3334 H   0  0  0  0  0  0  0  0  0  0  0  0
   -8.6502   -0.1399   -0.9208 H   0  0  0  0  0  0  0  0  0  0  0  0
  1  2  1  0
  2  3  1  0
  3  4  1  0
  4  5  1  0
  5  6  2  0
  5  7  1  0
  7  8  1  0
  8  9  1  0
  9 10  1  0
 10 11  1  0
 11 12  1  0
 12 13  2  0
 12 14  1  0
 14 15  1  0
 15 16  1  0
 16 17  1  0
 17 18  2  0
 18 19  1  0
 19 20  2  0
 20 21  1  0
 20 22  1  0
 22 23  2  0
 11 24  1  0
  4 25  2  0
 25 26  1  0
 26 27  1  0
 27 28  1  0
 28 29  2  0
 29 30  1  0
 30  3  1  0
 24  7  1  0
 30 26  2  0
 23 17  1  0
  1 31  1  0
  1 32  1  0
  1 33  1  0
  2 34  1  0
  2 35  1  0
  8 36  1  0
  8 37  1  0
  9 38  1  0
  9 39  1  0
 10 40  1  0
 10 41  1  0
 11 42  1  0
 14 43  1  0
 15 44  1  0
 15 45  1  0
 16 46  1  0
 16 47  1  0
 18 48  1  0
 19 49  1  0
 21 50  1  0
 21 51  1  0
 21 52  1  0
 22 53  1  0
 23 54  1  0
 24 55  1  0
 24 56  1  0
 25 57  1  0
 28 58  1  0
 29 59  1  0
M  END
$$$$
