
     RDKit          3D

 36 37  0  0  0  0  0  0  0  0999 V2000
    5.4429   -1.0889   -1.7028 C   0  0  0  0  0  0  0  0  0  0  0  0
    4.4483   -0.3322   -2.3815 O   0  0  0  0  0  0  0  0  0  0  0  0
    3.2806   -0.0957   -1.7090 C   0  0  0  0  0  0  0  0  0  0  0  0
    2.3779    0.7221   -2.3878 C   0  0  0  0  0  0  0  0  0  0  0  0
    1.1442    1.0417   -1.8200 C   0  0  0  0  0  0  0  0  0  0  0  0
    0.8096    0.5709   -0.5460 C   0  0  0  0  0  0  0  0  0  0  0  0
   -0.4589    0.9425   -0.0422 N   0  0  0  0  0  0  0  0  0  0  0  0
   -0.7847    1.3405    1.2306 C   0  0  0  0  0  0  0  0  0  0  0  0
    0.2526    1.9837    2.3830 S   0  0  0  0  0  0  0  0  0  0  0  0
   -2.1236    1.3611    1.5337 N   0  0  0  0  0  0  0  0  0  0  0  0
   -3.2274    0.7201    0.9352 C   0  0  0  0  0  0  0  0  0  0  0  0
   -3.1245   -0.3356    0.0263 C   0  0  0  0  0  0  0  0  0  0  0  0
   -4.2743   -0.9234   -0.5111 C   0  0  0  0  0  0  0  0  0  0  0  0
   -5.5360   -0.4697   -0.1342 C   0  0  0  0  0  0  0  0  0  0  0  0
   -5.6500    0.5635    0.7915 C   0  0  0  0  0  0  0  0  0  0  0  0
   -4.5011    1.1488    1.3296 C   0  0  0  0  0  0  0  0  0  0  0  0
    1.6948   -0.2946    0.1253 C   0  0  0  0  0  0  0  0  0  0  0  0
    1.2404   -0.9002    1.2715 O   0  0  0  0  0  0  0  0  0  0  0  0
    2.2317   -1.3120    2.2053 C   0  0  0  0  0  0  0  0  0  0  0  0
    2.9301   -0.6160   -0.4610 C   0  0  0  0  0  0  0  0  0  0  0  0
    5.1048   -2.1159   -1.5305 H   0  0  0  0  0  0  0  0  0  0  0  0
    6.3264   -1.1334   -2.3469 H   0  0  0  0  0  0  0  0  0  0  0  0
    5.7382   -0.6062   -0.7652 H   0  0  0  0  0  0  0  0  0  0  0  0
    2.6382    1.1149   -3.3678 H   0  0  0  0  0  0  0  0  0  0  0  0
    0.4670    1.6882   -2.3712 H   0  0  0  0  0  0  0  0  0  0  0  0
   -1.1146    1.3003   -0.7258 H   0  0  0  0  0  0  0  0  0  0  0  0
   -2.3219    1.8877    2.3779 H   0  0  0  0  0  0  0  0  0  0  0  0
   -2.1646   -0.7621   -0.2478 H   0  0  0  0  0  0  0  0  0  0  0  0
   -4.1809   -1.7489   -1.2125 H   0  0  0  0  0  0  0  0  0  0  0  0
   -6.4278   -0.9308   -0.5505 H   0  0  0  0  0  0  0  0  0  0  0  0
   -6.6324    0.9133    1.0981 H   0  0  0  0  0  0  0  0  0  0  0  0
   -4.6162    1.9553    2.0495 H   0  0  0  0  0  0  0  0  0  0  0  0
    1.7339   -1.4933    3.1629 H   0  0  0  0  0  0  0  0  0  0  0  0
    2.6920   -2.2529    1.8879 H   0  0  0  0  0  0  0  0  0  0  0  0
    2.9901   -0.5375    2.3638 H   0  0  0  0  0  0  0  0  0  0  0  0
    3.5955   -1.3054    0.0416 H   0  0  0  0  0  0  0  0  0  0  0  0
  1  2  1  0
  2  3  1  0
  3  4  2  0
  4  5  1  0
  5  6  2  0
  6  7  1  0
  7  8  1  0
  8  9  2  0
  8 10  1  0
 10 11  1  0
 11 12  2  0
 12 13  1  0
 13 14  2  0
 14 15  1  0
 15 16  2  0
  6 17  1  0
 17 18  1  0
 18 19  1  0
 17 20  2  0
 20  3  1  0
 16 11  1  0
  1 21  1  0
  1 22  1  0
  1 23  1  0
  4 24  1  0
  5 25  1  0
  7 26  1  0
 10 27  1  0
 12 28  1  0
 13 29  1  0
 14 30  1  0
 15 31  1  0
 16 32  1  0
 19 33  1  0
 19 34  1  0
 19 35  1  0
 20 36  1  0
M  END
$$$$
