
     RDKit          3D

 55 57  0  0  0  0  0  0  0  0999 V2000
   -2.9461   -4.4676   -1.2879 C   0  0  0  0  0  0  0  0  0  0  0  0
   -1.8670   -3.6177   -0.6464 C   0  0  0  0  0  0  0  0  0  0  0  0
   -2.1360   -2.2517   -0.9507 O   0  0  0  0  0  0  0  0  0  0  0  0
   -1.2042   -1.3609   -0.3285 C   0  0  0  0  0  0  0  0  0  0  0  0
    0.1127   -1.5802   -0.8449 O   0  0  0  0  0  0  0  0  0  0  0  0
    1.0529   -0.6368   -0.4874 C   0  0  0  0  0  0  0  0  0  0  0  0
    2.4957   -0.9989   -0.7324 C   0  0  0  0  0  0  0  0  0  0  0  0
    2.8122   -1.5563   -1.7763 O   0  0  0  0  0  0  0  0  0  0  0  0
    3.3227   -0.6840    0.3299 N   0  0  0  0  0  0  0  0  0  0  0  0
    4.7175   -0.8739    0.4164 C   0  0  0  0  0  0  0  0  0  0  0  0
    5.3377   -0.5184    1.6220 C   0  0  0  0  0  0  0  0  0  0  0  0
    6.7169   -0.6714    1.7880 C   0  0  0  0  0  0  0  0  0  0  0  0
    7.4902   -1.1805    0.7488 C   0  0  0  0  0  0  0  0  0  0  0  0
    6.8835   -1.5343   -0.4538 C   0  0  0  0  0  0  0  0  0  0  0  0
    5.5029   -1.3811   -0.6200 C   0  0  0  0  0  0  0  0  0  0  0  0
    0.7343    0.5813   -0.0166 C   0  0  0  0  0  0  0  0  0  0  0  0
   -0.6943    1.0396    0.1350 C   0  0  0  0  0  0  0  0  0  0  0  0
   -0.8569    2.4883   -0.3033 C   0  0  0  0  0  0  0  0  0  0  0  0
   -0.6040    2.8860   -1.6264 C   0  0  0  0  0  0  0  0  0  0  0  0
   -0.7589    4.2188   -2.0111 C   0  0  0  0  0  0  0  0  0  0  0  0
   -1.1659    5.1715   -1.0803 C   0  0  0  0  0  0  0  0  0  0  0  0
   -1.4167    4.7936    0.2366 C   0  0  0  0  0  0  0  0  0  0  0  0
   -1.2623    3.4612    0.6243 C   0  0  0  0  0  0  0  0  0  0  0  0
   -1.6657    0.0835   -0.5984 C   0  0  0  0  0  0  0  0  0  0  0  0
   -3.1574    0.3323   -0.2685 C   0  0  0  0  0  0  0  0  0  0  0  0
   -3.5560    0.1021    1.1896 C   0  0  0  0  0  0  0  0  0  0  0  0
   -5.0556    0.2906    1.3909 C   0  0  0  0  0  0  0  0  0  0  0  0
   -5.3782    0.0937    2.7613 O   0  0  0  0  0  0  0  0  0  0  0  0
   -2.9612   -4.3175   -2.3725 H   0  0  0  0  0  0  0  0  0  0  0  0
   -3.9347   -4.1829   -0.9129 H   0  0  0  0  0  0  0  0  0  0  0  0
   -2.7819   -5.5287   -1.0806 H   0  0  0  0  0  0  0  0  0  0  0  0
   -1.8757   -3.7667    0.4388 H   0  0  0  0  0  0  0  0  0  0  0  0
   -0.8877   -3.9065   -1.0423 H   0  0  0  0  0  0  0  0  0  0  0  0
   -1.1943   -1.5646    0.7511 H   0  0  0  0  0  0  0  0  0  0  0  0
    2.8791   -0.3116    1.1580 H   0  0  0  0  0  0  0  0  0  0  0  0
    4.7588   -0.1187    2.4501 H   0  0  0  0  0  0  0  0  0  0  0  0
    7.1863   -0.3936    2.7281 H   0  0  0  0  0  0  0  0  0  0  0  0
    8.5630   -1.3016    0.8734 H   0  0  0  0  0  0  0  0  0  0  0  0
    7.4816   -1.9322   -1.2698 H   0  0  0  0  0  0  0  0  0  0  0  0
    5.0736   -1.6677   -1.5749 H   0  0  0  0  0  0  0  0  0  0  0  0
    1.5103    1.3082    0.2135 H   0  0  0  0  0  0  0  0  0  0  0  0
   -0.8943    0.9877    1.2134 H   0  0  0  0  0  0  0  0  0  0  0  0
   -0.2804    2.1601   -2.3705 H   0  0  0  0  0  0  0  0  0  0  0  0
   -0.5603    4.5126   -3.0388 H   0  0  0  0  0  0  0  0  0  0  0  0
   -1.2859    6.2088   -1.3819 H   0  0  0  0  0  0  0  0  0  0  0  0
   -1.7324    5.5384    0.9627 H   0  0  0  0  0  0  0  0  0  0  0  0
   -1.4633    3.1910    1.6584 H   0  0  0  0  0  0  0  0  0  0  0  0
   -1.5726    0.2449   -1.6831 H   0  0  0  0  0  0  0  0  0  0  0  0
   -3.7715   -0.3133   -0.9095 H   0  0  0  0  0  0  0  0  0  0  0  0
   -3.4222    1.3588   -0.5511 H   0  0  0  0  0  0  0  0  0  0  0  0
   -3.2831   -0.9079    1.5157 H   0  0  0  0  0  0  0  0  0  0  0  0
   -3.0207    0.7905    1.8526 H   0  0  0  0  0  0  0  0  0  0  0  0
   -5.3781    1.2948    1.0971 H   0  0  0  0  0  0  0  0  0  0  0  0
   -5.6213   -0.4387    0.8026 H   0  0  0  0  0  0  0  0  0  0  0  0
   -4.9848    0.8279    3.2627 H   0  0  0  0  0  0  0  0  0  0  0  0
  1  2  1  0
  2  3  1  0
  3  4  1  0
  4  5  1  0
  5  6  1  0
  6  7  1  0
  7  8  2  0
  7  9  1  0
  9 10  1  0
 10 11  2  0
 11 12  1  0
 12 13  2  0
 13 14  1  0
 14 15  2  0
  6 16  2  0
 16 17  1  0
 17 18  1  0
 18 19  2  0
 19 20  1  0
 20 21  2  0
 21 22  1  0
 22 23  2  0
 17 24  1  0
 24 25  1  0
 25 26  1  0
 26 27  1  0
 27 28  1  0
 24  4  1  0
 15 10  1  0
 23 18  1  0
  1 29  1  0
  1 30  1  0
  1 31  1  0
  2 32  1  0
  2 33  1  0
  4 34  1  0
  9 35  1  0
 11 36  1  0
 12 37  1  0
 13 38  1  0
 14 39  1  0
 15 40  1  0
 16 41  1  0
 17 42  1  0
 19 43  1  0
 20 44  1  0
 21 45  1  0
 22 46  1  0
 23 47  1  0
 24 48  1  0
 25 49  1  0
 25 50  1  0
 26 51  1  0
 26 52  1  0
 27 53  1  0
 27 54  1  0
 28 55  1  0
M  END
$$$$
